AV-unprocessed.smi:2026|AV-procd|sdf|8201|dock3
  -GOLD-   2272010453D 1   1.00000     0.00000
 Structure written by MMmdl.
 46 48  0  0  0  0  0  0  0  0  1 V2000
  152.8890  142.6341  159.9182 C   0  0  0  0  0  0  0  0  0  0  0  0
  152.3400  141.7897  158.7820 C   0  0  0  0  0  0  0  0  0  0  0  0
  152.5534  140.3922  158.7986 C   0  0  0  0  0  0  0  0  0  0  0  0
  152.0562  139.5713  157.7622 C   0  0  0  0  0  0  0  0  0  0  0  0
  152.1418  138.2016  157.5755 N   0  0  0  0  0  0  0  0  0  0  0  0
  151.4831  138.0445  156.4299 C   0  0  0  0  0  0  0  0  0  0  0  0
  150.9820  139.1531  155.8525 N   0  0  0  0  0  0  0  0  0  0  0  0
  150.2382  139.2509  154.6119 C   0  0  0  0  0  0  0  0  0  0  0  0
  148.8731  138.5387  154.7017 C   0  0  2  0  0  0  0  0  0  0  0  0
  149.0249  137.1839  154.3295 O   0  0  0  0  0  0  0  0  0  0  0  0
  147.7785  139.1749  153.8197 C   0  0  0  0  0  0  0  0  0  0  0  0
  147.3647  140.4959  154.3096 N   0  0  0  0  0  0  0  0  0  0  0  0
  148.1230  141.6054  154.2471 C   0  0  0  0  0  0  0  0  0  0  0  0
  149.2535  141.6945  153.7707 O   0  0  0  0  0  0  0  0  0  0  0  0
  147.4413  142.6136  154.8068 N   0  0  0  0  0  0  0  0  0  0  0  0
  146.1388  142.2099  155.3006 C   0  0  0  0  0  0  0  0  0  0  0  0
  146.0544  142.3813  156.8282 C   0  0  0  0  0  0  0  0  0  0  0  0
  145.0151  142.9611  154.5647 C   0  0  0  0  0  0  0  0  0  0  0  0
  146.1886  140.7429  154.9032 C   0  0  0  0  0  0  0  0  0  0  0  0
  145.2800  139.9405  155.1183 O   0  0  0  0  0  0  0  0  0  0  0  0
  151.3371  140.1938  156.7014 C   0  0  0  0  0  0  0  0  0  0  0  0
  151.1190  141.5818  156.6725 C   0  0  0  0  0  0  0  0  0  0  0  0
  151.6217  142.3872  157.7149 C   0  0  0  0  0  0  0  0  0  0  0  0
  151.3779  143.8856  157.6738 C   0  0  0  0  0  0  0  0  0  0  0  0
  153.3449  142.0146  160.6909 H   0  0  0  0  0  0  0  0  0  0  0  0
  152.0929  143.2150  160.3843 H   0  0  0  0  0  0  0  0  0  0  0  0
  153.6485  143.3224  159.5468 H   0  0  0  0  0  0  0  0  0  0  0  0
  153.1015  139.9374  159.6106 H   0  0  0  0  0  0  0  0  0  0  0  0
  151.3568  137.0682  155.9853 H   0  0  0  0  0  0  0  0  0  0  0  0
  150.1074  140.3118  154.4004 H   0  0  0  0  0  0  0  0  0  0  0  0
  150.8385  138.8433  153.7974 H   0  0  0  0  0  0  0  0  0  0  0  0
  148.5338  138.5421  155.7379 H   0  0  0  0  0  0  0  0  0  0  0  0
  149.1093  137.1374  153.3895 H   0  0  0  0  0  0  0  0  0  0  0  0
  148.1218  139.2345  152.7853 H   0  0  0  0  0  0  0  0  0  0  0  0
  146.9005  138.5265  153.7992 H   0  0  0  0  0  0  0  0  0  0  0  0
  147.7903  143.5572  154.8929 H   0  0  0  0  0  0  0  0  0  0  0  0
  145.0894  142.0474  157.2112 H   0  0  0  0  0  0  0  0  0  0  0  0
  146.1764  143.4270  157.1122 H   0  0  0  0  0  0  0  0  0  0  0  0
  146.8281  141.8101  157.3430 H   0  0  0  0  0  0  0  0  0  0  0  0
  144.0327  142.6612  154.9315 H   0  0  0  0  0  0  0  0  0  0  0  0
  145.0372  142.7721  153.4904 H   0  0  0  0  0  0  0  0  0  0  0  0
  145.1045  144.0381  154.7100 H   0  0  0  0  0  0  0  0  0  0  0  0
  150.5649  142.0206  155.8561 H   0  0  0  0  0  0  0  0  0  0  0  0
  150.8705  144.1805  156.7543 H   0  0  0  0  0  0  0  0  0  0  0  0
  152.3209  144.4302  157.7236 H   0  0  0  0  0  0  0  0  0  0  0  0
  150.7549  144.1925  158.5140 H   0  0  0  0  0  0  0  0  0  0  0  0
  1  2  1  0  0  0  0
  1 25  1  0  0  0  0
  1 26  1  0  0  0  0
  1 27  1  0  0  0  0
  2 23  1  0  0  0  0
  2  3  2  0  0  0  0
  3  4  1  0  0  0  0
  3 28  1  0  0  0  0
  4 21  2  0  0  0  0
  4  5  1  0  0  0  0
  5  6  2  0  0  0  0
  6  7  1  0  0  0  0
  6 29  1  0  0  0  0
  7  8  1  0  0  0  0
  7 21  1  0  0  0  0
  8  9  1  0  0  0  0
  8 30  1  0  0  0  0
  8 31  1  0  0  0  0
  9 10  1  0  0  0  0
  9 11  1  0  0  0  0
  9 32  1  0  0  0  0
 10 33  1  0  0  0  0
 11 12  1  0  0  0  0
 11 34  1  0  0  0  0
 11 35  1  0  0  0  0
 12 19  1  0  0  0  0
 12 13  1  0  0  0  0
 13 14  2  0  0  0  0
 13 15  1  0  0  0  0
 15 16  1  0  0  0  0
 15 36  1  0  0  0  0
 16 17  1  0  0  0  0
 16 18  1  0  0  0  0
 16 19  1  0  0  0  0
 17 37  1  0  0  0  0
 17 38  1  0  0  0  0
 17 39  1  0  0  0  0
 18 40  1  0  0  0  0
 18 41  1  0  0  0  0
 18 42  1  0  0  0  0
 19 20  2  0  0  0  0
 21 22  1  0  0  0  0
 22 23  2  0  0  0  0
 22 43  1  0  0  0  0
 23 24  1  0  0  0  0
 24 44  1  0  0  0  0
 24 45  1  0  0  0  0
 24 46  1  0  0  0  0
M  END
> <s_m_source_file>
AV-unprocessed.smi

> <i_m_source_file_index>
2026

> <i_lp_mmshare_version>
43012

> <i_f3d_flags>
0

> <s_epik_input>
W0NIM11jKFtjSF0xKWMoW0NIM10pW2NIXWMoYzEyKW4oW2NIXW4yKVtDSDJdW0NASF0oW09IXSlbQ0gyXU4oQzM9TylDKD1PKVtOSF1DMyhbQ0gzXSlbQ0gzXQ==

> <s_epik_cmdline>
J2VwaWtfcHl0aG9uJywgJy1waCcsICc3LjAnLCAnLXRuJywgJzgnLCAnLW1hJywgJzIwMCcsICctbWV0YWxfYmluZGluZycsICctaW1hZScsICc8aW5maWxlLm1hZT4nLCAnLW9tYWUnLCAnPG91dGZpbGUubWFlPic=

> <r_lp_tautomer_probability>
1

> <r_epik_Ionization_Penalty>
0.103994

> <r_epik_Ionization_Penalty_Charging>
0

> <r_epik_Ionization_Penalty_Neutral>
0.103994

> <r_epik_State_Penalty>
0.0938482

> <r_epik_Charging_Adjusted_Penalty>
0.0938482

> <i_epik_Tot_Q>
0

> <i_epik_Tot_abs_Q>
0

> <r_epik_Metal_State_Penalty>
0.106997

> <b_epik_Metal_Only>
0

> <s_lp_Force_Field>
OPLS_2005

> <r_lp_Energy>
21.0149

> <b_lp_Chiralities_Consistent>
1

> <s_lp_Variant>
AV-unprocessed.smi:2026-1

> <Gold.Version>
5.8.1

> <Gold.Id.Protein>
6NUR|6NUR_protein|mol2

> <Gold.PLP.Fitness>
46.7575

> <Gold.PLP.PLP>
-39.9723

> <Gold.PLP.part.hbond>
-3.9296

> <Gold.PLP.part.metal>
0.0000

> <Gold.PLP.part.buried>
-5.5208

> <Gold.PLP.part.nonpolar>
-32.2579

> <Gold.PLP.part.repulsive>
0.4647

> <Gold.PLP.ligand.clash>
0.0000

> <Gold.PLP.ligand.torsion>
0.5731

> <Gold.PLP.Chemscore.Hbond>
2.6400

> <Gold.PLP.Chemscore.CHOScore>
0.0000

> <Gold.PLP.Chemscore.Metal>
0.0000

> <Gold.Chemscore.Hbonds>
donor molecule, donor type, donor heavy atom, donor atom, acceptor molecule, acceptor atom, score
      L1  H    10    33       P1  7948  1.00
      L1  H    15    36       P1  8028  1.00
      P1  H  8011  8017       L1    14  0.66

> <Gold.PLP.Chemscore.Internal.Correction>
0.0113

> <Gold.Rescore>
     Score         DG    S(hbond)    S(metal)    S(lipo)     H(rot)  DE(clash)    DE(int)     intcor
     15.84     -18.32       2.39        0.00      94.69       2.44       0.42       2.06       ----

> <Gold.Chemscore.Fitness>
15.8393

> <Gold.Chemscore.DG>
-18.3201

> <Gold.Chemscore.ZeroCoef>
-5.4800

> <Gold.Chemscore.Hbond>
2.3943

> <Gold.Chemscore.Metal>
0.0000

> <Gold.Chemscore.Lipo>
94.6917

> <Gold.Chemscore.Internal_Hbond>
0.0000

> <Gold.Chemscore.DEClash>
0.4171

> <Gold.Chemscore.DEInternal>
2.0638

> <Gold.Chemscore.Rot>
2.4358

> <Gold.Chemscore.Internal.Correction>
   9.000000E+99

> <Gold.Chemscore.Hbonds>
donor molecule, donor type, donor heavy atom, donor atom, acceptor molecule, acceptor atom, score
      L1  H    10    33       P1  7948  0.95
      L1  H    15    36       P1  8028  0.38
      P1  H  8011  8017       L1    14  0.64

> <Gold.Chemscore.Hbond.Weighted>
-7.9969

> <Gold.Chemscore.Metal.Weighted>
-0.0000

> <Gold.Chemscore.Lipo.Weighted>
-11.0789

> <Gold.Chemscore.Internal_Hbond.Weighted>
0.0000

> <Gold.Chemscore.DEClash.Weighted>
0.4171

> <Gold.Chemscore.DEInternal.Weighted>
2.0638

> <Gold.Chemscore.Rot.Weighted>
6.2357

> <Gold.Chemscore.Internal.Correction.Weighted>
   9.000000E+99

> <Gold.Protein.RotatedTorsions>
[ 6907 6896 6895 6894 ] final   35.13 input  -60.11 | X-H torsion
[ 7974 7965 7964 7962 ] final  -57.14 input  175.53 | X-H torsion
[ 8008 7997 7996 7995 ] final    1.41 input   59.86 | X-H torsion
[ 10167 10162 10161 10158 ] final  142.40 input  -65.29 | X-H torsion
[ 10718 10713 10712 10709 ] final -104.29 input   66.30 | X-H torsion
[ 10763 10752 10751 10750 ] final  100.86 input  -60.55 | X-H torsion
[ 11005 11000 10999 10996 ] final   30.18 input  -57.11 | X-H torsion

> <Gold.Protein.ActiveResidues>
 VAL166  LYS551  ARG553  GLY616  TRP617  ASP618  TYR619  PRO620  LYS621  CYS622 
 ASP623  PHE694  ASN695  SER759  ASP760  ASP761  ALA762  ILE779  LEU786  VAL792 
 PHE793  MET794  SER795  GLU796  ALA797  LYS798  CYS799  TRP800  GLU811  SER814 

> <Gold.Protein.RotatedAtoms>
  152.1119  134.9268  160.0566 H   0  0  0  0  0  0  0  0  0  0  0  0  # atno 6907 bound_to 6896
  152.0443  133.3986  159.4358 H   0  0  0  0  0  0  0  0  0  0  0  0  # atno 6908 bound_to 6896
  150.6844  134.3300  159.4867 H   0  0  0  0  0  0  0  0  0  0  0  0  # atno 6909 bound_to 6896
  145.8545  140.8329  142.9968 H   0  0  0  0  0  0  0  0  0  0  0  0  # atno 7974 bound_to 7965
  154.6794  140.2629  155.6924 H   0  0  0  0  0  0  0  0  0  0  0  0  # atno 8008 bound_to 7997
  156.2690  140.2813  156.1255 H   0  0  0  0  0  0  0  0  0  0  0  0  # atno 8009 bound_to 7997
  155.1054  140.0375  157.2699 H   0  0  0  0  0  0  0  0  0  0  0  0  # atno 8010 bound_to 7997
  139.4995  144.6109  151.6273 H   0  0  0  0  0  0  0  0  0  0  0  0  # atno 10167 bound_to 10162
  156.0298  130.5508  150.7375 H   0  0  0  0  0  0  0  0  0  0  0  0  # atno 10718 bound_to 10713
  153.3193  135.4064  155.1403 H   0  0  0  0  0  0  0  0  0  0  0  0  # atno 10763 bound_to 10752
  154.8596  135.3583  154.5618 H   0  0  0  0  0  0  0  0  0  0  0  0  # atno 10764 bound_to 10752
  153.6050  135.7070  153.5428 H   0  0  0  0  0  0  0  0  0  0  0  0  # atno 10765 bound_to 10752
  140.2971  134.2799  155.7762 H   0  0  0  0  0  0  0  0  0  0  0  0  # atno 11005 bound_to 11000
  144.6728  140.1003  143.7461 LP  0  0  0  0  0  0  0  0  0  0  0  0  # atno 17320 bound_to 7965
  145.9319  139.2612  143.1320 LP  0  0  0  0  0  0  0  0  0  0  0  0  # atno 17321 bound_to 7965
  140.5784  143.9989  150.6254 LP  0  0  0  0  0  0  0  0  0  0  0  0  # atno 17342 bound_to 10162
  140.3130  143.3186  152.0860 LP  0  0  0  0  0  0  0  0  0  0  0  0  # atno 17343 bound_to 10162
  157.4952  131.0914  151.0380 LP  0  0  0  0  0  0  0  0  0  0  0  0  # atno 17370 bound_to 10713
  157.0776  130.5890  149.5414 LP  0  0  0  0  0  0  0  0  0  0  0  0  # atno 17371 bound_to 10713
  141.2135  133.7622  156.9711 LP  0  0  0  0  0  0  0  0  0  0  0  0  # atno 17394 bound_to 11000
  140.1143  134.9457  157.2111 LP  0  0  0  0  0  0  0  0  0  0  0  0  # atno 17395 bound_to 11000

$$$$
