AV-unprocessed.smi:1144|AV-procd|sdf|4878|dock1
  -GOLD-   22720 3453D 1   1.00000     0.00000
 Structure written by MMmdl.
 35 36  0  0  0  0  0  0  0  0  2 V2000
  147.8911  137.9419  154.5868 C   0  0  0  0  0  0  0  0  0  0  0  0
  148.7771  138.6955  153.6695 N   0  3  1  0  0  0  0  0  0  0  0  0
  148.0919  139.7935  152.9473 C   0  0  0  0  0  0  0  0  0  0  0  0
  147.9256  141.0339  153.8434 C   0  0  0  0  0  0  0  0  0  0  0  0
  149.1958  141.4258  154.3468 O   0  0  0  0  0  0  0  0  0  0  0  0
  149.7930  140.4272  155.1685 C   0  0  2  0  0  0  0  0  0  0  0  0
  151.1120  140.9760  155.7384 C   0  0  0  0  0  0  0  0  0  0  0  0
  151.4128  140.4344  157.0572 N   0  0  0  0  0  0  0  0  0  0  0  0
  151.8199  141.1838  158.1463 C   0  0  0  0  0  0  0  0  0  0  0  0
  152.5548  140.5883  159.0923 N   0  0  0  0  0  0  0  0  0  0  0  0
  152.9382  141.3472  160.1412 C   0  0  0  0  0  0  0  0  0  0  0  0
  152.5842  142.7069  160.2412 C   0  0  0  0  0  0  0  0  0  0  0  0
  151.8045  143.2304  159.1858 C   0  0  0  0  0  0  0  0  0  0  0  0
  151.3455  144.6807  159.1614 C   0  0  0  0  0  0  0  0  0  0  0  0
  150.0212  144.7304  159.0162 F   0  0  0  0  0  0  0  0  0  0  0  0
  151.6721  145.3165  160.2871 F   0  0  0  0  0  0  0  0  0  0  0  0
  151.9156  145.3155  158.1372 F   0  0  0  0  0  0  0  0  0  0  0  0
  151.4260  142.4585  158.1401 N   0  0  0  0  0  0  0  0  0  0  0  0
  150.0309  139.1699  154.3042 C   0  0  0  0  0  0  0  0  0  0  0  0
  147.5197  138.5655  155.3999 H   0  0  0  0  0  0  0  0  0  0  0  0
  148.4235  137.0963  155.0235 H   0  0  0  0  0  0  0  0  0  0  0  0
  147.0314  137.5447  154.0461 H   0  0  0  0  0  0  0  0  0  0  0  0
  148.6943  140.0580  152.0773 H   0  0  0  0  0  0  0  0  0  0  0  0
  147.1274  139.4565  152.5653 H   0  0  0  0  0  0  0  0  0  0  0  0
  147.5074  141.8588  153.2663 H   0  0  0  0  0  0  0  0  0  0  0  0
  147.2351  140.8430  154.6660 H   0  0  0  0  0  0  0  0  0  0  0  0
  149.1267  140.1849  155.9981 H   0  0  0  0  0  0  0  0  0  0  0  0
  151.9346  140.6897  155.0829 H   0  0  0  0  0  0  0  0  0  0  0  0
  151.1038  142.0663  155.7584 H   0  0  0  0  0  0  0  0  0  0  0  0
  151.1901  139.4649  157.2310 H   0  0  0  0  0  0  0  0  0  0  0  0
  153.5308  140.8664  160.9053 H   0  0  0  0  0  0  0  0  0  0  0  0
  152.8952  143.3067  161.0837 H   0  0  0  0  0  0  0  0  0  0  0  0
  150.4775  138.3699  154.8961 H   0  0  0  0  0  0  0  0  0  0  0  0
  150.7444  139.4030  153.5127 H   0  0  0  0  0  0  0  0  0  0  0  0
  149.0539  138.0264  152.9651 H   0  0  0  0  0  0  0  0  0  0  0  0
  1  2  1  0  0  0  0
  1 20  1  0  0  0  0
  1 21  1  0  0  0  0
  1 22  1  0  0  0  0
  2 19  1  0  0  0  0
  2  3  1  0  0  0  0
  2 35  1  0  0  0  0
  3  4  1  0  0  0  0
  3 23  1  0  0  0  0
  3 24  1  0  0  0  0
  4  5  1  0  0  0  0
  4 25  1  0  0  0  0
  4 26  1  0  0  0  0
  5  6  1  0  0  0  0
  6  7  1  0  0  0  0
  6 19  1  0  0  0  0
  6 27  1  0  0  0  0
  7  8  1  0  0  0  0
  7 28  1  0  0  0  0
  7 29  1  0  0  0  0
  8  9  1  0  0  0  0
  8 30  1  0  0  0  0
  9 18  1  0  0  0  0
  9 10  2  0  0  0  0
 10 11  1  0  0  0  0
 11 12  2  0  0  0  0
 11 31  1  0  0  0  0
 12 13  1  0  0  0  0
 12 32  1  0  0  0  0
 13 14  1  0  0  0  0
 13 18  2  0  0  0  0
 14 15  1  0  0  0  0
 14 16  1  0  0  0  0
 14 17  1  0  0  0  0
 19 33  1  0  0  0  0
 19 34  1  0  0  0  0
M  CHG  1   2   1
M  END
> <s_m_source_file>
AV-unprocessed.smi

> <i_m_source_file_index>
1144

> <i_lp_mmshare_version>
43012

> <i_f3d_flags>
0

> <s_epik_input>
W0NIM11OMVtDSDJdW0NIMl1PW0NASF0oW0NIMl0xKVtDSDJdW05IXWMybltjSF1bY0hdYyhuMilDKEYpKEYpRg==

> <s_epik_cmdline>
J2VwaWtfcHl0aG9uJywgJy1waCcsICc3LjAnLCAnLXRuJywgJzgnLCAnLW1hJywgJzIwMCcsICctbWV0YWxfYmluZGluZycsICctaW1hZScsICc8aW5maWxlLm1hZT4nLCAnLW9tYWUnLCAnPG91dGZpbGUubWFlPic=

> <r_lp_tautomer_probability>
1

> <r_epik_Ionization_Penalty>
0.178506

> <r_epik_Ionization_Penalty_Charging>
0.178504

> <r_epik_Ionization_Penalty_Neutral>
2.47225e-06

> <r_epik_State_Penalty>
0.167974

> <r_epik_Charging_Adjusted_Penalty>
0.346478

> <i_epik_Tot_Q>
1

> <i_epik_Tot_abs_Q>
1

> <r_epik_Metal_State_Penalty>
0.167974

> <b_epik_Metal_Only>
0

> <s_lp_Force_Field>
OPLS_2005

> <r_lp_Energy>
11.1237

> <b_lp_Chiralities_Consistent>
1

> <s_lp_Variant>
AV-unprocessed.smi:1144-3

> <Gold.Version>
5.8.1

> <Gold.Id.Protein>
6NUR|6NUR_protein|mol2

> <Gold.PLP.Fitness>
45.5056

> <Gold.PLP.PLP>
-40.8132

> <Gold.PLP.part.hbond>
-3.8064

> <Gold.PLP.part.metal>
0.0000

> <Gold.PLP.part.buried>
0.9499

> <Gold.PLP.part.nonpolar>
-38.4414

> <Gold.PLP.part.repulsive>
0.3274

> <Gold.PLP.ligand.clash>
0.0000

> <Gold.PLP.ligand.torsion>
0.7279

> <Gold.PLP.Chemscore.Hbond>
2.0480

> <Gold.PLP.Chemscore.CHOScore>
0.0000

> <Gold.PLP.Chemscore.Metal>
0.0000

> <Gold.Chemscore.Hbonds>
donor molecule, donor type, donor heavy atom, donor atom, acceptor molecule, acceptor atom, score
      L1  H     2    35       P1  7948  1.76
      P1  H  8011  8017       L1     5  0.11

> <Gold.PLP.Chemscore.Internal.Correction>
0.0043

> <Gold.Rescore>
     Score         DG    S(hbond)    S(metal)    S(lipo)     H(rot)  DE(clash)    DE(int)     intcor
     13.14     -14.11       0.99        0.00      74.77       1.34       0.20       0.77       ----

> <Gold.Chemscore.Fitness>
13.1397

> <Gold.Chemscore.DG>
-14.1089

> <Gold.Chemscore.ZeroCoef>
-5.4800

> <Gold.Chemscore.Hbond>
0.9898

> <Gold.Chemscore.Metal>
0.0000

> <Gold.Chemscore.Lipo>
74.7692

> <Gold.Chemscore.Internal_Hbond>
0.0000

> <Gold.Chemscore.DEClash>
0.1989

> <Gold.Chemscore.DEInternal>
0.7703

> <Gold.Chemscore.Rot>
1.3379

> <Gold.Chemscore.Internal.Correction>
   9.000000E+99

> <Gold.Chemscore.Hbonds>
donor molecule, donor type, donor heavy atom, donor atom, acceptor molecule, acceptor atom, score
      L1  H     2    35       P1  7948  0.84
      P1  H  8011  8017       L1     5  0.01

> <Gold.Chemscore.Hbond.Weighted>
-3.3059

> <Gold.Chemscore.Metal.Weighted>
-0.0000

> <Gold.Chemscore.Lipo.Weighted>
-8.7480

> <Gold.Chemscore.Internal_Hbond.Weighted>
0.0000

> <Gold.Chemscore.DEClash.Weighted>
0.1989

> <Gold.Chemscore.DEInternal.Weighted>
0.7703

> <Gold.Chemscore.Rot.Weighted>
3.4250

> <Gold.Chemscore.Internal.Correction.Weighted>
   9.000000E+99

> <Gold.Protein.RotatedTorsions>
[ 6907 6896 6895 6894 ] final   11.70 input  -60.11 | X-H torsion
[ 7974 7965 7964 7962 ] final  140.07 input  175.53 | X-H torsion
[ 8008 7997 7996 7995 ] final   42.41 input   59.86 | X-H torsion
[ 10167 10162 10161 10158 ] final  116.20 input  -65.29 | X-H torsion
[ 10718 10713 10712 10709 ] final   -3.29 input   66.30 | X-H torsion
[ 10763 10752 10751 10750 ] final   80.15 input  -60.55 | X-H torsion
[ 11005 11000 10999 10996 ] final   51.90 input  -57.11 | X-H torsion

> <Gold.Protein.ActiveResidues>
 VAL166  LYS551  ARG553  GLY616  TRP617  ASP618  TYR619  PRO620  LYS621  CYS622 
 ASP623  PHE694  ASN695  SER759  ASP760  ASP761  ALA762  ILE779  LEU786  VAL792 
 PHE793  MET794  SER795  GLU796  ALA797  LYS798  CYS799  TRP800  GLU811  SER814 

> <Gold.Protein.RotatedAtoms>
  151.7585  135.0816  160.0341 H   0  0  0  0  0  0  0  0  0  0  0  0  # atno 6907 bound_to 6896
  152.3369  133.6018  159.5857 H   0  0  0  0  0  0  0  0  0  0  0  0  # atno 6908 bound_to 6896
  150.7456  133.9698  159.3584 H   0  0  0  0  0  0  0  0  0  0  0  0  # atno 6909 bound_to 6896
  144.9220  139.5155  143.5658 H   0  0  0  0  0  0  0  0  0  0  0  0  # atno 7974 bound_to 7965
  155.2857  140.3375  155.4255 H   0  0  0  0  0  0  0  0  0  0  0  0  # atno 8008 bound_to 7997
  156.2069  140.1754  156.7820 H   0  0  0  0  0  0  0  0  0  0  0  0  # atno 8009 bound_to 7997
  154.5633  140.0683  156.8837 H   0  0  0  0  0  0  0  0  0  0  0  0  # atno 8010 bound_to 7997
  139.6264  144.7109  151.2525 H   0  0  0  0  0  0  0  0  0  0  0  0  # atno 10167 bound_to 10162
  156.7783  130.5322  149.5755 H   0  0  0  0  0  0  0  0  0  0  0  0  # atno 10718 bound_to 10713
  153.1010  135.4813  154.8867 H   0  0  0  0  0  0  0  0  0  0  0  0  # atno 10763 bound_to 10752
  154.7379  135.3075  154.8782 H   0  0  0  0  0  0  0  0  0  0  0  0  # atno 10764 bound_to 10752
  153.9399  135.6835  153.4798 H   0  0  0  0  0  0  0  0  0  0  0  0  # atno 10765 bound_to 10752
  140.0894  134.5230  155.8867 H   0  0  0  0  0  0  0  0  0  0  0  0  # atno 11005 bound_to 11000
  146.3209  139.8107  142.8946 LP  0  0  0  0  0  0  0  0  0  0  0  0  # atno 17320 bound_to 7965
  145.3280  141.0260  143.3462 LP  0  0  0  0  0  0  0  0  0  0  0  0  # atno 17321 bound_to 7965
  140.7413  143.6560  150.8206 LP  0  0  0  0  0  0  0  0  0  0  0  0  # atno 17342 bound_to 10162
  140.0179  143.5573  152.2812 LP  0  0  0  0  0  0  0  0  0  0  0  0  # atno 17343 bound_to 10162
  156.1234  130.6126  151.0227 LP  0  0  0  0  0  0  0  0  0  0  0  0  # atno 17370 bound_to 10713
  157.6658  131.0872  150.7731 LP  0  0  0  0  0  0  0  0  0  0  0  0  # atno 17371 bound_to 10713
  141.2073  133.6663  156.6296 LP  0  0  0  0  0  0  0  0  0  0  0  0  # atno 17394 bound_to 11000
  140.3374  134.7878  157.4372 LP  0  0  0  0  0  0  0  0  0  0  0  0  # atno 17395 bound_to 11000

$$$$
