AV-unprocessed.smi:713|AV-procd|sdf|3475|dock1
  -GOLD-   22720 0463D 1   1.00000     0.00000
 Structure written by MMmdl.
 41 42  0  0  0  0  0  0  0  0  1 V2000
  145.0391  135.7666  151.8269 C   0  0  0  0  0  0  0  0  0  0  0  0
  145.9650  134.5342  151.7747 C   0  0  1  0  0  0  0  0  0  0  0  0
  146.5367  134.1498  153.1510 C   0  0  0  0  0  0  0  0  0  0  0  0
  145.8273  133.6125  154.0027 O   0  0  0  0  0  0  0  0  0  0  0  0
  147.8321  134.4393  153.3578 N   0  0  0  0  0  0  0  0  0  0  0  0
  148.5776  134.1535  154.5790 C   0  0  2  0  0  0  0  0  0  0  0  0
  149.0812  135.4761  155.1867 C   0  0  0  0  0  0  0  0  0  0  0  0
  149.9635  135.2409  156.4228 C   0  0  0  0  0  0  0  0  0  0  0  0
  151.1451  134.3135  156.0949 C   0  0  0  0  0  0  0  0  0  0  0  0
  150.6952  132.9698  155.4879 C   0  0  1  0  0  0  0  0  0  0  0  0
  149.9741  131.8473  156.7866 S   0  0  0  0  0  0  0  0  0  0  0  0
  148.2926  131.4922  156.1273 C   0  0  0  0  0  0  0  0  0  0  0  0
  150.7430  130.5936  156.7758 O   0  0  0  0  0  0  0  0  0  0  0  0
  149.8116  132.5770  158.0525 O   0  0  0  0  0  0  0  0  0  0  0  0
  149.7578  133.2002  154.2813 C   0  0  0  0  0  0  0  0  0  0  0  0
  145.3091  133.3905  151.1490 N   0  0  0  0  0  0  0  0  0  0  0  0
  145.8637  132.1708  150.8171 C   0  0  0  0  0  0  0  0  0  0  0  0
  144.8707  131.3990  150.2855 C   0  0  0  0  0  0  0  0  0  0  0  0
  143.7239  132.2383  150.3408 C   0  0  0  0  0  0  0  0  0  0  0  0
  143.9863  133.4247  150.8639 N   0  0  0  0  0  0  0  0  0  0  0  0
  145.5626  136.6369  152.2239 H   0  0  0  0  0  0  0  0  0  0  0  0
  144.1630  135.5929  152.4531 H   0  0  0  0  0  0  0  0  0  0  0  0
  144.6847  136.0280  150.8295 H   0  0  0  0  0  0  0  0  0  0  0  0
  146.8169  134.7983  151.1463 H   0  0  0  0  0  0  0  0  0  0  0  0
  148.3426  134.8817  152.6075 H   0  0  0  0  0  0  0  0  0  0  0  0
  147.8917  133.6899  155.2867 H   0  0  0  0  0  0  0  0  0  0  0  0
  149.6546  136.0291  154.4411 H   0  0  0  0  0  0  0  0  0  0  0  0
  148.2349  136.1092  155.4559 H   0  0  0  0  0  0  0  0  0  0  0  0
  150.3391  136.1957  156.7912 H   0  0  0  0  0  0  0  0  0  0  0  0
  149.3656  134.8213  157.2310 H   0  0  0  0  0  0  0  0  0  0  0  0
  151.8022  134.8195  155.3865 H   0  0  0  0  0  0  0  0  0  0  0  0
  151.7444  134.1417  156.9894 H   0  0  0  0  0  0  0  0  0  0  0  0
  151.5850  132.4523  155.1285 H   0  0  0  0  0  0  0  0  0  0  0  0
  147.8218  130.7258  156.7425 H   0  0  0  0  0  0  0  0  0  0  0  0
  148.3686  131.1339  155.1011 H   0  0  0  0  0  0  0  0  0  0  0  0
  147.6808  132.3929  156.1588 H   0  0  0  0  0  0  0  0  0  0  0  0
  149.3927  132.2487  153.8982 H   0  0  0  0  0  0  0  0  0  0  0  0
  150.3502  133.6287  153.4714 H   0  0  0  0  0  0  0  0  0  0  0  0
  146.9085  131.9553  150.9859 H   0  0  0  0  0  0  0  0  0  0  0  0
  144.9507  130.3874  149.9161 H   0  0  0  0  0  0  0  0  0  0  0  0
  142.7150  132.0211  150.0226 H   0  0  0  0  0  0  0  0  0  0  0  0
  1  2  1  0  0  0  0
  1 21  1  0  0  0  0
  1 22  1  0  0  0  0
  1 23  1  0  0  0  0
  2  3  1  0  0  0  0
  2 16  1  0  0  0  0
  2 24  1  0  0  0  0
  3  4  2  0  0  0  0
  3  5  1  0  0  0  0
  5  6  1  0  0  0  0
  5 25  1  0  0  0  0
  6 15  1  0  0  0  0
  6  7  1  0  0  0  0
  6 26  1  0  0  0  0
  7  8  1  0  0  0  0
  7 27  1  0  0  0  0
  7 28  1  0  0  0  0
  8  9  1  0  0  0  0
  8 29  1  0  0  0  0
  8 30  1  0  0  0  0
  9 10  1  0  0  0  0
  9 31  1  0  0  0  0
  9 32  1  0  0  0  0
 10 11  1  0  0  0  0
 10 15  1  0  0  0  0
 10 33  1  0  0  0  0
 11 12  1  0  0  0  0
 11 13  2  0  0  0  0
 11 14  2  0  0  0  0
 12 34  1  0  0  0  0
 12 35  1  0  0  0  0
 12 36  1  0  0  0  0
 15 37  1  0  0  0  0
 15 38  1  0  0  0  0
 16 20  1  0  0  0  0
 16 17  1  0  0  0  0
 17 18  2  0  0  0  0
 17 39  1  0  0  0  0
 18 19  1  0  0  0  0
 18 40  1  0  0  0  0
 19 20  2  0  0  0  0
 19 41  1  0  0  0  0
M  END
> <s_m_source_file>
AV-unprocessed.smi

> <i_m_source_file_index>
713

> <i_lp_mmshare_version>
43012

> <i_f3d_flags>
0

> <s_epik_input>
bjFbY0hdW2NIXVtjSF1uMVtDQEhdKFtDSDNdKUMoPU8pW05IXVtDQEBIXTJbQ0gyXVtDSDJdW0NIMl1bQ0BIXShbQ0gyXTIpUyg9TykoPU8pW0NIM10=

> <s_epik_cmdline>
J2VwaWtfcHl0aG9uJywgJy1waCcsICc3LjAnLCAnLXRuJywgJzgnLCAnLW1hJywgJzIwMCcsICctbWV0YWxfYmluZGluZycsICctaW1hZScsICc8aW5maWxlLm1hZT4nLCAnLW9tYWUnLCAnPG91dGZpbGUubWFlPic=

> <r_lp_tautomer_probability>
1

> <r_epik_Ionization_Penalty>
4.07816e-05

> <r_epik_Ionization_Penalty_Charging>
0

> <r_epik_Ionization_Penalty_Neutral>
4.07816e-05

> <r_epik_State_Penalty>
-0

> <r_epik_Charging_Adjusted_Penalty>
0

> <i_epik_Tot_Q>
0

> <i_epik_Tot_abs_Q>
0

> <r_epik_Metal_State_Penalty>
-0

> <b_epik_Metal_Only>
0

> <s_lp_Force_Field>
OPLS_2005

> <r_lp_Energy>
4.9413

> <b_lp_Chiralities_Consistent>
1

> <s_lp_Variant>
AV-unprocessed.smi:713-2

> <Gold.Version>
5.8.1

> <Gold.Id.Protein>
6NUR|6NUR_protein|mol2

> <Gold.PLP.Fitness>
39.7680

> <Gold.PLP.PLP>
-28.3236

> <Gold.PLP.part.hbond>
-2.0000

> <Gold.PLP.part.metal>
0.0000

> <Gold.PLP.part.buried>
-4.9874

> <Gold.PLP.part.nonpolar>
-22.9936

> <Gold.PLP.part.repulsive>
0.2726

> <Gold.PLP.ligand.clash>
0.0000

> <Gold.PLP.ligand.torsion>
0.3780

> <Gold.PLP.Chemscore.Hbond>
1.9920

> <Gold.PLP.Chemscore.CHOScore>
1.9752

> <Gold.PLP.Chemscore.Metal>
0.0000

> <Gold.Chemscore.Hbonds>
donor molecule, donor type, donor heavy atom, donor atom, acceptor molecule, acceptor atom, score
      L1  H     5    25       P1  7948  1.00
      P1  H  6896  6908       L1    14  1.00
      L1  C    17    39       P1 10747  1.00
      L1  C    19    41       P1 10952  0.92

> <Gold.PLP.Chemscore.Internal.Correction>
0.2989

> <Gold.Rescore>
     Score         DG    S(hbond)    S(metal)    S(lipo)     H(rot)  DE(clash)    DE(int)     intcor
     15.57     -15.77       1.97        0.00      69.30       1.72       0.01       0.18       ----

> <Gold.Chemscore.Fitness>
15.5717

> <Gold.Chemscore.DG>
-15.7653

> <Gold.Chemscore.ZeroCoef>
-5.4800

> <Gold.Chemscore.Hbond>
1.9738

> <Gold.Chemscore.Metal>
0.0000

> <Gold.Chemscore.Lipo>
69.3033

> <Gold.Chemscore.Internal_Hbond>
0.0000

> <Gold.Chemscore.DEClash>
0.0106

> <Gold.Chemscore.DEInternal>
0.1830

> <Gold.Chemscore.Rot>
1.7249

> <Gold.Chemscore.Internal.Correction>
   9.000000E+99

> <Gold.Chemscore.Hbonds>
donor molecule, donor type, donor heavy atom, donor atom, acceptor molecule, acceptor atom, score
      L1  H     5    25       P1  7948  0.48
      P1  H  6896  6908       L1    14  0.99

> <Gold.Chemscore.Hbond.Weighted>
-6.5926

> <Gold.Chemscore.Metal.Weighted>
-0.0000

> <Gold.Chemscore.Lipo.Weighted>
-8.1085

> <Gold.Chemscore.Internal_Hbond.Weighted>
0.0000

> <Gold.Chemscore.DEClash.Weighted>
0.0106

> <Gold.Chemscore.DEInternal.Weighted>
0.1830

> <Gold.Chemscore.Rot.Weighted>
4.4157

> <Gold.Chemscore.Internal.Correction.Weighted>
   9.000000E+99

> <Gold.Protein.RotatedTorsions>
[ 6907 6896 6895 6894 ] final   94.09 input  -60.11 | X-H torsion
[ 7974 7965 7964 7962 ] final   67.87 input  175.53 | X-H torsion
[ 8008 7997 7996 7995 ] final -137.29 input   59.86 | X-H torsion
[ 10167 10162 10161 10158 ] final   80.61 input  -65.29 | X-H torsion
[ 10718 10713 10712 10709 ] final   40.07 input   66.30 | X-H torsion
[ 10763 10752 10751 10750 ] final  -34.62 input  -60.55 | X-H torsion
[ 11005 11000 10999 10996 ] final   75.07 input  -57.11 | X-H torsion

> <Gold.Protein.ActiveResidues>
 VAL166  LYS551  ARG553  GLY616  TRP617  ASP618  TYR619  PRO620  LYS621  CYS622 
 ASP623  PHE694  ASN695  SER759  ASP760  ASP761  ALA762  ILE779  LEU786  VAL792 
 PHE793  MET794  SER795  GLU796  ALA797  LYS798  CYS799  TRP800  GLU811  SER814 

> <Gold.Protein.RotatedAtoms>
  152.5451  134.1246  159.8413 H   0  0  0  0  0  0  0  0  0  0  0  0  # atno 6907 bound_to 6896
  151.1299  133.5037  159.2607 H   0  0  0  0  0  0  0  0  0  0  0  0  # atno 6908 bound_to 6896
  151.1687  135.0317  159.8797 H   0  0  0  0  0  0  0  0  0  0  0  0  # atno 6909 bound_to 6896
  145.8094  139.3024  143.1108 H   0  0  0  0  0  0  0  0  0  0  0  0  # atno 7974 bound_to 7965
  155.4094  140.0511  157.3032 H   0  0  0  0  0  0  0  0  0  0  0  0  # atno 8008 bound_to 7997
  154.4953  140.2136  155.9420 H   0  0  0  0  0  0  0  0  0  0  0  0  # atno 8009 bound_to 7997
  156.1397  140.3156  155.8481 H   0  0  0  0  0  0  0  0  0  0  0  0  # atno 8010 bound_to 7997
  139.9479  144.6046  150.8189 H   0  0  0  0  0  0  0  0  0  0  0  0  # atno 10167 bound_to 10162
  157.3779  130.7737  149.7170 H   0  0  0  0  0  0  0  0  0  0  0  0  # atno 10718 bound_to 10713
  153.8497  135.6850  153.4794 H   0  0  0  0  0  0  0  0  0  0  0  0  # atno 10763 bound_to 10752
  153.1405  135.4659  154.9486 H   0  0  0  0  0  0  0  0  0  0  0  0  # atno 10764 bound_to 10752
  154.7808  135.3268  154.7942 H   0  0  0  0  0  0  0  0  0  0  0  0  # atno 10765 bound_to 10752
  139.9361  134.7487  156.1226 H   0  0  0  0  0  0  0  0  0  0  0  0  # atno 11005 bound_to 11000
  145.9793  140.8696  143.0122 LP  0  0  0  0  0  0  0  0  0  0  0  0  # atno 17320 bound_to 7965
  144.6759  140.2057  143.7382 LP  0  0  0  0  0  0  0  0  0  0  0  0  # atno 17321 bound_to 7965
  140.7591  143.3123  151.2816 LP  0  0  0  0  0  0  0  0  0  0  0  0  # atno 17342 bound_to 10162
  139.6652  144.0118  152.2718 LP  0  0  0  0  0  0  0  0  0  0  0  0  # atno 17343 bound_to 10162
  155.9769  130.4069  150.3746 LP  0  0  0  0  0  0  0  0  0  0  0  0  # atno 17370 bound_to 10713
  157.1846  131.0400  151.2731 LP  0  0  0  0  0  0  0  0  0  0  0  0  # atno 17371 bound_to 10713
  141.0975  133.6690  156.2678 LP  0  0  0  0  0  0  0  0  0  0  0  0  # atno 17394 bound_to 11000
  140.6073  134.5494  157.5528 LP  0  0  0  0  0  0  0  0  0  0  0  0  # atno 17395 bound_to 11000

$$$$
