AV-unprocessed.smi:1517|AV-procd|sdf|6122|dock7
  -GOLD-   22720 6253D 1   1.00000     0.00000
 Structure written by MMmdl.
 41 43  0  0  0  0  0  0  0  0  1 V2000
  154.6292  135.8186  159.6883 O   0  0  0  0  0  0  0  0  0  0  0  0
  155.2899  135.7226  158.4459 C   0  0  0  0  0  0  0  0  0  0  0  0
  155.4737  137.1227  157.8438 C   0  0  0  0  0  0  0  0  0  0  0  0
  154.2329  137.8755  157.8125 N   0  0  0  0  0  0  0  0  0  0  0  0
  153.8703  139.0923  158.3783 C   0  0  0  0  0  0  0  0  0  0  0  0
  154.6920  139.8398  159.1129 N   0  0  0  0  0  0  0  0  0  0  0  0
  153.8949  140.9211  159.4373 C   0  0  0  0  0  0  0  0  0  0  0  0
  154.1798  142.0749  160.2019 C   0  0  0  0  0  0  0  0  0  0  0  0
  153.1919  143.0617  160.4009 C   0  0  0  0  0  0  0  0  0  0  0  0
  151.9073  142.9094  159.8401 C   0  0  0  0  0  0  0  0  0  0  0  0
  151.6018  141.7678  159.0745 C   0  0  0  0  0  0  0  0  0  0  0  0
  152.5911  140.7860  158.8780 C   0  0  0  0  0  0  0  0  0  0  0  0
  152.6195  139.5774  158.1888 N   0  0  0  0  0  0  0  0  0  0  0  0
  151.5207  138.9960  157.4280 C   0  0  0  0  0  0  0  0  0  0  0  0
  151.7027  139.1847  155.9090 C   0  0  2  0  0  0  0  0  0  0  0  0
  152.8008  140.0504  155.7029 O   0  0  0  0  0  0  0  0  0  0  0  0
  150.4331  139.6828  155.2264 C   0  0  0  0  0  0  0  0  0  0  0  0
  149.6723  138.8150  154.4111 C   0  0  0  0  0  0  0  0  0  0  0  0
  148.5014  139.2754  153.7788 C   0  0  0  0  0  0  0  0  0  0  0  0
  148.0866  140.6094  153.9499 C   0  0  0  0  0  0  0  0  0  0  0  0
  146.9626  141.0533  153.3394 F   0  0  0  0  0  0  0  0  0  0  0  0
  148.8455  141.4833  154.7506 C   0  0  0  0  0  0  0  0  0  0  0  0
  150.0144  141.0237  155.3877 C   0  0  0  0  0  0  0  0  0  0  0  0
  150.7350  141.8810  156.1503 F   0  0  0  0  0  0  0  0  0  0  0  0
  154.4805  136.7326  159.8768 H   0  0  0  0  0  0  0  0  0  0  0  0
  156.2660  135.2739  158.6320 H   0  0  0  0  0  0  0  0  0  0  0  0
  154.7523  135.0520  157.7741 H   0  0  0  0  0  0  0  0  0  0  0  0
  156.2424  137.6856  158.3744 H   0  0  0  0  0  0  0  0  0  0  0  0
  155.8160  137.0257  156.8130 H   0  0  0  0  0  0  0  0  0  0  0  0
  153.4996  137.4229  157.2862 H   0  0  0  0  0  0  0  0  0  0  0  0
  155.1607  142.2013  160.6356 H   0  0  0  0  0  0  0  0  0  0  0  0
  153.4208  143.9397  160.9868 H   0  0  0  0  0  0  0  0  0  0  0  0
  151.1564  143.6701  159.9975 H   0  0  0  0  0  0  0  0  0  0  0  0
  150.6193  141.6487  158.6420 H   0  0  0  0  0  0  0  0  0  0  0  0
  151.4078  137.9407  157.6787 H   0  0  0  0  0  0  0  0  0  0  0  0
  150.6012  139.4834  157.7551 H   0  0  0  0  0  0  0  0  0  0  0  0
  151.9898  138.2308  155.4655 H   0  0  0  0  0  0  0  0  0  0  0  0
  152.4829  140.8493  155.3102 H   0  0  0  0  0  0  0  0  0  0  0  0
  149.9836  137.7907  154.2665 H   0  0  0  0  0  0  0  0  0  0  0  0
  147.9232  138.6058  153.1593 H   0  0  0  0  0  0  0  0  0  0  0  0
  148.5309  142.5087  154.8770 H   0  0  0  0  0  0  0  0  0  0  0  0
  1  2  1  0  0  0  0
  1 25  1  0  0  0  0
  2  3  1  0  0  0  0
  2 26  1  0  0  0  0
  2 27  1  0  0  0  0
  3  4  1  0  0  0  0
  3 28  1  0  0  0  0
  3 29  1  0  0  0  0
  4  5  1  0  0  0  0
  4 30  1  0  0  0  0
  5 13  1  0  0  0  0
  5  6  2  0  0  0  0
  6  7  1  0  0  0  0
  7 12  2  0  0  0  0
  7  8  1  0  0  0  0
  8  9  2  0  0  0  0
  8 31  1  0  0  0  0
  9 10  1  0  0  0  0
  9 32  1  0  0  0  0
 10 11  2  0  0  0  0
 10 33  1  0  0  0  0
 11 12  1  0  0  0  0
 11 34  1  0  0  0  0
 12 13  1  0  0  0  0
 13 14  1  0  0  0  0
 14 15  1  0  0  0  0
 14 35  1  0  0  0  0
 14 36  1  0  0  0  0
 15 16  1  0  0  0  0
 15 17  1  0  0  0  0
 15 37  1  0  0  0  0
 16 38  1  0  0  0  0
 17 23  1  0  0  0  0
 17 18  2  0  0  0  0
 18 19  1  0  0  0  0
 18 39  1  0  0  0  0
 19 20  2  0  0  0  0
 19 40  1  0  0  0  0
 20 21  1  0  0  0  0
 20 22  1  0  0  0  0
 22 23  2  0  0  0  0
 22 41  1  0  0  0  0
 23 24  1  0  0  0  0
M  END
> <s_m_source_file>
AV-unprocessed.smi

> <i_m_source_file_index>
1517

> <i_lp_mmshare_version>
43012

> <i_f3d_flags>
0

> <s_epik_input>
W09IXVtDSDJdW0NIMl1bTkhdYyhuMSluKGMoYzEyKVtjSF1bY0hdW2NIXVtjSF0yKVtDSDJdW0NASF0oW09IXSljM1tjSF1bY0hdYyhGKVtjSF1jM0Y=

> <s_epik_cmdline>
J2VwaWtfcHl0aG9uJywgJy1waCcsICc3LjAnLCAnLXRuJywgJzgnLCAnLW1hJywgJzIwMCcsICctbWV0YWxfYmluZGluZycsICctaW1hZScsICc8aW5maWxlLm1hZT4nLCAnLW9tYWUnLCAnPG91dGZpbGUubWFlPic=

> <r_epik_Ionization_Penalty>
1.30972

> <r_epik_Ionization_Penalty_Charging>
0

> <r_epik_Ionization_Penalty_Neutral>
1.30972

> <r_epik_State_Penalty>
1.38438

> <r_epik_Charging_Adjusted_Penalty>
1.38438

> <i_epik_Tot_Q>
0

> <i_epik_Tot_abs_Q>
0

> <r_epik_Metal_State_Penalty>
0.00551145

> <b_epik_Metal_Only>
0

> <s_lp_Force_Field>
OPLS_2005

> <r_lp_Energy>
9.55996

> <b_lp_Chiralities_Consistent>
1

> <s_lp_Variant>
AV-unprocessed.smi:1517-3

> <Gold.Version>
5.8.1

> <Gold.Id.Protein>
6NUR|6NUR_protein|mol2

> <Gold.PLP.Fitness>
46.4369

> <Gold.PLP.PLP>
-42.4352

> <Gold.PLP.part.hbond>
-3.0000

> <Gold.PLP.part.metal>
0.0000

> <Gold.PLP.part.buried>
-0.7804

> <Gold.PLP.part.nonpolar>
-37.7079

> <Gold.PLP.part.repulsive>
0.1262

> <Gold.PLP.ligand.clash>
0.0000

> <Gold.PLP.ligand.torsion>
1.1990

> <Gold.PLP.Chemscore.Hbond>
2.1179

> <Gold.PLP.Chemscore.CHOScore>
0.0000

> <Gold.PLP.Chemscore.Metal>
0.0000

> <Gold.Chemscore.Hbonds>
donor molecule, donor type, donor heavy atom, donor atom, acceptor molecule, acceptor atom, score
      P1  H  7997  8010       L1    16  1.00

> <Gold.PLP.Chemscore.Internal.Correction>
0.0460

> <Gold.Rescore>
     Score         DG    S(hbond)    S(metal)    S(lipo)     H(rot)  DE(clash)    DE(int)     intcor
     12.30     -16.10       1.74        0.00     111.65       3.22       0.80       3.00       ----

> <Gold.Chemscore.Fitness>
12.3022

> <Gold.Chemscore.DG>
-16.1034

> <Gold.Chemscore.ZeroCoef>
-5.4800

> <Gold.Chemscore.Hbond>
1.7370

> <Gold.Chemscore.Metal>
0.0000

> <Gold.Chemscore.Lipo>
111.6525

> <Gold.Chemscore.Internal_Hbond>
0.0000

> <Gold.Chemscore.DEClash>
0.7967

> <Gold.Chemscore.DEInternal>
3.0045

> <Gold.Chemscore.Rot>
3.2194

> <Gold.Chemscore.Internal.Correction>
   9.000000E+99

> <Gold.Chemscore.Hbonds>
donor molecule, donor type, donor heavy atom, donor atom, acceptor molecule, acceptor atom, score
      P1  H  6896  6909       L1     1  0.01
      P1  H  7997  8010       L1    16  0.64

> <Gold.Chemscore.Hbond.Weighted>
-5.8016

> <Gold.Chemscore.Metal.Weighted>
-0.0000

> <Gold.Chemscore.Lipo.Weighted>
-13.0633

> <Gold.Chemscore.Internal_Hbond.Weighted>
0.0000

> <Gold.Chemscore.DEClash.Weighted>
0.7967

> <Gold.Chemscore.DEInternal.Weighted>
3.0045

> <Gold.Chemscore.Rot.Weighted>
8.2416

> <Gold.Chemscore.Internal.Correction.Weighted>
   9.000000E+99

> <Gold.Protein.RotatedTorsions>
[ 6907 6896 6895 6894 ] final  174.74 input  -60.11 | X-H torsion
[ 7974 7965 7964 7962 ] final -173.74 input  175.53 | X-H torsion
[ 8008 7997 7996 7995 ] final  102.00 input   59.86 | X-H torsion
[ 10167 10162 10161 10158 ] final  115.30 input  -65.29 | X-H torsion
[ 10718 10713 10712 10709 ] final  -90.06 input   66.30 | X-H torsion
[ 10763 10752 10751 10750 ] final  117.33 input  -60.55 | X-H torsion
[ 11005 11000 10999 10996 ] final  -18.86 input  -57.11 | X-H torsion

> <Gold.Protein.ActiveResidues>
 VAL166  LYS551  ARG553  GLY616  TRP617  ASP618  TYR619  PRO620  LYS621  CYS622 
 ASP623  PHE694  ASN695  SER759  ASP760  ASP761  ALA762  ILE779  LEU786  VAL792 
 PHE793  MET794  SER795  GLU796  ALA797  LYS798  CYS799  TRP800  GLU811  SER814 

> <Gold.Protein.RotatedAtoms>
  151.7474  133.3325  159.3381 H   0  0  0  0  0  0  0  0  0  0  0  0  # atno 6907 bound_to 6896
  150.7549  134.6223  159.6152 H   0  0  0  0  0  0  0  0  0  0  0  0  # atno 6908 bound_to 6896
  152.3491  134.7032  160.0293 H   0  0  0  0  0  0  0  0  0  0  0  0  # atno 6909 bound_to 6896
  144.7136  140.1577  143.6379 H   0  0  0  0  0  0  0  0  0  0  0  0  # atno 7974 bound_to 7965
  156.1352  140.3188  155.8410 H   0  0  0  0  0  0  0  0  0  0  0  0  # atno 8008 bound_to 7997
  155.4258  140.0515  157.3039 H   0  0  0  0  0  0  0  0  0  0  0  0  # atno 8009 bound_to 7997
  154.4931  140.2100  155.9518 H   0  0  0  0  0  0  0  0  0  0  0  0  # atno 8010 bound_to 7997
  139.6327  144.7116  151.2399 H   0  0  0  0  0  0  0  0  0  0  0  0  # atno 10167 bound_to 10162
  155.9986  130.4895  150.5266 H   0  0  0  0  0  0  0  0  0  0  0  0  # atno 10718 bound_to 10713
  153.5507  135.3540  155.2758 H   0  0  0  0  0  0  0  0  0  0  0  0  # atno 10763 bound_to 10752
  154.8707  135.4113  154.2940 H   0  0  0  0  0  0  0  0  0  0  0  0  # atno 10764 bound_to 10752
  153.3666  135.7062  153.6739 H   0  0  0  0  0  0  0  0  0  0  0  0  # atno 10765 bound_to 10752
  140.8310  133.7997  155.9758 H   0  0  0  0  0  0  0  0  0  0  0  0  # atno 11005 bound_to 11000
  145.9059  139.2458  143.1466 LP  0  0  0  0  0  0  0  0  0  0  0  0  # atno 17320 bound_to 7965
  145.9765  140.8718  143.0136 LP  0  0  0  0  0  0  0  0  0  0  0  0  # atno 17321 bound_to 7965
  140.7448  143.6452  150.8299 LP  0  0  0  0  0  0  0  0  0  0  0  0  # atno 17342 bound_to 10162
  140.0079  143.5674  152.2850 LP  0  0  0  0  0  0  0  0  0  0  0  0  # atno 17343 bound_to 10162
  157.3220  131.0683  151.1924 LP  0  0  0  0  0  0  0  0  0  0  0  0  # atno 17370 bound_to 10713
  157.2834  130.6761  149.6077 LP  0  0  0  0  0  0  0  0  0  0  0  0  # atno 17371 bound_to 10713
  140.8998  134.2392  157.5048 LP  0  0  0  0  0  0  0  0  0  0  0  0  # atno 17394 bound_to 11000
  139.8705  134.9701  156.4690 LP  0  0  0  0  0  0  0  0  0  0  0  0  # atno 17395 bound_to 11000

$$$$
