AV-unprocessed.smi:438|AV-procd|sdf|2564|dock8
  -GOLD-   2262022533D 1   1.00000     0.00000
 Structure written by MMmdl.
 48 49  0  0  0  0  0  0  0  0  1 V2000
  147.4198  136.4820  162.4293 C   0  0  0  0  0  0  0  0  0  0  0  0
  147.9514  136.0722  161.0671 C   0  0  0  0  0  0  0  0  0  0  0  0
  148.9277  136.9139  160.5212 N   0  0  0  0  0  0  0  0  0  0  0  0
  149.4460  136.6461  159.3651 C   0  0  0  0  0  0  0  0  0  0  0  0
  150.7322  137.5398  158.4398 S   0  0  0  0  0  0  0  0  0  0  0  0
  150.6861  139.1908  159.2022 C   0  0  0  0  0  0  0  0  0  0  0  0
  151.7507  140.1242  158.6268 C   0  0  0  0  0  0  0  0  0  0  0  0
  152.6434  139.6718  157.9109 O   0  0  0  0  0  0  0  0  0  0  0  0
  151.6564  141.4176  158.9718 N   0  0  0  0  0  0  0  0  0  0  0  0
  152.6085  142.4790  158.6450 C   0  0  1  0  0  0  0  0  0  0  0  0
  151.8868  143.6137  157.8915 C   0  0  0  0  0  0  0  0  0  0  0  0
  150.9172  144.3885  158.8000 C   0  0  0  0  0  0  0  0  0  0  0  0
  151.6329  144.9271  160.0473 C   0  0  0  0  0  0  0  0  0  0  0  0
  152.3425  143.8028  160.8176 C   0  0  0  0  0  0  0  0  0  0  0  0
  153.3178  143.0186  159.9150 C   0  0  1  0  0  0  0  0  0  0  0  0
  154.0556  141.9256  160.7072 C   0  0  0  0  0  0  0  0  0  0  0  0
  149.0350  135.5208  158.6512 N   0  0  0  0  0  0  0  0  0  0  0  0
  148.1140  134.6378  159.0965 C   0  0  0  0  0  0  0  0  0  0  0  0
  147.8222  133.6522  158.4214 O   0  0  0  0  0  0  0  0  0  0  0  0
  147.5235  134.9596  160.4071 C   0  0  0  0  0  0  0  0  0  0  0  0
  146.4782  134.0033  160.9803 C   0  0  0  0  0  0  0  0  0  0  0  0
  146.9595  133.2552  162.2361 C   0  0  0  0  0  0  0  0  0  0  0  0
  147.9718  132.3234  161.9202 O   0  0  0  0  0  0  0  0  0  0  0  0
  146.3323  136.5481  162.4199 H   0  0  0  0  0  0  0  0  0  0  0  0
  147.8076  137.4568  162.7273 H   0  0  0  0  0  0  0  0  0  0  0  0
  147.7173  135.7575  163.1876 H   0  0  0  0  0  0  0  0  0  0  0  0
  150.7844  139.1176  160.2857 H   0  0  0  0  0  0  0  0  0  0  0  0
  149.7035  139.6228  159.0099 H   0  0  0  0  0  0  0  0  0  0  0  0
  150.8806  141.6832  159.5614 H   0  0  0  0  0  0  0  0  0  0  0  0
  153.3720  142.0810  157.9744 H   0  0  0  0  0  0  0  0  0  0  0  0
  152.6289  144.3055  157.4909 H   0  0  0  0  0  0  0  0  0  0  0  0
  151.3510  143.2131  157.0298 H   0  0  0  0  0  0  0  0  0  0  0  0
  150.4677  145.2128  158.2460 H   0  0  0  0  0  0  0  0  0  0  0  0
  150.0962  143.7376  159.1001 H   0  0  0  0  0  0  0  0  0  0  0  0
  152.3623  145.6819  159.7511 H   0  0  0  0  0  0  0  0  0  0  0  0
  150.9168  145.4285  160.6991 H   0  0  0  0  0  0  0  0  0  0  0  0
  152.8812  144.2288  161.6645 H   0  0  0  0  0  0  0  0  0  0  0  0
  151.6010  143.1259  161.2413 H   0  0  0  0  0  0  0  0  0  0  0  0
  154.0781  143.7238  159.5762 H   0  0  0  0  0  0  0  0  0  0  0  0
  153.3621  141.2128  161.1542 H   0  0  0  0  0  0  0  0  0  0  0  0
  154.6435  142.3597  161.5162 H   0  0  0  0  0  0  0  0  0  0  0  0
  154.7390  141.3695  160.0652 H   0  0  0  0  0  0  0  0  0  0  0  0
  149.4598  135.3385  157.7538 H   0  0  0  0  0  0  0  0  0  0  0  0
  146.2097  133.2729  160.2174 H   0  0  0  0  0  0  0  0  0  0  0  0
  145.5505  134.5360  161.1929 H   0  0  0  0  0  0  0  0  0  0  0  0
  147.3600  133.9646  162.9605 H   0  0  0  0  0  0  0  0  0  0  0  0
  146.1348  132.7339  162.7218 H   0  0  0  0  0  0  0  0  0  0  0  0
  148.1436  131.7949  162.6845 H   0  0  0  0  0  0  0  0  0  0  0  0
  1 24  1  0  0  0  0
  1 25  1  0  0  0  0
  1 26  1  0  0  0  0
  1  2  1  0  0  0  0
  2 20  2  0  0  0  0
  2  3  1  0  0  0  0
  3  4  2  0  0  0  0
  4  5  1  0  0  0  0
  4 17  1  0  0  0  0
  5  6  1  0  0  0  0
  6  7  1  0  0  0  0
  6 27  1  0  0  0  0
  6 28  1  0  0  0  0
  7  8  2  0  0  0  0
  7  9  1  0  0  0  0
  9 10  1  0  0  0  0
  9 29  1  0  0  0  0
 10 15  1  0  0  0  0
 10 11  1  0  0  0  0
 10 30  1  0  0  0  0
 11 12  1  0  0  0  0
 11 31  1  0  0  0  0
 11 32  1  0  0  0  0
 12 13  1  0  0  0  0
 12 33  1  0  0  0  0
 12 34  1  0  0  0  0
 13 14  1  0  0  0  0
 13 35  1  0  0  0  0
 13 36  1  0  0  0  0
 14 15  1  0  0  0  0
 14 37  1  0  0  0  0
 14 38  1  0  0  0  0
 15 16  1  0  0  0  0
 15 39  1  0  0  0  0
 16 40  1  0  0  0  0
 16 41  1  0  0  0  0
 16 42  1  0  0  0  0
 17 43  1  0  0  0  0
 17 18  1  0  0  0  0
 18 19  2  0  0  0  0
 18 20  1  0  0  0  0
 20 21  1  0  0  0  0
 21 22  1  0  0  0  0
 21 44  1  0  0  0  0
 21 45  1  0  0  0  0
 22 23  1  0  0  0  0
 22 46  1  0  0  0  0
 22 47  1  0  0  0  0
 23 48  1  0  0  0  0
M  END
> <s_m_source_file>
AV-unprocessed.smi

> <i_m_source_file_index>
438

> <i_lp_mmshare_version>
43012

> <i_f3d_flags>
0

> <s_epik_input>
W09IXVtDSDJdW0NIMl1jMWMoW09IXSluYyhuYzFbQ0gzXSlTW0NIMl1DKD1PKVtOSF1bQ0BASF0yW0NIMl1bQ0gyXVtDSDJdW0NIMl1bQ0BIXTJbQ0gzXQ==

> <s_epik_cmdline>
J2VwaWtfcHl0aG9uJywgJy1waCcsICc3LjAnLCAnLXRuJywgJzgnLCAnLW1hJywgJzIwMCcsICctbWV0YWxfYmluZGluZycsICctaW1hZScsICc8aW5maWxlLm1hZT4nLCAnLW9tYWUnLCAnPG91dGZpbGUubWFlPic=

> <r_lp_tautomer_probability>
0.660323

> <r_epik_Ionization_Penalty>
0.00860626

> <r_epik_Ionization_Penalty_Charging>
0.00860522

> <r_epik_Ionization_Penalty_Neutral>
1.04215e-06

> <r_epik_State_Penalty>
0.156825

> <r_epik_Charging_Adjusted_Penalty>
0.16543

> <i_epik_Tot_Q>
0

> <i_epik_Tot_abs_Q>
0

> <r_epik_Metal_State_Penalty>
0.752038

> <b_epik_Metal_Only>
0

> <s_lp_Force_Field>
OPLS_2005

> <r_lp_Energy>
10.8925

> <b_lp_Chiralities_Consistent>
1

> <s_lp_Variant>
AV-unprocessed.smi:438-2

> <Gold.Version>
5.8.1

> <Gold.Id.Protein>
6NUR|6NUR_protein|mol2

> <Gold.PLP.Fitness>
44.1437

> <Gold.PLP.PLP>
-40.9178

> <Gold.PLP.part.hbond>
-1.6224

> <Gold.PLP.part.metal>
0.0000

> <Gold.PLP.part.buried>
-5.7411

> <Gold.PLP.part.nonpolar>
-35.3336

> <Gold.PLP.part.repulsive>
0.2196

> <Gold.PLP.ligand.clash>
0.0000

> <Gold.PLP.ligand.torsion>
0.4831

> <Gold.PLP.Chemscore.Hbond>
1.3800

> <Gold.PLP.Chemscore.CHOScore>
0.0000

> <Gold.PLP.Chemscore.Metal>
0.0000

> <Gold.Chemscore.Hbonds>
donor molecule, donor type, donor heavy atom, donor atom, acceptor molecule, acceptor atom, score
      P1  H  6931  6943       L1     3  0.75
      P1  H  7997  8008       L1     8  0.70

> <Gold.PLP.Chemscore.Internal.Correction>
0.0522

> <Gold.Rescore>
     Score         DG    S(hbond)    S(metal)    S(lipo)     H(rot)  DE(clash)    DE(int)     intcor
     15.46     -16.06       1.04        0.00     123.53       2.86       0.36       0.25       ----

> <Gold.Chemscore.Fitness>
15.4584

> <Gold.Chemscore.DG>
-16.0633

> <Gold.Chemscore.ZeroCoef>
-5.4800

> <Gold.Chemscore.Hbond>
1.0370

> <Gold.Chemscore.Metal>
0.0000

> <Gold.Chemscore.Lipo>
123.5272

> <Gold.Chemscore.Internal_Hbond>
0.0000

> <Gold.Chemscore.DEClash>
0.3558

> <Gold.Chemscore.DEInternal>
0.2491

> <Gold.Chemscore.Rot>
2.8645

> <Gold.Chemscore.Internal.Correction>
   9.000000E+99

> <Gold.Chemscore.Hbonds>
donor molecule, donor type, donor heavy atom, donor atom, acceptor molecule, acceptor atom, score
      P1  H  6931  6943       L1     3  0.23
      P1  H  7997  8008       L1     8  0.69

> <Gold.Chemscore.Hbond.Weighted>
-3.4637

> <Gold.Chemscore.Metal.Weighted>
-0.0000

> <Gold.Chemscore.Lipo.Weighted>
-14.4527

> <Gold.Chemscore.Internal_Hbond.Weighted>
0.0000

> <Gold.Chemscore.DEClash.Weighted>
0.3558

> <Gold.Chemscore.DEInternal.Weighted>
0.2491

> <Gold.Chemscore.Rot.Weighted>
7.3331

> <Gold.Chemscore.Internal.Correction.Weighted>
   9.000000E+99

> <Gold.Protein.RotatedTorsions>
[ 6907 6896 6895 6894 ] final  -67.86 input  -60.11 | X-H torsion
[ 7974 7965 7964 7962 ] final  -49.72 input  175.53 | X-H torsion
[ 8008 7997 7996 7995 ] final  -66.98 input   59.86 | X-H torsion
[ 10167 10162 10161 10158 ] final  -58.89 input  -65.29 | X-H torsion
[ 10718 10713 10712 10709 ] final   30.51 input   66.30 | X-H torsion
[ 10763 10752 10751 10750 ] final -160.02 input  -60.55 | X-H torsion
[ 11005 11000 10999 10996 ] final   36.07 input  -57.11 | X-H torsion

> <Gold.Protein.ActiveResidues>
 VAL166  LYS551  ARG553  GLY616  TRP617  ASP618  TYR619  PRO620  LYS621  CYS622 
 ASP623  PHE694  ASN695  SER759  ASP760  ASP761  ALA762  ILE779  LEU786  VAL792 
 PHE793  MET794  SER795  GLU796  ALA797  LYS798  CYS799  TRP800  GLU811  SER814 

> <Gold.Protein.RotatedAtoms>
  150.7386  134.5821  159.5943 H   0  0  0  0  0  0  0  0  0  0  0  0  # atno 6907 bound_to 6896
  152.3232  134.7351  160.0317 H   0  0  0  0  0  0  0  0  0  0  0  0  # atno 6908 bound_to 6896
  151.7860  133.3318  159.3522 H   0  0  0  0  0  0  0  0  0  0  0  0  # atno 6909 bound_to 6896
  145.9375  140.7693  142.9569 H   0  0  0  0  0  0  0  0  0  0  0  0  # atno 7974 bound_to 7965
  154.4770  140.0902  156.7285 H   0  0  0  0  0  0  0  0  0  0  0  0  # atno 8008 bound_to 7997
  155.4571  140.3459  155.4290 H   0  0  0  0  0  0  0  0  0  0  0  0  # atno 8009 bound_to 7997
  156.1131  140.1453  156.9299 H   0  0  0  0  0  0  0  0  0  0  0  0  # atno 8010 bound_to 7997
  140.6169  143.2405  151.5575 H   0  0  0  0  0  0  0  0  0  0  0  0  # atno 10167 bound_to 10162
  157.2605  130.7159  149.6451 H   0  0  0  0  0  0  0  0  0  0  0  0  # atno 10718 bound_to 10713
  154.7426  135.3072  154.8702 H   0  0  0  0  0  0  0  0  0  0  0  0  # atno 10763 bound_to 10752
  153.9512  135.6763  153.4748 H   0  0  0  0  0  0  0  0  0  0  0  0  # atno 10764 bound_to 10752
  153.1024  135.4906  154.8815 H   0  0  0  0  0  0  0  0  0  0  0  0  # atno 10765 bound_to 10752
  140.2362  134.3468  155.7943 H   0  0  0  0  0  0  0  0  0  0  0  0  # atno 11005 bound_to 11000
  144.6774  140.2226  143.7364 LP  0  0  0  0  0  0  0  0  0  0  0  0  # atno 17320 bound_to 7965
  145.8344  139.2101  143.1864 LP  0  0  0  0  0  0  0  0  0  0  0  0  # atno 17321 bound_to 7965
  139.5406  144.2658  152.1343 LP  0  0  0  0  0  0  0  0  0  0  0  0  # atno 17342 bound_to 10162
  140.1869  144.4790  150.6499 LP  0  0  0  0  0  0  0  0  0  0  0  0  # atno 17343 bound_to 10162
  155.9664  130.4399  150.5277 LP  0  0  0  0  0  0  0  0  0  0  0  0  # atno 17370 bound_to 10713
  157.3180  131.0676  151.1952 LP  0  0  0  0  0  0  0  0  0  0  0  0  # atno 17371 bound_to 10713
  141.2214  133.7273  156.8812 LP  0  0  0  0  0  0  0  0  0  0  0  0  # atno 17394 bound_to 11000
  140.1699  134.9107  157.2821 LP  0  0  0  0  0  0  0  0  0  0  0  0  # atno 17395 bound_to 11000

$$$$
