AV-unprocessed.smi:704|AV-procd|sdf|3444|dock5
  -GOLD-   22720 0433D 1   1.00000     0.00000
 Structure written by MMmdl.
 38 39  0  0  0  0  0  0  0  0  1 V2000
  151.5725  138.2678  154.5609 C   0  0  0  0  0  0  0  0  0  0  0  0
  150.2799  138.2545  153.9650 O   0  0  0  0  0  0  0  0  0  0  0  0
  149.5125  139.4020  154.0282 C   0  0  0  0  0  0  0  0  0  0  0  0
  150.0200  140.4832  154.6722 N   0  0  0  0  0  0  0  0  0  0  0  0
  149.2708  141.6030  154.7366 C   0  0  0  0  0  0  0  0  0  0  0  0
  147.9853  141.7035  154.1737 C   0  0  0  0  0  0  0  0  0  0  0  0
  147.4569  140.5837  153.5056 C   0  0  0  0  0  0  0  0  0  0  0  0
  148.2371  139.4057  153.4169 C   0  0  0  0  0  0  0  0  0  0  0  0
  147.7886  138.2133  152.7858 N   0  0  0  0  0  0  0  0  0  0  0  0
  146.5333  137.8638  152.4591 C   0  0  0  0  0  0  0  0  0  0  0  0
  145.5325  138.5596  152.6308 O   0  0  0  0  0  0  0  0  0  0  0  0
  146.5026  136.6542  151.8827 N   0  0  0  0  0  0  0  0  0  0  0  0
  145.2967  135.9953  151.3779 C   0  0  2  0  0  0  0  0  0  0  0  0
  144.1321  136.1206  152.3783 C   0  0  0  0  0  0  0  0  0  0  0  0
  143.4140  134.7647  152.3974 C   0  0  0  0  0  0  0  0  0  0  0  0
  144.0299  133.9454  151.2597 C   0  0  0  0  0  0  0  0  0  0  0  0
  145.4588  134.4804  151.0823 C   0  0  2  0  0  0  0  0  0  0  0  0
  146.4479  133.7351  152.0050 C   0  0  0  0  0  0  0  0  0  0  0  0
  147.4149  133.0313  151.4110 N   0  0  0  0  0  0  0  0  0  0  0  0
  146.3492  133.7980  153.2295 O   0  0  0  0  0  0  0  0  0  0  0  0
  152.0464  137.2975  154.4142 H   0  0  0  0  0  0  0  0  0  0  0  0
  151.5138  138.4485  155.6351 H   0  0  0  0  0  0  0  0  0  0  0  0
  152.2155  139.0218  154.1045 H   0  0  0  0  0  0  0  0  0  0  0  0
  149.7066  142.4421  155.2584 H   0  0  0  0  0  0  0  0  0  0  0  0
  147.4153  142.6168  154.2578 H   0  0  0  0  0  0  0  0  0  0  0  0
  146.4629  140.6446  153.0901 H   0  0  0  0  0  0  0  0  0  0  0  0
  148.5183  137.5817  152.4889 H   0  0  0  0  0  0  0  0  0  0  0  0
  147.3738  136.1568  151.7699 H   0  0  0  0  0  0  0  0  0  0  0  0
  144.9911  136.4884  150.4528 H   0  0  0  0  0  0  0  0  0  0  0  0
  144.4852  136.3613  153.3823 H   0  0  0  0  0  0  0  0  0  0  0  0
  143.4554  136.9210  152.0770 H   0  0  0  0  0  0  0  0  0  0  0  0
  143.5928  134.2674  153.3513 H   0  0  0  0  0  0  0  0  0  0  0  0
  142.3345  134.8679  152.2841 H   0  0  0  0  0  0  0  0  0  0  0  0
  143.9910  132.8738  151.4612 H   0  0  0  0  0  0  0  0  0  0  0  0
  143.4669  134.1176  150.3414 H   0  0  0  0  0  0  0  0  0  0  0  0
  145.7822  134.3391  150.0496 H   0  0  0  0  0  0  0  0  0  0  0  0
  148.0841  132.5219  151.9699 H   0  0  0  0  0  0  0  0  0  0  0  0
  147.4701  133.0073  150.4031 H   0  0  0  0  0  0  0  0  0  0  0  0
  1  2  1  0  0  0  0
  1 21  1  0  0  0  0
  1 22  1  0  0  0  0
  1 23  1  0  0  0  0
  2  3  1  0  0  0  0
  3  8  1  0  0  0  0
  3  4  2  0  0  0  0
  4  5  1  0  0  0  0
  5  6  2  0  0  0  0
  5 24  1  0  0  0  0
  6  7  1  0  0  0  0
  6 25  1  0  0  0  0
  7  8  2  0  0  0  0
  7 26  1  0  0  0  0
  8  9  1  0  0  0  0
  9 10  1  0  0  0  0
  9 27  1  0  0  0  0
 10 11  2  0  0  0  0
 10 12  1  0  0  0  0
 12 13  1  0  0  0  0
 12 28  1  0  0  0  0
 13 17  1  0  0  0  0
 13 14  1  0  0  0  0
 13 29  1  0  0  0  0
 14 15  1  0  0  0  0
 14 30  1  0  0  0  0
 14 31  1  0  0  0  0
 15 16  1  0  0  0  0
 15 32  1  0  0  0  0
 15 33  1  0  0  0  0
 16 17  1  0  0  0  0
 16 34  1  0  0  0  0
 16 35  1  0  0  0  0
 17 18  1  0  0  0  0
 17 36  1  0  0  0  0
 18 19  1  0  0  0  0
 18 20  2  0  0  0  0
 19 37  1  0  0  0  0
 19 38  1  0  0  0  0
M  END
> <s_m_source_file>
AV-unprocessed.smi

> <i_m_source_file_index>
704

> <i_lp_mmshare_version>
43012

> <i_f3d_flags>
0

> <s_epik_input>
W0NIM11PYzFuW2NIXVtjSF1bY0hdYzFbTkhdQyg9TylbTkhdW0NAQEhdMltDSDJdW0NIMl1bQ0gyXVtDQEhdMkMoPU8pW05IMl0=

> <s_epik_cmdline>
J2VwaWtfcHl0aG9uJywgJy1waCcsICc3LjAnLCAnLXRuJywgJzgnLCAnLW1hJywgJzIwMCcsICctbWV0YWxfYmluZGluZycsICctaW1hZScsICc8aW5maWxlLm1hZT4nLCAnLW9tYWUnLCAnPG91dGZpbGUubWFlPic=

> <r_lp_tautomer_probability>
1

> <r_epik_Ionization_Penalty>
9.09123e-05

> <r_epik_Ionization_Penalty_Charging>
0

> <r_epik_Ionization_Penalty_Neutral>
9.09123e-05

> <r_epik_State_Penalty>
-0

> <r_epik_Charging_Adjusted_Penalty>
0

> <i_epik_Tot_Q>
0

> <i_epik_Tot_abs_Q>
0

> <r_epik_Metal_State_Penalty>
-0

> <b_epik_Metal_Only>
0

> <s_lp_Force_Field>
OPLS_2005

> <r_lp_Energy>
16.4905

> <b_lp_Chiralities_Consistent>
1

> <s_lp_Variant>
AV-unprocessed.smi:704-3

> <Gold.Version>
5.8.1

> <Gold.Id.Protein>
6NUR|6NUR_protein|mol2

> <Gold.PLP.Fitness>
42.5510

> <Gold.PLP.PLP>
-31.5905

> <Gold.PLP.part.hbond>
-4.5578

> <Gold.PLP.part.metal>
0.0000

> <Gold.PLP.part.buried>
0.3227

> <Gold.PLP.part.nonpolar>
-31.3729

> <Gold.PLP.part.repulsive>
3.8670

> <Gold.PLP.ligand.clash>
0.0000

> <Gold.PLP.ligand.torsion>
0.3146

> <Gold.PLP.Chemscore.Hbond>
2.8560

> <Gold.PLP.Chemscore.CHOScore>
1.0000

> <Gold.PLP.Chemscore.Metal>
0.0000

> <Gold.Chemscore.Hbonds>
donor molecule, donor type, donor heavy atom, donor atom, acceptor molecule, acceptor atom, score
      L1  H     9    27       P1  7948  0.99
      L1  H    12    28       P1  7948  0.94
      P1  H  7989  7998       L1     4  0.91
      L1  C     5    24       P1  8028  1.00

> <Gold.PLP.Chemscore.Internal.Correction>
0.0218

> <Gold.Rescore>
     Score         DG    S(hbond)    S(metal)    S(lipo)     H(rot)  DE(clash)    DE(int)     intcor
      9.54     -13.71       1.96        0.00      55.17       1.86       1.31       2.86       ----

> <Gold.Chemscore.Fitness>
9.5417

> <Gold.Chemscore.DG>
-13.7054

> <Gold.Chemscore.ZeroCoef>
-5.4800

> <Gold.Chemscore.Hbond>
1.9596

> <Gold.Chemscore.Metal>
0.0000

> <Gold.Chemscore.Lipo>
55.1651

> <Gold.Chemscore.Internal_Hbond>
0.0000

> <Gold.Chemscore.DEClash>
1.3073

> <Gold.Chemscore.DEInternal>
2.8564

> <Gold.Chemscore.Rot>
1.8648

> <Gold.Chemscore.Internal.Correction>
   9.000000E+99

> <Gold.Chemscore.Hbonds>
donor molecule, donor type, donor heavy atom, donor atom, acceptor molecule, acceptor atom, score
      L1  H     9    27       P1  7948  0.88
      L1  H    12    28       P1  7948  0.87
      P1  H  7989  7998       L1     4  0.13

> <Gold.Chemscore.Hbond.Weighted>
-6.5450

> <Gold.Chemscore.Metal.Weighted>
-0.0000

> <Gold.Chemscore.Lipo.Weighted>
-6.4543

> <Gold.Chemscore.Internal_Hbond.Weighted>
0.0000

> <Gold.Chemscore.DEClash.Weighted>
1.3073

> <Gold.Chemscore.DEInternal.Weighted>
2.8564

> <Gold.Chemscore.Rot.Weighted>
4.7739

> <Gold.Chemscore.Internal.Correction.Weighted>
   9.000000E+99

> <Gold.Protein.RotatedTorsions>
[ 6907 6896 6895 6894 ] final  -12.77 input  -60.11 | X-H torsion
[ 7974 7965 7964 7962 ] final  144.03 input  175.53 | X-H torsion
[ 8008 7997 7996 7995 ] final -177.29 input   59.86 | X-H torsion
[ 10167 10162 10161 10158 ] final  152.86 input  -65.29 | X-H torsion
[ 10718 10713 10712 10709 ] final   90.72 input   66.30 | X-H torsion
[ 10763 10752 10751 10750 ] final -162.21 input  -60.55 | X-H torsion
[ 11005 11000 10999 10996 ] final  144.26 input  -57.11 | X-H torsion

> <Gold.Protein.ActiveResidues>
 VAL166  LYS551  ARG553  GLY616  TRP617  ASP618  TYR619  PRO620  LYS621  CYS622 
 ASP623  PHE694  ASN695  SER759  ASP760  ASP761  ALA762  ILE779  LEU786  VAL792 
 PHE793  MET794  SER795  GLU796  ALA797  LYS798  CYS799  TRP800  GLU811  SER814 

> <Gold.Protein.RotatedAtoms>
  151.3653  135.0912  159.9447 H   0  0  0  0  0  0  0  0  0  0  0  0  # atno 6907 bound_to 6896
  152.5150  133.9218  159.7548 H   0  0  0  0  0  0  0  0  0  0  0  0  # atno 6908 bound_to 6896
  150.9620  133.6380  159.2782 H   0  0  0  0  0  0  0  0  0  0  0  0  # atno 6909 bound_to 6896
  144.8870  139.5613  143.5816 H   0  0  0  0  0  0  0  0  0  0  0  0  # atno 7974 bound_to 7965
  156.0052  140.1229  157.0508 H   0  0  0  0  0  0  0  0  0  0  0  0  # atno 8008 bound_to 7997
  154.4256  140.1099  156.5822 H   0  0  0  0  0  0  0  0  0  0  0  0  # atno 8009 bound_to 7997
  155.6157  140.3472  155.4638 H   0  0  0  0  0  0  0  0  0  0  0  0  # atno 8010 bound_to 7997
  139.4830  144.5322  151.7703 H   0  0  0  0  0  0  0  0  0  0  0  0  # atno 10167 bound_to 10162
  157.6959  131.0381  150.3621 H   0  0  0  0  0  0  0  0  0  0  0  0  # atno 10718 bound_to 10713
  154.7234  135.3030  154.9010 H   0  0  0  0  0  0  0  0  0  0  0  0  # atno 10763 bound_to 10752
  153.9875  135.6723  153.4756 H   0  0  0  0  0  0  0  0  0  0  0  0  # atno 10764 bound_to 10752
  153.0854  135.4987  154.8504 H   0  0  0  0  0  0  0  0  0  0  0  0  # atno 10765 bound_to 10752
  140.0618  134.9200  157.1197 H   0  0  0  0  0  0  0  0  0  0  0  0  # atno 11005 bound_to 11000
  146.3031  139.7490  142.9077 LP  0  0  0  0  0  0  0  0  0  0  0  0  # atno 17320 bound_to 7965
  145.3850  141.0364  143.3156 LP  0  0  0  0  0  0  0  0  0  0  0  0  # atno 17321 bound_to 7965
  140.4850  144.1394  150.5939 LP  0  0  0  0  0  0  0  0  0  0  0  0  # atno 17342 bound_to 10162
  140.4235  143.2600  151.9686 LP  0  0  0  0  0  0  0  0  0  0  0  0  # atno 17343 bound_to 10162
  156.4056  130.3924  149.6928 LP  0  0  0  0  0  0  0  0  0  0  0  0  # atno 17370 bound_to 10713
  156.4230  130.7778  151.2796 LP  0  0  0  0  0  0  0  0  0  0  0  0  # atno 17371 bound_to 10713
  140.3759  134.2340  155.7174 LP  0  0  0  0  0  0  0  0  0  0  0  0  # atno 17394 bound_to 11000
  141.1976  133.8055  157.0619 LP  0  0  0  0  0  0  0  0  0  0  0  0  # atno 17395 bound_to 11000

$$$$
