AV-unprocessed.smi:3046|AV-procd|sdf|11614|dock10
  -GOLD-   2272016593D 1   1.00000     0.00000
 Structure written by MMmdl.
 38 38  0  0  0  0  0  0  0  0  2 V2000
  150.2423  138.6429  154.0609 C   0  0  0  0  0  0  0  0  0  0  0  0
  149.8536  137.7288  154.9626 C   0  0  0  0  0  0  0  0  0  0  0  0
  148.4107  137.4523  155.3361 C   0  0  0  0  0  0  0  0  0  0  0  0
  147.6810  136.8405  154.2322 N   0  0  0  0  0  0  0  0  0  0  0  0
  146.4809  136.2477  154.3327 C   0  0  0  0  0  0  0  0  0  0  0  0
  145.8582  136.1573  155.3914 O   0  0  0  0  0  0  0  0  0  0  0  0
  145.9021  135.6536  153.0405 C   0  0  1  0  0  0  0  0  0  0  0  0
  145.6145  136.7777  152.0337 C   0  0  0  0  0  0  0  0  0  0  0  0
  146.8209  134.6619  152.4300 N   0  3  0  0  0  0  0  0  0  0  0  0
  146.9979  133.3896  153.1693 C   0  0  2  0  0  0  0  0  0  0  0  0
  148.3364  133.4246  153.9252 C   0  0  0  0  0  0  0  0  0  0  0  0
  146.8959  132.1776  152.2151 C   0  0  0  0  0  0  0  0  0  0  0  0
  145.8114  132.3042  151.2586 N   0  0  0  0  0  0  0  0  0  0  0  0
  145.8330  132.0806  149.8976 C   0  0  0  0  0  0  0  0  0  0  0  0
  144.5779  132.3362  149.4248 C   0  0  0  0  0  0  0  0  0  0  0  0
  143.8506  132.7221  150.5854 C   0  0  0  0  0  0  0  0  0  0  0  0
  144.5930  132.7052  151.6809 N   0  0  0  0  0  0  0  0  0  0  0  0
  149.5235  139.2505  153.5306 H   0  0  0  0  0  0  0  0  0  0  0  0
  151.2890  138.7954  153.8415 H   0  0  0  0  0  0  0  0  0  0  0  0
  150.6040  137.1447  155.4755 H   0  0  0  0  0  0  0  0  0  0  0  0
  148.3844  136.8069  156.2155 H   0  0  0  0  0  0  0  0  0  0  0  0
  147.9118  138.3820  155.6124 H   0  0  0  0  0  0  0  0  0  0  0  0
  148.1267  136.8653  153.3261 H   0  0  0  0  0  0  0  0  0  0  0  0
  144.9560  135.1645  153.2737 H   0  0  0  0  0  0  0  0  0  0  0  0
  144.9301  137.5189  152.4490 H   0  0  0  0  0  0  0  0  0  0  0  0
  145.1534  136.3822  151.1281 H   0  0  0  0  0  0  0  0  0  0  0  0
  146.5282  137.2972  151.7403 H   0  0  0  0  0  0  0  0  0  0  0  0
  146.4923  134.4395  151.5017 H   0  0  0  0  0  0  0  0  0  0  0  0
  146.2101  133.3146  153.9200 H   0  0  0  0  0  0  0  0  0  0  0  0
  148.4691  132.5399  154.5485 H   0  0  0  0  0  0  0  0  0  0  0  0
  148.3903  134.2921  154.5839 H   0  0  0  0  0  0  0  0  0  0  0  0
  149.1802  133.4765  153.2365 H   0  0  0  0  0  0  0  0  0  0  0  0
  147.8190  132.0419  151.6514 H   0  0  0  0  0  0  0  0  0  0  0  0
  146.7454  131.2607  152.7868 H   0  0  0  0  0  0  0  0  0  0  0  0
  146.7274  131.7591  149.3845 H   0  0  0  0  0  0  0  0  0  0  0  0
  144.2316  132.2613  148.4046 H   0  0  0  0  0  0  0  0  0  0  0  0
  142.8134  133.0129  150.6638 H   0  0  0  0  0  0  0  0  0  0  0  0
  147.7238  135.1083  152.3504 H   0  0  0  0  0  0  0  0  0  0  0  0
  1  2  2  0  0  0  0
  1 18  1  0  0  0  0
  1 19  1  0  0  0  0
  2  3  1  0  0  0  0
  2 20  1  0  0  0  0
  3  4  1  0  0  0  0
  3 21  1  0  0  0  0
  3 22  1  0  0  0  0
  4  5  1  0  0  0  0
  4 23  1  0  0  0  0
  5  6  2  0  0  0  0
  5  7  1  0  0  0  0
  7  8  1  0  0  0  0
  7  9  1  0  0  0  0
  7 24  1  0  0  0  0
  8 25  1  0  0  0  0
  8 26  1  0  0  0  0
  8 27  1  0  0  0  0
  9 10  1  0  0  0  0
  9 28  1  0  0  0  0
  9 38  1  0  0  0  0
 10 11  1  0  0  0  0
 10 12  1  0  0  0  0
 10 29  1  0  0  0  0
 11 30  1  0  0  0  0
 11 31  1  0  0  0  0
 11 32  1  0  0  0  0
 12 13  1  0  0  0  0
 12 33  1  0  0  0  0
 12 34  1  0  0  0  0
 13 17  1  0  0  0  0
 13 14  1  0  0  0  0
 14 15  2  0  0  0  0
 14 35  1  0  0  0  0
 15 16  1  0  0  0  0
 15 36  1  0  0  0  0
 16 17  2  0  0  0  0
 16 37  1  0  0  0  0
M  CHG  1   9   1
M  END
> <s_m_source_file>
AV-unprocessed.smi

> <i_m_source_file_index>
3046

> <i_lp_mmshare_version>
43012

> <i_f3d_flags>
0

> <s_epik_input>
W0NIMl09W0NIXVtDSDJdW05IXUMoPU8pW0NASF0oW0NIM10pW05IXVtDQEhdKFtDSDNdKVtDSDJdbjFbY0hdW2NIXVtjSF1uMQ==

> <s_epik_cmdline>
J2VwaWtfcHl0aG9uJywgJy1waCcsICc3LjAnLCAnLXRuJywgJzgnLCAnLW1hJywgJzIwMCcsICctbWV0YWxfYmluZGluZycsICctaW1hZScsICc8aW5maWxlLm1hZT4nLCAnLW9tYWUnLCAnPG91dGZpbGUubWFlPic=

> <r_lp_tautomer_probability>
1

> <r_epik_Ionization_Penalty>
0.132961

> <r_epik_Ionization_Penalty_Charging>
0.132956

> <r_epik_Ionization_Penalty_Neutral>
5.00268e-06

> <r_epik_State_Penalty>
0.122332

> <r_epik_Charging_Adjusted_Penalty>
0.255288

> <i_epik_Tot_Q>
1

> <i_epik_Tot_abs_Q>
1

> <r_epik_Metal_State_Penalty>
0.122338

> <b_epik_Metal_Only>
0

> <s_lp_Force_Field>
OPLS_2005

> <r_lp_Energy>
6.33671

> <b_lp_Chiralities_Consistent>
1

> <s_lp_Variant>
AV-unprocessed.smi:3046-2

> <Gold.Version>
5.8.1

> <Gold.Id.Protein>
6NUR|6NUR_protein|mol2

> <Gold.PLP.Fitness>
41.3579

> <Gold.PLP.PLP>
-28.5573

> <Gold.PLP.part.hbond>
-2.0000

> <Gold.PLP.part.metal>
0.0000

> <Gold.PLP.part.buried>
-2.9305

> <Gold.PLP.part.nonpolar>
-23.8599

> <Gold.PLP.part.repulsive>
0.1384

> <Gold.PLP.ligand.clash>
0.0000

> <Gold.PLP.ligand.torsion>
1.1043

> <Gold.PLP.Chemscore.Hbond>
3.0000

> <Gold.PLP.Chemscore.CHOScore>
1.9898

> <Gold.PLP.Chemscore.Metal>
0.0000

> <Gold.Chemscore.Hbonds>
donor molecule, donor type, donor heavy atom, donor atom, acceptor molecule, acceptor atom, score
      L1  H     4    23       P1  7948  1.00
      L1  H     9    38       P1  7948  2.00
      L1  C    14    35       P1 10747  0.93
      L1  C    16    37       P1 10186  0.97

> <Gold.PLP.Chemscore.Internal.Correction>
0.0397

> <Gold.Rescore>
     Score         DG    S(hbond)    S(metal)    S(lipo)     H(rot)  DE(clash)    DE(int)     intcor
     13.73     -14.70       1.96        0.00      72.30       2.26       0.05       0.91       ----

> <Gold.Chemscore.Fitness>
13.7338

> <Gold.Chemscore.DG>
-14.6950

> <Gold.Chemscore.ZeroCoef>
-5.4800

> <Gold.Chemscore.Hbond>
1.9605

> <Gold.Chemscore.Metal>
0.0000

> <Gold.Chemscore.Lipo>
72.3003

> <Gold.Chemscore.Internal_Hbond>
0.0000

> <Gold.Chemscore.DEClash>
0.0473

> <Gold.Chemscore.DEInternal>
0.9139

> <Gold.Chemscore.Rot>
2.2626

> <Gold.Chemscore.Internal.Correction>
   9.000000E+99

> <Gold.Chemscore.Hbonds>
donor molecule, donor type, donor heavy atom, donor atom, acceptor molecule, acceptor atom, score
      L1  H     4    23       P1  7948  0.99
      L1  H     9    38       P1  7948  0.96

> <Gold.Chemscore.Hbond.Weighted>
-6.5481

> <Gold.Chemscore.Metal.Weighted>
-0.0000

> <Gold.Chemscore.Lipo.Weighted>
-8.4591

> <Gold.Chemscore.Internal_Hbond.Weighted>
0.0000

> <Gold.Chemscore.DEClash.Weighted>
0.0473

> <Gold.Chemscore.DEInternal.Weighted>
0.9139

> <Gold.Chemscore.Rot.Weighted>
5.7922

> <Gold.Chemscore.Internal.Correction.Weighted>
   9.000000E+99

> <Gold.Protein.RotatedTorsions>
[ 6907 6896 6895 6894 ] final  -37.48 input  -60.11 | X-H torsion
[ 7974 7965 7964 7962 ] final  -45.07 input  175.53 | X-H torsion
[ 8008 7997 7996 7995 ] final  106.79 input   59.86 | X-H torsion
[ 10167 10162 10161 10158 ] final   36.38 input  -65.29 | X-H torsion
[ 10718 10713 10712 10709 ] final  -27.64 input   66.30 | X-H torsion
[ 10763 10752 10751 10750 ] final  -17.65 input  -60.55 | X-H torsion
[ 11005 11000 10999 10996 ] final  -36.82 input  -57.11 | X-H torsion

> <Gold.Protein.ActiveResidues>
 VAL166  LYS551  ARG553  GLY616  TRP617  ASP618  TYR619  PRO620  LYS621  CYS622 
 ASP623  PHE694  ASN695  SER759  ASP760  ASP761  ALA762  ILE779  LEU786  VAL792 
 PHE793  MET794  SER795  GLU796  ALA797  LYS798  CYS799  TRP800  GLU811  SER814 

> <Gold.Protein.RotatedAtoms>
  151.0142  134.9420  159.8023 H   0  0  0  0  0  0  0  0  0  0  0  0  # atno 6907 bound_to 6896
  152.5310  134.2988  159.9080 H   0  0  0  0  0  0  0  0  0  0  0  0  # atno 6908 bound_to 6896
  151.2994  133.4087  159.2673 H   0  0  0  0  0  0  0  0  0  0  0  0  # atno 6909 bound_to 6896
  145.9857  140.7236  142.9341 H   0  0  0  0  0  0  0  0  0  0  0  0  # atno 7974 bound_to 7965
  156.1772  140.3106  155.9081 H   0  0  0  0  0  0  0  0  0  0  0  0  # atno 8008 bound_to 7997
  155.3462  140.0468  157.3062 H   0  0  0  0  0  0  0  0  0  0  0  0  # atno 8009 bound_to 7997
  154.5303  140.2228  155.8826 H   0  0  0  0  0  0  0  0  0  0  0  0  # atno 8010 bound_to 7997
  140.4133  144.1562  150.6141 H   0  0  0  0  0  0  0  0  0  0  0  0  # atno 10167 bound_to 10162
  156.4356  130.4454  149.7087 H   0  0  0  0  0  0  0  0  0  0  0  0  # atno 10718 bound_to 10713
  153.5772  135.7006  153.5479 H   0  0  0  0  0  0  0  0  0  0  0  0  # atno 10763 bound_to 10752
  153.3293  135.4052  155.1482 H   0  0  0  0  0  0  0  0  0  0  0  0  # atno 10764 bound_to 10752
  154.8623  135.3715  154.5297 H   0  0  0  0  0  0  0  0  0  0  0  0  # atno 10765 bound_to 10752
  140.9904  133.7008  156.1840 H   0  0  0  0  0  0  0  0  0  0  0  0  # atno 11005 bound_to 11000
  144.6874  140.2984  143.7267 LP  0  0  0  0  0  0  0  0  0  0  0  0  # atno 17320 bound_to 7965
  145.7704  139.1855  143.2215 LP  0  0  0  0  0  0  0  0  0  0  0  0  # atno 17321 bound_to 7965
  140.4614  143.2447  151.9215 LP  0  0  0  0  0  0  0  0  0  0  0  0  # atno 17342 bound_to 10162
  139.4782  144.5463  151.8452 LP  0  0  0  0  0  0  0  0  0  0  0  0  # atno 17343 bound_to 10162
  156.3973  130.7657  151.2662 LP  0  0  0  0  0  0  0  0  0  0  0  0  # atno 17370 bound_to 10713
  157.7507  131.0250  150.3901 LP  0  0  0  0  0  0  0  0  0  0  0  0  # atno 17371 bound_to 10713
  140.7048  134.4525  157.5584 LP  0  0  0  0  0  0  0  0  0  0  0  0  # atno 17394 bound_to 11000
  139.8990  134.8602  156.1979 LP  0  0  0  0  0  0  0  0  0  0  0  0  # atno 17395 bound_to 11000

$$$$
