AV-unprocessed.smi:2908|AV-procd|sdf|11167|dock3
  -GOLD-   2272016 53D 1   1.00000     0.00000
 Structure written by MMmdl.
 43 44  0  0  0  0  0  0  0  0  1 V2000
  148.3245  139.0077  157.1062 O   0  0  0  0  0  0  0  0  0  0  0  0
  148.1196  139.6833  156.0966 C   0  0  0  0  0  0  0  0  0  0  0  0
  148.9692  140.6448  155.7003 N   0  0  0  0  0  0  0  0  0  0  0  0
  150.2120  140.9802  156.3817 C   0  0  0  0  0  0  0  0  0  0  0  0
  149.9643  141.2289  157.8760 C   0  0  0  0  0  0  0  0  0  0  0  0
  151.0355  142.1071  158.4955 C   0  0  0  0  0  0  0  0  0  0  0  0
  151.3064  143.3905  157.9745 C   0  0  0  0  0  0  0  0  0  0  0  0
  152.3017  144.1698  158.5953 C   0  0  0  0  0  0  0  0  0  0  0  0
  152.9837  143.6393  159.7072 C   0  0  0  0  0  0  0  0  0  0  0  0
  152.6392  142.3469  160.1503 C   0  0  0  0  0  0  0  0  0  0  0  0
  151.6870  141.5911  159.5621 N   0  0  0  0  0  0  0  0  0  0  0  0
  147.0155  139.5439  155.3197 N   0  0  0  0  0  0  0  0  0  0  0  0
  146.7259  140.2729  154.0752 C   0  0  0  0  0  0  0  0  0  0  0  0
  146.9394  139.3207  152.8857 C   0  0  0  0  0  0  0  0  0  0  0  0
  146.0585  138.0491  152.9956 C   0  0  0  0  0  0  0  0  0  0  0  0
  146.3497  137.0574  151.8360 C   0  0  2  0  0  0  0  0  0  0  0  0
  146.2658  137.7635  150.6114 O   0  0  0  0  0  0  0  0  0  0  0  0
  145.3979  135.8423  151.7349 C   0  0  0  0  0  0  0  0  0  0  0  0
  145.5299  135.2660  150.5391 F   0  0  0  0  0  0  0  0  0  0  0  0
  145.7098  134.9222  152.6470 F   0  0  0  0  0  0  0  0  0  0  0  0
  144.1287  136.2118  151.9082 F   0  0  0  0  0  0  0  0  0  0  0  0
  146.2191  137.4174  154.4008 C   0  0  0  0  0  0  0  0  0  0  0  0
  146.0521  138.4575  155.5238 C   0  0  0  0  0  0  0  0  0  0  0  0
  148.7401  141.1716  154.8703 H   0  0  0  0  0  0  0  0  0  0  0  0
  150.9283  140.1670  156.2529 H   0  0  0  0  0  0  0  0  0  0  0  0
  150.6451  141.8689  155.9196 H   0  0  0  0  0  0  0  0  0  0  0  0
  148.9920  141.7019  158.0217 H   0  0  0  0  0  0  0  0  0  0  0  0
  149.9267  140.2788  158.4106 H   0  0  0  0  0  0  0  0  0  0  0  0
  150.7637  143.7718  157.1221 H   0  0  0  0  0  0  0  0  0  0  0  0
  152.5364  145.1572  158.2260 H   0  0  0  0  0  0  0  0  0  0  0  0
  153.7520  144.2090  160.2086 H   0  0  0  0  0  0  0  0  0  0  0  0
  153.1412  141.9089  161.0002 H   0  0  0  0  0  0  0  0  0  0  0  0
  145.6912  140.6182  154.0938 H   0  0  0  0  0  0  0  0  0  0  0  0
  147.3257  141.1725  153.9387 H   0  0  0  0  0  0  0  0  0  0  0  0
  146.7223  139.8552  151.9605 H   0  0  0  0  0  0  0  0  0  0  0  0
  147.9919  139.0376  152.8366 H   0  0  0  0  0  0  0  0  0  0  0  0
  145.0185  138.3675  152.9083 H   0  0  0  0  0  0  0  0  0  0  0  0
  147.3722  136.6886  151.9264 H   0  0  0  0  0  0  0  0  0  0  0  0
  145.3585  137.7989  150.3488 H   0  0  0  0  0  0  0  0  0  0  0  0
  145.4771  136.6340  154.5509 H   0  0  0  0  0  0  0  0  0  0  0  0
  147.1987  136.9448  154.4857 H   0  0  0  0  0  0  0  0  0  0  0  0
  146.1616  137.9756  156.4965 H   0  0  0  0  0  0  0  0  0  0  0  0
  145.0397  138.8637  155.5110 H   0  0  0  0  0  0  0  0  0  0  0  0
  1  2  2  0  0  0  0
  2  3  1  0  0  0  0
  2 12  1  0  0  0  0
  3  4  1  0  0  0  0
  3 24  1  0  0  0  0
  4  5  1  0  0  0  0
  4 25  1  0  0  0  0
  4 26  1  0  0  0  0
  5  6  1  0  0  0  0
  5 27  1  0  0  0  0
  5 28  1  0  0  0  0
  6 11  1  0  0  0  0
  6  7  2  0  0  0  0
  7  8  1  0  0  0  0
  7 29  1  0  0  0  0
  8  9  2  0  0  0  0
  8 30  1  0  0  0  0
  9 10  1  0  0  0  0
  9 31  1  0  0  0  0
 10 11  2  0  0  0  0
 10 32  1  0  0  0  0
 12 23  1  0  0  0  0
 12 13  1  0  0  0  0
 13 14  1  0  0  0  0
 13 33  1  0  0  0  0
 13 34  1  0  0  0  0
 14 15  1  0  0  0  0
 14 35  1  0  0  0  0
 14 36  1  0  0  0  0
 15 16  1  0  0  0  0
 15 22  1  0  0  0  0
 15 37  1  0  0  0  0
 16 17  1  0  0  0  0
 16 18  1  0  0  0  0
 16 38  1  0  0  0  0
 17 39  1  0  0  0  0
 18 19  1  0  0  0  0
 18 20  1  0  0  0  0
 18 21  1  0  0  0  0
 22 23  1  0  0  0  0
 22 40  1  0  0  0  0
 22 41  1  0  0  0  0
 23 42  1  0  0  0  0
 23 43  1  0  0  0  0
M  END
> <s_m_source_file>
AV-unprocessed.smi

> <i_m_source_file_index>
2908

> <i_lp_mmshare_version>
43012

> <i_f3d_flags>
0

> <s_epik_input>
RkMoRikoRilbQ0BASF0oW09IXSlbQ0hdKFtDSDJdW0NIMl0xKVtDSDJdW0NIMl1OMUMoPU8pW05IXVtDSDJdW0NIMl1jMltjSF1bY0hdW2NIXVtjSF1uMg==

> <s_epik_cmdline>
J2VwaWtfcHl0aG9uJywgJy1waCcsICc3LjAnLCAnLXRuJywgJzgnLCAnLW1hJywgJzIwMCcsICctbWV0YWxfYmluZGluZycsICctaW1hZScsICc8aW5maWxlLm1hZT4nLCAnLW9tYWUnLCAnPG91dGZpbGUubWFlPic=

> <r_epik_Ionization_Penalty>
0.0451198

> <r_epik_Ionization_Penalty_Charging>
0

> <r_epik_Ionization_Penalty_Neutral>
0.0451198

> <r_epik_State_Penalty>
0.0381178

> <r_epik_Charging_Adjusted_Penalty>
0.0381178

> <i_epik_Tot_Q>
0

> <i_epik_Tot_abs_Q>
0

> <r_epik_Metal_State_Penalty>
0.0354176

> <b_epik_Metal_Only>
0

> <s_lp_Force_Field>
OPLS_2005

> <r_lp_Energy>
35.4637

> <b_lp_Chiralities_Consistent>
1

> <s_lp_Variant>
AV-unprocessed.smi:2908-1

> <Gold.Version>
5.8.1

> <Gold.Id.Protein>
6NUR|6NUR_protein|mol2

> <Gold.PLP.Fitness>
43.1427

> <Gold.PLP.PLP>
-38.0370

> <Gold.PLP.part.hbond>
-2.6161

> <Gold.PLP.part.metal>
0.0000

> <Gold.PLP.part.buried>
-2.1840

> <Gold.PLP.part.nonpolar>
-33.1597

> <Gold.PLP.part.repulsive>
0.0684

> <Gold.PLP.ligand.clash>
0.0000

> <Gold.PLP.ligand.torsion>
0.6514

> <Gold.PLP.Chemscore.Hbond>
1.9920

> <Gold.PLP.Chemscore.CHOScore>
0.0000

> <Gold.PLP.Chemscore.Metal>
0.0000

> <Gold.Chemscore.Hbonds>
donor molecule, donor type, donor heavy atom, donor atom, acceptor molecule, acceptor atom, score
      L1  H    17    39       P1 10171  1.00
      P1  H  7954  7966       L1    17  0.96

> <Gold.PLP.Chemscore.Internal.Correction>
0.4325

> <Gold.Rescore>
     Score         DG    S(hbond)    S(metal)    S(lipo)     H(rot)  DE(clash)    DE(int)     intcor
     14.80     -17.94       1.94        0.00     101.58       2.30       1.36       1.77       ----

> <Gold.Chemscore.Fitness>
14.8049

> <Gold.Chemscore.DG>
-17.9414

> <Gold.Chemscore.ZeroCoef>
-5.4800

> <Gold.Chemscore.Hbond>
1.9391

> <Gold.Chemscore.Metal>
0.0000

> <Gold.Chemscore.Lipo>
101.5836

> <Gold.Chemscore.Internal_Hbond>
0.0000

> <Gold.Chemscore.DEClash>
1.3624

> <Gold.Chemscore.DEInternal>
1.7741

> <Gold.Chemscore.Rot>
2.3048

> <Gold.Chemscore.Internal.Correction>
   9.000000E+99

> <Gold.Chemscore.Hbonds>
donor molecule, donor type, donor heavy atom, donor atom, acceptor molecule, acceptor atom, score
      L1  H    17    39       P1 10171  0.98
      P1  H  7954  7966       L1    17  0.52

> <Gold.Chemscore.Hbond.Weighted>
-6.4765

> <Gold.Chemscore.Metal.Weighted>
-0.0000

> <Gold.Chemscore.Lipo.Weighted>
-11.8853

> <Gold.Chemscore.Internal_Hbond.Weighted>
0.0000

> <Gold.Chemscore.DEClash.Weighted>
1.3624

> <Gold.Chemscore.DEInternal.Weighted>
1.7741

> <Gold.Chemscore.Rot.Weighted>
5.9004

> <Gold.Chemscore.Internal.Correction.Weighted>
   9.000000E+99

> <Gold.Protein.RotatedTorsions>
[ 6907 6896 6895 6894 ] final -149.40 input  -60.11 | X-H torsion
[ 7974 7965 7964 7962 ] final  -47.43 input  175.53 | X-H torsion
[ 8008 7997 7996 7995 ] final    8.36 input   59.86 | X-H torsion
[ 10167 10162 10161 10158 ] final   12.66 input  -65.29 | X-H torsion
[ 10718 10713 10712 10709 ] final  161.48 input   66.30 | X-H torsion
[ 10763 10752 10751 10750 ] final  -90.34 input  -60.55 | X-H torsion
[ 11005 11000 10999 10996 ] final -112.15 input  -57.11 | X-H torsion

> <Gold.Protein.ActiveResidues>
 VAL166  LYS551  ARG553  GLY616  TRP617  ASP618  TYR619  PRO620  LYS621  CYS622 
 ASP623  PHE694  ASN695  SER759  ASP760  ASP761  ALA762  ILE779  LEU786  VAL792 
 PHE793  MET794  SER795  GLU796  ALA797  LYS798  CYS799  TRP800  GLU811  SER814 

> <Gold.Protein.RotatedAtoms>
  151.1836  133.4710  159.2594 H   0  0  0  0  0  0  0  0  0  0  0  0  # atno 6907 bound_to 6896
  151.1235  135.0092  159.8559 H   0  0  0  0  0  0  0  0  0  0  0  0  # atno 6908 bound_to 6896
  152.5457  134.1745  159.8663 H   0  0  0  0  0  0  0  0  0  0  0  0  # atno 6909 bound_to 6896
  145.9617  140.7472  142.9454 H   0  0  0  0  0  0  0  0  0  0  0  0  # atno 7974 bound_to 7965
  154.7658  140.2793  155.6177 H   0  0  0  0  0  0  0  0  0  0  0  0  # atno 8008 bound_to 7997
  156.2924  140.2651  156.2376 H   0  0  0  0  0  0  0  0  0  0  0  0  # atno 8009 bound_to 7997
  154.9961  140.0373  157.2330 H   0  0  0  0  0  0  0  0  0  0  0  0  # atno 8010 bound_to 7997
  140.6053  143.8520  150.7008 H   0  0  0  0  0  0  0  0  0  0  0  0  # atno 10167 bound_to 10162
  157.1360  131.0528  151.2349 H   0  0  0  0  0  0  0  0  0  0  0  0  # atno 10718 bound_to 10713
  154.6648  135.5308  153.8063 H   0  0  0  0  0  0  0  0  0  0  0  0  # atno 10763 bound_to 10752
  153.0464  135.6514  154.0817 H   0  0  0  0  0  0  0  0  0  0  0  0  # atno 10764 bound_to 10752
  154.0722  135.2953  155.3286 H   0  0  0  0  0  0  0  0  0  0  0  0  # atno 10765 bound_to 10752
  141.0692  133.9408  157.2519 H   0  0  0  0  0  0  0  0  0  0  0  0  # atno 11005 bound_to 11000
  144.6816  140.2602  143.7320 LP  0  0  0  0  0  0  0  0  0  0  0  0  # atno 17320 bound_to 7965
  145.8030  139.1972  143.2037 LP  0  0  0  0  0  0  0  0  0  0  0  0  # atno 17321 bound_to 7965
  140.2075  143.3910  152.1744 LP  0  0  0  0  0  0  0  0  0  0  0  0  # atno 17342 bound_to 10162
  139.5321  144.7170  151.5021 LP  0  0  0  0  0  0  0  0  0  0  0  0  # atno 17343 bound_to 10162
  157.4350  130.7512  149.7021 LP  0  0  0  0  0  0  0  0  0  0  0  0  # atno 17370 bound_to 10713
  155.9798  130.4036  150.3565 LP  0  0  0  0  0  0  0  0  0  0  0  0  # atno 17371 bound_to 10713
  139.9506  135.0176  156.8983 LP  0  0  0  0  0  0  0  0  0  0  0  0  # atno 17394 bound_to 11000
  140.5709  134.0444  155.7430 LP  0  0  0  0  0  0  0  0  0  0  0  0  # atno 17395 bound_to 11000

$$$$
