AV-unprocessed.smi:1554|AV-procd|sdf|6253|dock3
  -GOLD-   22720 6433D 1   1.00000     0.00000
 Structure written by MMmdl.
 48 50  0  0  0  0  0  0  0  0  2 V2000
  152.5132  143.9914  160.5146 C   0  0  0  0  0  0  0  0  0  0  0  0
  152.1817  143.0176  159.3964 C   0  0  0  0  0  0  0  0  0  0  0  0
  151.2800  143.4293  158.3894 C   0  0  0  0  0  0  0  0  0  0  0  0
  150.9967  142.5164  157.3802 C   0  0  0  0  0  0  0  0  0  0  0  0
  150.1575  142.6128  156.2691 N   0  3  0  0  0  0  0  0  0  0  0  0
  150.2023  141.4489  155.5639 C   0  0  0  0  0  0  0  0  0  0  0  0
  151.0742  140.6146  156.1979 N   0  0  0  0  0  0  0  0  0  0  0  0
  151.4883  139.2326  155.8977 C   0  0  0  0  0  0  0  0  0  0  0  0
  150.5749  138.5046  154.8902 C   0  0  1  0  0  0  0  0  0  0  0  0
  150.7295  139.0967  153.6149 O   0  0  0  0  0  0  0  0  0  0  0  0
  150.9379  137.0104  154.7760 C   0  0  0  0  0  0  0  0  0  0  0  0
  150.1051  136.0969  155.5611 N   0  0  0  0  0  0  0  0  0  0  0  0
  150.7245  134.7791  155.6523 C   0  0  0  0  0  0  0  0  0  0  0  0
  149.8671  133.7953  156.4654 C   0  0  0  0  0  0  0  0  0  0  0  0
  149.6302  134.3323  157.7623 O   0  0  0  0  0  0  0  0  0  0  0  0
  148.9813  135.6004  157.7283 C   0  0  1  0  0  0  0  0  0  0  0  0
  148.7670  136.0719  159.1706 C   0  0  0  0  0  0  0  0  0  0  0  0
  149.8399  136.5877  156.9127 C   0  0  0  0  0  0  0  0  0  0  0  0
  151.5788  141.2344  157.3463 C   0  0  0  0  0  0  0  0  0  0  0  0
  152.4655  140.8112  158.3333 C   0  0  0  0  0  0  0  0  0  0  0  0
  152.7654  141.7243  159.3697 C   0  0  0  0  0  0  0  0  0  0  0  0
  153.7309  141.2910  160.4597 C   0  0  0  0  0  0  0  0  0  0  0  0
  151.9968  144.9426  160.3819 H   0  0  0  0  0  0  0  0  0  0  0  0
  153.5840  144.1953  160.5405 H   0  0  0  0  0  0  0  0  0  0  0  0
  152.2142  143.5821  161.4799 H   0  0  0  0  0  0  0  0  0  0  0  0
  150.8296  144.4110  158.4047 H   0  0  0  0  0  0  0  0  0  0  0  0
  149.6501  141.2332  154.6607 H   0  0  0  0  0  0  0  0  0  0  0  0
  152.5068  139.2596  155.5073 H   0  0  0  0  0  0  0  0  0  0  0  0
  151.5171  138.6902  156.8437 H   0  0  0  0  0  0  0  0  0  0  0  0
  149.5405  138.6233  155.2100 H   0  0  0  0  0  0  0  0  0  0  0  0
  149.8790  139.1419  153.2042 H   0  0  0  0  0  0  0  0  0  0  0  0
  150.8813  136.7310  153.7225 H   0  0  0  0  0  0  0  0  0  0  0  0
  151.9823  136.8723  155.0603 H   0  0  0  0  0  0  0  0  0  0  0  0
  150.8829  134.3740  154.6522 H   0  0  0  0  0  0  0  0  0  0  0  0
  151.7097  134.8638  156.1139 H   0  0  0  0  0  0  0  0  0  0  0  0
  148.9178  133.6027  155.9632 H   0  0  0  0  0  0  0  0  0  0  0  0
  150.3784  132.8376  156.5639 H   0  0  0  0  0  0  0  0  0  0  0  0
  148.0067  135.4850  157.2505 H   0  0  0  0  0  0  0  0  0  0  0  0
  148.2571  137.0352  159.1971 H   0  0  0  0  0  0  0  0  0  0  0  0
  149.7166  136.1806  159.6957 H   0  0  0  0  0  0  0  0  0  0  0  0
  148.1583  135.3588  159.7270 H   0  0  0  0  0  0  0  0  0  0  0  0
  150.7831  136.7646  157.4321 H   0  0  0  0  0  0  0  0  0  0  0  0
  149.3200  137.5437  156.8747 H   0  0  0  0  0  0  0  0  0  0  0  0
  152.9110  139.8276  158.3119 H   0  0  0  0  0  0  0  0  0  0  0  0
  154.0775  140.2691  160.3026 H   0  0  0  0  0  0  0  0  0  0  0  0
  153.2492  141.3322  161.4370 H   0  0  0  0  0  0  0  0  0  0  0  0
  154.6062  141.9409  160.4764 H   0  0  0  0  0  0  0  0  0  0  0  0
  149.5916  143.4107  156.0103 H   0  0  0  0  0  0  0  0  0  0  0  0
  1  2  1  0  0  0  0
  1 23  1  0  0  0  0
  1 24  1  0  0  0  0
  1 25  1  0  0  0  0
  2 21  1  0  0  0  0
  2  3  2  0  0  0  0
  3  4  1  0  0  0  0
  3 26  1  0  0  0  0
  4 19  2  0  0  0  0
  4  5  1  0  0  0  0
  5  6  2  0  0  0  0
  5 48  1  0  0  0  0
  6  7  1  0  0  0  0
  6 27  1  0  0  0  0
  7  8  1  0  0  0  0
  7 19  1  0  0  0  0
  8  9  1  0  0  0  0
  8 28  1  0  0  0  0
  8 29  1  0  0  0  0
  9 10  1  0  0  0  0
  9 11  1  0  0  0  0
  9 30  1  0  0  0  0
 10 31  1  0  0  0  0
 11 12  1  0  0  0  0
 11 32  1  0  0  0  0
 11 33  1  0  0  0  0
 12 18  1  0  0  0  0
 12 13  1  0  0  0  0
 13 14  1  0  0  0  0
 13 34  1  0  0  0  0
 13 35  1  0  0  0  0
 14 15  1  0  0  0  0
 14 36  1  0  0  0  0
 14 37  1  0  0  0  0
 15 16  1  0  0  0  0
 16 17  1  0  0  0  0
 16 18  1  0  0  0  0
 16 38  1  0  0  0  0
 17 39  1  0  0  0  0
 17 40  1  0  0  0  0
 17 41  1  0  0  0  0
 18 42  1  0  0  0  0
 18 43  1  0  0  0  0
 19 20  1  0  0  0  0
 20 21  2  0  0  0  0
 20 44  1  0  0  0  0
 21 22  1  0  0  0  0
 22 45  1  0  0  0  0
 22 46  1  0  0  0  0
 22 47  1  0  0  0  0
M  CHG  1   5   1
M  END
> <s_m_source_file>
AV-unprocessed.smi

> <i_m_source_file_index>
1554

> <i_lp_mmshare_version>
43012

> <i_f3d_flags>
0

> <s_epik_input>
W0NIM11jKFtjSF0xKWMoW0NIM10pW2NIXWMoYzEyKW4oW2NIXW4yKVtDSDJdW0NASF0oW09IXSlbQ0gyXU4zW0NIMl1bQ0gyXU9bQ0BASF0oW0NIM10pW0NIMl0z

> <s_epik_cmdline>
J2VwaWtfcHl0aG9uJywgJy1waCcsICc3LjAnLCAnLXRuJywgJzgnLCAnLW1hJywgJzIwMCcsICctbWV0YWxfYmluZGluZycsICctaW1hZScsICc8aW5maWxlLm1hZT4nLCAnLW9tYWUnLCAnPG91dGZpbGUubWFlPic=

> <r_epik_Ionization_Penalty>
1.42504

> <r_epik_Ionization_Penalty_Charging>
1.21068

> <r_epik_Ionization_Penalty_Neutral>
0.214359

> <r_epik_State_Penalty>
1.46962

> <r_epik_Charging_Adjusted_Penalty>
2.6803

> <i_epik_Tot_Q>
1

> <i_epik_Tot_abs_Q>
1

> <r_epik_Metal_State_Penalty>
5.48754

> <b_epik_Metal_Only>
0

> <s_lp_Force_Field>
OPLS_2005

> <r_lp_Energy>
36.3239

> <b_lp_Chiralities_Consistent>
1

> <s_lp_Variant>
AV-unprocessed.smi:1554-14

> <Gold.Version>
5.8.1

> <Gold.Id.Protein>
6NUR|6NUR_protein|mol2

> <Gold.PLP.Fitness>
51.6679

> <Gold.PLP.PLP>
-41.1016

> <Gold.PLP.part.hbond>
-4.0000

> <Gold.PLP.part.metal>
0.0000

> <Gold.PLP.part.buried>
-2.8170

> <Gold.PLP.part.nonpolar>
-34.7032

> <Gold.PLP.part.repulsive>
0.1995

> <Gold.PLP.ligand.clash>
0.0000

> <Gold.PLP.ligand.torsion>
0.8977

> <Gold.PLP.Chemscore.Hbond>
4.1080

> <Gold.PLP.Chemscore.CHOScore>
0.0000

> <Gold.PLP.Chemscore.Metal>
0.0000

> <Gold.Chemscore.Hbonds>
donor molecule, donor type, donor heavy atom, donor atom, acceptor molecule, acceptor atom, score
      L1  H     5    48       P1  8028  1.98
      L1  H    10    31       P1  7957  0.20
      P1  H  6896  6909       L1    15  1.00
      P1  H  7989  7998       L1    10  0.91

> <Gold.PLP.Chemscore.Internal.Correction>
0.0377

> <Gold.Rescore>
     Score         DG    S(hbond)    S(metal)    S(lipo)     H(rot)  DE(clash)    DE(int)     intcor
     21.53     -22.77       2.80        0.00     112.40       2.04       0.28       0.96       ----

> <Gold.Chemscore.Fitness>
21.5291

> <Gold.Chemscore.DG>
-22.7681

> <Gold.Chemscore.ZeroCoef>
-5.4800

> <Gold.Chemscore.Hbond>
2.8046

> <Gold.Chemscore.Metal>
0.0000

> <Gold.Chemscore.Lipo>
112.3961

> <Gold.Chemscore.Internal_Hbond>
0.0000

> <Gold.Chemscore.DEClash>
0.2802

> <Gold.Chemscore.DEInternal>
0.9589

> <Gold.Chemscore.Rot>
2.0427

> <Gold.Chemscore.Internal.Correction>
   9.000000E+99

> <Gold.Chemscore.Hbonds>
donor molecule, donor type, donor heavy atom, donor atom, acceptor molecule, acceptor atom, score
      L1  H     5    48       P1  8028  0.92
      L1  H    10    31       P1  7957  0.20
      P1  H  6896  6909       L1    15  0.92
      P1  H  7989  7998       L1    10  0.59

> <Gold.Chemscore.Hbond.Weighted>
-9.3672

> <Gold.Chemscore.Metal.Weighted>
-0.0000

> <Gold.Chemscore.Lipo.Weighted>
-13.1503

> <Gold.Chemscore.Internal_Hbond.Weighted>
0.0000

> <Gold.Chemscore.DEClash.Weighted>
0.2802

> <Gold.Chemscore.DEInternal.Weighted>
0.9589

> <Gold.Chemscore.Rot.Weighted>
5.2294

> <Gold.Chemscore.Internal.Correction.Weighted>
   9.000000E+99

> <Gold.Protein.RotatedTorsions>
[ 6907 6896 6895 6894 ] final    7.50 input  -60.11 | X-H torsion
[ 7974 7965 7964 7962 ] final -148.58 input  175.53 | X-H torsion
[ 8008 7997 7996 7995 ] final -169.26 input   59.86 | X-H torsion
[ 10167 10162 10161 10158 ] final  106.45 input  -65.29 | X-H torsion
[ 10718 10713 10712 10709 ] final  153.98 input   66.30 | X-H torsion
[ 10763 10752 10751 10750 ] final -137.21 input  -60.55 | X-H torsion
[ 11005 11000 10999 10996 ] final -167.38 input  -57.11 | X-H torsion

> <Gold.Protein.ActiveResidues>
 VAL166  LYS551  ARG553  GLY616  TRP617  ASP618  TYR619  PRO620  LYS621  CYS622 
 ASP623  PHE694  ASN695  SER759  ASP760  ASP761  ALA762  ILE779  LEU786  VAL792 
 PHE793  MET794  SER795  GLU796  ALA797  LYS798  CYS799  TRP800  GLU811  SER814 

> <Gold.Protein.RotatedAtoms>
  151.6909  135.0946  160.0233 H   0  0  0  0  0  0  0  0  0  0  0  0  # atno 6907 bound_to 6896
  152.3779  133.6502  159.6146 H   0  0  0  0  0  0  0  0  0  0  0  0  # atno 6908 bound_to 6896
  150.7724  133.9079  159.3402 H   0  0  0  0  0  0  0  0  0  0  0  0  # atno 6909 bound_to 6896
  144.8020  140.5177  143.5700 H   0  0  0  0  0  0  0  0  0  0  0  0  # atno 7974 bound_to 7965
  155.9026  140.1043  157.1338 H   0  0  0  0  0  0  0  0  0  0  0  0  # atno 8008 bound_to 7997
  154.4028  140.1289  156.4520 H   0  0  0  0  0  0  0  0  0  0  0  0  # atno 8009 bound_to 7997
  155.7405  140.3467  155.5104 H   0  0  0  0  0  0  0  0  0  0  0  0  # atno 8010 bound_to 7997
  139.7008  144.7094  151.1189 H   0  0  0  0  0  0  0  0  0  0  0  0  # atno 10167 bound_to 10162
  157.2376  131.0752  151.1813 H   0  0  0  0  0  0  0  0  0  0  0  0  # atno 10718 bound_to 10713
  154.8667  135.3649  154.5186 H   0  0  0  0  0  0  0  0  0  0  0  0  # atno 10763 bound_to 10752
  153.5817  135.7018  153.5465 H   0  0  0  0  0  0  0  0  0  0  0  0  # atno 10764 bound_to 10752
  153.3451  135.4087  155.1565 H   0  0  0  0  0  0  0  0  0  0  0  0  # atno 10765 bound_to 10752
  140.5539  134.5401  157.5128 H   0  0  0  0  0  0  0  0  0  0  0  0  # atno 11005 bound_to 11000
  145.5529  139.1477  143.3384 LP  0  0  0  0  0  0  0  0  0  0  0  0  # atno 17320 bound_to 7965
  146.2304  140.5667  142.8978 LP  0  0  0  0  0  0  0  0  0  0  0  0  # atno 17321 bound_to 7965
  140.7709  143.5427  150.9294 LP  0  0  0  0  0  0  0  0  0  0  0  0  # atno 17342 bound_to 10162
  139.9108  143.6722  152.3115 LP  0  0  0  0  0  0  0  0  0  0  0  0  # atno 17343 bound_to 10162
  157.3412  130.7034  149.6383 LP  0  0  0  0  0  0  0  0  0  0  0  0  # atno 17370 bound_to 10713
  155.9672  130.4279  150.4765 LP  0  0  0  0  0  0  0  0  0  0  0  0  # atno 17371 bound_to 10713
  139.9441  134.7733  156.0605 LP  0  0  0  0  0  0  0  0  0  0  0  0  # atno 17394 bound_to 11000
  141.1155  133.6629  156.3083 LP  0  0  0  0  0  0  0  0  0  0  0  0  # atno 17395 bound_to 11000

$$$$
