AV-unprocessed.smi:1802|AV-procd|sdf|7278|dock1
  -GOLD-   22720 8543D 1   1.00000     0.00000
 Structure written by MMmdl.
 40 41  0  0  0  0  0  0  0  0  3 V2000
  145.8404  132.1970  149.6702 C   0  0  0  0  0  0  0  0  0  0  0  0
  146.2170  133.3930  150.5561 C   0  0  1  0  0  0  0  0  0  0  0  0
  144.9833  134.2403  150.9098 C   0  0  0  0  0  0  0  0  0  0  0  0
  145.3860  135.4107  151.8153 C   0  0  0  0  0  0  0  0  0  0  0  0
  146.1253  134.9090  153.0657 C   0  0  0  0  0  0  0  0  0  0  0  0
  147.3134  134.0975  152.6957 N   0  3  1  0  0  0  0  0  0  0  0  0
  148.1207  133.7121  153.8804 C   0  0  0  0  0  0  0  0  0  0  0  0
  148.4554  134.9153  154.7772 C   0  0  0  0  0  0  0  0  0  0  0  0
  149.2536  134.5062  156.0212 C   0  0  0  0  0  0  0  0  0  0  0  0
  148.3602  134.2925  157.1515 N   0  0  0  0  0  0  0  0  0  0  0  0
  148.3858  134.9841  158.2982 C   0  0  0  0  0  0  0  0  0  0  0  0
  149.2224  135.8756  158.4591 O   0  0  0  0  0  0  0  0  0  0  0  0
  147.4404  134.5995  159.1852 N   0  5  0  0  0  0  0  0  0  0  0  0
  147.2024  135.3431  160.2783 C   0  0  0  0  0  0  0  0  0  0  0  0
  147.1795  136.6851  160.2410 N   0  0  0  0  0  0  0  0  0  0  0  0
  146.9109  137.2614  161.4751 N   0  0  0  0  0  0  0  0  0  0  0  0
  146.7290  136.3339  162.4149 C   0  0  0  0  0  0  0  0  0  0  0  0
  146.8673  134.6732  161.8775 S   0  0  0  0  0  0  0  0  0  0  0  0
  146.9386  132.9384  151.8409 C   0  0  0  0  0  0  0  0  0  0  0  0
  145.1508  131.5251  150.1822 H   0  0  0  0  0  0  0  0  0  0  0  0
  146.7227  131.6198  149.3925 H   0  0  0  0  0  0  0  0  0  0  0  0
  145.3602  132.5268  148.7483 H   0  0  0  0  0  0  0  0  0  0  0  0
  146.9054  134.0194  149.9864 H   0  0  0  0  0  0  0  0  0  0  0  0
  144.5101  134.6187  150.0028 H   0  0  0  0  0  0  0  0  0  0  0  0
  144.2394  133.6236  151.4165 H   0  0  0  0  0  0  0  0  0  0  0  0
  146.0260  136.0994  151.2622 H   0  0  0  0  0  0  0  0  0  0  0  0
  144.5015  135.9777  152.1070 H   0  0  0  0  0  0  0  0  0  0  0  0
  146.4348  135.7672  153.6636 H   0  0  0  0  0  0  0  0  0  0  0  0
  145.4550  134.3134  153.6876 H   0  0  0  0  0  0  0  0  0  0  0  0
  147.5588  132.9950  154.4807 H   0  0  0  0  0  0  0  0  0  0  0  0
  149.0293  133.1992  153.5612 H   0  0  0  0  0  0  0  0  0  0  0  0
  149.0308  135.6559  154.2223 H   0  0  0  0  0  0  0  0  0  0  0  0
  147.5316  135.4074  155.0849 H   0  0  0  0  0  0  0  0  0  0  0  0
  149.8135  133.5895  155.8311 H   0  0  0  0  0  0  0  0  0  0  0  0
  149.9782  135.2841  156.2673 H   0  0  0  0  0  0  0  0  0  0  0  0
  147.6620  133.5691  157.0598 H   0  0  0  0  0  0  0  0  0  0  0  0
  146.5107  136.6292  163.4302 H   0  0  0  0  0  0  0  0  0  0  0  0
  146.3023  132.2591  152.4106 H   0  0  0  0  0  0  0  0  0  0  0  0
  147.8288  132.3746  151.5641 H   0  0  0  0  0  0  0  0  0  0  0  0
  147.9003  134.7000  152.1362 H   0  0  0  0  0  0  0  0  0  0  0  0
  1  2  1  0  0  0  0
  1 20  1  0  0  0  0
  1 21  1  0  0  0  0
  1 22  1  0  0  0  0
  2 19  1  0  0  0  0
  2  3  1  0  0  0  0
  2 23  1  0  0  0  0
  3  4  1  0  0  0  0
  3 24  1  0  0  0  0
  3 25  1  0  0  0  0
  4  5  1  0  0  0  0
  4 26  1  0  0  0  0
  4 27  1  0  0  0  0
  5  6  1  0  0  0  0
  5 28  1  0  0  0  0
  5 29  1  0  0  0  0
  6  7  1  0  0  0  0
  6 19  1  0  0  0  0
  6 40  1  0  0  0  0
  7  8  1  0  0  0  0
  7 30  1  0  0  0  0
  7 31  1  0  0  0  0
  8  9  1  0  0  0  0
  8 32  1  0  0  0  0
  8 33  1  0  0  0  0
  9 10  1  0  0  0  0
  9 34  1  0  0  0  0
  9 35  1  0  0  0  0
 10 11  1  0  0  0  0
 10 36  1  0  0  0  0
 11 12  2  0  0  0  0
 11 13  1  0  0  0  0
 13 14  1  0  0  0  0
 14 18  1  0  0  0  0
 14 15  2  0  0  0  0
 15 16  1  0  0  0  0
 16 17  2  0  0  0  0
 17 18  1  0  0  0  0
 17 37  1  0  0  0  0
 19 38  1  0  0  0  0
 19 39  1  0  0  0  0
M  CHG  1   6   1
M  CHG  1  13  -1
M  END
> <s_m_source_file>
AV-unprocessed.smi

> <i_m_source_file_index>
1802

> <i_lp_mmshare_version>
43012

> <i_f3d_flags>
0

> <s_epik_input>
W0NIM11bQ0BASF0xW0NIMl1bQ0gyXVtDSDJdTihbQ0gyXTEpW0NIMl1bQ0gyXVtDSDJdW05IXUMoPU8pW05IXWMybm5bY0hdczI=

> <s_epik_cmdline>
J2VwaWtfcHl0aG9uJywgJy1waCcsICc3LjAnLCAnLXRuJywgJzgnLCAnLW1hJywgJzIwMCcsICctbWV0YWxfYmluZGluZycsICctaW1hZScsICc8aW5maWxlLm1hZT4nLCAnLW9tYWUnLCAnPG91dGZpbGUubWFlPic=

> <r_lp_tautomer_probability>
1

> <r_epik_Ionization_Penalty>
3.29702

> <r_epik_Ionization_Penalty_Charging>
3.26059

> <r_epik_Ionization_Penalty_Neutral>
0.0364294

> <r_epik_State_Penalty>
3.25788

> <r_epik_Charging_Adjusted_Penalty>
6.51847

> <i_epik_Tot_Q>
0

> <i_epik_Tot_abs_Q>
2

> <r_epik_Metal_State_Penalty>
0.477639

> <b_epik_Metal_Only>
1

> <s_lp_Force_Field>
OPLS_2005

> <r_lp_Energy>
10.4103

> <b_lp_Chiralities_Consistent>
1

> <s_lp_Variant>
AV-unprocessed.smi:1802-8

> <Gold.Version>
5.8.1

> <Gold.Id.Protein>
6NUR|6NUR_protein|mol2

> <Gold.PLP.Fitness>
45.9035

> <Gold.PLP.PLP>
-32.3559

> <Gold.PLP.part.hbond>
-4.0000

> <Gold.PLP.part.metal>
0.0000

> <Gold.PLP.part.buried>
-3.6089

> <Gold.PLP.part.nonpolar>
-25.1886

> <Gold.PLP.part.repulsive>
0.0534

> <Gold.PLP.ligand.clash>
0.0000

> <Gold.PLP.ligand.torsion>
0.5940

> <Gold.PLP.Chemscore.Hbond>
4.8560

> <Gold.PLP.Chemscore.CHOScore>
0.0000

> <Gold.PLP.Chemscore.Metal>
0.0000

> <Gold.Chemscore.Hbonds>
donor molecule, donor type, donor heavy atom, donor atom, acceptor molecule, acceptor atom, score
      L1  H     6    40       P1  7948  2.00
      P1  H  6896  6909       L1    12  0.48
      P1  H  6931  6943       L1    16  0.11
      P1  H  6934  6947       L1    16  0.85

> <Gold.PLP.Chemscore.Internal.Correction>
0.1675

> <Gold.Rescore>
     Score         DG    S(hbond)    S(metal)    S(lipo)     H(rot)  DE(clash)    DE(int)     intcor
     16.24     -18.24       3.14        0.00      61.68       1.94       0.05       1.94       ----

> <Gold.Chemscore.Fitness>
16.2417

> <Gold.Chemscore.DG>
-18.2382

> <Gold.Chemscore.ZeroCoef>
-5.4800

> <Gold.Chemscore.Hbond>
3.1448

> <Gold.Chemscore.Metal>
0.0000

> <Gold.Chemscore.Lipo>
61.6803

> <Gold.Chemscore.Internal_Hbond>
0.0000

> <Gold.Chemscore.DEClash>
0.0532

> <Gold.Chemscore.DEInternal>
1.9432

> <Gold.Chemscore.Rot>
1.9383

> <Gold.Chemscore.Internal.Correction>
   9.000000E+99

> <Gold.Chemscore.Hbonds>
donor molecule, donor type, donor heavy atom, donor atom, acceptor molecule, acceptor atom, score
      L1  H     6    40       P1  7948  0.44
      P1  H  6896  6909       L1    12  0.11
      P1  H  6931  6943       L1    16  0.02
      P1  H  6934  6947       L1    16  0.14

> <Gold.Chemscore.Hbond.Weighted>
-10.5036

> <Gold.Chemscore.Metal.Weighted>
-0.0000

> <Gold.Chemscore.Lipo.Weighted>
-7.2166

> <Gold.Chemscore.Internal_Hbond.Weighted>
0.0000

> <Gold.Chemscore.DEClash.Weighted>
0.0532

> <Gold.Chemscore.DEInternal.Weighted>
1.9432

> <Gold.Chemscore.Rot.Weighted>
4.9620

> <Gold.Chemscore.Internal.Correction.Weighted>
   9.000000E+99

> <Gold.Protein.RotatedTorsions>
[ 6907 6896 6895 6894 ] final   61.20 input  -60.11 | X-H torsion
[ 7974 7965 7964 7962 ] final  127.85 input  175.53 | X-H torsion
[ 8008 7997 7996 7995 ] final  118.13 input   59.86 | X-H torsion
[ 10167 10162 10161 10158 ] final -102.73 input  -65.29 | X-H torsion
[ 10718 10713 10712 10709 ] final  -12.70 input   66.30 | X-H torsion
[ 10763 10752 10751 10750 ] final   20.95 input  -60.55 | X-H torsion
[ 11005 11000 10999 10996 ] final   26.01 input  -57.11 | X-H torsion

> <Gold.Protein.ActiveResidues>
 VAL166  LYS551  ARG553  GLY616  TRP617  ASP618  TYR619  PRO620  LYS621  CYS622 
 ASP623  PHE694  ASN695  SER759  ASP760  ASP761  ALA762  ILE779  LEU786  VAL792 
 PHE793  MET794  SER795  GLU796  ALA797  LYS798  CYS799  TRP800  GLU811  SER814 

> <Gold.Protein.RotatedAtoms>
  152.4068  134.6193  160.0046 H   0  0  0  0  0  0  0  0  0  0  0  0  # atno 6907 bound_to 6896
  151.6381  133.3322  159.3132 H   0  0  0  0  0  0  0  0  0  0  0  0  # atno 6908 bound_to 6896
  150.7962  134.7065  159.6624 H   0  0  0  0  0  0  0  0  0  0  0  0  # atno 6909 bound_to 6896
  145.0460  139.3923  143.5078 H   0  0  0  0  0  0  0  0  0  0  0  0  # atno 7974 bound_to 7965
  156.2530  140.2881  156.0787 H   0  0  0  0  0  0  0  0  0  0  0  0  # atno 8008 bound_to 7997
  155.1591  140.0399  157.2856 H   0  0  0  0  0  0  0  0  0  0  0  0  # atno 8009 bound_to 7997
  154.6406  140.2521  155.7333 H   0  0  0  0  0  0  0  0  0  0  0  0  # atno 8010 bound_to 7997
  140.2275  143.3631  152.0916 H   0  0  0  0  0  0  0  0  0  0  0  0  # atno 10167 bound_to 10162
  156.6409  130.4927  149.6095 H   0  0  0  0  0  0  0  0  0  0  0  0  # atno 10718 bound_to 10713
  153.1035  135.6679  153.9629 H   0  0  0  0  0  0  0  0  0  0  0  0  # atno 10763 bound_to 10752
  153.9192  135.3016  155.3449 H   0  0  0  0  0  0  0  0  0  0  0  0  # atno 10764 bound_to 10752
  154.7456  135.5059  153.9274 H   0  0  0  0  0  0  0  0  0  0  0  0  # atno 10765 bound_to 10752
  140.3417  134.2326  155.7689 H   0  0  0  0  0  0  0  0  0  0  0  0  # atno 11005 bound_to 11000
  146.3514  140.0085  142.8669 LP  0  0  0  0  0  0  0  0  0  0  0  0  # atno 17320 bound_to 7965
  145.1588  140.9662  143.4389 LP  0  0  0  0  0  0  0  0  0  0  0  0  # atno 17321 bound_to 7965
  139.5122  144.6912  151.5753 LP  0  0  0  0  0  0  0  0  0  0  0  0  # atno 17342 bound_to 10162
  140.6210  143.9259  150.6526 LP  0  0  0  0  0  0  0  0  0  0  0  0  # atno 17343 bound_to 10162
  156.2160  130.6708  151.1319 LP  0  0  0  0  0  0  0  0  0  0  0  0  # atno 17370 bound_to 10713
  157.7171  131.0703  150.6283 LP  0  0  0  0  0  0  0  0  0  0  0  0  # atno 17371 bound_to 10713
  141.2037  133.7906  157.0328 LP  0  0  0  0  0  0  0  0  0  0  0  0  # atno 17394 bound_to 11000
  140.0776  134.9667  157.1571 LP  0  0  0  0  0  0  0  0  0  0  0  0  # atno 17395 bound_to 11000

$$$$
