AV-unprocessed.smi:1413|AV-procd|sdf|5759|dock2
  -GOLD-   22720 5393D 1   1.00000     0.00000
 Structure written by MMmdl.
 53 55  0  0  0  0  0  0  0  0  1 V2000
  151.9273  144.4027  157.4223 C   0  0  0  0  0  0  0  0  0  0  0  0
  151.1062  143.6030  158.4497 C   0  0  1  0  0  0  0  0  0  0  0  0
  150.1762  142.5542  157.8080 C   0  0  0  0  0  0  0  0  0  0  0  0
  150.9335  141.3936  157.3488 N   0  0  0  0  0  0  0  0  0  0  0  0
  150.2363  140.5150  156.4930 C   0  0  0  0  0  0  0  0  0  0  0  0
  149.1068  139.8107  156.9706 C   0  0  0  0  0  0  0  0  0  0  0  0
  148.4251  138.9378  156.1020 C   0  0  0  0  0  0  0  0  0  0  0  0
  148.8882  138.7795  154.7817 C   0  0  0  0  0  0  0  0  0  0  0  0
  148.1691  137.9082  153.9201 N   0  0  0  0  0  0  0  0  0  0  0  0
  146.8846  137.5230  154.0052 C   0  0  0  0  0  0  0  0  0  0  0  0
  146.0814  137.9106  154.8534 O   0  0  0  0  0  0  0  0  0  0  0  0
  146.5746  136.6629  153.0244 N   0  0  0  0  0  0  0  0  0  0  0  0
  145.2631  136.0593  152.7935 C   0  0  1  0  0  0  0  0  0  0  0  0
  144.2260  137.1811  152.6385 C   0  0  0  0  0  0  0  0  0  0  0  0
  145.2992  135.1410  151.5545 C   0  0  1  0  0  0  0  0  0  0  0  0
  146.3059  133.9923  151.6237 C   0  0  0  0  0  0  0  0  0  0  0  0
  145.7480  132.9797  150.6380 C   0  0  0  0  0  0  0  0  0  0  0  0
  144.2779  133.3819  150.4853 C   0  0  0  0  0  0  0  0  0  0  0  0
  144.0734  134.4401  151.4125 O   0  0  0  0  0  0  0  0  0  0  0  0
  150.0162  139.5370  154.3871 C   0  0  0  0  0  0  0  0  0  0  0  0
  150.6704  140.3778  155.2161 N   0  0  0  0  0  0  0  0  0  0  0  0
  151.7817  140.8145  158.3864 C   0  0  0  0  0  0  0  0  0  0  0  0
  152.7098  141.8889  158.9805 C   0  0  2  0  0  0  0  0  0  0  0  0
  153.5230  141.3509  160.1626 C   0  0  0  0  0  0  0  0  0  0  0  0
  151.9311  142.9914  159.4443 O   0  0  0  0  0  0  0  0  0  0  0  0
  151.2707  144.9617  156.7556 H   0  0  0  0  0  0  0  0  0  0  0  0
  152.5489  143.7610  156.7984 H   0  0  0  0  0  0  0  0  0  0  0  0
  152.5794  145.1207  157.9198 H   0  0  0  0  0  0  0  0  0  0  0  0
  150.4785  144.3218  158.9772 H   0  0  0  0  0  0  0  0  0  0  0  0
  149.4487  142.2133  158.5457 H   0  0  0  0  0  0  0  0  0  0  0  0
  149.6079  143.0171  157.0020 H   0  0  0  0  0  0  0  0  0  0  0  0
  148.7503  139.9423  157.9813 H   0  0  0  0  0  0  0  0  0  0  0  0
  147.5573  138.3969  156.4503 H   0  0  0  0  0  0  0  0  0  0  0  0
  148.6803  137.5754  153.1159 H   0  0  0  0  0  0  0  0  0  0  0  0
  147.3052  136.4070  152.3766 H   0  0  0  0  0  0  0  0  0  0  0  0
  144.9732  135.4618  153.6598 H   0  0  0  0  0  0  0  0  0  0  0  0
  143.2239  136.7753  152.4978 H   0  0  0  0  0  0  0  0  0  0  0  0
  144.4507  137.8149  151.7799 H   0  0  0  0  0  0  0  0  0  0  0  0
  144.1997  137.8161  153.5246 H   0  0  0  0  0  0  0  0  0  0  0  0
  145.4738  135.7293  150.6512 H   0  0  0  0  0  0  0  0  0  0  0  0
  147.3233  134.3023  151.3835 H   0  0  0  0  0  0  0  0  0  0  0  0
  146.3130  133.5597  152.6254 H   0  0  0  0  0  0  0  0  0  0  0  0
  146.2593  133.0457  149.6770 H   0  0  0  0  0  0  0  0  0  0  0  0
  145.8597  131.9606  151.0094 H   0  0  0  0  0  0  0  0  0  0  0  0
  144.0827  133.7441  149.4752 H   0  0  0  0  0  0  0  0  0  0  0  0
  143.5962  132.5556  150.6875 H   0  0  0  0  0  0  0  0  0  0  0  0
  150.4064  139.5007  153.3821 H   0  0  0  0  0  0  0  0  0  0  0  0
  151.1511  140.3856  159.1666 H   0  0  0  0  0  0  0  0  0  0  0  0
  152.3846  140.0056  157.9718 H   0  0  0  0  0  0  0  0  0  0  0  0
  153.4098  142.2294  158.2174 H   0  0  0  0  0  0  0  0  0  0  0  0
  154.1449  140.5083  159.8597 H   0  0  0  0  0  0  0  0  0  0  0  0
  152.8717  141.0131  160.9691 H   0  0  0  0  0  0  0  0  0  0  0  0
  154.1807  142.1214  160.5658 H   0  0  0  0  0  0  0  0  0  0  0  0
  1  2  1  0  0  0  0
  1 26  1  0  0  0  0
  1 27  1  0  0  0  0
  1 28  1  0  0  0  0
  2 25  1  0  0  0  0
  2  3  1  0  0  0  0
  2 29  1  0  0  0  0
  3  4  1  0  0  0  0
  3 30  1  0  0  0  0
  3 31  1  0  0  0  0
  4  5  1  0  0  0  0
  4 22  1  0  0  0  0
  5 21  1  0  0  0  0
  5  6  2  0  0  0  0
  6  7  1  0  0  0  0
  6 32  1  0  0  0  0
  7  8  2  0  0  0  0
  7 33  1  0  0  0  0
  8  9  1  0  0  0  0
  8 20  1  0  0  0  0
  9 10  1  0  0  0  0
  9 34  1  0  0  0  0
 10 11  2  0  0  0  0
 10 12  1  0  0  0  0
 12 13  1  0  0  0  0
 12 35  1  0  0  0  0
 13 14  1  0  0  0  0
 13 15  1  0  0  0  0
 13 36  1  0  0  0  0
 14 37  1  0  0  0  0
 14 38  1  0  0  0  0
 14 39  1  0  0  0  0
 15 19  1  0  0  0  0
 15 16  1  0  0  0  0
 15 40  1  0  0  0  0
 16 17  1  0  0  0  0
 16 41  1  0  0  0  0
 16 42  1  0  0  0  0
 17 18  1  0  0  0  0
 17 43  1  0  0  0  0
 17 44  1  0  0  0  0
 18 19  1  0  0  0  0
 18 45  1  0  0  0  0
 18 46  1  0  0  0  0
 20 21  2  0  0  0  0
 20 47  1  0  0  0  0
 22 23  1  0  0  0  0
 22 48  1  0  0  0  0
 22 49  1  0  0  0  0
 23 24  1  0  0  0  0
 23 25  1  0  0  0  0
 23 50  1  0  0  0  0
 24 51  1  0  0  0  0
 24 52  1  0  0  0  0
 24 53  1  0  0  0  0
M  END
> <s_m_source_file>
AV-unprocessed.smi

> <i_m_source_file_index>
1413

> <i_lp_mmshare_version>
43012

> <i_f3d_flags>
0

> <s_epik_input>
W0NIM11bQ0BASF0xW0NIMl1OKFtDSDJdW0NASF0oTzEpW0NIM10pYzJbY0hdW2NIXWMoW2NIXW4yKVtOSF1DKD1PKVtOSF1bQ0BIXShbQ0gzXSlbQ0BASF0zW0NIMl1bQ0gyXVtDSDJdTzM=

> <s_epik_cmdline>
J2VwaWtfcHl0aG9uJywgJy1waCcsICc3LjAnLCAnLXRuJywgJzgnLCAnLW1hJywgJzIwMCcsICctbWV0YWxfYmluZGluZycsICctaW1hZScsICc8aW5maWxlLm1hZT4nLCAnLW9tYWUnLCAnPG91dGZpbGUubWFlPic=

> <r_lp_tautomer_probability>
1

> <r_epik_Ionization_Penalty>
0.00271172

> <r_epik_Ionization_Penalty_Charging>
0

> <r_epik_Ionization_Penalty_Neutral>
0.00271172

> <r_epik_State_Penalty>
0.00186503

> <r_epik_Charging_Adjusted_Penalty>
0.00186503

> <i_epik_Tot_Q>
0

> <i_epik_Tot_abs_Q>
0

> <r_epik_Metal_State_Penalty>
-0

> <b_epik_Metal_Only>
0

> <s_lp_Force_Field>
OPLS_2005

> <r_lp_Energy>
37.0854

> <b_lp_Chiralities_Consistent>
1

> <s_lp_Variant>
AV-unprocessed.smi:1413-12

> <Gold.Version>
5.8.1

> <Gold.Id.Protein>
6NUR|6NUR_protein|mol2

> <Gold.PLP.Fitness>
48.1017

> <Gold.PLP.PLP>
-38.9965

> <Gold.PLP.part.hbond>
-3.0000

> <Gold.PLP.part.metal>
0.0000

> <Gold.PLP.part.buried>
-6.9257

> <Gold.PLP.part.nonpolar>
-30.0066

> <Gold.PLP.part.repulsive>
0.3246

> <Gold.PLP.ligand.clash>
0.0000

> <Gold.PLP.ligand.torsion>
0.3422

> <Gold.PLP.Chemscore.Hbond>
2.1463

> <Gold.PLP.Chemscore.CHOScore>
1.0000

> <Gold.PLP.Chemscore.Metal>
0.0000

> <Gold.Chemscore.Hbonds>
donor molecule, donor type, donor heavy atom, donor atom, acceptor molecule, acceptor atom, score
      L1  H     9    34       P1  7948  0.99
      L1  H    12    35       P1  7948  1.00
      P1  H  7989  7998       L1    21  0.10
      L1  C    20    47       P1  7957  1.00

> <Gold.PLP.Chemscore.Internal.Correction>
0.3509

> <Gold.Rescore>
     Score         DG    S(hbond)    S(metal)    S(lipo)     H(rot)  DE(clash)    DE(int)     intcor
     18.85     -20.52       1.94        0.00     102.75       1.35       0.03       1.65       ----

> <Gold.Chemscore.Fitness>
18.8452

> <Gold.Chemscore.DG>
-20.5219

> <Gold.Chemscore.ZeroCoef>
-5.4800

> <Gold.Chemscore.Hbond>
1.9368

> <Gold.Chemscore.Metal>
0.0000

> <Gold.Chemscore.Lipo>
102.7465

> <Gold.Chemscore.Internal_Hbond>
0.0000

> <Gold.Chemscore.DEClash>
0.0253

> <Gold.Chemscore.DEInternal>
1.6514

> <Gold.Chemscore.Rot>
1.3471

> <Gold.Chemscore.Internal.Correction>
   9.000000E+99

> <Gold.Chemscore.Hbonds>
donor molecule, donor type, donor heavy atom, donor atom, acceptor molecule, acceptor atom, score
      L1  H     9    34       P1  7948  0.94
      L1  H    12    35       P1  7948  0.99

> <Gold.Chemscore.Hbond.Weighted>
-6.4691

> <Gold.Chemscore.Metal.Weighted>
-0.0000

> <Gold.Chemscore.Lipo.Weighted>
-12.0213

> <Gold.Chemscore.Internal_Hbond.Weighted>
0.0000

> <Gold.Chemscore.DEClash.Weighted>
0.0253

> <Gold.Chemscore.DEInternal.Weighted>
1.6514

> <Gold.Chemscore.Rot.Weighted>
3.4485

> <Gold.Chemscore.Internal.Correction.Weighted>
   9.000000E+99

> <Gold.Protein.RotatedTorsions>
[ 6907 6896 6895 6894 ] final -100.91 input  -60.11 | X-H torsion
[ 7974 7965 7964 7962 ] final   40.08 input  175.53 | X-H torsion
[ 8008 7997 7996 7995 ] final  -55.19 input   59.86 | X-H torsion
[ 10167 10162 10161 10158 ] final  137.73 input  -65.29 | X-H torsion
[ 10718 10713 10712 10709 ] final  102.48 input   66.30 | X-H torsion
[ 10763 10752 10751 10750 ] final  -55.99 input  -60.55 | X-H torsion
[ 11005 11000 10999 10996 ] final   33.27 input  -57.11 | X-H torsion

> <Gold.Protein.ActiveResidues>
 VAL166  LYS551  ARG553  GLY616  TRP617  ASP618  TYR619  PRO620  LYS621  CYS622 
 ASP623  PHE694  ASN695  SER759  ASP760  ASP761  ALA762  ILE779  LEU786  VAL792 
 PHE793  MET794  SER795  GLU796  ALA797  LYS798  CYS799  TRP800  GLU811  SER814 

> <Gold.Protein.RotatedAtoms>
  150.7134  134.0814  159.3899 H   0  0  0  0  0  0  0  0  0  0  0  0  # atno 6907 bound_to 6896
  151.8799  135.0455  160.0497 H   0  0  0  0  0  0  0  0  0  0  0  0  # atno 6908 bound_to 6896
  152.2576  133.5234  159.5399 H   0  0  0  0  0  0  0  0  0  0  0  0  # atno 6909 bound_to 6896
  146.0933  139.5575  142.9461 H   0  0  0  0  0  0  0  0  0  0  0  0  # atno 7974 bound_to 7965
  154.4187  140.1158  156.5437 H   0  0  0  0  0  0  0  0  0  0  0  0  # atno 8008 bound_to 7997
  155.6482  140.3496  155.4719 H   0  0  0  0  0  0  0  0  0  0  0  0  # atno 8009 bound_to 7997
  155.9815  140.1161  157.0712 H   0  0  0  0  0  0  0  0  0  0  0  0  # atno 8010 bound_to 7997
  139.5134  144.6393  151.5611 H   0  0  0  0  0  0  0  0  0  0  0  0  # atno 10167 bound_to 10162
  157.6801  131.0754  150.5410 H   0  0  0  0  0  0  0  0  0  0  0  0  # atno 10718 bound_to 10713
  154.1996  135.6413  153.5083 H   0  0  0  0  0  0  0  0  0  0  0  0  # atno 10763 bound_to 10752
  153.0015  135.5448  154.6330 H   0  0  0  0  0  0  0  0  0  0  0  0  # atno 10764 bound_to 10752
  154.5739  135.2919  155.0773 H   0  0  0  0  0  0  0  0  0  0  0  0  # atno 10765 bound_to 10752
  140.2649  134.3149  155.7846 H   0  0  0  0  0  0  0  0  0  0  0  0  # atno 11005 bound_to 11000
  145.5996  141.0357  143.2025 LP  0  0  0  0  0  0  0  0  0  0  0  0  # atno 17320 bound_to 7965
  144.7377  139.7539  143.7323 LP  0  0  0  0  0  0  0  0  0  0  0  0  # atno 17321 bound_to 7965
  140.6154  143.9358  150.6485 LP  0  0  0  0  0  0  0  0  0  0  0  0  # atno 17342 bound_to 10162
  140.2614  143.3521  152.1319 LP  0  0  0  0  0  0  0  0  0  0  0  0  # atno 17343 bound_to 10162
  156.5717  130.4281  149.6016 LP  0  0  0  0  0  0  0  0  0  0  0  0  # atno 17370 bound_to 10713
  156.2735  130.7030  151.1834 LP  0  0  0  0  0  0  0  0  0  0  0  0  # atno 17371 bound_to 10713
  141.2185  133.7432  156.9244 LP  0  0  0  0  0  0  0  0  0  0  0  0  # atno 17394 bound_to 11000
  140.1429  134.9282  157.2490 LP  0  0  0  0  0  0  0  0  0  0  0  0  # atno 17395 bound_to 11000

$$$$
