AV-unprocessed.smi:266|AV-procd|sdf|2036|dock5
  -GOLD-   2262021243D 1   1.00000     0.00000
 Structure written by MMmdl.
 52 55  0  0  0  0  0  0  0  0  1 V2000
  151.3748  138.1103  154.2937 C   0  0  0  0  0  0  0  0  0  0  0  0
  150.7288  139.0326  155.3400 C   0  0  1  0  0  0  0  0  0  0  0  0
  151.5440  140.1773  155.5519 O   0  0  0  0  0  0  0  0  0  0  0  0
  150.7271  141.1755  156.1346 C   0  0  0  0  0  0  0  0  0  0  0  0
  149.4548  141.0846  155.3040 C   0  0  0  0  0  0  0  0  0  0  0  0
  149.3137  139.5845  155.0173 C   0  0  1  0  0  0  0  0  0  0  0  0
  148.9890  139.4243  153.6467 O   0  0  0  0  0  0  0  0  0  0  0  0
  148.2292  138.8744  155.8698 C   0  0  0  0  0  0  0  0  0  0  0  0
  148.3236  137.4211  155.8799 N   0  0  0  0  0  0  0  0  0  0  0  0
  148.2154  136.5829  154.7937 C   0  0  0  0  0  0  0  0  0  0  0  0
  148.3296  135.3110  155.0588 N   0  0  0  0  0  0  0  0  0  0  0  0
  148.5085  135.2609  156.4368 C   0  0  0  0  0  0  0  0  0  0  0  0
  148.6893  134.2118  157.3866 C   0  0  0  0  0  0  0  0  0  0  0  0
  148.7172  132.8863  157.1027 N   0  0  0  0  0  0  0  0  0  0  0  0
  147.5946  132.4544  156.2800 C   0  0  0  0  0  0  0  0  0  0  0  0
  149.2263  131.9432  158.0983 C   0  0  0  0  0  0  0  0  0  0  0  0
  149.4773  130.5191  157.5455 C   0  0  1  0  0  0  0  0  0  0  0  0
  150.0623  130.5840  156.1199 C   0  0  0  0  0  0  0  0  0  0  0  0
  151.5615  130.9065  156.1969 C   0  0  0  0  0  0  0  0  0  0  0  0
  152.1467  130.2077  157.7875 S   0  0  0  0  0  0  0  0  0  0  0  0
  152.9359  128.9925  157.5366 O   0  0  0  0  0  0  0  0  0  0  0  0
  152.6785  131.2983  158.6188 O   0  0  0  0  0  0  0  0  0  0  0  0
  150.4867  129.7315  158.3985 C   0  0  0  0  0  0  0  0  0  0  0  0
  148.8588  134.5644  158.6864 N   0  0  0  0  0  0  0  0  0  0  0  0
  148.8306  135.8504  159.0460 C   0  0  0  0  0  0  0  0  0  0  0  0
  148.6566  136.9271  158.2779 N   0  0  0  0  0  0  0  0  0  0  0  0
  148.5061  136.5831  156.9672 C   0  0  0  0  0  0  0  0  0  0  0  0
  150.7559  137.2318  154.1095 H   0  0  0  0  0  0  0  0  0  0  0  0
  152.3497  137.7630  154.6359 H   0  0  0  0  0  0  0  0  0  0  0  0
  151.5253  138.6246  153.3441 H   0  0  0  0  0  0  0  0  0  0  0  0
  150.6996  138.4990  156.2915 H   0  0  0  0  0  0  0  0  0  0  0  0
  150.5333  140.9332  157.1807 H   0  0  0  0  0  0  0  0  0  0  0  0
  151.1951  142.1590  156.0856 H   0  0  0  0  0  0  0  0  0  0  0  0
  148.6012  141.5327  155.8099 H   0  0  0  0  0  0  0  0  0  0  0  0
  149.6080  141.6428  154.3785 H   0  0  0  0  0  0  0  0  0  0  0  0
  149.5774  139.9565  153.1334 H   0  0  0  0  0  0  0  0  0  0  0  0
  148.2777  139.2243  156.9021 H   0  0  0  0  0  0  0  0  0  0  0  0
  147.2358  139.1413  155.5064 H   0  0  0  0  0  0  0  0  0  0  0  0
  148.0532  136.9469  153.7894 H   0  0  0  0  0  0  0  0  0  0  0  0
  147.6485  132.9010  155.2866 H   0  0  0  0  0  0  0  0  0  0  0  0
  146.6467  132.7419  156.7366 H   0  0  0  0  0  0  0  0  0  0  0  0
  147.5943  131.3713  156.1552 H   0  0  0  0  0  0  0  0  0  0  0  0
  150.1361  132.3465  158.5419 H   0  0  0  0  0  0  0  0  0  0  0  0
  148.5060  131.8873  158.9148 H   0  0  0  0  0  0  0  0  0  0  0  0
  148.5349  129.9731  157.5076 H   0  0  0  0  0  0  0  0  0  0  0  0
  149.9426  129.6052  155.6535 H   0  0  0  0  0  0  0  0  0  0  0  0
  149.5289  131.2951  155.4879 H   0  0  0  0  0  0  0  0  0  0  0  0
  152.1285  130.4825  155.3684 H   0  0  0  0  0  0  0  0  0  0  0  0
  151.7290  131.9834  156.2189 H   0  0  0  0  0  0  0  0  0  0  0  0
  150.4090  129.9206  159.4694 H   0  0  0  0  0  0  0  0  0  0  0  0
  150.3678  128.6604  158.2334 H   0  0  0  0  0  0  0  0  0  0  0  0
  148.9672  136.0442  160.0997 H   0  0  0  0  0  0  0  0  0  0  0  0
  1  2  1  0  0  0  0
  1 28  1  0  0  0  0
  1 29  1  0  0  0  0
  1 30  1  0  0  0  0
  2  6  1  0  0  0  0
  2  3  1  0  0  0  0
  2 31  1  0  0  0  0
  3  4  1  0  0  0  0
  4  5  1  0  0  0  0
  4 32  1  0  0  0  0
  4 33  1  0  0  0  0
  5  6  1  0  0  0  0
  5 34  1  0  0  0  0
  5 35  1  0  0  0  0
  6  7  1  0  0  0  0
  6  8  1  0  0  0  0
  7 36  1  0  0  0  0
  8  9  1  0  0  0  0
  8 37  1  0  0  0  0
  8 38  1  0  0  0  0
  9 27  1  0  0  0  0
  9 10  1  0  0  0  0
 10 11  2  0  0  0  0
 10 39  1  0  0  0  0
 11 12  1  0  0  0  0
 12 27  2  0  0  0  0
 12 13  1  0  0  0  0
 13 14  1  0  0  0  0
 13 24  2  0  0  0  0
 14 15  1  0  0  0  0
 14 16  1  0  0  0  0
 15 40  1  0  0  0  0
 15 41  1  0  0  0  0
 15 42  1  0  0  0  0
 16 17  1  0  0  0  0
 16 43  1  0  0  0  0
 16 44  1  0  0  0  0
 17 23  1  0  0  0  0
 17 18  1  0  0  0  0
 17 45  1  0  0  0  0
 18 19  1  0  0  0  0
 18 46  1  0  0  0  0
 18 47  1  0  0  0  0
 19 20  1  0  0  0  0
 19 48  1  0  0  0  0
 19 49  1  0  0  0  0
 20 21  2  0  0  0  0
 20 22  2  0  0  0  0
 20 23  1  0  0  0  0
 23 50  1  0  0  0  0
 23 51  1  0  0  0  0
 24 25  1  0  0  0  0
 25 26  2  0  0  0  0
 25 52  1  0  0  0  0
 26 27  1  0  0  0  0
M  END
> <s_m_source_file>
AV-unprocessed.smi

> <i_m_source_file_index>
266

> <i_lp_mmshare_version>
43012

> <i_f3d_flags>
0

> <s_epik_input>
W0NIMl0xW0NIMl1PW0NAQEhdKFtDSDNdKVtDQEBdMShbT0hdKVtDSDJdbihbY0hdbjIpYyhjMjMpbltjSF1uYzNOKFtDSDNdKVtDSDJdW0NAQEhdKFtDSDJdNClbQ0gyXVtDSDJdUzQoPU8pPU8=

> <s_epik_cmdline>
J2VwaWtfcHl0aG9uJywgJy1waCcsICc3LjAnLCAnLXRuJywgJzgnLCAnLW1hJywgJzIwMCcsICctbWV0YWxfYmluZGluZycsICctaW1hZScsICc8aW5maWxlLm1hZT4nLCAnLW9tYWUnLCAnPG91dGZpbGUubWFlPic=

> <r_lp_tautomer_probability>
1

> <r_epik_Ionization_Penalty>
0.00155497

> <r_epik_Ionization_Penalty_Charging>
0

> <r_epik_Ionization_Penalty_Neutral>
0.00155497

> <r_epik_State_Penalty>
-0

> <r_epik_Charging_Adjusted_Penalty>
0

> <i_epik_Tot_Q>
0

> <i_epik_Tot_abs_Q>
0

> <r_epik_Metal_State_Penalty>
-0

> <b_epik_Metal_Only>
0

> <s_lp_Force_Field>
OPLS_2005

> <r_lp_Energy>
31.7584

> <b_lp_Chiralities_Consistent>
1

> <s_lp_Variant>
AV-unprocessed.smi:266-6

> <Gold.Version>
5.8.1

> <Gold.Id.Protein>
6NUR|6NUR_protein|mol2

> <Gold.PLP.Fitness>
37.0670

> <Gold.PLP.PLP>
-24.5293

> <Gold.PLP.part.hbond>
-4.0000

> <Gold.PLP.part.metal>
0.0000

> <Gold.PLP.part.buried>
-4.6789

> <Gold.PLP.part.nonpolar>
-16.6507

> <Gold.PLP.part.repulsive>
0.1000

> <Gold.PLP.ligand.clash>
0.0000

> <Gold.PLP.ligand.torsion>
0.9778

> <Gold.PLP.Chemscore.Hbond>
3.7120

> <Gold.PLP.Chemscore.CHOScore>
0.9323

> <Gold.PLP.Chemscore.Metal>
0.0000

> <Gold.Chemscore.Hbonds>
donor molecule, donor type, donor heavy atom, donor atom, acceptor molecule, acceptor atom, score
      L1  H     7    36       P1  7957  0.51
      P1  H  6896  6907       L1    22  0.32
      P1  H  6896  6908       L1    24  0.70
      P1  H  7989  7998       L1     3  0.60
      L1  C    10    39       P1  7948  0.98

> <Gold.PLP.Chemscore.Internal.Correction>
0.5602

> <Gold.Rescore>
     Score         DG    S(hbond)    S(metal)    S(lipo)     H(rot)  DE(clash)    DE(int)     intcor
     15.92     -17.85       3.62        0.00      55.88       2.45       1.06       0.87       ----

> <Gold.Chemscore.Fitness>
15.9198

> <Gold.Chemscore.DG>
-17.8514

> <Gold.Chemscore.ZeroCoef>
-5.4800

> <Gold.Chemscore.Hbond>
3.6220

> <Gold.Chemscore.Metal>
0.0000

> <Gold.Chemscore.Lipo>
55.8836

> <Gold.Chemscore.Internal_Hbond>
0.0000

> <Gold.Chemscore.DEClash>
1.0582

> <Gold.Chemscore.DEInternal>
0.8735

> <Gold.Chemscore.Rot>
2.4471

> <Gold.Chemscore.Internal.Correction>
   9.000000E+99

> <Gold.Chemscore.Hbonds>
donor molecule, donor type, donor heavy atom, donor atom, acceptor molecule, acceptor atom, score
      L1  H     7    36       P1  7957  0.49
      P1  H  6896  6907       L1    22  0.32
      P1  H  6896  6908       L1    24  0.07
      P1  H  7989  7998       L1     3  0.04

> <Gold.Chemscore.Hbond.Weighted>
-12.0976

> <Gold.Chemscore.Metal.Weighted>
-0.0000

> <Gold.Chemscore.Lipo.Weighted>
-6.5384

> <Gold.Chemscore.Internal_Hbond.Weighted>
0.0000

> <Gold.Chemscore.DEClash.Weighted>
1.0582

> <Gold.Chemscore.DEInternal.Weighted>
0.8735

> <Gold.Chemscore.Rot.Weighted>
6.2645

> <Gold.Chemscore.Internal.Correction.Weighted>
   9.000000E+99

> <Gold.Protein.RotatedTorsions>
[ 6907 6896 6895 6894 ] final  149.26 input  -60.11 | X-H torsion
[ 7974 7965 7964 7962 ] final  -49.94 input  175.53 | X-H torsion
[ 8008 7997 7996 7995 ] final -153.17 input   59.86 | X-H torsion
[ 10167 10162 10161 10158 ] final -157.26 input  -65.29 | X-H torsion
[ 10718 10713 10712 10709 ] final  -64.94 input   66.30 | X-H torsion
[ 10763 10752 10751 10750 ] final   95.39 input  -60.55 | X-H torsion
[ 11005 11000 10999 10996 ] final -102.12 input  -57.11 | X-H torsion

> <Gold.Protein.ActiveResidues>
 VAL166  LYS551  ARG553  GLY616  TRP617  ASP618  TYR619  PRO620  LYS621  CYS622 
 ASP623  PHE694  ASN695  SER759  ASP760  ASP761  ALA762  ILE779  LEU786  VAL792 
 PHE793  MET794  SER795  GLU796  ALA797  LYS798  CYS799  TRP800  GLU811  SER814 

> <Gold.Protein.RotatedAtoms>
  152.1304  133.4404  159.4717 H   0  0  0  0  0  0  0  0  0  0  0  0  # atno 6907 bound_to 6896
  150.6878  134.2428  159.4488 H   0  0  0  0  0  0  0  0  0  0  0  0  # atno 6908 bound_to 6896
  152.0311  134.9767  160.0623 H   0  0  0  0  0  0  0  0  0  0  0  0  # atno 6909 bound_to 6896
  145.9352  140.7713  142.9579 H   0  0  0  0  0  0  0  0  0  0  0  0  # atno 7974 bound_to 7965
  155.6666  140.0728  157.2535 H   0  0  0  0  0  0  0  0  0  0  0  0  # atno 8008 bound_to 7997
  154.4131  140.1706  156.1885 H   0  0  0  0  0  0  0  0  0  0  0  0  # atno 8009 bound_to 7997
  155.9652  140.3366  155.6529 H   0  0  0  0  0  0  0  0  0  0  0  0  # atno 8010 bound_to 7997
  139.6784  143.9623  152.2323 H   0  0  0  0  0  0  0  0  0  0  0  0  # atno 10167 bound_to 10162
  156.0699  130.4240  150.1492 H   0  0  0  0  0  0  0  0  0  0  0  0  # atno 10718 bound_to 10713
  153.2526  135.4255  155.0813 H   0  0  0  0  0  0  0  0  0  0  0  0  # atno 10763 bound_to 10752
  154.8388  135.3429  154.6490 H   0  0  0  0  0  0  0  0  0  0  0  0  # atno 10764 bound_to 10752
  153.6912  135.7033  153.5146 H   0  0  0  0  0  0  0  0  0  0  0  0  # atno 10765 bound_to 10752
  141.1202  133.8533  157.1320 H   0  0  0  0  0  0  0  0  0  0  0  0  # atno 11005 bound_to 11000
  144.6770  140.2191  143.7368 LP  0  0  0  0  0  0  0  0  0  0  0  0  # atno 17320 bound_to 7965
  145.8373  139.2113  143.1848 LP  0  0  0  0  0  0  0  0  0  0  0  0  # atno 17321 bound_to 7965
  139.9406  144.6684  150.8270 LP  0  0  0  0  0  0  0  0  0  0  0  0  # atno 17342 bound_to 10162
  140.7644  143.3247  151.2543 LP  0  0  0  0  0  0  0  0  0  0  0  0  # atno 17343 bound_to 10162
  156.9545  130.9785  151.3491 LP  0  0  0  0  0  0  0  0  0  0  0  0  # atno 17370 bound_to 10713
  157.5763  130.8345  149.8461 LP  0  0  0  0  0  0  0  0  0  0  0  0  # atno 17371 bound_to 10713
  140.0154  134.9970  157.0482 LP  0  0  0  0  0  0  0  0  0  0  0  0  # atno 17394 bound_to 11000
  140.4529  134.1564  155.7183 LP  0  0  0  0  0  0  0  0  0  0  0  0  # atno 17395 bound_to 11000

$$$$
