AV-unprocessed.smi:2098|AV-procd|sdf|8565|dock10
  -GOLD-   2272011293D 1   1.00000     0.00000
 Structure written by MMmdl.
 36 38  0  0  0  0  0  0  0  0  1 V2000
  149.8070  140.7971  153.5428 O   0  0  0  0  0  0  0  0  0  0  0  0
  149.0450  140.7873  154.7345 C   0  0  2  0  0  0  0  0  0  0  0  0
  147.5693  141.0120  154.3688 C   0  0  0  0  0  0  0  0  0  0  0  0
  147.4619  142.1936  153.5856 O   0  0  0  0  0  0  0  0  0  0  0  0
  146.5956  143.1796  154.0076 C   0  0  0  0  0  0  0  0  0  0  0  0
  146.2583  144.1784  153.0705 C   0  0  0  0  0  0  0  0  0  0  0  0
  145.3829  145.2259  153.4165 C   0  0  0  0  0  0  0  0  0  0  0  0
  144.8338  145.2850  154.7104 C   0  0  0  0  0  0  0  0  0  0  0  0
  143.9938  146.2926  155.0458 F   0  0  0  0  0  0  0  0  0  0  0  0
  145.1594  144.2942  155.6550 C   0  0  0  0  0  0  0  0  0  0  0  0
  146.0342  143.2459  155.3085 C   0  0  0  0  0  0  0  0  0  0  0  0
  149.5732  141.8854  155.6780 C   0  0  0  0  0  0  0  0  0  0  0  0
  150.6547  141.4204  156.5290 N   0  0  0  0  0  0  0  0  0  0  0  0
  151.2698  140.2235  156.4745 C   0  0  0  0  0  0  0  0  0  0  0  0
  152.2398  139.9953  157.3554 N   0  0  0  0  0  0  0  0  0  0  0  0
  152.2564  141.1834  158.0658 C   0  0  0  0  0  0  0  0  0  0  0  0
  153.0638  141.5907  159.1522 C   0  0  0  0  0  0  0  0  0  0  0  0
  152.8993  142.8692  159.7249 C   0  0  0  0  0  0  0  0  0  0  0  0
  151.9276  143.7584  159.2215 C   0  0  0  0  0  0  0  0  0  0  0  0
  151.1110  143.3747  158.1403 C   0  0  0  0  0  0  0  0  0  0  0  0
  151.2769  142.0976  157.5726 C   0  0  0  0  0  0  0  0  0  0  0  0
  149.4967  140.1003  152.9847 H   0  0  0  0  0  0  0  0  0  0  0  0
  149.1602  139.8173  155.2200 H   0  0  0  0  0  0  0  0  0  0  0  0
  147.2124  140.1723  153.7697 H   0  0  0  0  0  0  0  0  0  0  0  0
  146.9544  141.0651  155.2691 H   0  0  0  0  0  0  0  0  0  0  0  0
  146.6758  144.1414  152.0749 H   0  0  0  0  0  0  0  0  0  0  0  0
  145.1340  145.9841  152.6887 H   0  0  0  0  0  0  0  0  0  0  0  0
  144.7380  144.3377  156.6485 H   0  0  0  0  0  0  0  0  0  0  0  0
  146.2585  142.5050  156.0605 H   0  0  0  0  0  0  0  0  0  0  0  0
  149.9224  142.7454  155.1051 H   0  0  0  0  0  0  0  0  0  0  0  0
  148.7695  142.2472  156.3205 H   0  0  0  0  0  0  0  0  0  0  0  0
  150.9886  139.4767  155.7462 H   0  0  0  0  0  0  0  0  0  0  0  0
  153.8113  140.9180  159.5456 H   0  0  0  0  0  0  0  0  0  0  0  0
  153.5220  143.1695  160.5550 H   0  0  0  0  0  0  0  0  0  0  0  0
  151.8095  144.7357  159.6660 H   0  0  0  0  0  0  0  0  0  0  0  0
  150.3676  144.0542  157.7509 H   0  0  0  0  0  0  0  0  0  0  0  0
  1  2  1  0  0  0  0
  1 22  1  0  0  0  0
  2  3  1  0  0  0  0
  2 12  1  0  0  0  0
  2 23  1  0  0  0  0
  3  4  1  0  0  0  0
  3 24  1  0  0  0  0
  3 25  1  0  0  0  0
  4  5  1  0  0  0  0
  5 11  1  0  0  0  0
  5  6  2  0  0  0  0
  6  7  1  0  0  0  0
  6 26  1  0  0  0  0
  7  8  2  0  0  0  0
  7 27  1  0  0  0  0
  8  9  1  0  0  0  0
  8 10  1  0  0  0  0
 10 11  2  0  0  0  0
 10 28  1  0  0  0  0
 11 29  1  0  0  0  0
 12 13  1  0  0  0  0
 12 30  1  0  0  0  0
 12 31  1  0  0  0  0
 13 21  1  0  0  0  0
 13 14  1  0  0  0  0
 14 15  2  0  0  0  0
 14 32  1  0  0  0  0
 15 16  1  0  0  0  0
 16 21  2  0  0  0  0
 16 17  1  0  0  0  0
 17 18  2  0  0  0  0
 17 33  1  0  0  0  0
 18 19  1  0  0  0  0
 18 34  1  0  0  0  0
 19 20  2  0  0  0  0
 19 35  1  0  0  0  0
 20 21  1  0  0  0  0
 20 36  1  0  0  0  0
M  END
> <s_m_source_file>
AV-unprocessed.smi

> <i_m_source_file_index>
2098

> <i_lp_mmshare_version>
43012

> <i_f3d_flags>
0

> <s_epik_input>
W2NIXTFbY0hdW2NIXVtjSF1jKGMxMiluKFtjSF1uMilbQ0gyXVtDQEhdKFtPSF0pW0NIMl1PYzNbY0hdW2NIXWMoRilbY0hdW2NIXTM=

> <s_epik_cmdline>
J2VwaWtfcHl0aG9uJywgJy1waCcsICc3LjAnLCAnLXRuJywgJzgnLCAnLW1hJywgJzIwMCcsICctbWV0YWxfYmluZGluZycsICctaW1hZScsICc8aW5maWxlLm1hZT4nLCAnLW9tYWUnLCAnPG91dGZpbGUubWFlPic=

> <r_lp_tautomer_probability>
1

> <r_epik_Ionization_Penalty>
0.0603575

> <r_epik_Ionization_Penalty_Charging>
0

> <r_epik_Ionization_Penalty_Neutral>
0.0603575

> <r_epik_State_Penalty>
0.0523204

> <r_epik_Charging_Adjusted_Penalty>
0.0523204

> <i_epik_Tot_Q>
0

> <i_epik_Tot_abs_Q>
0

> <r_epik_Metal_State_Penalty>
5.46976e-05

> <b_epik_Metal_Only>
0

> <s_lp_Force_Field>
OPLS_2005

> <r_lp_Energy>
15.3662

> <b_lp_Chiralities_Consistent>
1

> <s_lp_Variant>
AV-unprocessed.smi:2098-1

> <Gold.Version>
5.8.1

> <Gold.Id.Protein>
6NUR|6NUR_protein|mol2

> <Gold.PLP.Fitness>
51.4795

> <Gold.PLP.PLP>
-44.1984

> <Gold.PLP.part.hbond>
-3.6789

> <Gold.PLP.part.metal>
0.0000

> <Gold.PLP.part.buried>
-5.3242

> <Gold.PLP.part.nonpolar>
-34.9128

> <Gold.PLP.part.repulsive>
0.1712

> <Gold.PLP.ligand.clash>
0.0000

> <Gold.PLP.ligand.torsion>
0.9516

> <Gold.PLP.Chemscore.Hbond>
3.0400

> <Gold.PLP.Chemscore.CHOScore>
0.0000

> <Gold.PLP.Chemscore.Metal>
0.0000

> <Gold.Chemscore.Hbonds>
donor molecule, donor type, donor heavy atom, donor atom, acceptor molecule, acceptor atom, score
      L1  H     1    22       P1  7957  0.53
      P1  H  7989  7998       L1     1  0.37
      P1  H  7997  8008       L1    15  0.35
      P1  H  8011  8017       L1     1  1.00

> <Gold.PLP.Chemscore.Internal.Correction>
0.0644

> <Gold.Rescore>
     Score         DG    S(hbond)    S(metal)    S(lipo)     H(rot)  DE(clash)    DE(int)     intcor
     16.34     -17.76       1.63        0.00     110.36       2.37       0.51       0.91       ----

> <Gold.Chemscore.Fitness>
16.3448

> <Gold.Chemscore.DG>
-17.7636

> <Gold.Chemscore.ZeroCoef>
-5.4800

> <Gold.Chemscore.Hbond>
1.6309

> <Gold.Chemscore.Metal>
0.0000

> <Gold.Chemscore.Lipo>
110.3639

> <Gold.Chemscore.Internal_Hbond>
0.0000

> <Gold.Chemscore.DEClash>
0.5075

> <Gold.Chemscore.DEInternal>
0.9114

> <Gold.Chemscore.Rot>
2.3735

> <Gold.Chemscore.Internal.Correction>
   9.000000E+99

> <Gold.Chemscore.Hbonds>
donor molecule, donor type, donor heavy atom, donor atom, acceptor molecule, acceptor atom, score
      L1  H     1    22       P1  7957  0.52
      P1  H  7989  7998       L1     1  0.27
      P1  H  7997  8008       L1    15  0.05
      P1  H  8011  8017       L1     1  0.36

> <Gold.Chemscore.Hbond.Weighted>
-5.4473

> <Gold.Chemscore.Metal.Weighted>
-0.0000

> <Gold.Chemscore.Lipo.Weighted>
-12.9126

> <Gold.Chemscore.Internal_Hbond.Weighted>
0.0000

> <Gold.Chemscore.DEClash.Weighted>
0.5075

> <Gold.Chemscore.DEInternal.Weighted>
0.9114

> <Gold.Chemscore.Rot.Weighted>
6.0762

> <Gold.Chemscore.Internal.Correction.Weighted>
   9.000000E+99

> <Gold.Protein.RotatedTorsions>
[ 6907 6896 6895 6894 ] final   -6.48 input  -60.11 | X-H torsion
[ 7974 7965 7964 7962 ] final -169.80 input  175.53 | X-H torsion
[ 8008 7997 7996 7995 ] final  -65.33 input   59.86 | X-H torsion
[ 10167 10162 10161 10158 ] final -164.01 input  -65.29 | X-H torsion
[ 10718 10713 10712 10709 ] final -124.94 input   66.30 | X-H torsion
[ 10763 10752 10751 10750 ] final  105.32 input  -60.55 | X-H torsion
[ 11005 11000 10999 10996 ] final -160.18 input  -57.11 | X-H torsion

> <Gold.Protein.ActiveResidues>
 VAL166  LYS551  ARG553  GLY616  TRP617  ASP618  TYR619  PRO620  LYS621  CYS622 
 ASP623  PHE694  ASN695  SER759  ASP760  ASP761  ALA762  ILE779  LEU786  VAL792 
 PHE793  MET794  SER795  GLU796  ALA797  LYS798  CYS799  TRP800  GLU811  SER814 

> <Gold.Protein.RotatedAtoms>
  151.4649  135.1041  159.9734 H   0  0  0  0  0  0  0  0  0  0  0  0  # atno 6907 bound_to 6896
  152.4839  133.8318  159.7118 H   0  0  0  0  0  0  0  0  0  0  0  0  # atno 6908 bound_to 6896
  150.8932  133.7155  159.2926 H   0  0  0  0  0  0  0  0  0  0  0  0  # atno 6909 bound_to 6896
  144.7179  140.2167  143.6321 H   0  0  0  0  0  0  0  0  0  0  0  0  # atno 7974 bound_to 7965
  154.4665  140.0935  156.7033 H   0  0  0  0  0  0  0  0  0  0  0  0  # atno 8008 bound_to 7997
  155.4844  140.3468  155.4326 H   0  0  0  0  0  0  0  0  0  0  0  0  # atno 8009 bound_to 7997
  156.0965  140.1411  156.9512 H   0  0  0  0  0  0  0  0  0  0  0  0  # atno 8010 bound_to 7997
  139.6280  144.0494  152.1992 H   0  0  0  0  0  0  0  0  0  0  0  0  # atno 10167 bound_to 10162
  156.1632  130.6616  151.0078 H   0  0  0  0  0  0  0  0  0  0  0  0  # atno 10718 bound_to 10713
  153.3778  135.3914  155.1835 H   0  0  0  0  0  0  0  0  0  0  0  0  # atno 10763 bound_to 10752
  154.8703  135.3718  154.4895 H   0  0  0  0  0  0  0  0  0  0  0  0  # atno 10764 bound_to 10752
  153.5369  135.7085  153.5716 H   0  0  0  0  0  0  0  0  0  0  0  0  # atno 10765 bound_to 10752
  140.6343  134.4618  157.5231 H   0  0  0  0  0  0  0  0  0  0  0  0  # atno 11005 bound_to 11000
  145.8540  139.2189  143.1755 LP  0  0  0  0  0  0  0  0  0  0  0  0  # atno 17320 bound_to 7965
  146.0235  140.8326  142.9911 LP  0  0  0  0  0  0  0  0  0  0  0  0  # atno 17321 bound_to 7965
  140.0152  144.6194  150.7613 LP  0  0  0  0  0  0  0  0  0  0  0  0  # atno 17342 bound_to 10162
  140.7422  143.2829  151.3546 LP  0  0  0  0  0  0  0  0  0  0  0  0  # atno 17343 bound_to 10162
  157.6748  131.0853  150.7522 LP  0  0  0  0  0  0  0  0  0  0  0  0  # atno 17370 bound_to 10713
  156.7584  130.4791  149.5442 LP  0  0  0  0  0  0  0  0  0  0  0  0  # atno 17371 bound_to 10713
  139.9104  134.8357  156.1550 LP  0  0  0  0  0  0  0  0  0  0  0  0  # atno 17394 bound_to 11000
  141.0652  133.6822  156.2031 LP  0  0  0  0  0  0  0  0  0  0  0  0  # atno 17395 bound_to 11000

$$$$
