AV-unprocessed.smi:3205|AV-procd|sdf|12255|dock8
  -GOLD-   2272018 93D 1   1.00000     0.00000
 Structure written by MMmdl.
 38 39  0  0  0  0  0  0  0  0  2 V2000
  146.4492  138.5725  151.3185 C   0  0  0  0  0  0  0  0  0  0  0  0
  146.4207  138.3136  152.8378 C   0  0  1  0  0  0  0  0  0  0  0  0
  146.8035  136.9097  153.1130 N   0  3  0  0  0  0  0  0  0  0  0  0
  145.7989  135.8870  152.7497 C   0  0  0  0  0  0  0  0  0  0  0  0
  146.4398  134.4962  152.6210 C   0  0  0  0  0  0  0  0  0  0  0  0
  145.5892  133.5684  151.8966 N   0  0  0  0  0  0  0  0  0  0  0  0
  145.8647  132.2721  151.5150 C   0  0  0  0  0  0  0  0  0  0  0  0
  144.7696  131.8044  150.8469 C   0  0  0  0  0  0  0  0  0  0  0  0
  143.8630  132.9006  150.8725 C   0  0  0  0  0  0  0  0  0  0  0  0
  144.3574  133.9559  151.4996 N   0  0  0  0  0  0  0  0  0  0  0  0
  147.3487  139.2703  153.6322 C   0  0  0  0  0  0  0  0  0  0  0  0
  147.1682  140.7407  153.1939 C   0  0  0  0  0  0  0  0  0  0  0  0
  148.1407  141.6710  153.9358 C   0  0  0  0  0  0  0  0  0  0  0  0
  149.4790  141.2480  153.7108 O   0  0  0  0  0  0  0  0  0  0  0  0
  149.7327  139.9431  154.2148 C   0  0  0  0  0  0  0  0  0  0  0  0
  148.8445  138.9160  153.4939 C   0  0  0  0  0  0  0  0  0  0  0  0
  146.0701  139.5632  151.0699 H   0  0  0  0  0  0  0  0  0  0  0  0
  145.8237  137.8634  150.7768 H   0  0  0  0  0  0  0  0  0  0  0  0
  147.4613  138.4912  150.9208 H   0  0  0  0  0  0  0  0  0  0  0  0
  145.4012  138.4658  153.1953 H   0  0  0  0  0  0  0  0  0  0  0  0
  147.6789  136.7037  152.6535 H   0  0  0  0  0  0  0  0  0  0  0  0
  145.0088  135.8575  153.5014 H   0  0  0  0  0  0  0  0  0  0  0  0
  145.3307  136.1603  151.8043 H   0  0  0  0  0  0  0  0  0  0  0  0
  147.3880  134.5744  152.0876 H   0  0  0  0  0  0  0  0  0  0  0  0
  146.6682  134.0812  153.6040 H   0  0  0  0  0  0  0  0  0  0  0  0
  146.8063  131.7959  151.7461 H   0  0  0  0  0  0  0  0  0  0  0  0
  144.6359  130.8270  150.4074 H   0  0  0  0  0  0  0  0  0  0  0  0
  142.8684  132.9611  150.4559 H   0  0  0  0  0  0  0  0  0  0  0  0
  147.0874  139.1994  154.6895 H   0  0  0  0  0  0  0  0  0  0  0  0
  147.3358  140.8302  152.1198 H   0  0  0  0  0  0  0  0  0  0  0  0
  146.1486  141.0801  153.3772 H   0  0  0  0  0  0  0  0  0  0  0  0
  148.0302  142.6930  153.5730 H   0  0  0  0  0  0  0  0  0  0  0  0
  147.9255  141.6883  155.0055 H   0  0  0  0  0  0  0  0  0  0  0  0
  150.7844  139.7044  154.0553 H   0  0  0  0  0  0  0  0  0  0  0  0
  149.5613  139.9174  155.2921 H   0  0  0  0  0  0  0  0  0  0  0  0
  149.0510  137.9309  153.9110 H   0  0  0  0  0  0  0  0  0  0  0  0
  149.1205  138.8754  152.4393 H   0  0  0  0  0  0  0  0  0  0  0  0
  146.9455  136.8306  154.1105 H   0  0  0  0  0  0  0  0  0  0  0  0
  1  2  1  0  0  0  0
  1 17  1  0  0  0  0
  1 18  1  0  0  0  0
  1 19  1  0  0  0  0
  2  3  1  0  0  0  0
  2 11  1  0  0  0  0
  2 20  1  0  0  0  0
  3  4  1  0  0  0  0
  3 21  1  0  0  0  0
  3 38  1  0  0  0  0
  4  5  1  0  0  0  0
  4 22  1  0  0  0  0
  4 23  1  0  0  0  0
  5  6  1  0  0  0  0
  5 24  1  0  0  0  0
  5 25  1  0  0  0  0
  6 10  1  0  0  0  0
  6  7  1  0  0  0  0
  7  8  2  0  0  0  0
  7 26  1  0  0  0  0
  8  9  1  0  0  0  0
  8 27  1  0  0  0  0
  9 10  2  0  0  0  0
  9 28  1  0  0  0  0
 11 16  1  0  0  0  0
 11 12  1  0  0  0  0
 11 29  1  0  0  0  0
 12 13  1  0  0  0  0
 12 30  1  0  0  0  0
 12 31  1  0  0  0  0
 13 14  1  0  0  0  0
 13 32  1  0  0  0  0
 13 33  1  0  0  0  0
 14 15  1  0  0  0  0
 15 16  1  0  0  0  0
 15 34  1  0  0  0  0
 15 35  1  0  0  0  0
 16 36  1  0  0  0  0
 16 37  1  0  0  0  0
M  CHG  1   3   1
M  END
> <s_m_source_file>
AV-unprocessed.smi

> <i_m_source_file_index>
3205

> <i_lp_mmshare_version>
43012

> <i_f3d_flags>
0

> <s_epik_input>
W0NIMl0xW0NIMl1PW0NIMl1bQ0gyXVtDSF0xW0NASF0oW0NIM10pW05IXVtDSDJdW0NIMl1uMltjSF1bY0hdW2NIXW4y

> <s_epik_cmdline>
J2VwaWtfcHl0aG9uJywgJy1waCcsICc3LjAnLCAnLXRuJywgJzgnLCAnLW1hJywgJzIwMCcsICctbWV0YWxfYmluZGluZycsICctaW1hZScsICc8aW5maWxlLm1hZT4nLCAnLW9tYWUnLCAnPG91dGZpbGUubWFlPic=

> <r_lp_tautomer_probability>
1

> <r_epik_Ionization_Penalty>
0.00310903

> <r_epik_Ionization_Penalty_Charging>
0.00310601

> <r_epik_Ionization_Penalty_Neutral>
3.02836e-06

> <r_epik_State_Penalty>
-0

> <r_epik_Charging_Adjusted_Penalty>
0.00310601

> <i_epik_Tot_Q>
1

> <i_epik_Tot_abs_Q>
1

> <r_epik_Metal_State_Penalty>
-0

> <b_epik_Metal_Only>
0

> <s_lp_Force_Field>
OPLS_2005

> <r_lp_Energy>
14.7607

> <b_lp_Chiralities_Consistent>
1

> <s_lp_Variant>
AV-unprocessed.smi:3205-2

> <Gold.Version>
5.8.1

> <Gold.Id.Protein>
6NUR|6NUR_protein|mol2

> <Gold.PLP.Fitness>
43.5929

> <Gold.PLP.PLP>
-30.0328

> <Gold.PLP.part.hbond>
-3.0000

> <Gold.PLP.part.metal>
0.0000

> <Gold.PLP.part.buried>
3.7211

> <Gold.PLP.part.nonpolar>
-30.9918

> <Gold.PLP.part.repulsive>
0.7147

> <Gold.PLP.ligand.clash>
0.0000

> <Gold.PLP.ligand.torsion>
0.4399

> <Gold.PLP.Chemscore.Hbond>
2.8000

> <Gold.PLP.Chemscore.CHOScore>
2.0000

> <Gold.PLP.Chemscore.Metal>
0.0000

> <Gold.Chemscore.Hbonds>
donor molecule, donor type, donor heavy atom, donor atom, acceptor molecule, acceptor atom, score
      L1  H     3    21       P1  7948  2.00
      P1  H  8011  8017       L1    14  0.72
      L1  C     7    26       P1 10747  0.36
      L1  C     9    28       P1 10186  1.00

> <Gold.PLP.Chemscore.Internal.Correction>
0.0399

> <Gold.Rescore>
     Score         DG    S(hbond)    S(metal)    S(lipo)     H(rot)  DE(clash)    DE(int)     intcor
     14.47     -15.28       1.27        0.00      83.90       1.66       0.13       0.67       ----

> <Gold.Chemscore.Fitness>
14.4749

> <Gold.Chemscore.DG>
-15.2752

> <Gold.Chemscore.ZeroCoef>
-5.4800

> <Gold.Chemscore.Hbond>
1.2655

> <Gold.Chemscore.Metal>
0.0000

> <Gold.Chemscore.Lipo>
83.9014

> <Gold.Chemscore.Internal_Hbond>
0.0000

> <Gold.Chemscore.DEClash>
0.1275

> <Gold.Chemscore.DEInternal>
0.6728

> <Gold.Chemscore.Rot>
1.6594

> <Gold.Chemscore.Internal.Correction>
   9.000000E+99

> <Gold.Chemscore.Hbonds>
donor molecule, donor type, donor heavy atom, donor atom, acceptor molecule, acceptor atom, score
      L1  H     3    21       P1  7948  0.97
      P1  H  8011  8017       L1    14  0.10

> <Gold.Chemscore.Hbond.Weighted>
-4.2269

> <Gold.Chemscore.Metal.Weighted>
-0.0000

> <Gold.Chemscore.Lipo.Weighted>
-9.8165

> <Gold.Chemscore.Internal_Hbond.Weighted>
0.0000

> <Gold.Chemscore.DEClash.Weighted>
0.1275

> <Gold.Chemscore.DEInternal.Weighted>
0.6728

> <Gold.Chemscore.Rot.Weighted>
4.2482

> <Gold.Chemscore.Internal.Correction.Weighted>
   9.000000E+99

> <Gold.Protein.RotatedTorsions>
[ 6907 6896 6895 6894 ] final  -65.70 input  -60.11 | X-H torsion
[ 7974 7965 7964 7962 ] final  164.37 input  175.53 | X-H torsion
[ 8008 7997 7996 7995 ] final -118.06 input   59.86 | X-H torsion
[ 10167 10162 10161 10158 ] final   -9.48 input  -65.29 | X-H torsion
[ 10718 10713 10712 10709 ] final -115.19 input   66.30 | X-H torsion
[ 10763 10752 10751 10750 ] final  -28.93 input  -60.55 | X-H torsion
[ 11005 11000 10999 10996 ] final -160.68 input  -57.11 | X-H torsion

> <Gold.Protein.ActiveResidues>
 VAL166  LYS551  ARG553  GLY616  TRP617  ASP618  TYR619  PRO620  LYS621  CYS622 
 ASP623  PHE694  ASN695  SER759  ASP760  ASP761  ALA762  ILE779  LEU786  VAL792 
 PHE793  MET794  SER795  GLU796  ALA797  LYS798  CYS799  TRP800  GLU811  SER814 

> <Gold.Protein.RotatedAtoms>
  150.7508  134.6124  159.6092 H   0  0  0  0  0  0  0  0  0  0  0  0  # atno 6907 bound_to 6896
  152.3454  134.7075  160.0261 H   0  0  0  0  0  0  0  0  0  0  0  0  # atno 6908 bound_to 6896
  151.7514  133.3291  159.3429 H   0  0  0  0  0  0  0  0  0  0  0  0  # atno 6909 bound_to 6896
  144.7548  139.8316  143.6353 H   0  0  0  0  0  0  0  0  0  0  0  0  # atno 7974 bound_to 7965
  155.0936  140.0395  157.2676 H   0  0  0  0  0  0  0  0  0  0  0  0  # atno 8008 bound_to 7997
  154.6812  140.2633  155.6881 H   0  0  0  0  0  0  0  0  0  0  0  0  # atno 8009 bound_to 7997
  156.2695  140.2778  156.1357 H   0  0  0  0  0  0  0  0  0  0  0  0  # atno 8010 bound_to 7997
  140.7088  143.5853  150.8949 H   0  0  0  0  0  0  0  0  0  0  0  0  # atno 10167 bound_to 10162
  156.0879  130.6067  150.8874 H   0  0  0  0  0  0  0  0  0  0  0  0  # atno 10718 bound_to 10713
  153.7563  135.6922  153.4935 H   0  0  0  0  0  0  0  0  0  0  0  0  # atno 10763 bound_to 10752
  153.1969  135.4450  155.0217 H   0  0  0  0  0  0  0  0  0  0  0  0  # atno 10764 bound_to 10752
  154.8169  135.3403  154.7081 H   0  0  0  0  0  0  0  0  0  0  0  0  # atno 10765 bound_to 10752
  140.6288  134.4673  157.5228 H   0  0  0  0  0  0  0  0  0  0  0  0  # atno 11005 bound_to 11000
  146.1545  139.4638  143.0028 LP  0  0  0  0  0  0  0  0  0  0  0  0  # atno 17320 bound_to 7965
  145.6817  141.0189  143.1603 LP  0  0  0  0  0  0  0  0  0  0  0  0  # atno 17321 bound_to 7965
  139.9579  143.6197  152.3011 LP  0  0  0  0  0  0  0  0  0  0  0  0  # atno 17342 bound_to 10162
  139.6739  144.7659  151.1731 LP  0  0  0  0  0  0  0  0  0  0  0  0  # atno 17343 bound_to 10162
  157.6019  131.0941  150.8945 LP  0  0  0  0  0  0  0  0  0  0  0  0  # atno 17370 bound_to 10713
  156.9100  130.5277  149.5280 LP  0  0  0  0  0  0  0  0  0  0  0  0  # atno 17371 bound_to 10713
  139.9124  134.8316  156.1481 LP  0  0  0  0  0  0  0  0  0  0  0  0  # atno 17394 bound_to 11000
  141.0690  133.6805  156.2103 LP  0  0  0  0  0  0  0  0  0  0  0  0  # atno 17395 bound_to 11000

$$$$
