AV-unprocessed.smi:2192|AV-procd|sdf|8897|dock3
  -GOLD-   2272012103D 1   1.00000     0.00000
 Structure written by MMmdl.
 42 44  0  0  0  0  0  0  0  0  1 V2000
  154.8148  139.8474  160.7444 C   0  0  0  0  0  0  0  0  0  0  0  0
  153.7746  140.7823  160.2750 N   0  0  0  0  0  0  0  0  0  0  0  0
  153.1705  140.5286  159.0715 C   0  0  0  0  0  0  0  0  0  0  0  0
  153.4388  139.5781  158.3354 O   0  0  0  0  0  0  0  0  0  0  0  0
  152.1421  141.5077  158.7056 C   0  0  0  0  0  0  0  0  0  0  0  0
  151.8332  142.5754  159.4805 C   0  0  0  0  0  0  0  0  0  0  0  0
  150.8329  143.3491  158.9032 N   0  0  0  0  0  0  0  0  0  0  0  0
  150.5848  142.6838  157.7743 C   0  0  0  0  0  0  0  0  0  0  0  0
  151.3223  141.5717  157.5790 N   0  0  0  0  0  0  0  0  0  0  0  0
  151.2401  140.6799  156.4318 C   0  0  0  0  0  0  0  0  0  0  0  0
  150.1765  141.1298  155.4093 C   0  0  1  0  0  0  0  0  0  0  0  0
  150.3050  140.4509  154.1761 O   0  0  0  0  0  0  0  0  0  0  0  0
  148.7324  140.9797  155.9133 C   0  0  0  0  0  0  0  0  0  0  0  0
  147.8246  141.1558  154.8325 O   0  0  0  0  0  0  0  0  0  0  0  0
  146.8135  142.0815  154.9726 C   0  0  0  0  0  0  0  0  0  0  0  0
  146.3545  142.7089  153.7959 C   0  0  0  0  0  0  0  0  0  0  0  0
  145.3268  143.6703  153.8450 C   0  0  0  0  0  0  0  0  0  0  0  0
  144.7436  144.0131  155.0786 C   0  0  0  0  0  0  0  0  0  0  0  0
  143.7560  144.9380  155.1287 F   0  0  0  0  0  0  0  0  0  0  0  0
  145.1890  143.3924  156.2604 C   0  0  0  0  0  0  0  0  0  0  0  0
  146.2180  142.4316  156.2113 C   0  0  0  0  0  0  0  0  0  0  0  0
  152.5280  142.7531  160.7025 N   0  0  0  0  0  0  0  0  0  0  0  0
  152.1718  143.9234  161.5104 C   0  0  0  0  0  0  0  0  0  0  0  0
  153.4919  141.8582  161.1000 C   0  0  0  0  0  0  0  0  0  0  0  0
  154.0916  142.0117  162.1677 O   0  0  0  0  0  0  0  0  0  0  0  0
  154.9993  138.9974  160.0870 H   0  0  0  0  0  0  0  0  0  0  0  0
  154.5425  139.4304  161.7155 H   0  0  0  0  0  0  0  0  0  0  0  0
  155.7685  140.3658  160.8575 H   0  0  0  0  0  0  0  0  0  0  0  0
  149.8414  143.0169  157.0649 H   0  0  0  0  0  0  0  0  0  0  0  0
  152.2238  140.5925  155.9726 H   0  0  0  0  0  0  0  0  0  0  0  0
  150.9940  139.6820  156.7970 H   0  0  0  0  0  0  0  0  0  0  0  0
  150.3409  142.1849  155.1880 H   0  0  0  0  0  0  0  0  0  0  0  0
  149.8839  139.6079  154.2550 H   0  0  0  0  0  0  0  0  0  0  0  0
  148.6050  139.9780  156.3266 H   0  0  0  0  0  0  0  0  0  0  0  0
  148.5361  141.6965  156.7128 H   0  0  0  0  0  0  0  0  0  0  0  0
  146.7979  142.4523  152.8449 H   0  0  0  0  0  0  0  0  0  0  0  0
  144.9872  144.1444  152.9359 H   0  0  0  0  0  0  0  0  0  0  0  0
  144.7406  143.6538  157.2075 H   0  0  0  0  0  0  0  0  0  0  0  0
  146.5315  141.9769  157.1385 H   0  0  0  0  0  0  0  0  0  0  0  0
  152.7176  144.0069  162.4505 H   0  0  0  0  0  0  0  0  0  0  0  0
  151.1096  143.8972  161.7557 H   0  0  0  0  0  0  0  0  0  0  0  0
  152.3606  144.8358  160.9440 H   0  0  0  0  0  0  0  0  0  0  0  0
  1  2  1  0  0  0  0
  1 26  1  0  0  0  0
  1 27  1  0  0  0  0
  1 28  1  0  0  0  0
  2 24  1  0  0  0  0
  2  3  1  0  0  0  0
  3  4  2  0  0  0  0
  3  5  1  0  0  0  0
  5  9  1  0  0  0  0
  5  6  2  0  0  0  0
  6  7  1  0  0  0  0
  6 22  1  0  0  0  0
  7  8  2  0  0  0  0
  8  9  1  0  0  0  0
  8 29  1  0  0  0  0
  9 10  1  0  0  0  0
 10 11  1  0  0  0  0
 10 30  1  0  0  0  0
 10 31  1  0  0  0  0
 11 12  1  0  0  0  0
 11 13  1  0  0  0  0
 11 32  1  0  0  0  0
 12 33  1  0  0  0  0
 13 14  1  0  0  0  0
 13 34  1  0  0  0  0
 13 35  1  0  0  0  0
 14 15  1  0  0  0  0
 15 21  1  0  0  0  0
 15 16  2  0  0  0  0
 16 17  1  0  0  0  0
 16 36  1  0  0  0  0
 17 18  2  0  0  0  0
 17 37  1  0  0  0  0
 18 19  1  0  0  0  0
 18 20  1  0  0  0  0
 20 21  2  0  0  0  0
 20 38  1  0  0  0  0
 21 39  1  0  0  0  0
 22 23  1  0  0  0  0
 22 24  1  0  0  0  0
 23 40  1  0  0  0  0
 23 41  1  0  0  0  0
 23 42  1  0  0  0  0
 24 25  2  0  0  0  0
M  END
> <s_m_source_file>
AV-unprocessed.smi

> <i_m_source_file_index>
2192

> <i_lp_mmshare_version>
43012

> <i_f3d_flags>
0

> <s_epik_input>
Tz1jMW4oW0NIM10pYyg9TyluKFtDSDNdKWMoYzEyKW5bY0hdbjJbQ0gyXVtDQEhdKFtPSF0pW0NIMl1PYzNbY0hdW2NIXWMoRilbY0hdW2NIXTM=

> <s_epik_cmdline>
J2VwaWtfcHl0aG9uJywgJy1waCcsICc3LjAnLCAnLXRuJywgJzgnLCAnLW1hJywgJzIwMCcsICctbWV0YWxfYmluZGluZycsICctaW1hZScsICc8aW5maWxlLm1hZT4nLCAnLW9tYWUnLCAnPG91dGZpbGUubWFlPic=

> <r_lp_tautomer_probability>
1

> <r_epik_Ionization_Penalty>
1.0344e-06

> <r_epik_Ionization_Penalty_Charging>
3.2247e-09

> <r_epik_Ionization_Penalty_Neutral>
1.03118e-06

> <r_epik_State_Penalty>
-0

> <r_epik_Charging_Adjusted_Penalty>
3.2247e-09

> <i_epik_Tot_Q>
0

> <i_epik_Tot_abs_Q>
0

> <r_epik_Metal_State_Penalty>
-0

> <b_epik_Metal_Only>
0

> <s_lp_Force_Field>
OPLS_2005

> <r_lp_Energy>
39.8918

> <b_lp_Chiralities_Consistent>
1

> <s_lp_Variant>
AV-unprocessed.smi:2192-2

> <Gold.Version>
5.8.1

> <Gold.Id.Protein>
6NUR|6NUR_protein|mol2

> <Gold.PLP.Fitness>
60.5434

> <Gold.PLP.PLP>
-53.5860

> <Gold.PLP.part.hbond>
-3.4428

> <Gold.PLP.part.metal>
0.0000

> <Gold.PLP.part.buried>
-7.2034

> <Gold.PLP.part.nonpolar>
-42.6339

> <Gold.PLP.part.repulsive>
0.2090

> <Gold.PLP.ligand.clash>
0.0000

> <Gold.PLP.ligand.torsion>
0.9098

> <Gold.PLP.Chemscore.Hbond>
1.8960

> <Gold.PLP.Chemscore.CHOScore>
1.0000

> <Gold.PLP.Chemscore.Metal>
0.0000

> <Gold.Chemscore.Hbonds>
donor molecule, donor type, donor heavy atom, donor atom, acceptor molecule, acceptor atom, score
      P1  H  7989  7998       L1    12  0.90
      P1  H  7997  8008       L1     4  1.00
      L1  C     8    29       P1  8028  1.00

> <Gold.PLP.Chemscore.Internal.Correction>
0.0890

> <Gold.Rescore>
     Score         DG    S(hbond)    S(metal)    S(lipo)     H(rot)  DE(clash)    DE(int)     intcor
     11.89     -12.74       1.74        0.00      75.29       2.88       0.00       0.84       ----

> <Gold.Chemscore.Fitness>
11.8949

> <Gold.Chemscore.DG>
-12.7429

> <Gold.Chemscore.ZeroCoef>
-5.4800

> <Gold.Chemscore.Hbond>
1.7417

> <Gold.Chemscore.Metal>
0.0000

> <Gold.Chemscore.Lipo>
75.2883

> <Gold.Chemscore.Internal_Hbond>
0.0000

> <Gold.Chemscore.DEClash>
0.0038

> <Gold.Chemscore.DEInternal>
0.8442

> <Gold.Chemscore.Rot>
2.8762

> <Gold.Chemscore.Internal.Correction>
   9.000000E+99

> <Gold.Chemscore.Hbonds>
donor molecule, donor type, donor heavy atom, donor atom, acceptor molecule, acceptor atom, score
      P1  H  7989  7998       L1    12  0.61
      P1  H  7997  8008       L1     4  0.78

> <Gold.Chemscore.Hbond.Weighted>
-5.8173

> <Gold.Chemscore.Metal.Weighted>
-0.0000

> <Gold.Chemscore.Lipo.Weighted>
-8.8087

> <Gold.Chemscore.Internal_Hbond.Weighted>
0.0000

> <Gold.Chemscore.DEClash.Weighted>
0.0038

> <Gold.Chemscore.DEInternal.Weighted>
0.8442

> <Gold.Chemscore.Rot.Weighted>
7.3631

> <Gold.Chemscore.Internal.Correction.Weighted>
   9.000000E+99

> <Gold.Protein.RotatedTorsions>
[ 6907 6896 6895 6894 ] final  174.77 input  -60.11 | X-H torsion
[ 7974 7965 7964 7962 ] final   83.40 input  175.53 | X-H torsion
[ 8008 7997 7996 7995 ] final  -90.59 input   59.86 | X-H torsion
[ 10167 10162 10161 10158 ] final  -11.27 input  -65.29 | X-H torsion
[ 10718 10713 10712 10709 ] final  -65.74 input   66.30 | X-H torsion
[ 10763 10752 10751 10750 ] final   63.27 input  -60.55 | X-H torsion
[ 11005 11000 10999 10996 ] final   57.71 input  -57.11 | X-H torsion

> <Gold.Protein.ActiveResidues>
 VAL166  LYS551  ARG553  GLY616  TRP617  ASP618  TYR619  PRO620  LYS621  CYS622 
 ASP623  PHE694  ASN695  SER759  ASP760  ASP761  ALA762  ILE779  LEU786  VAL792 
 PHE793  MET794  SER795  GLU796  ALA797  LYS798  CYS799  TRP800  GLU811  SER814 

> <Gold.Protein.RotatedAtoms>
  151.7469  133.3325  159.3380 H   0  0  0  0  0  0  0  0  0  0  0  0  # atno 6907 bound_to 6896
  150.7551  134.6228  159.6154 H   0  0  0  0  0  0  0  0  0  0  0  0  # atno 6908 bound_to 6896
  152.3494  134.7028  160.0292 H   0  0  0  0  0  0  0  0  0  0  0  0  # atno 6909 bound_to 6896
  145.6124  139.2371  143.2184 H   0  0  0  0  0  0  0  0  0  0  0  0  # atno 7974 bound_to 7965
  154.7004  140.0529  157.0452 H   0  0  0  0  0  0  0  0  0  0  0  0  # atno 8008 bound_to 7997
  155.0693  140.3198  155.4616 H   0  0  0  0  0  0  0  0  0  0  0  0  # atno 8009 bound_to 7997
  156.2758  140.2084  156.5821 H   0  0  0  0  0  0  0  0  0  0  0  0  # atno 8010 bound_to 7997
  140.7134  143.5658  150.9146 H   0  0  0  0  0  0  0  0  0  0  0  0  # atno 10167 bound_to 10162
  156.0652  130.4252  150.1608 H   0  0  0  0  0  0  0  0  0  0  0  0  # atno 10718 bound_to 10713
  153.0012  135.5435  154.6325 H   0  0  0  0  0  0  0  0  0  0  0  0  # atno 10763 bound_to 10752
  154.5599  135.2833  155.0931 H   0  0  0  0  0  0  0  0  0  0  0  0  # atno 10764 bound_to 10752
  154.2138  135.6462  153.5176 H   0  0  0  0  0  0  0  0  0  0  0  0  # atno 10765 bound_to 10752
  140.0432  134.5844  155.9356 H   0  0  0  0  0  0  0  0  0  0  0  0  # atno 11005 bound_to 11000
  146.1494  140.6947  142.9329 LP  0  0  0  0  0  0  0  0  0  0  0  0  # atno 17320 bound_to 7965
  144.7264  140.4538  143.6970 LP  0  0  0  0  0  0  0  0  0  0  0  0  # atno 17321 bound_to 7965
  139.9383  143.6411  152.3060 LP  0  0  0  0  0  0  0  0  0  0  0  0  # atno 17342 bound_to 10162
  139.6887  144.7649  151.1477 LP  0  0  0  0  0  0  0  0  0  0  0  0  # atno 17343 bound_to 10162
  156.9669  130.9822  151.3467 LP  0  0  0  0  0  0  0  0  0  0  0  0  # atno 17370 bound_to 10713
  157.5688  130.8296  149.8364 LP  0  0  0  0  0  0  0  0  0  0  0  0  # atno 17371 bound_to 10713
  141.1893  133.6565  156.5364 LP  0  0  0  0  0  0  0  0  0  0  0  0  # atno 17394 bound_to 11000
  140.4036  134.7335  157.4794 LP  0  0  0  0  0  0  0  0  0  0  0  0  # atno 17395 bound_to 11000

$$$$
