AV-unprocessed.smi:701|AV-procd|sdf|3412|dock2
  -GOLD-   22720 0393D 1   1.00000     0.00000
 Structure written by MMmdl.
 48 50  0  0  0  0  0  0  0  0  2 V2000
  152.6706  138.1123  155.6941 C   0  0  0  0  0  0  0  0  0  0  0  0
  152.0706  139.3752  155.0726 C   0  0  0  0  0  0  0  0  0  0  0  0
  150.6893  139.4250  155.3869 O   0  0  0  0  0  0  0  0  0  0  0  0
  150.0911  140.6789  155.0820 C   0  0  2  0  0  0  0  0  0  0  0  0
  150.3692  141.7288  156.1656 C   0  0  0  0  0  0  0  0  0  0  0  0
  149.0988  141.2259  156.8522 C   0  0  1  0  0  0  0  0  0  0  0  0
  148.3154  142.3070  157.4344 N   0  0  0  0  0  0  0  0  0  0  0  0
  147.3195  142.1478  158.3203 C   0  0  0  0  0  0  0  0  0  0  0  0
  147.0054  141.0502  158.7794 O   0  0  0  0  0  0  0  0  0  0  0  0
  146.5375  143.3985  158.7581 C   0  0  0  0  0  0  0  0  0  0  0  0
  145.4948  143.1471  159.7703 N   0  0  0  0  0  0  0  0  0  0  0  0
  145.6485  143.7542  161.0292 C   0  0  0  0  0  0  0  0  0  0  0  0
  144.7358  143.6023  162.0075 C   0  0  0  0  0  0  0  0  0  0  0  0
  143.5620  142.7822  161.7350 C   0  0  0  0  0  0  0  0  0  0  0  0
  142.7161  142.6360  162.6149 O   0  0  0  0  0  0  0  0  0  0  0  0
  143.4592  142.2122  160.4989 N   0  5  0  0  0  0  0  0  0  0  0  0
  144.3948  142.3758  159.5132 C   0  0  0  0  0  0  0  0  0  0  0  0
  144.2765  141.8614  158.4010 O   0  0  0  0  0  0  0  0  0  0  0  0
  148.5890  140.7356  155.4716 C   0  0  0  0  0  0  0  0  0  0  0  0
  147.8218  139.4015  155.4826 C   0  0  0  0  0  0  0  0  0  0  0  0
  147.5701  138.8502  154.0695 C   0  0  0  0  0  0  0  0  0  0  0  0
  146.7845  139.8553  153.2173 C   0  0  0  0  0  0  0  0  0  0  0  0
  147.4632  141.2312  153.2115 C   0  0  0  0  0  0  0  0  0  0  0  0
  147.7354  141.7257  154.6430 C   0  0  0  0  0  0  0  0  0  0  0  0
  153.7355  138.0370  155.4732 H   0  0  0  0  0  0  0  0  0  0  0  0
  152.1838  137.2169  155.3068 H   0  0  0  0  0  0  0  0  0  0  0  0
  152.5527  138.1167  156.7779 H   0  0  0  0  0  0  0  0  0  0  0  0
  152.5838  140.2578  155.4563 H   0  0  0  0  0  0  0  0  0  0  0  0
  152.2074  139.3583  153.9905 H   0  0  0  0  0  0  0  0  0  0  0  0
  150.2958  141.0180  154.0655 H   0  0  0  0  0  0  0  0  0  0  0  0
  151.2826  141.5786  156.7411 H   0  0  0  0  0  0  0  0  0  0  0  0
  150.2940  142.7520  155.7930 H   0  0  0  0  0  0  0  0  0  0  0  0
  149.3129  140.4059  157.5418 H   0  0  0  0  0  0  0  0  0  0  0  0
  148.5064  143.2421  157.1036 H   0  0  0  0  0  0  0  0  0  0  0  0
  147.2474  144.1403  159.1278 H   0  0  0  0  0  0  0  0  0  0  0  0
  146.0966  143.8488  157.8680 H   0  0  0  0  0  0  0  0  0  0  0  0
  146.5416  144.3505  161.1462 H   0  0  0  0  0  0  0  0  0  0  0  0
  144.8672  144.0786  162.9678 H   0  0  0  0  0  0  0  0  0  0  0  0
  148.3573  138.6529  156.0669 H   0  0  0  0  0  0  0  0  0  0  0  0
  146.8653  139.5298  155.9911 H   0  0  0  0  0  0  0  0  0  0  0  0
  148.5232  138.6259  153.5891 H   0  0  0  0  0  0  0  0  0  0  0  0
  147.0244  137.9083  154.1292 H   0  0  0  0  0  0  0  0  0  0  0  0
  146.6804  139.4836  152.1974 H   0  0  0  0  0  0  0  0  0  0  0  0
  145.7739  139.9537  153.6156 H   0  0  0  0  0  0  0  0  0  0  0  0
  148.3987  141.1746  152.6548 H   0  0  0  0  0  0  0  0  0  0  0  0
  146.8359  141.9504  152.6841 H   0  0  0  0  0  0  0  0  0  0  0  0
  146.7782  141.8980  155.1370 H   0  0  0  0  0  0  0  0  0  0  0  0
  148.2146  142.7038  154.5900 H   0  0  0  0  0  0  0  0  0  0  0  0
  1  2  1  0  0  0  0
  1 25  1  0  0  0  0
  1 26  1  0  0  0  0
  1 27  1  0  0  0  0
  2  3  1  0  0  0  0
  2 28  1  0  0  0  0
  2 29  1  0  0  0  0
  3  4  1  0  0  0  0
  4 19  1  0  0  0  0
  4  5  1  0  0  0  0
  4 30  1  0  0  0  0
  5  6  1  0  0  0  0
  5 31  1  0  0  0  0
  5 32  1  0  0  0  0
  6  7  1  0  0  0  0
  6 19  1  0  0  0  0
  6 33  1  0  0  0  0
  7  8  1  0  0  0  0
  7 34  1  0  0  0  0
  8  9  2  0  0  0  0
  8 10  1  0  0  0  0
 10 11  1  0  0  0  0
 10 35  1  0  0  0  0
 10 36  1  0  0  0  0
 11 17  1  0  0  0  0
 11 12  1  0  0  0  0
 12 13  2  0  0  0  0
 12 37  1  0  0  0  0
 13 14  1  0  0  0  0
 13 38  1  0  0  0  0
 14 15  2  0  0  0  0
 14 16  1  0  0  0  0
 16 17  1  0  0  0  0
 17 18  2  0  0  0  0
 19 24  1  0  0  0  0
 19 20  1  0  0  0  0
 20 21  1  0  0  0  0
 20 39  1  0  0  0  0
 20 40  1  0  0  0  0
 21 22  1  0  0  0  0
 21 41  1  0  0  0  0
 21 42  1  0  0  0  0
 22 23  1  0  0  0  0
 22 43  1  0  0  0  0
 22 44  1  0  0  0  0
 23 24  1  0  0  0  0
 23 45  1  0  0  0  0
 23 46  1  0  0  0  0
 24 47  1  0  0  0  0
 24 48  1  0  0  0  0
M  CHG  1  16  -1
M  END
> <s_m_source_file>
AV-unprocessed.smi

> <i_m_source_file_index>
701

> <i_lp_mmshare_version>
43012

> <i_f3d_flags>
0

> <s_epik_input>
W0NIMl0xW0NIMl1bQ0gyXVtDSDJdW0NIMl1DMTJbQ0BIXShPW0NIMl1bQ0gzXSlbQ0gyXVtDQEhdMltOSF1DKD1PKVtDSDJdbjNbY0hdW2NIXWMoPU8pW25IXWMzPU8=

> <s_epik_cmdline>
J2VwaWtfcHl0aG9uJywgJy1waCcsICc3LjAnLCAnLXRuJywgJzgnLCAnLW1hJywgJzIwMCcsICctbWV0YWxfYmluZGluZycsICctaW1hZScsICc8aW5maWxlLm1hZT4nLCAnLW9tYWUnLCAnPG91dGZpbGUubWFlPic=

> <r_lp_tautomer_probability>
0.999537

> <r_epik_Ionization_Penalty>
3.12423

> <r_epik_Ionization_Penalty_Charging>
2.92877e-08

> <r_epik_Ionization_Penalty_Neutral>
3.12423

> <r_epik_State_Penalty>
3.12332

> <r_epik_Charging_Adjusted_Penalty>
3.12332

> <i_epik_Tot_Q>
-1

> <i_epik_Tot_abs_Q>
1

> <r_epik_Metal_State_Penalty>
0.463873

> <b_epik_Metal_Only>
1

> <s_lp_Force_Field>
OPLS_2005

> <r_lp_Energy>
34.5124

> <b_lp_Chiralities_Consistent>
1

> <s_lp_Variant>
AV-unprocessed.smi:701-5

> <Gold.Version>
5.8.1

> <Gold.Id.Protein>
6NUR|6NUR_protein|mol2

> <Gold.PLP.Fitness>
37.1134

> <Gold.PLP.PLP>
-33.5992

> <Gold.PLP.part.hbond>
-3.7686

> <Gold.PLP.part.metal>
0.0000

> <Gold.PLP.part.buried>
-2.6748

> <Gold.PLP.part.nonpolar>
-27.9977

> <Gold.PLP.part.repulsive>
0.1100

> <Gold.PLP.ligand.clash>
0.0000

> <Gold.PLP.ligand.torsion>
0.4171

> <Gold.PLP.Chemscore.Hbond>
1.3360

> <Gold.PLP.Chemscore.CHOScore>
0.0000

> <Gold.PLP.Chemscore.Metal>
0.0000

> <Gold.Chemscore.Hbonds>
donor molecule, donor type, donor heavy atom, donor atom, acceptor molecule, acceptor atom, score
      L1  H     7    34       P1  8028  0.86
      P1  H  6934  6946       L1     9  0.27

> <Gold.PLP.Chemscore.Internal.Correction>
0.3404

> <Gold.Rescore>
     Score         DG    S(hbond)    S(metal)    S(lipo)     H(rot)  DE(clash)    DE(int)     intcor
     10.83     -11.97       0.94        0.00      73.28       2.04       0.29       0.85       ----

> <Gold.Chemscore.Fitness>
10.8336

> <Gold.Chemscore.DG>
-11.9668

> <Gold.Chemscore.ZeroCoef>
-5.4800

> <Gold.Chemscore.Hbond>
0.9388

> <Gold.Chemscore.Metal>
0.0000

> <Gold.Chemscore.Lipo>
73.2778

> <Gold.Chemscore.Internal_Hbond>
0.0000

> <Gold.Chemscore.DEClash>
0.2858

> <Gold.Chemscore.DEInternal>
0.8474

> <Gold.Chemscore.Rot>
2.0399

> <Gold.Chemscore.Internal.Correction>
   9.000000E+99

> <Gold.Chemscore.Hbonds>
donor molecule, donor type, donor heavy atom, donor atom, acceptor molecule, acceptor atom, score
      L1  H     7    34       P1  8028  0.25
      P1  H  6934  6946       L1     9  0.25

> <Gold.Chemscore.Hbond.Weighted>
-3.1355

> <Gold.Chemscore.Metal.Weighted>
-0.0000

> <Gold.Chemscore.Lipo.Weighted>
-8.5735

> <Gold.Chemscore.Internal_Hbond.Weighted>
0.0000

> <Gold.Chemscore.DEClash.Weighted>
0.2858

> <Gold.Chemscore.DEInternal.Weighted>
0.8474

> <Gold.Chemscore.Rot.Weighted>
5.2222

> <Gold.Chemscore.Internal.Correction.Weighted>
   9.000000E+99

> <Gold.Protein.RotatedTorsions>
[ 6907 6896 6895 6894 ] final  134.03 input  -60.11 | X-H torsion
[ 7974 7965 7964 7962 ] final   13.02 input  175.53 | X-H torsion
[ 8008 7997 7996 7995 ] final  137.76 input   59.86 | X-H torsion
[ 10167 10162 10161 10158 ] final -168.90 input  -65.29 | X-H torsion
[ 10718 10713 10712 10709 ] final -118.03 input   66.30 | X-H torsion
[ 10763 10752 10751 10750 ] final  136.60 input  -60.55 | X-H torsion
[ 11005 11000 10999 10996 ] final  -65.92 input  -57.11 | X-H torsion

> <Gold.Protein.ActiveResidues>
 VAL166  LYS551  ARG553  GLY616  TRP617  ASP618  TYR619  PRO620  LYS621  CYS622 
 ASP623  PHE694  ASN695  SER759  ASP760  ASP761  ALA762  ILE779  LEU786  VAL792 
 PHE793  MET794  SER795  GLU796  ALA797  LYS798  CYS799  TRP800  GLU811  SER814 

> <Gold.Protein.RotatedAtoms>
  152.3157  133.5800  159.5710 H   0  0  0  0  0  0  0  0  0  0  0  0  # atno 6907 bound_to 6896
  150.7345  134.0086  159.3671 H   0  0  0  0  0  0  0  0  0  0  0  0  # atno 6908 bound_to 6896
  151.7975  135.0719  160.0446 H   0  0  0  0  0  0  0  0  0  0  0  0  # atno 6909 bound_to 6896
  146.2338  139.9250  142.8504 H   0  0  0  0  0  0  0  0  0  0  0  0  # atno 7974 bound_to 7965
  156.3001  140.2411  156.3963 H   0  0  0  0  0  0  0  0  0  0  0  0  # atno 8008 bound_to 7997
  154.8568  140.0421  157.1659 H   0  0  0  0  0  0  0  0  0  0  0  0  # atno 8009 bound_to 7997
  154.8939  140.2967  155.5359 H   0  0  0  0  0  0  0  0  0  0  0  0  # atno 8010 bound_to 7997
  139.5956  144.1119  152.1685 H   0  0  0  0  0  0  0  0  0  0  0  0  # atno 10167 bound_to 10162
  156.1076  130.6223  150.9239 H   0  0  0  0  0  0  0  0  0  0  0  0  # atno 10718 bound_to 10713
  153.8592  135.3069  155.3437 H   0  0  0  0  0  0  0  0  0  0  0  0  # atno 10763 bound_to 10752
  154.7856  135.4811  153.9942 H   0  0  0  0  0  0  0  0  0  0  0  0  # atno 10764 bound_to 10752
  153.1472  135.6836  153.9031 H   0  0  0  0  0  0  0  0  0  0  0  0  # atno 10765 bound_to 10752
  141.1468  133.6690  156.6060 H   0  0  0  0  0  0  0  0  0  0  0  0  # atno 11005 bound_to 11000
  145.2100  140.9891  143.4106 LP  0  0  0  0  0  0  0  0  0  0  0  0  # atno 17320 bound_to 7965
  144.9699  139.3890  143.6314 LP  0  0  0  0  0  0  0  0  0  0  0  0  # atno 17321 bound_to 7965
  140.0703  144.5784  150.7196 LP  0  0  0  0  0  0  0  0  0  0  0  0  # atno 17342 bound_to 10162
  140.7209  143.2588  151.4281 LP  0  0  0  0  0  0  0  0  0  0  0  0  # atno 17343 bound_to 10162
  157.6255  131.0926  150.8542 LP  0  0  0  0  0  0  0  0  0  0  0  0  # atno 17370 bound_to 10713
  156.8658  130.5129  149.5300 LP  0  0  0  0  0  0  0  0  0  0  0  0  # atno 17371 bound_to 10713
  140.3651  134.7654  157.4560 LP  0  0  0  0  0  0  0  0  0  0  0  0  # atno 17394 bound_to 11000
  140.0754  134.5804  155.8596 LP  0  0  0  0  0  0  0  0  0  0  0  0  # atno 17395 bound_to 11000

$$$$
