AV-unprocessed.smi:99|AV-procd|sdf|886|dock9
  -GOLD-   2262017363D 1   1.00000     0.00000
 Structure written by MMmdl.
 52 55  0  0  0  0  0  0  0  0  2 V2000
  146.0976  135.0099  157.0940 O   0  0  0  0  0  0  0  0  0  0  0  0
  146.6823  135.8325  157.8017 C   0  0  0  0  0  0  0  0  0  0  0  0
  147.3685  136.8834  157.3130 O   0  0  0  0  0  0  0  0  0  0  0  0
  147.5426  137.0273  155.9140 C   0  0  0  0  0  0  0  0  0  0  0  0
  146.6389  138.1669  155.4028 C   0  0  1  0  0  0  0  0  0  0  0  0
  147.3099  139.4218  155.4828 O   0  0  0  0  0  0  0  0  0  0  0  0
  148.0690  139.6679  154.3311 C   0  0  1  0  0  0  0  0  0  0  0  0
  149.5403  139.4189  154.6350 N   0  0  0  0  0  0  0  0  0  0  0  0
  150.1405  138.2069  154.3252 C   0  0  0  0  0  0  0  0  0  0  0  0
  151.4335  137.9607  154.6176 C   0  0  0  0  0  0  0  0  0  0  0  0
  152.2189  138.9822  155.3013 C   0  0  0  0  0  0  0  0  0  0  0  0
  153.4093  138.7701  155.5234 O   0  0  0  0  0  0  0  0  0  0  0  0
  151.5875  140.1319  155.6738 N   0  5  0  0  0  0  0  0  0  0  0  0
  150.2727  140.3728  155.3978 C   0  0  0  0  0  0  0  0  0  0  0  0
  149.6830  141.3794  155.7904 O   0  0  0  0  0  0  0  0  0  0  0  0
  147.5126  138.7191  153.2408 C   0  0  2  0  0  0  0  0  0  0  0  0
  147.0866  139.4255  152.0943 O   0  0  0  0  0  0  0  0  0  0  0  0
  146.3051  138.0791  153.9115 C   0  0  1  0  0  0  0  0  0  0  0  0
  146.1408  136.7403  153.4580 O   0  0  0  0  0  0  0  0  0  0  0  0
  145.1478  136.4177  152.6030 C   0  0  0  0  0  0  0  0  0  0  0  0
  144.1814  137.1466  152.3712 O   0  0  0  0  0  0  0  0  0  0  0  0
  145.3392  135.0788  151.9751 C   0  0  0  0  0  0  0  0  0  0  0  0
  144.5299  134.7056  150.8767 C   0  0  0  0  0  0  0  0  0  0  0  0
  144.6890  133.4477  150.2635 C   0  0  0  0  0  0  0  0  0  0  0  0
  145.6584  132.5471  150.7420 C   0  0  0  0  0  0  0  0  0  0  0  0
  146.4684  132.9058  151.8351 C   0  0  0  0  0  0  0  0  0  0  0  0
  146.3113  134.1634  152.4493 C   0  0  0  0  0  0  0  0  0  0  0  0
  146.7109  135.7652  159.2908 C   0  0  0  0  0  0  0  0  0  0  0  0
  146.2008  134.6184  159.9424 C   0  0  0  0  0  0  0  0  0  0  0  0
  146.2193  134.5241  161.3474 C   0  0  0  0  0  0  0  0  0  0  0  0
  146.7495  135.5750  162.1181 C   0  0  0  0  0  0  0  0  0  0  0  0
  147.2611  136.7207  161.4818 C   0  0  0  0  0  0  0  0  0  0  0  0
  147.2430  136.8171  160.0768 C   0  0  0  0  0  0  0  0  0  0  0  0
  148.5875  137.2180  155.6677 H   0  0  0  0  0  0  0  0  0  0  0  0
  147.2681  136.0852  155.4382 H   0  0  0  0  0  0  0  0  0  0  0  0
  145.7247  138.1957  155.9963 H   0  0  0  0  0  0  0  0  0  0  0  0
  148.0215  140.7272  154.0731 H   0  0  0  0  0  0  0  0  0  0  0  0
  149.5770  137.4226  153.8449 H   0  0  0  0  0  0  0  0  0  0  0  0
  151.8794  137.0101  154.3637 H   0  0  0  0  0  0  0  0  0  0  0  0
  148.2519  137.9599  152.9810 H   0  0  0  0  0  0  0  0  0  0  0  0
  147.8497  139.8101  151.6885 H   0  0  0  0  0  0  0  0  0  0  0  0
  145.4177  138.6810  153.7063 H   0  0  0  0  0  0  0  0  0  0  0  0
  143.7783  135.3801  150.4922 H   0  0  0  0  0  0  0  0  0  0  0  0
  144.0660  133.1738  149.4249 H   0  0  0  0  0  0  0  0  0  0  0  0
  145.7802  131.5828  150.2712 H   0  0  0  0  0  0  0  0  0  0  0  0
  147.2128  132.2155  152.2039 H   0  0  0  0  0  0  0  0  0  0  0  0
  146.9498  134.4062  153.2863 H   0  0  0  0  0  0  0  0  0  0  0  0
  145.7897  133.7982  159.3714 H   0  0  0  0  0  0  0  0  0  0  0  0
  145.8262  133.6439  161.8340 H   0  0  0  0  0  0  0  0  0  0  0  0
  146.7640  135.5023  163.1956 H   0  0  0  0  0  0  0  0  0  0  0  0
  147.6689  137.5280  162.0721 H   0  0  0  0  0  0  0  0  0  0  0  0
  147.6460  137.7094  159.6206 H   0  0  0  0  0  0  0  0  0  0  0  0
  1  2  2  0  0  0  0
  2  3  1  0  0  0  0
  2 28  1  0  0  0  0
  3  4  1  0  0  0  0
  4  5  1  0  0  0  0
  4 34  1  0  0  0  0
  4 35  1  0  0  0  0
  5 18  1  0  0  0  0
  5  6  1  0  0  0  0
  5 36  1  0  0  0  0
  6  7  1  0  0  0  0
  7  8  1  0  0  0  0
  7 16  1  0  0  0  0
  7 37  1  0  0  0  0
  8 14  1  0  0  0  0
  8  9  1  0  0  0  0
  9 10  2  0  0  0  0
  9 38  1  0  0  0  0
 10 11  1  0  0  0  0
 10 39  1  0  0  0  0
 11 12  2  0  0  0  0
 11 13  1  0  0  0  0
 13 14  1  0  0  0  0
 14 15  2  0  0  0  0
 16 17  1  0  0  0  0
 16 18  1  0  0  0  0
 16 40  1  0  0  0  0
 17 41  1  0  0  0  0
 18 19  1  0  0  0  0
 18 42  1  0  0  0  0
 19 20  1  0  0  0  0
 20 21  2  0  0  0  0
 20 22  1  0  0  0  0
 22 27  1  0  0  0  0
 22 23  2  0  0  0  0
 23 24  1  0  0  0  0
 23 43  1  0  0  0  0
 24 25  2  0  0  0  0
 24 44  1  0  0  0  0
 25 26  1  0  0  0  0
 25 45  1  0  0  0  0
 26 27  2  0  0  0  0
 26 46  1  0  0  0  0
 27 47  1  0  0  0  0
 28 33  1  0  0  0  0
 28 29  2  0  0  0  0
 29 30  1  0  0  0  0
 29 48  1  0  0  0  0
 30 31  2  0  0  0  0
 30 49  1  0  0  0  0
 31 32  1  0  0  0  0
 31 50  1  0  0  0  0
 32 33  2  0  0  0  0
 32 51  1  0  0  0  0
 33 52  1  0  0  0  0
M  CHG  1  13  -1
M  END
> <s_m_source_file>
AV-unprocessed.smi

> <i_m_source_file_index>
99

> <i_lp_mmshare_version>
43012

> <i_f3d_flags>
0

> <s_epik_input>
W2NIXTFbY0hdW2NIXVtjSF1bY0hdYzFDKD1PKU9bQ0gyXVtDQEBIXTJPW0NAQEhdKG4zW2NIXVtjSF1jKD1PKVtuSF1jMz1PKVtDQEBIXShbT0hdKVtDQEhdMk9DKD1PKWM0W2NIXVtjSF1bY0hdW2NIXVtjSF00

> <s_epik_cmdline>
J2VwaWtfcHl0aG9uJywgJy1waCcsICc3LjAnLCAnLXRuJywgJzgnLCAnLW1hJywgJzIwMCcsICctbWV0YWxfYmluZGluZycsICctaW1hZScsICc8aW5maWxlLm1hZT4nLCAnLW9tYWUnLCAnPG91dGZpbGUubWFlPic=

> <r_lp_tautomer_probability>
1

> <r_epik_Ionization_Penalty>
2.89159

> <r_epik_Ionization_Penalty_Charging>
2.1077e-08

> <r_epik_Ionization_Penalty_Neutral>
2.89159

> <r_epik_State_Penalty>
2.88671

> <r_epik_Charging_Adjusted_Penalty>
2.88671

> <i_epik_Tot_Q>
-1

> <i_epik_Tot_abs_Q>
1

> <r_epik_Metal_State_Penalty>
0.0727308

> <b_epik_Metal_Only>
1

> <s_epik_Chemistry_Notes>
This compound has an ester and may undergo hydrolysis at high or low pH. This compound contains an acetal/aminal-like group ( X-CH(R)-Y where X, Y are N, S, or O) that may be acid/base labile, releasing an aldehyde.

> <s_lp_Force_Field>
OPLS_2005

> <r_lp_Energy>
40.5539

> <b_lp_Chiralities_Consistent>
1

> <s_lp_Variant>
AV-unprocessed.smi:99-22

> <Gold.Version>
5.8.1

> <Gold.Id.Protein>
6NUR|6NUR_protein|mol2

> <Gold.PLP.Fitness>
53.3199

> <Gold.PLP.PLP>
-48.1931

> <Gold.PLP.part.hbond>
-3.0000

> <Gold.PLP.part.metal>
0.0000

> <Gold.PLP.part.buried>
-6.2181

> <Gold.PLP.part.nonpolar>
-38.9477

> <Gold.PLP.part.repulsive>
0.4040

> <Gold.PLP.ligand.clash>
0.0000

> <Gold.PLP.ligand.torsion>
2.0509

> <Gold.PLP.Chemscore.Hbond>
1.9760

> <Gold.PLP.Chemscore.CHOScore>
1.0000

> <Gold.PLP.Chemscore.Metal>
0.0000

> <Gold.Chemscore.Hbonds>
donor molecule, donor type, donor heavy atom, donor atom, acceptor molecule, acceptor atom, score
      L1  H    17    41       P1  7957  1.00
      P1  H  7997  8009       L1    12  0.96
      L1  C     9    38       P1  7948  1.00

> <Gold.PLP.Chemscore.Internal.Correction>
0.3007

> <Gold.Rescore>
     Score         DG    S(hbond)    S(metal)    S(lipo)     H(rot)  DE(clash)    DE(int)     intcor
     13.11     -14.93       1.90        0.00      95.25       3.13       0.17       1.65       ----

> <Gold.Chemscore.Fitness>
13.1056

> <Gold.Chemscore.DG>
-14.9297

> <Gold.Chemscore.ZeroCoef>
-5.4800

> <Gold.Chemscore.Hbond>
1.8952

> <Gold.Chemscore.Metal>
0.0000

> <Gold.Chemscore.Lipo>
95.2508

> <Gold.Chemscore.Internal_Hbond>
0.0000

> <Gold.Chemscore.DEClash>
0.1696

> <Gold.Chemscore.DEInternal>
1.6544

> <Gold.Chemscore.Rot>
3.1346

> <Gold.Chemscore.Internal.Correction>
   9.000000E+99

> <Gold.Chemscore.Hbonds>
donor molecule, donor type, donor heavy atom, donor atom, acceptor molecule, acceptor atom, score
      L1  H    17    41       P1  7957  1.00
      P1  H  7997  8009       L1    12  0.88

> <Gold.Chemscore.Hbond.Weighted>
-6.3299

> <Gold.Chemscore.Metal.Weighted>
-0.0000

> <Gold.Chemscore.Lipo.Weighted>
-11.1443

> <Gold.Chemscore.Internal_Hbond.Weighted>
0.0000

> <Gold.Chemscore.DEClash.Weighted>
0.1696

> <Gold.Chemscore.DEInternal.Weighted>
1.6544

> <Gold.Chemscore.Rot.Weighted>
8.0246

> <Gold.Chemscore.Internal.Correction.Weighted>
   9.000000E+99

> <Gold.Protein.RotatedTorsions>
[ 6907 6896 6895 6894 ] final -133.21 input  -60.11 | X-H torsion
[ 7974 7965 7964 7962 ] final  -40.40 input  175.53 | X-H torsion
[ 8008 7997 7996 7995 ] final -141.17 input   59.86 | X-H torsion
[ 10167 10162 10161 10158 ] final  163.27 input  -65.29 | X-H torsion
[ 10718 10713 10712 10709 ] final -132.24 input   66.30 | X-H torsion
[ 10763 10752 10751 10750 ] final   12.33 input  -60.55 | X-H torsion
[ 11005 11000 10999 10996 ] final -162.22 input  -57.11 | X-H torsion

> <Gold.Protein.ActiveResidues>
 VAL166  LYS551  ARG553  GLY616  TRP617  ASP618  TYR619  PRO620  LYS621  CYS622 
 ASP623  PHE694  ASN695  SER759  ASP760  ASP761  ALA762  ILE779  LEU786  VAL792 
 PHE793  MET794  SER795  GLU796  ALA797  LYS798  CYS799  TRP800  GLU811  SER814 

> <Gold.Protein.RotatedAtoms>
  150.9714  133.6340  159.2737 H   0  0  0  0  0  0  0  0  0  0  0  0  # atno 6907 bound_to 6896
  151.3628  135.0906  159.9449 H   0  0  0  0  0  0  0  0  0  0  0  0  # atno 6908 bound_to 6896
  152.5184  133.9284  159.7623 H   0  0  0  0  0  0  0  0  0  0  0  0  # atno 6909 bound_to 6896
  146.0308  140.6733  142.9133 H   0  0  0  0  0  0  0  0  0  0  0  0  # atno 7974 bound_to 7965
  155.4735  140.0554  157.2976 H   0  0  0  0  0  0  0  0  0  0  0  0  # atno 8008 bound_to 7997
  154.4689  140.2031  155.9999 H   0  0  0  0  0  0  0  0  0  0  0  0  # atno 8009 bound_to 7997
  156.1022  140.3217  155.7962 H   0  0  0  0  0  0  0  0  0  0  0  0  # atno 8010 bound_to 7997
  139.4871  144.4354  151.9018 H   0  0  0  0  0  0  0  0  0  0  0  0  # atno 10167 bound_to 10162
  156.2325  130.7046  151.0873 H   0  0  0  0  0  0  0  0  0  0  0  0  # atno 10718 bound_to 10713
  153.1833  135.6831  153.8448 H   0  0  0  0  0  0  0  0  0  0  0  0  # atno 10763 bound_to 10752
  153.7773  135.3187  155.3362 H   0  0  0  0  0  0  0  0  0  0  0  0  # atno 10764 bound_to 10752
  154.8073  135.4740  154.0521 H   0  0  0  0  0  0  0  0  0  0  0  0  # atno 10765 bound_to 10752
  140.6117  134.4842  157.5216 H   0  0  0  0  0  0  0  0  0  0  0  0  # atno 11005 bound_to 11000
  144.7030  140.3733  143.7141 LP  0  0  0  0  0  0  0  0  0  0  0  0  # atno 17320 bound_to 7965
  145.7043  139.1669  143.2575 LP  0  0  0  0  0  0  0  0  0  0  0  0  # atno 17321 bound_to 7965
  140.3804  144.2744  150.5909 LP  0  0  0  0  0  0  0  0  0  0  0  0  # atno 17342 bound_to 10162
  140.5239  143.2259  151.8346 LP  0  0  0  0  0  0  0  0  0  0  0  0  # atno 17343 bound_to 10162
  157.7139  131.0720  150.6398 LP  0  0  0  0  0  0  0  0  0  0  0  0  # atno 17370 bound_to 10713
  156.6466  130.4473  149.5733 LP  0  0  0  0  0  0  0  0  0  0  0  0  # atno 17371 bound_to 10713
  139.9189  134.8188  156.1274 LP  0  0  0  0  0  0  0  0  0  0  0  0  # atno 17394 bound_to 11000
  141.0803  133.6757  156.2323 LP  0  0  0  0  0  0  0  0  0  0  0  0  # atno 17395 bound_to 11000

$$$$
