AV-unprocessed.smi:2059|AV-procd|sdf|8353|dock8
  -GOLD-   2272011 23D 1   1.00000     0.00000
 Structure written by MMmdl.
 29 30  0  0  0  0  0  0  0  0  2 V2000
  155.1237  135.1886  164.3185 C   0  0  0  0  0  0  0  0  0  0  0  0
  154.8165  135.7810  162.9861 C   0  0  0  0  0  0  0  0  0  0  0  0
  154.4308  137.0310  162.5914 C   0  0  0  0  0  0  0  0  0  0  0  0
  154.3150  136.9057  161.1806 C   0  0  0  0  0  0  0  0  0  0  0  0
  153.9279  138.0302  160.3960 N   0  0  0  0  0  0  0  0  0  0  0  0
  154.1141  138.3182  159.0897 C   0  0  0  0  0  0  0  0  0  0  0  0
  154.7321  137.4614  158.4496 O   0  0  0  0  0  0  0  0  0  0  0  0
  153.6209  139.4961  158.6079 N   0  5  0  0  0  0  0  0  0  0  0  0
  152.9198  140.5086  159.4008 C   0  0  1  0  0  0  0  0  0  0  0  0
  153.9189  141.3368  160.2327 C   0  0  0  0  0  0  0  0  0  0  0  0
  153.2013  142.5870  160.7628 C   0  0  0  0  0  0  0  0  0  0  0  0
  151.9496  143.0203  159.4929 S   0  0  0  0  0  0  0  0  0  0  0  0
  150.6193  143.0408  160.1217 O   0  0  0  0  0  0  0  0  0  0  0  0
  152.4255  144.1670  158.7035 O   0  0  0  0  0  0  0  0  0  0  0  0
  152.1442  141.4860  158.5039 C   0  0  0  0  0  0  0  0  0  0  0  0
  154.6052  135.6834  160.7569 N   0  0  0  0  0  0  0  0  0  0  0  0
  154.9283  134.9582  161.9094 O   0  0  0  0  0  0  0  0  0  0  0  0
  154.6346  135.7491  165.1153 H   0  0  0  0  0  0  0  0  0  0  0  0
  156.1971  135.1996  164.5065 H   0  0  0  0  0  0  0  0  0  0  0  0
  154.7804  134.1553  164.3734 H   0  0  0  0  0  0  0  0  0  0  0  0
  154.2599  137.8965  163.2141 H   0  0  0  0  0  0  0  0  0  0  0  0
  153.4353  138.7447  160.9107 H   0  0  0  0  0  0  0  0  0  0  0  0
  152.2120  140.0589  160.0992 H   0  0  0  0  0  0  0  0  0  0  0  0
  154.3521  140.7520  161.0448 H   0  0  0  0  0  0  0  0  0  0  0  0
  154.7453  141.6552  159.5951 H   0  0  0  0  0  0  0  0  0  0  0  0
  152.6805  142.3788  161.6987 H   0  0  0  0  0  0  0  0  0  0  0  0
  153.8794  143.4249  160.9232 H   0  0  0  0  0  0  0  0  0  0  0  0
  152.7127  141.7375  157.6077 H   0  0  0  0  0  0  0  0  0  0  0  0
  151.1690  141.1037  158.2028 H   0  0  0  0  0  0  0  0  0  0  0  0
  1  2  1  0  0  0  0
  1 18  1  0  0  0  0
  1 19  1  0  0  0  0
  1 20  1  0  0  0  0
  2 17  1  0  0  0  0
  2  3  2  0  0  0  0
  3  4  1  0  0  0  0
  3 21  1  0  0  0  0
  4  5  1  0  0  0  0
  4 16  2  0  0  0  0
  5  6  1  0  0  0  0
  5 22  1  0  0  0  0
  6  7  2  0  0  0  0
  6  8  1  0  0  0  0
  8  9  1  0  0  0  0
  9 15  1  0  0  0  0
  9 10  1  0  0  0  0
  9 23  1  0  0  0  0
 10 11  1  0  0  0  0
 10 24  1  0  0  0  0
 10 25  1  0  0  0  0
 11 12  1  0  0  0  0
 11 26  1  0  0  0  0
 11 27  1  0  0  0  0
 12 13  2  0  0  0  0
 12 14  2  0  0  0  0
 12 15  1  0  0  0  0
 15 28  1  0  0  0  0
 15 29  1  0  0  0  0
 16 17  1  0  0  0  0
M  CHG  1   8  -1
M  END
> <s_m_source_file>
AV-unprocessed.smi

> <i_m_source_file_index>
2059

> <i_lp_mmshare_version>
43012

> <i_f3d_flags>
0

> <s_epik_input>
W0NIM11jMVtjSF1jKG5vMSlbTkhdQyg9TylbTkhdW0NAQEhdKFtDSDJdMilbQ0gyXVtDSDJdUzIoPU8pPU8=

> <s_epik_cmdline>
J2VwaWtfcHl0aG9uJywgJy1waCcsICc3LjAnLCAnLXRuJywgJzgnLCAnLW1hJywgJzIwMCcsICctbWV0YWxfYmluZGluZycsICctaW1hZScsICc8aW5maWxlLm1hZT4nLCAnLW9tYWUnLCAnPG91dGZpbGUubWFlPic=

> <r_lp_tautomer_probability>
1

> <r_epik_Ionization_Penalty>
6.6071

> <r_epik_Ionization_Penalty_Charging>
6.60709

> <r_epik_Ionization_Penalty_Neutral>
5.42629e-06

> <r_epik_State_Penalty>
6.6352

> <r_epik_Charging_Adjusted_Penalty>
13.2423

> <i_epik_Tot_Q>
-1

> <i_epik_Tot_abs_Q>
1

> <r_epik_Metal_State_Penalty>
2.57602

> <b_epik_Metal_Only>
1

> <s_lp_Force_Field>
OPLS_2005

> <r_lp_Energy>
11.3948

> <b_lp_Chiralities_Consistent>
1

> <s_lp_Variant>
AV-unprocessed.smi:2059-6

> <Gold.Version>
5.8.1

> <Gold.Id.Protein>
6NUR|6NUR_protein|mol2

> <Gold.PLP.Fitness>
36.8593

> <Gold.PLP.PLP>
-29.2444

> <Gold.PLP.part.hbond>
-2.7086

> <Gold.PLP.part.metal>
0.0000

> <Gold.PLP.part.buried>
-4.6040

> <Gold.PLP.part.nonpolar>
-21.5336

> <Gold.PLP.part.repulsive>
0.1124

> <Gold.PLP.ligand.clash>
0.0000

> <Gold.PLP.ligand.torsion>
0.3390

> <Gold.PLP.Chemscore.Hbond>
2.7638

> <Gold.PLP.Chemscore.CHOScore>
0.0000

> <Gold.PLP.Chemscore.Metal>
0.0000

> <Gold.Chemscore.Hbonds>
donor molecule, donor type, donor heavy atom, donor atom, acceptor molecule, acceptor atom, score
      P1  H  7997  8008       L1     8  2.00

> <Gold.PLP.Chemscore.Internal.Correction>
0.0017

> <Gold.Rescore>
     Score         DG    S(hbond)    S(metal)    S(lipo)     H(rot)  DE(clash)    DE(int)     intcor
     14.63     -15.55       1.70        0.00      59.44       1.00       0.20       0.71       ----

> <Gold.Chemscore.Fitness>
14.6340

> <Gold.Chemscore.DG>
-15.5467

> <Gold.Chemscore.ZeroCoef>
-5.4800

> <Gold.Chemscore.Hbond>
1.6982

> <Gold.Chemscore.Metal>
0.0000

> <Gold.Chemscore.Lipo>
59.4435

> <Gold.Chemscore.Internal_Hbond>
0.0000

> <Gold.Chemscore.DEClash>
0.2034

> <Gold.Chemscore.DEInternal>
0.7093

> <Gold.Chemscore.Rot>
1.0000

> <Gold.Chemscore.Internal.Correction>
   9.000000E+99

> <Gold.Chemscore.Hbonds>
donor molecule, donor type, donor heavy atom, donor atom, acceptor molecule, acceptor atom, score
      P1  H  6896  6909       L1    16  0.01
      P1  H  7997  8008       L1     8  0.49

> <Gold.Chemscore.Hbond.Weighted>
-5.6718

> <Gold.Chemscore.Metal.Weighted>
-0.0000

> <Gold.Chemscore.Lipo.Weighted>
-6.9549

> <Gold.Chemscore.Internal_Hbond.Weighted>
0.0000

> <Gold.Chemscore.DEClash.Weighted>
0.2034

> <Gold.Chemscore.DEInternal.Weighted>
0.7093

> <Gold.Chemscore.Rot.Weighted>
2.5600

> <Gold.Chemscore.Internal.Correction.Weighted>
   9.000000E+99

> <Gold.Protein.RotatedTorsions>
[ 6907 6896 6895 6894 ] final -177.51 input  -60.11 | X-H torsion
[ 7974 7965 7964 7962 ] final   84.92 input  175.53 | X-H torsion
[ 8008 7997 7996 7995 ] final -105.25 input   59.86 | X-H torsion
[ 10167 10162 10161 10158 ] final  121.23 input  -65.29 | X-H torsion
[ 10718 10713 10712 10709 ] final  -83.82 input   66.30 | X-H torsion
[ 10763 10752 10751 10750 ] final  -54.15 input  -60.55 | X-H torsion
[ 11005 11000 10999 10996 ] final  118.95 input  -57.11 | X-H torsion

> <Gold.Protein.ActiveResidues>
 VAL166  LYS551  ARG553  GLY616  TRP617  ASP618  TYR619  PRO620  LYS621  CYS622 
 ASP623  PHE694  ASN695  SER759  ASP760  ASP761  ALA762  ILE779  LEU786  VAL792 
 PHE793  MET794  SER795  GLU796  ALA797  LYS798  CYS799  TRP800  GLU811  SER814 

> <Gold.Protein.RotatedAtoms>
  151.6222  133.3338  159.3090 H   0  0  0  0  0  0  0  0  0  0  0  0  # atno 6907 bound_to 6896
  150.8100  134.7252  159.6690 H   0  0  0  0  0  0  0  0  0  0  0  0  # atno 6908 bound_to 6896
  152.4196  134.5984  160.0045 H   0  0  0  0  0  0  0  0  0  0  0  0  # atno 6909 bound_to 6896
  145.5924  139.2340  143.2292 H   0  0  0  0  0  0  0  0  0  0  0  0  # atno 7974 bound_to 7965
  154.8971  140.0414  157.1872 H   0  0  0  0  0  0  0  0  0  0  0  0  # atno 8008 bound_to 7997
  154.8481  140.2925  155.5595 H   0  0  0  0  0  0  0  0  0  0  0  0  # atno 8009 bound_to 7997
  156.2995  140.2470  156.3435 H   0  0  0  0  0  0  0  0  0  0  0  0  # atno 8010 bound_to 7997
  139.5932  144.7033  151.3238 H   0  0  0  0  0  0  0  0  0  0  0  0  # atno 10167 bound_to 10162
  156.0013  130.4678  150.4315 H   0  0  0  0  0  0  0  0  0  0  0  0  # atno 10718 bound_to 10713
  154.1702  135.6460  153.5007 H   0  0  0  0  0  0  0  0  0  0  0  0  # atno 10763 bound_to 10752
  153.0086  135.5381  154.6621 H   0  0  0  0  0  0  0  0  0  0  0  0  # atno 10764 bound_to 10752
  154.5958  135.2938  155.0560 H   0  0  0  0  0  0  0  0  0  0  0  0  # atno 10765 bound_to 10752
  139.9128  134.9624  156.7581 H   0  0  0  0  0  0  0  0  0  0  0  0  # atno 11005 bound_to 11000
  146.1637  140.6750  142.9265 LP  0  0  0  0  0  0  0  0  0  0  0  0  # atno 17320 bound_to 7965
  144.7345  140.4770  143.6913 LP  0  0  0  0  0  0  0  0  0  0  0  0  # atno 17321 bound_to 7965
  140.7191  143.7186  150.7713 LP  0  0  0  0  0  0  0  0  0  0  0  0  # atno 17342 bound_to 10162
  140.0746  143.5027  152.2562 LP  0  0  0  0  0  0  0  0  0  0  0  0  # atno 17343 bound_to 10162
  157.2363  131.0515  151.2463 LP  0  0  0  0  0  0  0  0  0  0  0  0  # atno 17370 bound_to 10713
  157.3663  130.7157  149.6535 LP  0  0  0  0  0  0  0  0  0  0  0  0  # atno 17371 bound_to 10713
  140.6719  133.9552  155.7861 LP  0  0  0  0  0  0  0  0  0  0  0  0  # atno 17394 bound_to 11000
  141.0571  134.0400  157.3708 LP  0  0  0  0  0  0  0  0  0  0  0  0  # atno 17395 bound_to 11000

$$$$
