AV-unprocessed.smi:3025|AV-procd|sdf|11508|dock1
  -GOLD-   2272016443D 1   1.00000     0.00000
 Structure written by MMmdl.
 42 43  0  0  0  0  0  0  0  0  2 V2000
  152.1631  144.2257  160.6999 C   0  0  0  0  0  0  0  0  0  0  0  0
  151.7704  144.9721  159.4203 C   0  0  0  0  0  0  0  0  0  0  0  0
  152.1707  144.2065  158.1478 C   0  0  0  0  0  0  0  0  0  0  0  0
  151.4173  142.8755  157.9454 C   0  0  2  0  0  0  0  0  0  0  0  0
  151.6805  142.2485  156.5592 C   0  0  0  0  0  0  0  0  0  0  0  0
  150.8977  140.9380  156.3657 C   0  0  0  0  0  0  0  0  0  0  0  0
  149.3810  141.1223  156.5843 C   0  0  2  0  0  0  0  0  0  0  0  0
  148.7495  141.9268  155.5123 N   0  3  0  0  0  0  0  0  0  0  0  0
  147.3108  141.6742  155.2900 C   0  0  0  0  0  0  0  0  0  0  0  0
  146.9592  141.7890  153.8010 C   0  0  0  0  0  0  0  0  0  0  0  0
  147.1132  140.4874  153.0865 C   0  0  0  0  0  0  0  0  0  0  0  0
  147.8035  139.4817  153.6266 N   0  0  0  0  0  0  0  0  0  0  0  0
  147.6616  138.5114  152.6976 N   0  0  0  0  0  0  0  0  0  0  0  0
  146.9083  138.9773  151.7024 C   0  0  0  0  0  0  0  0  0  0  0  0
  146.5117  140.2302  151.8851 N   0  0  0  0  0  0  0  0  0  0  0  0
  149.1171  141.7627  157.9597 C   0  0  0  0  0  0  0  0  0  0  0  0
  149.9022  143.0718  158.1548 C   0  0  0  0  0  0  0  0  0  0  0  0
  151.8706  144.7910  161.5851 H   0  0  0  0  0  0  0  0  0  0  0  0
  153.2407  144.0669  160.7490 H   0  0  0  0  0  0  0  0  0  0  0  0
  151.6773  143.2510  160.7523 H   0  0  0  0  0  0  0  0  0  0  0  0
  150.6947  145.1449  159.4339 H   0  0  0  0  0  0  0  0  0  0  0  0
  152.2429  145.9550  159.4210 H   0  0  0  0  0  0  0  0  0  0  0  0
  151.9783  144.8516  157.2894 H   0  0  0  0  0  0  0  0  0  0  0  0
  153.2464  144.0249  158.1511 H   0  0  0  0  0  0  0  0  0  0  0  0
  151.7656  142.1752  158.7063 H   0  0  0  0  0  0  0  0  0  0  0  0
  151.4126  142.9568  155.7743 H   0  0  0  0  0  0  0  0  0  0  0  0
  152.7425  142.0400  156.4327 H   0  0  0  0  0  0  0  0  0  0  0  0
  151.1078  140.5185  155.3821 H   0  0  0  0  0  0  0  0  0  0  0  0
  151.2685  140.2025  157.0809 H   0  0  0  0  0  0  0  0  0  0  0  0
  148.9034  140.1415  156.5798 H   0  0  0  0  0  0  0  0  0  0  0  0
  148.8457  142.8995  155.7665 H   0  0  0  0  0  0  0  0  0  0  0  0
  147.0478  140.6802  155.6512 H   0  0  0  0  0  0  0  0  0  0  0  0
  146.7251  142.3934  155.8644 H   0  0  0  0  0  0  0  0  0  0  0  0
  145.9311  142.1352  153.6849 H   0  0  0  0  0  0  0  0  0  0  0  0
  147.5934  142.5363  153.3214 H   0  0  0  0  0  0  0  0  0  0  0  0
  146.6425  138.3913  150.8349 H   0  0  0  0  0  0  0  0  0  0  0  0
  148.0500  141.9430  158.0943 H   0  0  0  0  0  0  0  0  0  0  0  0
  149.4043  141.0590  158.7422 H   0  0  0  0  0  0  0  0  0  0  0  0
  149.7132  143.4558  159.1580 H   0  0  0  0  0  0  0  0  0  0  0  0
  149.5299  143.8301  157.4649 H   0  0  0  0  0  0  0  0  0  0  0  0
  149.2527  141.7712  154.6504 H   0  0  0  0  0  0  0  0  0  0  0  0
  148.0724  137.5925  152.7859 H   0  0  0  0  0  0  0  0  0  0  0  0
  1  2  1  0  0  0  0
  1 18  1  0  0  0  0
  1 19  1  0  0  0  0
  1 20  1  0  0  0  0
  2  3  1  0  0  0  0
  2 21  1  0  0  0  0
  2 22  1  0  0  0  0
  3  4  1  0  0  0  0
  3 23  1  0  0  0  0
  3 24  1  0  0  0  0
  4 17  1  0  0  0  0
  4  5  1  0  0  0  0
  4 25  1  0  0  0  0
  5  6  1  0  0  0  0
  5 26  1  0  0  0  0
  5 27  1  0  0  0  0
  6  7  1  0  0  0  0
  6 28  1  0  0  0  0
  6 29  1  0  0  0  0
  7  8  1  0  0  0  0
  7 16  1  0  0  0  0
  7 30  1  0  0  0  0
  8  9  1  0  0  0  0
  8 31  1  0  0  0  0
  8 41  1  0  0  0  0
  9 10  1  0  0  0  0
  9 32  1  0  0  0  0
  9 33  1  0  0  0  0
 10 34  1  0  0  0  0
 10 35  1  0  0  0  0
 10 11  1  0  0  0  0
 11 15  1  0  0  0  0
 11 12  2  0  0  0  0
 12 13  1  0  0  0  0
 13 14  1  0  0  0  0
 13 42  1  0  0  0  0
 14 15  2  0  0  0  0
 14 36  1  0  0  0  0
 16 17  1  0  0  0  0
 16 37  1  0  0  0  0
 16 38  1  0  0  0  0
 17 39  1  0  0  0  0
 17 40  1  0  0  0  0
M  CHG  1   8   1
M  END
> <s_m_source_file>
AV-unprocessed.smi

> <i_m_source_file_index>
3025

> <i_lp_mmshare_version>
43012

> <i_f3d_flags>
0

> <s_epik_input>
W0NIM11bQ0gyXVtDSDJdW0NAQEhdMVtDSDJdW0NIMl1bQ0BIXShbQ0gyXVtDSDJdMSlbTkhdW0NIMl1bQ0gyXWMybm5bY0hdW25IXTI=

> <s_epik_cmdline>
J2VwaWtfcHl0aG9uJywgJy1waCcsICc3LjAnLCAnLXRuJywgJzgnLCAnLW1hJywgJzIwMCcsICctbWV0YWxfYmluZGluZycsICctaW1hZScsICc8aW5maWxlLm1hZT4nLCAnLW9tYWUnLCAnPG91dGZpbGUubWFlPic=

> <r_epik_Ionization_Penalty>
0.00995411

> <r_epik_Ionization_Penalty_Charging>
0.000442289

> <r_epik_Ionization_Penalty_Neutral>
0.00951182

> <r_epik_State_Penalty>
0.448541

> <r_epik_Charging_Adjusted_Penalty>
0.448983

> <i_epik_Tot_Q>
1

> <i_epik_Tot_abs_Q>
1

> <r_epik_Metal_State_Penalty>
0.682245

> <b_epik_Metal_Only>
0

> <s_lp_Force_Field>
OPLS_2005

> <r_lp_Energy>
14.0161

> <b_lp_Chiralities_Consistent>
1

> <s_lp_Variant>
AV-unprocessed.smi:3025-4

> <Gold.Version>
5.8.1

> <Gold.Id.Protein>
6NUR|6NUR_protein|mol2

> <Gold.PLP.Fitness>
39.2242

> <Gold.PLP.PLP>
-32.4050

> <Gold.PLP.part.hbond>
-3.0000

> <Gold.PLP.part.metal>
0.0000

> <Gold.PLP.part.buried>
-3.1496

> <Gold.PLP.part.nonpolar>
-28.8532

> <Gold.PLP.part.repulsive>
2.4662

> <Gold.PLP.ligand.clash>
0.0000

> <Gold.PLP.ligand.torsion>
0.9902

> <Gold.PLP.Chemscore.Hbond>
2.8800

> <Gold.PLP.Chemscore.CHOScore>
0.0277

> <Gold.PLP.Chemscore.Metal>
0.0000

> <Gold.Chemscore.Hbonds>
donor molecule, donor type, donor heavy atom, donor atom, acceptor molecule, acceptor atom, score
      L1  H     8    31       P1  8028  2.00
      L1  H    13    42       P1  7948  0.86

> <Gold.PLP.Chemscore.Internal.Correction>
0.0764

> <Gold.Rescore>
     Score         DG    S(hbond)    S(metal)    S(lipo)     H(rot)  DE(clash)    DE(int)     intcor
     11.42     -15.03       1.69        0.00      89.24       2.56       2.64       0.97       ----

> <Gold.Chemscore.Fitness>
11.4178

> <Gold.Chemscore.DG>
-15.0265

> <Gold.Chemscore.ZeroCoef>
-5.4800

> <Gold.Chemscore.Hbond>
1.6945

> <Gold.Chemscore.Metal>
0.0000

> <Gold.Chemscore.Lipo>
89.2390

> <Gold.Chemscore.Internal_Hbond>
0.0000

> <Gold.Chemscore.DEClash>
2.6384

> <Gold.Chemscore.DEInternal>
0.9703

> <Gold.Chemscore.Rot>
2.5602

> <Gold.Chemscore.Internal.Correction>
   9.000000E+99

> <Gold.Chemscore.Hbonds>
donor molecule, donor type, donor heavy atom, donor atom, acceptor molecule, acceptor atom, score
      L1  H     8    31       P1  8028  1.00
      L1  H    13    42       P1  7948  0.85

> <Gold.Chemscore.Hbond.Weighted>
-5.6597

> <Gold.Chemscore.Metal.Weighted>
-0.0000

> <Gold.Chemscore.Lipo.Weighted>
-10.4410

> <Gold.Chemscore.Internal_Hbond.Weighted>
0.0000

> <Gold.Chemscore.DEClash.Weighted>
2.6384

> <Gold.Chemscore.DEInternal.Weighted>
0.9703

> <Gold.Chemscore.Rot.Weighted>
6.5542

> <Gold.Chemscore.Internal.Correction.Weighted>
   9.000000E+99

> <Gold.Protein.RotatedTorsions>
[ 6907 6896 6895 6894 ] final  173.17 input  -60.11 | X-H torsion
[ 7974 7965 7964 7962 ] final -162.58 input  175.53 | X-H torsion
[ 8008 7997 7996 7995 ] final  -49.64 input   59.86 | X-H torsion
[ 10167 10162 10161 10158 ] final    5.32 input  -65.29 | X-H torsion
[ 10718 10713 10712 10709 ] final   22.13 input   66.30 | X-H torsion
[ 10763 10752 10751 10750 ] final -162.00 input  -60.55 | X-H torsion
[ 11005 11000 10999 10996 ] final   70.55 input  -57.11 | X-H torsion

> <Gold.Protein.ActiveResidues>
 VAL166  LYS551  ARG553  GLY616  TRP617  ASP618  TYR619  PRO620  LYS621  CYS622 
 ASP623  PHE694  ASN695  SER759  ASP760  ASP761  ALA762  ILE779  LEU786  VAL792 
 PHE793  MET794  SER795  GLU796  ALA797  LYS798  CYS799  TRP800  GLU811  SER814 

> <Gold.Protein.RotatedAtoms>
  151.7725  133.3342  159.3448 H   0  0  0  0  0  0  0  0  0  0  0  0  # atno 6907 bound_to 6896
  150.7456  134.6005  159.6043 H   0  0  0  0  0  0  0  0  0  0  0  0  # atno 6908 bound_to 6896
  152.3331  134.7235  160.0335 H   0  0  0  0  0  0  0  0  0  0  0  0  # atno 6909 bound_to 6896
  144.7353  140.3233  143.6167 H   0  0  0  0  0  0  0  0  0  0  0  0  # atno 7974 bound_to 7965
  154.4047  140.1292  156.4535 H   0  0  0  0  0  0  0  0  0  0  0  0  # atno 8008 bound_to 7997
  155.7342  140.3491  155.5054 H   0  0  0  0  0  0  0  0  0  0  0  0  # atno 8009 bound_to 7997
  155.9099  140.1034  157.1277 H   0  0  0  0  0  0  0  0  0  0  0  0  # atno 8010 bound_to 7997
  140.6488  143.7595  150.7542 H   0  0  0  0  0  0  0  0  0  0  0  0  # atno 10167 bound_to 10162
  157.1481  130.6662  149.6003 H   0  0  0  0  0  0  0  0  0  0  0  0  # atno 10718 bound_to 10713
  154.7253  135.3034  154.8981 H   0  0  0  0  0  0  0  0  0  0  0  0  # atno 10763 bound_to 10752
  153.9840  135.6727  153.4755 H   0  0  0  0  0  0  0  0  0  0  0  0  # atno 10764 bound_to 10752
  153.0870  135.4979  154.8534 H   0  0  0  0  0  0  0  0  0  0  0  0  # atno 10765 bound_to 10752
  139.9591  134.7092  156.0685 H   0  0  0  0  0  0  0  0  0  0  0  0  # atno 11005 bound_to 11000
  145.7547  139.1805  143.2301 LP  0  0  0  0  0  0  0  0  0  0  0  0  # atno 17320 bound_to 7965
  146.1033  140.7517  142.9538 LP  0  0  0  0  0  0  0  0  0  0  0  0  # atno 17321 bound_to 7965
  140.1242  143.4584  152.2294 LP  0  0  0  0  0  0  0  0  0  0  0  0  # atno 17342 bound_to 10162
  139.5701  144.7458  151.3913 LP  0  0  0  0  0  0  0  0  0  0  0  0  # atno 17343 bound_to 10162
  155.9776  130.4754  150.6601 LP  0  0  0  0  0  0  0  0  0  0  0  0  # atno 17370 bound_to 10713
  157.4246  131.0841  151.1098 LP  0  0  0  0  0  0  0  0  0  0  0  0  # atno 17371 bound_to 10713
  141.1266  133.6597  156.3354 LP  0  0  0  0  0  0  0  0  0  0  0  0  # atno 17394 bound_to 11000
  140.5540  134.5999  157.5416 LP  0  0  0  0  0  0  0  0  0  0  0  0  # atno 17395 bound_to 11000

$$$$
