AV-unprocessed.smi:2931|AV-procd|sdf|11244|dock4
  -GOLD-   2272016133D 1   1.00000     0.00000
 Structure written by MMmdl.
 42 43  0  0  0  0  0  0  0  0  2 V2000
  145.5538  132.4821  149.7309 C   0  0  0  0  0  0  0  0  0  0  0  0
  146.2878  131.8290  150.8355 N   0  3  1  0  0  0  0  0  0  0  0  0
  146.8389  132.8081  151.8061 C   0  0  0  0  0  0  0  0  0  0  0  0
  147.6971  132.1097  152.8760 C   0  0  0  0  0  0  0  0  0  0  0  0
  146.9189  130.9788  153.5720 C   0  0  0  0  0  0  0  0  0  0  0  0
  146.3294  129.9999  152.5406 C   0  0  2  0  0  0  0  0  0  0  0  0
  147.4099  129.2541  151.8959 N   0  0  0  0  0  0  0  0  0  0  0  0
  147.6316  127.9394  152.0266 C   0  0  0  0  0  0  0  0  0  0  0  0
  146.9748  127.1974  152.7563 O   0  0  0  0  0  0  0  0  0  0  0  0
  148.6237  127.5255  151.2276 N   0  0  0  0  0  0  0  0  0  0  0  0
  149.0158  126.1337  151.0268 C   0  0  0  0  0  0  0  0  0  0  0  0
  148.7779  125.6399  149.5835 C   0  0  0  0  0  0  0  0  0  0  0  0
  148.0333  124.3169  149.5020 C   0  0  0  0  0  0  0  0  0  0  0  0
  147.5789  123.8196  148.2621 C   0  0  0  0  0  0  0  0  0  0  0  0
  146.9042  122.5827  148.2409 C   0  0  0  0  0  0  0  0  0  0  0  0
  146.6775  121.8424  149.3465 N   0  0  0  0  0  0  0  0  0  0  0  0
  147.1127  122.3256  150.5303 C   0  0  0  0  0  0  0  0  0  0  0  0
  147.7934  123.5527  150.6624 C   0  0  0  0  0  0  0  0  0  0  0  0
  145.4814  130.7815  151.5108 C   0  0  0  0  0  0  0  0  0  0  0  0
  144.6860  133.0266  150.1051 H   0  0  0  0  0  0  0  0  0  0  0  0
  145.2088  131.7429  149.0073 H   0  0  0  0  0  0  0  0  0  0  0  0
  146.1995  133.1854  149.2042 H   0  0  0  0  0  0  0  0  0  0  0  0
  147.4449  133.5449  151.2775 H   0  0  0  0  0  0  0  0  0  0  0  0
  146.0201  133.3520  152.2798 H   0  0  0  0  0  0  0  0  0  0  0  0
  148.5995  131.7080  152.4135 H   0  0  0  0  0  0  0  0  0  0  0  0
  148.0332  132.8375  153.6152 H   0  0  0  0  0  0  0  0  0  0  0  0
  147.5654  130.4520  154.2751 H   0  0  0  0  0  0  0  0  0  0  0  0
  146.1104  131.4096  154.1643 H   0  0  0  0  0  0  0  0  0  0  0  0
  145.6899  129.2871  153.0642 H   0  0  0  0  0  0  0  0  0  0  0  0
  148.0145  129.7753  151.2778 H   0  0  0  0  0  0  0  0  0  0  0  0
  149.1063  128.2152  150.6702 H   0  0  0  0  0  0  0  0  0  0  0  0
  150.0796  126.0681  151.2568 H   0  0  0  0  0  0  0  0  0  0  0  0
  148.5053  125.4876  151.7424 H   0  0  0  0  0  0  0  0  0  0  0  0
  148.2211  126.3927  149.0246 H   0  0  0  0  0  0  0  0  0  0  0  0
  149.7355  125.5375  149.0716 H   0  0  0  0  0  0  0  0  0  0  0  0
  147.7430  124.3703  147.3472 H   0  0  0  0  0  0  0  0  0  0  0  0
  146.5417  122.1739  147.3096 H   0  0  0  0  0  0  0  0  0  0  0  0
  146.9147  121.7146  151.3986 H   0  0  0  0  0  0  0  0  0  0  0  0
  148.1253  123.8949  151.6318 H   0  0  0  0  0  0  0  0  0  0  0  0
  144.6277  131.2464  152.0070 H   0  0  0  0  0  0  0  0  0  0  0  0
  145.0682  130.1009  150.7654 H   0  0  0  0  0  0  0  0  0  0  0  0
  147.0766  131.3575  150.4163 H   0  0  0  0  0  0  0  0  0  0  0  0
  1  2  1  0  0  0  0
  1 20  1  0  0  0  0
  1 21  1  0  0  0  0
  1 22  1  0  0  0  0
  2 19  1  0  0  0  0
  2  3  1  0  0  0  0
  2 42  1  0  0  0  0
  3  4  1  0  0  0  0
  3 23  1  0  0  0  0
  3 24  1  0  0  0  0
  4  5  1  0  0  0  0
  4 25  1  0  0  0  0
  4 26  1  0  0  0  0
  5  6  1  0  0  0  0
  5 27  1  0  0  0  0
  5 28  1  0  0  0  0
  6  7  1  0  0  0  0
  6 19  1  0  0  0  0
  6 29  1  0  0  0  0
  7  8  1  0  0  0  0
  7 30  1  0  0  0  0
  8  9  2  0  0  0  0
  8 10  1  0  0  0  0
 10 11  1  0  0  0  0
 10 31  1  0  0  0  0
 11 12  1  0  0  0  0
 11 32  1  0  0  0  0
 11 33  1  0  0  0  0
 12 13  1  0  0  0  0
 12 34  1  0  0  0  0
 12 35  1  0  0  0  0
 13 18  1  0  0  0  0
 13 14  2  0  0  0  0
 14 15  1  0  0  0  0
 14 36  1  0  0  0  0
 15 16  2  0  0  0  0
 15 37  1  0  0  0  0
 16 17  1  0  0  0  0
 17 18  2  0  0  0  0
 17 38  1  0  0  0  0
 18 39  1  0  0  0  0
 19 40  1  0  0  0  0
 19 41  1  0  0  0  0
M  CHG  1   2   1
M  END
> <s_m_source_file>
AV-unprocessed.smi

> <i_m_source_file_index>
2931

> <i_lp_mmshare_version>
43012

> <i_f3d_flags>
0

> <s_epik_input>
W0NIM11OMVtDSDJdW0NIMl1bQ0gyXVtDQEhdKFtDSDJdMSlbTkhdQyg9TylbTkhdW0NIMl1bQ0gyXWMyW2NIXVtjSF1uW2NIXVtjSF0y

> <s_epik_cmdline>
J2VwaWtfcHl0aG9uJywgJy1waCcsICc3LjAnLCAnLXRuJywgJzgnLCAnLW1hJywgJzIwMCcsICctbWV0YWxfYmluZGluZycsICctaW1hZScsICc8aW5maWxlLm1hZT4nLCAnLW9tYWUnLCAnPG91dGZpbGUubWFlPic=

> <r_epik_Ionization_Penalty>
0.0573876

> <r_epik_Ionization_Penalty_Charging>
0.00229982

> <r_epik_Ionization_Penalty_Neutral>
0.0550878

> <r_epik_State_Penalty>
0.0473925

> <r_epik_Charging_Adjusted_Penalty>
0.0496923

> <i_epik_Tot_Q>
1

> <i_epik_Tot_abs_Q>
1

> <r_epik_Metal_State_Penalty>
0.0433388

> <b_epik_Metal_Only>
0

> <s_lp_Force_Field>
OPLS_2005

> <r_lp_Energy>
20.0995

> <b_lp_Chiralities_Consistent>
1

> <s_lp_Variant>
AV-unprocessed.smi:2931-3

> <Gold.Version>
5.8.1

> <Gold.Id.Protein>
6NUR|6NUR_protein|mol2

> <Gold.PLP.Fitness>
42.9425

> <Gold.PLP.PLP>
-37.8742

> <Gold.PLP.part.hbond>
-2.2262

> <Gold.PLP.part.metal>
0.0000

> <Gold.PLP.part.buried>
-5.2566

> <Gold.PLP.part.nonpolar>
-30.5416

> <Gold.PLP.part.repulsive>
0.3046

> <Gold.PLP.ligand.clash>
0.0000

> <Gold.PLP.ligand.torsion>
0.4754

> <Gold.PLP.Chemscore.Hbond>
2.0000

> <Gold.PLP.Chemscore.CHOScore>
0.0000

> <Gold.PLP.Chemscore.Metal>
0.0000

> <Gold.Chemscore.Hbonds>
donor molecule, donor type, donor heavy atom, donor atom, acceptor molecule, acceptor atom, score
      L1  H     2    42       P1 10747  1.00
      L1  H     7    30       P1 10747  1.00

> <Gold.PLP.Chemscore.Internal.Correction>
0.0191

> <Gold.Rescore>
     Score         DG    S(hbond)    S(metal)    S(lipo)     H(rot)  DE(clash)    DE(int)     intcor
     18.02     -18.62       1.89        0.00      92.48       1.56       0.11       0.50       ----

> <Gold.Chemscore.Fitness>
18.0179

> <Gold.Chemscore.DG>
-18.6211

> <Gold.Chemscore.ZeroCoef>
-5.4800

> <Gold.Chemscore.Hbond>
1.8901

> <Gold.Chemscore.Metal>
0.0000

> <Gold.Chemscore.Lipo>
92.4760

> <Gold.Chemscore.Internal_Hbond>
0.0000

> <Gold.Chemscore.DEClash>
0.1077

> <Gold.Chemscore.DEInternal>
0.4956

> <Gold.Chemscore.Rot>
1.5592

> <Gold.Chemscore.Internal.Correction>
   9.000000E+99

> <Gold.Chemscore.Hbonds>
donor molecule, donor type, donor heavy atom, donor atom, acceptor molecule, acceptor atom, score
      L1  H     2    42       P1 10747  0.97
      L1  H     7    30       P1 10747  0.91

> <Gold.Chemscore.Hbond.Weighted>
-6.3130

> <Gold.Chemscore.Metal.Weighted>
-0.0000

> <Gold.Chemscore.Lipo.Weighted>
-10.8197

> <Gold.Chemscore.Internal_Hbond.Weighted>
0.0000

> <Gold.Chemscore.DEClash.Weighted>
0.1077

> <Gold.Chemscore.DEInternal.Weighted>
0.4956

> <Gold.Chemscore.Rot.Weighted>
3.9915

> <Gold.Chemscore.Internal.Correction.Weighted>
   9.000000E+99

> <Gold.Protein.RotatedTorsions>
[ 6907 6896 6895 6894 ] final  132.37 input  -60.11 | X-H torsion
[ 7974 7965 7964 7962 ] final  -39.21 input  175.53 | X-H torsion
[ 8008 7997 7996 7995 ] final  127.84 input   59.86 | X-H torsion
[ 10167 10162 10161 10158 ] final   63.41 input  -65.29 | X-H torsion
[ 10718 10713 10712 10709 ] final   52.85 input   66.30 | X-H torsion
[ 10763 10752 10751 10750 ] final  -78.11 input  -60.55 | X-H torsion
[ 11005 11000 10999 10996 ] final -157.75 input  -57.11 | X-H torsion

> <Gold.Protein.ActiveResidues>
 VAL166  LYS551  ARG553  GLY616  TRP617  ASP618  TYR619  PRO620  LYS621  CYS622 
 ASP623  PHE694  ASN695  SER759  ASP760  ASP761  ALA762  ILE779  LEU786  VAL792 
 PHE793  MET794  SER795  GLU796  ALA797  LYS798  CYS799  TRP800  GLU811  SER814 

> <Gold.Protein.RotatedAtoms>
  152.3331  133.5980  159.5823 H   0  0  0  0  0  0  0  0  0  0  0  0  # atno 6907 bound_to 6896
  150.7434  133.9838  159.3593 H   0  0  0  0  0  0  0  0  0  0  0  0  # atno 6908 bound_to 6896
  151.7710  135.0787  160.0411 H   0  0  0  0  0  0  0  0  0  0  0  0  # atno 6909 bound_to 6896
  146.0416  140.6600  142.9084 H   0  0  0  0  0  0  0  0  0  0  0  0  # atno 7974 bound_to 7965
  156.2901  140.2659  156.2339 H   0  0  0  0  0  0  0  0  0  0  0  0  # atno 8008 bound_to 7997
  155.0045  140.0387  157.2392 H   0  0  0  0  0  0  0  0  0  0  0  0  # atno 8009 bound_to 7997
  154.7572  140.2754  155.6249 H   0  0  0  0  0  0  0  0  0  0  0  0  # atno 8010 bound_to 7997
  140.1333  144.4622  150.6852 H   0  0  0  0  0  0  0  0  0  0  0  0  # atno 10167 bound_to 10162
  157.5113  130.8503  149.8439 H   0  0  0  0  0  0  0  0  0  0  0  0  # atno 10718 bound_to 10713
  154.5216  135.5741  153.6686 H   0  0  0  0  0  0  0  0  0  0  0  0  # atno 10763 bound_to 10752
  152.9918  135.6183  154.2746 H   0  0  0  0  0  0  0  0  0  0  0  0  # atno 10764 bound_to 10752
  154.2667  135.2854  155.2735 H   0  0  0  0  0  0  0  0  0  0  0  0  # atno 10765 bound_to 10752
  140.6612  134.4347  157.5234 H   0  0  0  0  0  0  0  0  0  0  0  0  # atno 11005 bound_to 11000
  144.7077  140.3919  143.7105 LP  0  0  0  0  0  0  0  0  0  0  0  0  # atno 17320 bound_to 7965
  145.6874  139.1631  143.2666 LP  0  0  0  0  0  0  0  0  0  0  0  0  # atno 17321 bound_to 7965
  140.6804  143.2324  151.5399 LP  0  0  0  0  0  0  0  0  0  0  0  0  # atno 17342 bound_to 10162
  139.5508  144.2400  152.1527 LP  0  0  0  0  0  0  0  0  0  0  0  0  # atno 17343 bound_to 10162
  156.0291  130.3770  150.1739 LP  0  0  0  0  0  0  0  0  0  0  0  0  # atno 17370 bound_to 10713
  156.9928  130.9898  151.3410 LP  0  0  0  0  0  0  0  0  0  0  0  0  # atno 17371 bound_to 10713
  139.9012  134.8551  156.1888 LP  0  0  0  0  0  0  0  0  0  0  0  0  # atno 17394 bound_to 11000
  141.0464  133.6911  156.1690 LP  0  0  0  0  0  0  0  0  0  0  0  0  # atno 17395 bound_to 11000

$$$$
