AV-unprocessed.smi:37|AV-procd|sdf|313|dock9
  -GOLD-   2262016133D 1   1.00000     0.00000
 Structure written by MMmdl.
 44 45  0  0  0  0  0  0  0  0  1 V2000
  147.2565  133.9915  162.6022 C   0  0  0  0  0  0  0  0  0  0  0  0
  147.5177  135.5027  162.5202 C   0  0  0  0  0  0  0  0  0  0  0  0
  147.6916  136.0158  161.0894 C   0  0  0  0  0  0  0  0  0  0  0  0
  147.9003  137.2035  160.8358 O   0  0  0  0  0  0  0  0  0  0  0  0
  147.5842  135.0275  160.1868 O   0  0  0  0  0  0  0  0  0  0  0  0
  147.3102  135.3276  158.8260 C   0  0  0  0  0  0  0  0  0  0  0  0
  148.3653  134.6485  157.9399 C   0  0  2  0  0  0  0  0  0  0  0  0
  149.6495  135.2526  158.0956 O   0  0  0  0  0  0  0  0  0  0  0  0
  150.3286  135.2957  156.8720 C   0  0  2  0  0  0  0  0  0  0  0  0
  150.5013  136.7387  156.4361 N   0  0  0  0  0  0  0  0  0  0  0  0
  150.2166  137.8129  157.2727 C   0  0  0  0  0  0  0  0  0  0  0  0
  150.3390  139.1037  156.8835 C   0  0  0  0  0  0  0  0  0  0  0  0
  150.0360  140.0883  157.7463 F   0  0  0  0  0  0  0  0  0  0  0  0
  150.7938  139.4362  155.5370 C   0  0  0  0  0  0  0  0  0  0  0  0
  150.9332  140.5735  155.0921 O   0  0  0  0  0  0  0  0  0  0  0  0
  151.0779  138.3280  154.7343 N   0  0  0  0  0  0  0  0  0  0  0  0
  150.9531  136.9930  155.1220 C   0  0  0  0  0  0  0  0  0  0  0  0
  151.2249  136.0931  154.3283 O   0  0  0  0  0  0  0  0  0  0  0  0
  149.4713  134.5325  155.8508 C   0  0  1  0  0  0  0  0  0  0  0  0
  150.0025  132.6124  155.8390 Br  0  0  0  0  0  0  0  0  0  0  0  0
  148.0763  134.6654  156.4341 C   0  0  2  0  0  0  0  0  0  0  0  0
  147.4933  135.9086  156.0586 O   0  0  0  0  0  0  0  0  0  0  0  0
  146.9554  136.0788  154.8402 C   0  0  0  0  0  0  0  0  0  0  0  0
  146.8646  135.2194  153.9639 O   0  0  0  0  0  0  0  0  0  0  0  0
  146.4671  137.5076  154.6117 C   0  0  0  0  0  0  0  0  0  0  0  0
  145.8416  137.6976  153.2227 C   0  0  0  0  0  0  0  0  0  0  0  0
  151.3980  138.5090  153.7940 H   0  0  0  0  0  0  0  0  0  0  0  0
  147.1556  133.6758  163.6406 H   0  0  0  0  0  0  0  0  0  0  0  0
  148.0763  133.4214  162.1632 H   0  0  0  0  0  0  0  0  0  0  0  0
  146.3371  133.7173  162.0838 H   0  0  0  0  0  0  0  0  0  0  0  0
  146.6935  136.0443  162.9848 H   0  0  0  0  0  0  0  0  0  0  0  0
  148.4161  135.7489  163.0866 H   0  0  0  0  0  0  0  0  0  0  0  0
  146.3140  134.9904  158.5373 H   0  0  0  0  0  0  0  0  0  0  0  0
  147.3354  136.4084  158.6860 H   0  0  0  0  0  0  0  0  0  0  0  0
  148.4716  133.6095  158.2549 H   0  0  0  0  0  0  0  0  0  0  0  0
  151.3421  134.9067  156.9875 H   0  0  0  0  0  0  0  0  0  0  0  0
  149.8724  137.6391  158.2802 H   0  0  0  0  0  0  0  0  0  0  0  0
  149.5727  134.9145  154.8346 H   0  0  0  0  0  0  0  0  0  0  0  0
  147.4246  133.8386  156.1475 H   0  0  0  0  0  0  0  0  0  0  0  0
  145.7415  137.7592  155.3855 H   0  0  0  0  0  0  0  0  0  0  0  0
  147.3088  138.1898  154.7330 H   0  0  0  0  0  0  0  0  0  0  0  0
  145.5651  138.7400  153.0656 H   0  0  0  0  0  0  0  0  0  0  0  0
  144.9376  137.0986  153.1064 H   0  0  0  0  0  0  0  0  0  0  0  0
  146.5375  137.4170  152.4312 H   0  0  0  0  0  0  0  0  0  0  0  0
  1  2  1  0  0  0  0
  1 28  1  0  0  0  0
  1 29  1  0  0  0  0
  1 30  1  0  0  0  0
  2  3  1  0  0  0  0
  2 31  1  0  0  0  0
  2 32  1  0  0  0  0
  3  4  2  0  0  0  0
  3  5  1  0  0  0  0
  5  6  1  0  0  0  0
  6  7  1  0  0  0  0
  6 33  1  0  0  0  0
  6 34  1  0  0  0  0
  7 21  1  0  0  0  0
  7  8  1  0  0  0  0
  7 35  1  0  0  0  0
  8  9  1  0  0  0  0
  9 10  1  0  0  0  0
  9 19  1  0  0  0  0
  9 36  1  0  0  0  0
 10 17  1  0  0  0  0
 10 11  1  0  0  0  0
 11 12  2  0  0  0  0
 11 37  1  0  0  0  0
 12 13  1  0  0  0  0
 12 14  1  0  0  0  0
 14 15  2  0  0  0  0
 14 16  1  0  0  0  0
 16 27  1  0  0  0  0
 16 17  1  0  0  0  0
 17 18  2  0  0  0  0
 19 20  1  0  0  0  0
 19 21  1  0  0  0  0
 19 38  1  0  0  0  0
 21 22  1  0  0  0  0
 21 39  1  0  0  0  0
 22 23  1  0  0  0  0
 23 24  2  0  0  0  0
 23 25  1  0  0  0  0
 25 26  1  0  0  0  0
 25 40  1  0  0  0  0
 25 41  1  0  0  0  0
 26 42  1  0  0  0  0
 26 43  1  0  0  0  0
 26 44  1  0  0  0  0
M  END
> <s_m_source_file>
AV-unprocessed.smi

> <i_m_source_file_index>
37

> <i_lp_mmshare_version>
43012

> <i_f3d_flags>
0

> <s_epik_input>
W0NIM11bQ0gyXUMoPU8pT1tDSDJdW0NAQEhdMU9bQ0BASF0objJbY0hdYyhGKWMoPU8pW25IXWMyPU8pW0NAQEhdKEJyKVtDQEhdMU9DKD1PKVtDSDJdW0NIM10=

> <s_epik_cmdline>
J2VwaWtfcHl0aG9uJywgJy1waCcsICc3LjAnLCAnLXRuJywgJzgnLCAnLW1hJywgJzIwMCcsICctbWV0YWxfYmluZGluZycsICctaW1hZScsICc8aW5maWxlLm1hZT4nLCAnLW9tYWUnLCAnPG91dGZpbGUubWFlPic=

> <r_lp_tautomer_probability>
0.999537

> <r_epik_Ionization_Penalty>
0.104106

> <r_epik_Ionization_Penalty_Charging>
0.104106

> <r_epik_Ionization_Penalty_Neutral>
3.94675e-16

> <r_epik_State_Penalty>
0.0940182

> <r_epik_Charging_Adjusted_Penalty>
0.198124

> <i_epik_Tot_Q>
0

> <i_epik_Tot_abs_Q>
0

> <r_epik_Metal_State_Penalty>
3.05314

> <b_epik_Metal_Only>
0

> <s_epik_Chemistry_Notes>
This compound has an ester and may undergo hydrolysis at high or low pH. This compound contains an acetal/aminal-like group ( X-CH(R)-Y where X, Y are N, S, or O) that may be acid/base labile, releasing an aldehyde.

> <s_lp_Force_Field>
OPLS_2005

> <r_lp_Energy>
21.1206

> <b_lp_Chiralities_Consistent>
1

> <s_lp_Variant>
AV-unprocessed.smi:37-11

> <Gold.Version>
5.8.1

> <Gold.Id.Protein>
6NUR|6NUR_protein|mol2

> <Gold.PLP.Fitness>
40.4018

> <Gold.PLP.PLP>
-28.0868

> <Gold.PLP.part.hbond>
-5.0000

> <Gold.PLP.part.metal>
0.0000

> <Gold.PLP.part.buried>
-5.2746

> <Gold.PLP.part.nonpolar>
-20.7094

> <Gold.PLP.part.repulsive>
2.3308

> <Gold.PLP.ligand.clash>
0.0000

> <Gold.PLP.ligand.torsion>
0.9651

> <Gold.PLP.Chemscore.Hbond>
4.6880

> <Gold.PLP.Chemscore.CHOScore>
0.0000

> <Gold.PLP.Chemscore.Metal>
0.0000

> <Gold.Chemscore.Hbonds>
donor molecule, donor type, donor heavy atom, donor atom, acceptor molecule, acceptor atom, score
      P1  H  6896  6907       L1     8  1.00
      P1  H  6931  6943       L1     4  0.86
      P1  H  6934  6947       L1     4  0.80
      P1  H  7989  7998       L1    15  0.96
      P1  H 10752 10765       L1    18  1.00

> <Gold.PLP.Chemscore.Internal.Correction>
0.1813

> <Gold.Rescore>
     Score         DG    S(hbond)    S(metal)    S(lipo)     H(rot)  DE(clash)    DE(int)     intcor
     12.83     -15.39       3.96        0.00      44.64       3.33       0.12       2.44       ----

> <Gold.Chemscore.Fitness>
12.8255

> <Gold.Chemscore.DG>
-15.3928

> <Gold.Chemscore.ZeroCoef>
-5.4800

> <Gold.Chemscore.Hbond>
3.9566

> <Gold.Chemscore.Metal>
0.0000

> <Gold.Chemscore.Lipo>
44.6430

> <Gold.Chemscore.Internal_Hbond>
0.0000

> <Gold.Chemscore.DEClash>
0.1236

> <Gold.Chemscore.DEInternal>
2.4437

> <Gold.Chemscore.Rot>
3.3303

> <Gold.Chemscore.Internal.Correction>
   9.000000E+99

> <Gold.Chemscore.Hbonds>
donor molecule, donor type, donor heavy atom, donor atom, acceptor molecule, acceptor atom, score
      P1  H  6896  6907       L1     8  0.52
      P1  H  6931  6943       L1     4  0.84
      P1  H  6934  6947       L1     4  0.79
      P1  H  7989  7998       L1    15  0.92
      P1  H 10752 10765       L1    18  0.74

> <Gold.Chemscore.Hbond.Weighted>
-13.2152

> <Gold.Chemscore.Metal.Weighted>
-0.0000

> <Gold.Chemscore.Lipo.Weighted>
-5.2232

> <Gold.Chemscore.Internal_Hbond.Weighted>
0.0000

> <Gold.Chemscore.DEClash.Weighted>
0.1236

> <Gold.Chemscore.DEInternal.Weighted>
2.4437

> <Gold.Chemscore.Rot.Weighted>
8.5256

> <Gold.Chemscore.Internal.Correction.Weighted>
   9.000000E+99

> <Gold.Protein.RotatedTorsions>
[ 6907 6896 6895 6894 ] final  -90.59 input  -60.11 | X-H torsion
[ 7974 7965 7964 7962 ] final  161.38 input  175.53 | X-H torsion
[ 8008 7997 7996 7995 ] final  -21.31 input   59.86 | X-H torsion
[ 10167 10162 10161 10158 ] final   61.54 input  -65.29 | X-H torsion
[ 10718 10713 10712 10709 ] final  103.68 input   66.30 | X-H torsion
[ 10763 10752 10751 10750 ] final  177.81 input  -60.55 | X-H torsion
[ 11005 11000 10999 10996 ] final  -63.29 input  -57.11 | X-H torsion

> <Gold.Protein.ActiveResidues>
 VAL166  LYS551  ARG553  GLY616  TRP617  ASP618  TYR619  PRO620  LYS621  CYS622 
 ASP623  PHE694  ASN695  SER759  ASP760  ASP761  ALA762  ILE779  LEU786  VAL792 
 PHE793  MET794  SER795  GLU796  ALA797  LYS798  CYS799  TRP800  GLU811  SER814 

> <Gold.Protein.RotatedAtoms>
  150.6883  134.2408  159.4471 H   0  0  0  0  0  0  0  0  0  0  0  0  # atno 6907 bound_to 6896
  152.0352  134.9742  160.0582 H   0  0  0  0  0  0  0  0  0  0  0  0  # atno 6908 bound_to 6896
  152.1265  133.4348  159.4737 H   0  0  0  0  0  0  0  0  0  0  0  0  # atno 6909 bound_to 6896
  144.7688  139.7890  143.6305 H   0  0  0  0  0  0  0  0  0  0  0  0  # atno 7974 bound_to 7965
  154.4713  140.2038  155.9987 H   0  0  0  0  0  0  0  0  0  0  0  0  # atno 8008 bound_to 7997
  156.1016  140.3243  155.7920 H   0  0  0  0  0  0  0  0  0  0  0  0  # atno 8009 bound_to 7997
  155.4788  140.0537  157.2960 H   0  0  0  0  0  0  0  0  0  0  0  0  # atno 8010 bound_to 7997
  140.1536  144.4439  150.6746 H   0  0  0  0  0  0  0  0  0  0  0  0  # atno 10167 bound_to 10162
  157.6764  131.0785  150.5592 H   0  0  0  0  0  0  0  0  0  0  0  0  # atno 10718 bound_to 10713
  154.4993  135.2783  155.1433 H   0  0  0  0  0  0  0  0  0  0  0  0  # atno 10763 bound_to 10752
  154.3073  135.6236  153.5454 H   0  0  0  0  0  0  0  0  0  0  0  0  # atno 10764 bound_to 10752
  152.9900  135.5711  154.5433 H   0  0  0  0  0  0  0  0  0  0  0  0  # atno 10765 bound_to 10752
  141.1388  133.6650  156.5657 H   0  0  0  0  0  0  0  0  0  0  0  0  # atno 11005 bound_to 11000
  146.1819  139.5015  142.9861 LP  0  0  0  0  0  0  0  0  0  0  0  0  # atno 17320 bound_to 7965
  145.6386  141.0289  143.1824 LP  0  0  0  0  0  0  0  0  0  0  0  0  # atno 17321 bound_to 7965
  140.6687  143.2277  151.5679 LP  0  0  0  0  0  0  0  0  0  0  0  0  # atno 17342 bound_to 10162
  139.5414  144.2638  152.1358 LP  0  0  0  0  0  0  0  0  0  0  0  0  # atno 17343 bound_to 10162
  156.5895  130.4325  149.5942 LP  0  0  0  0  0  0  0  0  0  0  0  0  # atno 17370 bound_to 10713
  156.2595  130.6954  151.1718 LP  0  0  0  0  0  0  0  0  0  0  0  0  # atno 17371 bound_to 10713
  140.3952  134.7405  157.4746 LP  0  0  0  0  0  0  0  0  0  0  0  0  # atno 17394 bound_to 11000
  140.0536  134.6095  155.8832 LP  0  0  0  0  0  0  0  0  0  0  0  0  # atno 17395 bound_to 11000

$$$$
