AV-unprocessed.smi:160|AV-procd|sdf|1352|dock1
  -GOLD-   2262019 53D 1   1.00000     0.00000
 Structure written by MMmdl.
 29 30  0  0  0  0  0  0  0  0  1 V2000
  140.2095  136.5981  155.5090 N   0  0  0  0  0  0  0  0  0  0  0  0
  140.9928  137.0311  154.5157 C   0  0  0  0  0  0  0  0  0  0  0  0
  141.1671  138.2274  154.2888 O   0  0  0  0  0  0  0  0  0  0  0  0
  141.6616  135.9700  153.6860 C   0  0  0  0  0  0  0  0  0  0  0  0
  141.2508  134.6688  153.7407 N   0  0  0  0  0  0  0  0  0  0  0  0
  142.1107  134.1422  152.8784 C   0  0  0  0  0  0  0  0  0  0  0  0
  142.9529  135.0284  152.3326 N   0  0  0  0  0  0  0  0  0  0  0  0
  144.0878  134.8513  151.3691 C   0  0  1  0  0  0  0  0  0  0  0  0
  144.9267  133.8490  151.8510 O   0  0  0  0  0  0  0  0  0  0  0  0
  144.4671  132.5905  151.3763 C   0  0  2  0  0  0  0  0  0  0  0  0
  145.5934  131.5503  151.4713 C   0  0  0  0  0  0  0  0  0  0  0  0
  146.7450  132.0191  150.8027 O   0  0  0  0  0  0  0  0  0  0  0  0
  144.0547  132.9162  149.9357 C   0  0  1  0  0  0  0  0  0  0  0  0
  143.0060  132.0614  149.5266 O   0  0  0  0  0  0  0  0  0  0  0  0
  143.5710  134.3665  150.0013 C   0  0  2  0  0  0  0  0  0  0  0  0
  144.1235  135.1228  148.9432 O   0  0  0  0  0  0  0  0  0  0  0  0
  142.6854  136.2426  152.8747 N   0  0  0  0  0  0  0  0  0  0  0  0
  144.5820  135.8239  151.3560 H   0  0  0  0  0  0  0  0  0  0  0  0
  143.5947  132.2753  151.9525 H   0  0  0  0  0  0  0  0  0  0  0  0
  144.9091  132.8170  149.2638 H   0  0  0  0  0  0  0  0  0  0  0  0
  142.4831  134.4374  149.9572 H   0  0  0  0  0  0  0  0  0  0  0  0
  139.7342  137.2626  156.1017 H   0  0  0  0  0  0  0  0  0  0  0  0
  140.1000  135.6058  155.6600 H   0  0  0  0  0  0  0  0  0  0  0  0
  142.1262  133.0879  152.6432 H   0  0  0  0  0  0  0  0  0  0  0  0
  145.8654  131.3884  152.5146 H   0  0  0  0  0  0  0  0  0  0  0  0
  145.2817  130.5879  151.0639 H   0  0  0  0  0  0  0  0  0  0  0  0
  147.4216  131.3631  150.8735 H   0  0  0  0  0  0  0  0  0  0  0  0
  142.2095  132.5679  149.4797 H   0  0  0  0  0  0  0  0  0  0  0  0
  144.9066  134.6884  148.6412 H   0  0  0  0  0  0  0  0  0  0  0  0
  1  2  1  0  0  0  0
  1 22  1  0  0  0  0
  1 23  1  0  0  0  0
  2  3  2  0  0  0  0
  2  4  1  0  0  0  0
  4 17  2  0  0  0  0
  4  5  1  0  0  0  0
  5  6  2  0  0  0  0
  6  7  1  0  0  0  0
  6 24  1  0  0  0  0
  7  8  1  0  0  0  0
  7 17  1  0  0  0  0
  8 18  1  0  0  0  0
  8 15  1  0  0  0  0
  8  9  1  0  0  0  0
  9 10  1  0  0  0  0
 10 19  1  0  0  0  0
 10 11  1  0  0  0  0
 10 13  1  0  0  0  0
 11 12  1  0  0  0  0
 11 25  1  0  0  0  0
 11 26  1  0  0  0  0
 12 27  1  0  0  0  0
 13 20  1  0  0  0  0
 13 14  1  0  0  0  0
 13 15  1  0  0  0  0
 14 28  1  0  0  0  0
 15 21  1  0  0  0  0
 15 16  1  0  0  0  0
 16 29  1  0  0  0  0
M  END
> <s_m_source_file>
AV-unprocessed.smi

> <i_m_source_file_index>
160

> <i_lp_mmshare_version>
43012

> <i_f3d_flags>
0

> <s_epik_input>
W05IMl1DKD1PKWMxbltjSF1uKG4xKVtDQEBIXTJPW0NASF0oW0NIMl1bT0hdKVtDQEBIXShbT0hdKVtDQEhdMltPSF0=

> <s_epik_cmdline>
J2VwaWtfcHl0aG9uJywgJy1waCcsICc3LjAnLCAnLXRuJywgJzgnLCAnLW1hJywgJzIwMCcsICctbWV0YWxfYmluZGluZycsICctaW1hZScsICc8aW5maWxlLm1hZT4nLCAnLW9tYWUnLCAnPG91dGZpbGUubWFlPic=

> <r_lp_tautomer_probability>
1

> <r_epik_Ionization_Penalty>
1.06932e-05

> <r_epik_Ionization_Penalty_Charging>
0

> <r_epik_Ionization_Penalty_Neutral>
1.06932e-05

> <r_epik_State_Penalty>
-0

> <r_epik_Charging_Adjusted_Penalty>
0

> <i_epik_Tot_Q>
0

> <i_epik_Tot_abs_Q>
0

> <r_epik_Metal_State_Penalty>
0.0142097

> <b_epik_Metal_Only>
0

> <s_epik_Chemistry_Notes>
This compound contains an acetal/aminal-like group ( X-CH(R)-Y where X, Y are N, S, or O) that may be acid/base labile, releasing an aldehyde.

> <s_lp_Force_Field>
OPLS_2005

> <r_lp_Energy>
33.6029

> <b_lp_Chiralities_Consistent>
1

> <s_lp_Variant>
AV-unprocessed.smi:160-10

> <Gold.Version>
5.8.1

> <Gold.Id.Protein>
6NUR|6NUR_protein|mol2

> <Gold.PLP.Fitness>
39.8156

> <Gold.PLP.PLP>
-25.7182

> <Gold.PLP.part.hbond>
-6.4158

> <Gold.PLP.part.metal>
0.0000

> <Gold.PLP.part.buried>
-3.1450

> <Gold.PLP.part.nonpolar>
-17.3934

> <Gold.PLP.part.repulsive>
0.6294

> <Gold.PLP.ligand.clash>
0.0000

> <Gold.PLP.ligand.torsion>
0.1754

> <Gold.PLP.Chemscore.Hbond>
4.2225

> <Gold.PLP.Chemscore.CHOScore>
0.5758

> <Gold.PLP.Chemscore.Metal>
0.0000

> <Gold.Chemscore.Hbonds>
donor molecule, donor type, donor heavy atom, donor atom, acceptor molecule, acceptor atom, score
      L1  H     1    23       P1 11000  1.00
      L1  H    12    27       P1 10747  0.90
      L1  H    14    28       P1 10186  0.59
      L1  H    16    29       P1  7921  0.86
      P1  H 10785 10796       L1    14  0.88
      L1  C     6    24       P1 10957  0.58

> <Gold.PLP.Chemscore.Internal.Correction>
0.0535

> <Gold.Rescore>
     Score         DG    S(hbond)    S(metal)    S(lipo)     H(rot)  DE(clash)    DE(int)     intcor
     10.34     -12.45       3.96        0.00      35.41       4.06       2.02       0.09       ----

> <Gold.Chemscore.Fitness>
10.3393

> <Gold.Chemscore.DG>
-12.4471

> <Gold.Chemscore.ZeroCoef>
-5.4800

> <Gold.Chemscore.Hbond>
3.9573

> <Gold.Chemscore.Metal>
0.0000

> <Gold.Chemscore.Lipo>
35.4135

> <Gold.Chemscore.Internal_Hbond>
0.0000

> <Gold.Chemscore.DEClash>
2.0210

> <Gold.Chemscore.DEInternal>
0.0868

> <Gold.Chemscore.Rot>
4.0600

> <Gold.Chemscore.Internal.Correction>
   9.000000E+99

> <Gold.Chemscore.Hbonds>
donor molecule, donor type, donor heavy atom, donor atom, acceptor molecule, acceptor atom, score
      L1  H     1    23       P1 11000  0.33
      L1  H    12    27       P1 10747  0.88
      L1  H    14    28       P1 10186  0.57
      L1  H    16    29       P1  7921  0.83
      P1  H 10785 10796       L1    14  0.83

> <Gold.Chemscore.Hbond.Weighted>
-13.2173

> <Gold.Chemscore.Metal.Weighted>
-0.0000

> <Gold.Chemscore.Lipo.Weighted>
-4.1434

> <Gold.Chemscore.Internal_Hbond.Weighted>
0.0000

> <Gold.Chemscore.DEClash.Weighted>
2.0210

> <Gold.Chemscore.DEInternal.Weighted>
0.0868

> <Gold.Chemscore.Rot.Weighted>
10.3936

> <Gold.Chemscore.Internal.Correction.Weighted>
   9.000000E+99

> <Gold.Protein.RotatedTorsions>
[ 6907 6896 6895 6894 ] final    6.27 input  -60.11 | X-H torsion
[ 7974 7965 7964 7962 ] final -138.16 input  175.53 | X-H torsion
[ 8008 7997 7996 7995 ] final   -2.21 input   59.86 | X-H torsion
[ 10167 10162 10161 10158 ] final   93.70 input  -65.29 | X-H torsion
[ 10718 10713 10712 10709 ] final   27.25 input   66.30 | X-H torsion
[ 10763 10752 10751 10750 ] final  -64.55 input  -60.55 | X-H torsion
[ 11005 11000 10999 10996 ] final  -45.18 input  -57.11 | X-H torsion

> <Gold.Protein.ActiveResidues>
 VAL166  LYS551  ARG553  GLY616  TRP617  ASP618  TYR619  PRO620  LYS621  CYS622 
 ASP623  PHE694  ASN695  SER759  ASP760  ASP761  ALA762  ILE779  LEU786  VAL792 
 PHE793  MET794  SER795  GLU796  ALA797  LYS798  CYS799  TRP800  GLU811  SER814 

> <Gold.Protein.RotatedAtoms>
  151.6709  135.0976  160.0197 H   0  0  0  0  0  0  0  0  0  0  0  0  # atno 6907 bound_to 6896
  152.3892  133.6650  159.6232 H   0  0  0  0  0  0  0  0  0  0  0  0  # atno 6908 bound_to 6896
  150.7811  133.8900  159.3352 H   0  0  0  0  0  0  0  0  0  0  0  0  # atno 6909 bound_to 6896
  144.8781  140.6467  143.5223 H   0  0  0  0  0  0  0  0  0  0  0  0  # atno 7974 bound_to 7965
  154.6382  140.2540  155.7353 H   0  0  0  0  0  0  0  0  0  0  0  0  # atno 8008 bound_to 7997
  156.2515  140.2893  156.0684 H   0  0  0  0  0  0  0  0  0  0  0  0  # atno 8009 bound_to 7997
  155.1637  140.0385  157.2838 H   0  0  0  0  0  0  0  0  0  0  0  0  # atno 8010 bound_to 7997
  139.8155  144.6755  150.9586 H   0  0  0  0  0  0  0  0  0  0  0  0  # atno 10167 bound_to 10162
  157.2177  130.6964  149.6256 H   0  0  0  0  0  0  0  0  0  0  0  0  # atno 10718 bound_to 10713
  154.3318  135.6175  153.5555 H   0  0  0  0  0  0  0  0  0  0  0  0  # atno 10763 bound_to 10752
  152.9811  135.5748  154.4953 H   0  0  0  0  0  0  0  0  0  0  0  0  # atno 10764 bound_to 10752
  154.4641  135.2857  155.1668 H   0  0  0  0  0  0  0  0  0  0  0  0  # atno 10765 bound_to 10752
  141.0499  133.6747  156.2976 H   0  0  0  0  0  0  0  0  0  0  0  0  # atno 11005 bound_to 11000
  145.4005  139.1599  143.4180 LP  0  0  0  0  0  0  0  0  0  0  0  0  # atno 17320 bound_to 7965
  146.2976  140.4101  142.8716 LP  0  0  0  0  0  0  0  0  0  0  0  0  # atno 17321 bound_to 7965
  140.7816  143.4143  151.0942 LP  0  0  0  0  0  0  0  0  0  0  0  0  # atno 17342 bound_to 10162
  139.7807  143.8360  152.3137 LP  0  0  0  0  0  0  0  0  0  0  0  0  # atno 17343 bound_to 10162
  155.9685  130.4530  150.5795 LP  0  0  0  0  0  0  0  0  0  0  0  0  # atno 17370 bound_to 10713
  157.3607  131.0749  151.1638 LP  0  0  0  0  0  0  0  0  0  0  0  0  # atno 17371 bound_to 10713
  140.6076  134.5491  157.5528 LP  0  0  0  0  0  0  0  0  0  0  0  0  # atno 17394 bound_to 11000
  139.9341  134.7907  156.0849 LP  0  0  0  0  0  0  0  0  0  0  0  0  # atno 17395 bound_to 11000

$$$$
