AV-unprocessed.smi:2807|AV-procd|sdf|10823|dock7
  -GOLD-   2272015263D 1   1.00000     0.00000
 Structure written by MMmdl.
 31 32  0  0  0  0  0  0  0  0  2 V2000
  151.2335  140.5035  155.3947 O   0  0  0  0  0  0  0  0  0  0  0  0
  150.5971  140.9805  156.3419 C   0  0  0  0  0  0  0  0  0  0  0  0
  149.3932  141.6214  156.3494 N   0  5  0  0  0  0  0  0  0  0  0  0
  148.2708  141.2653  155.4834 C   0  0  1  0  0  0  0  0  0  0  0  0
  146.9500  141.8540  155.9968 C   0  0  0  0  0  0  0  0  0  0  0  0
  146.0466  141.9787  154.7599 C   0  0  0  0  0  0  0  0  0  0  0  0
  146.9723  141.9005  153.5343 C   0  0  0  0  0  0  0  0  0  0  0  0
  148.4030  141.8972  154.0921 C   0  0  2  0  0  0  0  0  0  0  0  0
  149.2850  141.1725  153.2593 O   0  0  0  0  0  0  0  0  0  0  0  0
  151.1808  140.8434  157.7640 C   0  0  0  0  0  0  0  0  0  0  0  0
  150.2885  140.2244  158.5413 F   0  0  0  0  0  0  0  0  0  0  0  0
  152.2776  140.0793  157.7253 F   0  0  0  0  0  0  0  0  0  0  0  0
  151.4776  142.2177  158.3637 C   0  0  0  0  0  0  0  0  0  0  0  0
  151.5251  143.3650  157.5391 C   0  0  0  0  0  0  0  0  0  0  0  0
  151.8268  144.6083  158.1262 C   0  0  0  0  0  0  0  0  0  0  0  0
  152.0666  144.6637  159.5122 C   0  0  0  0  0  0  0  0  0  0  0  0
  151.9920  143.4670  160.2518 C   0  0  0  0  0  0  0  0  0  0  0  0
  151.7027  142.2704  159.6988 N   0  0  0  0  0  0  0  0  0  0  0  0
  148.1512  140.1856  155.3692 H   0  0  0  0  0  0  0  0  0  0  0  0
  146.5005  141.2418  156.7792 H   0  0  0  0  0  0  0  0  0  0  0  0
  147.1167  142.8481  156.4162 H   0  0  0  0  0  0  0  0  0  0  0  0
  145.3133  141.1711  154.7296 H   0  0  0  0  0  0  0  0  0  0  0  0
  145.4907  142.9169  154.7814 H   0  0  0  0  0  0  0  0  0  0  0  0
  146.7637  140.9822  152.9806 H   0  0  0  0  0  0  0  0  0  0  0  0
  146.8127  142.7313  152.8458 H   0  0  0  0  0  0  0  0  0  0  0  0
  148.7541  142.9275  154.1756 H   0  0  0  0  0  0  0  0  0  0  0  0
  148.7662  140.6847  152.6385 H   0  0  0  0  0  0  0  0  0  0  0  0
  151.3462  143.2887  156.4767 H   0  0  0  0  0  0  0  0  0  0  0  0
  151.8769  145.5028  157.5233 H   0  0  0  0  0  0  0  0  0  0  0  0
  152.3034  145.5992  159.9965 H   0  0  0  0  0  0  0  0  0  0  0  0
  152.1693  143.4713  161.3170 H   0  0  0  0  0  0  0  0  0  0  0  0
  1  2  2  0  0  0  0
  2  3  1  0  0  0  0
  2 10  1  0  0  0  0
  3  4  1  0  0  0  0
  4  8  1  0  0  0  0
  4  5  1  0  0  0  0
  4 19  1  0  0  0  0
  5  6  1  0  0  0  0
  5 20  1  0  0  0  0
  5 21  1  0  0  0  0
  6  7  1  0  0  0  0
  6 22  1  0  0  0  0
  6 23  1  0  0  0  0
  7  8  1  0  0  0  0
  7 24  1  0  0  0  0
  7 25  1  0  0  0  0
  8  9  1  0  0  0  0
  8 26  1  0  0  0  0
  9 27  1  0  0  0  0
 10 11  1  0  0  0  0
 10 12  1  0  0  0  0
 10 13  1  0  0  0  0
 13 18  1  0  0  0  0
 13 14  2  0  0  0  0
 14 15  1  0  0  0  0
 14 28  1  0  0  0  0
 15 16  2  0  0  0  0
 15 29  1  0  0  0  0
 16 17  1  0  0  0  0
 16 30  1  0  0  0  0
 17 18  2  0  0  0  0
 17 31  1  0  0  0  0
M  CHG  1   3  -1
M  END
> <s_m_source_file>
AV-unprocessed.smi

> <i_m_source_file_index>
2807

> <i_lp_mmshare_version>
43012

> <i_f3d_flags>
0

> <s_epik_input>
bjFbY0hdW2NIXVtjSF1bY0hdYzFDKEYpKEYpQyg9TylbTkhdW0NAQEhdMltDSDJdW0NIMl1bQ0gyXVtDQEhdMltPSF0=

> <s_epik_cmdline>
J2VwaWtfcHl0aG9uJywgJy1waCcsICc3LjAnLCAnLXRuJywgJzgnLCAnLW1hJywgJzIwMCcsICctbWV0YWxfYmluZGluZycsICctaW1hZScsICc8aW5maWxlLm1hZT4nLCAnLW9tYWUnLCAnPG91dGZpbGUubWFlPic=

> <r_lp_tautomer_probability>
1

> <r_epik_Ionization_Penalty>
5.72231

> <r_epik_Ionization_Penalty_Charging>
5.72231

> <r_epik_Ionization_Penalty_Neutral>
5.49816e-06

> <r_epik_State_Penalty>
5.72227

> <r_epik_Charging_Adjusted_Penalty>
11.4446

> <i_epik_Tot_Q>
-1

> <i_epik_Tot_abs_Q>
1

> <r_epik_Metal_State_Penalty>
1.70075

> <b_epik_Metal_Only>
1

> <s_lp_Force_Field>
OPLS_2005

> <r_lp_Energy>
34.2298

> <b_lp_Chiralities_Consistent>
1

> <s_lp_Variant>
AV-unprocessed.smi:2807-8

> <Gold.Version>
5.8.1

> <Gold.Id.Protein>
6NUR|6NUR_protein|mol2

> <Gold.PLP.Fitness>
43.1417

> <Gold.PLP.PLP>
-38.8461

> <Gold.PLP.part.hbond>
-3.6191

> <Gold.PLP.part.metal>
0.0000

> <Gold.PLP.part.buried>
-4.2996

> <Gold.PLP.part.nonpolar>
-30.1250

> <Gold.PLP.part.repulsive>
0.1396

> <Gold.PLP.ligand.clash>
0.0314

> <Gold.PLP.ligand.torsion>
1.1323

> <Gold.PLP.Chemscore.Hbond>
2.1840

> <Gold.PLP.Chemscore.CHOScore>
0.0000

> <Gold.PLP.Chemscore.Metal>
0.0000

> <Gold.Chemscore.Hbonds>
donor molecule, donor type, donor heavy atom, donor atom, acceptor molecule, acceptor atom, score
      L1  H     9    27       P1  7957  0.35
      P1  H  7989  7998       L1     1  0.91
      P1  H  8011  8017       L1     9  0.90

> <Gold.PLP.Chemscore.Internal.Correction>
0.0396

> <Gold.Rescore>
     Score         DG    S(hbond)    S(metal)    S(lipo)     H(rot)  DE(clash)    DE(int)     intcor
     14.47     -16.18       1.59        0.00      89.83       2.00       0.17       1.54       ----

> <Gold.Chemscore.Fitness>
14.4657

> <Gold.Chemscore.DG>
-16.1776

> <Gold.Chemscore.ZeroCoef>
-5.4800

> <Gold.Chemscore.Hbond>
1.5865

> <Gold.Chemscore.Metal>
0.0000

> <Gold.Chemscore.Lipo>
89.8256

> <Gold.Chemscore.Internal_Hbond>
0.0000

> <Gold.Chemscore.DEClash>
0.1702

> <Gold.Chemscore.DEInternal>
1.5417

> <Gold.Chemscore.Rot>
1.9964

> <Gold.Chemscore.Internal.Correction>
   9.000000E+99

> <Gold.Chemscore.Hbonds>
donor molecule, donor type, donor heavy atom, donor atom, acceptor molecule, acceptor atom, score
      L1  H     9    27       P1  7957  0.36
      P1  H  7989  7998       L1     1  0.87
      P1  H  8011  8017       L1     9  0.05

> <Gold.Chemscore.Hbond.Weighted>
-5.2989

> <Gold.Chemscore.Metal.Weighted>
-0.0000

> <Gold.Chemscore.Lipo.Weighted>
-10.5096

> <Gold.Chemscore.Internal_Hbond.Weighted>
0.0000

> <Gold.Chemscore.DEClash.Weighted>
0.1702

> <Gold.Chemscore.DEInternal.Weighted>
1.5417

> <Gold.Chemscore.Rot.Weighted>
5.1108

> <Gold.Chemscore.Internal.Correction.Weighted>
   9.000000E+99

> <Gold.Protein.RotatedTorsions>
[ 6907 6896 6895 6894 ] final -165.53 input  -60.11 | X-H torsion
[ 7974 7965 7964 7962 ] final   14.98 input  175.53 | X-H torsion
[ 8008 7997 7996 7995 ] final  140.98 input   59.86 | X-H torsion
[ 10167 10162 10161 10158 ] final  -97.85 input  -65.29 | X-H torsion
[ 10718 10713 10712 10709 ] final  -68.86 input   66.30 | X-H torsion
[ 10763 10752 10751 10750 ] final  175.20 input  -60.55 | X-H torsion
[ 11005 11000 10999 10996 ] final   -8.35 input  -57.11 | X-H torsion

> <Gold.Protein.ActiveResidues>
 VAL166  LYS551  ARG553  GLY616  TRP617  ASP618  TYR619  PRO620  LYS621  CYS622 
 ASP623  PHE694  ASN695  SER759  ASP760  ASP761  ALA762  ILE779  LEU786  VAL792 
 PHE793  MET794  SER795  GLU796  ALA797  LYS798  CYS799  TRP800  GLU811  SER814 

> <Gold.Protein.RotatedAtoms>
  151.4291  133.3675  159.2766 H   0  0  0  0  0  0  0  0  0  0  0  0  # atno 6907 bound_to 6896
  150.9238  134.8656  159.7517 H   0  0  0  0  0  0  0  0  0  0  0  0  # atno 6908 bound_to 6896
  152.4995  134.4231  159.9539 H   0  0  0  0  0  0  0  0  0  0  0  0  # atno 6909 bound_to 6896
  146.2291  139.8961  142.8547 H   0  0  0  0  0  0  0  0  0  0  0  0  # atno 7974 bound_to 7965
  156.2972  140.2327  156.4490 H   0  0  0  0  0  0  0  0  0  0  0  0  # atno 8008 bound_to 7997
  154.8118  140.0442  157.1369 H   0  0  0  0  0  0  0  0  0  0  0  0  # atno 8009 bound_to 7997
  154.9414  140.3030  155.5122 H   0  0  0  0  0  0  0  0  0  0  0  0  # atno 8010 bound_to 7997
  140.2792  143.3293  152.0458 H   0  0  0  0  0  0  0  0  0  0  0  0  # atno 10167 bound_to 10162
  156.0484  130.4302  150.2063 H   0  0  0  0  0  0  0  0  0  0  0  0  # atno 10718 bound_to 10713
  154.4643  135.2769  155.1690 H   0  0  0  0  0  0  0  0  0  0  0  0  # atno 10763 bound_to 10752
  154.3464  135.6159  153.5625 H   0  0  0  0  0  0  0  0  0  0  0  0  # atno 10764 bound_to 10752
  152.9858  135.5801  154.5012 H   0  0  0  0  0  0  0  0  0  0  0  0  # atno 10765 bound_to 10752
  140.7225  133.8816  155.8831 H   0  0  0  0  0  0  0  0  0  0  0  0  # atno 11005 bound_to 11000
  145.2369  140.9994  143.3958 LP  0  0  0  0  0  0  0  0  0  0  0  0  # atno 17320 bound_to 7965
  144.9484  139.4110  143.6414 LP  0  0  0  0  0  0  0  0  0  0  0  0  # atno 17321 bound_to 7965
  139.4967  144.6604  151.6478 LP  0  0  0  0  0  0  0  0  0  0  0  0  # atno 17342 bound_to 10162
  140.5826  143.9919  150.6277 LP  0  0  0  0  0  0  0  0  0  0  0  0  # atno 17343 bound_to 10162
  157.0149  130.9962  151.3355 LP  0  0  0  0  0  0  0  0  0  0  0  0  # atno 17370 bound_to 10713
  157.5384  130.8104  149.8000 LP  0  0  0  0  0  0  0  0  0  0  0  0  # atno 17371 bound_to 10713
  140.9991  134.1175  157.4335 LP  0  0  0  0  0  0  0  0  0  0  0  0  # atno 17394 bound_to 11000
  139.8845  135.0063  156.6371 LP  0  0  0  0  0  0  0  0  0  0  0  0  # atno 17395 bound_to 11000

$$$$
