AV-unprocessed.smi:1005|AV-procd|sdf|4371|dock8
  -GOLD-   22720 2283D 1   1.00000     0.00000
 Structure written by MMmdl.
 57 59  0  0  0  0  0  0  0  0  3 V2000
  152.9227  143.0187  161.4363 C   0  0  0  0  0  0  0  0  0  0  0  0
  152.2961  142.5940  160.1193 C   0  0  0  0  0  0  0  0  0  0  0  0
  152.7828  141.4373  159.4713 C   0  0  0  0  0  0  0  0  0  0  0  0
  152.2492  141.0216  158.2321 C   0  0  0  0  0  0  0  0  0  0  0  0
  152.5748  139.9382  157.4365 N   0  0  0  0  0  0  0  0  0  0  0  0
  151.7437  140.0982  156.4117 C   0  0  0  0  0  0  0  0  0  0  0  0
  150.8995  141.1474  156.4586 N   0  0  0  0  0  0  0  0  0  0  0  0
  149.9084  141.5050  155.4555 C   0  0  0  0  0  0  0  0  0  0  0  0
  149.2668  140.2818  154.7675 C   0  0  1  0  0  0  0  0  0  0  0  0
  150.1759  139.8046  153.7969 O   0  0  0  0  0  0  0  0  0  0  0  0
  148.9132  139.1301  155.7396 C   0  0  0  0  0  0  0  0  0  0  0  0
  149.7987  137.9440  155.5855 N   0  3  1  0  0  0  0  0  0  0  0  0
  150.3233  137.4338  156.8756 C   0  0  0  0  0  0  0  0  0  0  0  0
  149.2537  136.6217  157.6287 C   0  0  0  0  0  0  0  0  0  0  0  0
  148.7929  135.5598  156.8010 O   0  0  0  0  0  0  0  0  0  0  0  0
  148.1764  136.0233  155.6036 C   0  0  2  0  0  0  0  0  0  0  0  0
  147.6771  134.7973  154.8177 C   0  0  0  0  0  0  0  0  0  0  0  0
  148.7315  134.1982  153.9603 N   0  3  0  0  0  0  0  0  0  0  0  0
  149.8730  133.6511  154.7282 C   0  0  0  0  0  0  0  0  0  0  0  0
  148.1821  133.1946  153.0221 C   0  0  0  0  0  0  0  0  0  0  0  0
  149.2186  136.8261  154.7931 C   0  0  0  0  0  0  0  0  0  0  0  0
  151.2053  141.8003  157.6508 C   0  0  0  0  0  0  0  0  0  0  0  0
  150.7087  142.9507  158.2908 C   0  0  0  0  0  0  0  0  0  0  0  0
  151.2495  143.3485  159.5316 C   0  0  0  0  0  0  0  0  0  0  0  0
  150.7009  144.5886  160.2144 C   0  0  0  0  0  0  0  0  0  0  0  0
  153.5879  142.2478  161.8265 H   0  0  0  0  0  0  0  0  0  0  0  0
  152.1617  143.2132  162.1914 H   0  0  0  0  0  0  0  0  0  0  0  0
  153.5081  143.9280  161.2970 H   0  0  0  0  0  0  0  0  0  0  0  0
  153.5817  140.8627  159.9174 H   0  0  0  0  0  0  0  0  0  0  0  0
  151.7423  139.4058  155.5824 H   0  0  0  0  0  0  0  0  0  0  0  0
  149.1427  142.1166  155.9345 H   0  0  0  0  0  0  0  0  0  0  0  0
  150.3919  142.1390  154.7102 H   0  0  0  0  0  0  0  0  0  0  0  0
  148.3848  140.6260  154.2340 H   0  0  0  0  0  0  0  0  0  0  0  0
  149.7720  139.8524  152.9442 H   0  0  0  0  0  0  0  0  0  0  0  0
  148.9735  139.5102  156.7607 H   0  0  0  0  0  0  0  0  0  0  0  0
  147.8813  138.8091  155.6142 H   0  0  0  0  0  0  0  0  0  0  0  0
  151.1812  136.7928  156.6684 H   0  0  0  0  0  0  0  0  0  0  0  0
  150.6961  138.2527  157.4921 H   0  0  0  0  0  0  0  0  0  0  0  0
  149.6794  136.1973  158.5381 H   0  0  0  0  0  0  0  0  0  0  0  0
  148.4177  137.2516  157.9367 H   0  0  0  0  0  0  0  0  0  0  0  0
  147.3310  136.6645  155.8506 H   0  0  0  0  0  0  0  0  0  0  0  0
  147.2887  134.0369  155.4976 H   0  0  0  0  0  0  0  0  0  0  0  0
  146.8362  135.1098  154.1963 H   0  0  0  0  0  0  0  0  0  0  0  0
  149.5469  132.8280  155.3632 H   0  0  0  0  0  0  0  0  0  0  0  0
  150.3390  134.4069  155.3590 H   0  0  0  0  0  0  0  0  0  0  0  0
  150.6420  133.2728  154.0542 H   0  0  0  0  0  0  0  0  0  0  0  0
  147.7395  132.3561  153.5618 H   0  0  0  0  0  0  0  0  0  0  0  0
  148.9643  132.8063  152.3690 H   0  0  0  0  0  0  0  0  0  0  0  0
  147.4141  133.6372  152.3869 H   0  0  0  0  0  0  0  0  0  0  0  0
  148.7812  137.1784  153.8608 H   0  0  0  0  0  0  0  0  0  0  0  0
  150.0368  136.1647  154.5046 H   0  0  0  0  0  0  0  0  0  0  0  0
  149.9246  143.5318  157.8300 H   0  0  0  0  0  0  0  0  0  0  0  0
  149.9715  145.1000  159.5855 H   0  0  0  0  0  0  0  0  0  0  0  0
  151.5029  145.2936  160.4349 H   0  0  0  0  0  0  0  0  0  0  0  0
  150.2082  144.3198  161.1490 H   0  0  0  0  0  0  0  0  0  0  0  0
  149.0940  134.9457  153.3851 H   0  0  0  0  0  0  0  0  0  0  0  0
  150.6028  138.2790  155.0734 H   0  0  0  0  0  0  0  0  0  0  0  0
  1  2  1  0  0  0  0
  1 26  1  0  0  0  0
  1 27  1  0  0  0  0
  1 28  1  0  0  0  0
  2 24  1  0  0  0  0
  2  3  2  0  0  0  0
  3  4  1  0  0  0  0
  3 29  1  0  0  0  0
  4 22  2  0  0  0  0
  4  5  1  0  0  0  0
  5  6  2  0  0  0  0
  6  7  1  0  0  0  0
  6 30  1  0  0  0  0
  7  8  1  0  0  0  0
  7 22  1  0  0  0  0
  8  9  1  0  0  0  0
  8 31  1  0  0  0  0
  8 32  1  0  0  0  0
  9 10  1  0  0  0  0
  9 11  1  0  0  0  0
  9 33  1  0  0  0  0
 10 34  1  0  0  0  0
 11 12  1  0  0  0  0
 11 35  1  0  0  0  0
 11 36  1  0  0  0  0
 12 21  1  0  0  0  0
 12 13  1  0  0  0  0
 12 57  1  0  0  0  0
 13 14  1  0  0  0  0
 13 37  1  0  0  0  0
 13 38  1  0  0  0  0
 14 15  1  0  0  0  0
 14 39  1  0  0  0  0
 14 40  1  0  0  0  0
 15 16  1  0  0  0  0
 16 17  1  0  0  0  0
 16 21  1  0  0  0  0
 16 41  1  0  0  0  0
 17 18  1  0  0  0  0
 17 42  1  0  0  0  0
 17 43  1  0  0  0  0
 18 19  1  0  0  0  0
 18 20  1  0  0  0  0
 18 56  1  0  0  0  0
 19 44  1  0  0  0  0
 19 45  1  0  0  0  0
 19 46  1  0  0  0  0
 20 47  1  0  0  0  0
 20 48  1  0  0  0  0
 20 49  1  0  0  0  0
 21 50  1  0  0  0  0
 21 51  1  0  0  0  0
 22 23  1  0  0  0  0
 23 24  2  0  0  0  0
 23 52  1  0  0  0  0
 24 25  1  0  0  0  0
 25 53  1  0  0  0  0
 25 54  1  0  0  0  0
 25 55  1  0  0  0  0
M  CHG  1  12   1
M  CHG  1  18   1
M  END
> <s_m_source_file>
AV-unprocessed.smi

> <i_m_source_file_index>
1005

> <i_lp_mmshare_version>
43012

> <i_f3d_flags>
0

> <s_epik_input>
W0NIM11jKFtjSF0xKWMoW0NIM10pW2NIXWMoYzEyKW4oW2NIXW4yKVtDSDJdW0NASF0oW09IXSlbQ0gyXU4zW0NIMl1bQ0gyXU9bQ0BIXShbQ0gyXTMpW0NIMl1OKFtDSDNdKVtDSDNd

> <s_epik_cmdline>
J2VwaWtfcHl0aG9uJywgJy1waCcsICc3LjAnLCAnLXRuJywgJzgnLCAnLW1hJywgJzIwMCcsICctbWV0YWxfYmluZGluZycsICctaW1hZScsICc8aW5maWxlLm1hZT4nLCAnLW9tYWUnLCAnPG91dGZpbGUubWFlPic=

> <r_epik_Ionization_Penalty>
1.0968

> <r_epik_Ionization_Penalty_Charging>
1.0096

> <r_epik_Ionization_Penalty_Neutral>
0.0871956

> <r_epik_State_Penalty>
1.31185

> <r_epik_Charging_Adjusted_Penalty>
2.32145

> <i_epik_Tot_Q>
2

> <i_epik_Tot_abs_Q>
2

> <r_epik_Metal_State_Penalty>
1.22442

> <b_epik_Metal_Only>
0

> <s_lp_Force_Field>
OPLS_2005

> <r_lp_Energy>
34.2577

> <b_lp_Chiralities_Consistent>
1

> <s_lp_Variant>
AV-unprocessed.smi:1005-10

> <Gold.Version>
5.8.1

> <Gold.Id.Protein>
6NUR|6NUR_protein|mol2

> <Gold.PLP.Fitness>
51.5724

> <Gold.PLP.PLP>
-41.1085

> <Gold.PLP.part.hbond>
-4.0000

> <Gold.PLP.part.metal>
0.0000

> <Gold.PLP.part.buried>
-4.1341

> <Gold.PLP.part.nonpolar>
-33.1309

> <Gold.PLP.part.repulsive>
0.0000

> <Gold.PLP.ligand.clash>
0.0000

> <Gold.PLP.ligand.torsion>
2.1470

> <Gold.PLP.Chemscore.Hbond>
4.8960

> <Gold.PLP.Chemscore.CHOScore>
0.0000

> <Gold.PLP.Chemscore.Metal>
0.0000

> <Gold.Chemscore.Hbonds>
donor molecule, donor type, donor heavy atom, donor atom, acceptor molecule, acceptor atom, score
      L1  H    10    34       P1  7957  1.00
      L1  H    18    56       P1  7948  1.80
      P1  H  7989  7998       L1    10  0.82
      P1  H  7997  8009       L1     5  0.96

> <Gold.PLP.Chemscore.Internal.Correction>
0.0699

> <Gold.Rescore>
     Score         DG    S(hbond)    S(metal)    S(lipo)     H(rot)  DE(clash)    DE(int)     intcor
     19.36     -23.47       3.33        0.00     113.01       2.48       0.88       3.23       ----

> <Gold.Chemscore.Fitness>
19.3636

> <Gold.Chemscore.DG>
-23.4721

> <Gold.Chemscore.ZeroCoef>
-5.4800

> <Gold.Chemscore.Hbond>
3.3300

> <Gold.Chemscore.Metal>
0.0000

> <Gold.Chemscore.Lipo>
113.0109

> <Gold.Chemscore.Internal_Hbond>
0.0000

> <Gold.Chemscore.DEClash>
0.8777

> <Gold.Chemscore.DEInternal>
3.2308

> <Gold.Chemscore.Rot>
2.4814

> <Gold.Chemscore.Internal.Correction>
   9.000000E+99

> <Gold.Chemscore.Hbonds>
donor molecule, donor type, donor heavy atom, donor atom, acceptor molecule, acceptor atom, score
      L1  H    10    34       P1  7957  0.99
      L1  H    18    56       P1  7948  0.17
      P1  H  7989  7998       L1    10  0.15
      P1  H  7997  8009       L1     5  0.20

> <Gold.Chemscore.Hbond.Weighted>
-11.1222

> <Gold.Chemscore.Metal.Weighted>
-0.0000

> <Gold.Chemscore.Lipo.Weighted>
-13.2223

> <Gold.Chemscore.Internal_Hbond.Weighted>
0.0000

> <Gold.Chemscore.DEClash.Weighted>
0.8777

> <Gold.Chemscore.DEInternal.Weighted>
3.2308

> <Gold.Chemscore.Rot.Weighted>
6.3524

> <Gold.Chemscore.Internal.Correction.Weighted>
   9.000000E+99

> <Gold.Protein.RotatedTorsions>
[ 6907 6896 6895 6894 ] final -120.17 input  -60.11 | X-H torsion
[ 7974 7965 7964 7962 ] final  107.76 input  175.53 | X-H torsion
[ 8008 7997 7996 7995 ] final -168.52 input   59.86 | X-H torsion
[ 10167 10162 10161 10158 ] final -111.61 input  -65.29 | X-H torsion
[ 10718 10713 10712 10709 ] final  -95.57 input   66.30 | X-H torsion
[ 10763 10752 10751 10750 ] final  -84.94 input  -60.55 | X-H torsion
[ 11005 11000 10999 10996 ] final -142.93 input  -57.11 | X-H torsion

> <Gold.Protein.ActiveResidues>
 VAL166  LYS551  ARG553  GLY616  TRP617  ASP618  TYR619  PRO620  LYS621  CYS622 
 ASP623  PHE694  ASN695  SER759  ASP760  ASP761  ALA762  ILE779  LEU786  VAL792 
 PHE793  MET794  SER795  GLU796  ALA797  LYS798  CYS799  TRP800  GLU811  SER814 

> <Gold.Protein.RotatedAtoms>
  150.8370  133.7998  159.3075 H   0  0  0  0  0  0  0  0  0  0  0  0  # atno 6907 bound_to 6896
  151.5710  135.1061  160.0005 H   0  0  0  0  0  0  0  0  0  0  0  0  # atno 6908 bound_to 6896
  152.4440  133.7460  159.6724 H   0  0  0  0  0  0  0  0  0  0  0  0  # atno 6909 bound_to 6896
  145.2894  139.2605  143.3873 H   0  0  0  0  0  0  0  0  0  0  0  0  # atno 7974 bound_to 7965
  155.8926  140.1027  157.1408 H   0  0  0  0  0  0  0  0  0  0  0  0  # atno 8008 bound_to 7997
  154.4016  140.1308  156.4398 H   0  0  0  0  0  0  0  0  0  0  0  0  # atno 8009 bound_to 7997
  155.7516  140.3465  155.5155 H   0  0  0  0  0  0  0  0  0  0  0  0  # atno 8010 bound_to 7997
  140.1317  143.4355  152.1623 H   0  0  0  0  0  0  0  0  0  0  0  0  # atno 10167 bound_to 10162
  156.0046  130.5114  150.6096 H   0  0  0  0  0  0  0  0  0  0  0  0  # atno 10718 bound_to 10713
  154.6053  135.5503  153.7416 H   0  0  0  0  0  0  0  0  0  0  0  0  # atno 10763 bound_to 10752
  153.0172  135.6376  154.1656 H   0  0  0  0  0  0  0  0  0  0  0  0  # atno 10764 bound_to 10752
  154.1595  135.2898  155.3093 H   0  0  0  0  0  0  0  0  0  0  0  0  # atno 10765 bound_to 10752
  140.8176  134.2670  157.4914 H   0  0  0  0  0  0  0  0  0  0  0  0  # atno 11005 bound_to 11000
  146.3190  140.3382  142.8646 LP  0  0  0  0  0  0  0  0  0  0  0  0  # atno 17320 bound_to 7965
  144.9185  140.7841  143.5763 LP  0  0  0  0  0  0  0  0  0  0  0  0  # atno 17321 bound_to 7965
  139.5516  144.7342  151.4417 LP  0  0  0  0  0  0  0  0  0  0  0  0  # atno 17342 bound_to 10162
  140.6813  143.8075  150.7125 LP  0  0  0  0  0  0  0  0  0  0  0  0  # atno 17343 bound_to 10162
  157.3930  131.0798  151.1376 LP  0  0  0  0  0  0  0  0  0  0  0  0  # atno 17370 bound_to 10713
  157.2062  130.6417  149.5757 LP  0  0  0  0  0  0  0  0  0  0  0  0  # atno 17371 bound_to 10713
  139.8710  134.9517  156.4094 LP  0  0  0  0  0  0  0  0  0  0  0  0  # atno 17394 bound_to 11000
  140.9133  133.7696  155.9818 LP  0  0  0  0  0  0  0  0  0  0  0  0  # atno 17395 bound_to 11000

$$$$
