AV-unprocessed.smi:765|AV-procd|sdf|3646|dock9
  -GOLD-   22720 1 53D 1   1.00000     0.00000
 Structure written by MMmdl.
 39 40  0  0  0  0  0  0  0  0  1 V2000
  149.9379  145.1801  160.3772 C   0  0  0  0  0  0  0  0  0  0  0  0
  150.8862  144.1343  159.7738 C   0  0  1  0  0  0  0  0  0  0  0  0
  151.7546  144.7422  158.6573 C   0  0  0  0  0  0  0  0  0  0  0  0
  152.7282  143.7107  158.0699 C   0  0  0  0  0  0  0  0  0  0  0  0
  153.6023  143.0885  159.1725 C   0  0  0  0  0  0  0  0  0  0  0  0
  152.7601  142.4391  160.2988 C   0  0  2  0  0  0  0  0  0  0  0  0
  153.6439  141.9933  161.3925 C   0  0  0  0  0  0  0  0  0  0  0  0
  154.3383  141.6432  162.2493 N   0  0  0  0  0  0  0  0  0  0  0  0
  151.9783  141.3148  159.7773 N   0  0  0  0  0  0  0  0  0  0  0  0
  152.4331  140.2541  159.0898 C   0  0  0  0  0  0  0  0  0  0  0  0
  153.6280  140.0417  158.8831 O   0  0  0  0  0  0  0  0  0  0  0  0
  151.3540  139.3153  158.5293 C   0  0  2  0  0  0  0  0  0  0  0  0
  151.3251  137.9403  159.2233 C   0  0  0  0  0  0  0  0  0  0  0  0
  151.5256  139.1743  157.0884 N   0  0  0  0  0  0  0  0  0  0  0  0
  150.6351  138.6803  156.1545 C   0  0  0  0  0  0  0  0  0  0  0  0
  151.2557  138.7136  154.9390 C   0  0  0  0  0  0  0  0  0  0  0  0
  152.5404  139.2498  155.2313 C   0  0  0  0  0  0  0  0  0  0  0  0
  152.7002  139.5208  156.5166 N   0  0  0  0  0  0  0  0  0  0  0  0
  151.7755  143.4900  160.8602 C   0  0  0  0  0  0  0  0  0  0  0  0
  150.4914  145.9959  160.8435 H   0  0  0  0  0  0  0  0  0  0  0  0
  149.2966  144.7356  161.1387 H   0  0  0  0  0  0  0  0  0  0  0  0
  149.2908  145.6115  159.6131 H   0  0  0  0  0  0  0  0  0  0  0  0
  150.2656  143.3553  159.3291 H   0  0  0  0  0  0  0  0  0  0  0  0
  151.1193  145.1368  157.8633 H   0  0  0  0  0  0  0  0  0  0  0  0
  152.3189  145.5893  159.0495 H   0  0  0  0  0  0  0  0  0  0  0  0
  152.1705  142.9312  157.5498 H   0  0  0  0  0  0  0  0  0  0  0  0
  153.3612  144.1853  157.3198 H   0  0  0  0  0  0  0  0  0  0  0  0
  154.2879  142.3636  158.7330 H   0  0  0  0  0  0  0  0  0  0  0  0
  154.2343  143.8671  159.6018 H   0  0  0  0  0  0  0  0  0  0  0  0
  150.9778  141.3853  159.8942 H   0  0  0  0  0  0  0  0  0  0  0  0
  150.3894  139.7933  158.7116 H   0  0  0  0  0  0  0  0  0  0  0  0
  151.1523  138.0429  160.2952 H   0  0  0  0  0  0  0  0  0  0  0  0
  152.2605  137.3962  159.0871 H   0  0  0  0  0  0  0  0  0  0  0  0
  150.5226  137.3208  158.8221 H   0  0  0  0  0  0  0  0  0  0  0  0
  149.6467  138.3438  156.4318 H   0  0  0  0  0  0  0  0  0  0  0  0
  150.8539  138.4005  153.9869 H   0  0  0  0  0  0  0  0  0  0  0  0
  153.3573  139.4459  154.5524 H   0  0  0  0  0  0  0  0  0  0  0  0
  152.3413  144.2737  161.3665 H   0  0  0  0  0  0  0  0  0  0  0  0
  151.1476  143.0327  161.6265 H   0  0  0  0  0  0  0  0  0  0  0  0
  1  2  1  0  0  0  0
  1 20  1  0  0  0  0
  1 21  1  0  0  0  0
  1 22  1  0  0  0  0
  2 19  1  0  0  0  0
  2  3  1  0  0  0  0
  2 23  1  0  0  0  0
  3  4  1  0  0  0  0
  3 24  1  0  0  0  0
  3 25  1  0  0  0  0
  4  5  1  0  0  0  0
  4 26  1  0  0  0  0
  4 27  1  0  0  0  0
  5  6  1  0  0  0  0
  5 28  1  0  0  0  0
  5 29  1  0  0  0  0
  6  7  1  0  0  0  0
  6  9  1  0  0  0  0
  6 19  1  0  0  0  0
  7  8  3  0  0  0  0
  9 10  1  0  0  0  0
  9 30  1  0  0  0  0
 10 11  2  0  0  0  0
 10 12  1  0  0  0  0
 12 13  1  0  0  0  0
 12 14  1  0  0  0  0
 12 31  1  0  0  0  0
 13 32  1  0  0  0  0
 13 33  1  0  0  0  0
 13 34  1  0  0  0  0
 14 18  1  0  0  0  0
 14 15  1  0  0  0  0
 15 16  2  0  0  0  0
 15 35  1  0  0  0  0
 16 17  1  0  0  0  0
 16 36  1  0  0  0  0
 17 18  2  0  0  0  0
 17 37  1  0  0  0  0
 19 38  1  0  0  0  0
 19 39  1  0  0  0  0
M  END
> <s_m_source_file>
AV-unprocessed.smi

> <i_m_source_file_index>
765

> <i_lp_mmshare_version>
43012

> <i_f3d_flags>
0

> <s_epik_input>
W0NIM11bQ0BASF0oW0NIMl0xKVtDSDJdW0NIMl1bQ0gyXVtDQEBdMShDI04pW05IXUMoPU8pW0NASF0oW0NIM10pbjJbY0hdW2NIXVtjSF1uMg==

> <s_epik_cmdline>
J2VwaWtfcHl0aG9uJywgJy1waCcsICc3LjAnLCAnLXRuJywgJzgnLCAnLW1hJywgJzIwMCcsICctbWV0YWxfYmluZGluZycsICctaW1hZScsICc8aW5maWxlLm1hZT4nLCAnLW9tYWUnLCAnPG91dGZpbGUubWFlPic=

> <r_lp_tautomer_probability>
1

> <r_epik_Ionization_Penalty>
2.71142e-05

> <r_epik_Ionization_Penalty_Charging>
0

> <r_epik_Ionization_Penalty_Neutral>
2.71142e-05

> <r_epik_State_Penalty>
-0

> <r_epik_Charging_Adjusted_Penalty>
0

> <i_epik_Tot_Q>
0

> <i_epik_Tot_abs_Q>
0

> <r_epik_Metal_State_Penalty>
-0

> <b_epik_Metal_Only>
0

> <s_lp_Force_Field>
OPLS_2005

> <r_lp_Energy>
10.6921

> <b_lp_Chiralities_Consistent>
1

> <s_lp_Variant>
AV-unprocessed.smi:765-4

> <Gold.Version>
5.8.1

> <Gold.Id.Protein>
6NUR|6NUR_protein|mol2

> <Gold.PLP.Fitness>
42.4589

> <Gold.PLP.PLP>
-40.4099

> <Gold.PLP.part.hbond>
-3.0000

> <Gold.PLP.part.metal>
0.0000

> <Gold.PLP.part.buried>
-3.8417

> <Gold.PLP.part.nonpolar>
-33.2285

> <Gold.PLP.part.repulsive>
0.1579

> <Gold.PLP.ligand.clash>
0.0000

> <Gold.PLP.ligand.torsion>
0.5106

> <Gold.PLP.Chemscore.Hbond>
1.0000

> <Gold.PLP.Chemscore.CHOScore>
0.0000

> <Gold.PLP.Chemscore.Metal>
0.0000

> <Gold.Chemscore.Hbonds>
donor molecule, donor type, donor heavy atom, donor atom, acceptor molecule, acceptor atom, score
      P1  H  7997  8010       L1    18  1.00

> <Gold.PLP.Chemscore.Internal.Correction>
0.0701

> <Gold.Rescore>
     Score         DG    S(hbond)    S(metal)    S(lipo)     H(rot)  DE(clash)    DE(int)     intcor
     12.42     -16.28       0.53        0.00     108.25       1.42       0.33       3.53       ----

> <Gold.Chemscore.Fitness>
12.4242

> <Gold.Chemscore.DG>
-16.2840

> <Gold.Chemscore.ZeroCoef>
-5.4800

> <Gold.Chemscore.Hbond>
0.5299

> <Gold.Chemscore.Metal>
0.0000

> <Gold.Chemscore.Lipo>
108.2491

> <Gold.Chemscore.Internal_Hbond>
0.0000

> <Gold.Chemscore.DEClash>
0.3279

> <Gold.Chemscore.DEInternal>
3.5319

> <Gold.Chemscore.Rot>
1.4183

> <Gold.Chemscore.Internal.Correction>
   9.000000E+99

> <Gold.Chemscore.Hbonds>
donor molecule, donor type, donor heavy atom, donor atom, acceptor molecule, acceptor atom, score
      P1  H  7997  8010       L1    18  0.58

> <Gold.Chemscore.Hbond.Weighted>
-1.7698

> <Gold.Chemscore.Metal.Weighted>
-0.0000

> <Gold.Chemscore.Lipo.Weighted>
-12.6651

> <Gold.Chemscore.Internal_Hbond.Weighted>
0.0000

> <Gold.Chemscore.DEClash.Weighted>
0.3279

> <Gold.Chemscore.DEInternal.Weighted>
3.5319

> <Gold.Chemscore.Rot.Weighted>
3.6309

> <Gold.Chemscore.Internal.Correction.Weighted>
   9.000000E+99

> <Gold.Protein.RotatedTorsions>
[ 6907 6896 6895 6894 ] final  158.33 input  -60.11 | X-H torsion
[ 7974 7965 7964 7962 ] final  148.63 input  175.53 | X-H torsion
[ 8008 7997 7996 7995 ] final   52.03 input   59.86 | X-H torsion
[ 10167 10162 10161 10158 ] final  114.86 input  -65.29 | X-H torsion
[ 10718 10713 10712 10709 ] final   29.40 input   66.30 | X-H torsion
[ 10763 10752 10751 10750 ] final  -44.69 input  -60.55 | X-H torsion
[ 11005 11000 10999 10996 ] final    0.54 input  -57.11 | X-H torsion

> <Gold.Protein.ActiveResidues>
 VAL166  LYS551  ARG553  GLY616  TRP617  ASP618  TYR619  PRO620  LYS621  CYS622 
 ASP623  PHE694  ASN695  SER759  ASP760  ASP761  ALA762  ILE779  LEU786  VAL792 
 PHE793  MET794  SER795  GLU796  ALA797  LYS798  CYS799  TRP800  GLU811  SER814 

> <Gold.Protein.RotatedAtoms>
  152.0019  133.3829  159.4185 H   0  0  0  0  0  0  0  0  0  0  0  0  # atno 6907 bound_to 6896
  150.6909  134.3824  159.5049 H   0  0  0  0  0  0  0  0  0  0  0  0  # atno 6908 bound_to 6896
  152.1573  134.8940  160.0595 H   0  0  0  0  0  0  0  0  0  0  0  0  # atno 6909 bound_to 6896
  144.8499  139.6178  143.5978 H   0  0  0  0  0  0  0  0  0  0  0  0  # atno 7974 bound_to 7965
  155.4451  140.3456  155.4294 H   0  0  0  0  0  0  0  0  0  0  0  0  # atno 8008 bound_to 7997
  156.1255  140.1499  156.9173 H   0  0  0  0  0  0  0  0  0  0  0  0  # atno 8009 bound_to 7997
  154.4854  140.0857  156.7455 H   0  0  0  0  0  0  0  0  0  0  0  0  # atno 8010 bound_to 7997
  139.6358  144.7119  151.2338 H   0  0  0  0  0  0  0  0  0  0  0  0  # atno 10167 bound_to 10162
  157.2461  130.7092  149.6382 H   0  0  0  0  0  0  0  0  0  0  0  0  # atno 10718 bound_to 10713
  154.0162  135.6675  153.4769 H   0  0  0  0  0  0  0  0  0  0  0  0  # atno 10763 bound_to 10752
  153.0600  135.5033  154.8066 H   0  0  0  0  0  0  0  0  0  0  0  0  # atno 10764 bound_to 10752
  154.6965  135.3071  154.9367 H   0  0  0  0  0  0  0  0  0  0  0  0  # atno 10765 bound_to 10752
  140.6254  133.9623  155.8246 H   0  0  0  0  0  0  0  0  0  0  0  0  # atno 11005 bound_to 11000
  146.2776  139.6792  142.9252 LP  0  0  0  0  0  0  0  0  0  0  0  0  # atno 17320 bound_to 7965
  145.4521  141.0429  143.2798 LP  0  0  0  0  0  0  0  0  0  0  0  0  # atno 17321 bound_to 7965
  140.7464  143.6398  150.8345 LP  0  0  0  0  0  0  0  0  0  0  0  0  # atno 17342 bound_to 10162
  140.0029  143.5724  152.2868 LP  0  0  0  0  0  0  0  0  0  0  0  0  # atno 17343 bound_to 10162
  155.9668  130.4442  150.5453 LP  0  0  0  0  0  0  0  0  0  0  0  0  # atno 17370 bound_to 10713
  157.3327  131.0702  151.1848 LP  0  0  0  0  0  0  0  0  0  0  0  0  # atno 17371 bound_to 10713
  141.0713  134.0201  157.3522 LP  0  0  0  0  0  0  0  0  0  0  0  0  # atno 17394 bound_to 11000
  139.9137  135.0194  156.7795 LP  0  0  0  0  0  0  0  0  0  0  0  0  # atno 17395 bound_to 11000

$$$$
