AV-unprocessed.smi:2295|AV-procd|sdf|9219|dock2
  -GOLD-   2272012433D 1   1.00000     0.00000
 Structure written by MMmdl.
 37 38  0  0  0  0  0  0  0  0  1 V2000
  141.8883  134.2265  152.9013 C   0  0  0  0  0  0  0  0  0  0  0  0
  143.1986  134.2047  152.1424 C   0  0  0  0  0  0  0  0  0  0  0  0
  143.5011  133.1581  151.2506 C   0  0  0  0  0  0  0  0  0  0  0  0
  144.7364  133.1972  150.5743 C   0  0  0  0  0  0  0  0  0  0  0  0
  145.1272  132.1044  149.6016 C   0  0  0  0  0  0  0  0  0  0  0  0
  145.6381  134.1879  150.7436 N   0  0  0  0  0  0  0  0  0  0  0  0
  145.3573  135.2015  151.5998 C   0  0  0  0  0  0  0  0  0  0  0  0
  146.2343  136.2910  151.8472 N   0  0  0  0  0  0  0  0  0  0  0  0
  145.9360  137.5017  152.3503 C   0  0  0  0  0  0  0  0  0  0  0  0
  144.8102  137.8817  152.6735 O   0  0  0  0  0  0  0  0  0  0  0  0
  147.0345  138.2633  152.4589 N   0  0  0  0  0  0  0  0  0  0  0  0
  147.0747  139.6267  152.9793 C   0  0  0  0  0  0  0  0  0  0  0  0
  147.9404  139.7357  154.2477 C   0  0  1  0  0  0  0  0  0  0  0  0
  149.3848  139.2417  154.0748 C   0  0  0  0  0  0  0  0  0  0  0  0
  150.2109  139.8918  155.1850 C   0  0  0  0  0  0  0  0  0  0  0  0
  149.8074  141.3663  155.2140 C   0  0  0  0  0  0  0  0  0  0  0  0
  148.0365  141.4475  154.8434 S   0  0  0  0  0  0  0  0  0  0  0  0
  144.1410  135.2379  152.3183 C   0  0  0  0  0  0  0  0  0  0  0  0
  141.2482  133.3927  152.6121 H   0  0  0  0  0  0  0  0  0  0  0  0
  141.3509  135.1537  152.7008 H   0  0  0  0  0  0  0  0  0  0  0  0
  142.0721  134.1602  153.9739 H   0  0  0  0  0  0  0  0  0  0  0  0
  142.8056  132.3471  151.0894 H   0  0  0  0  0  0  0  0  0  0  0  0
  144.3120  131.3955  149.4542 H   0  0  0  0  0  0  0  0  0  0  0  0
  145.9923  131.5567  149.9761 H   0  0  0  0  0  0  0  0  0  0  0  0
  145.3838  132.5323  148.6320 H   0  0  0  0  0  0  0  0  0  0  0  0
  147.2048  136.1242  151.6268 H   0  0  0  0  0  0  0  0  0  0  0  0
  147.9155  137.8666  152.1670 H   0  0  0  0  0  0  0  0  0  0  0  0
  147.4187  140.3290  152.2181 H   0  0  0  0  0  0  0  0  0  0  0  0
  146.0495  139.9142  153.2141 H   0  0  0  0  0  0  0  0  0  0  0  0
  147.4752  139.1617  155.0501 H   0  0  0  0  0  0  0  0  0  0  0  0
  149.4484  138.1537  154.1093 H   0  0  0  0  0  0  0  0  0  0  0  0
  149.7744  139.5581  153.1062 H   0  0  0  0  0  0  0  0  0  0  0  0
  149.9682  139.4253  156.1406 H   0  0  0  0  0  0  0  0  0  0  0  0
  151.2820  139.7677  155.0242 H   0  0  0  0  0  0  0  0  0  0  0  0
  150.0316  141.8371  156.1716 H   0  0  0  0  0  0  0  0  0  0  0  0
  150.3421  141.9160  154.4389 H   0  0  0  0  0  0  0  0  0  0  0  0
  143.9288  136.0509  152.9977 H   0  0  0  0  0  0  0  0  0  0  0  0
  1  2  1  0  0  0  0
  1 19  1  0  0  0  0
  1 20  1  0  0  0  0
  1 21  1  0  0  0  0
  2 18  1  0  0  0  0
  2  3  2  0  0  0  0
  3  4  1  0  0  0  0
  3 22  1  0  0  0  0
  4  5  1  0  0  0  0
  4  6  2  0  0  0  0
  5 23  1  0  0  0  0
  5 24  1  0  0  0  0
  5 25  1  0  0  0  0
  6  7  1  0  0  0  0
  7  8  1  0  0  0  0
  7 18  2  0  0  0  0
  8  9  1  0  0  0  0
  8 26  1  0  0  0  0
  9 10  2  0  0  0  0
  9 11  1  0  0  0  0
 11 12  1  0  0  0  0
 11 27  1  0  0  0  0
 12 13  1  0  0  0  0
 12 28  1  0  0  0  0
 12 29  1  0  0  0  0
 13 17  1  0  0  0  0
 13 14  1  0  0  0  0
 13 30  1  0  0  0  0
 14 15  1  0  0  0  0
 14 31  1  0  0  0  0
 14 32  1  0  0  0  0
 15 16  1  0  0  0  0
 15 33  1  0  0  0  0
 15 34  1  0  0  0  0
 16 17  1  0  0  0  0
 16 35  1  0  0  0  0
 16 36  1  0  0  0  0
 18 37  1  0  0  0  0
M  END
> <s_m_source_file>
AV-unprocessed.smi

> <i_m_source_file_index>
2295

> <i_lp_mmshare_version>
43012

> <i_f3d_flags>
0

> <s_epik_input>
W0NIM11jMVtjSF1jKFtDSDNdKW5jKFtjSF0xKVtOSF1DKD1PKVtOSF1bQ0gyXVtDQEBIXTJbQ0gyXVtDSDJdW0NIMl1TMg==

> <s_epik_cmdline>
J2VwaWtfcHl0aG9uJywgJy1waCcsICc3LjAnLCAnLXRuJywgJzgnLCAnLW1hJywgJzIwMCcsICctbWV0YWxfYmluZGluZycsICctaW1hZScsICc8aW5maWxlLm1hZT4nLCAnLW9tYWUnLCAnPG91dGZpbGUubWFlPic=

> <r_lp_tautomer_probability>
1

> <r_epik_Ionization_Penalty>
0.000247769

> <r_epik_Ionization_Penalty_Charging>
0

> <r_epik_Ionization_Penalty_Neutral>
0.000247769

> <r_epik_State_Penalty>
-0

> <r_epik_Charging_Adjusted_Penalty>
0

> <i_epik_Tot_Q>
0

> <i_epik_Tot_abs_Q>
0

> <r_epik_Metal_State_Penalty>
-0

> <b_epik_Metal_Only>
0

> <s_lp_Force_Field>
OPLS_2005

> <r_lp_Energy>
14.3156

> <b_lp_Chiralities_Consistent>
1

> <s_lp_Variant>
AV-unprocessed.smi:2295-2

> <Gold.Version>
5.8.1

> <Gold.Id.Protein>
6NUR|6NUR_protein|mol2

> <Gold.PLP.Fitness>
38.8669

> <Gold.PLP.PLP>
-33.1881

> <Gold.PLP.part.hbond>
-2.0000

> <Gold.PLP.part.metal>
0.0000

> <Gold.PLP.part.buried>
-3.5100

> <Gold.PLP.part.nonpolar>
-30.8369

> <Gold.PLP.part.repulsive>
2.7588

> <Gold.PLP.ligand.clash>
0.0000

> <Gold.PLP.ligand.torsion>
0.1012

> <Gold.PLP.Chemscore.Hbond>
1.9600

> <Gold.PLP.Chemscore.CHOScore>
0.0000

> <Gold.PLP.Chemscore.Metal>
0.0000

> <Gold.Chemscore.Hbonds>
donor molecule, donor type, donor heavy atom, donor atom, acceptor molecule, acceptor atom, score
      L1  H     8    26       P1  7948  1.00
      L1  H    11    27       P1  7948  0.96

> <Gold.PLP.Chemscore.Internal.Correction>
0.0012

> <Gold.Rescore>
     Score         DG    S(hbond)    S(metal)    S(lipo)     H(rot)  DE(clash)    DE(int)     intcor
     15.59     -18.59       1.92        0.00      82.84       1.17       1.43       1.57       ----

> <Gold.Chemscore.Fitness>
15.5933

> <Gold.Chemscore.DG>
-18.5919

> <Gold.Chemscore.ZeroCoef>
-5.4800

> <Gold.Chemscore.Hbond>
1.9212

> <Gold.Chemscore.Metal>
0.0000

> <Gold.Chemscore.Lipo>
82.8421

> <Gold.Chemscore.Internal_Hbond>
0.0000

> <Gold.Chemscore.DEClash>
1.4334

> <Gold.Chemscore.DEInternal>
1.5652

> <Gold.Chemscore.Rot>
1.1709

> <Gold.Chemscore.Internal.Correction>
   9.000000E+99

> <Gold.Chemscore.Hbonds>
donor molecule, donor type, donor heavy atom, donor atom, acceptor molecule, acceptor atom, score
      L1  H     8    26       P1  7948  0.99
      L1  H    11    27       P1  7948  0.92

> <Gold.Chemscore.Hbond.Weighted>
-6.4169

> <Gold.Chemscore.Metal.Weighted>
-0.0000

> <Gold.Chemscore.Lipo.Weighted>
-9.6925

> <Gold.Chemscore.Internal_Hbond.Weighted>
0.0000

> <Gold.Chemscore.DEClash.Weighted>
1.4334

> <Gold.Chemscore.DEInternal.Weighted>
1.5652

> <Gold.Chemscore.Rot.Weighted>
2.9975

> <Gold.Chemscore.Internal.Correction.Weighted>
   9.000000E+99

> <Gold.Protein.RotatedTorsions>
[ 6907 6896 6895 6894 ] final   19.79 input  -60.11 | X-H torsion
[ 7974 7965 7964 7962 ] final  -90.52 input  175.53 | X-H torsion
[ 8008 7997 7996 7995 ] final  -76.49 input   59.86 | X-H torsion
[ 10167 10162 10161 10158 ] final -123.09 input  -65.29 | X-H torsion
[ 10718 10713 10712 10709 ] final  -74.17 input   66.30 | X-H torsion
[ 10763 10752 10751 10750 ] final -113.82 input  -60.55 | X-H torsion
[ 11005 11000 10999 10996 ] final  117.96 input  -57.11 | X-H torsion

> <Gold.Protein.ActiveResidues>
 VAL166  LYS551  ARG553  GLY616  TRP617  ASP618  TYR619  PRO620  LYS621  CYS622 
 ASP623  PHE694  ASN695  SER759  ASP760  ASP761  ALA762  ILE779  LEU786  VAL792 
 PHE793  MET794  SER795  GLU796  ALA797  LYS798  CYS799  TRP800  GLU811  SER814 

> <Gold.Protein.RotatedAtoms>
  151.8864  135.0434  160.0493 H   0  0  0  0  0  0  0  0  0  0  0  0  # atno 6907 bound_to 6896
  152.2471  133.5179  159.5312 H   0  0  0  0  0  0  0  0  0  0  0  0  # atno 6908 bound_to 6896
  150.7072  134.0926  159.3980 H   0  0  0  0  0  0  0  0  0  0  0  0  # atno 6909 bound_to 6896
  145.4253  140.9553  143.2158 H   0  0  0  0  0  0  0  0  0  0  0  0  # atno 7974 bound_to 7965
  154.5510  140.0726  156.8667 H   0  0  0  0  0  0  0  0  0  0  0  0  # atno 8008 bound_to 7997
  155.2994  140.3383  155.4230 H   0  0  0  0  0  0  0  0  0  0  0  0  # atno 8009 bound_to 7997
  156.1961  140.1704  156.7982 H   0  0  0  0  0  0  0  0  0  0  0  0  # atno 8010 bound_to 7997
  140.0072  143.5479  152.2278 H   0  0  0  0  0  0  0  0  0  0  0  0  # atno 10167 bound_to 10162
  156.0252  130.4411  150.2852 H   0  0  0  0  0  0  0  0  0  0  0  0  # atno 10718 bound_to 10713
  154.8413  135.4440  154.1409 H   0  0  0  0  0  0  0  0  0  0  0  0  # atno 10763 bound_to 10752
  153.2594  135.6934  153.7600 H   0  0  0  0  0  0  0  0  0  0  0  0  # atno 10764 bound_to 10752
  153.6882  135.3391  155.3171 H   0  0  0  0  0  0  0  0  0  0  0  0  # atno 10765 bound_to 10752
  139.9092  134.9615  156.7430 H   0  0  0  0  0  0  0  0  0  0  0  0  # atno 11005 bound_to 11000
  144.8218  139.5778  143.6983 LP  0  0  0  0  0  0  0  0  0  0  0  0  # atno 17320 bound_to 7965
  146.2635  139.6465  142.9345 LP  0  0  0  0  0  0  0  0  0  0  0  0  # atno 17321 bound_to 7965
  139.6230  144.7632  151.2699 LP  0  0  0  0  0  0  0  0  0  0  0  0  # atno 17342 bound_to 10162
  140.7395  143.6614  150.8160 LP  0  0  0  0  0  0  0  0  0  0  0  0  # atno 17343 bound_to 10162
  157.0955  131.0181  151.3105 LP  0  0  0  0  0  0  0  0  0  0  0  0  # atno 17370 bound_to 10713
  157.4820  130.7771  149.7424 LP  0  0  0  0  0  0  0  0  0  0  0  0  # atno 17371 bound_to 10713
  140.6834  133.9454  155.7924 LP  0  0  0  0  0  0  0  0  0  0  0  0  # atno 17394 bound_to 11000
  141.0494  134.0507  157.3803 LP  0  0  0  0  0  0  0  0  0  0  0  0  # atno 17395 bound_to 11000

$$$$
