AV-unprocessed.smi:691|AV-procd|sdf|3365|dock5
  -GOLD-   22720 0343D 1   1.00000     0.00000
 Structure written by MMmdl.
 37 38  0  0  0  0  0  0  0  0  1 V2000
  143.1159  134.9309  152.7059 C   0  0  0  0  0  0  0  0  0  0  0  0
  144.4328  135.5754  152.2093 C   0  0  2  0  0  0  0  0  0  0  0  0
  144.2127  137.0972  151.9957 C   0  0  0  0  0  0  0  0  0  0  0  0
  143.6910  137.7203  153.1525 O   0  0  0  0  0  0  0  0  0  0  0  0
  144.9119  134.8795  150.9231 C   0  0  0  0  0  0  0  0  0  0  0  0
  145.5933  133.5847  151.3726 C   0  0  0  0  0  0  0  0  0  0  0  0
  146.0804  133.8364  152.8055 C   0  0  0  0  0  0  0  0  0  0  0  0
  145.5696  135.2319  153.2130 C   0  0  1  0  0  0  0  0  0  0  0  0
  146.6869  136.1793  153.1673 N   0  0  0  0  0  0  0  0  0  0  0  0
  146.7320  137.3706  153.7816 C   0  0  0  0  0  0  0  0  0  0  0  0
  145.8149  137.8146  154.4713 O   0  0  0  0  0  0  0  0  0  0  0  0
  147.9004  137.9908  153.5432 N   0  0  0  0  0  0  0  0  0  0  0  0
  148.3523  139.2596  154.0001 C   0  0  0  0  0  0  0  0  0  0  0  0
  147.5380  140.4132  154.1150 C   0  0  0  0  0  0  0  0  0  0  0  0
  148.1182  141.6129  154.5706 C   0  0  0  0  0  0  0  0  0  0  0  0
  149.4898  141.6188  154.8897 C   0  0  0  0  0  0  0  0  0  0  0  0
  150.2802  140.5312  154.7746 N   0  0  0  0  0  0  0  0  0  0  0  0
  149.7170  139.3850  154.3368 C   0  0  0  0  0  0  0  0  0  0  0  0
  142.3188  135.0184  151.9672 H   0  0  0  0  0  0  0  0  0  0  0  0
  142.7670  135.4095  153.6216 H   0  0  0  0  0  0  0  0  0  0  0  0
  143.2337  133.8690  152.9223 H   0  0  0  0  0  0  0  0  0  0  0  0
  145.1513  137.5841  151.7291 H   0  0  0  0  0  0  0  0  0  0  0  0
  143.5123  137.2900  151.1830 H   0  0  0  0  0  0  0  0  0  0  0  0
  143.4870  138.6191  152.9435 H   0  0  0  0  0  0  0  0  0  0  0  0
  144.1049  134.6966  150.2126 H   0  0  0  0  0  0  0  0  0  0  0  0
  145.6467  135.5075  150.4173 H   0  0  0  0  0  0  0  0  0  0  0  0
  144.8748  132.7639  151.3667 H   0  0  0  0  0  0  0  0  0  0  0  0
  146.4087  133.3067  150.7040 H   0  0  0  0  0  0  0  0  0  0  0  0
  145.6658  133.0771  153.4697 H   0  0  0  0  0  0  0  0  0  0  0  0
  147.1660  133.7547  152.8783 H   0  0  0  0  0  0  0  0  0  0  0  0
  145.1784  135.1871  154.2312 H   0  0  0  0  0  0  0  0  0  0  0  0
  147.4902  135.8984  152.6244 H   0  0  0  0  0  0  0  0  0  0  0  0
  148.5715  137.4688  152.9986 H   0  0  0  0  0  0  0  0  0  0  0  0
  146.4914  140.4122  153.8557 H   0  0  0  0  0  0  0  0  0  0  0  0
  147.5246  142.5097  154.6700 H   0  0  0  0  0  0  0  0  0  0  0  0
  149.9653  142.5227  155.2412 H   0  0  0  0  0  0  0  0  0  0  0  0
  150.3809  138.5367  154.2551 H   0  0  0  0  0  0  0  0  0  0  0  0
  1  2  1  0  0  0  0
  1 19  1  0  0  0  0
  1 20  1  0  0  0  0
  1 21  1  0  0  0  0
  2  8  1  0  0  0  0
  2  3  1  0  0  0  0
  2  5  1  0  0  0  0
  3  4  1  0  0  0  0
  3 22  1  0  0  0  0
  3 23  1  0  0  0  0
  4 24  1  0  0  0  0
  5  6  1  0  0  0  0
  5 25  1  0  0  0  0
  5 26  1  0  0  0  0
  6  7  1  0  0  0  0
  6 27  1  0  0  0  0
  6 28  1  0  0  0  0
  7  8  1  0  0  0  0
  7 29  1  0  0  0  0
  7 30  1  0  0  0  0
  8  9  1  0  0  0  0
  8 31  1  0  0  0  0
  9 10  1  0  0  0  0
  9 32  1  0  0  0  0
 10 11  2  0  0  0  0
 10 12  1  0  0  0  0
 12 13  1  0  0  0  0
 12 33  1  0  0  0  0
 13 18  1  0  0  0  0
 13 14  2  0  0  0  0
 14 15  1  0  0  0  0
 14 34  1  0  0  0  0
 15 16  2  0  0  0  0
 15 35  1  0  0  0  0
 16 17  1  0  0  0  0
 16 36  1  0  0  0  0
 17 18  2  0  0  0  0
 18 37  1  0  0  0  0
M  END
> <s_m_source_file>
AV-unprocessed.smi

> <i_m_source_file_index>
691

> <i_lp_mmshare_version>
43012

> <i_f3d_flags>
0

> <s_epik_input>
W09IXVtDSDJdW0NAXTEoW0NIM10pW0NIMl1bQ0gyXVtDSDJdW0NASF0xW05IXUMoPU8pW05IXWMyW2NIXVtjSF1bY0hdbltjSF0y

> <s_epik_cmdline>
J2VwaWtfcHl0aG9uJywgJy1waCcsICc3LjAnLCAnLXRuJywgJzgnLCAnLW1hJywgJzIwMCcsICctbWV0YWxfYmluZGluZycsICctaW1hZScsICc8aW5maWxlLm1hZT4nLCAnLW9tYWUnLCAnPG91dGZpbGUubWFlPic=

> <r_epik_Ionization_Penalty>
0.00496828

> <r_epik_Ionization_Penalty_Charging>
0

> <r_epik_Ionization_Penalty_Neutral>
0.00496828

> <r_epik_State_Penalty>
0.00358054

> <r_epik_Charging_Adjusted_Penalty>
0.00358054

> <i_epik_Tot_Q>
0

> <i_epik_Tot_abs_Q>
0

> <r_epik_Metal_State_Penalty>
-0

> <b_epik_Metal_Only>
0

> <s_lp_Force_Field>
OPLS_2005

> <r_lp_Energy>
30.5868

> <b_lp_Chiralities_Consistent>
1

> <s_lp_Variant>
AV-unprocessed.smi:691-2

> <Gold.Version>
5.8.1

> <Gold.Id.Protein>
6NUR|6NUR_protein|mol2

> <Gold.PLP.Fitness>
39.8606

> <Gold.PLP.PLP>
-26.3196

> <Gold.PLP.part.hbond>
-4.0000

> <Gold.PLP.part.metal>
0.0000

> <Gold.PLP.part.buried>
-0.5516

> <Gold.PLP.part.nonpolar>
-22.4180

> <Gold.PLP.part.repulsive>
0.1924

> <Gold.PLP.ligand.clash>
0.0000

> <Gold.PLP.ligand.torsion>
0.6024

> <Gold.PLP.Chemscore.Hbond>
3.9760

> <Gold.PLP.Chemscore.CHOScore>
0.9359

> <Gold.PLP.Chemscore.Metal>
0.0000

> <Gold.Chemscore.Hbonds>
donor molecule, donor type, donor heavy atom, donor atom, acceptor molecule, acceptor atom, score
      L1  H     4    24       P1 10175  1.00
      L1  H     9    32       P1  7948  1.00
      L1  H    12    33       P1  7948  1.00
      P1  H  7989  7998       L1    17  0.96
      L1  C    16    36       P1  8028  0.94

> <Gold.PLP.Chemscore.Internal.Correction>
0.0100

> <Gold.Rescore>
     Score         DG    S(hbond)    S(metal)    S(lipo)     H(rot)  DE(clash)    DE(int)     intcor
     16.46     -19.90       3.55        0.00      61.00       1.78       1.33       2.10       ----

> <Gold.Chemscore.Fitness>
16.4608

> <Gold.Chemscore.DG>
-19.8960

> <Gold.Chemscore.ZeroCoef>
-5.4800

> <Gold.Chemscore.Hbond>
3.5466

> <Gold.Chemscore.Metal>
0.0000

> <Gold.Chemscore.Lipo>
61.0006

> <Gold.Chemscore.Internal_Hbond>
0.0000

> <Gold.Chemscore.DEClash>
1.3339

> <Gold.Chemscore.DEInternal>
2.1013

> <Gold.Chemscore.Rot>
1.7838

> <Gold.Chemscore.Internal.Correction>
   9.000000E+99

> <Gold.Chemscore.Hbonds>
donor molecule, donor type, donor heavy atom, donor atom, acceptor molecule, acceptor atom, score
      L1  H     4    24       P1 10175  1.00
      L1  H     9    32       P1  7948  0.97
      L1  H    12    33       P1  7948  0.96
      P1  H  7989  7998       L1    17  0.29

> <Gold.Chemscore.Hbond.Weighted>
-11.8456

> <Gold.Chemscore.Metal.Weighted>
-0.0000

> <Gold.Chemscore.Lipo.Weighted>
-7.1371

> <Gold.Chemscore.Internal_Hbond.Weighted>
0.0000

> <Gold.Chemscore.DEClash.Weighted>
1.3339

> <Gold.Chemscore.DEInternal.Weighted>
2.1013

> <Gold.Chemscore.Rot.Weighted>
4.5666

> <Gold.Chemscore.Internal.Correction.Weighted>
   9.000000E+99

> <Gold.Protein.RotatedTorsions>
[ 6907 6896 6895 6894 ] final  159.45 input  -60.11 | X-H torsion
[ 7974 7965 7964 7962 ] final  129.12 input  175.53 | X-H torsion
[ 8008 7997 7996 7995 ] final  -45.56 input   59.86 | X-H torsion
[ 10167 10162 10161 10158 ] final  -20.66 input  -65.29 | X-H torsion
[ 10718 10713 10712 10709 ] final  -64.12 input   66.30 | X-H torsion
[ 10763 10752 10751 10750 ] final   -6.72 input  -60.55 | X-H torsion
[ 11005 11000 10999 10996 ] final   69.01 input  -57.11 | X-H torsion

> <Gold.Protein.ActiveResidues>
 VAL166  LYS551  ARG553  GLY616  TRP617  ASP618  TYR619  PRO620  LYS621  CYS622 
 ASP623  PHE694  ASN695  SER759  ASP760  ASP761  ALA762  ILE779  LEU786  VAL792 
 PHE793  MET794  SER795  GLU796  ALA797  LYS798  CYS799  TRP800  GLU811  SER814 

> <Gold.Protein.RotatedAtoms>
  151.9854  133.3772  159.4123 H   0  0  0  0  0  0  0  0  0  0  0  0  # atno 6907 bound_to 6896
  150.6929  134.3993  159.5121 H   0  0  0  0  0  0  0  0  0  0  0  0  # atno 6908 bound_to 6896
  152.1719  134.8827  160.0584 H   0  0  0  0  0  0  0  0  0  0  0  0  # atno 6909 bound_to 6896
  145.0321  139.4037  143.5144 H   0  0  0  0  0  0  0  0  0  0  0  0  # atno 7974 bound_to 7965
  154.4001  140.1393  156.3867 H   0  0  0  0  0  0  0  0  0  0  0  0  # atno 8008 bound_to 7997
  155.7953  140.3477  155.5351 H   0  0  0  0  0  0  0  0  0  0  0  0  # atno 8009 bound_to 7997
  155.8539  140.0946  157.1648 H   0  0  0  0  0  0  0  0  0  0  0  0  # atno 8010 bound_to 7997
  140.7277  143.4701  151.0259 H   0  0  0  0  0  0  0  0  0  0  0  0  # atno 10167 bound_to 10162
  156.0749  130.4229  150.1374 H   0  0  0  0  0  0  0  0  0  0  0  0  # atno 10718 bound_to 10713
  153.4163  135.7009  153.6324 H   0  0  0  0  0  0  0  0  0  0  0  0  # atno 10763 bound_to 10752
  153.4797  135.3696  155.2436 H   0  0  0  0  0  0  0  0  0  0  0  0  # atno 10764 bound_to 10752
  154.8720  135.4063  154.3524 H   0  0  0  0  0  0  0  0  0  0  0  0  # atno 10765 bound_to 10752
  139.9678  134.6951  156.0509 H   0  0  0  0  0  0  0  0  0  0  0  0  # atno 11005 bound_to 11000
  146.3500  139.9877  142.8689 LP  0  0  0  0  0  0  0  0  0  0  0  0  # atno 17320 bound_to 7965
  145.1757  140.9742  143.4296 LP  0  0  0  0  0  0  0  0  0  0  0  0  # atno 17321 bound_to 7965
  139.8392  143.7586  152.3180 LP  0  0  0  0  0  0  0  0  0  0  0  0  # atno 17342 bound_to 10162
  139.7729  144.7470  151.0198 LP  0  0  0  0  0  0  0  0  0  0  0  0  # atno 17343 bound_to 10162
  156.9418  130.9747  151.3515 LP  0  0  0  0  0  0  0  0  0  0  0  0  # atno 17370 bound_to 10713
  157.5839  130.8395  149.8561 LP  0  0  0  0  0  0  0  0  0  0  0  0  # atno 17371 bound_to 10713
  141.1358  133.6575  156.3589 LP  0  0  0  0  0  0  0  0  0  0  0  0  # atno 17394 bound_to 11000
  140.5359  134.6168  157.5364 LP  0  0  0  0  0  0  0  0  0  0  0  0  # atno 17395 bound_to 11000

$$$$
