AV-unprocessed.smi:2078|AV-procd|sdf|8467|dock10
  -GOLD-   2272011163D 1   1.00000     0.00000
 Structure written by MMmdl.
 41 42  0  0  0  0  0  0  0  0  3 V2000
  137.3807  137.2866  154.6849 C   0  0  0  0  0  0  0  0  0  0  0  0
  138.8225  137.2760  154.3073 C   0  0  0  0  0  0  0  0  0  0  0  0
  139.6091  138.1594  153.6241 C   0  0  0  0  0  0  0  0  0  0  0  0
  140.8817  137.5259  153.6203 C   0  0  0  0  0  0  0  0  0  0  0  0
  142.0048  138.0142  153.0715 N   0  5  0  0  0  0  0  0  0  0  0  0
  143.0779  137.2119  152.8890 C   0  0  0  0  0  0  0  0  0  0  0  0
  143.0947  135.9809  152.9667 O   0  0  0  0  0  0  0  0  0  0  0  0
  144.2055  137.8774  152.6010 N   0  0  0  0  0  0  0  0  0  0  0  0
  145.5114  137.2729  152.3673 C   0  0  0  0  0  0  0  0  0  0  0  0
  145.8567  136.2480  153.4640 C   0  0  0  0  0  0  0  0  0  0  0  0
  146.6111  135.0861  152.9321 N   0  3  1  0  0  0  0  0  0  0  0  0
  147.2148  134.2674  154.0147 C   0  0  0  0  0  0  0  0  0  0  0  0
  148.1004  133.1511  153.4381 C   0  0  0  0  0  0  0  0  0  0  0  0
  147.3086  132.2688  152.4650 C   0  0  0  0  0  0  0  0  0  0  0  0
  146.6651  133.1314  151.3662 C   0  0  1  0  0  0  0  0  0  0  0  0
  145.8415  132.2764  150.3926 C   0  0  0  0  0  0  0  0  0  0  0  0
  145.8108  134.2500  151.9967 C   0  0  0  0  0  0  0  0  0  0  0  0
  140.8721  136.3677  154.2585 N   0  0  0  0  0  0  0  0  0  0  0  0
  139.5537  136.1976  154.6981 O   0  0  0  0  0  0  0  0  0  0  0  0
  137.2158  137.9201  155.5564 H   0  0  0  0  0  0  0  0  0  0  0  0
  137.0305  136.2824  154.9249 H   0  0  0  0  0  0  0  0  0  0  0  0
  136.7701  137.6696  153.8671 H   0  0  0  0  0  0  0  0  0  0  0  0
  139.3204  139.1059  153.1924 H   0  0  0  0  0  0  0  0  0  0  0  0
  144.1477  138.8840  152.5447 H   0  0  0  0  0  0  0  0  0  0  0  0
  145.5245  136.8236  151.3741 H   0  0  0  0  0  0  0  0  0  0  0  0
  146.2551  138.0699  152.3561 H   0  0  0  0  0  0  0  0  0  0  0  0
  146.4587  136.7569  154.2183 H   0  0  0  0  0  0  0  0  0  0  0  0
  144.9594  135.8968  153.9758 H   0  0  0  0  0  0  0  0  0  0  0  0
  147.8199  134.9016  154.6638 H   0  0  0  0  0  0  0  0  0  0  0  0
  146.4241  133.8409  154.6342 H   0  0  0  0  0  0  0  0  0  0  0  0
  148.9556  133.5905  152.9229 H   0  0  0  0  0  0  0  0  0  0  0  0
  148.5059  132.5424  154.2469 H   0  0  0  0  0  0  0  0  0  0  0  0
  147.9673  131.5202  152.0230 H   0  0  0  0  0  0  0  0  0  0  0  0
  146.5373  131.7228  153.0104 H   0  0  0  0  0  0  0  0  0  0  0  0
  147.4660  133.6015  150.7932 H   0  0  0  0  0  0  0  0  0  0  0  0
  145.0184  131.7752  150.9031 H   0  0  0  0  0  0  0  0  0  0  0  0
  146.4589  131.5094  149.9243 H   0  0  0  0  0  0  0  0  0  0  0  0
  145.4156  132.8874  149.5962 H   0  0  0  0  0  0  0  0  0  0  0  0
  144.9615  133.8204  152.5310 H   0  0  0  0  0  0  0  0  0  0  0  0
  145.3978  134.8696  151.2014 H   0  0  0  0  0  0  0  0  0  0  0  0
  147.3829  135.4668  152.4036 H   0  0  0  0  0  0  0  0  0  0  0  0
  1  2  1  0  0  0  0
  1 20  1  0  0  0  0
  1 21  1  0  0  0  0
  1 22  1  0  0  0  0
  2 19  1  0  0  0  0
  2  3  2  0  0  0  0
  3  4  1  0  0  0  0
  3 23  1  0  0  0  0
  4  5  1  0  0  0  0
  4 18  2  0  0  0  0
  5  6  1  0  0  0  0
  6  7  2  0  0  0  0
  6  8  1  0  0  0  0
  8  9  1  0  0  0  0
  8 24  1  0  0  0  0
  9 10  1  0  0  0  0
  9 25  1  0  0  0  0
  9 26  1  0  0  0  0
 10 11  1  0  0  0  0
 10 27  1  0  0  0  0
 10 28  1  0  0  0  0
 11 17  1  0  0  0  0
 11 12  1  0  0  0  0
 11 41  1  0  0  0  0
 12 13  1  0  0  0  0
 12 29  1  0  0  0  0
 12 30  1  0  0  0  0
 13 14  1  0  0  0  0
 13 31  1  0  0  0  0
 13 32  1  0  0  0  0
 14 15  1  0  0  0  0
 14 33  1  0  0  0  0
 14 34  1  0  0  0  0
 15 16  1  0  0  0  0
 15 17  1  0  0  0  0
 15 35  1  0  0  0  0
 16 36  1  0  0  0  0
 16 37  1  0  0  0  0
 16 38  1  0  0  0  0
 17 39  1  0  0  0  0
 17 40  1  0  0  0  0
 18 19  1  0  0  0  0
M  CHG  1   5  -1
M  CHG  1  11   1
M  END
> <s_m_source_file>
AV-unprocessed.smi

> <i_m_source_file_index>
2078

> <i_lp_mmshare_version>
43012

> <i_f3d_flags>
0

> <s_epik_input>
W0NIM11jMVtjSF1jKG5vMSlbTkhdQyg9TylbTkhdW0NIMl1bQ0gyXU4yW0NIMl1bQ0gyXVtDSDJdW0NAQEhdKFtDSDNdKVtDSDJdMg==

> <s_epik_cmdline>
J2VwaWtfcHl0aG9uJywgJy1waCcsICc3LjAnLCAnLXRuJywgJzgnLCAnLW1hJywgJzIwMCcsICctbWV0YWxfYmluZGluZycsICctaW1hZScsICc8aW5maWxlLm1hZT4nLCAnLW9tYWUnLCAnPG91dGZpbGUubWFlPic=

> <r_epik_Ionization_Penalty>
6.22434

> <r_epik_Ionization_Penalty_Charging>
6.22425

> <r_epik_Ionization_Penalty_Neutral>
9.37855e-05

> <r_epik_State_Penalty>
6.22423

> <r_epik_Charging_Adjusted_Penalty>
12.4485

> <i_epik_Tot_Q>
0

> <i_epik_Tot_abs_Q>
2

> <r_epik_Metal_State_Penalty>
2.16764

> <b_epik_Metal_Only>
1

> <s_lp_Force_Field>
OPLS_2005

> <r_lp_Energy>
3.15807

> <b_lp_Chiralities_Consistent>
1

> <s_lp_Variant>
AV-unprocessed.smi:2078-5

> <Gold.Version>
5.8.1

> <Gold.Id.Protein>
6NUR|6NUR_protein|mol2

> <Gold.PLP.Fitness>
43.9085

> <Gold.PLP.PLP>
-32.7692

> <Gold.PLP.part.hbond>
-4.1369

> <Gold.PLP.part.metal>
0.0000

> <Gold.PLP.part.buried>
-5.2903

> <Gold.PLP.part.nonpolar>
-24.6536

> <Gold.PLP.part.repulsive>
1.3927

> <Gold.PLP.ligand.clash>
0.0000

> <Gold.PLP.ligand.torsion>
0.4476

> <Gold.PLP.Chemscore.Hbond>
4.0000

> <Gold.PLP.Chemscore.CHOScore>
0.0000

> <Gold.PLP.Chemscore.Metal>
0.0000

> <Gold.Chemscore.Hbonds>
donor molecule, donor type, donor heavy atom, donor atom, acceptor molecule, acceptor atom, score
      L1  H     8    24       P1 10175  1.00
      L1  H    11    41       P1  7948  2.00
      P1  H 11000 11005       L1    19  0.93

> <Gold.PLP.Chemscore.Internal.Correction>
0.0345

> <Gold.Rescore>
     Score         DG    S(hbond)    S(metal)    S(lipo)     H(rot)  DE(clash)    DE(int)     intcor
     13.96     -17.59       2.60        0.00      63.04       1.54       0.17       3.46       ----

> <Gold.Chemscore.Fitness>
13.9595

> <Gold.Chemscore.DG>
-17.5871

> <Gold.Chemscore.ZeroCoef>
-5.4800

> <Gold.Chemscore.Hbond>
2.5976

> <Gold.Chemscore.Metal>
0.0000

> <Gold.Chemscore.Lipo>
63.0404

> <Gold.Chemscore.Internal_Hbond>
0.0000

> <Gold.Chemscore.DEClash>
0.1720

> <Gold.Chemscore.DEInternal>
3.4556

> <Gold.Chemscore.Rot>
1.5409

> <Gold.Chemscore.Internal.Correction>
   9.000000E+99

> <Gold.Chemscore.Hbonds>
donor molecule, donor type, donor heavy atom, donor atom, acceptor molecule, acceptor atom, score
      L1  H     8    24       P1 10175  0.99
      L1  H    11    41       P1  7948  1.00
      P1  H 11000 11005       L1    19  0.19

> <Gold.Chemscore.Hbond.Weighted>
-8.6760

> <Gold.Chemscore.Metal.Weighted>
-0.0000

> <Gold.Chemscore.Lipo.Weighted>
-7.3757

> <Gold.Chemscore.Internal_Hbond.Weighted>
0.0000

> <Gold.Chemscore.DEClash.Weighted>
0.1720

> <Gold.Chemscore.DEInternal.Weighted>
3.4556

> <Gold.Chemscore.Rot.Weighted>
3.9446

> <Gold.Chemscore.Internal.Correction.Weighted>
   9.000000E+99

> <Gold.Protein.RotatedTorsions>
[ 6907 6896 6895 6894 ] final  -88.89 input  -60.11 | X-H torsion
[ 7974 7965 7964 7962 ] final -121.39 input  175.53 | X-H torsion
[ 8008 7997 7996 7995 ] final   61.34 input   59.86 | X-H torsion
[ 10167 10162 10161 10158 ] final   99.67 input  -65.29 | X-H torsion
[ 10718 10713 10712 10709 ] final   26.07 input   66.30 | X-H torsion
[ 10763 10752 10751 10750 ] final -112.13 input  -60.55 | X-H torsion
[ 11005 11000 10999 10996 ] final   86.52 input  -57.11 | X-H torsion

> <Gold.Protein.ActiveResidues>
 VAL166  LYS551  ARG553  GLY616  TRP617  ASP618  TYR619  PRO620  LYS621  CYS622 
 ASP623  PHE694  ASN695  SER759  ASP760  ASP761  ALA762  ILE779  LEU786  VAL792 
 PHE793  MET794  SER795  GLU796  ALA797  LYS798  CYS799  TRP800  GLU811  SER814 

> <Gold.Protein.RotatedAtoms>
  150.6871  134.2672  159.4573 H   0  0  0  0  0  0  0  0  0  0  0  0  # atno 6907 bound_to 6896
  152.0597  134.9599  160.0584 H   0  0  0  0  0  0  0  0  0  0  0  0  # atno 6908 bound_to 6896
  152.1031  133.4225  159.4633 H   0  0  0  0  0  0  0  0  0  0  0  0  # atno 6909 bound_to 6896
  145.0409  140.8143  143.4267 H   0  0  0  0  0  0  0  0  0  0  0  0  # atno 7974 bound_to 7965
  155.5969  140.3493  155.4582 H   0  0  0  0  0  0  0  0  0  0  0  0  # atno 8008 bound_to 7997
  156.0259  140.1264  157.0334 H   0  0  0  0  0  0  0  0  0  0  0  0  # atno 8009 bound_to 7997
  154.4333  140.1053  156.6015 H   0  0  0  0  0  0  0  0  0  0  0  0  # atno 8010 bound_to 7997
  139.7596  144.6958  151.0311 H   0  0  0  0  0  0  0  0  0  0  0  0  # atno 10167 bound_to 10162
  157.2018  130.6894  149.6192 H   0  0  0  0  0  0  0  0  0  0  0  0  # atno 10718 bound_to 10713
  154.8334  135.4502  154.1146 H   0  0  0  0  0  0  0  0  0  0  0  0  # atno 10763 bound_to 10752
  153.2399  135.6915  153.7801 H   0  0  0  0  0  0  0  0  0  0  0  0  # atno 10764 bound_to 10752
  153.7153  135.3350  155.3231 H   0  0  0  0  0  0  0  0  0  0  0  0  # atno 10765 bound_to 10752
  139.8942  134.8361  156.2732 H   0  0  0  0  0  0  0  0  0  0  0  0  # atno 11005 bound_to 11000
  145.1650  139.2437  143.5372 LP  0  0  0  0  0  0  0  0  0  0  0  0  # atno 17320 bound_to 7965
  146.3509  140.1386  142.8595 LP  0  0  0  0  0  0  0  0  0  0  0  0  # atno 17321 bound_to 7965
  140.7806  143.4712  151.0144 LP  0  0  0  0  0  0  0  0  0  0  0  0  # atno 17342 bound_to 10162
  139.8398  143.7578  152.3180 LP  0  0  0  0  0  0  0  0  0  0  0  0  # atno 17343 bound_to 10162
  155.9699  130.4580  150.5983 LP  0  0  0  0  0  0  0  0  0  0  0  0  # atno 17370 bound_to 10713
  157.3759  131.0773  151.1518 LP  0  0  0  0  0  0  0  0  0  0  0  0  # atno 17371 bound_to 10713
  141.0087  133.7108  156.1077 LP  0  0  0  0  0  0  0  0  0  0  0  0  # atno 17394 bound_to 11000
  140.7397  134.4163  157.5556 LP  0  0  0  0  0  0  0  0  0  0  0  0  # atno 17395 bound_to 11000

$$$$
