AV-unprocessed.smi:772|AV-procd|sdf|3685|dock1
  -GOLD-   22720 1103D 1   1.00000     0.00000
 Structure written by MMmdl.
 46 47  0  0  0  0  0  0  0  0  1 V2000
  153.1739  143.1395  163.2382 C   0  0  0  0  0  0  0  0  0  0  0  0
  152.7407  143.3170  161.7981 C   0  0  0  0  0  0  0  0  0  0  0  0
  152.0665  144.4850  161.3838 C   0  0  0  0  0  0  0  0  0  0  0  0
  151.6738  144.5898  160.0359 C   0  0  0  0  0  0  0  0  0  0  0  0
  151.9682  143.5273  159.1573 C   0  0  0  0  0  0  0  0  0  0  0  0
  151.5275  143.5752  157.7047 C   0  0  0  0  0  0  0  0  0  0  0  0
  151.3460  142.1818  157.0720 C   0  0  0  0  0  0  0  0  0  0  0  0
  150.1307  142.0995  156.2646 N   0  0  0  0  0  0  0  0  0  0  0  0
  149.8246  141.1152  155.4005 C   0  0  0  0  0  0  0  0  0  0  0  0
  150.5509  140.1334  155.2380 O   0  0  0  0  0  0  0  0  0  0  0  0
  148.6896  141.3221  154.6857 N   0  0  0  0  0  0  0  0  0  0  0  0
  147.7259  142.4144  154.8945 C   0  0  0  0  0  0  0  0  0  0  0  0
  146.5772  141.9034  155.7779 C   0  0  0  0  0  0  0  0  0  0  0  0
  145.6770  140.5515  154.9578 S   0  0  0  0  0  0  0  0  0  0  0  0
  147.0752  139.4750  154.4789 C   0  0  1  0  0  0  0  0  0  0  0  0
  146.6173  138.2451  153.6546 C   0  0  0  0  0  0  0  0  0  0  0  0
  146.1890  138.5818  152.2139 C   0  0  0  0  0  0  0  0  0  0  0  0
  145.5234  137.4422  154.3792 C   0  0  0  0  0  0  0  0  0  0  0  0
  148.1666  140.3045  153.7665 C   0  0  0  0  0  0  0  0  0  0  0  0
  152.6540  142.4061  159.6714 C   0  0  0  0  0  0  0  0  0  0  0  0
  153.0327  142.2959  160.9625 N   0  0  0  0  0  0  0  0  0  0  0  0
  153.0545  144.0641  163.8037 H   0  0  0  0  0  0  0  0  0  0  0  0
  154.2223  142.8444  163.2887 H   0  0  0  0  0  0  0  0  0  0  0  0
  152.5743  142.3658  163.7184 H   0  0  0  0  0  0  0  0  0  0  0  0
  151.8470  145.2798  162.0814 H   0  0  0  0  0  0  0  0  0  0  0  0
  151.1445  145.4642  159.6868 H   0  0  0  0  0  0  0  0  0  0  0  0
  150.5923  144.1324  157.6408 H   0  0  0  0  0  0  0  0  0  0  0  0
  152.2590  144.1453  157.1304 H   0  0  0  0  0  0  0  0  0  0  0  0
  152.2231  141.9252  156.4754 H   0  0  0  0  0  0  0  0  0  0  0  0
  151.2852  141.4289  157.8578 H   0  0  0  0  0  0  0  0  0  0  0  0
  149.4893  142.8759  156.3339 H   0  0  0  0  0  0  0  0  0  0  0  0
  148.1726  143.3017  155.3430 H   0  0  0  0  0  0  0  0  0  0  0  0
  147.3350  142.7539  153.9342 H   0  0  0  0  0  0  0  0  0  0  0  0
  146.9610  141.5472  156.7346 H   0  0  0  0  0  0  0  0  0  0  0  0
  145.8756  142.7093  155.9942 H   0  0  0  0  0  0  0  0  0  0  0  0
  147.5068  139.0989  155.4079 H   0  0  0  0  0  0  0  0  0  0  0  0
  147.4783  137.5798  153.5774 H   0  0  0  0  0  0  0  0  0  0  0  0
  145.3158  139.2339  152.1922 H   0  0  0  0  0  0  0  0  0  0  0  0
  145.9316  137.6753  151.6656 H   0  0  0  0  0  0  0  0  0  0  0  0
  146.9877  139.0733  151.6594 H   0  0  0  0  0  0  0  0  0  0  0  0
  144.6009  138.0145  154.4784 H   0  0  0  0  0  0  0  0  0  0  0  0
  145.8449  137.1520  155.3798 H   0  0  0  0  0  0  0  0  0  0  0  0
  145.2847  136.5277  153.8355 H   0  0  0  0  0  0  0  0  0  0  0  0
  147.7641  140.7904  152.8771 H   0  0  0  0  0  0  0  0  0  0  0  0
  148.9612  139.6518  153.4013 H   0  0  0  0  0  0  0  0  0  0  0  0
  152.8908  141.5665  159.0346 H   0  0  0  0  0  0  0  0  0  0  0  0
  1  2  1  0  0  0  0
  1 22  1  0  0  0  0
  1 23  1  0  0  0  0
  1 24  1  0  0  0  0
  2 21  1  0  0  0  0
  2  3  2  0  0  0  0
  3  4  1  0  0  0  0
  3 25  1  0  0  0  0
  4  5  2  0  0  0  0
  4 26  1  0  0  0  0
  5  6  1  0  0  0  0
  5 20  1  0  0  0  0
  6  7  1  0  0  0  0
  6 27  1  0  0  0  0
  6 28  1  0  0  0  0
  7  8  1  0  0  0  0
  7 29  1  0  0  0  0
  7 30  1  0  0  0  0
  8  9  1  0  0  0  0
  8 31  1  0  0  0  0
  9 10  2  0  0  0  0
  9 11  1  0  0  0  0
 11 19  1  0  0  0  0
 11 12  1  0  0  0  0
 12 13  1  0  0  0  0
 12 32  1  0  0  0  0
 12 33  1  0  0  0  0
 13 14  1  0  0  0  0
 13 34  1  0  0  0  0
 13 35  1  0  0  0  0
 14 15  1  0  0  0  0
 15 16  1  0  0  0  0
 15 19  1  0  0  0  0
 15 36  1  0  0  0  0
 16 17  1  0  0  0  0
 16 18  1  0  0  0  0
 16 37  1  0  0  0  0
 17 38  1  0  0  0  0
 17 39  1  0  0  0  0
 17 40  1  0  0  0  0
 18 41  1  0  0  0  0
 18 42  1  0  0  0  0
 18 43  1  0  0  0  0
 19 44  1  0  0  0  0
 19 45  1  0  0  0  0
 20 21  2  0  0  0  0
 20 46  1  0  0  0  0
M  END
> <s_m_source_file>
AV-unprocessed.smi

> <i_m_source_file_index>
772

> <i_lp_mmshare_version>
43012

> <i_f3d_flags>
0

> <s_epik_input>
W0NIM11jMVtjSF1bY0hdYyhbY0hdbjEpW0NIMl1bQ0gyXVtOSF1DKD1PKU4yW0NIMl1bQ0gyXVNbQ0BIXShbQ0gyXTIpW0NIXShbQ0gzXSlbQ0gzXQ==

> <s_epik_cmdline>
J2VwaWtfcHl0aG9uJywgJy1waCcsICc3LjAnLCAnLXRuJywgJzgnLCAnLW1hJywgJzIwMCcsICctbWV0YWxfYmluZGluZycsICctaW1hZScsICc8aW5maWxlLm1hZT4nLCAnLW9tYWUnLCAnPG91dGZpbGUubWFlPic=

> <r_epik_Ionization_Penalty>
0.0566916

> <r_epik_Ionization_Penalty_Charging>
0

> <r_epik_Ionization_Penalty_Neutral>
0.0566916

> <r_epik_State_Penalty>
0.0488669

> <r_epik_Charging_Adjusted_Penalty>
0.0488669

> <i_epik_Tot_Q>
0

> <i_epik_Tot_abs_Q>
0

> <r_epik_Metal_State_Penalty>
0.0445784

> <b_epik_Metal_Only>
0

> <s_lp_Force_Field>
OPLS_2005

> <r_lp_Energy>
25.3974

> <b_lp_Chiralities_Consistent>
1

> <s_lp_Variant>
AV-unprocessed.smi:772-1

> <Gold.Version>
5.8.1

> <Gold.Id.Protein>
6NUR|6NUR_protein|mol2

> <Gold.PLP.Fitness>
48.1584

> <Gold.PLP.PLP>
-43.8013

> <Gold.PLP.part.hbond>
-2.0000

> <Gold.PLP.part.metal>
0.0000

> <Gold.PLP.part.buried>
1.8154

> <Gold.PLP.part.nonpolar>
-43.7838

> <Gold.PLP.part.repulsive>
0.1634

> <Gold.PLP.ligand.clash>
0.0000

> <Gold.PLP.ligand.torsion>
0.8111

> <Gold.PLP.Chemscore.Hbond>
1.9600

> <Gold.PLP.Chemscore.CHOScore>
0.0000

> <Gold.PLP.Chemscore.Metal>
0.0000

> <Gold.Chemscore.Hbonds>
donor molecule, donor type, donor heavy atom, donor atom, acceptor molecule, acceptor atom, score
      L1  H     8    31       P1  8028  0.92
      P1  H  7989  7998       L1    10  0.54

> <Gold.PLP.Chemscore.Internal.Correction>
0.0993

> <Gold.Rescore>
     Score         DG    S(hbond)    S(metal)    S(lipo)     H(rot)  DE(clash)    DE(int)     intcor
     18.36     -22.66       1.55        0.00     131.66       1.32       3.49       0.81       ----

> <Gold.Chemscore.Fitness>
18.3576

> <Gold.Chemscore.DG>
-22.6610

> <Gold.Chemscore.ZeroCoef>
-5.4800

> <Gold.Chemscore.Hbond>
1.5462

> <Gold.Chemscore.Metal>
0.0000

> <Gold.Chemscore.Lipo>
131.6603

> <Gold.Chemscore.Internal_Hbond>
0.0000

> <Gold.Chemscore.DEClash>
3.4910

> <Gold.Chemscore.DEInternal>
0.8123

> <Gold.Chemscore.Rot>
1.3233

> <Gold.Chemscore.Internal.Correction>
   9.000000E+99

> <Gold.Chemscore.Hbonds>
donor molecule, donor type, donor heavy atom, donor atom, acceptor molecule, acceptor atom, score
      L1  H     8    31       P1  8028  0.84
      P1  H  7989  7998       L1    10  0.09

> <Gold.Chemscore.Hbond.Weighted>
-5.1643

> <Gold.Chemscore.Metal.Weighted>
-0.0000

> <Gold.Chemscore.Lipo.Weighted>
-15.4043

> <Gold.Chemscore.Internal_Hbond.Weighted>
0.0000

> <Gold.Chemscore.DEClash.Weighted>
3.4910

> <Gold.Chemscore.DEInternal.Weighted>
0.8123

> <Gold.Chemscore.Rot.Weighted>
3.3876

> <Gold.Chemscore.Internal.Correction.Weighted>
   9.000000E+99

> <Gold.Protein.RotatedTorsions>
[ 6907 6896 6895 6894 ] final   -4.91 input  -60.11 | X-H torsion
[ 7974 7965 7964 7962 ] final  -62.35 input  175.53 | X-H torsion
[ 8008 7997 7996 7995 ] final  148.26 input   59.86 | X-H torsion
[ 10167 10162 10161 10158 ] final -106.31 input  -65.29 | X-H torsion
[ 10718 10713 10712 10709 ] final  165.46 input   66.30 | X-H torsion
[ 10763 10752 10751 10750 ] final  -34.96 input  -60.55 | X-H torsion
[ 11005 11000 10999 10996 ] final  144.28 input  -57.11 | X-H torsion

> <Gold.Protein.ActiveResidues>
 VAL166  LYS551  ARG553  GLY616  TRP617  ASP618  TYR619  PRO620  LYS621  CYS622 
 ASP623  PHE694  ASN695  SER759  ASP760  ASP761  ALA762  ILE779  LEU786  VAL792 
 PHE793  MET794  SER795  GLU796  ALA797  LYS798  CYS799  TRP800  GLU811  SER814 

> <Gold.Protein.RotatedAtoms>
  151.4901  135.1057  159.9800 H   0  0  0  0  0  0  0  0  0  0  0  0  # atno 6907 bound_to 6896
  152.4744  133.8101  159.7009 H   0  0  0  0  0  0  0  0  0  0  0  0  # atno 6908 bound_to 6896
  150.8773  133.7358  159.2969 H   0  0  0  0  0  0  0  0  0  0  0  0  # atno 6909 bound_to 6896
  145.7924  140.8702  143.0274 H   0  0  0  0  0  0  0  0  0  0  0  0  # atno 7974 bound_to 7965
  156.2797  140.2133  156.5669 H   0  0  0  0  0  0  0  0  0  0  0  0  # atno 8008 bound_to 7997
  154.7167  140.0507  157.0624 H   0  0  0  0  0  0  0  0  0  0  0  0  # atno 8009 bound_to 7997
  155.0532  140.3158  155.4688 H   0  0  0  0  0  0  0  0  0  0  0  0  # atno 8010 bound_to 7997
  140.1891  143.3906  152.1221 H   0  0  0  0  0  0  0  0  0  0  0  0  # atno 10167 bound_to 10162
  157.0798  131.0389  151.2579 H   0  0  0  0  0  0  0  0  0  0  0  0  # atno 10718 bound_to 10713
  153.8553  135.6845  153.4788 H   0  0  0  0  0  0  0  0  0  0  0  0  # atno 10763 bound_to 10752
  153.1373  135.4672  154.9440 H   0  0  0  0  0  0  0  0  0  0  0  0  # atno 10764 bound_to 10752
  154.7783  135.3260  154.7992 H   0  0  0  0  0  0  0  0  0  0  0  0  # atno 10765 bound_to 10752
  140.0620  134.9199  157.1200 H   0  0  0  0  0  0  0  0  0  0  0  0  # atno 11005 bound_to 11000
  144.6780  140.0143  143.7484 LP  0  0  0  0  0  0  0  0  0  0  0  0  # atno 17320 bound_to 7965
  145.9963  139.3055  143.0955 LP  0  0  0  0  0  0  0  0  0  0  0  0  # atno 17321 bound_to 7965
  139.5263  144.7106  151.5216 LP  0  0  0  0  0  0  0  0  0  0  0  0  # atno 17342 bound_to 10162
  140.6468  143.8778  150.6745 LP  0  0  0  0  0  0  0  0  0  0  0  0  # atno 17343 bound_to 10162
  157.4810  130.7765  149.7414 LP  0  0  0  0  0  0  0  0  0  0  0  0  # atno 17370 bound_to 10713
  155.9927  130.3929  150.2932 LP  0  0  0  0  0  0  0  0  0  0  0  0  # atno 17371 bound_to 10713
  140.3756  134.2343  155.7174 LP  0  0  0  0  0  0  0  0  0  0  0  0  # atno 17394 bound_to 11000
  141.1977  133.8053  157.0616 LP  0  0  0  0  0  0  0  0  0  0  0  0  # atno 17395 bound_to 11000

$$$$
