AV-unprocessed.smi:2357|AV-procd|sdf|9401|dock9
  -GOLD-   2272013 33D 1   1.00000     0.00000
 Structure written by MMmdl.
 37 38  0  0  0  0  0  0  0  0  1 V2000
  152.9675  142.9175  162.8003 C   0  0  0  0  0  0  0  0  0  0  0  0
  152.6177  142.9075  161.3238 C   0  0  0  0  0  0  0  0  0  0  0  0
  151.8451  143.9917  160.7533 C   0  0  0  0  0  0  0  0  0  0  0  0
  151.5520  143.9717  159.4444 C   0  0  0  0  0  0  0  0  0  0  0  0
  151.9702  142.9244  158.6050 N   0  0  0  0  0  0  0  0  0  0  0  0
  151.6101  143.0157  157.1806 C   0  0  0  0  0  0  0  0  0  0  0  0
  150.6621  141.8870  156.7576 C   0  0  0  0  0  0  0  0  0  0  0  0
  150.8016  140.7548  157.2205 O   0  0  0  0  0  0  0  0  0  0  0  0
  149.7055  142.2135  155.8763 N   0  0  0  0  0  0  0  0  0  0  0  0
  148.6397  141.3259  155.4224 C   0  0  0  0  0  0  0  0  0  0  0  0
  149.1733  140.0657  154.7082 C   0  0  2  0  0  0  0  0  0  0  0  0
  149.0994  138.7579  155.5058 C   0  0  0  0  0  0  0  0  0  0  0  0
  150.2211  137.9567  154.8850 C   0  0  0  0  0  0  0  0  0  0  0  0
  151.2720  139.0354  154.6471 C   0  0  0  0  0  0  0  0  0  0  0  0
  150.5415  140.2169  154.3330 O   0  0  0  0  0  0  0  0  0  0  0  0
  152.6959  141.8651  159.0755 C   0  0  0  0  0  0  0  0  0  0  0  0
  153.0545  140.9461  158.3359 O   0  0  0  0  0  0  0  0  0  0  0  0
  153.0177  141.9006  160.5107 C   0  0  0  0  0  0  0  0  0  0  0  0
  153.7874  140.8011  160.9976 C   0  0  0  0  0  0  0  0  0  0  0  0
  154.4079  139.8996  161.3749 N   0  0  0  0  0  0  0  0  0  0  0  0
  152.5811  143.8111  163.2913 H   0  0  0  0  0  0  0  0  0  0  0  0
  154.0490  142.8986  162.9363 H   0  0  0  0  0  0  0  0  0  0  0  0
  152.5412  142.0464  163.2986 H   0  0  0  0  0  0  0  0  0  0  0  0
  151.5111  144.8135  161.3699 H   0  0  0  0  0  0  0  0  0  0  0  0
  150.9885  144.7555  158.9593 H   0  0  0  0  0  0  0  0  0  0  0  0
  151.1612  143.9883  156.9692 H   0  0  0  0  0  0  0  0  0  0  0  0
  152.4987  142.9669  156.5501 H   0  0  0  0  0  0  0  0  0  0  0  0
  149.6765  143.1654  155.5406 H   0  0  0  0  0  0  0  0  0  0  0  0
  148.0684  141.0257  156.3012 H   0  0  0  0  0  0  0  0  0  0  0  0
  147.9443  141.8636  154.7759 H   0  0  0  0  0  0  0  0  0  0  0  0
  148.6188  139.9314  153.7784 H   0  0  0  0  0  0  0  0  0  0  0  0
  149.3141  138.9135  156.5633 H   0  0  0  0  0  0  0  0  0  0  0  0
  148.1291  138.2671  155.4260 H   0  0  0  0  0  0  0  0  0  0  0  0
  150.5771  137.1482  155.5243 H   0  0  0  0  0  0  0  0  0  0  0  0
  149.8976  137.5285  153.9352 H   0  0  0  0  0  0  0  0  0  0  0  0
  151.8466  139.2145  155.5565 H   0  0  0  0  0  0  0  0  0  0  0  0
  151.9701  138.7730  153.8520 H   0  0  0  0  0  0  0  0  0  0  0  0
  1  2  1  0  0  0  0
  1 21  1  0  0  0  0
  1 22  1  0  0  0  0
  1 23  1  0  0  0  0
  2 18  2  0  0  0  0
  2  3  1  0  0  0  0
  3  4  2  0  0  0  0
  3 24  1  0  0  0  0
  4  5  1  0  0  0  0
  4 25  1  0  0  0  0
  5  6  1  0  0  0  0
  5 16  1  0  0  0  0
  6  7  1  0  0  0  0
  6 26  1  0  0  0  0
  6 27  1  0  0  0  0
  7  8  2  0  0  0  0
  7  9  1  0  0  0  0
  9 10  1  0  0  0  0
  9 28  1  0  0  0  0
 10 11  1  0  0  0  0
 10 29  1  0  0  0  0
 10 30  1  0  0  0  0
 11 15  1  0  0  0  0
 11 12  1  0  0  0  0
 11 31  1  0  0  0  0
 12 13  1  0  0  0  0
 12 32  1  0  0  0  0
 12 33  1  0  0  0  0
 13 14  1  0  0  0  0
 13 34  1  0  0  0  0
 13 35  1  0  0  0  0
 14 15  1  0  0  0  0
 14 36  1  0  0  0  0
 14 37  1  0  0  0  0
 16 17  2  0  0  0  0
 16 18  1  0  0  0  0
 18 19  1  0  0  0  0
 19 20  3  0  0  0  0
M  END
> <s_m_source_file>
AV-unprocessed.smi

> <i_m_source_file_index>
2357

> <i_lp_mmshare_version>
43012

> <i_f3d_flags>
0

> <s_epik_input>
W0NIM11jMVtjSF1bY0hdbihjKD1PKWMxQyNOKVtDSDJdQyg9TylbTkhdW0NIMl1bQ0BASF0yW0NIMl1bQ0gyXVtDSDJdTzI=

> <s_epik_cmdline>
J2VwaWtfcHl0aG9uJywgJy1waCcsICc3LjAnLCAnLXRuJywgJzgnLCAnLW1hJywgJzIwMCcsICctbWV0YWxfYmluZGluZycsICctaW1hZScsICc8aW5maWxlLm1hZT4nLCAnLW9tYWUnLCAnPG91dGZpbGUubWFlPic=

> <r_lp_tautomer_probability>
1

> <r_epik_Ionization_Penalty>
2.71597e-08

> <r_epik_Ionization_Penalty_Charging>
3.00645e-10

> <r_epik_Ionization_Penalty_Neutral>
2.6859e-08

> <r_epik_State_Penalty>
-0

> <r_epik_Charging_Adjusted_Penalty>
3.00645e-10

> <i_epik_Tot_Q>
0

> <i_epik_Tot_abs_Q>
0

> <r_epik_Metal_State_Penalty>
-0

> <b_epik_Metal_Only>
0

> <s_lp_Force_Field>
OPLS_2005

> <r_lp_Energy>
27.3681

> <b_lp_Chiralities_Consistent>
1

> <s_lp_Variant>
AV-unprocessed.smi:2357-1

> <Gold.Version>
5.8.1

> <Gold.Id.Protein>
6NUR|6NUR_protein|mol2

> <Gold.PLP.Fitness>
48.8104

> <Gold.PLP.PLP>
-43.5818

> <Gold.PLP.part.hbond>
-2.9365

> <Gold.PLP.part.metal>
0.0000

> <Gold.PLP.part.buried>
-4.0798

> <Gold.PLP.part.nonpolar>
-36.2980

> <Gold.PLP.part.repulsive>
0.2336

> <Gold.PLP.ligand.clash>
0.0000

> <Gold.PLP.ligand.torsion>
0.9828

> <Gold.PLP.Chemscore.Hbond>
2.3972

> <Gold.PLP.Chemscore.CHOScore>
0.0000

> <Gold.PLP.Chemscore.Metal>
0.0000

> <Gold.Chemscore.Hbonds>
donor molecule, donor type, donor heavy atom, donor atom, acceptor molecule, acceptor atom, score
      L1  H     9    28       P1  8028  0.93
      P1  H  7989  7998       L1    15  0.81
      P1  H  7997  8010       L1    17  0.35

> <Gold.PLP.Chemscore.Internal.Correction>
0.0027

> <Gold.Rescore>
     Score         DG    S(hbond)    S(metal)    S(lipo)     H(rot)  DE(clash)    DE(int)     intcor
     11.04     -17.83       1.71        0.00      95.12       1.76       1.82       4.98       ----

> <Gold.Chemscore.Fitness>
11.0354

> <Gold.Chemscore.DG>
-17.8332

> <Gold.Chemscore.ZeroCoef>
-5.4800

> <Gold.Chemscore.Hbond>
1.7139

> <Gold.Chemscore.Metal>
0.0000

> <Gold.Chemscore.Lipo>
95.1159

> <Gold.Chemscore.Internal_Hbond>
0.0000

> <Gold.Chemscore.DEClash>
1.8173

> <Gold.Chemscore.DEInternal>
4.9805

> <Gold.Chemscore.Rot>
1.7577

> <Gold.Chemscore.Internal.Correction>
   9.000000E+99

> <Gold.Chemscore.Hbonds>
donor molecule, donor type, donor heavy atom, donor atom, acceptor molecule, acceptor atom, score
      L1  H     9    28       P1  8028  0.91
      P1  H  7989  7998       L1    15  0.13
      P1  H  7997  8010       L1    17  0.34

> <Gold.Chemscore.Hbond.Weighted>
-5.7245

> <Gold.Chemscore.Metal.Weighted>
-0.0000

> <Gold.Chemscore.Lipo.Weighted>
-11.1286

> <Gold.Chemscore.Internal_Hbond.Weighted>
0.0000

> <Gold.Chemscore.DEClash.Weighted>
1.8173

> <Gold.Chemscore.DEInternal.Weighted>
4.9805

> <Gold.Chemscore.Rot.Weighted>
4.4998

> <Gold.Chemscore.Internal.Correction.Weighted>
   9.000000E+99

> <Gold.Protein.RotatedTorsions>
[ 6907 6896 6895 6894 ] final   99.14 input  -60.11 | X-H torsion
[ 7974 7965 7964 7962 ] final -145.11 input  175.53 | X-H torsion
[ 8008 7997 7996 7995 ] final   34.79 input   59.86 | X-H torsion
[ 10167 10162 10161 10158 ] final   10.34 input  -65.29 | X-H torsion
[ 10718 10713 10712 10709 ] final   91.59 input   66.30 | X-H torsion
[ 10763 10752 10751 10750 ] final   83.19 input  -60.55 | X-H torsion
[ 11005 11000 10999 10996 ] final   31.37 input  -57.11 | X-H torsion

> <Gold.Protein.ActiveResidues>
 VAL166  LYS551  ARG553  GLY616  TRP617  ASP618  TYR619  PRO620  LYS621  CYS622 
 ASP623  PHE694  ASN695  SER759  ASP760  ASP761  ALA762  ILE779  LEU786  VAL792 
 PHE793  MET794  SER795  GLU796  ALA797  LYS798  CYS799  TRP800  GLU811  SER814 

> <Gold.Protein.RotatedAtoms>
  152.5397  134.0473  159.8094 H   0  0  0  0  0  0  0  0  0  0  0  0  # atno 6907 bound_to 6896
  151.0620  133.5529  159.2641 H   0  0  0  0  0  0  0  0  0  0  0  0  # atno 6908 bound_to 6896
  151.2424  135.0601  159.9084 H   0  0  0  0  0  0  0  0  0  0  0  0  # atno 6909 bound_to 6896
  144.8250  140.5625  143.5553 H   0  0  0  0  0  0  0  0  0  0  0  0  # atno 7974 bound_to 7965
  155.1605  140.3283  155.4412 H   0  0  0  0  0  0  0  0  0  0  0  0  # atno 8008 bound_to 7997
  156.2544  140.1961  156.6663 H   0  0  0  0  0  0  0  0  0  0  0  0  # atno 8009 bound_to 7997
  154.6408  140.0570  156.9830 H   0  0  0  0  0  0  0  0  0  0  0  0  # atno 8010 bound_to 7997
  140.6200  143.8225  150.7164 H   0  0  0  0  0  0  0  0  0  0  0  0  # atno 10167 bound_to 10162
  157.6960  131.0413  150.3753 H   0  0  0  0  0  0  0  0  0  0  0  0  # atno 10718 bound_to 10713
  153.1269  135.4700  154.9287 H   0  0  0  0  0  0  0  0  0  0  0  0  # atno 10763 bound_to 10752
  154.7628  135.3136  154.8346 H   0  0  0  0  0  0  0  0  0  0  0  0  # atno 10764 bound_to 10752
  153.8898  135.6886  153.4815 H   0  0  0  0  0  0  0  0  0  0  0  0  # atno 10765 bound_to 10752
  140.2846  134.2933  155.7791 H   0  0  0  0  0  0  0  0  0  0  0  0  # atno 11005 bound_to 11000
  145.5020  139.1483  143.3652 LP  0  0  0  0  0  0  0  0  0  0  0  0  # atno 17320 bound_to 7965
  146.2556  140.5159  142.8875 LP  0  0  0  0  0  0  0  0  0  0  0  0  # atno 17321 bound_to 7965
  140.1813  143.4113  152.1931 LP  0  0  0  0  0  0  0  0  0  0  0  0  # atno 17342 bound_to 10162
  139.5431  144.7274  151.4671 LP  0  0  0  0  0  0  0  0  0  0  0  0  # atno 17343 bound_to 10162
  156.4173  130.3946  149.6850 LP  0  0  0  0  0  0  0  0  0  0  0  0  # atno 17370 bound_to 10713
  156.4113  130.7723  151.2736 LP  0  0  0  0  0  0  0  0  0  0  0  0  # atno 17371 bound_to 10713
  141.2157  133.7547  156.9533 LP  0  0  0  0  0  0  0  0  0  0  0  0  # atno 17394 bound_to 11000
  140.1251  134.9392  157.2259 LP  0  0  0  0  0  0  0  0  0  0  0  0  # atno 17395 bound_to 11000

$$$$
