AV-unprocessed.smi:1796|AV-procd|sdf|7253|dock6
  -GOLD-   22720 8503D 1   1.00000     0.00000
 Structure written by MMmdl.
 42 43  0  0  0  0  0  0  0  0  1 V2000
  152.3433  144.2604  161.8573 C   0  0  0  0  0  0  0  0  0  0  0  0
  152.8668  142.9365  161.2957 C   0  0  0  0  0  0  0  0  0  0  0  0
  153.2368  142.0757  162.0942 O   0  0  0  0  0  0  0  0  0  0  0  0
  152.9125  142.7583  159.9534 N   0  0  0  0  0  0  0  0  0  0  0  0
  152.3917  143.7486  159.0033 C   0  0  0  0  0  0  0  0  0  0  0  0
  151.1062  143.1918  158.3651 C   0  0  0  0  0  0  0  0  0  0  0  0
  151.3634  141.8237  157.7049 C   0  0  0  0  0  0  0  0  0  0  0  0
  152.0792  140.8465  158.6675 C   0  0  1  0  0  0  0  0  0  0  0  0
  152.4522  139.5453  157.9476 C   0  0  0  0  0  0  0  0  0  0  0  0
  153.6023  139.1103  158.0124 O   0  0  0  0  0  0  0  0  0  0  0  0
  151.4723  138.9444  157.2532 N   0  0  0  0  0  0  0  0  0  0  0  0
  151.6158  137.7303  156.4505 C   0  0  1  0  0  0  0  0  0  0  0  0
  150.7576  136.6189  157.0698 C   0  0  0  0  0  0  0  0  0  0  0  0
  151.2193  137.9945  154.9819 C   0  0  0  0  0  0  0  0  0  0  0  0
  150.0992  138.9107  154.8579 N   0  0  0  0  0  0  0  0  0  0  0  0
  148.8116  138.6387  154.4451 C   0  0  0  0  0  0  0  0  0  0  0  0
  148.1084  139.8070  154.5121 C   0  0  0  0  0  0  0  0  0  0  0  0
  149.0659  140.7510  154.9780 C   0  0  0  0  0  0  0  0  0  0  0  0
  150.2577  140.2124  155.1805 N   0  0  0  0  0  0  0  0  0  0  0  0
  153.3283  141.5240  159.2748 C   0  0  0  0  0  0  0  0  0  0  0  0
  152.9285  145.0996  161.4802 H   0  0  0  0  0  0  0  0  0  0  0  0
  152.4120  144.2702  162.9456 H   0  0  0  0  0  0  0  0  0  0  0  0
  151.2968  144.4069  161.5885 H   0  0  0  0  0  0  0  0  0  0  0  0
  152.1884  144.7146  159.4672 H   0  0  0  0  0  0  0  0  0  0  0  0
  153.1403  143.9409  158.2333 H   0  0  0  0  0  0  0  0  0  0  0  0
  150.3361  143.0886  159.1307 H   0  0  0  0  0  0  0  0  0  0  0  0
  150.7178  143.8952  157.6281 H   0  0  0  0  0  0  0  0  0  0  0  0
  150.4200  141.3959  157.3633 H   0  0  0  0  0  0  0  0  0  0  0  0
  151.9711  141.9764  156.8113 H   0  0  0  0  0  0  0  0  0  0  0  0
  151.3936  140.6065  159.4827 H   0  0  0  0  0  0  0  0  0  0  0  0
  150.5587  139.3745  157.2623 H   0  0  0  0  0  0  0  0  0  0  0  0
  152.6518  137.3875  156.4779 H   0  0  0  0  0  0  0  0  0  0  0  0
  150.8687  135.6851  156.5178 H   0  0  0  0  0  0  0  0  0  0  0  0
  149.6997  136.8836  157.0657 H   0  0  0  0  0  0  0  0  0  0  0  0
  151.0499  136.4261  158.1026 H   0  0  0  0  0  0  0  0  0  0  0  0
  152.0632  138.4177  154.4351 H   0  0  0  0  0  0  0  0  0  0  0  0
  150.9628  137.0602  154.4806 H   0  0  0  0  0  0  0  0  0  0  0  0
  148.5048  137.6459  154.1508 H   0  0  0  0  0  0  0  0  0  0  0  0
  147.0683  139.9632  154.2677 H   0  0  0  0  0  0  0  0  0  0  0  0
  148.9317  141.8046  155.1739 H   0  0  0  0  0  0  0  0  0  0  0  0
  154.0426  141.7802  158.4902 H   0  0  0  0  0  0  0  0  0  0  0  0
  153.8574  140.8298  159.9270 H   0  0  0  0  0  0  0  0  0  0  0  0
  1  2  1  0  0  0  0
  1 21  1  0  0  0  0
  1 22  1  0  0  0  0
  1 23  1  0  0  0  0
  2  3  2  0  0  0  0
  2  4  1  0  0  0  0
  4 20  1  0  0  0  0
  4  5  1  0  0  0  0
  5  6  1  0  0  0  0
  5 24  1  0  0  0  0
  5 25  1  0  0  0  0
  6  7  1  0  0  0  0
  6 26  1  0  0  0  0
  6 27  1  0  0  0  0
  7  8  1  0  0  0  0
  7 28  1  0  0  0  0
  7 29  1  0  0  0  0
  8  9  1  0  0  0  0
  8 20  1  0  0  0  0
  8 30  1  0  0  0  0
  9 10  2  0  0  0  0
  9 11  1  0  0  0  0
 11 12  1  0  0  0  0
 11 31  1  0  0  0  0
 12 13  1  0  0  0  0
 12 14  1  0  0  0  0
 12 32  1  0  0  0  0
 13 33  1  0  0  0  0
 13 34  1  0  0  0  0
 13 35  1  0  0  0  0
 14 15  1  0  0  0  0
 14 36  1  0  0  0  0
 14 37  1  0  0  0  0
 15 19  1  0  0  0  0
 15 16  1  0  0  0  0
 16 17  2  0  0  0  0
 16 38  1  0  0  0  0
 17 18  1  0  0  0  0
 17 39  1  0  0  0  0
 18 19  2  0  0  0  0
 18 40  1  0  0  0  0
 20 41  1  0  0  0  0
 20 42  1  0  0  0  0
M  END
> <s_m_source_file>
AV-unprocessed.smi

> <i_m_source_file_index>
1796

> <i_lp_mmshare_version>
43012

> <i_f3d_flags>
0

> <s_epik_input>
W0NIM11DKD1PKU4xW0NIMl1bQ0gyXVtDSDJdW0NASF0oW0NIMl0xKUMoPU8pW05IXVtDQEhdKFtDSDNdKVtDSDJdbjJbY0hdW2NIXVtjSF1uMg==

> <s_epik_cmdline>
J2VwaWtfcHl0aG9uJywgJy1waCcsICc3LjAnLCAnLXRuJywgJzgnLCAnLW1hJywgJzIwMCcsICctbWV0YWxfYmluZGluZycsICctaW1hZScsICc8aW5maWxlLm1hZT4nLCAnLW9tYWUnLCAnPG91dGZpbGUubWFlPic=

> <r_lp_tautomer_probability>
1

> <r_epik_Ionization_Penalty>
0.000315051

> <r_epik_Ionization_Penalty_Charging>
0

> <r_epik_Ionization_Penalty_Neutral>
0.000315051

> <r_epik_State_Penalty>
-0

> <r_epik_Charging_Adjusted_Penalty>
0

> <i_epik_Tot_Q>
0

> <i_epik_Tot_abs_Q>
0

> <r_epik_Metal_State_Penalty>
-0

> <b_epik_Metal_Only>
0

> <s_lp_Force_Field>
OPLS_2005

> <r_lp_Energy>
22.8088

> <b_lp_Chiralities_Consistent>
1

> <s_lp_Variant>
AV-unprocessed.smi:1796-3

> <Gold.Version>
5.8.1

> <Gold.Id.Protein>
6NUR|6NUR_protein|mol2

> <Gold.PLP.Fitness>
50.3167

> <Gold.PLP.PLP>
-41.7959

> <Gold.PLP.part.hbond>
-2.0000

> <Gold.PLP.part.metal>
0.0000

> <Gold.PLP.part.buried>
-2.3440

> <Gold.PLP.part.nonpolar>
-36.0667

> <Gold.PLP.part.repulsive>
0.1767

> <Gold.PLP.ligand.clash>
0.0000

> <Gold.PLP.ligand.torsion>
0.4881

> <Gold.PLP.Chemscore.Hbond>
1.7500

> <Gold.PLP.Chemscore.CHOScore>
1.4066

> <Gold.PLP.Chemscore.Metal>
0.0000

> <Gold.Chemscore.Hbonds>
donor molecule, donor type, donor heavy atom, donor atom, acceptor molecule, acceptor atom, score
      P1  H  7989  7998       L1    19  0.41
      P1  H  7997  8008       L1    10  1.00
      L1  C    16    38       P1  7948  0.53

> <Gold.PLP.Chemscore.Internal.Correction>
0.0272

> <Gold.Rescore>
     Score         DG    S(hbond)    S(metal)    S(lipo)     H(rot)  DE(clash)    DE(int)     intcor
     13.80     -15.90       0.94        0.00      98.08       1.63       0.18       1.93       ----

> <Gold.Chemscore.Fitness>
13.8020

> <Gold.Chemscore.DG>
-15.9033

> <Gold.Chemscore.ZeroCoef>
-5.4800

> <Gold.Chemscore.Hbond>
0.9371

> <Gold.Chemscore.Metal>
0.0000

> <Gold.Chemscore.Lipo>
98.0802

> <Gold.Chemscore.Internal_Hbond>
0.0000

> <Gold.Chemscore.DEClash>
0.1758

> <Gold.Chemscore.DEInternal>
1.9255

> <Gold.Chemscore.Rot>
1.6336

> <Gold.Chemscore.Internal.Correction>
   9.000000E+99

> <Gold.Chemscore.Hbonds>
donor molecule, donor type, donor heavy atom, donor atom, acceptor molecule, acceptor atom, score
      P1  H  7989  7998       L1    19  0.07
      P1  H  7997  8008       L1    10  0.93

> <Gold.Chemscore.Hbond.Weighted>
-3.1300

> <Gold.Chemscore.Metal.Weighted>
-0.0000

> <Gold.Chemscore.Lipo.Weighted>
-11.4754

> <Gold.Chemscore.Internal_Hbond.Weighted>
0.0000

> <Gold.Chemscore.DEClash.Weighted>
0.1758

> <Gold.Chemscore.DEInternal.Weighted>
1.9255

> <Gold.Chemscore.Rot.Weighted>
4.1821

> <Gold.Chemscore.Internal.Correction.Weighted>
   9.000000E+99

> <Gold.Protein.RotatedTorsions>
[ 6907 6896 6895 6894 ] final  -18.88 input  -60.11 | X-H torsion
[ 7974 7965 7964 7962 ] final   96.13 input  175.53 | X-H torsion
[ 8008 7997 7996 7995 ] final -104.33 input   59.86 | X-H torsion
[ 10167 10162 10161 10158 ] final  -22.82 input  -65.29 | X-H torsion
[ 10718 10713 10712 10709 ] final   22.03 input   66.30 | X-H torsion
[ 10763 10752 10751 10750 ] final  -36.84 input  -60.55 | X-H torsion
[ 11005 11000 10999 10996 ] final   42.86 input  -57.11 | X-H torsion

> <Gold.Protein.ActiveResidues>
 VAL166  LYS551  ARG553  GLY616  TRP617  ASP618  TYR619  PRO620  LYS621  CYS622 
 ASP623  PHE694  ASN695  SER759  ASP760  ASP761  ALA762  ILE779  LEU786  VAL792 
 PHE793  MET794  SER795  GLU796  ALA797  LYS798  CYS799  TRP800  GLU811  SER814 

> <Gold.Protein.RotatedAtoms>
  151.2715  135.0686  159.9135 H   0  0  0  0  0  0  0  0  0  0  0  0  # atno 6907 bound_to 6896
  152.5350  134.0126  159.7955 H   0  0  0  0  0  0  0  0  0  0  0  0  # atno 6908 bound_to 6896
  151.0365  133.5694  159.2686 H   0  0  0  0  0  0  0  0  0  0  0  0  # atno 6909 bound_to 6896
  145.4429  139.2299  143.3082 H   0  0  0  0  0  0  0  0  0  0  0  0  # atno 7974 bound_to 7965
  154.8837  140.0418  157.1797 H   0  0  0  0  0  0  0  0  0  0  0  0  # atno 8008 bound_to 7997
  154.8612  140.2944  155.5517 H   0  0  0  0  0  0  0  0  0  0  0  0  # atno 8009 bound_to 7997
  156.2998  140.2446  156.3587 H   0  0  0  0  0  0  0  0  0  0  0  0  # atno 8010 bound_to 7997
  140.7287  143.4500  151.0531 H   0  0  0  0  0  0  0  0  0  0  0  0  # atno 10167 bound_to 10162
  157.1467  130.6656  149.5998 H   0  0  0  0  0  0  0  0  0  0  0  0  # atno 10718 bound_to 10713
  153.8864  135.6816  153.4763 H   0  0  0  0  0  0  0  0  0  0  0  0  # atno 10763 bound_to 10752
  153.1205  135.4742  154.9185 H   0  0  0  0  0  0  0  0  0  0  0  0  # atno 10764 bound_to 10752
  154.7644  135.3220  154.8268 H   0  0  0  0  0  0  0  0  0  0  0  0  # atno 10765 bound_to 10752
  140.1699  134.4235  155.8263 H   0  0  0  0  0  0  0  0  0  0  0  0  # atno 11005 bound_to 11000
  146.2546  140.5179  142.8879 LP  0  0  0  0  0  0  0  0  0  0  0  0  # atno 17320 bound_to 7965
  144.8110  140.6385  143.6415 LP  0  0  0  0  0  0  0  0  0  0  0  0  # atno 17321 bound_to 7965
  139.8175  143.7866  152.3175 LP  0  0  0  0  0  0  0  0  0  0  0  0  # atno 17342 bound_to 10162
  139.7937  144.7401  150.9920 LP  0  0  0  0  0  0  0  0  0  0  0  0  # atno 17343 bound_to 10162
  155.9778  130.4759  150.6617 LP  0  0  0  0  0  0  0  0  0  0  0  0  # atno 17370 bound_to 10713
  157.4258  131.0843  151.1087 LP  0  0  0  0  0  0  0  0  0  0  0  0  # atno 17371 bound_to 10713
  141.2216  133.6951  156.7745 LP  0  0  0  0  0  0  0  0  0  0  0  0  # atno 17394 bound_to 11000
  140.2389  134.8629  157.3553 LP  0  0  0  0  0  0  0  0  0  0  0  0  # atno 17395 bound_to 11000

$$$$
