AV-unprocessed.smi:1752|AV-procd|sdf|7059|dock9
  -GOLD-   22720 8273D 1   1.00000     0.00000
 Structure written by MMmdl.
 43 44  0  0  0  0  0  0  0  0  2 V2000
  152.9262  141.0217  159.1362 C   0  0  0  0  0  0  0  0  0  0  0  0
  151.4435  140.6624  158.9703 C   0  0  1  0  0  0  0  0  0  0  0  0
  150.6372  141.8503  158.4029 C   0  0  0  0  0  0  0  0  0  0  0  0
  151.1268  143.1358  158.8685 N   0  0  0  0  0  0  0  0  0  0  0  0
  151.2209  144.3210  158.1695 C   0  0  0  0  0  0  0  0  0  0  0  0
  151.7229  145.2586  159.0254 C   0  0  0  0  0  0  0  0  0  0  0  0
  151.9121  144.5406  160.2394 C   0  0  0  0  0  0  0  0  0  0  0  0
  151.5562  143.2699  160.1415 N   0  0  0  0  0  0  0  0  0  0  0  0
  151.3322  139.4977  158.0926 N   0  0  0  0  0  0  0  0  0  0  0  0
  151.8403  139.3931  156.8512 C   0  0  0  0  0  0  0  0  0  0  0  0
  152.4594  140.3087  156.3080 O   0  0  0  0  0  0  0  0  0  0  0  0
  151.6889  138.1695  156.2859 N   0  0  0  0  0  0  0  0  0  0  0  0
  151.2871  136.9599  157.0381 C   0  0  0  0  0  0  0  0  0  0  0  0
  150.4834  135.9316  156.2067 C   0  0  0  0  0  0  0  0  0  0  0  0
  149.1782  136.4684  155.5794 C   0  0  0  0  0  0  0  0  0  0  0  0
  149.2730  137.8350  154.9985 N   0  3  2  0  0  0  0  0  0  0  0  0
  147.9982  138.2559  154.3767 C   0  0  0  0  0  0  0  0  0  0  0  0
  150.4385  138.0718  154.1049 C   0  0  0  0  0  0  0  0  0  0  0  0
  151.8051  138.0077  154.8266 C   0  0  0  0  0  0  0  0  0  0  0  0
  153.0500  141.8694  159.8107 H   0  0  0  0  0  0  0  0  0  0  0  0
  153.3810  141.2883  158.1815 H   0  0  0  0  0  0  0  0  0  0  0  0
  153.4895  140.1860  159.5532 H   0  0  0  0  0  0  0  0  0  0  0  0
  151.0596  140.4203  159.9630 H   0  0  0  0  0  0  0  0  0  0  0  0
  150.6806  141.8475  157.3126 H   0  0  0  0  0  0  0  0  0  0  0  0
  149.5834  141.7608  158.6709 H   0  0  0  0  0  0  0  0  0  0  0  0
  150.9195  144.3989  157.1352 H   0  0  0  0  0  0  0  0  0  0  0  0
  151.9247  146.2987  158.8168 H   0  0  0  0  0  0  0  0  0  0  0  0
  152.2950  144.9028  161.1822 H   0  0  0  0  0  0  0  0  0  0  0  0
  150.8605  138.6911  158.4748 H   0  0  0  0  0  0  0  0  0  0  0  0
  152.1856  136.4861  157.4355 H   0  0  0  0  0  0  0  0  0  0  0  0
  150.6712  137.2287  157.8980 H   0  0  0  0  0  0  0  0  0  0  0  0
  151.1084  135.4891  155.4319 H   0  0  0  0  0  0  0  0  0  0  0  0
  150.2289  135.0897  156.8513 H   0  0  0  0  0  0  0  0  0  0  0  0
  148.8346  135.7691  154.8156 H   0  0  0  0  0  0  0  0  0  0  0  0
  148.4048  136.4901  156.3483 H   0  0  0  0  0  0  0  0  0  0  0  0
  147.7807  137.6591  153.4900 H   0  0  0  0  0  0  0  0  0  0  0  0
  148.0375  139.3053  154.0823 H   0  0  0  0  0  0  0  0  0  0  0  0
  147.1702  138.1425  155.0774 H   0  0  0  0  0  0  0  0  0  0  0  0
  150.4160  137.3803  153.2614 H   0  0  0  0  0  0  0  0  0  0  0  0
  150.3370  139.0726  153.6822 H   0  0  0  0  0  0  0  0  0  0  0  0
  152.4761  138.7540  154.3967 H   0  0  0  0  0  0  0  0  0  0  0  0
  152.3105  137.0683  154.6052 H   0  0  0  0  0  0  0  0  0  0  0  0
  149.4118  138.4560  155.7831 H   0  0  0  0  0  0  0  0  0  0  0  0
  1  2  1  0  0  0  0
  1 20  1  0  0  0  0
  1 21  1  0  0  0  0
  1 22  1  0  0  0  0
  2  3  1  0  0  0  0
  2  9  1  0  0  0  0
  2 23  1  0  0  0  0
  3  4  1  0  0  0  0
  3 24  1  0  0  0  0
  3 25  1  0  0  0  0
  4  8  1  0  0  0  0
  4  5  1  0  0  0  0
  5  6  2  0  0  0  0
  5 26  1  0  0  0  0
  6  7  1  0  0  0  0
  6 27  1  0  0  0  0
  7  8  2  0  0  0  0
  7 28  1  0  0  0  0
  9 10  1  0  0  0  0
  9 29  1  0  0  0  0
 10 11  2  0  0  0  0
 10 12  1  0  0  0  0
 12 19  1  0  0  0  0
 12 13  1  0  0  0  0
 13 14  1  0  0  0  0
 13 30  1  0  0  0  0
 13 31  1  0  0  0  0
 14 15  1  0  0  0  0
 14 32  1  0  0  0  0
 14 33  1  0  0  0  0
 15 16  1  0  0  0  0
 15 34  1  0  0  0  0
 15 35  1  0  0  0  0
 16 17  1  0  0  0  0
 16 18  1  0  0  0  0
 16 43  1  0  0  0  0
 17 36  1  0  0  0  0
 17 37  1  0  0  0  0
 17 38  1  0  0  0  0
 18 19  1  0  0  0  0
 18 39  1  0  0  0  0
 18 40  1  0  0  0  0
 19 41  1  0  0  0  0
 19 42  1  0  0  0  0
M  CHG  1  16   1
M  END
> <s_m_source_file>
AV-unprocessed.smi

> <i_m_source_file_index>
1752

> <i_lp_mmshare_version>
43012

> <i_f3d_flags>
0

> <s_epik_input>
bjFbY0hdW2NIXVtjSF1uMVtDSDJdW0NAQEhdKFtDSDNdKVtOSF1DKD1PKU4yW0NIMl1bQ0gyXVtDSDJdTihbQ0gzXSlbQ0gyXVtDSDJdMg==

> <s_epik_cmdline>
J2VwaWtfcHl0aG9uJywgJy1waCcsICc3LjAnLCAnLXRuJywgJzgnLCAnLW1hJywgJzIwMCcsICctbWV0YWxfYmluZGluZycsICctaW1hZScsICc8aW5maWxlLm1hZT4nLCAnLW9tYWUnLCAnPG91dGZpbGUubWFlPic=

> <r_lp_tautomer_probability>
1

> <r_epik_Ionization_Penalty>
0.00208423

> <r_epik_Ionization_Penalty_Charging>
0.00203643

> <r_epik_Ionization_Penalty_Neutral>
4.77939e-05

> <r_epik_State_Penalty>
0.00139278

> <r_epik_Charging_Adjusted_Penalty>
0.00342922

> <i_epik_Tot_Q>
1

> <i_epik_Tot_abs_Q>
1

> <r_epik_Metal_State_Penalty>
-0

> <b_epik_Metal_Only>
0

> <s_lp_Force_Field>
OPLS_2005

> <r_lp_Energy>
45.8522

> <b_lp_Chiralities_Consistent>
1

> <s_lp_Variant>
AV-unprocessed.smi:1752-2

> <Gold.Version>
5.8.1

> <Gold.Id.Protein>
6NUR|6NUR_protein|mol2

> <Gold.PLP.Fitness>
34.4925

> <Gold.PLP.PLP>
-30.0443

> <Gold.PLP.part.hbond>
-1.0000

> <Gold.PLP.part.metal>
0.0000

> <Gold.PLP.part.buried>
-2.4710

> <Gold.PLP.part.nonpolar>
-27.1345

> <Gold.PLP.part.repulsive>
0.1105

> <Gold.PLP.ligand.clash>
0.0548

> <Gold.PLP.ligand.torsion>
0.7787

> <Gold.PLP.Chemscore.Hbond>
0.9920

> <Gold.PLP.Chemscore.CHOScore>
0.9964

> <Gold.PLP.Chemscore.Metal>
0.0000

> <Gold.Chemscore.Hbonds>
donor molecule, donor type, donor heavy atom, donor atom, acceptor molecule, acceptor atom, score
      P1  H  7997  8008       L1    11  0.99
      L1  C     5    26       P1  8028  1.00

> <Gold.PLP.Chemscore.Internal.Correction>
0.0952

> <Gold.Rescore>
     Score         DG    S(hbond)    S(metal)    S(lipo)     H(rot)  DE(clash)    DE(int)     intcor
     12.64     -15.56       0.99        0.00      88.85       1.41       0.02       2.90       ----

> <Gold.Chemscore.Fitness>
12.6366

> <Gold.Chemscore.DG>
-15.5602

> <Gold.Chemscore.ZeroCoef>
-5.4800

> <Gold.Chemscore.Hbond>
0.9884

> <Gold.Chemscore.Metal>
0.0000

> <Gold.Chemscore.Lipo>
88.8466

> <Gold.Chemscore.Internal_Hbond>
0.0000

> <Gold.Chemscore.DEClash>
0.0237

> <Gold.Chemscore.DEInternal>
2.8999

> <Gold.Chemscore.Rot>
1.4125

> <Gold.Chemscore.Internal.Correction>
   9.000000E+99

> <Gold.Chemscore.Hbonds>
donor molecule, donor type, donor heavy atom, donor atom, acceptor molecule, acceptor atom, score
      P1  H  7997  8008       L1    11  0.80

> <Gold.Chemscore.Hbond.Weighted>
-3.3011

> <Gold.Chemscore.Metal.Weighted>
-0.0000

> <Gold.Chemscore.Lipo.Weighted>
-10.3951

> <Gold.Chemscore.Internal_Hbond.Weighted>
0.0000

> <Gold.Chemscore.DEClash.Weighted>
0.0237

> <Gold.Chemscore.DEInternal.Weighted>
2.8999

> <Gold.Chemscore.Rot.Weighted>
3.6160

> <Gold.Chemscore.Internal.Correction.Weighted>
   9.000000E+99

> <Gold.Protein.RotatedTorsions>
[ 6907 6896 6895 6894 ] final   19.49 input  -60.11 | X-H torsion
[ 7974 7965 7964 7962 ] final  -28.52 input  175.53 | X-H torsion
[ 8008 7997 7996 7995 ] final  -52.16 input   59.86 | X-H torsion
[ 10167 10162 10161 10158 ] final   48.27 input  -65.29 | X-H torsion
[ 10718 10713 10712 10709 ] final  166.93 input   66.30 | X-H torsion
[ 10763 10752 10751 10750 ] final  123.46 input  -60.55 | X-H torsion
[ 11005 11000 10999 10996 ] final -117.78 input  -57.11 | X-H torsion

> <Gold.Protein.ActiveResidues>
 VAL166  LYS551  ARG553  GLY616  TRP617  ASP618  TYR619  PRO620  LYS621  CYS622 
 ASP623  PHE694  ASN695  SER759  ASP760  ASP761  ALA762  ILE779  LEU786  VAL792 
 PHE793  MET794  SER795  GLU796  ALA797  LYS798  CYS799  TRP800  GLU811  SER814 

> <Gold.Protein.RotatedAtoms>
  151.8817  135.0451  160.0489 H   0  0  0  0  0  0  0  0  0  0  0  0  # atno 6907 bound_to 6896
  152.2508  133.5208  159.5332 H   0  0  0  0  0  0  0  0  0  0  0  0  # atno 6908 bound_to 6896
  150.7083  134.0879  159.3964 H   0  0  0  0  0  0  0  0  0  0  0  0  # atno 6909 bound_to 6896
  146.1282  140.5293  142.8705 H   0  0  0  0  0  0  0  0  0  0  0  0  # atno 7974 bound_to 7965
  154.4100  140.1230  156.4946 H   0  0  0  0  0  0  0  0  0  0  0  0  # atno 8008 bound_to 7997
  155.6955  140.3495  155.4892 H   0  0  0  0  0  0  0  0  0  0  0  0  # atno 8009 bound_to 7997
  155.9431  140.1091  157.1029 H   0  0  0  0  0  0  0  0  0  0  0  0  # atno 8010 bound_to 7997
  140.2950  144.3002  150.6232 H   0  0  0  0  0  0  0  0  0  0  0  0  # atno 10167 bound_to 10162
  157.0588  131.0334  151.2654 H   0  0  0  0  0  0  0  0  0  0  0  0  # atno 10718 bound_to 10713
  153.6459  135.3371  155.3085 H   0  0  0  0  0  0  0  0  0  0  0  0  # atno 10763 bound_to 10752
  154.8549  135.4329  154.1956 H   0  0  0  0  0  0  0  0  0  0  0  0  # atno 10764 bound_to 10752
  153.2886  135.7015  153.7389 H   0  0  0  0  0  0  0  0  0  0  0  0  # atno 10765 bound_to 10752
  141.0331  133.9950  157.3112 H   0  0  0  0  0  0  0  0  0  0  0  0  # atno 11005 bound_to 11000
  144.7664  140.5539  143.6700 LP  0  0  0  0  0  0  0  0  0  0  0  0  # atno 17320 bound_to 7965
  145.5318  139.1475  143.3495 LP  0  0  0  0  0  0  0  0  0  0  0  0  # atno 17321 bound_to 7965
  140.5700  143.2182  151.7616 LP  0  0  0  0  0  0  0  0  0  0  0  0  # atno 17342 bound_to 10162
  139.4929  144.4230  151.9957 LP  0  0  0  0  0  0  0  0  0  0  0  0  # atno 17343 bound_to 10162
  157.4971  130.7857  149.7566 LP  0  0  0  0  0  0  0  0  0  0  0  0  # atno 17370 bound_to 10713
  155.9985  130.3894  150.2701 LP  0  0  0  0  0  0  0  0  0  0  0  0  # atno 17371 bound_to 10713
  139.9222  135.0201  156.8105 LP  0  0  0  0  0  0  0  0  0  0  0  0  # atno 17394 bound_to 11000
  140.6370  133.9853  155.7689 LP  0  0  0  0  0  0  0  0  0  0  0  0  # atno 17395 bound_to 11000

$$$$
