AV-unprocessed.smi:3058|AV-procd|sdf|11671|dock10
  -GOLD-   2272017 73D 1   1.00000     0.00000
 Structure written by MMmdl.
 38 40  0  0  0  0  0  0  0  0  1 V2000
  150.6551  141.3810  158.2775 O   0  0  0  0  0  0  0  0  0  0  0  0
  150.1293  142.4204  157.8769 C   0  0  0  0  0  0  0  0  0  0  0  0
  149.1750  142.4390  156.9339 N   0  0  0  0  0  0  0  0  0  0  0  0
  148.6298  141.2625  156.2677 C   0  0  0  0  0  0  0  0  0  0  0  0
  149.1329  141.1497  154.8195 C   0  0  0  0  0  0  0  0  0  0  0  0
  150.4237  140.3606  154.7233 C   0  0  0  0  0  0  0  0  0  0  0  0
  150.5403  139.2681  153.8392 C   0  0  0  0  0  0  0  0  0  0  0  0
  151.7612  138.5685  153.7837 C   0  0  0  0  0  0  0  0  0  0  0  0
  152.8161  138.9932  154.6163 C   0  0  0  0  0  0  0  0  0  0  0  0
  152.7159  140.0384  155.4655 N   0  0  0  0  0  0  0  0  0  0  0  0
  151.5417  140.7037  155.5131 C   0  0  0  0  0  0  0  0  0  0  0  0
  150.5664  143.7920  158.4215 C   0  0  2  0  0  0  0  0  0  0  0  0
  151.5356  144.5752  157.5015 C   0  0  0  0  0  0  0  0  0  0  0  0
  152.7033  144.9224  158.4446 C   0  0  2  0  0  0  0  0  0  0  0  0
  153.5274  143.6535  158.7318 C   0  0  0  0  0  0  0  0  0  0  0  0
  152.6145  142.8660  159.6894 C   0  0  0  0  0  0  0  0  0  0  0  0
  151.3507  143.7515  159.7601 C   0  0  1  0  0  0  0  0  0  0  0  0
  151.9823  145.1406  159.7701 C   0  0  0  0  0  0  0  0  0  0  0  0
  148.8014  143.3349  156.6556 H   0  0  0  0  0  0  0  0  0  0  0  0
  148.8790  140.3621  156.8324 H   0  0  0  0  0  0  0  0  0  0  0  0
  147.5426  141.3449  156.2776 H   0  0  0  0  0  0  0  0  0  0  0  0
  148.3777  140.6675  154.1976 H   0  0  0  0  0  0  0  0  0  0  0  0
  149.2926  142.1417  154.3948 H   0  0  0  0  0  0  0  0  0  0  0  0
  149.7110  138.9715  153.2136 H   0  0  0  0  0  0  0  0  0  0  0  0
  151.8871  137.7270  153.1186 H   0  0  0  0  0  0  0  0  0  0  0  0
  153.7661  138.4797  154.5988 H   0  0  0  0  0  0  0  0  0  0  0  0
  151.4940  141.5356  156.2005 H   0  0  0  0  0  0  0  0  0  0  0  0
  149.6707  144.3997  158.5658 H   0  0  0  0  0  0  0  0  0  0  0  0
  151.8739  144.0199  156.6257 H   0  0  0  0  0  0  0  0  0  0  0  0
  151.0556  145.4850  157.1387 H   0  0  0  0  0  0  0  0  0  0  0  0
  153.3045  145.7650  158.1019 H   0  0  0  0  0  0  0  0  0  0  0  0
  153.7550  143.0961  157.8226 H   0  0  0  0  0  0  0  0  0  0  0  0
  154.4715  143.9012  159.2187 H   0  0  0  0  0  0  0  0  0  0  0  0
  152.4247  141.8466  159.3564 H   0  0  0  0  0  0  0  0  0  0  0  0
  153.0787  142.7956  160.6740 H   0  0  0  0  0  0  0  0  0  0  0  0
  150.7205  143.5425  160.6252 H   0  0  0  0  0  0  0  0  0  0  0  0
  152.6601  145.3049  160.6098 H   0  0  0  0  0  0  0  0  0  0  0  0
  151.2524  145.9516  159.7379 H   0  0  0  0  0  0  0  0  0  0  0  0
  1  2  2  0  0  0  0
  2  3  1  0  0  0  0
  2 12  1  0  0  0  0
  3  4  1  0  0  0  0
  3 19  1  0  0  0  0
  4  5  1  0  0  0  0
  4 20  1  0  0  0  0
  4 21  1  0  0  0  0
  5  6  1  0  0  0  0
  5 22  1  0  0  0  0
  5 23  1  0  0  0  0
  6 11  1  0  0  0  0
  6  7  2  0  0  0  0
  7  8  1  0  0  0  0
  7 24  1  0  0  0  0
  8  9  2  0  0  0  0
  8 25  1  0  0  0  0
  9 10  1  0  0  0  0
  9 26  1  0  0  0  0
 10 11  2  0  0  0  0
 11 27  1  0  0  0  0
 12 17  1  0  0  0  0
 12 13  1  0  0  0  0
 12 28  1  0  0  0  0
 13 14  1  0  0  0  0
 13 29  1  0  0  0  0
 13 30  1  0  0  0  0
 14 18  1  0  0  0  0
 14 15  1  0  0  0  0
 14 31  1  0  0  0  0
 15 16  1  0  0  0  0
 15 32  1  0  0  0  0
 15 33  1  0  0  0  0
 16 17  1  0  0  0  0
 16 34  1  0  0  0  0
 16 35  1  0  0  0  0
 17 18  1  0  0  0  0
 17 36  1  0  0  0  0
 18 37  1  0  0  0  0
 18 38  1  0  0  0  0
M  END
> <s_m_source_file>
AV-unprocessed.smi

> <i_m_source_file_index>
3058

> <i_lp_mmshare_version>
43012

> <i_f3d_flags>
0

> <s_epik_input>
W0NIMl0xW0NIMl1bQ0BIXShbQ0gyXTIpW0NAQEhdKFtDSDJdW0NAQEhdMTIpQyg9TylbTkhdW0NIMl1bQ0gyXWMzW2NIXVtjSF1bY0hdbltjSF0z

> <s_epik_cmdline>
J2VwaWtfcHl0aG9uJywgJy1waCcsICc3LjAnLCAnLXRuJywgJzgnLCAnLW1hJywgJzIwMCcsICctbWV0YWxfYmluZGluZycsICctaW1hZScsICc8aW5maWxlLm1hZT4nLCAnLW9tYWUnLCAnPG91dGZpbGUubWFlPic=

> <r_epik_Ionization_Penalty>
0.0135821

> <r_epik_Ionization_Penalty_Charging>
0

> <r_epik_Ionization_Penalty_Neutral>
0.0135821

> <r_epik_State_Penalty>
0.0105782

> <r_epik_Charging_Adjusted_Penalty>
0.0105782

> <i_epik_Tot_Q>
0

> <i_epik_Tot_abs_Q>
0

> <r_epik_Metal_State_Penalty>
0.0103407

> <b_epik_Metal_Only>
0

> <s_lp_Force_Field>
OPLS_2005

> <r_lp_Energy>
46.6846

> <b_lp_Chiralities_Consistent>
1

> <s_lp_Variant>
AV-unprocessed.smi:3058-3

> <Gold.Version>
5.8.1

> <Gold.Id.Protein>
6NUR|6NUR_protein|mol2

> <Gold.PLP.Fitness>
51.2741

> <Gold.PLP.PLP>
-46.8784

> <Gold.PLP.part.hbond>
-2.0000

> <Gold.PLP.part.metal>
0.0000

> <Gold.PLP.part.buried>
-4.6378

> <Gold.PLP.part.nonpolar>
-40.3233

> <Gold.PLP.part.repulsive>
0.0203

> <Gold.PLP.ligand.clash>
0.0000

> <Gold.PLP.ligand.torsion>
0.8089

> <Gold.PLP.Chemscore.Hbond>
2.0000

> <Gold.PLP.Chemscore.CHOScore>
0.0000

> <Gold.PLP.Chemscore.Metal>
0.0000

> <Gold.Chemscore.Hbonds>
donor molecule, donor type, donor heavy atom, donor atom, acceptor molecule, acceptor atom, score
      L1  H     3    19       P1  8028  1.00
      P1  H  7997  8008       L1    10  1.00

> <Gold.PLP.Chemscore.Internal.Correction>
0.0136

> <Gold.Rescore>
     Score         DG    S(hbond)    S(metal)    S(lipo)     H(rot)  DE(clash)    DE(int)     intcor
     21.85     -23.85       1.79        0.00     135.81       1.37       0.32       1.68       ----

> <Gold.Chemscore.Fitness>
21.8503

> <Gold.Chemscore.DG>
-23.8531

> <Gold.Chemscore.ZeroCoef>
-5.4800

> <Gold.Chemscore.Hbond>
1.7900

> <Gold.Chemscore.Metal>
0.0000

> <Gold.Chemscore.Lipo>
135.8090

> <Gold.Chemscore.Internal_Hbond>
0.0000

> <Gold.Chemscore.DEClash>
0.3220

> <Gold.Chemscore.DEInternal>
1.6808

> <Gold.Chemscore.Rot>
1.3653

> <Gold.Chemscore.Internal.Correction>
   9.000000E+99

> <Gold.Chemscore.Hbonds>
donor molecule, donor type, donor heavy atom, donor atom, acceptor molecule, acceptor atom, score
      L1  H     3    19       P1  8028  0.78
      P1  H  7997  8008       L1    10  0.44

> <Gold.Chemscore.Hbond.Weighted>
-5.9786

> <Gold.Chemscore.Metal.Weighted>
-0.0000

> <Gold.Chemscore.Lipo.Weighted>
-15.8896

> <Gold.Chemscore.Internal_Hbond.Weighted>
0.0000

> <Gold.Chemscore.DEClash.Weighted>
0.3220

> <Gold.Chemscore.DEInternal.Weighted>
1.6808

> <Gold.Chemscore.Rot.Weighted>
3.4951

> <Gold.Chemscore.Internal.Correction.Weighted>
   9.000000E+99

> <Gold.Protein.RotatedTorsions>
[ 6907 6896 6895 6894 ] final  -52.51 input  -60.11 | X-H torsion
[ 7974 7965 7964 7962 ] final -147.22 input  175.53 | X-H torsion
[ 8008 7997 7996 7995 ] final  -37.24 input   59.86 | X-H torsion
[ 10167 10162 10161 10158 ] final -175.23 input  -65.29 | X-H torsion
[ 10718 10713 10712 10709 ] final -147.64 input   66.30 | X-H torsion
[ 10763 10752 10751 10750 ] final -127.08 input  -60.55 | X-H torsion
[ 11005 11000 10999 10996 ] final  117.63 input  -57.11 | X-H torsion

> <Gold.Protein.ActiveResidues>
 VAL166  LYS551  ARG553  GLY616  TRP617  ASP618  TYR619  PRO620  LYS621  CYS622 
 ASP623  PHE694  ASN695  SER759  ASP760  ASP761  ALA762  ILE779  LEU786  VAL792 
 PHE793  MET794  SER795  GLU796  ALA797  LYS798  CYS799  TRP800  GLU811  SER814 

> <Gold.Protein.RotatedAtoms>
  150.8511  134.7836  159.7009 H   0  0  0  0  0  0  0  0  0  0  0  0  # atno 6907 bound_to 6896
  152.4575  134.5254  159.9805 H   0  0  0  0  0  0  0  0  0  0  0  0  # atno 6908 bound_to 6896
  151.5375  133.3400  159.2965 H   0  0  0  0  0  0  0  0  0  0  0  0  # atno 6909 bound_to 6896
  144.8108  140.5355  143.5644 H   0  0  0  0  0  0  0  0  0  0  0  0  # atno 7974 bound_to 7965
  154.4057  140.1609  156.2504 H   0  0  0  0  0  0  0  0  0  0  0  0  # atno 8008 bound_to 7997
  155.9124  140.3426  155.6086 H   0  0  0  0  0  0  0  0  0  0  0  0  # atno 8009 bound_to 7997
  155.7320  140.0781  157.2275 H   0  0  0  0  0  0  0  0  0  0  0  0  # atno 8010 bound_to 7997
  139.5591  144.1913  152.1210 H   0  0  0  0  0  0  0  0  0  0  0  0  # atno 10167 bound_to 10162
  156.4101  130.7977  151.2194 H   0  0  0  0  0  0  0  0  0  0  0  0  # atno 10718 bound_to 10713
  154.8750  135.3974  154.3536 H   0  0  0  0  0  0  0  0  0  0  0  0  # atno 10763 bound_to 10752
  153.4318  135.7025  153.6231 H   0  0  0  0  0  0  0  0  0  0  0  0  # atno 10764 bound_to 10752
  153.4849  135.3761  155.2431 H   0  0  0  0  0  0  0  0  0  0  0  0  # atno 10765 bound_to 10752
  139.9081  134.9612  156.7380 H   0  0  0  0  0  0  0  0  0  0  0  0  # atno 11005 bound_to 11000
  145.5329  139.1475  143.3489 LP  0  0  0  0  0  0  0  0  0  0  0  0  # atno 17320 bound_to 7965
  146.2406  140.5469  142.8936 LP  0  0  0  0  0  0  0  0  0  0  0  0  # atno 17321 bound_to 7965
  140.1423  144.5190  150.6736 LP  0  0  0  0  0  0  0  0  0  0  0  0  # atno 17342 bound_to 10162
  140.6869  143.2355  151.5236 LP  0  0  0  0  0  0  0  0  0  0  0  0  # atno 17343 bound_to 10162
  157.7507  131.0260  150.3944 LP  0  0  0  0  0  0  0  0  0  0  0  0  # atno 17370 bound_to 10713
  156.4241  130.3958  149.6805 LP  0  0  0  0  0  0  0  0  0  0  0  0  # atno 17371 bound_to 10713
  140.6872  133.9422  155.7945 LP  0  0  0  0  0  0  0  0  0  0  0  0  # atno 17394 bound_to 11000
  141.0468  134.0542  157.3834 LP  0  0  0  0  0  0  0  0  0  0  0  0  # atno 17395 bound_to 11000

$$$$
