AV-unprocessed.smi:893|AV-procd|sdf|4070|dock1
  -GOLD-   22720 1553D 1   1.00000     0.00000
 Structure written by MMmdl.
 26 27  0  0  0  0  0  0  0  0  2 V2000
  152.6907  138.2071  160.3115 C   0  0  0  0  0  0  0  0  0  0  0  0
  153.1499  138.5793  158.8884 C   0  0  0  0  0  0  0  0  0  0  0  0
  152.3575  139.7122  158.1795 C   0  0  1  0  0  0  0  0  0  0  0  0
  152.5426  141.0303  158.9152 C   0  0  0  0  0  0  0  0  0  0  0  0
  153.2869  141.2670  160.1098 C   0  0  0  0  0  0  0  0  0  0  0  0
  153.2574  142.5297  160.5036 N   0  0  0  0  0  0  0  0  0  0  0  0
  152.4988  143.1488  159.5776 N   0  0  0  0  0  0  0  0  0  0  0  0
  152.2484  144.5693  159.6927 C   0  0  0  0  0  0  0  0  0  0  0  0
  152.0575  142.2739  158.6095 C   0  0  0  0  0  0  0  0  0  0  0  0
  152.7496  139.8100  156.7789 N   0  5  0  0  0  0  0  0  0  0  0  0
  151.6502  139.6430  156.0057 C   0  0  0  0  0  0  0  0  0  0  0  0
  151.5817  139.6751  154.7792 O   0  0  0  0  0  0  0  0  0  0  0  0
  150.5704  139.4200  156.7615 N   0  0  0  0  0  0  0  0  0  0  0  0
  150.8673  139.4173  158.0575 C   0  0  0  0  0  0  0  0  0  0  0  0
  150.0982  139.2111  158.9962 O   0  0  0  0  0  0  0  0  0  0  0  0
  153.2935  137.3891  160.7059 H   0  0  0  0  0  0  0  0  0  0  0  0
  151.6507  137.8812  160.3241 H   0  0  0  0  0  0  0  0  0  0  0  0
  152.7897  139.0449  161.0016 H   0  0  0  0  0  0  0  0  0  0  0  0
  154.2032  138.8572  158.9421 H   0  0  0  0  0  0  0  0  0  0  0  0
  153.1166  137.6824  158.2683 H   0  0  0  0  0  0  0  0  0  0  0  0
  153.8441  140.5555  160.7012 H   0  0  0  0  0  0  0  0  0  0  0  0
  151.6122  144.9042  158.8727 H   0  0  0  0  0  0  0  0  0  0  0  0
  153.1918  145.1148  159.6548 H   0  0  0  0  0  0  0  0  0  0  0  0
  151.7483  144.7810  160.6382 H   0  0  0  0  0  0  0  0  0  0  0  0
  151.4377  142.6027  157.7881 H   0  0  0  0  0  0  0  0  0  0  0  0
  149.6457  139.2579  156.3916 H   0  0  0  0  0  0  0  0  0  0  0  0
  1  2  1  0  0  0  0
  1 16  1  0  0  0  0
  1 17  1  0  0  0  0
  1 18  1  0  0  0  0
  2  3  1  0  0  0  0
  2 19  1  0  0  0  0
  2 20  1  0  0  0  0
  3 14  1  0  0  0  0
  3  4  1  0  0  0  0
  3 10  1  0  0  0  0
  4  9  2  0  0  0  0
  4  5  1  0  0  0  0
  5  6  2  0  0  0  0
  5 21  1  0  0  0  0
  6  7  1  0  0  0  0
  7  8  1  0  0  0  0
  7  9  1  0  0  0  0
  8 22  1  0  0  0  0
  8 23  1  0  0  0  0
  8 24  1  0  0  0  0
  9 25  1  0  0  0  0
 10 11  1  0  0  0  0
 11 12  2  0  0  0  0
 11 13  1  0  0  0  0
 13 14  1  0  0  0  0
 13 26  1  0  0  0  0
 14 15  2  0  0  0  0
M  CHG  1  10  -1
M  END
> <s_m_source_file>
AV-unprocessed.smi

> <i_m_source_file_index>
893

> <i_lp_mmshare_version>
43012

> <i_f3d_flags>
0

> <s_epik_input>
Tz1DMVtOSF1DKD1PKVtOSF1bQ0BAXTEoW0NIMl1bQ0gzXSljMltjSF1ubihbQ0gzXSlbY0hdMg==

> <s_epik_cmdline>
J2VwaWtfcHl0aG9uJywgJy1waCcsICc3LjAnLCAnLXRuJywgJzgnLCAnLW1hJywgJzIwMCcsICctbWV0YWxfYmluZGluZycsICctaW1hZScsICc8aW5maWxlLm1hZT4nLCAnLW9tYWUnLCAnPG91dGZpbGUubWFlPic=

> <r_lp_tautomer_probability>
1

> <r_epik_Ionization_Penalty>
4.97057

> <r_epik_Ionization_Penalty_Charging>
4.97009

> <r_epik_Ionization_Penalty_Neutral>
0.000472554

> <r_epik_State_Penalty>
4.98892

> <r_epik_Charging_Adjusted_Penalty>
9.95901

> <i_epik_Tot_Q>
-1

> <i_epik_Tot_abs_Q>
1

> <r_epik_Metal_State_Penalty>
1.41037

> <b_epik_Metal_Only>
1

> <s_lp_Force_Field>
OPLS_2005

> <r_lp_Energy>
9.72866

> <b_lp_Chiralities_Consistent>
1

> <s_lp_Variant>
AV-unprocessed.smi:893-5

> <Gold.Version>
5.8.1

> <Gold.Id.Protein>
6NUR|6NUR_protein|mol2

> <Gold.PLP.Fitness>
36.1936

> <Gold.PLP.PLP>
-27.2532

> <Gold.PLP.part.hbond>
-2.6627

> <Gold.PLP.part.metal>
0.0000

> <Gold.PLP.part.buried>
-2.9203

> <Gold.PLP.part.nonpolar>
-21.3127

> <Gold.PLP.part.repulsive>
0.0903

> <Gold.PLP.ligand.clash>
0.0000

> <Gold.PLP.ligand.torsion>
0.0736

> <Gold.PLP.Chemscore.Hbond>
3.0000

> <Gold.PLP.Chemscore.CHOScore>
0.0000

> <Gold.PLP.Chemscore.Metal>
0.0000

> <Gold.Chemscore.Hbonds>
donor molecule, donor type, donor heavy atom, donor atom, acceptor molecule, acceptor atom, score
      P1  H  7989  7998       L1    12  1.00
      P1  H  7997  8009       L1    10  2.00

> <Gold.PLP.Chemscore.Internal.Correction>
0.0877

> <Gold.Rescore>
     Score         DG    S(hbond)    S(metal)    S(lipo)     H(rot)  DE(clash)    DE(int)     intcor
     15.09     -15.15       1.97        0.00      54.49       1.28       0.00       0.06       ----

> <Gold.Chemscore.Fitness>
15.0871

> <Gold.Chemscore.DG>
-15.1518

> <Gold.Chemscore.ZeroCoef>
-5.4800

> <Gold.Chemscore.Hbond>
1.9685

> <Gold.Chemscore.Metal>
0.0000

> <Gold.Chemscore.Lipo>
54.4893

> <Gold.Chemscore.Internal_Hbond>
0.0000

> <Gold.Chemscore.DEClash>
0.0047

> <Gold.Chemscore.DEInternal>
0.0601

> <Gold.Chemscore.Rot>
1.2805

> <Gold.Chemscore.Internal.Correction>
   9.000000E+99

> <Gold.Chemscore.Hbonds>
donor molecule, donor type, donor heavy atom, donor atom, acceptor molecule, acceptor atom, score
      P1  H  7989  7998       L1    12  0.99
      P1  H  7997  8009       L1    10  0.92

> <Gold.Chemscore.Hbond.Weighted>
-6.5748

> <Gold.Chemscore.Metal.Weighted>
-0.0000

> <Gold.Chemscore.Lipo.Weighted>
-6.3752

> <Gold.Chemscore.Internal_Hbond.Weighted>
0.0000

> <Gold.Chemscore.DEClash.Weighted>
0.0047

> <Gold.Chemscore.DEInternal.Weighted>
0.0601

> <Gold.Chemscore.Rot.Weighted>
3.2782

> <Gold.Chemscore.Internal.Correction.Weighted>
   9.000000E+99

> <Gold.Protein.RotatedTorsions>
[ 6907 6896 6895 6894 ] final   35.05 input  -60.11 | X-H torsion
[ 7974 7965 7964 7962 ] final  -46.46 input  175.53 | X-H torsion
[ 8008 7997 7996 7995 ] final -171.62 input   59.86 | X-H torsion
[ 10167 10162 10161 10158 ] final -177.36 input  -65.29 | X-H torsion
[ 10718 10713 10712 10709 ] final   71.99 input   66.30 | X-H torsion
[ 10763 10752 10751 10750 ] final  -24.73 input  -60.55 | X-H torsion
[ 11005 11000 10999 10996 ] final -132.96 input  -57.11 | X-H torsion

> <Gold.Protein.ActiveResidues>
 VAL166  LYS551  ARG553  GLY616  TRP617  ASP618  TYR619  PRO620  LYS621  CYS622 
 ASP623  PHE694  ASN695  SER759  ASP760  ASP761  ALA762  ILE779  LEU786  VAL792 
 PHE793  MET794  SER795  GLU796  ALA797  LYS798  CYS799  TRP800  GLU811  SER814 

> <Gold.Protein.RotatedAtoms>
  152.1108  134.9275  160.0566 H   0  0  0  0  0  0  0  0  0  0  0  0  # atno 6907 bound_to 6896
  152.0454  133.3990  159.4362 H   0  0  0  0  0  0  0  0  0  0  0  0  # atno 6908 bound_to 6896
  150.6843  134.3289  159.4862 H   0  0  0  0  0  0  0  0  0  0  0  0  # atno 6909 bound_to 6896
  145.9717  140.7376  142.9407 H   0  0  0  0  0  0  0  0  0  0  0  0  # atno 7974 bound_to 7965
  155.9340  140.1096  157.1110 H   0  0  0  0  0  0  0  0  0  0  0  0  # atno 8008 bound_to 7997
  154.4076  140.1232  156.4905 H   0  0  0  0  0  0  0  0  0  0  0  0  # atno 8009 bound_to 7997
  155.7045  140.3471  155.4949 H   0  0  0  0  0  0  0  0  0  0  0  0  # atno 8010 bound_to 7997
  139.5484  144.2175  152.1031 H   0  0  0  0  0  0  0  0  0  0  0  0  # atno 10167 bound_to 10162
  157.6479  130.9556  150.0866 H   0  0  0  0  0  0  0  0  0  0  0  0  # atno 10718 bound_to 10713
  153.6884  135.6963  153.5097 H   0  0  0  0  0  0  0  0  0  0  0  0  # atno 10763 bound_to 10752
  153.2432  135.4299  155.0719 H   0  0  0  0  0  0  0  0  0  0  0  0  # atno 10764 bound_to 10752
  154.8380  135.3513  154.6426 H   0  0  0  0  0  0  0  0  0  0  0  0  # atno 10765 bound_to 10752
  140.9123  134.1551  157.4379 H   0  0  0  0  0  0  0  0  0  0  0  0  # atno 11005 bound_to 11000
  144.6838  140.2760  143.7299 LP  0  0  0  0  0  0  0  0  0  0  0  0  # atno 17320 bound_to 7965
  145.7897  139.1922  143.2110 LP  0  0  0  0  0  0  0  0  0  0  0  0  # atno 17321 bound_to 7965
  140.1665  144.4976  150.6603 LP  0  0  0  0  0  0  0  0  0  0  0  0  # atno 17342 bound_to 10162
  140.6739  143.2297  151.5556 LP  0  0  0  0  0  0  0  0  0  0  0  0  # atno 17343 bound_to 10162
  156.1827  130.3651  149.9014 LP  0  0  0  0  0  0  0  0  0  0  0  0  # atno 17370 bound_to 10713
  156.6962  130.8915  151.3594 LP  0  0  0  0  0  0  0  0  0  0  0  0  # atno 17371 bound_to 10713
  139.8760  134.9940  156.5674 LP  0  0  0  0  0  0  0  0  0  0  0  0  # atno 17394 bound_to 11000
  140.8094  133.8441  155.8796 LP  0  0  0  0  0  0  0  0  0  0  0  0  # atno 17395 bound_to 11000

$$$$
