AV-unprocessed.smi:3303|AV-procd|sdf|12683|dock6
  -GOLD-   2272019 23D 1   1.00000     0.00000
 Structure written by MMmdl.
 44 45  0  0  0  0  0  0  0  0  2 V2000
  149.6108  138.6112  154.0201 C   0  0  0  0  0  0  0  0  0  0  0  0
  148.5472  139.6119  154.5054 C   0  0  2  0  0  0  0  0  0  0  0  0
  147.2693  139.4756  153.6458 C   0  0  0  0  0  0  0  0  0  0  0  0
  146.2119  140.4438  154.0343 N   0  3  1  0  0  0  0  0  0  0  0  0
  145.5361  140.0818  155.3061 C   0  0  0  0  0  0  0  0  0  0  0  0
  146.7010  141.8491  153.9434 C   0  0  1  0  0  0  0  0  0  0  0  0
  145.5983  142.8867  154.2163 C   0  0  0  0  0  0  0  0  0  0  0  0
  147.9443  142.0646  154.8280 C   0  0  0  0  0  0  0  0  0  0  0  0
  149.0672  141.0691  154.4788 C   0  0  1  0  0  0  0  0  0  0  0  0
  150.1225  141.2291  155.4722 N   0  0  0  0  0  0  0  0  0  0  0  0
  149.7048  140.7346  156.7749 C   0  0  0  0  0  0  0  0  0  0  0  0
  150.9146  140.6838  157.7179 C   0  0  0  0  0  0  0  0  0  0  0  0
  151.3531  142.0659  158.1637 C   0  0  0  0  0  0  0  0  0  0  0  0
  152.3705  142.2228  159.1290 C   0  0  0  0  0  0  0  0  0  0  0  0
  152.7398  143.5279  159.5084 C   0  0  0  0  0  0  0  0  0  0  0  0
  152.0798  144.6199  158.9130 C   0  0  0  0  0  0  0  0  0  0  0  0
  151.0760  144.3572  157.9595 C   0  0  0  0  0  0  0  0  0  0  0  0
  150.7149  143.1098  157.5879 N   0  0  0  0  0  0  0  0  0  0  0  0
  149.9273  138.8327  153.0003 H   0  0  0  0  0  0  0  0  0  0  0  0
  149.2250  137.5914  154.0342 H   0  0  0  0  0  0  0  0  0  0  0  0
  150.4977  138.6289  154.6539 H   0  0  0  0  0  0  0  0  0  0  0  0
  148.2951  139.3499  155.5340 H   0  0  0  0  0  0  0  0  0  0  0  0
  147.5154  139.6432  152.5961 H   0  0  0  0  0  0  0  0  0  0  0  0
  146.8757  138.4600  153.7042 H   0  0  0  0  0  0  0  0  0  0  0  0
  146.1880  140.2124  156.1696 H   0  0  0  0  0  0  0  0  0  0  0  0
  145.2177  139.0392  155.2840 H   0  0  0  0  0  0  0  0  0  0  0  0
  144.6391  140.6802  155.4628 H   0  0  0  0  0  0  0  0  0  0  0  0
  147.0090  141.9959  152.9068 H   0  0  0  0  0  0  0  0  0  0  0  0
  145.9515  143.8925  153.9870 H   0  0  0  0  0  0  0  0  0  0  0  0
  145.2859  142.8875  155.2607 H   0  0  0  0  0  0  0  0  0  0  0  0
  144.7187  142.7004  153.5992 H   0  0  0  0  0  0  0  0  0  0  0  0
  148.3108  143.0844  154.7000 H   0  0  0  0  0  0  0  0  0  0  0  0
  147.6706  141.9737  155.8802 H   0  0  0  0  0  0  0  0  0  0  0  0
  149.4351  141.2942  153.4759 H   0  0  0  0  0  0  0  0  0  0  0  0
  150.9554  140.7414  155.1742 H   0  0  0  0  0  0  0  0  0  0  0  0
  148.9369  141.3910  157.1869 H   0  0  0  0  0  0  0  0  0  0  0  0
  149.2678  139.7410  156.6679 H   0  0  0  0  0  0  0  0  0  0  0  0
  150.6795  140.0824  158.5972 H   0  0  0  0  0  0  0  0  0  0  0  0
  151.7543  140.1912  157.2250 H   0  0  0  0  0  0  0  0  0  0  0  0
  152.8581  141.3654  159.5693 H   0  0  0  0  0  0  0  0  0  0  0  0
  153.5153  143.6881  160.2427 H   0  0  0  0  0  0  0  0  0  0  0  0
  152.3369  145.6342  159.1804 H   0  0  0  0  0  0  0  0  0  0  0  0
  150.5492  145.1704  157.4825 H   0  0  0  0  0  0  0  0  0  0  0  0
  145.4957  140.3569  153.3272 H   0  0  0  0  0  0  0  0  0  0  0  0
  1  2  1  0  0  0  0
  1 19  1  0  0  0  0
  1 20  1  0  0  0  0
  1 21  1  0  0  0  0
  2  9  1  0  0  0  0
  2  3  1  0  0  0  0
  2 22  1  0  0  0  0
  3  4  1  0  0  0  0
  3 23  1  0  0  0  0
  3 24  1  0  0  0  0
  4  5  1  0  0  0  0
  4  6  1  0  0  0  0
  4 44  1  0  0  0  0
  5 25  1  0  0  0  0
  5 26  1  0  0  0  0
  5 27  1  0  0  0  0
  6  7  1  0  0  0  0
  6  8  1  0  0  0  0
  6 28  1  0  0  0  0
  7 29  1  0  0  0  0
  7 30  1  0  0  0  0
  7 31  1  0  0  0  0
  8  9  1  0  0  0  0
  8 32  1  0  0  0  0
  8 33  1  0  0  0  0
  9 10  1  0  0  0  0
  9 34  1  0  0  0  0
 10 11  1  0  0  0  0
 10 35  1  0  0  0  0
 11 12  1  0  0  0  0
 11 36  1  0  0  0  0
 11 37  1  0  0  0  0
 12 13  1  0  0  0  0
 12 38  1  0  0  0  0
 12 39  1  0  0  0  0
 13 18  1  0  0  0  0
 13 14  2  0  0  0  0
 14 15  1  0  0  0  0
 14 40  1  0  0  0  0
 15 16  2  0  0  0  0
 15 41  1  0  0  0  0
 16 17  1  0  0  0  0
 16 42  1  0  0  0  0
 17 18  2  0  0  0  0
 17 43  1  0  0  0  0
M  CHG  1   4   1
M  END
> <s_m_source_file>
AV-unprocessed.smi

> <i_m_source_file_index>
3303

> <i_lp_mmshare_version>
43012

> <i_f3d_flags>
0

> <s_epik_input>
W0NIM11bQ0BASF0xW0NIMl1OKFtDSDNdKVtDQEBIXShbQ0gzXSlbQ0gyXVtDQEhdMVtOSF1bQ0gyXVtDSDJdYzJbY0hdW2NIXVtjSF1bY0hdbjI=

> <s_epik_cmdline>
J2VwaWtfcHl0aG9uJywgJy1waCcsICc3LjAnLCAnLXRuJywgJzgnLCAnLW1hJywgJzIwMCcsICctbWV0YWxfYmluZGluZycsICctaW1hZScsICc8aW5maWxlLm1hZT4nLCAnLW9tYWUnLCAnPG91dGZpbGUubWFlPic=

> <r_epik_Ionization_Penalty>
2.31085

> <r_epik_Ionization_Penalty_Charging>
0.000313057

> <r_epik_Ionization_Penalty_Neutral>
2.31054

> <r_epik_State_Penalty>
2.4087

> <r_epik_Charging_Adjusted_Penalty>
2.40902

> <i_epik_Tot_Q>
1

> <i_epik_Tot_abs_Q>
1

> <r_epik_Metal_State_Penalty>
2.30979

> <b_epik_Metal_Only>
0

> <s_lp_Force_Field>
OPLS_2005

> <r_lp_Energy>
25.8109

> <b_lp_Chiralities_Consistent>
1

> <s_lp_Variant>
AV-unprocessed.smi:3303-27

> <Gold.Version>
5.8.1

> <Gold.Id.Protein>
6NUR|6NUR_protein|mol2

> <Gold.PLP.Fitness>
47.4201

> <Gold.PLP.PLP>
-39.2456

> <Gold.PLP.part.hbond>
-1.7496

> <Gold.PLP.part.metal>
0.0000

> <Gold.PLP.part.buried>
-2.3567

> <Gold.PLP.part.nonpolar>
-37.0782

> <Gold.PLP.part.repulsive>
0.1406

> <Gold.PLP.ligand.clash>
0.0000

> <Gold.PLP.ligand.torsion>
0.1473

> <Gold.PLP.Chemscore.Hbond>
2.0000

> <Gold.PLP.Chemscore.CHOScore>
0.8189

> <Gold.PLP.Chemscore.Metal>
0.0000

> <Gold.Chemscore.Hbonds>
donor molecule, donor type, donor heavy atom, donor atom, acceptor molecule, acceptor atom, score
      L1  H     4    44       P1 10175  2.00
      L1  C    17    43       P1  8028  0.65
      L1  C    17    43       P1  8029  0.06

> <Gold.PLP.Chemscore.Internal.Correction>
0.0124

> <Gold.Rescore>
     Score         DG    S(hbond)    S(metal)    S(lipo)     H(rot)  DE(clash)    DE(int)     intcor
     18.11     -18.38       0.95        0.00     112.19       1.33       0.07       0.20       ----

> <Gold.Chemscore.Fitness>
18.1062

> <Gold.Chemscore.DG>
-18.3835

> <Gold.Chemscore.ZeroCoef>
-5.4800

> <Gold.Chemscore.Hbond>
0.9504

> <Gold.Chemscore.Metal>
0.0000

> <Gold.Chemscore.Lipo>
112.1949

> <Gold.Chemscore.Internal_Hbond>
0.0000

> <Gold.Chemscore.DEClash>
0.0736

> <Gold.Chemscore.DEInternal>
0.2037

> <Gold.Chemscore.Rot>
1.3272

> <Gold.Chemscore.Internal.Correction>
   9.000000E+99

> <Gold.Chemscore.Hbonds>
donor molecule, donor type, donor heavy atom, donor atom, acceptor molecule, acceptor atom, score
      L1  H     4    44       P1 10175  0.94

> <Gold.Chemscore.Hbond.Weighted>
-3.1743

> <Gold.Chemscore.Metal.Weighted>
-0.0000

> <Gold.Chemscore.Lipo.Weighted>
-13.1268

> <Gold.Chemscore.Internal_Hbond.Weighted>
0.0000

> <Gold.Chemscore.DEClash.Weighted>
0.0736

> <Gold.Chemscore.DEInternal.Weighted>
0.2037

> <Gold.Chemscore.Rot.Weighted>
3.3976

> <Gold.Chemscore.Internal.Correction.Weighted>
   9.000000E+99

> <Gold.Protein.RotatedTorsions>
[ 6907 6896 6895 6894 ] final  -88.29 input  -60.11 | X-H torsion
[ 7974 7965 7964 7962 ] final -165.09 input  175.53 | X-H torsion
[ 8008 7997 7996 7995 ] final  166.39 input   59.86 | X-H torsion
[ 10167 10162 10161 10158 ] final   -5.96 input  -65.29 | X-H torsion
[ 10718 10713 10712 10709 ] final -107.22 input   66.30 | X-H torsion
[ 10763 10752 10751 10750 ] final -135.36 input  -60.55 | X-H torsion
[ 11005 11000 10999 10996 ] final  -90.56 input  -57.11 | X-H torsion

> <Gold.Protein.ActiveResidues>
 VAL166  LYS551  ARG553  GLY616  TRP617  ASP618  TYR619  PRO620  LYS621  CYS622 
 ASP623  PHE694  ASN695  SER759  ASP760  ASP761  ALA762  ILE779  LEU786  VAL792 
 PHE793  MET794  SER795  GLU796  ALA797  LYS798  CYS799  TRP800  GLU811  SER814 

> <Gold.Protein.RotatedAtoms>
  150.6868  134.2765  159.4609 H   0  0  0  0  0  0  0  0  0  0  0  0  # atno 6907 bound_to 6896
  152.0683  134.9548  160.0584 H   0  0  0  0  0  0  0  0  0  0  0  0  # atno 6908 bound_to 6896
  152.0948  133.4184  159.4597 H   0  0  0  0  0  0  0  0  0  0  0  0  # atno 6909 bound_to 6896
  144.7279  140.2865  143.6227 H   0  0  0  0  0  0  0  0  0  0  0  0  # atno 7974 bound_to 7965
  156.1722  140.1644  156.8427 H   0  0  0  0  0  0  0  0  0  0  0  0  # atno 8008 bound_to 7997
  154.5269  140.0765  156.8308 H   0  0  0  0  0  0  0  0  0  0  0  0  # atno 8009 bound_to 7997
  155.3489  140.3389  155.4241 H   0  0  0  0  0  0  0  0  0  0  0  0  # atno 8010 bound_to 7997
  140.6981  143.6248  150.8578 H   0  0  0  0  0  0  0  0  0  0  0  0  # atno 10167 bound_to 10162
  156.0426  130.5652  150.7791 H   0  0  0  0  0  0  0  0  0  0  0  0  # atno 10718 bound_to 10713
  154.8704  135.3706  154.4886 H   0  0  0  0  0  0  0  0  0  0  0  0  # atno 10763 bound_to 10752
  153.5534  135.7024  153.5585 H   0  0  0  0  0  0  0  0  0  0  0  0  # atno 10764 bound_to 10752
  153.3694  135.4025  155.1741 H   0  0  0  0  0  0  0  0  0  0  0  0  # atno 10765 bound_to 10752
  141.1563  133.7700  156.9755 H   0  0  0  0  0  0  0  0  0  0  0  0  # atno 11005 bound_to 11000
  145.7897  139.1922  143.2110 LP  0  0  0  0  0  0  0  0  0  0  0  0  # atno 17320 bound_to 7965
  146.0766  140.7811  142.9662 LP  0  0  0  0  0  0  0  0  0  0  0  0  # atno 17321 bound_to 7965
  139.9968  143.5787  152.2890 LP  0  0  0  0  0  0  0  0  0  0  0  0  # atno 17342 bound_to 10162
  139.6462  144.7658  151.2239 LP  0  0  0  0  0  0  0  0  0  0  0  0  # atno 17343 bound_to 10162
  157.5264  131.0934  151.0013 LP  0  0  0  0  0  0  0  0  0  0  0  0  # atno 17370 bound_to 10713
  157.0330  130.5719  149.5345 LP  0  0  0  0  0  0  0  0  0  0  0  0  # atno 17371 bound_to 10713
  140.1101  134.9482  157.2052 LP  0  0  0  0  0  0  0  0  0  0  0  0  # atno 17394 bound_to 11000
  140.3205  134.2922  155.7247 LP  0  0  0  0  0  0  0  0  0  0  0  0  # atno 17395 bound_to 11000

$$$$
