AV-unprocessed.smi:1958|AV-procd|sdf|7909|dock9
  -GOLD-   2272010 73D 1   1.00000     0.00000
 Structure written by MMmdl.
 48 49  0  0  0  0  0  0  0  0  2 V2000
  154.5384  140.4536  159.4332 C   0  0  0  0  0  0  0  0  0  0  0  0
  154.5992  139.2888  158.6293 O   0  0  0  0  0  0  0  0  0  0  0  0
  153.3156  138.8242  158.2482 C   0  0  0  0  0  0  0  0  0  0  0  0
  153.4849  137.6918  157.2250 C   0  0  0  0  0  0  0  0  0  0  0  0
  152.3856  137.6731  156.2549 N   0  0  0  0  0  0  0  0  0  0  0  0
  151.6458  136.5028  156.2653 N   0  0  0  0  0  0  0  0  0  0  0  0
  150.6418  136.3610  155.4618 C   0  0  0  0  0  0  0  0  0  0  0  0
  149.8184  135.1201  155.4489 C   0  0  0  0  0  0  0  0  0  0  0  0
  149.8551  134.3058  156.3725 O   0  0  0  0  0  0  0  0  0  0  0  0
  149.0479  134.9549  154.3577 N   0  0  0  0  0  0  0  0  0  0  0  0
  148.1697  133.8178  154.0939 C   0  0  0  0  0  0  0  0  0  0  0  0
  148.8232  132.7628  153.1629 C   0  0  1  0  0  0  0  0  0  0  0  0
  149.6797  131.7689  153.9866 C   0  0  0  0  0  0  0  0  0  0  0  0
  147.7791  132.0862  152.3230 N   0  3  0  0  0  0  0  0  0  0  0  0
  147.0816  130.9853  153.0437 C   0  0  0  0  0  0  0  0  0  0  0  0
  146.0807  130.2663  152.1249 C   0  0  0  0  0  0  0  0  0  0  0  0
  145.1359  131.2033  151.6314 O   0  0  0  0  0  0  0  0  0  0  0  0
  145.7635  132.2068  150.8483 C   0  0  0  0  0  0  0  0  0  0  0  0
  146.7684  132.9925  151.7087 C   0  0  0  0  0  0  0  0  0  0  0  0
  150.2745  137.4187  154.5356 C   0  0  0  0  0  0  0  0  0  0  0  0
  151.0129  138.5502  154.5292 C   0  0  0  0  0  0  0  0  0  0  0  0
  152.1562  138.7348  155.4246 C   0  0  0  0  0  0  0  0  0  0  0  0
  152.8504  139.7508  155.4298 O   0  0  0  0  0  0  0  0  0  0  0  0
  155.5479  140.7707  159.6945 H   0  0  0  0  0  0  0  0  0  0  0  0
  153.9942  140.2650  160.3593 H   0  0  0  0  0  0  0  0  0  0  0  0
  154.0539  141.2743  158.9029 H   0  0  0  0  0  0  0  0  0  0  0  0
  152.7727  138.4674  159.1248 H   0  0  0  0  0  0  0  0  0  0  0  0
  152.7386  139.6412  157.8120 H   0  0  0  0  0  0  0  0  0  0  0  0
  154.4362  137.8151  156.7039 H   0  0  0  0  0  0  0  0  0  0  0  0
  153.5589  136.7313  157.7378 H   0  0  0  0  0  0  0  0  0  0  0  0
  149.0812  135.6764  153.6514 H   0  0  0  0  0  0  0  0  0  0  0  0
  147.8464  133.3419  155.0211 H   0  0  0  0  0  0  0  0  0  0  0  0
  147.2729  134.2411  153.6459 H   0  0  0  0  0  0  0  0  0  0  0  0
  149.5067  133.2781  152.4860 H   0  0  0  0  0  0  0  0  0  0  0  0
  150.4157  132.2809  154.6055 H   0  0  0  0  0  0  0  0  0  0  0  0
  150.2582  131.0995  153.3501 H   0  0  0  0  0  0  0  0  0  0  0  0
  149.0607  131.1637  154.6495 H   0  0  0  0  0  0  0  0  0  0  0  0
  147.7861  130.2456  153.4179 H   0  0  0  0  0  0  0  0  0  0  0  0
  146.5588  131.3916  153.9109 H   0  0  0  0  0  0  0  0  0  0  0  0
  146.5930  129.7711  151.2982 H   0  0  0  0  0  0  0  0  0  0  0  0
  145.5509  129.4919  152.6799 H   0  0  0  0  0  0  0  0  0  0  0  0
  146.2578  131.7568  149.9857 H   0  0  0  0  0  0  0  0  0  0  0  0
  144.9985  132.8792  150.4592 H   0  0  0  0  0  0  0  0  0  0  0  0
  146.2432  133.5408  152.4924 H   0  0  0  0  0  0  0  0  0  0  0  0
  147.2452  133.7247  151.0582 H   0  0  0  0  0  0  0  0  0  0  0  0
  149.4363  137.3094  153.8629 H   0  0  0  0  0  0  0  0  0  0  0  0
  150.7531  139.3440  153.8442 H   0  0  0  0  0  0  0  0  0  0  0  0
  148.2720  131.6630  151.5493 H   0  0  0  0  0  0  0  0  0  0  0  0
  1  2  1  0  0  0  0
  1 24  1  0  0  0  0
  1 25  1  0  0  0  0
  1 26  1  0  0  0  0
  2  3  1  0  0  0  0
  3  4  1  0  0  0  0
  3 27  1  0  0  0  0
  3 28  1  0  0  0  0
  4  5  1  0  0  0  0
  4 29  1  0  0  0  0
  4 30  1  0  0  0  0
  5 22  1  0  0  0  0
  5  6  1  0  0  0  0
  6  7  2  0  0  0  0
  7  8  1  0  0  0  0
  7 20  1  0  0  0  0
  8  9  2  0  0  0  0
  8 10  1  0  0  0  0
 10 11  1  0  0  0  0
 10 31  1  0  0  0  0
 11 12  1  0  0  0  0
 11 32  1  0  0  0  0
 11 33  1  0  0  0  0
 12 13  1  0  0  0  0
 12 14  1  0  0  0  0
 12 34  1  0  0  0  0
 13 35  1  0  0  0  0
 13 36  1  0  0  0  0
 13 37  1  0  0  0  0
 14 19  1  0  0  0  0
 14 15  1  0  0  0  0
 14 48  1  0  0  0  0
 15 16  1  0  0  0  0
 15 38  1  0  0  0  0
 15 39  1  0  0  0  0
 16 17  1  0  0  0  0
 16 40  1  0  0  0  0
 16 41  1  0  0  0  0
 17 18  1  0  0  0  0
 18 19  1  0  0  0  0
 18 42  1  0  0  0  0
 18 43  1  0  0  0  0
 19 44  1  0  0  0  0
 19 45  1  0  0  0  0
 20 21  2  0  0  0  0
 20 46  1  0  0  0  0
 21 22  1  0  0  0  0
 21 47  1  0  0  0  0
 22 23  2  0  0  0  0
M  CHG  1  14   1
M  END
> <s_m_source_file>
AV-unprocessed.smi

> <i_m_source_file_index>
1958

> <i_lp_mmshare_version>
43012

> <i_f3d_flags>
0

> <s_epik_input>
W0NIM11PW0NIMl1bQ0gyXW4xbmMoW2NIXVtjSF1jMT1PKUMoPU8pW05IXVtDSDJdW0NASF0oW0NIM10pTjJbQ0gyXVtDSDJdT1tDSDJdW0NIMl0y

> <s_epik_cmdline>
J2VwaWtfcHl0aG9uJywgJy1waCcsICc3LjAnLCAnLXRuJywgJzgnLCAnLW1hJywgJzIwMCcsICctbWV0YWxfYmluZGluZycsICctaW1hZScsICc8aW5maWxlLm1hZT4nLCAnLW9tYWUnLCAnPG91dGZpbGUubWFlPic=

> <r_lp_tautomer_probability>
1

> <r_epik_Ionization_Penalty>
0.724355

> <r_epik_Ionization_Penalty_Charging>
0.724348

> <r_epik_Ionization_Penalty_Neutral>
6.31911e-06

> <r_epik_State_Penalty>
0.749058

> <r_epik_Charging_Adjusted_Penalty>
1.47341

> <i_epik_Tot_Q>
1

> <i_epik_Tot_abs_Q>
1

> <r_epik_Metal_State_Penalty>
0.750821

> <b_epik_Metal_Only>
0

> <s_lp_Force_Field>
OPLS_2005

> <r_lp_Energy>
42.169

> <b_lp_Chiralities_Consistent>
1

> <s_lp_Variant>
AV-unprocessed.smi:1958-4

> <Gold.Version>
5.8.1

> <Gold.Id.Protein>
6NUR|6NUR_protein|mol2

> <Gold.PLP.Fitness>
45.4340

> <Gold.PLP.PLP>
-36.9806

> <Gold.PLP.part.hbond>
-4.1759

> <Gold.PLP.part.metal>
0.0000

> <Gold.PLP.part.buried>
-4.3476

> <Gold.PLP.part.nonpolar>
-28.3259

> <Gold.PLP.part.repulsive>
0.1547

> <Gold.PLP.ligand.clash>
0.0000

> <Gold.PLP.ligand.torsion>
1.1309

> <Gold.PLP.Chemscore.Hbond>
3.5207

> <Gold.PLP.Chemscore.CHOScore>
0.0000

> <Gold.PLP.Chemscore.Metal>
0.0000

> <Gold.Chemscore.Hbonds>
donor molecule, donor type, donor heavy atom, donor atom, acceptor molecule, acceptor atom, score
      L1  H    10    31       P1  7948  1.00
      L1  H    14    48       P1 10747  1.00
      P1  H  7997  8009       L1     2  0.46
      P1  H  7997  8010       L1    23  1.00
      P1  H 10752 10764       L1     6  0.21

> <Gold.PLP.Chemscore.Internal.Correction>
0.1532

> <Gold.Rescore>
     Score         DG    S(hbond)    S(metal)    S(lipo)     H(rot)  DE(clash)    DE(int)     intcor
     20.52     -21.93       3.73        0.00      80.65       2.12       0.06       1.35       ----

> <Gold.Chemscore.Fitness>
20.5227

> <Gold.Chemscore.DG>
-21.9298

> <Gold.Chemscore.ZeroCoef>
-5.4800

> <Gold.Chemscore.Hbond>
3.7264

> <Gold.Chemscore.Metal>
0.0000

> <Gold.Chemscore.Lipo>
80.6498

> <Gold.Chemscore.Internal_Hbond>
0.0000

> <Gold.Chemscore.DEClash>
0.0563

> <Gold.Chemscore.DEInternal>
1.3508

> <Gold.Chemscore.Rot>
2.1221

> <Gold.Chemscore.Internal.Correction>
   9.000000E+99

> <Gold.Chemscore.Hbonds>
donor molecule, donor type, donor heavy atom, donor atom, acceptor molecule, acceptor atom, score
      L1  H    10    31       P1  7948  0.74
      L1  H    14    48       P1 10747  1.00
      P1  H  7997  8009       L1     2  0.05
      P1  H  7997  8010       L1    23  1.00

> <Gold.Chemscore.Hbond.Weighted>
-12.4463

> <Gold.Chemscore.Metal.Weighted>
-0.0000

> <Gold.Chemscore.Lipo.Weighted>
-9.4360

> <Gold.Chemscore.Internal_Hbond.Weighted>
0.0000

> <Gold.Chemscore.DEClash.Weighted>
0.0563

> <Gold.Chemscore.DEInternal.Weighted>
1.3508

> <Gold.Chemscore.Rot.Weighted>
5.4325

> <Gold.Chemscore.Internal.Correction.Weighted>
   9.000000E+99

> <Gold.Protein.RotatedTorsions>
[ 6907 6896 6895 6894 ] final   99.63 input  -60.11 | X-H torsion
[ 7974 7965 7964 7962 ] final   21.42 input  175.53 | X-H torsion
[ 8008 7997 7996 7995 ] final   90.29 input   59.86 | X-H torsion
[ 10167 10162 10161 10158 ] final   86.77 input  -65.29 | X-H torsion
[ 10718 10713 10712 10709 ] final  -63.39 input   66.30 | X-H torsion
[ 10763 10752 10751 10750 ] final  -45.64 input  -60.55 | X-H torsion
[ 11005 11000 10999 10996 ] final  161.07 input  -57.11 | X-H torsion

> <Gold.Protein.ActiveResidues>
 VAL166  LYS551  ARG553  GLY616  TRP617  ASP618  TYR619  PRO620  LYS621  CYS622 
 ASP623  PHE694  ASN695  SER759  ASP760  ASP761  ALA762  ILE779  LEU786  VAL792 
 PHE793  MET794  SER795  GLU796  ALA797  LYS798  CYS799  TRP800  GLU811  SER814 

> <Gold.Protein.RotatedAtoms>
  152.5388  134.0399  159.8062 H   0  0  0  0  0  0  0  0  0  0  0  0  # atno 6907 bound_to 6896
  151.0557  133.5579  159.2645 H   0  0  0  0  0  0  0  0  0  0  0  0  # atno 6908 bound_to 6896
  151.2496  135.0625  159.9110 H   0  0  0  0  0  0  0  0  0  0  0  0  # atno 6909 bound_to 6896
  146.2072  139.8029  142.8717 H   0  0  0  0  0  0  0  0  0  0  0  0  # atno 7974 bound_to 7965
  156.0102  140.3351  155.6933 H   0  0  0  0  0  0  0  0  0  0  0  0  # atno 8008 bound_to 7997
  155.6169  140.0671  157.2707 H   0  0  0  0  0  0  0  0  0  0  0  0  # atno 8009 bound_to 7997
  154.4278  140.1783  156.1318 H   0  0  0  0  0  0  0  0  0  0  0  0  # atno 8010 bound_to 7997
  139.8842  144.6423  150.8810 H   0  0  0  0  0  0  0  0  0  0  0  0  # atno 10167 bound_to 10162
  156.0794  130.4220  150.1271 H   0  0  0  0  0  0  0  0  0  0  0  0  # atno 10718 bound_to 10713
  154.0319  135.6655  153.4781 H   0  0  0  0  0  0  0  0  0  0  0  0  # atno 10763 bound_to 10752
  153.0537  135.5069  154.7925 H   0  0  0  0  0  0  0  0  0  0  0  0  # atno 10764 bound_to 10752
  154.6873  135.3055  154.9495 H   0  0  0  0  0  0  0  0  0  0  0  0  # atno 10765 bound_to 10752
  140.2122  134.8259  157.3133 H   0  0  0  0  0  0  0  0  0  0  0  0  # atno 11005 bound_to 11000
  145.3277  141.0259  143.3464 LP  0  0  0  0  0  0  0  0  0  0  0  0  # atno 17320 bound_to 7965
  144.8821  139.4889  143.6718 LP  0  0  0  0  0  0  0  0  0  0  0  0  # atno 17321 bound_to 7965
  140.7739  143.3561  151.1918 LP  0  0  0  0  0  0  0  0  0  0  0  0  # atno 17342 bound_to 10162
  139.7168  143.9287  152.2970 LP  0  0  0  0  0  0  0  0  0  0  0  0  # atno 17343 bound_to 10162
  156.9305  130.9712  151.3533 LP  0  0  0  0  0  0  0  0  0  0  0  0  # atno 17370 bound_to 10713
  157.5904  130.8439  149.8651 LP  0  0  0  0  0  0  0  0  0  0  0  0  # atno 17371 bound_to 10713
  140.1939  134.4338  155.7700 LP  0  0  0  0  0  0  0  0  0  0  0  0  # atno 17394 bound_to 11000
  141.2226  133.7040  156.8072 LP  0  0  0  0  0  0  0  0  0  0  0  0  # atno 17395 bound_to 11000

$$$$
