AV-unprocessed.smi:1191|AV-procd|sdf|4985|dock8
  -GOLD-   22720 3583D 1   1.00000     0.00000
 Structure written by MMmdl.
 47 48  0  0  0  0  0  0  0  0  2 V2000
  150.9486  142.3418  157.0102 C   0  0  0  0  0  0  0  0  0  0  0  0
  150.4125  141.3434  156.0267 C   0  0  0  0  0  0  0  0  0  0  0  0
  149.0975  141.2516  155.4906 C   0  0  0  0  0  0  0  0  0  0  0  0
  149.1480  140.1728  154.6532 C   0  0  0  0  0  0  0  0  0  0  0  0
  148.0848  139.5661  153.7975 C   0  0  0  0  0  0  0  0  0  0  0  0
  150.4386  139.6773  154.7152 N   0  0  0  0  0  0  0  0  0  0  0  0
  151.0217  138.5428  154.0143 C   0  0  0  0  0  0  0  0  0  0  0  0
  150.9559  137.2678  154.8575 C   0  0  0  0  0  0  0  0  0  0  0  0
  151.5468  137.2108  155.9357 O   0  0  0  0  0  0  0  0  0  0  0  0
  150.2374  136.2508  154.3565 N   0  0  0  0  0  0  0  0  0  0  0  0
  150.0494  134.9590  155.0042 C   0  0  0  0  0  0  0  0  0  0  0  0
  149.8381  133.8340  153.9723 C   0  0  0  0  0  0  0  0  0  0  0  0
  148.4473  133.7975  153.4552 N   0  3  2  0  0  0  0  0  0  0  0  0
  147.4452  134.0865  154.5131 C   0  0  0  0  0  0  0  0  0  0  0  0
  146.0321  134.2049  153.9201 C   0  0  0  0  0  0  0  0  0  0  0  0
  145.6555  132.9416  153.1327 C   0  0  0  0  0  0  0  0  0  0  0  0
  146.7250  132.5999  152.0786 C   0  0  1  0  0  0  0  0  0  0  0  0
  146.6890  133.5440  150.8639 C   0  0  0  0  0  0  0  0  0  0  0  0
  148.1235  132.5400  152.7274 C   0  0  0  0  0  0  0  0  0  0  0  0
  151.2115  140.4003  155.5555 N   0  0  0  0  0  0  0  0  0  0  0  0
  150.1551  142.9857  157.3902 H   0  0  0  0  0  0  0  0  0  0  0  0
  151.7024  142.9806  156.5498 H   0  0  0  0  0  0  0  0  0  0  0  0
  151.4083  141.8450  157.8651 H   0  0  0  0  0  0  0  0  0  0  0  0
  148.2444  141.8823  155.6924 H   0  0  0  0  0  0  0  0  0  0  0  0
  147.1506  140.1208  153.8855 H   0  0  0  0  0  0  0  0  0  0  0  0
  147.8903  138.5347  154.0917 H   0  0  0  0  0  0  0  0  0  0  0  0
  148.3790  139.5706  152.7477 H   0  0  0  0  0  0  0  0  0  0  0  0
  150.4948  138.3865  153.0716 H   0  0  0  0  0  0  0  0  0  0  0  0
  152.0572  138.7752  153.7630 H   0  0  0  0  0  0  0  0  0  0  0  0
  149.7856  136.3878  153.4631 H   0  0  0  0  0  0  0  0  0  0  0  0
  150.9357  134.7501  155.6039 H   0  0  0  0  0  0  0  0  0  0  0  0
  149.2138  135.0307  155.7003 H   0  0  0  0  0  0  0  0  0  0  0  0
  150.5347  133.9252  153.1376 H   0  0  0  0  0  0  0  0  0  0  0  0
  150.0669  132.8852  154.4603 H   0  0  0  0  0  0  0  0  0  0  0  0
  147.4742  133.2992  155.2684 H   0  0  0  0  0  0  0  0  0  0  0  0
  147.6969  135.0201  155.0179 H   0  0  0  0  0  0  0  0  0  0  0  0
  145.3079  134.3728  154.7178 H   0  0  0  0  0  0  0  0  0  0  0  0
  145.9777  135.0788  153.2704 H   0  0  0  0  0  0  0  0  0  0  0  0
  145.5570  132.1062  153.8274 H   0  0  0  0  0  0  0  0  0  0  0  0
  144.6788  133.0640  152.6633 H   0  0  0  0  0  0  0  0  0  0  0  0
  146.4973  131.6031  151.6986 H   0  0  0  0  0  0  0  0  0  0  0  0
  146.9365  134.5699  151.1367 H   0  0  0  0  0  0  0  0  0  0  0  0
  145.7009  133.5528  150.4029 H   0  0  0  0  0  0  0  0  0  0  0  0
  147.4013  133.2263  150.1019 H   0  0  0  0  0  0  0  0  0  0  0  0
  148.8661  132.3361  151.9572 H   0  0  0  0  0  0  0  0  0  0  0  0
  148.1697  131.7034  153.4267 H   0  0  0  0  0  0  0  0  0  0  0  0
  148.3732  134.5515  152.7872 H   0  0  0  0  0  0  0  0  0  0  0  0
  1  2  1  0  0  0  0
  1 21  1  0  0  0  0
  1 22  1  0  0  0  0
  1 23  1  0  0  0  0
  2 20  2  0  0  0  0
  2  3  1  0  0  0  0
  3  4  2  0  0  0  0
  3 24  1  0  0  0  0
  4  5  1  0  0  0  0
  4  6  1  0  0  0  0
  5 25  1  0  0  0  0
  5 26  1  0  0  0  0
  5 27  1  0  0  0  0
  6  7  1  0  0  0  0
  6 20  1  0  0  0  0
  7  8  1  0  0  0  0
  7 28  1  0  0  0  0
  7 29  1  0  0  0  0
  8  9  2  0  0  0  0
  8 10  1  0  0  0  0
 10 11  1  0  0  0  0
 10 30  1  0  0  0  0
 11 12  1  0  0  0  0
 11 31  1  0  0  0  0
 11 32  1  0  0  0  0
 12 13  1  0  0  0  0
 12 33  1  0  0  0  0
 12 34  1  0  0  0  0
 13 19  1  0  0  0  0
 13 14  1  0  0  0  0
 13 47  1  0  0  0  0
 14 15  1  0  0  0  0
 14 35  1  0  0  0  0
 14 36  1  0  0  0  0
 15 16  1  0  0  0  0
 15 37  1  0  0  0  0
 15 38  1  0  0  0  0
 16 17  1  0  0  0  0
 16 39  1  0  0  0  0
 16 40  1  0  0  0  0
 17 18  1  0  0  0  0
 17 19  1  0  0  0  0
 17 41  1  0  0  0  0
 18 42  1  0  0  0  0
 18 43  1  0  0  0  0
 18 44  1  0  0  0  0
 19 45  1  0  0  0  0
 19 46  1  0  0  0  0
M  CHG  1  13   1
M  END
> <s_m_source_file>
AV-unprocessed.smi

> <i_m_source_file_index>
1191

> <i_lp_mmshare_version>
43012

> <i_f3d_flags>
0

> <s_epik_input>
W0NIM11jMVtjSF1jKFtDSDNdKW4objEpW0NIMl1DKD1PKVtOSF1bQ0gyXVtDSDJdTjJbQ0gyXVtDSDJdW0NIMl1bQ0BASF0oW0NIM10pW0NIMl0y

> <s_epik_cmdline>
J2VwaWtfcHl0aG9uJywgJy1waCcsICc3LjAnLCAnLXRuJywgJzgnLCAnLW1hJywgJzIwMCcsICctbWV0YWxfYmluZGluZycsICctaW1hZScsICc8aW5maWxlLm1hZT4nLCAnLW9tYWUnLCAnPG91dGZpbGUubWFlPic=

> <r_lp_tautomer_probability>
1

> <r_epik_Ionization_Penalty>
0.00249932

> <r_epik_Ionization_Penalty_Charging>
0.00230623

> <r_epik_Ionization_Penalty_Neutral>
0.000193092

> <r_epik_State_Penalty>
-0

> <r_epik_Charging_Adjusted_Penalty>
0.00230623

> <i_epik_Tot_Q>
1

> <i_epik_Tot_abs_Q>
1

> <r_epik_Metal_State_Penalty>
-0

> <b_epik_Metal_Only>
0

> <s_lp_Force_Field>
OPLS_2005

> <r_lp_Energy>
16.5378

> <b_lp_Chiralities_Consistent>
1

> <s_lp_Variant>
AV-unprocessed.smi:1191-2

> <Gold.Version>
5.8.1

> <Gold.Id.Protein>
6NUR|6NUR_protein|mol2

> <Gold.PLP.Fitness>
43.0712

> <Gold.PLP.PLP>
-35.6462

> <Gold.PLP.part.hbond>
-3.8469

> <Gold.PLP.part.metal>
0.0000

> <Gold.PLP.part.buried>
-1.8500

> <Gold.PLP.part.nonpolar>
-29.1610

> <Gold.PLP.part.repulsive>
0.0965

> <Gold.PLP.ligand.clash>
0.0000

> <Gold.PLP.ligand.torsion>
0.7997

> <Gold.PLP.Chemscore.Hbond>
3.0000

> <Gold.PLP.Chemscore.CHOScore>
0.0000

> <Gold.PLP.Chemscore.Metal>
0.0000

> <Gold.Chemscore.Hbonds>
donor molecule, donor type, donor heavy atom, donor atom, acceptor molecule, acceptor atom, score
      L1  H    10    30       P1  7948  1.00
      L1  H    13    47       P1  7948  2.00

> <Gold.PLP.Chemscore.Internal.Correction>
0.0244

> <Gold.Rescore>
     Score         DG    S(hbond)    S(metal)    S(lipo)     H(rot)  DE(clash)    DE(int)     intcor
     13.89     -14.85       1.23        0.00      81.53       1.67       0.27       0.68       ----

> <Gold.Chemscore.Fitness>
13.8923

> <Gold.Chemscore.DG>
-14.8509

> <Gold.Chemscore.ZeroCoef>
-5.4800

> <Gold.Chemscore.Hbond>
1.2262

> <Gold.Chemscore.Metal>
0.0000

> <Gold.Chemscore.Lipo>
81.5337

> <Gold.Chemscore.Internal_Hbond>
0.0000

> <Gold.Chemscore.DEClash>
0.2743

> <Gold.Chemscore.DEInternal>
0.6843

> <Gold.Chemscore.Rot>
1.6657

> <Gold.Chemscore.Internal.Correction>
   9.000000E+99

> <Gold.Chemscore.Hbonds>
donor molecule, donor type, donor heavy atom, donor atom, acceptor molecule, acceptor atom, score
      L1  H    10    30       P1  7948  0.26
      L1  H    13    47       P1  7948  0.29

> <Gold.Chemscore.Hbond.Weighted>
-4.0955

> <Gold.Chemscore.Metal.Weighted>
-0.0000

> <Gold.Chemscore.Lipo.Weighted>
-9.5394

> <Gold.Chemscore.Internal_Hbond.Weighted>
0.0000

> <Gold.Chemscore.DEClash.Weighted>
0.2743

> <Gold.Chemscore.DEInternal.Weighted>
0.6843

> <Gold.Chemscore.Rot.Weighted>
4.2641

> <Gold.Chemscore.Internal.Correction.Weighted>
   9.000000E+99

> <Gold.Protein.RotatedTorsions>
[ 6907 6896 6895 6894 ] final -115.53 input  -60.11 | X-H torsion
[ 7974 7965 7964 7962 ] final  -44.56 input  175.53 | X-H torsion
[ 8008 7997 7996 7995 ] final  -62.19 input   59.86 | X-H torsion
[ 10167 10162 10161 10158 ] final   47.98 input  -65.29 | X-H torsion
[ 10718 10713 10712 10709 ] final -173.61 input   66.30 | X-H torsion
[ 10763 10752 10751 10750 ] final   69.50 input  -60.55 | X-H torsion
[ 11005 11000 10999 10996 ] final   95.25 input  -57.11 | X-H torsion

> <Gold.Protein.ActiveResidues>
 VAL166  LYS551  ARG553  GLY616  TRP617  ASP618  TYR619  PRO620  LYS621  CYS622 
 ASP623  PHE694  ASN695  SER759  ASP760  ASP761  ALA762  ILE779  LEU786  VAL792 
 PHE793  MET794  SER795  GLU796  ALA797  LYS798  CYS799  TRP800  GLU811  SER814 

> <Gold.Protein.RotatedAtoms>
  150.7985  133.8645  159.3241 H   0  0  0  0  0  0  0  0  0  0  0  0  # atno 6907 bound_to 6896
  151.6464  135.1005  160.0161 H   0  0  0  0  0  0  0  0  0  0  0  0  # atno 6908 bound_to 6896
  152.4070  133.6864  159.6399 H   0  0  0  0  0  0  0  0  0  0  0  0  # atno 6909 bound_to 6896
  145.9908  140.7183  142.9318 H   0  0  0  0  0  0  0  0  0  0  0  0  # atno 7974 bound_to 7965
  154.4487  140.1001  156.6548 H   0  0  0  0  0  0  0  0  0  0  0  0  # atno 8008 bound_to 7997
  155.5358  140.3482  155.4417 H   0  0  0  0  0  0  0  0  0  0  0  0  # atno 8009 bound_to 7997
  156.0632  140.1331  156.9905 H   0  0  0  0  0  0  0  0  0  0  0  0  # atno 8010 bound_to 7997
  140.2981  144.2967  150.6225 H   0  0  0  0  0  0  0  0  0  0  0  0  # atno 10167 bound_to 10162
  156.7728  130.9455  151.3120 H   0  0  0  0  0  0  0  0  0  0  0  0  # atno 10718 bound_to 10713
  153.0290  135.5208  154.7298 H   0  0  0  0  0  0  0  0  0  0  0  0  # atno 10763 bound_to 10752
  154.6329  135.2902  155.0198 H   0  0  0  0  0  0  0  0  0  0  0  0  # atno 10764 bound_to 10752
  154.1143  135.6617  153.4943 H   0  0  0  0  0  0  0  0  0  0  0  0  # atno 10765 bound_to 10752
  139.8791  134.8889  156.3984 H   0  0  0  0  0  0  0  0  0  0  0  0  # atno 11005 bound_to 11000
  144.6888  140.3066  143.7255 LP  0  0  0  0  0  0  0  0  0  0  0  0  # atno 17320 bound_to 7965
  145.7633  139.1832  143.2254 LP  0  0  0  0  0  0  0  0  0  0  0  0  # atno 17321 bound_to 7965
  140.5675  143.2184  151.7658 LP  0  0  0  0  0  0  0  0  0  0  0  0  # atno 17342 bound_to 10162
  139.4921  144.4263  151.9922 LP  0  0  0  0  0  0  0  0  0  0  0  0  # atno 17343 bound_to 10162
  157.6683  130.9027  149.9982 LP  0  0  0  0  0  0  0  0  0  0  0  0  # atno 17370 bound_to 10713
  156.1267  130.3644  149.9798 LP  0  0  0  0  0  0  0  0  0  0  0  0  # atno 17371 bound_to 10713
  140.9284  133.7596  155.9994 LP  0  0  0  0  0  0  0  0  0  0  0  0  # atno 17394 bound_to 11000
  140.8359  134.3124  157.5332 LP  0  0  0  0  0  0  0  0  0  0  0  0  # atno 17395 bound_to 11000

$$$$
