AV-unprocessed.smi:160|AV-procd|sdf|1364|dock2
  -GOLD-   2262019 73D 1   1.00000     0.00000
 Structure written by MMmdl.
 28 29  0  0  0  0  0  0  0  0  2 V2000
  152.1709  137.3246  154.0309 N   0  5  0  0  0  0  0  0  0  0  0  0
  152.7767  138.3481  154.6716 C   0  0  0  0  0  0  0  0  0  0  0  0
  153.9903  138.5314  154.7613 O   0  0  0  0  0  0  0  0  0  0  0  0
  151.8328  139.3301  155.3247 C   0  0  0  0  0  0  0  0  0  0  0  0
  150.7789  139.8519  154.6259 N   0  0  0  0  0  0  0  0  0  0  0  0
  150.2642  140.6307  155.5678 C   0  0  0  0  0  0  0  0  0  0  0  0
  150.9284  140.6035  156.7265 N   0  0  0  0  0  0  0  0  0  0  0  0
  150.6532  141.3413  158.0040 C   0  0  1  0  0  0  0  0  0  0  0  0
  151.6180  140.9757  158.9447 O   0  0  0  0  0  0  0  0  0  0  0  0
  152.5922  142.0071  159.0599 C   0  0  2  0  0  0  0  0  0  0  0  0
  153.3716  141.8933  160.3821 C   0  0  0  0  0  0  0  0  0  0  0  0
  154.2135  140.7606  160.3564 O   0  0  0  0  0  0  0  0  0  0  0  0
  151.7501  143.2810  158.8952 C   0  0  2  0  0  0  0  0  0  0  0  0
  151.1187  143.6362  160.1129 O   0  0  0  0  0  0  0  0  0  0  0  0
  150.7068  142.8824  157.8560 C   0  0  1  0  0  0  0  0  0  0  0  0
  151.0968  143.3397  156.5727 O   0  0  0  0  0  0  0  0  0  0  0  0
  151.9673  139.7418  156.5892 N   0  0  0  0  0  0  0  0  0  0  0  0
  149.6758  140.9753  158.3202 H   0  0  0  0  0  0  0  0  0  0  0  0
  153.2829  141.9452  158.2170 H   0  0  0  0  0  0  0  0  0  0  0  0
  152.3589  144.1280  158.5757 H   0  0  0  0  0  0  0  0  0  0  0  0
  149.7247  143.3007  158.0809 H   0  0  0  0  0  0  0  0  0  0  0  0
  151.7569  137.4994  153.1078 H   0  0  0  0  0  0  0  0  0  0  0  0
  149.3856  141.2379  155.4075 H   0  0  0  0  0  0  0  0  0  0  0  0
  154.0089  142.7674  160.5170 H   0  0  0  0  0  0  0  0  0  0  0  0
  152.6989  141.8432  161.2389 H   0  0  0  0  0  0  0  0  0  0  0  0
  154.7423  140.7596  161.1392 H   0  0  0  0  0  0  0  0  0  0  0  0
  151.6057  144.3432  160.5073 H   0  0  0  0  0  0  0  0  0  0  0  0
  150.3945  143.8573  156.2099 H   0  0  0  0  0  0  0  0  0  0  0  0
  1  2  1  0  0  0  0
  1 22  1  0  0  0  0
  2  3  2  0  0  0  0
  2  4  1  0  0  0  0
  4 17  2  0  0  0  0
  4  5  1  0  0  0  0
  5  6  2  0  0  0  0
  6  7  1  0  0  0  0
  6 23  1  0  0  0  0
  7  8  1  0  0  0  0
  7 17  1  0  0  0  0
  8 18  1  0  0  0  0
  8 15  1  0  0  0  0
  8  9  1  0  0  0  0
  9 10  1  0  0  0  0
 10 19  1  0  0  0  0
 10 11  1  0  0  0  0
 10 13  1  0  0  0  0
 11 12  1  0  0  0  0
 11 24  1  0  0  0  0
 11 25  1  0  0  0  0
 12 26  1  0  0  0  0
 13 20  1  0  0  0  0
 13 14  1  0  0  0  0
 13 15  1  0  0  0  0
 14 27  1  0  0  0  0
 15 21  1  0  0  0  0
 15 16  1  0  0  0  0
 16 28  1  0  0  0  0
M  CHG  1   1  -1
M  END
> <s_m_source_file>
AV-unprocessed.smi

> <i_m_source_file_index>
160

> <i_lp_mmshare_version>
43012

> <i_f3d_flags>
0

> <s_epik_input>
W05IMl1DKD1PKWMxbltjSF1uKG4xKVtDQEBIXTJPW0NASF0oW0NIMl1bT0hdKVtDQEBIXShbT0hdKVtDQEhdMltPSF0=

> <s_epik_cmdline>
J2VwaWtfcHl0aG9uJywgJy1waCcsICc3LjAnLCAnLXRuJywgJzgnLCAnLW1hJywgJzIwMCcsICctbWV0YWxfYmluZGluZycsICctaW1hZScsICc8aW5maWxlLm1hZT4nLCAnLW9tYWUnLCAnPG91dGZpbGUubWFlPic=

> <r_lp_tautomer_probability>
1

> <r_epik_Ionization_Penalty>
6.6993

> <r_epik_Ionization_Penalty_Charging>
6.6993

> <r_epik_Ionization_Penalty_Neutral>
6.01698e-06

> <r_epik_State_Penalty>
6.69929

> <r_epik_Charging_Adjusted_Penalty>
13.3986

> <i_epik_Tot_Q>
-1

> <i_epik_Tot_abs_Q>
1

> <r_epik_Metal_State_Penalty>
2.62798

> <b_epik_Metal_Only>
1

> <s_epik_Chemistry_Notes>
This compound contains an acetal/aminal-like group ( X-CH(R)-Y where X, Y are N, S, or O) that may be acid/base labile, releasing an aldehyde.

> <s_lp_Force_Field>
OPLS_2005

> <r_lp_Energy>
46.6633

> <b_lp_Chiralities_Consistent>
1

> <s_lp_Variant>
AV-unprocessed.smi:160-22

> <Gold.Version>
5.8.1

> <Gold.Id.Protein>
6NUR|6NUR_protein|mol2

> <Gold.PLP.Fitness>
47.0946

> <Gold.PLP.PLP>
-34.3201

> <Gold.PLP.part.hbond>
-5.1305

> <Gold.PLP.part.metal>
0.0000

> <Gold.PLP.part.buried>
-7.1279

> <Gold.PLP.part.nonpolar>
-23.2563

> <Gold.PLP.part.repulsive>
0.0822

> <Gold.PLP.ligand.clash>
0.0000

> <Gold.PLP.ligand.torsion>
0.8907

> <Gold.PLP.Chemscore.Hbond>
4.8505

> <Gold.PLP.Chemscore.CHOScore>
0.0000

> <Gold.PLP.Chemscore.Metal>
0.0000

> <Gold.Chemscore.Hbonds>
donor molecule, donor type, donor heavy atom, donor atom, acceptor molecule, acceptor atom, score
      L1  H     1    22       P1  7949  0.21
      L1  H    16    28       P1  8028  1.00
      P1  H  7989  7998       L1     5  1.00
      P1  H  7997  8010       L1     3  0.77
      P1  H 10752 10763       L1     1  1.79

> <Gold.PLP.Chemscore.Internal.Correction>
0.0044

> <Gold.Rescore>
     Score         DG    S(hbond)    S(metal)    S(lipo)     H(rot)  DE(clash)    DE(int)     intcor
      7.73      -9.54       2.98        0.00      37.98       4.04       0.00       1.82       ----

> <Gold.Chemscore.Fitness>
7.7271

> <Gold.Chemscore.DG>
-9.5447

> <Gold.Chemscore.ZeroCoef>
-5.4800

> <Gold.Chemscore.Hbond>
2.9831

> <Gold.Chemscore.Metal>
0.0000

> <Gold.Chemscore.Lipo>
37.9847

> <Gold.Chemscore.Internal_Hbond>
0.0000

> <Gold.Chemscore.DEClash>
0.0000

> <Gold.Chemscore.DEInternal>
1.8176

> <Gold.Chemscore.Rot>
4.0403

> <Gold.Chemscore.Internal.Correction>
   9.000000E+99

> <Gold.Chemscore.Hbonds>
donor molecule, donor type, donor heavy atom, donor atom, acceptor molecule, acceptor atom, score
      L1  H     1    22       P1  7949  0.21
      L1  H    16    28       P1  8028  1.00
      P1  H  7989  7998       L1     5  0.17
      P1  H  7997  8010       L1     3  0.70
      P1  H 10752 10763       L1     1  0.68

> <Gold.Chemscore.Hbond.Weighted>
-9.9635

> <Gold.Chemscore.Metal.Weighted>
-0.0000

> <Gold.Chemscore.Lipo.Weighted>
-4.4442

> <Gold.Chemscore.Internal_Hbond.Weighted>
0.0000

> <Gold.Chemscore.DEClash.Weighted>
0.0000

> <Gold.Chemscore.DEInternal.Weighted>
1.8176

> <Gold.Chemscore.Rot.Weighted>
10.3431

> <Gold.Chemscore.Internal.Correction.Weighted>
   9.000000E+99

> <Gold.Protein.RotatedTorsions>
[ 6907 6896 6895 6894 ] final  125.31 input  -60.11 | X-H torsion
[ 7974 7965 7964 7962 ] final -129.57 input  175.53 | X-H torsion
[ 8008 7997 7996 7995 ] final  114.45 input   59.86 | X-H torsion
[ 10167 10162 10161 10158 ] final  175.24 input  -65.29 | X-H torsion
[ 10718 10713 10712 10709 ] final -165.48 input   66.30 | X-H torsion
[ 10763 10752 10751 10750 ] final   31.17 input  -60.55 | X-H torsion
[ 11005 11000 10999 10996 ] final   40.14 input  -57.11 | X-H torsion

> <Gold.Protein.ActiveResidues>
 VAL166  LYS551  ARG553  GLY616  TRP617  ASP618  TYR619  PRO620  LYS621  CYS622 
 ASP623  PHE694  ASN695  SER759  ASP760  ASP761  ALA762  ILE779  LEU786  VAL792 
 PHE793  MET794  SER795  GLU796  ALA797  LYS798  CYS799  TRP800  GLU811  SER814 

> <Gold.Protein.RotatedAtoms>
  152.4003  133.6807  159.6310 H   0  0  0  0  0  0  0  0  0  0  0  0  # atno 6907 bound_to 6896
  150.7895  133.8803  159.3293 H   0  0  0  0  0  0  0  0  0  0  0  0  # atno 6908 bound_to 6896
  151.6570  135.0996  160.0223 H   0  0  0  0  0  0  0  0  0  0  0  0  # atno 6909 bound_to 6896
  144.9559  140.7395  143.4759 H   0  0  0  0  0  0  0  0  0  0  0  0  # atno 7974 bound_to 7965
  156.2322  140.2959  156.0218 H   0  0  0  0  0  0  0  0  0  0  0  0  # atno 8008 bound_to 7997
  155.2193  140.0415  157.2963 H   0  0  0  0  0  0  0  0  0  0  0  0  # atno 8009 bound_to 7997
  154.6015  140.2428  155.7793 H   0  0  0  0  0  0  0  0  0  0  0  0  # atno 8010 bound_to 7997
  139.5170  144.3055  152.0340 H   0  0  0  0  0  0  0  0  0  0  0  0  # atno 10167 bound_to 10162
  156.6541  130.9019  151.3018 H   0  0  0  0  0  0  0  0  0  0  0  0  # atno 10718 bound_to 10713
  153.0331  135.6446  154.1157 H   0  0  0  0  0  0  0  0  0  0  0  0  # atno 10763 bound_to 10752
  154.0876  135.2868  155.3279 H   0  0  0  0  0  0  0  0  0  0  0  0  # atno 10764 bound_to 10752
  154.6487  135.5434  153.7939 H   0  0  0  0  0  0  0  0  0  0  0  0  # atno 10765 bound_to 10752
  140.1960  134.3929  155.8121 H   0  0  0  0  0  0  0  0  0  0  0  0  # atno 11005 bound_to 11000
  145.2773  139.1931  143.4809 LP  0  0  0  0  0  0  0  0  0  0  0  0  # atno 17320 bound_to 7965
  146.3337  140.2729  142.8606 LP  0  0  0  0  0  0  0  0  0  0  0  0  # atno 17321 bound_to 7965
  140.2501  144.4178  150.6225 LP  0  0  0  0  0  0  0  0  0  0  0  0  # atno 17342 bound_to 10162
  140.6231  143.2178  151.6653 LP  0  0  0  0  0  0  0  0  0  0  0  0  # atno 17343 bound_to 10162
  157.7131  130.9464  150.1160 LP  0  0  0  0  0  0  0  0  0  0  0  0  # atno 17370 bound_to 10713
  156.2062  130.3663  149.8727 LP  0  0  0  0  0  0  0  0  0  0  0  0  # atno 17371 bound_to 10713
  141.2227  133.7070  156.8176 LP  0  0  0  0  0  0  0  0  0  0  0  0  # atno 17394 bound_to 11000
  140.2107  134.8829  157.3271 LP  0  0  0  0  0  0  0  0  0  0  0  0  # atno 17395 bound_to 11000

$$$$
