AV-unprocessed.smi:45|AV-procd|sdf|413|dock8
  -GOLD-   2262016283D 1   1.00000     0.00000
 Structure written by MMmdl.
 59 62  0  0  0  0  0  0  0  0  2 V2000
  151.1059  143.3575  158.8539 C   0  0  0  0  0  0  0  0  0  0  0  0
  150.0123  142.4909  158.5917 O   0  0  0  0  0  0  0  0  0  0  0  0
  150.0902  141.6567  157.4958 C   0  0  0  0  0  0  0  0  0  0  0  0
  151.3071  141.1404  156.9838 C   0  0  0  0  0  0  0  0  0  0  0  0
  151.3061  140.2742  155.8743 C   0  0  0  0  0  0  0  0  0  0  0  0
  150.0949  139.9099  155.2551 C   0  0  0  0  0  0  0  0  0  0  0  0
  150.1155  138.9391  154.0812 C   0  0  0  0  0  0  0  0  0  0  0  0
  149.7348  137.5638  154.3870 N   0  0  0  0  0  0  0  0  0  0  0  0
  148.4951  137.3284  155.0074 C   0  0  0  0  0  0  0  0  0  0  0  0
  147.3743  137.6678  154.3261 N   0  0  0  0  0  0  0  0  0  0  0  0
  146.1986  137.3815  154.8877 C   0  0  0  0  0  0  0  0  0  0  0  0
  145.0812  137.6598  154.1197 N   0  0  0  0  0  0  0  0  0  0  0  0
  143.7673  137.3062  154.6452 C   0  0  0  0  0  0  0  0  0  0  0  0
  142.8692  137.0098  153.4366 C   0  0  0  0  0  0  0  0  0  0  0  0
  143.6693  137.5186  152.2407 C   0  0  0  0  0  0  0  0  0  0  0  0
  145.1110  137.3140  152.7043 C   0  0  1  0  0  0  0  0  0  0  0  0
  146.1549  138.1231  151.9114 C   0  0  0  0  0  0  0  0  0  0  0  0
  146.1751  137.7118  150.5616 O   0  0  0  0  0  0  0  0  0  0  0  0
  146.0053  136.8054  156.0777 N   0  0  0  0  0  0  0  0  0  0  0  0
  147.1109  136.4678  156.7756 C   0  0  0  0  0  0  0  0  0  0  0  0
  148.4143  136.7000  156.2788 C   0  0  0  0  0  0  0  0  0  0  0  0
  149.6311  136.2889  157.0610 C   0  0  0  0  0  0  0  0  0  0  0  0
  150.7194  136.2509  156.4766 O   0  0  0  0  0  0  0  0  0  0  0  0
  149.3138  135.9596  158.3438 N   0  5  0  0  0  0  0  0  0  0  0  0
  148.9258  136.9358  159.3627 C   0  0  0  0  0  0  0  0  0  0  0  0
  148.0530  136.3157  160.4493 C   0  0  0  0  0  0  0  0  0  0  0  0
  147.5716  137.1434  161.3847 N   0  0  0  0  0  0  0  0  0  0  0  0
  146.7680  136.6050  162.3269 C   0  0  0  0  0  0  0  0  0  0  0  0
  146.4479  135.2327  162.3335 C   0  0  0  0  0  0  0  0  0  0  0  0
  147.0164  134.4565  161.3041 C   0  0  0  0  0  0  0  0  0  0  0  0
  147.8203  134.9996  160.3647 N   0  0  0  0  0  0  0  0  0  0  0  0
  148.8823  140.4433  155.7418 C   0  0  0  0  0  0  0  0  0  0  0  0
  148.8808  141.3018  156.8582 C   0  0  0  0  0  0  0  0  0  0  0  0
  147.3771  141.9080  157.4522 Cl  0  0  0  0  0  0  0  0  0  0  0  0
  145.3561  136.2530  152.6283 H   0  0  0  0  0  0  0  0  0  0  0  0
  150.9085  143.9183  159.7673 H   0  0  0  0  0  0  0  0  0  0  0  0
  151.2449  144.0790  158.0477 H   0  0  0  0  0  0  0  0  0  0  0  0
  152.0307  142.7986  159.0041 H   0  0  0  0  0  0  0  0  0  0  0  0
  152.2578  141.3832  157.4331 H   0  0  0  0  0  0  0  0  0  0  0  0
  152.2416  139.8769  155.5087 H   0  0  0  0  0  0  0  0  0  0  0  0
  149.4338  139.3156  153.3186 H   0  0  0  0  0  0  0  0  0  0  0  0
  151.1084  138.9320  153.6299 H   0  0  0  0  0  0  0  0  0  0  0  0
  150.0045  136.8760  153.6973 H   0  0  0  0  0  0  0  0  0  0  0  0
  143.8103  136.4535  155.3240 H   0  0  0  0  0  0  0  0  0  0  0  0
  143.3813  138.1571  155.2068 H   0  0  0  0  0  0  0  0  0  0  0  0
  142.7216  135.9327  153.3476 H   0  0  0  0  0  0  0  0  0  0  0  0
  141.8873  137.4771  153.5157 H   0  0  0  0  0  0  0  0  0  0  0  0
  143.4387  136.9855  151.3180 H   0  0  0  0  0  0  0  0  0  0  0  0
  143.4671  138.5790  152.0813 H   0  0  0  0  0  0  0  0  0  0  0  0
  145.9433  139.1915  151.9621 H   0  0  0  0  0  0  0  0  0  0  0  0
  147.1538  137.9708  152.3208 H   0  0  0  0  0  0  0  0  0  0  0  0
  145.3254  137.8825  150.1847 H   0  0  0  0  0  0  0  0  0  0  0  0
  146.9477  135.9998  157.7356 H   0  0  0  0  0  0  0  0  0  0  0  0
  149.7931  137.4048  159.8315 H   0  0  0  0  0  0  0  0  0  0  0  0
  148.3736  137.7639  158.9165 H   0  0  0  0  0  0  0  0  0  0  0  0
  146.3755  137.2736  163.0786 H   0  0  0  0  0  0  0  0  0  0  0  0
  145.8043  134.8004  163.0846 H   0  0  0  0  0  0  0  0  0  0  0  0
  146.8256  133.3960  161.2338 H   0  0  0  0  0  0  0  0  0  0  0  0
  147.9440  140.1795  155.2746 H   0  0  0  0  0  0  0  0  0  0  0  0
  1  2  1  0  0  0  0
  1 36  1  0  0  0  0
  1 37  1  0  0  0  0
  1 38  1  0  0  0  0
  2  3  1  0  0  0  0
  3 33  1  0  0  0  0
  3  4  2  0  0  0  0
  4  5  1  0  0  0  0
  4 39  1  0  0  0  0
  5  6  2  0  0  0  0
  5 40  1  0  0  0  0
  6  7  1  0  0  0  0
  6 32  1  0  0  0  0
  7  8  1  0  0  0  0
  7 41  1  0  0  0  0
  7 42  1  0  0  0  0
  8  9  1  0  0  0  0
  8 43  1  0  0  0  0
  9 21  1  0  0  0  0
  9 10  2  0  0  0  0
 10 11  1  0  0  0  0
 11 12  1  0  0  0  0
 11 19  2  0  0  0  0
 12 16  1  0  0  0  0
 12 13  1  0  0  0  0
 13 14  1  0  0  0  0
 13 44  1  0  0  0  0
 13 45  1  0  0  0  0
 14 15  1  0  0  0  0
 14 46  1  0  0  0  0
 14 47  1  0  0  0  0
 15 16  1  0  0  0  0
 15 48  1  0  0  0  0
 15 49  1  0  0  0  0
 16 35  1  0  0  0  0
 16 17  1  0  0  0  0
 17 18  1  0  0  0  0
 17 50  1  0  0  0  0
 17 51  1  0  0  0  0
 18 52  1  0  0  0  0
 19 20  1  0  0  0  0
 20 21  2  0  0  0  0
 20 53  1  0  0  0  0
 21 22  1  0  0  0  0
 22 23  2  0  0  0  0
 22 24  1  0  0  0  0
 24 25  1  0  0  0  0
 25 26  1  0  0  0  0
 25 54  1  0  0  0  0
 25 55  1  0  0  0  0
 26 31  1  0  0  0  0
 26 27  2  0  0  0  0
 27 28  1  0  0  0  0
 28 29  2  0  0  0  0
 28 56  1  0  0  0  0
 29 30  1  0  0  0  0
 29 57  1  0  0  0  0
 30 31  2  0  0  0  0
 30 58  1  0  0  0  0
 32 33  2  0  0  0  0
 32 59  1  0  0  0  0
 33 34  1  0  0  0  0
M  CHG  1  24  -1
M  END
> <s_m_source_file>
AV-unprocessed.smi

> <i_m_source_file_index>
45

> <i_lp_mmshare_version>
43012

> <i_f3d_flags>
0

> <s_epik_input>
W0NIM11PYzFbY0hdW2NIXWMoW2NIXWMxQ2wpW0NIMl1bTkhdYzJuYyhOM1tDSDJdW0NIMl1bQ0gyXVtDQEhdM1tDSDJdW09IXSluW2NIXWMyQyg9TylbTkhdW0NIMl1jNG5bY0hdW2NIXVtjSF1uNA==

> <s_epik_cmdline>
J2VwaWtfcHl0aG9uJywgJy1waCcsICc3LjAnLCAnLXRuJywgJzgnLCAnLW1hJywgJzIwMCcsICctbWV0YWxfYmluZGluZycsICctaW1hZScsICc8aW5maWxlLm1hZT4nLCAnLW9tYWUnLCAnPG91dGZpbGUubWFlPic=

> <r_lp_tautomer_probability>
1

> <r_epik_Ionization_Penalty>
7.35269

> <r_epik_Ionization_Penalty_Charging>
6.82087

> <r_epik_Ionization_Penalty_Neutral>
0.53182

> <r_epik_State_Penalty>
6.85781

> <r_epik_Charging_Adjusted_Penalty>
13.6787

> <i_epik_Tot_Q>
-1

> <i_epik_Tot_abs_Q>
1

> <r_epik_Metal_State_Penalty>
2.8146

> <b_epik_Metal_Only>
1

> <s_epik_Chemistry_Notes>
This compound contains an electron-poor aromatic ring that is susceptible to covalent hydrolysis at low pH, typically resulting in measured values for nitrogen ring protonation that are around two units higher than predicted values.

> <s_lp_Force_Field>
OPLS_2005

> <r_lp_Energy>
41.892

> <b_lp_Chiralities_Consistent>
1

> <s_lp_Variant>
AV-unprocessed.smi:45-7

> <Gold.Version>
5.8.1

> <Gold.Id.Protein>
6NUR|6NUR_protein|mol2

> <Gold.PLP.Fitness>
60.7442

> <Gold.PLP.PLP>
-46.5061

> <Gold.PLP.part.hbond>
-6.9063

> <Gold.PLP.part.metal>
0.0000

> <Gold.PLP.part.buried>
-4.3315

> <Gold.PLP.part.nonpolar>
-36.3193

> <Gold.PLP.part.repulsive>
0.3017

> <Gold.PLP.ligand.clash>
0.2493

> <Gold.PLP.ligand.torsion>
1.7859

> <Gold.PLP.Chemscore.Hbond>
5.7833

> <Gold.PLP.Chemscore.CHOScore>
0.0000

> <Gold.PLP.Chemscore.Metal>
0.0000

> <Gold.Chemscore.Hbonds>
donor molecule, donor type, donor heavy atom, donor atom, acceptor molecule, acceptor atom, score
      L1  H     8    43       P1  7948  0.41
      L1  H    18    52       P1 10171  1.00
      P1  H  6896  6907       L1    24  0.74
      P1  H  6931  6943       L1    27  0.98
      P1  H  6934  6947       L1    27  0.86
      P1  H  7954  7966       L1    18  0.76

> <Gold.PLP.Chemscore.Internal.Correction>
0.7092

> <Gold.Rescore>
     Score         DG    S(hbond)    S(metal)    S(lipo)     H(rot)  DE(clash)    DE(int)     intcor
     14.16     -20.19       3.32        0.00     104.29       3.36       1.18       4.84       ----

> <Gold.Chemscore.Fitness>
14.1637

> <Gold.Chemscore.DG>
-20.1856

> <Gold.Chemscore.ZeroCoef>
-5.4800

> <Gold.Chemscore.Hbond>
3.3217

> <Gold.Chemscore.Metal>
0.0000

> <Gold.Chemscore.Lipo>
104.2939

> <Gold.Chemscore.Internal_Hbond>
0.0000

> <Gold.Chemscore.DEClash>
1.1794

> <Gold.Chemscore.DEInternal>
4.8424

> <Gold.Chemscore.Rot>
3.3560

> <Gold.Chemscore.Internal.Correction>
   9.000000E+99

> <Gold.Chemscore.Hbonds>
donor molecule, donor type, donor heavy atom, donor atom, acceptor molecule, acceptor atom, score
      L1  H     8    43       P1  7948  0.12
      L1  H    18    52       P1 10171  1.00
      P1  H  6896  6907       L1    24  0.08
      P1  H  6931  6943       L1    27  0.50
      P1  H  6934  6947       L1    27  0.75
      P1  H  7954  7966       L1    18  0.48

> <Gold.Chemscore.Hbond.Weighted>
-11.0944

> <Gold.Chemscore.Metal.Weighted>
-0.0000

> <Gold.Chemscore.Lipo.Weighted>
-12.2024

> <Gold.Chemscore.Internal_Hbond.Weighted>
0.0000

> <Gold.Chemscore.DEClash.Weighted>
1.1794

> <Gold.Chemscore.DEInternal.Weighted>
4.8424

> <Gold.Chemscore.Rot.Weighted>
8.5912

> <Gold.Chemscore.Internal.Correction.Weighted>
   9.000000E+99

> <Gold.Protein.RotatedTorsions>
[ 6907 6896 6895 6894 ] final  -63.00 input  -60.11 | X-H torsion
[ 7974 7965 7964 7962 ] final -152.01 input  175.53 | X-H torsion
[ 8008 7997 7996 7995 ] final -108.73 input   59.86 | X-H torsion
[ 10167 10162 10161 10158 ] final   63.26 input  -65.29 | X-H torsion
[ 10718 10713 10712 10709 ] final  154.15 input   66.30 | X-H torsion
[ 10763 10752 10751 10750 ] final  -79.27 input  -60.55 | X-H torsion
[ 11005 11000 10999 10996 ] final   55.88 input  -57.11 | X-H torsion

> <Gold.Protein.ActiveResidues>
 VAL166  LYS551  ARG553  GLY616  TRP617  ASP618  TYR619  PRO620  LYS621  CYS622 
 ASP623  PHE694  ASN695  SER759  ASP760  ASP761  ALA762  ILE779  LEU786  VAL792 
 PHE793  MET794  SER795  GLU796  ALA797  LYS798  CYS799  TRP800  GLU811  SER814 

> <Gold.Protein.RotatedAtoms>
  150.7678  134.6495  159.6279 H   0  0  0  0  0  0  0  0  0  0  0  0  # atno 6907 bound_to 6896
  152.3718  134.6720  160.0182 H   0  0  0  0  0  0  0  0  0  0  0  0  # atno 6908 bound_to 6896
  151.7077  133.3275  159.3319 H   0  0  0  0  0  0  0  0  0  0  0  0  # atno 6909 bound_to 6896
  144.7817  140.4719  143.5834 H   0  0  0  0  0  0  0  0  0  0  0  0  # atno 7974 bound_to 7965
  154.9487  140.0401  157.2133 H   0  0  0  0  0  0  0  0  0  0  0  0  # atno 8008 bound_to 7997
  154.7999  140.2850  155.5907 H   0  0  0  0  0  0  0  0  0  0  0  0  # atno 8009 bound_to 7997
  156.2960  140.2557  156.2865 H   0  0  0  0  0  0  0  0  0  0  0  0  # atno 8010 bound_to 7997
  140.1350  144.4607  150.6843 H   0  0  0  0  0  0  0  0  0  0  0  0  # atno 10167 bound_to 10162
  157.2354  131.0748  151.1826 H   0  0  0  0  0  0  0  0  0  0  0  0  # atno 10718 bound_to 10713
  154.5365  135.5701  153.6803 H   0  0  0  0  0  0  0  0  0  0  0  0  # atno 10763 bound_to 10752
  152.9952  135.6217  154.2558 H   0  0  0  0  0  0  0  0  0  0  0  0  # atno 10764 bound_to 10752
  154.2487  135.2860  155.2805 H   0  0  0  0  0  0  0  0  0  0  0  0  # atno 10765 bound_to 10752
  140.0572  134.5653  155.9193 H   0  0  0  0  0  0  0  0  0  0  0  0  # atno 11005 bound_to 11000
  145.6031  139.1505  143.3118 LP  0  0  0  0  0  0  0  0  0  0  0  0  # atno 17320 bound_to 7965
  146.2029  140.6151  142.9094 LP  0  0  0  0  0  0  0  0  0  0  0  0  # atno 17321 bound_to 7965
  140.6794  143.2320  151.5422 LP  0  0  0  0  0  0  0  0  0  0  0  0  # atno 17342 bound_to 10162
  139.5500  144.2419  152.1514 LP  0  0  0  0  0  0  0  0  0  0  0  0  # atno 17343 bound_to 10162
  157.3434  130.7045  149.6396 LP  0  0  0  0  0  0  0  0  0  0  0  0  # atno 17370 bound_to 10713
  155.9673  130.4273  150.4738 LP  0  0  0  0  0  0  0  0  0  0  0  0  # atno 17371 bound_to 10713
  141.1957  133.6588  156.5657 LP  0  0  0  0  0  0  0  0  0  0  0  0  # atno 17394 bound_to 11000
  140.3825  134.7511  157.4670 LP  0  0  0  0  0  0  0  0  0  0  0  0  # atno 17395 bound_to 11000

$$$$
