AV-unprocessed.smi:2592|AV-procd|sdf|10161|dock9
  -GOLD-   2272014173D 1   1.00000     0.00000
 Structure written by MMmdl.
 42 43  0  0  0  0  0  0  0  0  3 V2000
  152.0118  145.7289  160.2932 C   0  0  0  0  0  0  0  0  0  0  0  0
  151.9527  144.4335  159.5439 C   0  0  0  0  0  0  0  0  0  0  0  0
  151.4621  144.4127  158.2358 N   0  0  0  0  0  0  0  0  0  0  0  0
  151.4721  143.1979  157.6783 C   0  0  0  0  0  0  0  0  0  0  0  0
  151.0398  142.9603  156.4290 N   0  5  0  0  0  0  0  0  0  0  0  0
  150.4230  141.7931  156.1376 C   0  0  0  0  0  0  0  0  0  0  0  0
  150.6353  140.7006  156.6692 O   0  0  0  0  0  0  0  0  0  0  0  0
  149.4952  141.8991  155.1755 N   0  0  0  0  0  0  0  0  0  0  0  0
  148.6566  140.8153  154.6756 C   0  0  0  0  0  0  0  0  0  0  0  0
  147.1635  141.1632  154.7906 C   0  0  0  0  0  0  0  0  0  0  0  0
  146.2940  139.9295  155.0808 C   0  0  0  0  0  0  0  0  0  0  0  0
  145.8582  139.2436  153.8389 N   0  3  0  0  0  0  0  0  0  0  0  0
  146.9641  139.0782  152.8655 C   0  0  0  0  0  0  0  0  0  0  0  0
  146.4531  138.4134  151.5759 C   0  0  0  0  0  0  0  0  0  0  0  0
  145.8516  137.1638  151.8895 O   0  0  0  0  0  0  0  0  0  0  0  0
  144.7325  137.3147  152.7538 C   0  0  0  0  0  0  0  0  0  0  0  0
  145.1854  137.9430  154.0825 C   0  0  0  0  0  0  0  0  0  0  0  0
  152.0911  141.9720  158.7852 S   0  0  0  0  0  0  0  0  0  0  0  0
  152.3375  143.1973  160.0007 C   0  0  0  0  0  0  0  0  0  0  0  0
  152.9022  142.8502  161.3377 C   0  0  0  0  0  0  0  0  0  0  0  0
  151.3072  145.7325  161.1249 H   0  0  0  0  0  0  0  0  0  0  0  0
  151.7694  146.5775  159.6525 H   0  0  0  0  0  0  0  0  0  0  0  0
  153.0078  145.9011  160.7018 H   0  0  0  0  0  0  0  0  0  0  0  0
  149.3582  142.8111  154.7647 H   0  0  0  0  0  0  0  0  0  0  0  0
  148.9200  140.6399  153.6325 H   0  0  0  0  0  0  0  0  0  0  0  0
  148.8798  139.8916  155.2121 H   0  0  0  0  0  0  0  0  0  0  0  0
  147.0322  141.9054  155.5775 H   0  0  0  0  0  0  0  0  0  0  0  0
  146.8302  141.6331  153.8643 H   0  0  0  0  0  0  0  0  0  0  0  0
  146.8835  139.2354  155.6818 H   0  0  0  0  0  0  0  0  0  0  0  0
  145.4253  140.1996  155.6832 H   0  0  0  0  0  0  0  0  0  0  0  0
  147.3984  140.0500  152.6276 H   0  0  0  0  0  0  0  0  0  0  0  0
  147.7552  138.4727  153.3107 H   0  0  0  0  0  0  0  0  0  0  0  0
  145.7380  139.0573  151.0616 H   0  0  0  0  0  0  0  0  0  0  0  0
  147.2812  138.2436  150.8873 H   0  0  0  0  0  0  0  0  0  0  0  0
  143.9665  137.9267  152.2746 H   0  0  0  0  0  0  0  0  0  0  0  0
  144.2903  136.3347  152.9331 H   0  0  0  0  0  0  0  0  0  0  0  0
  145.8685  137.2671  154.5995 H   0  0  0  0  0  0  0  0  0  0  0  0
  144.3179  138.0749  154.7279 H   0  0  0  0  0  0  0  0  0  0  0  0
  153.9379  143.1814  161.4153 H   0  0  0  0  0  0  0  0  0  0  0  0
  152.8783  141.7738  161.5083 H   0  0  0  0  0  0  0  0  0  0  0  0
  152.3336  143.3280  162.1357 H   0  0  0  0  0  0  0  0  0  0  0  0
  145.1807  139.8495  153.3983 H   0  0  0  0  0  0  0  0  0  0  0  0
  1  2  1  0  0  0  0
  1 21  1  0  0  0  0
  1 22  1  0  0  0  0
  1 23  1  0  0  0  0
  2 19  2  0  0  0  0
  2  3  1  0  0  0  0
  3  4  2  0  0  0  0
  4  5  1  0  0  0  0
  4 18  1  0  0  0  0
  5  6  1  0  0  0  0
  6  7  2  0  0  0  0
  6  8  1  0  0  0  0
  8  9  1  0  0  0  0
  8 24  1  0  0  0  0
  9 10  1  0  0  0  0
  9 25  1  0  0  0  0
  9 26  1  0  0  0  0
 10 11  1  0  0  0  0
 10 27  1  0  0  0  0
 10 28  1  0  0  0  0
 11 12  1  0  0  0  0
 11 29  1  0  0  0  0
 11 30  1  0  0  0  0
 12 17  1  0  0  0  0
 12 13  1  0  0  0  0
 12 42  1  0  0  0  0
 13 14  1  0  0  0  0
 13 31  1  0  0  0  0
 13 32  1  0  0  0  0
 14 15  1  0  0  0  0
 14 33  1  0  0  0  0
 14 34  1  0  0  0  0
 15 16  1  0  0  0  0
 16 17  1  0  0  0  0
 16 35  1  0  0  0  0
 16 36  1  0  0  0  0
 17 37  1  0  0  0  0
 17 38  1  0  0  0  0
 18 19  1  0  0  0  0
 19 20  1  0  0  0  0
 20 39  1  0  0  0  0
 20 40  1  0  0  0  0
 20 41  1  0  0  0  0
M  CHG  1   5  -1
M  CHG  1  12   1
M  END
> <s_m_source_file>
AV-unprocessed.smi

> <i_m_source_file_index>
2592

> <i_lp_mmshare_version>
43012

> <i_f3d_flags>
0

> <s_epik_input>
W0NIM11jMW5jKHNjMVtDSDNdKVtOSF1DKD1PKVtOSF1bQ0gyXVtDSDJdW0NIMl1OMltDSDJdW0NIMl1PW0NIMl1bQ0gyXTI=

> <s_epik_cmdline>
J2VwaWtfcHl0aG9uJywgJy1waCcsICc3LjAnLCAnLXRuJywgJzgnLCAnLW1hJywgJzIwMCcsICctbWV0YWxfYmluZGluZycsICctaW1hZScsICc8aW5maWxlLm1hZT4nLCAnLW9tYWUnLCAnPG91dGZpbGUubWFlPic=

> <r_lp_tautomer_probability>
0.999

> <r_epik_Ionization_Penalty>
7.73516

> <r_epik_Ionization_Penalty_Charging>
6.31615

> <r_epik_Ionization_Penalty_Neutral>
1.41901

> <r_epik_State_Penalty>
6.31054

> <r_epik_Charging_Adjusted_Penalty>
12.6267

> <i_epik_Tot_Q>
0

> <i_epik_Tot_abs_Q>
2

> <r_epik_Metal_State_Penalty>
2.25864

> <b_epik_Metal_Only>
1

> <s_lp_Force_Field>
OPLS_2005

> <r_lp_Energy>
6.70997

> <b_lp_Chiralities_Consistent>
1

> <s_lp_Variant>
AV-unprocessed.smi:2592-3

> <Gold.Version>
5.8.1

> <Gold.Id.Protein>
6NUR|6NUR_protein|mol2

> <Gold.PLP.Fitness>
43.4035

> <Gold.PLP.PLP>
-37.6769

> <Gold.PLP.part.hbond>
-2.0000

> <Gold.PLP.part.metal>
0.0000

> <Gold.PLP.part.buried>
-5.3072

> <Gold.PLP.part.nonpolar>
-34.7699

> <Gold.PLP.part.repulsive>
2.5193

> <Gold.PLP.ligand.clash>
0.0000

> <Gold.PLP.ligand.torsion>
0.9090

> <Gold.PLP.Chemscore.Hbond>
2.4904

> <Gold.PLP.Chemscore.CHOScore>
0.0000

> <Gold.PLP.Chemscore.Metal>
0.0000

> <Gold.Chemscore.Hbonds>
donor molecule, donor type, donor heavy atom, donor atom, acceptor molecule, acceptor atom, score
      L1  H     8    24       P1  8028  0.46
      L1  H    12    42       P1 10175  2.00

> <Gold.PLP.Chemscore.Internal.Correction>
0.0734

> <Gold.Rescore>
     Score         DG    S(hbond)    S(metal)    S(lipo)     H(rot)  DE(clash)    DE(int)     intcor
     13.50     -17.98       1.74        0.00      94.80       1.72       1.41       3.07       ----

> <Gold.Chemscore.Fitness>
13.4991

> <Gold.Chemscore.DG>
-17.9824

> <Gold.Chemscore.ZeroCoef>
-5.4800

> <Gold.Chemscore.Hbond>
1.7373

> <Gold.Chemscore.Metal>
0.0000

> <Gold.Chemscore.Lipo>
94.7966

> <Gold.Chemscore.Internal_Hbond>
0.0000

> <Gold.Chemscore.DEClash>
1.4145

> <Gold.Chemscore.DEInternal>
3.0688

> <Gold.Chemscore.Rot>
1.7154

> <Gold.Chemscore.Internal.Correction>
   9.000000E+99

> <Gold.Chemscore.Hbonds>
donor molecule, donor type, donor heavy atom, donor atom, acceptor molecule, acceptor atom, score
      L1  H     8    24       P1  8028  0.45
      L1  H    12    42       P1 10175  1.00

> <Gold.Chemscore.Hbond.Weighted>
-5.8026

> <Gold.Chemscore.Metal.Weighted>
-0.0000

> <Gold.Chemscore.Lipo.Weighted>
-11.0912

> <Gold.Chemscore.Internal_Hbond.Weighted>
0.0000

> <Gold.Chemscore.DEClash.Weighted>
1.4145

> <Gold.Chemscore.DEInternal.Weighted>
3.0688

> <Gold.Chemscore.Rot.Weighted>
4.3914

> <Gold.Chemscore.Internal.Correction.Weighted>
   9.000000E+99

> <Gold.Protein.RotatedTorsions>
[ 6907 6896 6895 6894 ] final    1.01 input  -60.11 | X-H torsion
[ 7974 7965 7964 7962 ] final  173.69 input  175.53 | X-H torsion
[ 8008 7997 7996 7995 ] final  -30.06 input   59.86 | X-H torsion
[ 10167 10162 10161 10158 ] final   13.64 input  -65.29 | X-H torsion
[ 10718 10713 10712 10709 ] final   27.26 input   66.30 | X-H torsion
[ 10763 10752 10751 10750 ] final  168.40 input  -60.55 | X-H torsion
[ 11005 11000 10999 10996 ] final  171.62 input  -57.11 | X-H torsion

> <Gold.Protein.ActiveResidues>
 VAL166  LYS551  ARG553  GLY616  TRP617  ASP618  TYR619  PRO620  LYS621  CYS622 
 ASP623  PHE694  ASN695  SER759  ASP760  ASP761  ALA762  ILE779  LEU786  VAL792 
 PHE793  MET794  SER795  GLU796  ALA797  LYS798  CYS799  TRP800  GLU811  SER814 

> <Gold.Protein.RotatedAtoms>
  151.5857  135.1056  160.0027 H   0  0  0  0  0  0  0  0  0  0  0  0  # atno 6907 bound_to 6896
  152.4331  133.7309  159.6597 H   0  0  0  0  0  0  0  0  0  0  0  0  # atno 6908 bound_to 6896
  150.8226  133.8156  159.3155 H   0  0  0  0  0  0  0  0  0  0  0  0  # atno 6909 bound_to 6896
  144.7238  139.9685  143.6436 H   0  0  0  0  0  0  0  0  0  0  0  0  # atno 7974 bound_to 7965
  154.4265  140.1801  156.1346 H   0  0  0  0  0  0  0  0  0  0  0  0  # atno 8008 bound_to 7997
  156.0040  140.3357  155.6849 H   0  0  0  0  0  0  0  0  0  0  0  0  # atno 8009 bound_to 7997
  155.6203  140.0659  157.2671 H   0  0  0  0  0  0  0  0  0  0  0  0  # atno 8010 bound_to 7997
  140.5989  143.8645  150.6945 H   0  0  0  0  0  0  0  0  0  0  0  0  # atno 10167 bound_to 10162
  157.2178  130.6964  149.6256 H   0  0  0  0  0  0  0  0  0  0  0  0  # atno 10718 bound_to 10713
  154.3680  135.2753  155.2283 H   0  0  0  0  0  0  0  0  0  0  0  0  # atno 10763 bound_to 10752
  154.4442  135.5947  153.6153 H   0  0  0  0  0  0  0  0  0  0  0  0  # atno 10764 bound_to 10752
  152.9840  135.6026  154.3908 H   0  0  0  0  0  0  0  0  0  0  0  0  # atno 10765 bound_to 10752
  140.3209  134.7438  157.4063 H   0  0  0  0  0  0  0  0  0  0  0  0  # atno 11005 bound_to 11000
  146.0581  139.3576  143.0598 LP  0  0  0  0  0  0  0  0  0  0  0  0  # atno 17320 bound_to 7965
  145.8128  140.9717  143.0940 LP  0  0  0  0  0  0  0  0  0  0  0  0  # atno 17321 bound_to 7965
  140.2186  143.3826  152.1661 LP  0  0  0  0  0  0  0  0  0  0  0  0  # atno 17342 bound_to 10162
  139.5277  144.7122  151.5169 LP  0  0  0  0  0  0  0  0  0  0  0  0  # atno 17343 bound_to 10162
  155.9685  130.4530  150.5795 LP  0  0  0  0  0  0  0  0  0  0  0  0  # atno 17370 bound_to 10713
  157.3607  131.0749  151.1639 LP  0  0  0  0  0  0  0  0  0  0  0  0  # atno 17371 bound_to 10713
  140.0942  134.5559  155.8414 LP  0  0  0  0  0  0  0  0  0  0  0  0  # atno 17394 bound_to 11000
  141.2086  133.6676  156.6386 LP  0  0  0  0  0  0  0  0  0  0  0  0  # atno 17395 bound_to 11000

$$$$
