AV-unprocessed.smi:1534|AV-procd|sdf|6167|dock4
  -GOLD-   22720 6313D 1   1.00000     0.00000
 Structure written by MMmdl.
 36 37  0  0  0  0  0  0  0  0  1 V2000
  153.7685  136.2239  160.5030 O   0  0  0  0  0  0  0  0  0  0  0  0
  154.9239  136.4916  160.8268 C   0  0  0  0  0  0  0  0  0  0  0  0
  155.2836  137.6573  161.3900 N   0  0  0  0  0  0  0  0  0  0  0  0
  154.3853  138.7772  161.6428 C   0  0  0  0  0  0  0  0  0  0  0  0
  154.7830  140.0088  160.8124 C   0  0  0  0  0  0  0  0  0  0  0  0
  153.9404  141.2256  161.1435 C   0  0  0  0  0  0  0  0  0  0  0  0
  153.0180  141.7399  160.2072 C   0  0  0  0  0  0  0  0  0  0  0  0
  152.2606  142.8722  160.5641 C   0  0  0  0  0  0  0  0  0  0  0  0
  152.4518  143.4422  161.8375 C   0  0  0  0  0  0  0  0  0  0  0  0
  153.3960  142.8518  162.7011 C   0  0  0  0  0  0  0  0  0  0  0  0
  154.1283  141.7667  162.3683 N   0  0  0  0  0  0  0  0  0  0  0  0
  155.9334  135.6242  160.6336 N   0  0  0  0  0  0  0  0  0  0  0  0
  155.8743  134.2838  160.0487 C   0  0  1  0  0  0  0  0  0  0  0  0
  155.0217  133.3428  160.9206 C   0  0  0  0  0  0  0  0  0  0  0  0
  154.6847  132.0852  160.1100 C   0  0  0  0  0  0  0  0  0  0  0  0
  154.6069  132.6131  158.3566 S   0  0  0  0  0  0  0  0  0  0  0  0
  155.5842  131.8341  157.5817 O   0  0  0  0  0  0  0  0  0  0  0  0
  153.2028  132.7074  157.9294 O   0  0  0  0  0  0  0  0  0  0  0  0
  155.2596  134.3008  158.6384 C   0  0  0  0  0  0  0  0  0  0  0  0
  156.2545  137.7887  161.6336 H   0  0  0  0  0  0  0  0  0  0  0  0
  153.3539  138.4894  161.4321 H   0  0  0  0  0  0  0  0  0  0  0  0
  154.4317  139.0131  162.7065 H   0  0  0  0  0  0  0  0  0  0  0  0
  155.8332  140.2506  160.9827 H   0  0  0  0  0  0  0  0  0  0  0  0
  154.6887  139.7912  159.7475 H   0  0  0  0  0  0  0  0  0  0  0  0
  152.8930  141.2794  159.2381 H   0  0  0  0  0  0  0  0  0  0  0  0
  151.5459  143.2953  159.8738 H   0  0  0  0  0  0  0  0  0  0  0  0
  151.8885  144.3105  162.1453 H   0  0  0  0  0  0  0  0  0  0  0  0
  153.5676  143.2621  163.6852 H   0  0  0  0  0  0  0  0  0  0  0  0
  156.8448  135.9221  160.9508 H   0  0  0  0  0  0  0  0  0  0  0  0
  156.8784  133.8592  159.9927 H   0  0  0  0  0  0  0  0  0  0  0  0
  155.5225  133.0921  161.8562 H   0  0  0  0  0  0  0  0  0  0  0  0
  154.0895  133.8446  161.1844 H   0  0  0  0  0  0  0  0  0  0  0  0
  155.4769  131.3420  160.2019 H   0  0  0  0  0  0  0  0  0  0  0  0
  153.7417  131.6271  160.4084 H   0  0  0  0  0  0  0  0  0  0  0  0
  154.4196  134.9942  158.5829 H   0  0  0  0  0  0  0  0  0  0  0  0
  155.9751  134.5592  157.8575 H   0  0  0  0  0  0  0  0  0  0  0  0
  1  2  2  0  0  0  0
  2  3  1  0  0  0  0
  2 12  1  0  0  0  0
  3  4  1  0  0  0  0
  3 20  1  0  0  0  0
  4  5  1  0  0  0  0
  4 21  1  0  0  0  0
  4 22  1  0  0  0  0
  5  6  1  0  0  0  0
  5 23  1  0  0  0  0
  5 24  1  0  0  0  0
  6 11  1  0  0  0  0
  6  7  2  0  0  0  0
  7  8  1  0  0  0  0
  7 25  1  0  0  0  0
  8  9  2  0  0  0  0
  8 26  1  0  0  0  0
  9 10  1  0  0  0  0
  9 27  1  0  0  0  0
 10 11  2  0  0  0  0
 10 28  1  0  0  0  0
 12 13  1  0  0  0  0
 12 29  1  0  0  0  0
 13 19  1  0  0  0  0
 13 14  1  0  0  0  0
 13 30  1  0  0  0  0
 14 15  1  0  0  0  0
 14 31  1  0  0  0  0
 14 32  1  0  0  0  0
 15 16  1  0  0  0  0
 15 33  1  0  0  0  0
 15 34  1  0  0  0  0
 16 17  2  0  0  0  0
 16 18  2  0  0  0  0
 16 19  1  0  0  0  0
 19 35  1  0  0  0  0
 19 36  1  0  0  0  0
M  END
> <s_m_source_file>
AV-unprocessed.smi

> <i_m_source_file_index>
1534

> <i_lp_mmshare_version>
43012

> <i_f3d_flags>
0

> <s_epik_input>
Tz1TMSg9TylbQ0gyXVtDSDJdW0NASF0oW0NIMl0xKVtOSF1DKD1PKVtOSF1bQ0gyXVtDSDJdYzJbY0hdW2NIXVtjSF1bY0hdbjI=

> <s_epik_cmdline>
J2VwaWtfcHl0aG9uJywgJy1waCcsICc3LjAnLCAnLXRuJywgJzgnLCAnLW1hJywgJzIwMCcsICctbWV0YWxfYmluZGluZycsICctaW1hZScsICc8aW5maWxlLm1hZT4nLCAnLW9tYWUnLCAnPG91dGZpbGUubWFlPic=

> <r_epik_Ionization_Penalty>
0.0423605

> <r_epik_Ionization_Penalty_Charging>
0

> <r_epik_Ionization_Penalty_Neutral>
0.0423605

> <r_epik_State_Penalty>
0.0357408

> <r_epik_Charging_Adjusted_Penalty>
0.0357408

> <i_epik_Tot_Q>
0

> <i_epik_Tot_abs_Q>
0

> <r_epik_Metal_State_Penalty>
0.033344

> <b_epik_Metal_Only>
0

> <s_lp_Force_Field>
OPLS_2005

> <r_lp_Energy>
9.82399

> <b_lp_Chiralities_Consistent>
1

> <s_lp_Variant>
AV-unprocessed.smi:1534-2

> <Gold.Version>
5.8.1

> <Gold.Id.Protein>
6NUR|6NUR_protein|mol2

> <Gold.PLP.Fitness>
38.3410

> <Gold.PLP.PLP>
-32.5338

> <Gold.PLP.part.hbond>
-3.0000

> <Gold.PLP.part.metal>
0.0000

> <Gold.PLP.part.buried>
-4.6426

> <Gold.PLP.part.nonpolar>
-24.5306

> <Gold.PLP.part.repulsive>
0.0298

> <Gold.PLP.ligand.clash>
0.0000

> <Gold.PLP.ligand.torsion>
0.1049

> <Gold.PLP.Chemscore.Hbond>
2.0000

> <Gold.PLP.Chemscore.CHOScore>
0.0000

> <Gold.PLP.Chemscore.Metal>
0.0000

> <Gold.Chemscore.Hbonds>
donor molecule, donor type, donor heavy atom, donor atom, acceptor molecule, acceptor atom, score
      P1  H  6896  6908       L1     1  0.88
      P1  H  6896  6909       L1    18  1.00

> <Gold.PLP.Chemscore.Internal.Correction>
0.0170

> <Gold.Rescore>
     Score         DG    S(hbond)    S(metal)    S(lipo)     H(rot)  DE(clash)    DE(int)     intcor
     16.45     -16.59       1.95        0.00      77.37       1.73       0.03       0.11       ----

> <Gold.Chemscore.Fitness>
16.4467

> <Gold.Chemscore.DG>
-16.5916

> <Gold.Chemscore.ZeroCoef>
-5.4800

> <Gold.Chemscore.Hbond>
1.9462

> <Gold.Chemscore.Metal>
0.0000

> <Gold.Chemscore.Lipo>
77.3684

> <Gold.Chemscore.Internal_Hbond>
0.0000

> <Gold.Chemscore.DEClash>
0.0310

> <Gold.Chemscore.DEInternal>
0.1139

> <Gold.Chemscore.Rot>
1.7348

> <Gold.Chemscore.Internal.Correction>
   9.000000E+99

> <Gold.Chemscore.Hbonds>
donor molecule, donor type, donor heavy atom, donor atom, acceptor molecule, acceptor atom, score
      P1  H  6896  6908       L1     1  0.85
      P1  H  6896  6909       L1    18  0.73

> <Gold.Chemscore.Hbond.Weighted>
-6.5005

> <Gold.Chemscore.Metal.Weighted>
-0.0000

> <Gold.Chemscore.Lipo.Weighted>
-9.0521

> <Gold.Chemscore.Internal_Hbond.Weighted>
0.0000

> <Gold.Chemscore.DEClash.Weighted>
0.0310

> <Gold.Chemscore.DEInternal.Weighted>
0.1139

> <Gold.Chemscore.Rot.Weighted>
4.4410

> <Gold.Chemscore.Internal.Correction.Weighted>
   9.000000E+99

> <Gold.Protein.RotatedTorsions>
[ 6907 6896 6895 6894 ] final  -85.31 input  -60.11 | X-H torsion
[ 7974 7965 7964 7962 ] final -178.48 input  175.53 | X-H torsion
[ 8008 7997 7996 7995 ] final   99.50 input   59.86 | X-H torsion
[ 10167 10162 10161 10158 ] final  -74.12 input  -65.29 | X-H torsion
[ 10718 10713 10712 10709 ] final   41.02 input   66.30 | X-H torsion
[ 10763 10752 10751 10750 ] final   65.38 input  -60.55 | X-H torsion
[ 11005 11000 10999 10996 ] final   84.89 input  -57.11 | X-H torsion

> <Gold.Protein.ActiveResidues>
 VAL166  LYS551  ARG553  GLY616  TRP617  ASP618  TYR619  PRO620  LYS621  CYS622 
 ASP623  PHE694  ASN695  SER759  ASP760  ASP761  ALA762  ILE779  LEU786  VAL792 
 PHE793  MET794  SER795  GLU796  ALA797  LYS798  CYS799  TRP800  GLU811  SER814 

> <Gold.Protein.RotatedAtoms>
  150.6871  134.3224  159.4791 H   0  0  0  0  0  0  0  0  0  0  0  0  # atno 6907 bound_to 6896
  152.1098  134.9280  160.0576 H   0  0  0  0  0  0  0  0  0  0  0  0  # atno 6908 bound_to 6896
  152.0527  133.3991  159.4421 H   0  0  0  0  0  0  0  0  0  0  0  0  # atno 6909 bound_to 6896
  144.7131  140.0862  143.6423 H   0  0  0  0  0  0  0  0  0  0  0  0  # atno 7974 bound_to 7965
  156.1111  140.3228  155.8073 H   0  0  0  0  0  0  0  0  0  0  0  0  # atno 8008 bound_to 7997
  155.4672  140.0544  157.3001 H   0  0  0  0  0  0  0  0  0  0  0  0  # atno 8009 bound_to 7997
  154.4760  140.2032  155.9891 H   0  0  0  0  0  0  0  0  0  0  0  0  # atno 8010 bound_to 7997
  140.5054  143.2354  151.7683 H   0  0  0  0  0  0  0  0  0  0  0  0  # atno 10167 bound_to 10162
  157.3888  130.7795  149.7252 H   0  0  0  0  0  0  0  0  0  0  0  0  # atno 10718 bound_to 10713
  153.0094  135.5359  154.6658 H   0  0  0  0  0  0  0  0  0  0  0  0  # atno 10763 bound_to 10752
  154.5855  135.2854  155.0691 H   0  0  0  0  0  0  0  0  0  0  0  0  # atno 10764 bound_to 10752
  154.1804  135.6517  153.5085 H   0  0  0  0  0  0  0  0  0  0  0  0  # atno 10765 bound_to 10752
  139.8987  134.8248  156.2507 H   0  0  0  0  0  0  0  0  0  0  0  0  # atno 11005 bound_to 11000
  145.9660  139.2835  143.1127 LP  0  0  0  0  0  0  0  0  0  0  0  0  # atno 17320 bound_to 7965
  145.9169  140.9142  143.0425 LP  0  0  0  0  0  0  0  0  0  0  0  0  # atno 17321 bound_to 7965
  139.4882  144.4465  151.9704 LP  0  0  0  0  0  0  0  0  0  0  0  0  # atno 17342 bound_to 10162
  140.3555  144.3037  150.5942 LP  0  0  0  0  0  0  0  0  0  0  0  0  # atno 17343 bound_to 10162
  155.9793  130.4041  150.3595 LP  0  0  0  0  0  0  0  0  0  0  0  0  # atno 17370 bound_to 10713
  157.1708  131.0368  151.2796 LP  0  0  0  0  0  0  0  0  0  0  0  0  # atno 17371 bound_to 10713
  141.0226  133.7033  156.1293 LP  0  0  0  0  0  0  0  0  0  0  0  0  # atno 17394 bound_to 11000
  140.7212  134.4356  157.5574 LP  0  0  0  0  0  0  0  0  0  0  0  0  # atno 17395 bound_to 11000

$$$$
