AV-unprocessed.smi:526|AV-procd|sdf|2811|dock10
  -GOLD-   2262023293D 1   1.00000     0.00000
 Structure written by MMmdl.
 30 30  0  0  0  0  0  0  0  0  2 V2000
  152.4673  143.9169  161.8907 C   0  0  0  0  0  0  0  0  0  0  0  0
  152.3345  143.8024  160.5589 C   0  0  0  0  0  0  0  0  0  0  0  0
  153.4346  143.2250  159.6883 C   0  0  0  0  0  0  0  0  0  0  0  0
  151.0754  144.2417  159.8349 C   0  0  0  0  0  0  0  0  0  0  0  0
  151.3477  144.4976  158.0580 S   0  0  0  0  0  0  0  0  0  0  0  0
  151.3374  142.7873  157.4477 C   0  0  0  0  0  0  0  0  0  0  0  0
  151.9232  141.7408  157.9349 N   0  0  0  0  0  0  0  0  0  0  0  0
  151.7801  140.4991  157.3032 C   0  0  0  0  0  0  0  0  0  0  0  0
  152.5038  139.3381  157.9628 C   0  0  0  0  0  0  0  0  0  0  0  0
  151.0343  140.3588  156.1710 C   0  0  0  0  0  0  0  0  0  0  0  0
  150.8505  139.0192  155.4553 C   0  0  0  0  0  0  0  0  0  0  0  0
  152.0891  138.5177  154.7030 C   0  0  0  0  0  0  0  0  0  0  0  0
  151.9644  137.4401  154.0815 O   0  0  0  0  0  0  0  0  0  0  0  0
  153.1356  139.2018  154.7567 O   0  5  0  0  0  0  0  0  0  0  0  0
  150.3688  141.5439  155.6040 C   0  0  0  0  0  0  0  0  0  0  0  0
  149.6758  141.5392  154.5875 O   0  0  0  0  0  0  0  0  0  0  0  0
  150.5655  142.6921  156.2891 N   0  0  0  0  0  0  0  0  0  0  0  0
  150.1230  143.5274  155.9352 H   0  0  0  0  0  0  0  0  0  0  0  0
  153.3691  143.6001  162.3938 H   0  0  0  0  0  0  0  0  0  0  0  0
  151.6758  144.3289  162.4996 H   0  0  0  0  0  0  0  0  0  0  0  0
  153.7493  143.9555  158.9428 H   0  0  0  0  0  0  0  0  0  0  0  0
  153.0856  142.3325  159.1687 H   0  0  0  0  0  0  0  0  0  0  0  0
  154.3074  142.9496  160.2815 H   0  0  0  0  0  0  0  0  0  0  0  0
  150.2944  143.4907  159.9611 H   0  0  0  0  0  0  0  0  0  0  0  0
  150.7060  145.1642  160.2840 H   0  0  0  0  0  0  0  0  0  0  0  0
  153.2679  138.9364  157.2971 H   0  0  0  0  0  0  0  0  0  0  0  0
  151.8035  138.5400  158.2101 H   0  0  0  0  0  0  0  0  0  0  0  0
  152.9938  139.6493  158.8861 H   0  0  0  0  0  0  0  0  0  0  0  0
  150.5351  138.2465  156.1571 H   0  0  0  0  0  0  0  0  0  0  0  0
  150.0307  139.1065  154.7422 H   0  0  0  0  0  0  0  0  0  0  0  0
  1  2  2  0  0  0  0
  1 19  1  0  0  0  0
  1 20  1  0  0  0  0
  2  3  1  0  0  0  0
  2  4  1  0  0  0  0
  3 21  1  0  0  0  0
  3 22  1  0  0  0  0
  3 23  1  0  0  0  0
  4  5  1  0  0  0  0
  4 24  1  0  0  0  0
  4 25  1  0  0  0  0
  5  6  1  0  0  0  0
  6 17  1  0  0  0  0
  6  7  2  0  0  0  0
  7  8  1  0  0  0  0
  8  9  1  0  0  0  0
  8 10  2  0  0  0  0
  9 26  1  0  0  0  0
  9 27  1  0  0  0  0
  9 28  1  0  0  0  0
 10 11  1  0  0  0  0
 10 15  1  0  0  0  0
 11 12  1  0  0  0  0
 11 29  1  0  0  0  0
 11 30  1  0  0  0  0
 12 13  2  0  0  0  0
 12 14  1  0  0  0  0
 15 16  2  0  0  0  0
 15 17  1  0  0  0  0
 17 18  1  0  0  0  0
M  CHG  1  14  -1
M  END
> <s_m_source_file>
AV-unprocessed.smi

> <i_m_source_file_index>
526

> <i_lp_mmshare_version>
43012

> <i_f3d_flags>
0

> <s_epik_input>
W0NIMl09QyhbQ0gzXSlbQ0gyXVNjMW5jKFtDSDNdKWMoYyg9TylbbkhdMSlbQ0gyXUMoPU8pW09IXQ==

> <s_epik_cmdline>
J2VwaWtfcHl0aG9uJywgJy1waCcsICc3LjAnLCAnLXRuJywgJzgnLCAnLW1hJywgJzIwMCcsICctbWV0YWxfYmluZGluZycsICctaW1hZScsICc8aW5maWxlLm1hZT4nLCAnLW9tYWUnLCAnPG91dGZpbGUubWFlPic=

> <r_lp_tautomer_probability>
0.660323

> <r_epik_Ionization_Penalty>
0.000759783

> <r_epik_Ionization_Penalty_Charging>
0.000714454

> <r_epik_Ionization_Penalty_Neutral>
4.53284e-05

> <r_epik_State_Penalty>
0.230805

> <r_epik_Charging_Adjusted_Penalty>
0.231519

> <i_epik_Tot_Q>
-1

> <i_epik_Tot_abs_Q>
1

> <r_epik_Metal_State_Penalty>
0.34438

> <b_epik_Metal_Only>
0

> <s_lp_Force_Field>
OPLS_2005

> <r_lp_Energy>
1.72321

> <b_lp_Chiralities_Consistent>
1

> <s_lp_Variant>
AV-unprocessed.smi:526-1

> <Gold.Version>
5.8.1

> <Gold.Id.Protein>
6NUR|6NUR_protein|mol2

> <Gold.PLP.Fitness>
53.3396

> <Gold.PLP.PLP>
-39.7138

> <Gold.PLP.part.hbond>
-5.2519

> <Gold.PLP.part.metal>
0.0000

> <Gold.PLP.part.buried>
-5.0241

> <Gold.PLP.part.nonpolar>
-29.4075

> <Gold.PLP.part.repulsive>
0.8087

> <Gold.PLP.ligand.clash>
0.0050

> <Gold.PLP.ligand.torsion>
0.6782

> <Gold.PLP.Chemscore.Hbond>
4.9876

> <Gold.PLP.Chemscore.CHOScore>
0.0000

> <Gold.PLP.Chemscore.Metal>
0.0000

> <Gold.Chemscore.Hbonds>
donor molecule, donor type, donor heavy atom, donor atom, acceptor molecule, acceptor atom, score
      L1  H    17    18       P1  8028  1.00
      P1  H  7989  7998       L1    16  0.03
      P1  H  7997  8009       L1    14  2.00
      P1  H  8011  8017       L1    16  0.02
      P1  H 10752 10764       L1    13  1.92

> <Gold.PLP.Chemscore.Internal.Correction>
0.0243

> <Gold.Rescore>
     Score         DG    S(hbond)    S(metal)    S(lipo)     H(rot)  DE(clash)    DE(int)     intcor
     16.81     -18.64       2.89        0.00      81.29       2.34       0.00       1.83       ----

> <Gold.Chemscore.Fitness>
16.8078

> <Gold.Chemscore.DG>
-18.6370

> <Gold.Chemscore.ZeroCoef>
-5.4800

> <Gold.Chemscore.Hbond>
2.8867

> <Gold.Chemscore.Metal>
0.0000

> <Gold.Chemscore.Lipo>
81.2892

> <Gold.Chemscore.Internal_Hbond>
0.0000

> <Gold.Chemscore.DEClash>
0.0029

> <Gold.Chemscore.DEInternal>
1.8263

> <Gold.Chemscore.Rot>
2.3420

> <Gold.Chemscore.Internal.Correction>
   9.000000E+99

> <Gold.Chemscore.Hbonds>
donor molecule, donor type, donor heavy atom, donor atom, acceptor molecule, acceptor atom, score
      L1  H    17    18       P1  8028  1.00
      P1  H  7997  8009       L1    14  0.97
      P1  H  8011  8017       L1    16  0.04
      P1  H 10752 10764       L1    13  0.87

> <Gold.Chemscore.Hbond.Weighted>
-9.6417

> <Gold.Chemscore.Metal.Weighted>
-0.0000

> <Gold.Chemscore.Lipo.Weighted>
-9.5108

> <Gold.Chemscore.Internal_Hbond.Weighted>
0.0000

> <Gold.Chemscore.DEClash.Weighted>
0.0029

> <Gold.Chemscore.DEInternal.Weighted>
1.8263

> <Gold.Chemscore.Rot.Weighted>
5.9955

> <Gold.Chemscore.Internal.Correction.Weighted>
   9.000000E+99

> <Gold.Protein.RotatedTorsions>
[ 6907 6896 6895 6894 ] final    1.35 input  -60.11 | X-H torsion
[ 7974 7965 7964 7962 ] final  179.75 input  175.53 | X-H torsion
[ 8008 7997 7996 7995 ] final -135.78 input   59.86 | X-H torsion
[ 10167 10162 10161 10158 ] final   42.66 input  -65.29 | X-H torsion
[ 10718 10713 10712 10709 ] final  -76.34 input   66.30 | X-H torsion
[ 10763 10752 10751 10750 ] final  -84.12 input  -60.55 | X-H torsion
[ 11005 11000 10999 10996 ] final -111.24 input  -57.11 | X-H torsion

> <Gold.Protein.ActiveResidues>
 VAL166  LYS551  ARG553  GLY616  TRP617  ASP618  TYR619  PRO620  LYS621  CYS622 
 ASP623  PHE694  ASN695  SER759  ASP760  ASP761  ALA762  ILE779  LEU786  VAL792 
 PHE793  MET794  SER795  GLU796  ALA797  LYS798  CYS799  TRP800  GLU811  SER814 

> <Gold.Protein.RotatedAtoms>
  151.5913  135.1053  160.0039 H   0  0  0  0  0  0  0  0  0  0  0  0  # atno 6907 bound_to 6896
  152.4305  133.7265  159.6574 H   0  0  0  0  0  0  0  0  0  0  0  0  # atno 6908 bound_to 6896
  150.8197  133.8203  159.3167 H   0  0  0  0  0  0  0  0  0  0  0  0  # atno 6909 bound_to 6896
  144.7143  140.0595  143.6433 H   0  0  0  0  0  0  0  0  0  0  0  0  # atno 7974 bound_to 7965
  155.3844  140.0496  157.3042 H   0  0  0  0  0  0  0  0  0  0  0  0  # atno 8008 bound_to 7997
  154.5067  140.2176  155.9199 H   0  0  0  0  0  0  0  0  0  0  0  0  # atno 8009 bound_to 7997
  156.1533  140.3131  155.8690 H   0  0  0  0  0  0  0  0  0  0  0  0  # atno 8010 bound_to 7997
  140.3522  144.2336  150.6145 H   0  0  0  0  0  0  0  0  0  0  0  0  # atno 10167 bound_to 10162
  156.0178  130.4463  150.3179 H   0  0  0  0  0  0  0  0  0  0  0  0  # atno 10718 bound_to 10713
  154.5958  135.5532  153.7324 H   0  0  0  0  0  0  0  0  0  0  0  0  # atno 10763 bound_to 10752
  153.0134  135.6354  154.1785 H   0  0  0  0  0  0  0  0  0  0  0  0  # atno 10764 bound_to 10752
  154.1725  135.2891  155.3056 H   0  0  0  0  0  0  0  0  0  0  0  0  # atno 10765 bound_to 10752
  141.0746  133.9323  157.2417 H   0  0  0  0  0  0  0  0  0  0  0  0  # atno 11005 bound_to 11000
  145.9876  139.2989  143.1004 LP  0  0  0  0  0  0  0  0  0  0  0  0  # atno 17320 bound_to 7965
  145.8940  140.9286  143.0537 LP  0  0  0  0  0  0  0  0  0  0  0  0  # atno 17321 bound_to 7965
  140.5208  143.2266  151.8392 LP  0  0  0  0  0  0  0  0  0  0  0  0  # atno 17342 bound_to 10162
  139.4825  144.4839  151.9272 LP  0  0  0  0  0  0  0  0  0  0  0  0  # atno 17343 bound_to 10162
  157.1280  131.0264  151.2981 LP  0  0  0  0  0  0  0  0  0  0  0  0  # atno 17370 bound_to 10713
  157.4574  130.7633  149.7205 LP  0  0  0  0  0  0  0  0  0  0  0  0  # atno 17371 bound_to 10713
  139.9558  135.0166  156.9124 LP  0  0  0  0  0  0  0  0  0  0  0  0  # atno 17394 bound_to 11000
  140.5602  134.0543  155.7396 LP  0  0  0  0  0  0  0  0  0  0  0  0  # atno 17395 bound_to 11000

$$$$
