AV-unprocessed.smi:1|AV-procd|sdf|7|dock5
  -GOLD-   2262015 93D 1   1.00000     0.00000
 Structure written by MMmdl.
 57 62  0  0  0  0  0  0  0  0  1 V2000
  153.6669  140.0905  158.8482 O   0  0  0  0  0  0  0  0  0  0  0  0
  152.8192  140.8838  158.4371 C   0  0  0  0  0  0  0  0  0  0  0  0
  152.0871  140.6616  157.2029 N   0  0  0  0  0  0  0  0  0  0  0  0
  152.1295  139.5800  156.3906 C   0  0  0  0  0  0  0  0  0  0  0  0
  152.7824  139.5890  155.1981 N   0  0  0  0  0  0  0  0  0  0  0  0
  152.7995  138.4944  154.4319 C   0  0  0  0  0  0  0  0  0  0  0  0
  152.2380  137.3067  154.6647 N   0  0  0  0  0  0  0  0  0  0  0  0
  151.5882  137.2867  155.8637 C   0  0  0  0  0  0  0  0  0  0  0  0
  151.4912  138.3729  156.7769 C   0  0  0  0  0  0  0  0  0  0  0  0
  150.7565  137.9861  157.8909 N   0  0  0  0  0  0  0  0  0  0  0  0
  150.4405  136.7426  157.6454 C   0  0  0  0  0  0  0  0  0  0  0  0
  150.8974  136.2444  156.4456 N   0  0  0  0  0  0  0  0  0  0  0  0
  150.6994  134.8755  155.8901 C   0  0  2  0  0  0  0  0  0  0  0  0
  150.0472  134.9711  154.6647 O   0  0  0  0  0  0  0  0  0  0  0  0
  149.1348  133.8847  154.4911 C   0  0  2  0  0  0  0  0  0  0  0  0
  147.7362  134.4710  154.2583 C   0  0  0  0  0  0  0  0  0  0  0  0
  146.9799  133.5678  153.4664 O   0  0  0  0  0  0  0  0  0  0  0  0
  145.6807  133.8124  153.1985 C   0  0  0  0  0  0  0  0  0  0  0  0
  144.9289  134.4308  153.9550 O   0  0  0  0  0  0  0  0  0  0  0  0
  145.2460  133.2537  151.8860 C   0  0  0  0  0  0  0  0  0  0  0  0
  143.8645  133.1423  151.6037 C   0  0  0  0  0  0  0  0  0  0  0  0
  143.4238  132.6190  150.3725 C   0  0  0  0  0  0  0  0  0  0  0  0
  144.3594  132.2016  149.4080 C   0  0  0  0  0  0  0  0  0  0  0  0
  145.7365  132.3080  149.6763 C   0  0  0  0  0  0  0  0  0  0  0  0
  146.1791  132.8308  150.9071 C   0  0  0  0  0  0  0  0  0  0  0  0
  149.2053  133.0638  155.7853 C   0  0  1  0  0  0  0  0  0  0  0  0
  150.0914  131.9681  155.6304 O   0  0  0  0  0  0  0  0  0  0  0  0
  151.0047  131.8307  157.0234 S   0  0  0  0  0  0  0  0  0  0  0  0
  150.4377  130.7492  157.8430 O   0  0  0  0  0  0  0  0  0  0  0  0
  152.4261  131.8813  156.6487 O   0  0  0  0  0  0  0  0  0  0  0  0
  150.5945  133.2897  157.7280 O   0  0  0  0  0  0  0  0  0  0  0  0
  149.8169  134.0282  156.8026 C   0  0  1  0  0  0  0  0  0  0  0  0
  152.5505  142.1844  159.1361 C   0  0  0  0  0  0  0  0  0  0  0  0
  152.7662  142.2967  160.5282 C   0  0  0  0  0  0  0  0  0  0  0  0
  152.5010  143.5086  161.1952 C   0  0  0  0  0  0  0  0  0  0  0  0
  152.0097  144.6154  160.4777 C   0  0  0  0  0  0  0  0  0  0  0  0
  151.7814  144.5089  159.0928 C   0  0  0  0  0  0  0  0  0  0  0  0
  152.0470  143.2979  158.4244 C   0  0  0  0  0  0  0  0  0  0  0  0
  151.4667  141.4056  156.9181 H   0  0  0  0  0  0  0  0  0  0  0  0
  153.3393  138.5823  153.5003 H   0  0  0  0  0  0  0  0  0  0  0  0
  149.8580  136.1508  158.3367 H   0  0  0  0  0  0  0  0  0  0  0  0
  151.7009  134.4685  155.7440 H   0  0  0  0  0  0  0  0  0  0  0  0
  149.4309  133.2789  153.6338 H   0  0  0  0  0  0  0  0  0  0  0  0
  147.2222  134.6147  155.2090 H   0  0  0  0  0  0  0  0  0  0  0  0
  147.8225  135.4509  153.7884 H   0  0  0  0  0  0  0  0  0  0  0  0
  143.1275  133.4560  152.3289 H   0  0  0  0  0  0  0  0  0  0  0  0
  142.3663  132.5373  150.1688 H   0  0  0  0  0  0  0  0  0  0  0  0
  144.0212  131.8008  148.4639 H   0  0  0  0  0  0  0  0  0  0  0  0
  146.4559  131.9878  148.9371 H   0  0  0  0  0  0  0  0  0  0  0  0
  147.2431  132.8996  151.0799 H   0  0  0  0  0  0  0  0  0  0  0  0
  148.2344  132.6840  156.1059 H   0  0  0  0  0  0  0  0  0  0  0  0
  149.0524  134.6387  157.2846 H   0  0  0  0  0  0  0  0  0  0  0  0
  153.1418  141.4556  161.0933 H   0  0  0  0  0  0  0  0  0  0  0  0
  152.6730  143.5877  162.2585 H   0  0  0  0  0  0  0  0  0  0  0  0
  151.8048  145.5440  160.9898 H   0  0  0  0  0  0  0  0  0  0  0  0
  151.3987  145.3559  158.5427 H   0  0  0  0  0  0  0  0  0  0  0  0
  151.8551  143.2347  157.3630 H   0  0  0  0  0  0  0  0  0  0  0  0
  1  2  2  0  0  0  0
  2  3  1  0  0  0  0
  2 33  1  0  0  0  0
  3  4  1  0  0  0  0
  3 39  1  0  0  0  0
  4  9  1  0  0  0  0
  4  5  2  0  0  0  0
  5  6  1  0  0  0  0
  6  7  2  0  0  0  0
  6 40  1  0  0  0  0
  7  8  1  0  0  0  0
  8 12  1  0  0  0  0
  8  9  2  0  0  0  0
  9 10  1  0  0  0  0
 10 11  2  0  0  0  0
 11 12  1  0  0  0  0
 11 41  1  0  0  0  0
 12 13  1  0  0  0  0
 13 32  1  0  0  0  0
 13 14  1  0  0  0  0
 13 42  1  0  0  0  0
 14 15  1  0  0  0  0
 15 16  1  0  0  0  0
 15 26  1  0  0  0  0
 15 43  1  0  0  0  0
 16 17  1  0  0  0  0
 16 44  1  0  0  0  0
 16 45  1  0  0  0  0
 17 18  1  0  0  0  0
 18 19  2  0  0  0  0
 18 20  1  0  0  0  0
 20 25  1  0  0  0  0
 20 21  2  0  0  0  0
 21 22  1  0  0  0  0
 21 46  1  0  0  0  0
 22 23  2  0  0  0  0
 22 47  1  0  0  0  0
 23 24  1  0  0  0  0
 23 48  1  0  0  0  0
 24 25  2  0  0  0  0
 24 49  1  0  0  0  0
 25 50  1  0  0  0  0
 26 32  1  0  0  0  0
 26 27  1  0  0  0  0
 26 51  1  0  0  0  0
 27 28  1  0  0  0  0
 28 29  2  0  0  0  0
 28 30  2  0  0  0  0
 28 31  1  0  0  0  0
 31 32  1  0  0  0  0
 32 52  1  0  0  0  0
 33 38  1  0  0  0  0
 33 34  2  0  0  0  0
 34 35  1  0  0  0  0
 34 53  1  0  0  0  0
 35 36  2  0  0  0  0
 35 54  1  0  0  0  0
 36 37  1  0  0  0  0
 36 55  1  0  0  0  0
 37 38  2  0  0  0  0
 37 56  1  0  0  0  0
 38 57  1  0  0  0  0
M  END
> <s_m_source_file>
AV-unprocessed.smi

> <i_m_source_file_index>
1

> <i_lp_mmshare_version>
43012

> <i_f3d_flags>
0

> <s_epik_input>
W2NIXTFbY0hdW2NIXVtjSF1bY0hdYzFDKD1PKVtOSF1jKG5bY0hdbjIpYyhjMjMpbltjSF1uM1tDQEBIXShbQ0BIXShbQ0BIXTQ1KU9TKE81KSg9Tyk9TylPW0NASF00W0NIMl1PQyg9TyljNltjSF1bY0hdW2NIXVtjSF1bY0hdNg==

> <s_epik_cmdline>
J2VwaWtfcHl0aG9uJywgJy1waCcsICc3LjAnLCAnLXRuJywgJzgnLCAnLW1hJywgJzIwMCcsICctbWV0YWxfYmluZGluZycsICctaW1hZScsICc8aW5maWxlLm1hZT4nLCAnLW9tYWUnLCAnPG91dGZpbGUubWFlPic=

> <r_lp_tautomer_probability>
1

> <r_epik_Ionization_Penalty>
0.00195722

> <r_epik_Ionization_Penalty_Charging>
0

> <r_epik_Ionization_Penalty_Neutral>
0.00195722

> <r_epik_State_Penalty>
0.00633741

> <r_epik_Charging_Adjusted_Penalty>
0.00633741

> <i_epik_Tot_Q>
0

> <i_epik_Tot_abs_Q>
0

> <r_epik_Metal_State_Penalty>
0.341185

> <b_epik_Metal_Only>
0

> <s_epik_Chemistry_Notes>
This compound has an ester and may undergo hydrolysis at high or low pH. This compound contains an acetal/aminal-like group ( X-CH(R)-Y where X, Y are N, S, or O) that may be acid/base labile, releasing an aldehyde.

> <s_lp_Force_Field>
OPLS_2005

> <r_lp_Energy>
42.4074

> <b_lp_Chiralities_Consistent>
1

> <s_lp_Variant>
AV-unprocessed.smi:1-7

> <Gold.Version>
5.8.1

> <Gold.Id.Protein>
6NUR|6NUR_protein|mol2

> <Gold.PLP.Fitness>
66.9623

> <Gold.PLP.PLP>
-62.8519

> <Gold.PLP.part.hbond>
-4.7295

> <Gold.PLP.part.metal>
0.0000

> <Gold.PLP.part.buried>
-6.5560

> <Gold.PLP.part.nonpolar>
-51.1328

> <Gold.PLP.part.repulsive>
0.5850

> <Gold.PLP.ligand.clash>
0.0000

> <Gold.PLP.ligand.torsion>
1.8590

> <Gold.PLP.Chemscore.Hbond>
2.5559

> <Gold.PLP.Chemscore.CHOScore>
0.0000

> <Gold.PLP.Chemscore.Metal>
0.0000

> <Gold.Chemscore.Hbonds>
donor molecule, donor type, donor heavy atom, donor atom, acceptor molecule, acceptor atom, score
      P1  H  7989  7998       L1     5  0.03
      P1  H  7997  8008       L1     5  0.90
      P1  H  7997  8010       L1     1  0.80
      P1  H 10752 10765       L1     7  0.77

> <Gold.PLP.Chemscore.Internal.Correction>
0.1606

> <Gold.Rescore>
     Score         DG    S(hbond)    S(metal)    S(lipo)     H(rot)  DE(clash)    DE(int)     intcor
     17.85     -21.89       1.44        0.00     145.73       2.13       2.38       1.67       ----

> <Gold.Chemscore.Fitness>
17.8464

> <Gold.Chemscore.DG>
-21.8928

> <Gold.Chemscore.ZeroCoef>
-5.4800

> <Gold.Chemscore.Hbond>
1.4443

> <Gold.Chemscore.Metal>
0.0000

> <Gold.Chemscore.Lipo>
145.7287

> <Gold.Chemscore.Internal_Hbond>
0.0000

> <Gold.Chemscore.DEClash>
2.3804

> <Gold.Chemscore.DEInternal>
1.6660

> <Gold.Chemscore.Rot>
2.1333

> <Gold.Chemscore.Internal.Correction>
   9.000000E+99

> <Gold.Chemscore.Hbonds>
donor molecule, donor type, donor heavy atom, donor atom, acceptor molecule, acceptor atom, score
      P1  H  7997  8008       L1     5  0.30
      P1  H  7997  8010       L1     1  0.30
      P1  H 10752 10765       L1     7  0.61

> <Gold.Chemscore.Hbond.Weighted>
-4.8239

> <Gold.Chemscore.Metal.Weighted>
-0.0000

> <Gold.Chemscore.Lipo.Weighted>
-17.0503

> <Gold.Chemscore.Internal_Hbond.Weighted>
0.0000

> <Gold.Chemscore.DEClash.Weighted>
2.3804

> <Gold.Chemscore.DEInternal.Weighted>
1.6660

> <Gold.Chemscore.Rot.Weighted>
5.4614

> <Gold.Chemscore.Internal.Correction.Weighted>
   9.000000E+99

> <Gold.Protein.RotatedTorsions>
[ 6907 6896 6895 6894 ] final   99.56 input  -60.11 | X-H torsion
[ 7974 7965 7964 7962 ] final  165.39 input  175.53 | X-H torsion
[ 8008 7997 7996 7995 ] final    3.83 input   59.86 | X-H torsion
[ 10167 10162 10161 10158 ] final   88.18 input  -65.29 | X-H torsion
[ 10718 10713 10712 10709 ] final -151.49 input   66.30 | X-H torsion
[ 10763 10752 10751 10750 ] final  161.35 input  -60.55 | X-H torsion
[ 11005 11000 10999 10996 ] final  156.43 input  -57.11 | X-H torsion

> <Gold.Protein.ActiveResidues>
 VAL166  LYS551  ARG553  GLY616  TRP617  ASP618  TYR619  PRO620  LYS621  CYS622 
 ASP623  PHE694  ASN695  SER759  ASP760  ASP761  ALA762  ILE779  LEU786  VAL792 
 PHE793  MET794  SER795  GLU796  ALA797  LYS798  CYS799  TRP800  GLU811  SER814 

> <Gold.Protein.RotatedAtoms>
  152.5389  134.0410  159.8067 H   0  0  0  0  0  0  0  0  0  0  0  0  # atno 6907 bound_to 6896
  151.0566  133.5571  159.2645 H   0  0  0  0  0  0  0  0  0  0  0  0  # atno 6908 bound_to 6896
  151.2486  135.0622  159.9106 H   0  0  0  0  0  0  0  0  0  0  0  0  # atno 6909 bound_to 6896
  144.7505  139.8463  143.6368 H   0  0  0  0  0  0  0  0  0  0  0  0  # atno 7974 bound_to 7965
  154.7085  140.2687  155.6652 H   0  0  0  0  0  0  0  0  0  0  0  0  # atno 8008 bound_to 7997
  156.2788  140.2758  156.1642 H   0  0  0  0  0  0  0  0  0  0  0  0  # atno 8009 bound_to 7997
  155.0668  140.0372  157.2585 H   0  0  0  0  0  0  0  0  0  0  0  0  # atno 8010 bound_to 7997
  139.8698  144.6499  150.8962 H   0  0  0  0  0  0  0  0  0  0  0  0  # atno 10167 bound_to 10162
  156.4600  130.8209  151.2439 H   0  0  0  0  0  0  0  0  0  0  0  0  # atno 10718 bound_to 10713
  154.2616  135.2768  155.2775 H   0  0  0  0  0  0  0  0  0  0  0  0  # atno 10763 bound_to 10752
  154.5379  135.5711  153.6817 H   0  0  0  0  0  0  0  0  0  0  0  0  # atno 10764 bound_to 10752
  152.9961  135.6244  154.2767 H   0  0  0  0  0  0  0  0  0  0  0  0  # atno 10765 bound_to 10752
  140.1674  134.8567  157.2649 H   0  0  0  0  0  0  0  0  0  0  0  0  # atno 11005 bound_to 11000
  146.1447  139.4513  143.0086 LP  0  0  0  0  0  0  0  0  0  0  0  0  # atno 17320 bound_to 7965
  145.6963  141.0149  143.1528 LP  0  0  0  0  0  0  0  0  0  0  0  0  # atno 17321 bound_to 7965
  140.7762  143.3673  151.1715 LP  0  0  0  0  0  0  0  0  0  0  0  0  # atno 17342 bound_to 10162
  139.7294  143.9096  152.3014 LP  0  0  0  0  0  0  0  0  0  0  0  0  # atno 17343 bound_to 10162
  157.7498  131.0110  150.3329 LP  0  0  0  0  0  0  0  0  0  0  0  0  # atno 17370 bound_to 10713
  156.3726  130.3866  149.7163 LP  0  0  0  0  0  0  0  0  0  0  0  0  # atno 17371 bound_to 10713
  140.2417  134.3787  155.7478 LP  0  0  0  0  0  0  0  0  0  0  0  0  # atno 17394 bound_to 11000
  141.2215  133.7269  156.8799 LP  0  0  0  0  0  0  0  0  0  0  0  0  # atno 17395 bound_to 11000

$$$$
