AV-unprocessed.smi:1286|AV-procd|sdf|5377|dock2
  -GOLD-   22720 4523D 1   1.00000     0.00000
 Structure written by MMmdl.
 36 37  0  0  0  0  0  0  0  0  1 V2000
  150.7940  137.7246  156.2658 C   0  0  0  0  0  0  0  0  0  0  0  0
  149.9452  139.0033  156.1920 C   0  0  2  0  0  0  0  0  0  0  0  0
  150.1522  139.7413  154.8551 C   0  0  0  0  0  0  0  0  0  0  0  0
  148.9178  140.3020  154.3347 N   0  0  0  0  0  0  0  0  0  0  0  0
  148.4996  141.6162  154.3494 C   0  0  0  0  0  0  0  0  0  0  0  0
  147.2722  141.6584  153.7528 C   0  0  0  0  0  0  0  0  0  0  0  0
  147.0213  140.3029  153.3998 C   0  0  0  0  0  0  0  0  0  0  0  0
  148.0085  139.4936  153.7484 N   0  0  0  0  0  0  0  0  0  0  0  0
  150.2791  139.8866  157.3074 N   0  0  0  0  0  0  0  0  0  0  0  0
  151.5091  140.3286  157.6111 C   0  0  0  0  0  0  0  0  0  0  0  0
  152.5134  140.0376  156.9613 O   0  0  0  0  0  0  0  0  0  0  0  0
  151.6206  141.2380  158.8398 C   0  0  0  0  0  0  0  0  0  0  0  0
  152.2981  142.5952  158.5491 C   0  0  1  0  0  0  0  0  0  0  0  0
  151.4638  143.5165  157.6916 C   0  0  0  0  0  0  0  0  0  0  0  0
  151.2709  144.7081  158.2522 C   0  0  0  0  0  0  0  0  0  0  0  0
  151.9331  144.8260  159.5966 C   0  0  0  0  0  0  0  0  0  0  0  0
  152.5570  143.4314  159.8289 C   0  0  0  0  0  0  0  0  0  0  0  0
  150.5483  137.0444  155.4500 H   0  0  0  0  0  0  0  0  0  0  0  0
  150.6222  137.1892  157.2002 H   0  0  0  0  0  0  0  0  0  0  0  0
  151.8590  137.9503  156.2019 H   0  0  0  0  0  0  0  0  0  0  0  0
  148.8943  138.7154  156.2611 H   0  0  0  0  0  0  0  0  0  0  0  0
  150.8816  140.5448  154.9678 H   0  0  0  0  0  0  0  0  0  0  0  0
  150.5564  139.0584  154.1063 H   0  0  0  0  0  0  0  0  0  0  0  0
  149.1019  142.4018  154.7814 H   0  0  0  0  0  0  0  0  0  0  0  0
  146.6484  142.5252  153.5930 H   0  0  0  0  0  0  0  0  0  0  0  0
  146.1571  139.8858  152.9038 H   0  0  0  0  0  0  0  0  0  0  0  0
  149.5148  140.1797  157.8984 H   0  0  0  0  0  0  0  0  0  0  0  0
  150.6270  141.4068  159.2593 H   0  0  0  0  0  0  0  0  0  0  0  0
  152.1879  140.7024  159.6018 H   0  0  0  0  0  0  0  0  0  0  0  0
  153.2442  142.4309  158.0305 H   0  0  0  0  0  0  0  0  0  0  0  0
  151.0884  143.2217  156.7223 H   0  0  0  0  0  0  0  0  0  0  0  0
  150.7144  145.5216  157.8104 H   0  0  0  0  0  0  0  0  0  0  0  0
  152.6914  145.6091  159.5722 H   0  0  0  0  0  0  0  0  0  0  0  0
  151.1987  145.0744  160.3634 H   0  0  0  0  0  0  0  0  0  0  0  0
  152.1023  142.9639  160.7033 H   0  0  0  0  0  0  0  0  0  0  0  0
  153.6257  143.5106  160.0326 H   0  0  0  0  0  0  0  0  0  0  0  0
  1  2  1  0  0  0  0
  1 18  1  0  0  0  0
  1 19  1  0  0  0  0
  1 20  1  0  0  0  0
  2  3  1  0  0  0  0
  2  9  1  0  0  0  0
  2 21  1  0  0  0  0
  3  4  1  0  0  0  0
  3 22  1  0  0  0  0
  3 23  1  0  0  0  0
  4  8  1  0  0  0  0
  4  5  1  0  0  0  0
  5  6  2  0  0  0  0
  5 24  1  0  0  0  0
  6  7  1  0  0  0  0
  6 25  1  0  0  0  0
  7  8  2  0  0  0  0
  7 26  1  0  0  0  0
  9 10  1  0  0  0  0
  9 27  1  0  0  0  0
 10 11  2  0  0  0  0
 10 12  1  0  0  0  0
 12 13  1  0  0  0  0
 12 28  1  0  0  0  0
 12 29  1  0  0  0  0
 13 17  1  0  0  0  0
 13 14  1  0  0  0  0
 13 30  1  0  0  0  0
 14 15  2  0  0  0  0
 14 31  1  0  0  0  0
 15 16  1  0  0  0  0
 15 32  1  0  0  0  0
 16 17  1  0  0  0  0
 16 33  1  0  0  0  0
 16 34  1  0  0  0  0
 17 35  1  0  0  0  0
 17 36  1  0  0  0  0
M  END
> <s_m_source_file>
AV-unprocessed.smi

> <i_m_source_file_index>
1286

> <i_lp_mmshare_version>
43012

> <i_f3d_flags>
0

> <s_epik_input>
bjFbY0hdW2NIXVtjSF1uMVtDSDJdW0NAQEhdKFtDSDNdKVtOSF1DKD1PKVtDSDJdW0NAQEhdMltDSF09W0NIXVtDSDJdW0NIMl0y

> <s_epik_cmdline>
J2VwaWtfcHl0aG9uJywgJy1waCcsICc3LjAnLCAnLXRuJywgJzgnLCAnLW1hJywgJzIwMCcsICctbWV0YWxfYmluZGluZycsICctaW1hZScsICc8aW5maWxlLm1hZT4nLCAnLW9tYWUnLCAnPG91dGZpbGUubWFlPic=

> <r_lp_tautomer_probability>
1

> <r_epik_Ionization_Penalty>
0.000301761

> <r_epik_Ionization_Penalty_Charging>
0

> <r_epik_Ionization_Penalty_Neutral>
0.000301761

> <r_epik_State_Penalty>
-0

> <r_epik_Charging_Adjusted_Penalty>
0

> <i_epik_Tot_Q>
0

> <i_epik_Tot_abs_Q>
0

> <r_epik_Metal_State_Penalty>
-0

> <b_epik_Metal_Only>
0

> <s_lp_Force_Field>
OPLS_2005

> <r_lp_Energy>
17.4811

> <b_lp_Chiralities_Consistent>
1

> <s_lp_Variant>
AV-unprocessed.smi:1286-3

> <Gold.Version>
5.8.1

> <Gold.Id.Protein>
6NUR|6NUR_protein|mol2

> <Gold.PLP.Fitness>
44.6643

> <Gold.PLP.PLP>
-37.4520

> <Gold.PLP.part.hbond>
-1.0000

> <Gold.PLP.part.metal>
0.0000

> <Gold.PLP.part.buried>
-4.4903

> <Gold.PLP.part.nonpolar>
-31.8867

> <Gold.PLP.part.repulsive>
0.2141

> <Gold.PLP.ligand.clash>
0.0000

> <Gold.PLP.ligand.torsion>
0.8484

> <Gold.PLP.Chemscore.Hbond>
1.0000

> <Gold.PLP.Chemscore.CHOScore>
1.9629

> <Gold.PLP.Chemscore.Metal>
0.0000

> <Gold.Chemscore.Hbonds>
donor molecule, donor type, donor heavy atom, donor atom, acceptor molecule, acceptor atom, score
      P1  H  7997  8008       L1    11  1.00
      L1  C     5    24       P1  8028  1.00
      L1  C     7    26       P1 10175  0.88

> <Gold.PLP.Chemscore.Internal.Correction>
0.0204

> <Gold.Rescore>
     Score         DG    S(hbond)    S(metal)    S(lipo)     H(rot)  DE(clash)    DE(int)     intcor
     14.80     -16.87       0.98        0.00     105.17       1.64       0.09       1.98       ----

> <Gold.Chemscore.Fitness>
14.7961

> <Gold.Chemscore.DG>
-16.8667

> <Gold.Chemscore.ZeroCoef>
-5.4800

> <Gold.Chemscore.Hbond>
0.9817

> <Gold.Chemscore.Metal>
0.0000

> <Gold.Chemscore.Lipo>
105.1699

> <Gold.Chemscore.Internal_Hbond>
0.0000

> <Gold.Chemscore.DEClash>
0.0908

> <Gold.Chemscore.DEInternal>
1.9798

> <Gold.Chemscore.Rot>
1.6394

> <Gold.Chemscore.Internal.Correction>
   9.000000E+99

> <Gold.Chemscore.Hbonds>
donor molecule, donor type, donor heavy atom, donor atom, acceptor molecule, acceptor atom, score
      P1  H  7997  8008       L1    11  0.98

> <Gold.Chemscore.Hbond.Weighted>
-3.2788

> <Gold.Chemscore.Metal.Weighted>
-0.0000

> <Gold.Chemscore.Lipo.Weighted>
-12.3049

> <Gold.Chemscore.Internal_Hbond.Weighted>
0.0000

> <Gold.Chemscore.DEClash.Weighted>
0.0908

> <Gold.Chemscore.DEInternal.Weighted>
1.9798

> <Gold.Chemscore.Rot.Weighted>
4.1969

> <Gold.Chemscore.Internal.Correction.Weighted>
   9.000000E+99

> <Gold.Protein.RotatedTorsions>
[ 6907 6896 6895 6894 ] final   92.21 input  -60.11 | X-H torsion
[ 7974 7965 7964 7962 ] final  115.39 input  175.53 | X-H torsion
[ 8008 7997 7996 7995 ] final  -64.08 input   59.86 | X-H torsion
[ 10167 10162 10161 10158 ] final   22.51 input  -65.29 | X-H torsion
[ 10718 10713 10712 10709 ] final   32.87 input   66.30 | X-H torsion
[ 10763 10752 10751 10750 ] final   73.95 input  -60.55 | X-H torsion
[ 11005 11000 10999 10996 ] final  -38.81 input  -57.11 | X-H torsion

> <Gold.Protein.ActiveResidues>
 VAL166  LYS551  ARG553  GLY616  TRP617  ASP618  TYR619  PRO620  LYS621  CYS622 
 ASP623  PHE694  ASN695  SER759  ASP760  ASP761  ALA762  ILE779  LEU786  VAL792 
 PHE793  MET794  SER795  GLU796  ALA797  LYS798  CYS799  TRP800  GLU811  SER814 

> <Gold.Protein.RotatedAtoms>
  152.5452  134.1537  159.8528 H   0  0  0  0  0  0  0  0  0  0  0  0  # atno 6907 bound_to 6896
  151.1561  133.4868  159.2602 H   0  0  0  0  0  0  0  0  0  0  0  0  # atno 6908 bound_to 6896
  151.1421  135.0196  159.8685 H   0  0  0  0  0  0  0  0  0  0  0  0  # atno 6909 bound_to 6896
  145.1925  139.2993  143.4360 H   0  0  0  0  0  0  0  0  0  0  0  0  # atno 7974 bound_to 7965
  154.4591  140.0961  156.6842 H   0  0  0  0  0  0  0  0  0  0  0  0  # atno 8008 bound_to 7997
  155.5048  140.3474  155.4359 H   0  0  0  0  0  0  0  0  0  0  0  0  # atno 8009 bound_to 7997
  156.0836  140.1379  156.9671 H   0  0  0  0  0  0  0  0  0  0  0  0  # atno 8010 bound_to 7997
  140.5343  143.9788  150.6483 H   0  0  0  0  0  0  0  0  0  0  0  0  # atno 10167 bound_to 10162
  157.2907  130.7301  149.6609 H   0  0  0  0  0  0  0  0  0  0  0  0  # atno 10718 bound_to 10713
  153.0555  135.5044  154.7970 H   0  0  0  0  0  0  0  0  0  0  0  0  # atno 10763 bound_to 10752
  154.6799  135.2966  154.9629 H   0  0  0  0  0  0  0  0  0  0  0  0  # atno 10764 bound_to 10752
  154.0419  135.6716  153.4843 H   0  0  0  0  0  0  0  0  0  0  0  0  # atno 10765 bound_to 10752
  141.0055  133.6934  156.2102 H   0  0  0  0  0  0  0  0  0  0  0  0  # atno 11005 bound_to 11000
  146.3433  140.2143  142.8590 LP  0  0  0  0  0  0  0  0  0  0  0  0  # atno 17320 bound_to 7965
  145.0027  140.8646  143.5272 LP  0  0  0  0  0  0  0  0  0  0  0  0  # atno 17321 bound_to 7965
  140.3171  143.3161  152.0821 LP  0  0  0  0  0  0  0  0  0  0  0  0  # atno 17342 bound_to 10162
  139.4965  144.6598  151.6490 LP  0  0  0  0  0  0  0  0  0  0  0  0  # atno 17343 bound_to 10162
  155.9667  130.4310  150.4900 LP  0  0  0  0  0  0  0  0  0  0  0  0  # atno 17370 bound_to 10713
  157.2862  131.0617  151.2165 LP  0  0  0  0  0  0  0  0  0  0  0  0  # atno 17371 bound_to 10713
  140.6820  134.4757  157.5589 LP  0  0  0  0  0  0  0  0  0  0  0  0  # atno 17394 bound_to 11000
  139.9061  134.8446  156.1701 LP  0  0  0  0  0  0  0  0  0  0  0  0  # atno 17395 bound_to 11000

$$$$
