AV-unprocessed.smi:601|AV-procd|sdf|3031|dock5
  -GOLD-   2262023543D 1   1.00000     0.00000
 Structure written by MMmdl.
 50 51  0  0  0  0  0  0  0  0  1 V2000
  146.8692  136.0506  161.6399 C   0  0  0  0  0  0  0  0  0  0  0  0
  146.7129  135.7279  160.1481 C   0  0  0  0  0  0  0  0  0  0  0  0
  148.0469  135.6465  159.3891 C   0  0  0  0  0  0  0  0  0  0  0  0
  147.8990  135.8169  157.8634 C   0  0  0  0  0  0  0  0  0  0  0  0
  149.1530  135.5624  157.1370 N   0  0  0  0  0  0  0  0  0  0  0  0
  150.2553  136.3292  157.3516 C   0  0  0  0  0  0  0  0  0  0  0  0
  151.3160  136.1189  156.7602 O   0  0  0  0  0  0  0  0  0  0  0  0
  150.1833  137.4952  158.3722 C   0  0  2  0  0  0  0  0  0  0  0  0
  150.6932  138.8452  157.8519 C   0  0  0  0  0  0  0  0  0  0  0  0
  152.2003  138.7846  158.0627 C   0  0  0  0  0  0  0  0  0  0  0  0
  152.3923  137.6468  159.0704 C   0  0  0  0  0  0  0  0  0  0  0  0
  151.0765  137.2602  159.4554 O   0  0  0  0  0  0  0  0  0  0  0  0
  149.1846  134.4251  156.3103 C   0  0  0  0  0  0  0  0  0  0  0  0
  148.7895  134.4684  155.0030 C   0  0  0  0  0  0  0  0  0  0  0  0
  148.3722  135.6625  154.4351 N   0  0  0  0  0  0  0  0  0  0  0  0
  148.8201  133.3315  154.1900 N   0  0  0  0  0  0  0  0  0  0  0  0
  148.4380  133.3356  152.7920 C   0  0  0  0  0  0  0  0  0  0  0  0
  147.1593  132.5224  152.5289 C   0  0  0  0  0  0  0  0  0  0  0  0
  145.9253  133.4140  152.3604 C   0  0  0  0  0  0  0  0  0  0  0  0
  149.2959  132.1019  154.7058 C   0  0  0  0  0  0  0  0  0  0  0  0
  149.3926  131.0739  154.0346 O   0  0  0  0  0  0  0  0  0  0  0  0
  149.6705  132.0782  156.0447 N   0  0  0  0  0  0  0  0  0  0  0  0
  149.6416  133.1662  156.9130 C   0  0  0  0  0  0  0  0  0  0  0  0
  149.9932  133.0176  158.0826 O   0  0  0  0  0  0  0  0  0  0  0  0
  149.9977  131.1986  156.4168 H   0  0  0  0  0  0  0  0  0  0  0  0
  145.9026  136.0208  162.1432 H   0  0  0  0  0  0  0  0  0  0  0  0
  147.2877  137.0451  161.7940 H   0  0  0  0  0  0  0  0  0  0  0  0
  147.5222  135.3299  162.1325 H   0  0  0  0  0  0  0  0  0  0  0  0
  146.2003  134.7700  160.0539 H   0  0  0  0  0  0  0  0  0  0  0  0
  146.0621  136.4650  159.6767 H   0  0  0  0  0  0  0  0  0  0  0  0
  148.7288  136.3969  159.7869 H   0  0  0  0  0  0  0  0  0  0  0  0
  148.5029  134.6801  159.6051 H   0  0  0  0  0  0  0  0  0  0  0  0
  147.1167  135.1560  157.4863 H   0  0  0  0  0  0  0  0  0  0  0  0
  147.5539  136.8277  157.6423 H   0  0  0  0  0  0  0  0  0  0  0  0
  149.1609  137.5969  158.7360 H   0  0  0  0  0  0  0  0  0  0  0  0
  150.4182  139.0547  156.8174 H   0  0  0  0  0  0  0  0  0  0  0  0
  150.2723  139.6447  158.4625 H   0  0  0  0  0  0  0  0  0  0  0  0
  152.7192  138.5578  157.1305 H   0  0  0  0  0  0  0  0  0  0  0  0
  152.5852  139.7333  158.4381 H   0  0  0  0  0  0  0  0  0  0  0  0
  152.9011  136.8010  158.6059 H   0  0  0  0  0  0  0  0  0  0  0  0
  152.9731  137.9539  159.9405 H   0  0  0  0  0  0  0  0  0  0  0  0
  148.3502  136.5204  154.9677 H   0  0  0  0  0  0  0  0  0  0  0  0
  148.2194  135.7508  153.4409 H   0  0  0  0  0  0  0  0  0  0  0  0
  148.3412  134.3730  152.4672 H   0  0  0  0  0  0  0  0  0  0  0  0
  149.2848  132.9435  152.2291 H   0  0  0  0  0  0  0  0  0  0  0  0
  147.2888  131.9149  151.6322 H   0  0  0  0  0  0  0  0  0  0  0  0
  146.9874  131.8255  153.3500 H   0  0  0  0  0  0  0  0  0  0  0  0
  145.0362  132.8136  152.1669 H   0  0  0  0  0  0  0  0  0  0  0  0
  146.0491  134.1043  151.5255 H   0  0  0  0  0  0  0  0  0  0  0  0
  145.7406  134.0033  153.2589 H   0  0  0  0  0  0  0  0  0  0  0  0
  1  2  1  0  0  0  0
  1 26  1  0  0  0  0
  1 27  1  0  0  0  0
  1 28  1  0  0  0  0
  2  3  1  0  0  0  0
  2 29  1  0  0  0  0
  2 30  1  0  0  0  0
  3  4  1  0  0  0  0
  3 31  1  0  0  0  0
  3 32  1  0  0  0  0
  4  5  1  0  0  0  0
  4 33  1  0  0  0  0
  4 34  1  0  0  0  0
  5  6  1  0  0  0  0
  5 13  1  0  0  0  0
  6  7  2  0  0  0  0
  6  8  1  0  0  0  0
  8 12  1  0  0  0  0
  8  9  1  0  0  0  0
  8 35  1  0  0  0  0
  9 10  1  0  0  0  0
  9 36  1  0  0  0  0
  9 37  1  0  0  0  0
 10 11  1  0  0  0  0
 10 38  1  0  0  0  0
 10 39  1  0  0  0  0
 11 12  1  0  0  0  0
 11 40  1  0  0  0  0
 11 41  1  0  0  0  0
 13 23  1  0  0  0  0
 13 14  2  0  0  0  0
 14 15  1  0  0  0  0
 14 16  1  0  0  0  0
 15 42  1  0  0  0  0
 15 43  1  0  0  0  0
 16 17  1  0  0  0  0
 16 20  1  0  0  0  0
 17 18  1  0  0  0  0
 17 44  1  0  0  0  0
 17 45  1  0  0  0  0
 18 19  1  0  0  0  0
 18 46  1  0  0  0  0
 18 47  1  0  0  0  0
 19 48  1  0  0  0  0
 19 49  1  0  0  0  0
 19 50  1  0  0  0  0
 20 21  2  0  0  0  0
 20 22  1  0  0  0  0
 22 25  1  0  0  0  0
 22 23  1  0  0  0  0
 23 24  2  0  0  0  0
M  END
> <s_m_source_file>
AV-unprocessed.smi

> <i_m_source_file_index>
601

> <i_lp_mmshare_version>
43012

> <i_f3d_flags>
0

> <s_epik_input>
TzFbQ0gyXVtDSDJdW0NIMl1bQ0BIXTFDKD1PKU4oW0NIMl1bQ0gyXVtDSDJdW0NIM10pYzJjKFtOSDJdKW4oW0NIMl1bQ0gyXVtDSDNdKWMoPU8pW25IXWMyPU8=

> <s_epik_cmdline>
J2VwaWtfcHl0aG9uJywgJy1waCcsICc3LjAnLCAnLXRuJywgJzgnLCAnLW1hJywgJzIwMCcsICctbWV0YWxfYmluZGluZycsICctaW1hZScsICc8aW5maWxlLm1hZT4nLCAnLW9tYWUnLCAnPG91dGZpbGUubWFlPic=

> <r_lp_tautomer_probability>
1

> <r_epik_Ionization_Penalty>
6.19718e-05

> <r_epik_Ionization_Penalty_Charging>
2.78773e-05

> <r_epik_Ionization_Penalty_Neutral>
3.40944e-05

> <r_epik_State_Penalty>
-0

> <r_epik_Charging_Adjusted_Penalty>
2.78773e-05

> <i_epik_Tot_Q>
0

> <i_epik_Tot_abs_Q>
0

> <r_epik_Metal_State_Penalty>
0.0271358

> <b_epik_Metal_Only>
0

> <s_lp_Force_Field>
OPLS_2005

> <r_lp_Energy>
42.1273

> <b_lp_Chiralities_Consistent>
1

> <s_lp_Variant>
AV-unprocessed.smi:601-1

> <Gold.Version>
5.8.1

> <Gold.Id.Protein>
6NUR|6NUR_protein|mol2

> <Gold.PLP.Fitness>
40.8572

> <Gold.PLP.PLP>
-30.8177

> <Gold.PLP.part.hbond>
-4.0000

> <Gold.PLP.part.metal>
0.0000

> <Gold.PLP.part.buried>
-3.7213

> <Gold.PLP.part.nonpolar>
-23.8371

> <Gold.PLP.part.repulsive>
0.0878

> <Gold.PLP.ligand.clash>
0.0000

> <Gold.PLP.ligand.torsion>
2.0982

> <Gold.PLP.Chemscore.Hbond>
3.9920

> <Gold.PLP.Chemscore.CHOScore>
0.0000

> <Gold.PLP.Chemscore.Metal>
0.0000

> <Gold.Chemscore.Hbonds>
donor molecule, donor type, donor heavy atom, donor atom, acceptor molecule, acceptor atom, score
      L1  H    15    43       P1  7948  0.90
      P1  H  6896  6907       L1    12  0.63
      P1  H  6896  6909       L1    24  1.00

> <Gold.PLP.Chemscore.Internal.Correction>
2.2599

> <Gold.Rescore>
     Score         DG    S(hbond)    S(metal)    S(lipo)     H(rot)  DE(clash)    DE(int)     intcor
     15.56     -18.78       3.63        0.00      52.97       1.96       0.00       3.21       ----

> <Gold.Chemscore.Fitness>
15.5631

> <Gold.Chemscore.DG>
-18.7751

> <Gold.Chemscore.ZeroCoef>
-5.4800

> <Gold.Chemscore.Hbond>
3.6276

> <Gold.Chemscore.Metal>
0.0000

> <Gold.Chemscore.Lipo>
52.9684

> <Gold.Chemscore.Internal_Hbond>
0.0000

> <Gold.Chemscore.DEClash>
0.0048

> <Gold.Chemscore.DEInternal>
3.2072

> <Gold.Chemscore.Rot>
1.9603

> <Gold.Chemscore.Internal.Correction>
   9.000000E+99

> <Gold.Chemscore.Hbonds>
donor molecule, donor type, donor heavy atom, donor atom, acceptor molecule, acceptor atom, score
      L1  H    15    43       P1  7948  0.88
      P1  H  6896  6907       L1    12  0.18
      P1  H  6896  6909       L1    24  0.98

> <Gold.Chemscore.Hbond.Weighted>
-12.1163

> <Gold.Chemscore.Metal.Weighted>
-0.0000

> <Gold.Chemscore.Lipo.Weighted>
-6.1973

> <Gold.Chemscore.Internal_Hbond.Weighted>
0.0000

> <Gold.Chemscore.DEClash.Weighted>
0.0048

> <Gold.Chemscore.DEInternal.Weighted>
3.2072

> <Gold.Chemscore.Rot.Weighted>
5.0185

> <Gold.Chemscore.Internal.Correction.Weighted>
   9.000000E+99

> <Gold.Protein.RotatedTorsions>
[ 6907 6896 6895 6894 ] final  -10.67 input  -60.11 | X-H torsion
[ 7974 7965 7964 7962 ] final -178.08 input  175.53 | X-H torsion
[ 8008 7997 7996 7995 ] final  117.93 input   59.86 | X-H torsion
[ 10167 10162 10161 10158 ] final -161.44 input  -65.29 | X-H torsion
[ 10718 10713 10712 10709 ] final  -81.69 input   66.30 | X-H torsion
[ 10763 10752 10751 10750 ] final  -29.63 input  -60.55 | X-H torsion
[ 11005 11000 10999 10996 ] final  113.97 input  -57.11 | X-H torsion

> <Gold.Protein.ActiveResidues>
 VAL166  LYS551  ARG553  GLY616  TRP617  ASP618  TYR619  PRO620  LYS621  CYS622 
 ASP623  PHE694  ASN695  SER759  ASP760  ASP761  ALA762  ILE779  LEU786  VAL792 
 PHE793  MET794  SER795  GLU796  ALA797  LYS798  CYS799  TRP800  GLU811  SER814 

> <Gold.Protein.RotatedAtoms>
  151.3983  135.0967  159.9547 H   0  0  0  0  0  0  0  0  0  0  0  0  # atno 6907 bound_to 6896
  152.5058  133.8913  159.7406 H   0  0  0  0  0  0  0  0  0  0  0  0  # atno 6908 bound_to 6896
  150.9382  133.6631  159.2825 H   0  0  0  0  0  0  0  0  0  0  0  0  # atno 6909 bound_to 6896
  144.7129  140.0922  143.6421 H   0  0  0  0  0  0  0  0  0  0  0  0  # atno 7974 bound_to 7965
  156.2520  140.2885  156.0756 H   0  0  0  0  0  0  0  0  0  0  0  0  # atno 8008 bound_to 7997
  155.1623  140.0400  157.2862 H   0  0  0  0  0  0  0  0  0  0  0  0  # atno 8009 bound_to 7997
  154.6384  140.2516  155.7358 H   0  0  0  0  0  0  0  0  0  0  0  0  # atno 8010 bound_to 7997
  139.6465  144.0162  152.2131 H   0  0  0  0  0  0  0  0  0  0  0  0  # atno 10167 bound_to 10162
  156.0046  130.4611  150.3991 H   0  0  0  0  0  0  0  0  0  0  0  0  # atno 10718 bound_to 10713
  153.7677  135.6914  153.4912 H   0  0  0  0  0  0  0  0  0  0  0  0  # atno 10763 bound_to 10752
  153.1895  135.4476  155.0130 H   0  0  0  0  0  0  0  0  0  0  0  0  # atno 10764 bound_to 10752
  154.8129  135.3386  154.7188 H   0  0  0  0  0  0  0  0  0  0  0  0  # atno 10765 bound_to 10752
  139.8967  134.9559  156.6820 H   0  0  0  0  0  0  0  0  0  0  0  0  # atno 11005 bound_to 11000
  145.9610  139.2801  143.1155 LP  0  0  0  0  0  0  0  0  0  0  0  0  # atno 17320 bound_to 7965
  145.9220  140.9108  143.0400 LP  0  0  0  0  0  0  0  0  0  0  0  0  # atno 17321 bound_to 7965
  139.9865  144.6391  150.7853 LP  0  0  0  0  0  0  0  0  0  0  0  0  # atno 17342 bound_to 10162
  140.7517  143.2977  151.3161 LP  0  0  0  0  0  0  0  0  0  0  0  0  # atno 17343 bound_to 10162
  157.2061  131.0449  151.2624 LP  0  0  0  0  0  0  0  0  0  0  0  0  # atno 17370 bound_to 10713
  157.3931  130.7293  149.6712 LP  0  0  0  0  0  0  0  0  0  0  0  0  # atno 17371 bound_to 10713
  140.7292  133.9074  155.8199 LP  0  0  0  0  0  0  0  0  0  0  0  0  # atno 17394 bound_to 11000
  141.0167  134.0946  157.4165 LP  0  0  0  0  0  0  0  0  0  0  0  0  # atno 17395 bound_to 11000

$$$$
