AV-unprocessed.smi:1703|AV-procd|sdf|6867|dock4
  -GOLD-   22720 8 63D 1   1.00000     0.00000
 Structure written by MMmdl.
 49 51  0  0  0  0  0  0  0  0  2 V2000
  146.7624  137.4198  162.7413 C   0  0  0  0  0  0  0  0  0  0  0  0
  146.9050  136.2974  161.6993 C   0  0  2  0  0  0  0  0  0  0  0  0
  148.1531  136.4505  160.8071 C   0  0  0  0  0  0  0  0  0  0  0  0
  148.0137  137.5214  159.8216 N   0  0  0  0  0  0  0  0  0  0  0  0
  149.1874  137.6536  158.9573 C   0  0  0  0  0  0  0  0  0  0  0  0
  149.1110  138.7682  157.8940 C   0  0  2  0  0  0  0  0  0  0  0  0
  148.4898  138.2496  156.7342 O   0  0  0  0  0  0  0  0  0  0  0  0
  150.5122  139.2968  157.5326 C   0  0  0  0  0  0  0  0  0  0  0  0
  150.5033  140.7166  157.1429 N   0  0  0  0  0  0  0  0  0  0  0  0
  149.9059  141.3250  156.0780 C   0  0  0  0  0  0  0  0  0  0  0  0
  149.0934  140.6575  155.0141 C   0  0  0  0  0  0  0  0  0  0  0  0
  149.5919  140.8748  153.7107 O   0  0  0  0  0  0  0  0  0  0  0  0
  150.1919  142.6556  156.1626 N   0  3  0  0  0  0  0  0  0  0  0  0
  150.9795  142.9009  157.2874 C   0  0  0  0  0  0  0  0  0  0  0  0
  151.5134  144.0862  157.7834 C   0  0  0  0  0  0  0  0  0  0  0  0
  152.2836  143.9893  158.9607 C   0  0  0  0  0  0  0  0  0  0  0  0
  152.4979  142.7495  159.5971 C   0  0  0  0  0  0  0  0  0  0  0  0
  151.9493  141.5549  159.0858 C   0  0  0  0  0  0  0  0  0  0  0  0
  151.1870  141.6587  157.9219 C   0  0  0  0  0  0  0  0  0  0  0  0
  146.8114  137.2814  159.0337 C   0  0  0  0  0  0  0  0  0  0  0  0
  145.5524  137.1898  159.9144 C   0  0  1  0  0  0  0  0  0  0  0  0
  144.3016  136.8501  159.0973 C   0  0  0  0  0  0  0  0  0  0  0  0
  145.7327  136.1683  160.8935 O   0  0  0  0  0  0  0  0  0  0  0  0
  147.6188  137.4332  163.4156 H   0  0  0  0  0  0  0  0  0  0  0  0
  145.8674  137.2765  163.3468 H   0  0  0  0  0  0  0  0  0  0  0  0
  146.6992  138.4041  162.2780 H   0  0  0  0  0  0  0  0  0  0  0  0
  147.0009  135.3622  162.2514 H   0  0  0  0  0  0  0  0  0  0  0  0
  149.0178  136.6220  161.4464 H   0  0  0  0  0  0  0  0  0  0  0  0
  148.3344  135.5064  160.2911 H   0  0  0  0  0  0  0  0  0  0  0  0
  150.0686  137.8135  159.5805 H   0  0  0  0  0  0  0  0  0  0  0  0
  149.3615  136.7086  158.4405 H   0  0  0  0  0  0  0  0  0  0  0  0
  148.5152  139.6057  158.2532 H   0  0  0  0  0  0  0  0  0  0  0  0
  148.8259  137.3808  156.5767 H   0  0  0  0  0  0  0  0  0  0  0  0
  151.1737  139.2063  158.3947 H   0  0  0  0  0  0  0  0  0  0  0  0
  150.9697  138.7035  156.7410 H   0  0  0  0  0  0  0  0  0  0  0  0
  149.0659  139.5847  155.2058 H   0  0  0  0  0  0  0  0  0  0  0  0
  148.0676  141.0231  155.0629 H   0  0  0  0  0  0  0  0  0  0  0  0
  149.4292  140.1003  153.1938 H   0  0  0  0  0  0  0  0  0  0  0  0
  151.3518  145.0365  157.2960 H   0  0  0  0  0  0  0  0  0  0  0  0
  152.7200  144.8831  159.3828 H   0  0  0  0  0  0  0  0  0  0  0  0
  153.0965  142.7133  160.4957 H   0  0  0  0  0  0  0  0  0  0  0  0
  152.1252  140.6122  159.5813 H   0  0  0  0  0  0  0  0  0  0  0  0
  146.6807  138.0847  158.3076 H   0  0  0  0  0  0  0  0  0  0  0  0
  146.9244  136.3597  158.4603 H   0  0  0  0  0  0  0  0  0  0  0  0
  145.3868  138.1450  160.4132 H   0  0  0  0  0  0  0  0  0  0  0  0
  144.1115  137.6085  158.3378 H   0  0  0  0  0  0  0  0  0  0  0  0
  143.4213  136.7931  159.7379 H   0  0  0  0  0  0  0  0  0  0  0  0
  144.4093  135.8897  158.5921 H   0  0  0  0  0  0  0  0  0  0  0  0
  149.8679  143.3416  155.4927 H   0  0  0  0  0  0  0  0  0  0  0  0
  1  2  1  0  0  0  0
  1 24  1  0  0  0  0
  1 25  1  0  0  0  0
  1 26  1  0  0  0  0
  2 23  1  0  0  0  0
  2  3  1  0  0  0  0
  2 27  1  0  0  0  0
  3  4  1  0  0  0  0
  3 28  1  0  0  0  0
  3 29  1  0  0  0  0
  4  5  1  0  0  0  0
  4 20  1  0  0  0  0
  5  6  1  0  0  0  0
  5 30  1  0  0  0  0
  5 31  1  0  0  0  0
  6  7  1  0  0  0  0
  6  8  1  0  0  0  0
  6 32  1  0  0  0  0
  7 33  1  0  0  0  0
  8  9  1  0  0  0  0
  8 34  1  0  0  0  0
  8 35  1  0  0  0  0
  9 19  1  0  0  0  0
  9 10  1  0  0  0  0
 10 11  1  0  0  0  0
 10 13  2  0  0  0  0
 11 12  1  0  0  0  0
 11 36  1  0  0  0  0
 11 37  1  0  0  0  0
 12 38  1  0  0  0  0
 13 14  1  0  0  0  0
 13 49  1  0  0  0  0
 14 19  2  0  0  0  0
 14 15  1  0  0  0  0
 15 16  2  0  0  0  0
 15 39  1  0  0  0  0
 16 17  1  0  0  0  0
 16 40  1  0  0  0  0
 17 18  2  0  0  0  0
 17 41  1  0  0  0  0
 18 19  1  0  0  0  0
 18 42  1  0  0  0  0
 20 21  1  0  0  0  0
 20 43  1  0  0  0  0
 20 44  1  0  0  0  0
 21 22  1  0  0  0  0
 21 23  1  0  0  0  0
 21 45  1  0  0  0  0
 22 46  1  0  0  0  0
 22 47  1  0  0  0  0
 22 48  1  0  0  0  0
M  CHG  1  13   1
M  END
> <s_m_source_file>
AV-unprocessed.smi

> <i_m_source_file_index>
1703

> <i_lp_mmshare_version>
43012

> <i_f3d_flags>
0

> <s_epik_input>
W0NIM11bQ0BASF0xW0NIMl1OKFtDSDJdW0NASF0oTzEpW0NIM10pW0NIMl1bQ0BIXShbT0hdKVtDSDJdbihjKG4yKVtDSDJdW09IXSljKGMyMylbY0hdW2NIXVtjSF1bY0hdMw==

> <s_epik_cmdline>
J2VwaWtfcHl0aG9uJywgJy1waCcsICc3LjAnLCAnLXRuJywgJzgnLCAnLW1hJywgJzIwMCcsICctbWV0YWxfYmluZGluZycsICctaW1hZScsICc8aW5maWxlLm1hZT4nLCAnLW9tYWUnLCAnPG91dGZpbGUubWFlPic=

> <r_epik_Ionization_Penalty>
1.7682

> <r_epik_Ionization_Penalty_Charging>
1.55298

> <r_epik_Ionization_Penalty_Neutral>
0.215215

> <r_epik_State_Penalty>
1.83821

> <r_epik_Charging_Adjusted_Penalty>
3.39119

> <i_epik_Tot_Q>
1

> <i_epik_Tot_abs_Q>
1

> <r_epik_Metal_State_Penalty>
5.89206

> <b_epik_Metal_Only>
0

> <s_lp_Force_Field>
OPLS_2005

> <r_lp_Energy>
34.6201

> <b_lp_Chiralities_Consistent>
1

> <s_lp_Variant>
AV-unprocessed.smi:1703-15

> <Gold.Version>
5.8.1

> <Gold.Id.Protein>
6NUR|6NUR_protein|mol2

> <Gold.PLP.Fitness>
52.6993

> <Gold.PLP.PLP>
-43.6067

> <Gold.PLP.part.hbond>
-5.6329

> <Gold.PLP.part.metal>
0.0000

> <Gold.PLP.part.buried>
-4.9794

> <Gold.PLP.part.nonpolar>
-34.1935

> <Gold.PLP.part.repulsive>
0.1039

> <Gold.PLP.ligand.clash>
0.0000

> <Gold.PLP.ligand.torsion>
0.7383

> <Gold.PLP.Chemscore.Hbond>
3.5019

> <Gold.PLP.Chemscore.CHOScore>
0.0000

> <Gold.PLP.Chemscore.Metal>
0.0000

> <Gold.Chemscore.Hbonds>
donor molecule, donor type, donor heavy atom, donor atom, acceptor molecule, acceptor atom, score
      L1  H    12    38       P1  7957  0.45
      L1  H    13    49       P1  8028  1.31
      P1  H  6934  6947       L1     4  0.46
      P1  H  7989  7998       L1    12  0.33
      P1  H  8011  8017       L1    12  0.89

> <Gold.PLP.Chemscore.Internal.Correction>
0.0634

> <Gold.Rescore>
     Score         DG    S(hbond)    S(metal)    S(lipo)     H(rot)  DE(clash)    DE(int)     intcor
     13.87     -15.60       1.70        0.00     102.54       2.96       0.11       1.61       ----

> <Gold.Chemscore.Fitness>
13.8727

> <Gold.Chemscore.DG>
-15.5982

> <Gold.Chemscore.ZeroCoef>
-5.4800

> <Gold.Chemscore.Hbond>
1.7027

> <Gold.Chemscore.Metal>
0.0000

> <Gold.Chemscore.Lipo>
102.5393

> <Gold.Chemscore.Internal_Hbond>
0.0000

> <Gold.Chemscore.DEClash>
0.1107

> <Gold.Chemscore.DEInternal>
1.6148

> <Gold.Chemscore.Rot>
2.9555

> <Gold.Chemscore.Internal.Correction>
   9.000000E+99

> <Gold.Chemscore.Hbonds>
donor molecule, donor type, donor heavy atom, donor atom, acceptor molecule, acceptor atom, score
      L1  H    12    38       P1  7957  0.42
      L1  H    13    49       P1  8028  0.66
      P1  H  6934  6947       L1     4  0.02
      P1  H  7989  7998       L1    12  0.05
      P1  H  8011  8017       L1    12  0.41

> <Gold.Chemscore.Hbond.Weighted>
-5.6870

> <Gold.Chemscore.Metal.Weighted>
-0.0000

> <Gold.Chemscore.Lipo.Weighted>
-11.9971

> <Gold.Chemscore.Internal_Hbond.Weighted>
0.0000

> <Gold.Chemscore.DEClash.Weighted>
0.1107

> <Gold.Chemscore.DEInternal.Weighted>
1.6148

> <Gold.Chemscore.Rot.Weighted>
7.5660

> <Gold.Chemscore.Internal.Correction.Weighted>
   9.000000E+99

> <Gold.Protein.RotatedTorsions>
[ 6907 6896 6895 6894 ] final  139.01 input  -60.11 | X-H torsion
[ 7974 7965 7964 7962 ] final    3.67 input  175.53 | X-H torsion
[ 8008 7997 7996 7995 ] final  -25.84 input   59.86 | X-H torsion
[ 10167 10162 10161 10158 ] final -165.74 input  -65.29 | X-H torsion
[ 10718 10713 10712 10709 ] final   51.12 input   66.30 | X-H torsion
[ 10763 10752 10751 10750 ] final  101.14 input  -60.55 | X-H torsion
[ 11005 11000 10999 10996 ] final   25.26 input  -57.11 | X-H torsion

> <Gold.Protein.ActiveResidues>
 VAL166  LYS551  ARG553  GLY616  TRP617  ASP618  TYR619  PRO620  LYS621  CYS622 
 ASP623  PHE694  ASN695  SER759  ASP760  ASP761  ALA762  ILE779  LEU786  VAL792 
 PHE793  MET794  SER795  GLU796  ALA797  LYS798  CYS799  TRP800  GLU811  SER814 

> <Gold.Protein.RotatedAtoms>
  152.2600  133.5289  159.5375 H   0  0  0  0  0  0  0  0  0  0  0  0  # atno 6907 bound_to 6896
  150.7122  134.0843  159.3918 H   0  0  0  0  0  0  0  0  0  0  0  0  # atno 6908 bound_to 6896
  151.8761  135.0471  160.0535 H   0  0  0  0  0  0  0  0  0  0  0  0  # atno 6909 bound_to 6896
  146.2445  140.0651  142.8366 H   0  0  0  0  0  0  0  0  0  0  0  0  # atno 7974 bound_to 7965
  154.4455  140.1915  156.0683 H   0  0  0  0  0  0  0  0  0  0  0  0  # atno 8008 bound_to 7997
  156.0531  140.3306  155.7347 H   0  0  0  0  0  0  0  0  0  0  0  0  # atno 8009 bound_to 7997
  155.5527  140.0596  157.2837 H   0  0  0  0  0  0  0  0  0  0  0  0  # atno 8010 bound_to 7997
  139.6162  144.0716  152.1889 H   0  0  0  0  0  0  0  0  0  0  0  0  # atno 10167 bound_to 10162
  157.4950  130.8400  149.8248 H   0  0  0  0  0  0  0  0  0  0  0  0  # atno 10718 bound_to 10713
  153.3229  135.4054  155.1432 H   0  0  0  0  0  0  0  0  0  0  0  0  # atno 10763 bound_to 10752
  154.8605  135.3592  154.5572 H   0  0  0  0  0  0  0  0  0  0  0  0  # atno 10764 bound_to 10752
  153.6007  135.7071  153.5445 H   0  0  0  0  0  0  0  0  0  0  0  0  # atno 10765 bound_to 10752
  140.3498  134.2241  155.7681 H   0  0  0  0  0  0  0  0  0  0  0  0  # atno 11005 bound_to 11000
  145.0866  140.9256  143.4794 LP  0  0  0  0  0  0  0  0  0  0  0  0  # atno 17320 bound_to 7965
  145.0815  139.2956  143.5781 LP  0  0  0  0  0  0  0  0  0  0  0  0  # atno 17321 bound_to 7965
  140.0347  144.6054  150.7460 LP  0  0  0  0  0  0  0  0  0  0  0  0  # atno 17342 bound_to 10162
  140.7352  143.2738  151.3805 LP  0  0  0  0  0  0  0  0  0  0  0  0  # atno 17343 bound_to 10162
  156.0195  130.3801  150.2005 LP  0  0  0  0  0  0  0  0  0  0  0  0  # atno 17370 bound_to 10713
  157.0194  130.9975  151.3344 LP  0  0  0  0  0  0  0  0  0  0  0  0  # atno 17371 bound_to 10713
  141.2015  133.7960  157.0436 LP  0  0  0  0  0  0  0  0  0  0  0  0  # atno 17394 bound_to 11000
  140.0712  134.9701  157.1470 LP  0  0  0  0  0  0  0  0  0  0  0  0  # atno 17395 bound_to 11000

$$$$
