AV-unprocessed.smi:2165|AV-procd|sdf|8812|dock8
  -GOLD-   2272012 03D 1   1.00000     0.00000
 Structure written by MMmdl.
 36 37  0  0  0  0  0  0  0  0  1 V2000
  152.9301  142.9632  161.1597 C   0  0  0  0  0  0  0  0  0  0  0  0
  152.3830  142.8682  159.8224 N   0  0  0  0  0  0  0  0  0  0  0  0
  151.8797  144.0343  159.1961 C   0  0  0  0  0  0  0  0  0  0  0  0
  151.8843  145.1377  159.7429 O   0  0  0  0  0  0  0  0  0  0  0  0
  151.3520  143.8171  157.8541 C   0  0  0  0  0  0  0  0  0  0  0  0
  151.3591  142.5871  157.2950 C   0  0  0  0  0  0  0  0  0  0  0  0
  151.8528  141.4630  157.9318 N   0  0  0  0  0  0  0  0  0  0  0  0
  151.8296  140.1648  157.2460 C   0  0  0  0  0  0  0  0  0  0  0  0
  151.0249  140.2029  155.9406 C   0  0  0  0  0  0  0  0  0  0  0  0
  151.5962  140.1273  154.8520 O   0  0  0  0  0  0  0  0  0  0  0  0
  149.6961  140.3338  156.0676 N   0  0  0  0  0  0  0  0  0  0  0  0
  148.7452  140.3461  154.9625 C   0  0  0  0  0  0  0  0  0  0  0  0
  148.0209  141.6990  154.8600 C   0  0  2  0  0  0  0  0  0  0  0  0
  147.0764  141.9894  156.0245 C   0  0  0  0  0  0  0  0  0  0  0  0
  146.0551  142.9455  155.4255 C   0  0  0  0  0  0  0  0  0  0  0  0
  146.2838  142.8413  153.9147 C   0  0  0  0  0  0  0  0  0  0  0  0
  147.1403  141.7207  153.7481 O   0  0  0  0  0  0  0  0  0  0  0  0
  152.3823  141.5844  159.2347 C   0  0  0  0  0  0  0  0  0  0  0  0
  152.8246  140.5981  159.8299 O   0  0  0  0  0  0  0  0  0  0  0  0
  152.9699  143.9973  161.5002 H   0  0  0  0  0  0  0  0  0  0  0  0
  153.9415  142.5540  161.1290 H   0  0  0  0  0  0  0  0  0  0  0  0
  152.2826  142.3756  161.8127 H   0  0  0  0  0  0  0  0  0  0  0  0
  150.9505  144.6530  157.3004 H   0  0  0  0  0  0  0  0  0  0  0  0
  150.9593  142.4802  156.2970 H   0  0  0  0  0  0  0  0  0  0  0  0
  152.8507  139.8315  157.0499 H   0  0  0  0  0  0  0  0  0  0  0  0
  151.3905  139.4051  157.8937 H   0  0  0  0  0  0  0  0  0  0  0  0
  149.3113  140.3917  156.9994 H   0  0  0  0  0  0  0  0  0  0  0  0
  149.2883  140.1387  154.0398 H   0  0  0  0  0  0  0  0  0  0  0  0
  148.0227  139.5380  155.0873 H   0  0  0  0  0  0  0  0  0  0  0  0
  148.7382  142.5162  154.7607 H   0  0  0  0  0  0  0  0  0  0  0  0
  146.5752  141.0742  156.3426 H   0  0  0  0  0  0  0  0  0  0  0  0
  147.5937  142.4064  156.8889 H   0  0  0  0  0  0  0  0  0  0  0  0
  145.0414  142.6516  155.7003 H   0  0  0  0  0  0  0  0  0  0  0  0
  146.2130  143.9686  155.7689 H   0  0  0  0  0  0  0  0  0  0  0  0
  145.3564  142.7156  153.3561 H   0  0  0  0  0  0  0  0  0  0  0  0
  146.7876  143.7340  153.5412 H   0  0  0  0  0  0  0  0  0  0  0  0
  1  2  1  0  0  0  0
  1 20  1  0  0  0  0
  1 21  1  0  0  0  0
  1 22  1  0  0  0  0
  2 18  1  0  0  0  0
  2  3  1  0  0  0  0
  3  4  2  0  0  0  0
  3  5  1  0  0  0  0
  5  6  2  0  0  0  0
  5 23  1  0  0  0  0
  6  7  1  0  0  0  0
  6 24  1  0  0  0  0
  7  8  1  0  0  0  0
  7 18  1  0  0  0  0
  8  9  1  0  0  0  0
  8 25  1  0  0  0  0
  8 26  1  0  0  0  0
  9 10  2  0  0  0  0
  9 11  1  0  0  0  0
 11 12  1  0  0  0  0
 11 27  1  0  0  0  0
 12 13  1  0  0  0  0
 12 28  1  0  0  0  0
 12 29  1  0  0  0  0
 13 17  1  0  0  0  0
 13 14  1  0  0  0  0
 13 30  1  0  0  0  0
 14 15  1  0  0  0  0
 14 31  1  0  0  0  0
 14 32  1  0  0  0  0
 15 16  1  0  0  0  0
 15 33  1  0  0  0  0
 15 34  1  0  0  0  0
 16 17  1  0  0  0  0
 16 35  1  0  0  0  0
 16 36  1  0  0  0  0
 18 19  2  0  0  0  0
M  END
> <s_m_source_file>
AV-unprocessed.smi

> <i_m_source_file_index>
2165

> <i_lp_mmshare_version>
43012

> <i_f3d_flags>
0

> <s_epik_input>
W0NIM11uMWMoPU8pW2NIXVtjSF1uKGMxPU8pW0NIMl1DKD1PKVtOSF1bQ0gyXVtDQEBIXTJbQ0gyXVtDSDJdW0NIMl1PMg==

> <s_epik_cmdline>
J2VwaWtfcHl0aG9uJywgJy1waCcsICc3LjAnLCAnLXRuJywgJzgnLCAnLW1hJywgJzIwMCcsICctbWV0YWxfYmluZGluZycsICctaW1hZScsICc8aW5maWxlLm1hZT4nLCAnLW9tYWUnLCAnPG91dGZpbGUubWFlPic=

> <r_lp_tautomer_probability>
1

> <r_epik_Ionization_Penalty>
3.89869e-08

> <r_epik_Ionization_Penalty_Charging>
1.21279e-08

> <r_epik_Ionization_Penalty_Neutral>
2.6859e-08

> <r_epik_State_Penalty>
-0

> <r_epik_Charging_Adjusted_Penalty>
1.21279e-08

> <i_epik_Tot_Q>
0

> <i_epik_Tot_abs_Q>
0

> <r_epik_Metal_State_Penalty>
-0

> <b_epik_Metal_Only>
0

> <s_lp_Force_Field>
OPLS_2005

> <r_lp_Energy>
24.9398

> <b_lp_Chiralities_Consistent>
1

> <s_lp_Variant>
AV-unprocessed.smi:2165-1

> <Gold.Version>
5.8.1

> <Gold.Id.Protein>
6NUR|6NUR_protein|mol2

> <Gold.PLP.Fitness>
41.5451

> <Gold.PLP.PLP>
-38.9302

> <Gold.PLP.part.hbond>
-0.8142

> <Gold.PLP.part.metal>
0.0000

> <Gold.PLP.part.buried>
-6.5458

> <Gold.PLP.part.nonpolar>
-31.8235

> <Gold.PLP.part.repulsive>
0.3737

> <Gold.PLP.ligand.clash>
0.0000

> <Gold.PLP.ligand.torsion>
0.1989

> <Gold.PLP.Chemscore.Hbond>
1.0000

> <Gold.PLP.Chemscore.CHOScore>
0.0000

> <Gold.PLP.Chemscore.Metal>
0.0000

> <Gold.Chemscore.Hbonds>
donor molecule, donor type, donor heavy atom, donor atom, acceptor molecule, acceptor atom, score
      P1  H  7989  7998       L1    10  1.00

> <Gold.PLP.Chemscore.Internal.Correction>
0.0128

> <Gold.Rescore>
     Score         DG    S(hbond)    S(metal)    S(lipo)     H(rot)  DE(clash)    DE(int)     intcor
     10.95     -11.31       0.98        0.00      62.66       1.87       0.01       0.35       ----

> <Gold.Chemscore.Fitness>
10.9490

> <Gold.Chemscore.DG>
-11.3115

> <Gold.Chemscore.ZeroCoef>
-5.4800

> <Gold.Chemscore.Hbond>
0.9826

> <Gold.Chemscore.Metal>
0.0000

> <Gold.Chemscore.Lipo>
62.6645

> <Gold.Chemscore.Internal_Hbond>
0.0000

> <Gold.Chemscore.DEClash>
0.0126

> <Gold.Chemscore.DEInternal>
0.3498

> <Gold.Chemscore.Rot>
1.8681

> <Gold.Chemscore.Internal.Correction>
   9.000000E+99

> <Gold.Chemscore.Hbonds>
donor molecule, donor type, donor heavy atom, donor atom, acceptor molecule, acceptor atom, score
      P1  H  7989  7998       L1    10  0.91

> <Gold.Chemscore.Hbond.Weighted>
-3.2820

> <Gold.Chemscore.Metal.Weighted>
-0.0000

> <Gold.Chemscore.Lipo.Weighted>
-7.3317

> <Gold.Chemscore.Internal_Hbond.Weighted>
0.0000

> <Gold.Chemscore.DEClash.Weighted>
0.0126

> <Gold.Chemscore.DEInternal.Weighted>
0.3498

> <Gold.Chemscore.Rot.Weighted>
4.7822

> <Gold.Chemscore.Internal.Correction.Weighted>
   9.000000E+99

> <Gold.Protein.RotatedTorsions>
[ 6907 6896 6895 6894 ] final -120.43 input  -60.11 | X-H torsion
[ 7974 7965 7964 7962 ] final -122.54 input  175.53 | X-H torsion
[ 8008 7997 7996 7995 ] final  -59.71 input   59.86 | X-H torsion
[ 10167 10162 10161 10158 ] final   51.46 input  -65.29 | X-H torsion
[ 10718 10713 10712 10709 ] final   85.53 input   66.30 | X-H torsion
[ 10763 10752 10751 10750 ] final   56.79 input  -60.55 | X-H torsion
[ 11005 11000 10999 10996 ] final    4.02 input  -57.11 | X-H torsion

> <Gold.Protein.ActiveResidues>
 VAL166  LYS551  ARG553  GLY616  TRP617  ASP618  TYR619  PRO620  LYS621  CYS622 
 ASP623  PHE694  ASN695  SER759  ASP760  ASP761  ALA762  ILE779  LEU786  VAL792 
 PHE793  MET794  SER795  GLU796  ALA797  LYS798  CYS799  TRP800  GLU811  SER814 

> <Gold.Protein.RotatedAtoms>
  150.8393  133.7963  159.3067 H   0  0  0  0  0  0  0  0  0  0  0  0  # atno 6907 bound_to 6896
  151.5669  135.1062  159.9995 H   0  0  0  0  0  0  0  0  0  0  0  0  # atno 6908 bound_to 6896
  152.4459  133.7494  159.6741 H   0  0  0  0  0  0  0  0  0  0  0  0  # atno 6909 bound_to 6896
  145.0283  140.8046  143.4339 H   0  0  0  0  0  0  0  0  0  0  0  0  # atno 7974 bound_to 7965
  154.4365  140.1055  156.6159 H   0  0  0  0  0  0  0  0  0  0  0  0  # atno 8008 bound_to 7997
  155.5759  140.3490  155.4509 H   0  0  0  0  0  0  0  0  0  0  0  0  # atno 8009 bound_to 7997
  156.0354  140.1270  157.0202 H   0  0  0  0  0  0  0  0  0  0  0  0  # atno 8010 bound_to 7997
  140.2617  144.3366  150.6316 H   0  0  0  0  0  0  0  0  0  0  0  0  # atno 10167 bound_to 10162
  157.6916  131.0178  150.2836 H   0  0  0  0  0  0  0  0  0  0  0  0  # atno 10718 bound_to 10713
  152.9838  135.5664  154.5286 H   0  0  0  0  0  0  0  0  0  0  0  0  # atno 10763 bound_to 10752
  154.4762  135.2787  155.1608 H   0  0  0  0  0  0  0  0  0  0  0  0  # atno 10764 bound_to 10752
  154.3135  135.6283  153.5529 H   0  0  0  0  0  0  0  0  0  0  0  0  # atno 10765 bound_to 10752
  140.5866  133.9963  155.8070 H   0  0  0  0  0  0  0  0  0  0  0  0  # atno 11005 bound_to 11000
  145.1804  139.2355  143.5295 LP  0  0  0  0  0  0  0  0  0  0  0  0  # atno 17320 bound_to 7965
  146.3495  140.1576  142.8591 LP  0  0  0  0  0  0  0  0  0  0  0  0  # atno 17321 bound_to 7965
  140.5961  143.2167  151.7162 LP  0  0  0  0  0  0  0  0  0  0  0  0  # atno 17342 bound_to 10162
  139.5015  144.3865  152.0323 LP  0  0  0  0  0  0  0  0  0  0  0  0  # atno 17343 bound_to 10162
  156.3379  130.3810  149.7434 LP  0  0  0  0  0  0  0  0  0  0  0  0  # atno 17370 bound_to 10713
  156.4953  130.8104  151.3111 LP  0  0  0  0  0  0  0  0  0  0  0  0  # atno 17371 bound_to 10713
  141.0962  133.9840  157.3156 LP  0  0  0  0  0  0  0  0  0  0  0  0  # atno 17394 bound_to 11000
  139.9293  135.0200  156.8344 LP  0  0  0  0  0  0  0  0  0  0  0  0  # atno 17395 bound_to 11000

$$$$
