AV-unprocessed.smi:2770|AV-procd|sdf|10660|dock4
  -GOLD-   2272015103D 1   1.00000     0.00000
 Structure written by MMmdl.
 35 36  0  0  0  0  0  0  0  0  2 V2000
  147.0062  139.0782  151.7981 C   0  0  0  0  0  0  0  0  0  0  0  0
  148.0420  138.9068  152.8051 N   0  0  0  0  0  0  0  0  0  0  0  0
  148.4645  139.8773  153.6291 C   0  0  0  0  0  0  0  0  0  0  0  0
  148.0005  141.0181  153.6112 O   0  0  0  0  0  0  0  0  0  0  0  0
  149.5610  139.4964  154.6338 C   0  0  2  0  0  0  0  0  0  0  0  0
  149.9951  140.6899  155.5151 C   0  0  0  0  0  0  0  0  0  0  0  0
  151.1042  140.3055  156.3783 N   0  0  0  0  0  0  0  0  0  0  0  0
  151.4742  141.3204  157.2701 C   0  0  0  0  0  0  0  0  0  0  0  0
  151.0246  142.6572  157.1614 C   0  0  0  0  0  0  0  0  0  0  0  0
  151.4482  143.6072  158.1134 C   0  0  0  0  0  0  0  0  0  0  0  0
  152.3100  143.2059  159.1545 C   0  0  0  0  0  0  0  0  0  0  0  0
  152.7278  141.8599  159.2198 C   0  0  0  0  0  0  0  0  0  0  0  0
  153.6499  141.3491  160.3063 C   0  0  0  0  0  0  0  0  0  0  0  0
  152.2983  140.9812  158.2866 N   0  3  0  0  0  0  0  0  0  0  0  0
  152.2249  139.7423  155.6374 C   0  0  0  0  0  0  0  0  0  0  0  0
  151.7407  138.5675  154.7729 C   0  0  0  0  0  0  0  0  0  0  0  0
  150.6967  139.0140  153.9133 O   0  0  0  0  0  0  0  0  0  0  0  0
  146.8638  138.1476  151.2489 H   0  0  0  0  0  0  0  0  0  0  0  0
  147.2816  139.8559  151.0850 H   0  0  0  0  0  0  0  0  0  0  0  0
  146.0566  139.3499  152.2607 H   0  0  0  0  0  0  0  0  0  0  0  0
  148.4684  137.9942  152.8810 H   0  0  0  0  0  0  0  0  0  0  0  0
  149.1683  138.6953  155.2627 H   0  0  0  0  0  0  0  0  0  0  0  0
  150.2938  141.5320  154.8884 H   0  0  0  0  0  0  0  0  0  0  0  0
  149.1604  141.0266  156.1319 H   0  0  0  0  0  0  0  0  0  0  0  0
  150.3607  142.9549  156.3628 H   0  0  0  0  0  0  0  0  0  0  0  0
  151.1146  144.6323  158.0469 H   0  0  0  0  0  0  0  0  0  0  0  0
  152.6423  143.9228  159.8915 H   0  0  0  0  0  0  0  0  0  0  0  0
  153.8699  142.1303  161.0346 H   0  0  0  0  0  0  0  0  0  0  0  0
  154.5921  141.0092  159.8757 H   0  0  0  0  0  0  0  0  0  0  0  0
  153.1901  140.5128  160.8335 H   0  0  0  0  0  0  0  0  0  0  0  0
  152.6741  140.5061  155.0017 H   0  0  0  0  0  0  0  0  0  0  0  0
  152.9946  139.4042  156.3322 H   0  0  0  0  0  0  0  0  0  0  0  0
  152.5607  138.1829  154.1664 H   0  0  0  0  0  0  0  0  0  0  0  0
  151.3887  137.7427  155.3949 H   0  0  0  0  0  0  0  0  0  0  0  0
  152.6125  140.0128  158.3531 H   0  0  0  0  0  0  0  0  0  0  0  0
  1  2  1  0  0  0  0
  1 18  1  0  0  0  0
  1 19  1  0  0  0  0
  1 20  1  0  0  0  0
  2  3  1  0  0  0  0
  2 21  1  0  0  0  0
  3  4  2  0  0  0  0
  3  5  1  0  0  0  0
  5 17  1  0  0  0  0
  5  6  1  0  0  0  0
  5 22  1  0  0  0  0
  6  7  1  0  0  0  0
  6 23  1  0  0  0  0
  6 24  1  0  0  0  0
  7  8  1  0  0  0  0
  7 15  1  0  0  0  0
  8 14  1  0  0  0  0
  8  9  2  0  0  0  0
  9 10  1  0  0  0  0
  9 25  1  0  0  0  0
 10 11  2  0  0  0  0
 10 26  1  0  0  0  0
 11 12  1  0  0  0  0
 11 27  1  0  0  0  0
 12 13  1  0  0  0  0
 12 14  2  0  0  0  0
 13 28  1  0  0  0  0
 13 29  1  0  0  0  0
 13 30  1  0  0  0  0
 14 35  1  0  0  0  0
 15 16  1  0  0  0  0
 15 31  1  0  0  0  0
 15 32  1  0  0  0  0
 16 17  1  0  0  0  0
 16 33  1  0  0  0  0
 16 34  1  0  0  0  0
M  CHG  1  14   1
M  END
> <s_m_source_file>
AV-unprocessed.smi

> <i_m_source_file_index>
2770

> <i_lp_mmshare_version>
43012

> <i_f3d_flags>
0

> <s_epik_input>
W0NIM11bTkhdQyg9TylbQ0BASF0xW0NIMl1OKFtDSDJdW0NIMl1PMSljMltjSF1bY0hdW2NIXWMobjIpW0NIM10=

> <s_epik_cmdline>
J2VwaWtfcHl0aG9uJywgJy1waCcsICc3LjAnLCAnLXRuJywgJzgnLCAnLW1hJywgJzIwMCcsICctbWV0YWxfYmluZGluZycsICctaW1hZScsICc8aW5maWxlLm1hZT4nLCAnLW9tYWUnLCAnPG91dGZpbGUubWFlPic=

> <r_lp_tautomer_probability>
0.999994

> <r_epik_Ionization_Penalty>
2.33902

> <r_epik_Ionization_Penalty_Charging>
2.33902

> <r_epik_Ionization_Penalty_Neutral>
5.66859e-08

> <r_epik_State_Penalty>
2.4925

> <r_epik_Charging_Adjusted_Penalty>
4.83152

> <i_epik_Tot_Q>
1

> <i_epik_Tot_abs_Q>
1

> <r_epik_Metal_State_Penalty>
2.50392

> <b_epik_Metal_Only>
0

> <s_lp_Force_Field>
OPLS_2005

> <r_lp_Energy>
23.5554

> <b_lp_Chiralities_Consistent>
1

> <s_lp_Variant>
AV-unprocessed.smi:2770-3

> <Gold.Version>
5.8.1

> <Gold.Id.Protein>
6NUR|6NUR_protein|mol2

> <Gold.PLP.Fitness>
38.9090

> <Gold.PLP.PLP>
-35.2257

> <Gold.PLP.part.hbond>
-2.9427

> <Gold.PLP.part.metal>
0.0000

> <Gold.PLP.part.buried>
1.2651

> <Gold.PLP.part.nonpolar>
-34.2756

> <Gold.PLP.part.repulsive>
0.6578

> <Gold.PLP.ligand.clash>
0.0000

> <Gold.PLP.ligand.torsion>
0.1638

> <Gold.PLP.Chemscore.Hbond>
1.3038

> <Gold.PLP.Chemscore.CHOScore>
0.0000

> <Gold.PLP.Chemscore.Metal>
0.0000

> <Gold.Chemscore.Hbonds>
donor molecule, donor type, donor heavy atom, donor atom, acceptor molecule, acceptor atom, score
      L1  H     2    21       P1  7948  0.80
      P1  H  7989  7998       L1    17  0.57

> <Gold.PLP.Chemscore.Internal.Correction>
0.0995

> <Gold.Rescore>
     Score         DG    S(hbond)    S(metal)    S(lipo)     H(rot)  DE(clash)    DE(int)     intcor
     14.95     -15.30       0.75        0.00      91.05       1.30       0.06       0.30       ----

> <Gold.Chemscore.Fitness>
14.9454

> <Gold.Chemscore.DG>
-15.3033

> <Gold.Chemscore.ZeroCoef>
-5.4800

> <Gold.Chemscore.Hbond>
0.7453

> <Gold.Chemscore.Metal>
0.0000

> <Gold.Chemscore.Lipo>
91.0470

> <Gold.Chemscore.Internal_Hbond>
0.0000

> <Gold.Chemscore.DEClash>
0.0576

> <Gold.Chemscore.DEInternal>
0.3003

> <Gold.Chemscore.Rot>
1.2963

> <Gold.Chemscore.Internal.Correction>
   9.000000E+99

> <Gold.Chemscore.Hbonds>
donor molecule, donor type, donor heavy atom, donor atom, acceptor molecule, acceptor atom, score
      L1  H     2    21       P1  7948  0.77
      P1  H  7989  7998       L1    17  0.01

> <Gold.Chemscore.Hbond.Weighted>
-2.4893

> <Gold.Chemscore.Metal.Weighted>
-0.0000

> <Gold.Chemscore.Lipo.Weighted>
-10.6525

> <Gold.Chemscore.Internal_Hbond.Weighted>
0.0000

> <Gold.Chemscore.DEClash.Weighted>
0.0576

> <Gold.Chemscore.DEInternal.Weighted>
0.3003

> <Gold.Chemscore.Rot.Weighted>
3.3185

> <Gold.Chemscore.Internal.Correction.Weighted>
   9.000000E+99

> <Gold.Protein.RotatedTorsions>
[ 6907 6896 6895 6894 ] final   -8.39 input  -60.11 | X-H torsion
[ 7974 7965 7964 7962 ] final  -62.71 input  175.53 | X-H torsion
[ 8008 7997 7996 7995 ] final   11.52 input   59.86 | X-H torsion
[ 10167 10162 10161 10158 ] final -100.05 input  -65.29 | X-H torsion
[ 10718 10713 10712 10709 ] final -106.20 input   66.30 | X-H torsion
[ 10763 10752 10751 10750 ] final  -66.93 input  -60.55 | X-H torsion
[ 11005 11000 10999 10996 ] final  174.13 input  -57.11 | X-H torsion

> <Gold.Protein.ActiveResidues>
 VAL166  LYS551  ARG553  GLY616  TRP617  ASP618  TYR619  PRO620  LYS621  CYS622 
 ASP623  PHE694  ASN695  SER759  ASP760  ASP761  ALA762  ILE779  LEU786  VAL792 
 PHE793  MET794  SER795  GLU796  ALA797  LYS798  CYS799  TRP800  GLU811  SER814 

> <Gold.Protein.RotatedAtoms>
  151.4343  135.1013  159.9651 H   0  0  0  0  0  0  0  0  0  0  0  0  # atno 6907 bound_to 6896
  152.4945  133.8588  159.7250 H   0  0  0  0  0  0  0  0  0  0  0  0  # atno 6908 bound_to 6896
  150.9133  133.6912  159.2877 H   0  0  0  0  0  0  0  0  0  0  0  0  # atno 6909 bound_to 6896
  145.7880  140.8725  143.0295 H   0  0  0  0  0  0  0  0  0  0  0  0  # atno 7974 bound_to 7965
  154.8081  140.2863  155.5873 H   0  0  0  0  0  0  0  0  0  0  0  0  # atno 8008 bound_to 7997
  156.2985  140.2573  156.2893 H   0  0  0  0  0  0  0  0  0  0  0  0  # atno 8009 bound_to 7997
  154.9480  140.0380  157.2119 H   0  0  0  0  0  0  0  0  0  0  0  0  # atno 8010 bound_to 7997
  140.2560  143.3440  152.0670 H   0  0  0  0  0  0  0  0  0  0  0  0  # atno 10167 bound_to 10162
  156.0379  130.5601  150.7647 H   0  0  0  0  0  0  0  0  0  0  0  0  # atno 10718 bound_to 10713
  154.3670  135.6103  153.5720 H   0  0  0  0  0  0  0  0  0  0  0  0  # atno 10763 bound_to 10752
  152.9791  135.5829  154.4566 H   0  0  0  0  0  0  0  0  0  0  0  0  # atno 10764 bound_to 10752
  154.4314  135.2848  155.1887 H   0  0  0  0  0  0  0  0  0  0  0  0  # atno 10765 bound_to 10752
  140.3480  134.7220  157.4248 H   0  0  0  0  0  0  0  0  0  0  0  0  # atno 11005 bound_to 11000
  144.6786  140.0083  143.7484 LP  0  0  0  0  0  0  0  0  0  0  0  0  # atno 17320 bound_to 7965
  146.0006  139.3088  143.0930 LP  0  0  0  0  0  0  0  0  0  0  0  0  # atno 17321 bound_to 7965
  139.5031  144.6749  151.6153 LP  0  0  0  0  0  0  0  0  0  0  0  0  # atno 17342 bound_to 10162
  140.6003  143.9621  150.6382 LP  0  0  0  0  0  0  0  0  0  0  0  0  # atno 17343 bound_to 10162
  157.5157  131.0928  151.0143 LP  0  0  0  0  0  0  0  0  0  0  0  0  # atno 17370 bound_to 10713
  157.0486  130.5778  149.5367 LP  0  0  0  0  0  0  0  0  0  0  0  0  # atno 17371 bound_to 10713
  140.0726  134.5841  155.8625 LP  0  0  0  0  0  0  0  0  0  0  0  0  # atno 17394 bound_to 11000
  141.2020  133.6622  156.5982 LP  0  0  0  0  0  0  0  0  0  0  0  0  # atno 17395 bound_to 11000

$$$$
