AV-unprocessed.smi:703|AV-procd|sdf|3437|dock2
  -GOLD-   22720 0423D 1   1.00000     0.00000
 Structure written by MMmdl.
 37 38  0  0  0  0  0  0  0  0  3 V2000
  147.8232  133.0256  152.5554 C   0  0  0  0  0  0  0  0  0  0  0  0
  147.3812  133.9475  153.6999 C   0  0  0  0  0  0  0  0  0  0  0  0
  148.4924  134.7919  154.2000 N   0  3  2  0  0  0  0  0  0  0  0  0
  149.7240  134.0594  154.5673 C   0  0  0  0  0  0  0  0  0  0  0  0
  150.4314  134.9535  155.5892 C   0  0  2  0  0  0  0  0  0  0  0  0
  151.4863  134.2049  156.4271 C   0  0  0  0  0  0  0  0  0  0  0  0
  149.2561  135.5491  156.3810 C   0  0  1  0  0  0  0  0  0  0  0  0
  149.6042  136.8365  156.9614 N   0  5  0  0  0  0  0  0  0  0  0  0
  149.5304  137.0355  158.5703 S   0  0  0  0  0  0  0  0  0  0  0  0
  150.7029  136.4765  159.2638 O   0  0  0  0  0  0  0  0  0  0  0  0
  149.1223  138.4010  158.9364 O   0  0  0  0  0  0  0  0  0  0  0  0
  148.0986  135.9477  158.9912 C   0  0  0  0  0  0  0  0  0  0  0  0
  147.7906  136.0269  160.4617 C   0  0  0  0  0  0  0  0  0  0  0  0
  147.7313  134.9684  161.4108 C   0  0  0  0  0  0  0  0  0  0  0  0
  147.4170  135.6025  162.5778 C   0  0  0  0  0  0  0  0  0  0  0  0
  147.2837  136.9368  162.3725 O   0  0  0  0  0  0  0  0  0  0  0  0
  147.5199  137.1978  161.0180 N   0  0  0  0  0  0  0  0  0  0  0  0
  148.1304  135.6715  155.3373 C   0  0  0  0  0  0  0  0  0  0  0  0
  146.9761  132.4589  152.1687 H   0  0  0  0  0  0  0  0  0  0  0  0
  148.5738  132.3068  152.8848 H   0  0  0  0  0  0  0  0  0  0  0  0
  148.2444  133.5976  151.7278 H   0  0  0  0  0  0  0  0  0  0  0  0
  146.5857  134.5996  153.3368 H   0  0  0  0  0  0  0  0  0  0  0  0
  146.9596  133.3634  154.5194 H   0  0  0  0  0  0  0  0  0  0  0  0
  149.4722  133.0878  155.0016 H   0  0  0  0  0  0  0  0  0  0  0  0
  150.3455  133.8731  153.6907 H   0  0  0  0  0  0  0  0  0  0  0  0
  150.9301  135.7538  155.0380 H   0  0  0  0  0  0  0  0  0  0  0  0
  151.0570  133.3716  156.9869 H   0  0  0  0  0  0  0  0  0  0  0  0
  151.9808  134.8667  157.1405 H   0  0  0  0  0  0  0  0  0  0  0  0
  152.2626  133.7933  155.7814 H   0  0  0  0  0  0  0  0  0  0  0  0
  148.9504  134.8227  157.1355 H   0  0  0  0  0  0  0  0  0  0  0  0
  147.2462  136.2839  158.4002 H   0  0  0  0  0  0  0  0  0  0  0  0
  148.3276  134.9287  158.6806 H   0  0  0  0  0  0  0  0  0  0  0  0
  147.9001  133.9130  161.2576 H   0  0  0  0  0  0  0  0  0  0  0  0
  147.2598  135.2599  163.5897 H   0  0  0  0  0  0  0  0  0  0  0  0
  148.0325  136.6883  154.9528 H   0  0  0  0  0  0  0  0  0  0  0  0
  147.1713  135.3982  155.7804 H   0  0  0  0  0  0  0  0  0  0  0  0
  148.7499  135.4190  153.4515 H   0  0  0  0  0  0  0  0  0  0  0  0
  1  2  1  0  0  0  0
  1 19  1  0  0  0  0
  1 20  1  0  0  0  0
  1 21  1  0  0  0  0
  2  3  1  0  0  0  0
  2 22  1  0  0  0  0
  2 23  1  0  0  0  0
  3 18  1  0  0  0  0
  3  4  1  0  0  0  0
  3 37  1  0  0  0  0
  4  5  1  0  0  0  0
  4 24  1  0  0  0  0
  4 25  1  0  0  0  0
  5  6  1  0  0  0  0
  5  7  1  0  0  0  0
  5 26  1  0  0  0  0
  6 27  1  0  0  0  0
  6 28  1  0  0  0  0
  6 29  1  0  0  0  0
  7  8  1  0  0  0  0
  7 18  1  0  0  0  0
  7 30  1  0  0  0  0
  8  9  1  0  0  0  0
  9 10  2  0  0  0  0
  9 11  2  0  0  0  0
  9 12  1  0  0  0  0
 12 13  1  0  0  0  0
 12 31  1  0  0  0  0
 12 32  1  0  0  0  0
 13 17  2  0  0  0  0
 13 14  1  0  0  0  0
 14 15  2  0  0  0  0
 14 33  1  0  0  0  0
 15 16  1  0  0  0  0
 15 34  1  0  0  0  0
 16 17  1  0  0  0  0
 18 35  1  0  0  0  0
 18 36  1  0  0  0  0
M  CHG  1   3   1
M  CHG  1   8  -1
M  END
> <s_m_source_file>
AV-unprocessed.smi

> <i_m_source_file_index>
703

> <i_lp_mmshare_version>
43012

> <i_f3d_flags>
0

> <s_epik_input>
W0NIM11bQ0gyXU4xW0NIMl1bQ0BASF0oW0NIM10pW0NASF0oW0NIMl0xKVtOSF1TKD1PKSg9TylbQ0gyXWMyW2NIXVtjSF1vbjI=

> <s_epik_cmdline>
J2VwaWtfcHl0aG9uJywgJy1waCcsICc3LjAnLCAnLXRuJywgJzgnLCAnLW1hJywgJzIwMCcsICctbWV0YWxfYmluZGluZycsICctaW1hZScsICc8aW5maWxlLm1hZT4nLCAnLW9tYWUnLCAnPG91dGZpbGUubWFlPic=

> <r_epik_Ionization_Penalty>
3.62494

> <r_epik_Ionization_Penalty_Charging>
3.62494

> <r_epik_Ionization_Penalty_Neutral>
2.0321e-10

> <r_epik_State_Penalty>
3.62558

> <r_epik_Charging_Adjusted_Penalty>
7.25052

> <i_epik_Tot_Q>
0

> <i_epik_Tot_abs_Q>
2

> <r_epik_Metal_State_Penalty>
0.530836

> <b_epik_Metal_Only>
1

> <s_lp_Force_Field>
OPLS_2005

> <r_lp_Energy>
15.6249

> <b_lp_Chiralities_Consistent>
1

> <s_lp_Variant>
AV-unprocessed.smi:703-12

> <Gold.Version>
5.8.1

> <Gold.Id.Protein>
6NUR|6NUR_protein|mol2

> <Gold.PLP.Fitness>
40.4367

> <Gold.PLP.PLP>
-28.7146

> <Gold.PLP.part.hbond>
-7.0356

> <Gold.PLP.part.metal>
0.0000

> <Gold.PLP.part.buried>
-2.9114

> <Gold.PLP.part.nonpolar>
-18.7029

> <Gold.PLP.part.repulsive>
0.0000

> <Gold.PLP.ligand.clash>
0.0000

> <Gold.PLP.ligand.torsion>
0.6445

> <Gold.PLP.Chemscore.Hbond>
3.9920

> <Gold.PLP.Chemscore.CHOScore>
0.0000

> <Gold.PLP.Chemscore.Metal>
0.0000

> <Gold.Chemscore.Hbonds>
donor molecule, donor type, donor heavy atom, donor atom, acceptor molecule, acceptor atom, score
      L1  H     3    37       P1  7948  2.00
      P1  H  6896  6909       L1    10  1.00
      P1  H  6934  6947       L1    17  0.98

> <Gold.PLP.Chemscore.Internal.Correction>
1.0351

> <Gold.Rescore>
     Score         DG    S(hbond)    S(metal)    S(lipo)     H(rot)  DE(clash)    DE(int)     intcor
     15.55     -17.25       2.78        0.00      57.01       1.63       0.03       1.66       ----

> <Gold.Chemscore.Fitness>
15.5548

> <Gold.Chemscore.DG>
-17.2451

> <Gold.Chemscore.ZeroCoef>
-5.4800

> <Gold.Chemscore.Hbond>
2.7777

> <Gold.Chemscore.Metal>
0.0000

> <Gold.Chemscore.Lipo>
57.0096

> <Gold.Chemscore.Internal_Hbond>
0.0000

> <Gold.Chemscore.DEClash>
0.0270

> <Gold.Chemscore.DEInternal>
1.6633

> <Gold.Chemscore.Rot>
1.6338

> <Gold.Chemscore.Internal.Correction>
   9.000000E+99

> <Gold.Chemscore.Hbonds>
donor molecule, donor type, donor heavy atom, donor atom, acceptor molecule, acceptor atom, score
      L1  H     3    37       P1  7948  0.88
      P1  H  6896  6909       L1    10  0.95
      P1  H  6934  6947       L1    17  0.28

> <Gold.Chemscore.Hbond.Weighted>
-9.2775

> <Gold.Chemscore.Metal.Weighted>
-0.0000

> <Gold.Chemscore.Lipo.Weighted>
-6.6701

> <Gold.Chemscore.Internal_Hbond.Weighted>
0.0000

> <Gold.Chemscore.DEClash.Weighted>
0.0270

> <Gold.Chemscore.DEInternal.Weighted>
1.6633

> <Gold.Chemscore.Rot.Weighted>
4.1825

> <Gold.Chemscore.Internal.Correction.Weighted>
   9.000000E+99

> <Gold.Protein.RotatedTorsions>
[ 6907 6896 6895 6894 ] final  108.24 input  -60.11 | X-H torsion
[ 7974 7965 7964 7962 ] final   33.22 input  175.53 | X-H torsion
[ 8008 7997 7996 7995 ] final   52.74 input   59.86 | X-H torsion
[ 10167 10162 10161 10158 ] final  119.45 input  -65.29 | X-H torsion
[ 10718 10713 10712 10709 ] final  -67.91 input   66.30 | X-H torsion
[ 10763 10752 10751 10750 ] final  -51.89 input  -60.55 | X-H torsion
[ 11005 11000 10999 10996 ] final  -14.50 input  -57.11 | X-H torsion

> <Gold.Protein.ActiveResidues>
 VAL166  LYS551  ARG553  GLY616  TRP617  ASP618  TYR619  PRO620  LYS621  CYS622 
 ASP623  PHE694  ASN695  SER759  ASP760  ASP761  ALA762  ILE779  LEU786  VAL792 
 PHE793  MET794  SER795  GLU796  ALA797  LYS798  CYS799  TRP800  GLU811  SER814 

> <Gold.Protein.RotatedAtoms>
  152.5121  133.9118  159.7491 H   0  0  0  0  0  0  0  0  0  0  0  0  # atno 6907 bound_to 6896
  150.9510  133.6541  159.2779 H   0  0  0  0  0  0  0  0  0  0  0  0  # atno 6908 bound_to 6896
  151.3820  135.0946  159.9552 H   0  0  0  0  0  0  0  0  0  0  0  0  # atno 6909 bound_to 6896
  146.1435  139.6425  142.9147 H   0  0  0  0  0  0  0  0  0  0  0  0  # atno 7974 bound_to 7965
  155.4568  140.3460  155.4307 H   0  0  0  0  0  0  0  0  0  0  0  0  # atno 8008 bound_to 7997
  156.1186  140.1481  156.9267 H   0  0  0  0  0  0  0  0  0  0  0  0  # atno 8009 bound_to 7997
  154.4807  140.0871  156.7349 H   0  0  0  0  0  0  0  0  0  0  0  0  # atno 8010 bound_to 7997
  139.6045  144.7066  151.2985 H   0  0  0  0  0  0  0  0  0  0  0  0  # atno 10167 bound_to 10162
  156.0532  130.4286  150.1924 H   0  0  0  0  0  0  0  0  0  0  0  0  # atno 10718 bound_to 10713
  154.1339  135.6515  153.4928 H   0  0  0  0  0  0  0  0  0  0  0  0  # atno 10763 bound_to 10752
  153.0186  135.5299  154.6973 H   0  0  0  0  0  0  0  0  0  0  0  0  # atno 10764 bound_to 10752
  154.6215  135.2965  155.0291 H   0  0  0  0  0  0  0  0  0  0  0  0  # atno 10765 bound_to 10752
  140.7870  133.8317  155.9345 H   0  0  0  0  0  0  0  0  0  0  0  0  # atno 11005 bound_to 11000
  145.4992  141.0438  143.2550 LP  0  0  0  0  0  0  0  0  0  0  0  0  # atno 17320 bound_to 7965
  144.7819  139.6507  143.7150 LP  0  0  0  0  0  0  0  0  0  0  0  0  # atno 17321 bound_to 7965
  140.7275  143.6962  150.7881 LP  0  0  0  0  0  0  0  0  0  0  0  0  # atno 17342 bound_to 10162
  140.0545  143.5216  152.2657 LP  0  0  0  0  0  0  0  0  0  0  0  0  # atno 17343 bound_to 10162
  157.0004  130.9920  151.3392 LP  0  0  0  0  0  0  0  0  0  0  0  0  # atno 17370 bound_to 10713
  157.5479  130.8162  149.8108 LP  0  0  0  0  0  0  0  0  0  0  0  0  # atno 17371 bound_to 10713
  140.9426  134.1881  157.4786 LP  0  0  0  0  0  0  0  0  0  0  0  0  # atno 17394 bound_to 11000
  139.8735  134.9878  156.5383 LP  0  0  0  0  0  0  0  0  0  0  0  0  # atno 17395 bound_to 11000

$$$$
