AV-unprocessed.smi:44|AV-procd|sdf|398|dock1
  -GOLD-   2262016253D 1   1.00000     0.00000
 Structure written by MMmdl.
 29 31  0  0  0  0  0  0  0  0  1 V2000
  152.8070  137.3807  155.3942 O   0  0  0  0  0  0  0  0  0  0  0  0
  152.0597  138.3543  155.4609 C   0  0  0  0  0  0  0  0  0  0  0  0
  151.1503  138.6718  154.5070 N   0  0  0  0  0  0  0  0  0  0  0  0
  150.2860  139.7937  154.5777 C   0  0  0  0  0  0  0  0  0  0  0  0
  150.2548  140.6567  155.5607 N   0  0  0  0  0  0  0  0  0  0  0  0
  151.1727  140.3552  156.5465 C   0  0  0  0  0  0  0  0  0  0  0  0
  152.0552  139.3100  156.5930 C   0  0  0  0  0  0  0  0  0  0  0  0
  152.8200  139.3451  157.7518 N   0  0  0  0  0  0  0  0  0  0  0  0
  152.3544  140.4321  158.3640 C   0  0  0  0  0  0  0  0  0  0  0  0
  151.3758  141.0911  157.7096 N   0  0  0  0  0  0  0  0  0  0  0  0
  150.6526  142.3358  158.1240 C   0  0  2  0  0  0  0  0  0  0  0  0
  151.3176  143.5530  157.4801 C   0  0  0  0  0  0  0  0  0  0  0  0
  152.3586  143.9067  158.5184 C   0  0  0  0  0  0  0  0  0  0  0  0
  151.5982  143.6241  159.8138 C   0  0  2  0  0  0  0  0  0  0  0  0
  152.5155  143.3421  161.0133 C   0  0  0  0  0  0  0  0  0  0  0  0
  151.7590  142.8416  162.0942 O   0  0  0  0  0  0  0  0  0  0  0  0
  150.7926  142.4838  159.5085 O   0  0  0  0  0  0  0  0  0  0  0  0
  151.0919  138.0682  153.6998 H   0  0  0  0  0  0  0  0  0  0  0  0
  149.6167  142.1720  157.8254 H   0  0  0  0  0  0  0  0  0  0  0  0
  150.9404  144.4705  160.0202 H   0  0  0  0  0  0  0  0  0  0  0  0
  149.6276  139.8777  153.7121 H   0  0  0  0  0  0  0  0  0  0  0  0
  152.7420  140.7556  159.3178 H   0  0  0  0  0  0  0  0  0  0  0  0
  151.7265  143.3304  156.4937 H   0  0  0  0  0  0  0  0  0  0  0  0
  150.5782  144.3494  157.3872 H   0  0  0  0  0  0  0  0  0  0  0  0
  153.2254  143.2508  158.4239 H   0  0  0  0  0  0  0  0  0  0  0  0
  152.7015  144.9390  158.4437 H   0  0  0  0  0  0  0  0  0  0  0  0
  153.3136  142.6467  160.7547 H   0  0  0  0  0  0  0  0  0  0  0  0
  152.9884  144.2662  161.3473 H   0  0  0  0  0  0  0  0  0  0  0  0
  151.9080  143.3932  162.8469 H   0  0  0  0  0  0  0  0  0  0  0  0
  1  2  2  0  0  0  0
  2  7  1  0  0  0  0
  2  3  1  0  0  0  0
  3 18  1  0  0  0  0
  3  4  1  0  0  0  0
  4  5  2  0  0  0  0
  4 21  1  0  0  0  0
  5  6  1  0  0  0  0
  6 10  1  0  0  0  0
  6  7  2  0  0  0  0
  7  8  1  0  0  0  0
  8  9  2  0  0  0  0
  9 10  1  0  0  0  0
  9 22  1  0  0  0  0
 10 11  1  0  0  0  0
 11 19  1  0  0  0  0
 11 17  1  0  0  0  0
 11 12  1  0  0  0  0
 12 13  1  0  0  0  0
 12 23  1  0  0  0  0
 12 24  1  0  0  0  0
 13 14  1  0  0  0  0
 13 25  1  0  0  0  0
 13 26  1  0  0  0  0
 14 20  1  0  0  0  0
 14 15  1  0  0  0  0
 14 17  1  0  0  0  0
 15 16  1  0  0  0  0
 15 27  1  0  0  0  0
 15 28  1  0  0  0  0
 16 29  1  0  0  0  0
M  END
> <s_m_source_file>
AV-unprocessed.smi

> <i_m_source_file_index>
44

> <i_lp_mmshare_version>
43012

> <i_f3d_flags>
0

> <s_epik_input>
bjFbY0hdW25IXWMoPU8pYyhjMTIpbltjSF1uMltDQEhdM1tDSDJdW0NIMl1bQ0BIXShPMylbQ0gyXVtPSF0=

> <s_epik_cmdline>
J2VwaWtfcHl0aG9uJywgJy1waCcsICc3LjAnLCAnLXRuJywgJzgnLCAnLW1hJywgJzIwMCcsICctbWV0YWxfYmluZGluZycsICctaW1hZScsICc8aW5maWxlLm1hZT4nLCAnLW9tYWUnLCAnPG91dGZpbGUubWFlPic=

> <r_lp_tautomer_probability>
0.85571

> <r_epik_Ionization_Penalty>
0.00801444

> <r_epik_Ionization_Penalty_Charging>
0.00794574

> <r_epik_Ionization_Penalty_Neutral>
6.87072e-05

> <r_epik_State_Penalty>
0.0826172

> <r_epik_Charging_Adjusted_Penalty>
0.090563

> <i_epik_Tot_Q>
0

> <i_epik_Tot_abs_Q>
0

> <r_epik_Metal_State_Penalty>
0.440697

> <b_epik_Metal_Only>
0

> <s_epik_Chemistry_Notes>
This compound contains an acetal/aminal-like group ( X-CH(R)-Y where X, Y are N, S, or O) that may be acid/base labile, releasing an aldehyde.

> <s_lp_Force_Field>
OPLS_2005

> <r_lp_Energy>
40.4283

> <b_lp_Chiralities_Consistent>
1

> <s_lp_Variant>
AV-unprocessed.smi:44-4

> <Gold.Version>
5.8.1

> <Gold.Id.Protein>
6NUR|6NUR_protein|mol2

> <Gold.PLP.Fitness>
43.1796

> <Gold.PLP.PLP>
-34.5547

> <Gold.PLP.part.hbond>
-5.0106

> <Gold.PLP.part.metal>
0.0000

> <Gold.PLP.part.buried>
-3.8342

> <Gold.PLP.part.nonpolar>
-27.5072

> <Gold.PLP.part.repulsive>
0.2174

> <Gold.PLP.ligand.clash>
0.0000

> <Gold.PLP.ligand.torsion>
0.6885

> <Gold.PLP.Chemscore.Hbond>
2.3280

> <Gold.PLP.Chemscore.CHOScore>
1.0000

> <Gold.PLP.Chemscore.Metal>
0.0000

> <Gold.Chemscore.Hbonds>
donor molecule, donor type, donor heavy atom, donor atom, acceptor molecule, acceptor atom, score
      P1  H  6933  6945       L1    16  0.88
      P1  H  7997  8009       L1     8  0.91
      P1  H 10752 10765       L1     1  0.48
      L1  C     4    21       P1  7957  0.94

> <Gold.PLP.Chemscore.Internal.Correction>
0.0179

> <Gold.Rescore>
     Score         DG    S(hbond)    S(metal)    S(lipo)     H(rot)  DE(clash)    DE(int)     intcor
     10.83     -11.31       1.71        0.00      50.77       2.27       0.01       0.48       ----

> <Gold.Chemscore.Fitness>
10.8265

> <Gold.Chemscore.DG>
-11.3149

> <Gold.Chemscore.ZeroCoef>
-5.4800

> <Gold.Chemscore.Hbond>
1.7098

> <Gold.Chemscore.Metal>
0.0000

> <Gold.Chemscore.Lipo>
50.7747

> <Gold.Chemscore.Internal_Hbond>
0.0000

> <Gold.Chemscore.DEClash>
0.0052

> <Gold.Chemscore.DEInternal>
0.4832

> <Gold.Chemscore.Rot>
2.2720

> <Gold.Chemscore.Internal.Correction>
   9.000000E+99

> <Gold.Chemscore.Hbonds>
donor molecule, donor type, donor heavy atom, donor atom, acceptor molecule, acceptor atom, score
      P1  H  6933  6945       L1    16  0.66
      P1  H  7997  8009       L1     8  0.10
      P1  H 10752 10765       L1     1  0.48

> <Gold.Chemscore.Hbond.Weighted>
-5.7107

> <Gold.Chemscore.Metal.Weighted>
-0.0000

> <Gold.Chemscore.Lipo.Weighted>
-5.9406

> <Gold.Chemscore.Internal_Hbond.Weighted>
0.0000

> <Gold.Chemscore.DEClash.Weighted>
0.0052

> <Gold.Chemscore.DEInternal.Weighted>
0.4832

> <Gold.Chemscore.Rot.Weighted>
5.8164

> <Gold.Chemscore.Internal.Correction.Weighted>
   9.000000E+99

> <Gold.Protein.RotatedTorsions>
[ 6907 6896 6895 6894 ] final   71.78 input  -60.11 | X-H torsion
[ 7974 7965 7964 7962 ] final -164.39 input  175.53 | X-H torsion
[ 8008 7997 7996 7995 ] final  148.84 input   59.86 | X-H torsion
[ 10167 10162 10161 10158 ] final  -10.60 input  -65.29 | X-H torsion
[ 10718 10713 10712 10709 ] final  175.24 input   66.30 | X-H torsion
[ 10763 10752 10751 10750 ] final -159.76 input  -60.55 | X-H torsion
[ 11005 11000 10999 10996 ] final -161.51 input  -57.11 | X-H torsion

> <Gold.Protein.ActiveResidues>
 VAL166  LYS551  ARG553  GLY616  TRP617  ASP618  TYR619  PRO620  LYS621  CYS622 
 ASP623  PHE694  ASN695  SER759  ASP760  ASP761  ALA762  ILE779  LEU786  VAL792 
 PHE793  MET794  SER795  GLU796  ALA797  LYS798  CYS799  TRP800  GLU811  SER814 

> <Gold.Protein.RotatedAtoms>
  152.4830  134.4669  159.9622 H   0  0  0  0  0  0  0  0  0  0  0  0  # atno 6907 bound_to 6896
  151.4671  133.3572  159.2825 H   0  0  0  0  0  0  0  0  0  0  0  0  # atno 6908 bound_to 6896
  150.8918  134.8347  159.7359 H   0  0  0  0  0  0  0  0  0  0  0  0  # atno 6909 bound_to 6896
  144.7298  140.2968  143.6211 H   0  0  0  0  0  0  0  0  0  0  0  0  # atno 7974 bound_to 7965
  156.2777  140.2118  156.5762 H   0  0  0  0  0  0  0  0  0  0  0  0  # atno 8008 bound_to 7997
  154.7095  140.0513  157.0559 H   0  0  0  0  0  0  0  0  0  0  0  0  # atno 8009 bound_to 7997
  155.0624  140.3168  155.4659 H   0  0  0  0  0  0  0  0  0  0  0  0  # atno 8010 bound_to 7997
  140.7118  143.5731  150.9071 H   0  0  0  0  0  0  0  0  0  0  0  0  # atno 10167 bound_to 10162
  156.9378  130.9991  151.2974 H   0  0  0  0  0  0  0  0  0  0  0  0  # atno 10718 bound_to 10713
  154.7448  135.3077  154.8664 H   0  0  0  0  0  0  0  0  0  0  0  0  # atno 10763 bound_to 10752
  153.9468  135.6768  153.4748 H   0  0  0  0  0  0  0  0  0  0  0  0  # atno 10764 bound_to 10752
  153.1045  135.4896  154.8852 H   0  0  0  0  0  0  0  0  0  0  0  0  # atno 10765 bound_to 10752
  140.6196  134.4764  157.5222 H   0  0  0  0  0  0  0  0  0  0  0  0  # atno 11005 bound_to 11000
  145.7800  139.1888  143.2163 LP  0  0  0  0  0  0  0  0  0  0  0  0  # atno 17320 bound_to 7965
  146.0841  140.7730  142.9627 LP  0  0  0  0  0  0  0  0  0  0  0  0  # atno 17321 bound_to 7965
  139.9457  143.6330  152.3042 LP  0  0  0  0  0  0  0  0  0  0  0  0  # atno 17342 bound_to 10162
  139.6831  144.7654  151.1573 LP  0  0  0  0  0  0  0  0  0  0  0  0  # atno 17343 bound_to 10162
  157.5805  130.8373  149.8515 LP  0  0  0  0  0  0  0  0  0  0  0  0  # atno 17370 bound_to 10713
  156.0418  130.3737  150.1417 LP  0  0  0  0  0  0  0  0  0  0  0  0  # atno 17371 bound_to 10713
  139.9159  134.8248  156.1369 LP  0  0  0  0  0  0  0  0  0  0  0  0  # atno 17394 bound_to 11000
  141.0752  133.6779  156.2221 LP  0  0  0  0  0  0  0  0  0  0  0  0  # atno 17395 bound_to 11000

$$$$
