AV-unprocessed.smi:2336|AV-procd|sdf|9329|dock10
  -GOLD-   2272012553D 1   1.00000     0.00000
 Structure written by MMmdl.
 50 51  0  0  0  0  0  0  0  0  2 V2000
  146.6590  141.5736  154.0042 C   0  0  0  0  0  0  0  0  0  0  0  0
  147.8536  140.6693  154.3633 C   0  0  0  0  0  0  0  0  0  0  0  0
  149.0914  141.5564  154.6056 C   0  0  0  0  0  0  0  0  0  0  0  0
  148.1287  139.5671  153.2981 C   0  0  2  0  0  0  0  0  0  0  0  0
  146.8254  139.0315  152.6366 C   0  0  0  0  0  0  0  0  0  0  0  0
  146.9282  137.6407  152.2024 N   0  0  0  0  0  0  0  0  0  0  0  0
  145.9174  136.7617  152.1414 C   0  0  0  0  0  0  0  0  0  0  0  0
  144.7579  137.0370  152.4478 O   0  0  0  0  0  0  0  0  0  0  0  0
  146.3514  135.5547  151.7409 N   0  0  0  0  0  0  0  0  0  0  0  0
  145.6071  134.3570  151.5601 C   0  0  0  0  0  0  0  0  0  0  0  0
  144.2729  134.3141  151.0877 C   0  0  0  0  0  0  0  0  0  0  0  0
  143.6532  133.0578  150.9313 C   0  0  0  0  0  0  0  0  0  0  0  0
  144.2669  131.8865  151.2017 N   0  0  0  0  0  0  0  0  0  0  0  0
  145.5428  131.9308  151.6401 C   0  0  0  0  0  0  0  0  0  0  0  0
  146.2540  133.1327  151.8305 C   0  0  0  0  0  0  0  0  0  0  0  0
  147.5356  133.1077  152.2704 F   0  0  0  0  0  0  0  0  0  0  0  0
  148.9972  138.4989  153.8879 N   0  3  0  0  0  0  0  0  0  0  0  0
  148.3941  137.7297  155.0058 C   0  0  0  0  0  0  0  0  0  0  0  0
  149.2682  136.5037  155.3412 C   0  0  0  0  0  0  0  0  0  0  0  0
  150.6470  136.8791  155.6603 N   0  0  0  0  0  0  0  0  0  0  0  0
  150.7742  137.5601  156.9447 C   0  0  0  0  0  0  0  0  0  0  0  0
  151.2293  137.6341  154.5487 C   0  0  0  0  0  0  0  0  0  0  0  0
  150.3980  138.8847  154.1976 C   0  0  0  0  0  0  0  0  0  0  0  0
  146.7782  142.0168  153.0149 H   0  0  0  0  0  0  0  0  0  0  0  0
  146.5557  142.3896  154.7200 H   0  0  0  0  0  0  0  0  0  0  0  0
  145.7148  141.0298  154.0212 H   0  0  0  0  0  0  0  0  0  0  0  0
  147.6093  140.1860  155.3097 H   0  0  0  0  0  0  0  0  0  0  0  0
  149.4118  142.0487  153.6867 H   0  0  0  0  0  0  0  0  0  0  0  0
  149.9363  140.9864  154.9921 H   0  0  0  0  0  0  0  0  0  0  0  0
  148.8785  142.3353  155.3384 H   0  0  0  0  0  0  0  0  0  0  0  0
  148.7084  140.0507  152.5102 H   0  0  0  0  0  0  0  0  0  0  0  0
  145.9746  139.1869  153.3015 H   0  0  0  0  0  0  0  0  0  0  0  0
  146.6022  139.5969  151.7332 H   0  0  0  0  0  0  0  0  0  0  0  0
  147.8449  137.3221  151.9232 H   0  0  0  0  0  0  0  0  0  0  0  0
  147.3473  135.4619  151.6045 H   0  0  0  0  0  0  0  0  0  0  0  0
  143.7219  135.2055  150.8308 H   0  0  0  0  0  0  0  0  0  0  0  0
  142.6368  132.9928  150.5717 H   0  0  0  0  0  0  0  0  0  0  0  0
  146.0118  130.9792  151.8432 H   0  0  0  0  0  0  0  0  0  0  0  0
  148.2610  138.3493  155.8901 H   0  0  0  0  0  0  0  0  0  0  0  0
  147.4012  137.3847  154.7160 H   0  0  0  0  0  0  0  0  0  0  0  0
  148.8381  135.9460  156.1740 H   0  0  0  0  0  0  0  0  0  0  0  0
  149.2828  135.8224  154.4891 H   0  0  0  0  0  0  0  0  0  0  0  0
  151.8241  137.7574  157.1640 H   0  0  0  0  0  0  0  0  0  0  0  0
  150.3827  136.9317  157.7454 H   0  0  0  0  0  0  0  0  0  0  0  0
  150.2416  138.5102  156.9730 H   0  0  0  0  0  0  0  0  0  0  0  0
  152.2541  137.9152  154.7940 H   0  0  0  0  0  0  0  0  0  0  0  0
  151.2885  136.9796  153.6779 H   0  0  0  0  0  0  0  0  0  0  0  0
  150.8451  139.3770  153.3345 H   0  0  0  0  0  0  0  0  0  0  0  0
  150.4362  139.6011  155.0152 H   0  0  0  0  0  0  0  0  0  0  0  0
  149.0760  137.8184  153.1457 H   0  0  0  0  0  0  0  0  0  0  0  0
  1  2  1  0  0  0  0
  1 24  1  0  0  0  0
  1 25  1  0  0  0  0
  1 26  1  0  0  0  0
  2  3  1  0  0  0  0
  2  4  1  0  0  0  0
  2 27  1  0  0  0  0
  3 28  1  0  0  0  0
  3 29  1  0  0  0  0
  3 30  1  0  0  0  0
  4  5  1  0  0  0  0
  4 17  1  0  0  0  0
  4 31  1  0  0  0  0
  5  6  1  0  0  0  0
  5 32  1  0  0  0  0
  5 33  1  0  0  0  0
  6  7  1  0  0  0  0
  6 34  1  0  0  0  0
  7  8  2  0  0  0  0
  7  9  1  0  0  0  0
  9 10  1  0  0  0  0
  9 35  1  0  0  0  0
 10 15  1  0  0  0  0
 10 11  2  0  0  0  0
 11 12  1  0  0  0  0
 11 36  1  0  0  0  0
 12 13  2  0  0  0  0
 12 37  1  0  0  0  0
 13 14  1  0  0  0  0
 14 15  2  0  0  0  0
 14 38  1  0  0  0  0
 15 16  1  0  0  0  0
 17 23  1  0  0  0  0
 17 18  1  0  0  0  0
 17 50  1  0  0  0  0
 18 19  1  0  0  0  0
 18 39  1  0  0  0  0
 18 40  1  0  0  0  0
 19 20  1  0  0  0  0
 19 41  1  0  0  0  0
 19 42  1  0  0  0  0
 20 21  1  0  0  0  0
 20 22  1  0  0  0  0
 21 43  1  0  0  0  0
 21 44  1  0  0  0  0
 21 45  1  0  0  0  0
 22 23  1  0  0  0  0
 22 46  1  0  0  0  0
 22 47  1  0  0  0  0
 23 48  1  0  0  0  0
 23 49  1  0  0  0  0
M  CHG  1  17   1
M  END
> <s_m_source_file>
AV-unprocessed.smi

> <i_m_source_file_index>
2336

> <i_lp_mmshare_version>
43012

> <i_f3d_flags>
0

> <s_epik_input>
W0NIMl0xW0NIMl1OKFtDSDNdKVtDSDJdW0NIMl1OMVtDQEhdKFtDSF0oW0NIM10pW0NIM10pW0NIMl1bTkhdQyg9TylbTkhdYzJbY0hdW2NIXW5bY0hdYzJG

> <s_epik_cmdline>
J2VwaWtfcHl0aG9uJywgJy1waCcsICc3LjAnLCAnLXRuJywgJzgnLCAnLW1hJywgJzIwMCcsICctbWV0YWxfYmluZGluZycsICctaW1hZScsICc8aW5maWxlLm1hZT4nLCAnLW9tYWUnLCAnPG91dGZpbGUubWFlPic=

> <r_epik_Ionization_Penalty>
0.204575

> <r_epik_Ionization_Penalty_Charging>
0.20006

> <r_epik_Ionization_Penalty_Neutral>
0.00451444

> <r_epik_State_Penalty>
1.43207

> <r_epik_Charging_Adjusted_Penalty>
1.63213

> <i_epik_Tot_Q>
1

> <i_epik_Tot_abs_Q>
1

> <r_epik_Metal_State_Penalty>
1.43277

> <b_epik_Metal_Only>
0

> <s_lp_Force_Field>
OPLS_2005

> <r_lp_Energy>
38.6222

> <b_lp_Chiralities_Consistent>
1

> <s_lp_Variant>
AV-unprocessed.smi:2336-3

> <Gold.Version>
5.8.1

> <Gold.Id.Protein>
6NUR|6NUR_protein|mol2

> <Gold.PLP.Fitness>
49.6223

> <Gold.PLP.PLP>
-37.1844

> <Gold.PLP.part.hbond>
-3.4894

> <Gold.PLP.part.metal>
0.0000

> <Gold.PLP.part.buried>
-2.2575

> <Gold.PLP.part.nonpolar>
-33.6772

> <Gold.PLP.part.repulsive>
0.6282

> <Gold.PLP.ligand.clash>
0.0000

> <Gold.PLP.ligand.torsion>
1.3064

> <Gold.PLP.Chemscore.Hbond>
3.9440

> <Gold.PLP.Chemscore.CHOScore>
1.0000

> <Gold.PLP.Chemscore.Metal>
0.0000

> <Gold.Chemscore.Hbonds>
donor molecule, donor type, donor heavy atom, donor atom, acceptor molecule, acceptor atom, score
      L1  H     6    34       P1  7948  1.00
      L1  H     9    35       P1  7948  0.94
      L1  H    17    50       P1  7948  2.00
      L1  C    12    37       P1 10186  1.00

> <Gold.PLP.Chemscore.Internal.Correction>
0.2186

> <Gold.Rescore>
     Score         DG    S(hbond)    S(metal)    S(lipo)     H(rot)  DE(clash)    DE(int)     intcor
     18.68     -21.56       2.87        0.00      92.05       1.67       1.32       1.56       ----

> <Gold.Chemscore.Fitness>
18.6837

> <Gold.Chemscore.DG>
-21.5563

> <Gold.Chemscore.ZeroCoef>
-5.4800

> <Gold.Chemscore.Hbond>
2.8716

> <Gold.Chemscore.Metal>
0.0000

> <Gold.Chemscore.Lipo>
92.0530

> <Gold.Chemscore.Internal_Hbond>
0.0000

> <Gold.Chemscore.DEClash>
1.3163

> <Gold.Chemscore.DEInternal>
1.5564

> <Gold.Chemscore.Rot>
1.6739

> <Gold.Chemscore.Internal.Correction>
   9.000000E+99

> <Gold.Chemscore.Hbonds>
donor molecule, donor type, donor heavy atom, donor atom, acceptor molecule, acceptor atom, score
      L1  H     6    34       P1  7948  0.91
      L1  H     9    35       P1  7948  0.88
      L1  H    17    50       P1  7948  0.94

> <Gold.Chemscore.Hbond.Weighted>
-9.5913

> <Gold.Chemscore.Metal.Weighted>
-0.0000

> <Gold.Chemscore.Lipo.Weighted>
-10.7702

> <Gold.Chemscore.Internal_Hbond.Weighted>
0.0000

> <Gold.Chemscore.DEClash.Weighted>
1.3163

> <Gold.Chemscore.DEInternal.Weighted>
1.5564

> <Gold.Chemscore.Rot.Weighted>
4.2851

> <Gold.Chemscore.Internal.Correction.Weighted>
   9.000000E+99

> <Gold.Protein.RotatedTorsions>
[ 6907 6896 6895 6894 ] final -134.76 input  -60.11 | X-H torsion
[ 7974 7965 7964 7962 ] final  145.91 input  175.53 | X-H torsion
[ 8008 7997 7996 7995 ] final -128.62 input   59.86 | X-H torsion
[ 10167 10162 10161 10158 ] final  -29.33 input  -65.29 | X-H torsion
[ 10718 10713 10712 10709 ] final  -84.27 input   66.30 | X-H torsion
[ 10763 10752 10751 10750 ] final -156.99 input  -60.55 | X-H torsion
[ 11005 11000 10999 10996 ] final   71.66 input  -57.11 | X-H torsion

> <Gold.Protein.ActiveResidues>
 VAL166  LYS551  ARG553  GLY616  TRP617  ASP618  TYR619  PRO620  LYS621  CYS622 
 ASP623  PHE694  ASN695  SER759  ASP760  ASP761  ALA762  ILE779  LEU786  VAL792 
 PHE793  MET794  SER795  GLU796  ALA797  LYS798  CYS799  TRP800  GLU811  SER814 

> <Gold.Protein.RotatedAtoms>
  150.9897  133.6162  159.2709 H   0  0  0  0  0  0  0  0  0  0  0  0  # atno 6907 bound_to 6896
  151.3387  135.0857  159.9373 H   0  0  0  0  0  0  0  0  0  0  0  0  # atno 6908 bound_to 6896
  152.5242  133.9513  159.7727 H   0  0  0  0  0  0  0  0  0  0  0  0  # atno 6909 bound_to 6896
  144.8714  139.5840  143.5885 H   0  0  0  0  0  0  0  0  0  0  0  0  # atno 7974 bound_to 7965
  155.2658  140.0438  157.3002 H   0  0  0  0  0  0  0  0  0  0  0  0  # atno 8008 bound_to 7997
  154.5683  140.2366  155.8199 H   0  0  0  0  0  0  0  0  0  0  0  0  # atno 8009 bound_to 7997
  156.2103  140.3001  155.9725 H   0  0  0  0  0  0  0  0  0  0  0  0  # atno 8010 bound_to 7997
  140.7261  143.3937  151.1384 H   0  0  0  0  0  0  0  0  0  0  0  0  # atno 10167 bound_to 10162
  156.0008  130.4692  150.4385 H   0  0  0  0  0  0  0  0  0  0  0  0  # atno 10718 bound_to 10713
  154.7671  135.3134  154.8264 H   0  0  0  0  0  0  0  0  0  0  0  0  # atno 10763 bound_to 10752
  153.9010  135.6815  153.4759 H   0  0  0  0  0  0  0  0  0  0  0  0  # atno 10764 bound_to 10752
  153.1278  135.4793  154.9234 H   0  0  0  0  0  0  0  0  0  0  0  0  # atno 10765 bound_to 10752
  139.9532  134.7191  156.0814 H   0  0  0  0  0  0  0  0  0  0  0  0  # atno 11005 bound_to 11000
  146.2933  139.7202  142.9145 LP  0  0  0  0  0  0  0  0  0  0  0  0  # atno 17320 bound_to 7965
  145.4124  141.0398  143.3010 LP  0  0  0  0  0  0  0  0  0  0  0  0  # atno 17321 bound_to 7965
  139.7546  143.8726  152.3085 LP  0  0  0  0  0  0  0  0  0  0  0  0  # atno 17342 bound_to 10162
  139.8591  144.7126  150.9121 LP  0  0  0  0  0  0  0  0  0  0  0  0  # atno 17343 bound_to 10162
  157.2428  131.0529  151.2426 LP  0  0  0  0  0  0  0  0  0  0  0  0  # atno 17370 bound_to 10713
  157.3604  130.7128  149.6498 LP  0  0  0  0  0  0  0  0  0  0  0  0  # atno 17371 bound_to 10713
  141.1198  133.6616  156.3187 LP  0  0  0  0  0  0  0  0  0  0  0  0  # atno 17394 bound_to 11000
  140.5671  134.5877  157.5448 LP  0  0  0  0  0  0  0  0  0  0  0  0  # atno 17395 bound_to 11000

$$$$
