AV-unprocessed.smi:2865|AV-procd|sdf|11018|dock3
  -GOLD-   2272015483D 1   1.00000     0.00000
 Structure written by MMmdl.
 38 41  0  0  0  0  0  0  0  0  1 V2000
  149.9944  140.9408  157.3957 O   0  0  0  0  0  0  0  0  0  0  0  0
  149.7426  141.9850  156.7992 C   0  0  0  0  0  0  0  0  0  0  0  0
  148.7441  142.1400  155.9076 N   0  0  0  0  0  0  0  0  0  0  0  0
  147.8329  141.1684  155.4132 C   0  0  0  0  0  0  0  0  0  0  0  0
  146.7456  141.5969  154.6230 C   0  0  0  0  0  0  0  0  0  0  0  0
  145.8495  140.7295  154.1054 N   0  0  0  0  0  0  0  0  0  0  0  0
  146.0356  139.4356  154.3796 C   0  0  0  0  0  0  0  0  0  0  0  0
  145.0643  138.4723  153.7713 C   0  0  0  0  0  0  0  0  0  0  0  0
  143.6852  138.2788  154.3684 C   0  0  0  0  0  0  0  0  0  0  0  0
  144.7061  137.1808  154.4779 C   0  0  0  0  0  0  0  0  0  0  0  0
  147.0352  138.9094  155.0925 N   0  0  0  0  0  0  0  0  0  0  0  0
  147.9356  139.7697  155.6154 C   0  0  0  0  0  0  0  0  0  0  0  0
  150.4557  143.1023  157.0242 N   0  0  0  0  0  0  0  0  0  0  0  0
  151.5965  143.2775  157.9247 C   0  0  1  0  0  0  0  0  0  0  0  0
  152.0058  144.7468  158.0925 C   0  0  0  0  0  0  0  0  0  0  0  0
  151.8594  144.9457  159.6070 C   0  0  2  0  0  0  0  0  0  0  0  0
  152.9286  144.1778  160.3984 C   0  0  0  0  0  0  0  0  0  0  0  0
  152.4556  142.7319  160.2470 C   0  0  0  0  0  0  0  0  0  0  0  0
  151.2111  142.9039  159.3661 C   0  0  1  0  0  0  0  0  0  0  0  0
  150.7216  144.1410  159.8573 O   0  0  0  0  0  0  0  0  0  0  0  0
  148.6086  143.0771  155.5576 H   0  0  0  0  0  0  0  0  0  0  0  0
  146.5918  142.6429  154.4014 H   0  0  0  0  0  0  0  0  0  0  0  0
  145.1571  138.4496  152.6870 H   0  0  0  0  0  0  0  0  0  0  0  0
  143.4420  138.8278  155.2763 H   0  0  0  0  0  0  0  0  0  0  0  0
  142.8571  138.1281  153.6790 H   0  0  0  0  0  0  0  0  0  0  0  0
  144.5609  136.2958  153.8617 H   0  0  0  0  0  0  0  0  0  0  0  0
  145.1421  136.9992  155.4584 H   0  0  0  0  0  0  0  0  0  0  0  0
  148.7386  139.3141  156.1723 H   0  0  0  0  0  0  0  0  0  0  0  0
  150.1568  143.9326  156.5332 H   0  0  0  0  0  0  0  0  0  0  0  0
  152.4308  142.6587  157.5895 H   0  0  0  0  0  0  0  0  0  0  0  0
  153.0204  144.9435  157.7445 H   0  0  0  0  0  0  0  0  0  0  0  0
  151.3304  145.4159  157.5573 H   0  0  0  0  0  0  0  0  0  0  0  0
  151.7483  145.9879  159.9075 H   0  0  0  0  0  0  0  0  0  0  0  0
  153.9321  144.3399  160.0035 H   0  0  0  0  0  0  0  0  0  0  0  0
  152.9221  144.4730  161.4482 H   0  0  0  0  0  0  0  0  0  0  0  0
  153.2053  142.0839  159.7917 H   0  0  0  0  0  0  0  0  0  0  0  0
  152.1872  142.3139  161.2178 H   0  0  0  0  0  0  0  0  0  0  0  0
  150.5046  142.0766  159.4446 H   0  0  0  0  0  0  0  0  0  0  0  0
  1  2  2  0  0  0  0
  2  3  1  0  0  0  0
  2 13  1  0  0  0  0
  3  4  1  0  0  0  0
  3 21  1  0  0  0  0
  4 12  1  0  0  0  0
  4  5  2  0  0  0  0
  5  6  1  0  0  0  0
  5 22  1  0  0  0  0
  6  7  2  0  0  0  0
  7  8  1  0  0  0  0
  7 11  1  0  0  0  0
  8 10  1  0  0  0  0
  8  9  1  0  0  0  0
  8 23  1  0  0  0  0
  9 10  1  0  0  0  0
  9 24  1  0  0  0  0
  9 25  1  0  0  0  0
 10 26  1  0  0  0  0
 10 27  1  0  0  0  0
 11 12  2  0  0  0  0
 12 28  1  0  0  0  0
 13 14  1  0  0  0  0
 13 29  1  0  0  0  0
 14 19  1  0  0  0  0
 14 15  1  0  0  0  0
 14 30  1  0  0  0  0
 15 16  1  0  0  0  0
 15 31  1  0  0  0  0
 15 32  1  0  0  0  0
 16 20  1  0  0  0  0
 16 17  1  0  0  0  0
 16 33  1  0  0  0  0
 17 18  1  0  0  0  0
 17 34  1  0  0  0  0
 17 35  1  0  0  0  0
 18 19  1  0  0  0  0
 18 36  1  0  0  0  0
 18 37  1  0  0  0  0
 19 20  1  0  0  0  0
 19 38  1  0  0  0  0
M  END
> <s_m_source_file>
AV-unprocessed.smi

> <i_m_source_file_index>
2865

> <i_lp_mmshare_version>
43012

> <i_f3d_flags>
0

> <s_epik_input>
W0NIMl0xW0NIMl1bQ0BIXShPMilbQ0BASF0oW0NIMl1bQ0BASF0xMilbTkhdQyg9TylbTkhdYzNbY0hdbmMobltjSF0zKVtDSF00W0NIMl1bQ0gyXTQ=

> <s_epik_cmdline>
J2VwaWtfcHl0aG9uJywgJy1waCcsICc3LjAnLCAnLXRuJywgJzgnLCAnLW1hJywgJzIwMCcsICctbWV0YWxfYmluZGluZycsICctaW1hZScsICc8aW5maWxlLm1hZT4nLCAnLW9tYWUnLCAnPG91dGZpbGUubWFlPic=

> <r_lp_tautomer_probability>
1

> <r_epik_Ionization_Penalty>
2.43104e-05

> <r_epik_Ionization_Penalty_Charging>
0

> <r_epik_Ionization_Penalty_Neutral>
2.43104e-05

> <r_epik_State_Penalty>
-0

> <r_epik_Charging_Adjusted_Penalty>
0

> <i_epik_Tot_Q>
0

> <i_epik_Tot_abs_Q>
0

> <r_epik_Metal_State_Penalty>
-0

> <b_epik_Metal_Only>
0

> <s_lp_Force_Field>
OPLS_2005

> <r_lp_Energy>
45.9934

> <b_lp_Chiralities_Consistent>
1

> <s_lp_Variant>
AV-unprocessed.smi:2865-4

> <Gold.Version>
5.8.1

> <Gold.Id.Protein>
6NUR|6NUR_protein|mol2

> <Gold.PLP.Fitness>
42.6271

> <Gold.PLP.PLP>
-37.8030

> <Gold.PLP.part.hbond>
-2.6830

> <Gold.PLP.part.metal>
0.0000

> <Gold.PLP.part.buried>
0.1566

> <Gold.PLP.part.nonpolar>
-35.2426

> <Gold.PLP.part.repulsive>
1.2181

> <Gold.PLP.ligand.clash>
0.0000

> <Gold.PLP.ligand.torsion>
0.6622

> <Gold.PLP.Chemscore.Hbond>
2.0000

> <Gold.PLP.Chemscore.CHOScore>
0.0000

> <Gold.PLP.Chemscore.Metal>
0.0000

> <Gold.Chemscore.Hbonds>
donor molecule, donor type, donor heavy atom, donor atom, acceptor molecule, acceptor atom, score
      L1  H     3    21       P1  8028  1.00
      L1  H    13    29       P1  8028  0.96

> <Gold.PLP.Chemscore.Internal.Correction>
0.1485

> <Gold.Rescore>
     Score         DG    S(hbond)    S(metal)    S(lipo)     H(rot)  DE(clash)    DE(int)     intcor
     17.74     -21.64       1.93        0.00     109.21       1.20       2.41       1.49       ----

> <Gold.Chemscore.Fitness>
17.7428

> <Gold.Chemscore.DG>
-21.6422

> <Gold.Chemscore.ZeroCoef>
-5.4800

> <Gold.Chemscore.Hbond>
1.9340

> <Gold.Chemscore.Metal>
0.0000

> <Gold.Chemscore.Lipo>
109.2132

> <Gold.Chemscore.Internal_Hbond>
0.0000

> <Gold.Chemscore.DEClash>
2.4126

> <Gold.Chemscore.DEInternal>
1.4869

> <Gold.Chemscore.Rot>
1.2012

> <Gold.Chemscore.Internal.Correction>
   9.000000E+99

> <Gold.Chemscore.Hbonds>
donor molecule, donor type, donor heavy atom, donor atom, acceptor molecule, acceptor atom, score
      L1  H     3    21       P1  8028  0.96
      L1  H    13    29       P1  8028  0.92

> <Gold.Chemscore.Hbond.Weighted>
-6.4595

> <Gold.Chemscore.Metal.Weighted>
-0.0000

> <Gold.Chemscore.Lipo.Weighted>
-12.7779

> <Gold.Chemscore.Internal_Hbond.Weighted>
0.0000

> <Gold.Chemscore.DEClash.Weighted>
2.4126

> <Gold.Chemscore.DEInternal.Weighted>
1.4869

> <Gold.Chemscore.Rot.Weighted>
3.0752

> <Gold.Chemscore.Internal.Correction.Weighted>
   9.000000E+99

> <Gold.Protein.RotatedTorsions>
[ 6907 6896 6895 6894 ] final   -9.63 input  -60.11 | X-H torsion
[ 7974 7965 7964 7962 ] final  -10.50 input  175.53 | X-H torsion
[ 8008 7997 7996 7995 ] final  -55.46 input   59.86 | X-H torsion
[ 10167 10162 10161 10158 ] final  128.99 input  -65.29 | X-H torsion
[ 10718 10713 10712 10709 ] final -156.17 input   66.30 | X-H torsion
[ 10763 10752 10751 10750 ] final  -50.97 input  -60.55 | X-H torsion
[ 11005 11000 10999 10996 ] final -176.20 input  -57.11 | X-H torsion

> <Gold.Protein.ActiveResidues>
 VAL166  LYS551  ARG553  GLY616  TRP617  ASP618  TYR619  PRO620  LYS621  CYS622 
 ASP623  PHE694  ASN695  SER759  ASP760  ASP761  ALA762  ILE779  LEU786  VAL792 
 PHE793  MET794  SER795  GLU796  ALA797  LYS798  CYS799  TRP800  GLU811  SER814 

> <Gold.Protein.RotatedAtoms>
  151.4148  135.0990  159.9595 H   0  0  0  0  0  0  0  0  0  0  0  0  # atno 6907 bound_to 6896
  152.5008  133.8763  159.7334 H   0  0  0  0  0  0  0  0  0  0  0  0  # atno 6908 bound_to 6896
  150.9266  133.6759  159.2848 H   0  0  0  0  0  0  0  0  0  0  0  0  # atno 6909 bound_to 6896
  146.2218  140.2773  142.8360 H   0  0  0  0  0  0  0  0  0  0  0  0  # atno 7974 bound_to 7965
  154.4196  140.1152  156.5480 H   0  0  0  0  0  0  0  0  0  0  0  0  # atno 8008 bound_to 7997
  155.6439  140.3496  155.4705 H   0  0  0  0  0  0  0  0  0  0  0  0  # atno 8009 bound_to 7997
  155.9848  140.1167  157.0683 H   0  0  0  0  0  0  0  0  0  0  0  0  # atno 8010 bound_to 7997
  139.5500  144.6805  151.4354 H   0  0  0  0  0  0  0  0  0  0  0  0  # atno 10167 bound_to 10162
  156.5228  130.8486  151.2688 H   0  0  0  0  0  0  0  0  0  0  0  0  # atno 10718 bound_to 10713
  154.1189  135.6537  153.4899 H   0  0  0  0  0  0  0  0  0  0  0  0  # atno 10763 bound_to 10752
  153.0232  135.5265  154.7116 H   0  0  0  0  0  0  0  0  0  0  0  0  # atno 10764 bound_to 10752
  154.6318  135.2977  155.0177 H   0  0  0  0  0  0  0  0  0  0  0  0  # atno 10765 bound_to 10752
  140.4547  134.6310  157.4817 H   0  0  0  0  0  0  0  0  0  0  0  0  # atno 11005 bound_to 11000
  144.9223  140.7882  143.5741 LP  0  0  0  0  0  0  0  0  0  0  0  0  # atno 17320 bound_to 7965
  145.2711  139.1954  143.4841 LP  0  0  0  0  0  0  0  0  0  0  0  0  # atno 17321 bound_to 7965
  140.6759  143.8190  150.7058 LP  0  0  0  0  0  0  0  0  0  0  0  0  # atno 17342 bound_to 10162
  140.1628  143.4260  152.2055 LP  0  0  0  0  0  0  0  0  0  0  0  0  # atno 17343 bound_to 10162
  157.7434  130.9911  150.2590 LP  0  0  0  0  0  0  0  0  0  0  0  0  # atno 17370 bound_to 10713
  156.3133  130.3775  149.7642 LP  0  0  0  0  0  0  0  0  0  0  0  0  # atno 17371 bound_to 10713
  139.9984  134.6875  155.9571 LP  0  0  0  0  0  0  0  0  0  0  0  0  # atno 17394 bound_to 11000
  141.1648  133.6537  156.4442 LP  0  0  0  0  0  0  0  0  0  0  0  0  # atno 17395 bound_to 11000

$$$$
