AV-unprocessed.smi:3127|AV-procd|sdf|11916|dock1
  -GOLD-   2272017293D 1   1.00000     0.00000
 Structure written by MMmdl.
 33 34  0  0  0  0  0  0  0  0  1 V2000
  151.9448  145.2237  160.3790 C   0  0  0  0  0  0  0  0  0  0  0  0
  151.6212  144.1804  159.2882 C   0  0  0  0  0  0  0  0  0  0  0  0
  150.0888  144.0354  159.2085 C   0  0  0  0  0  0  0  0  0  0  0  0
  152.1680  144.7093  157.9474 C   0  0  0  0  0  0  0  0  0  0  0  0
  152.2502  142.8392  159.6100 C   0  0  0  0  0  0  0  0  0  0  0  0
  153.1162  142.5307  160.6343 C   0  0  0  0  0  0  0  0  0  0  0  0
  153.5924  140.8553  160.6167 S   0  0  0  0  0  0  0  0  0  0  0  0
  152.5712  140.6104  159.2081 C   0  0  0  0  0  0  0  0  0  0  0  0
  152.4595  139.2960  158.5043 C   0  0  2  0  0  0  0  0  0  0  0  0
  152.0247  138.1610  159.4516 C   0  0  0  0  0  0  0  0  0  0  0  0
  152.0078  136.8847  158.7385 N   0  0  0  0  0  0  0  0  0  0  0  0
  153.2999  136.6141  158.1095 C   0  0  0  0  0  0  0  0  0  0  0  0
  153.7085  137.7863  157.1990 C   0  0  0  0  0  0  0  0  0  0  0  0
  153.7400  138.9912  157.9563 O   0  0  0  0  0  0  0  0  0  0  0  0
  151.9618  141.7292  158.8053 N   0  0  0  0  0  0  0  0  0  0  0  0
  151.4897  146.1886  160.1525 H   0  0  0  0  0  0  0  0  0  0  0  0
  153.0193  145.3868  160.4708 H   0  0  0  0  0  0  0  0  0  0  0  0
  151.5716  144.9118  161.3552 H   0  0  0  0  0  0  0  0  0  0  0  0
  149.6766  143.6664  160.1485 H   0  0  0  0  0  0  0  0  0  0  0  0
  149.7909  143.3392  158.4237 H   0  0  0  0  0  0  0  0  0  0  0  0
  149.6098  144.9908  158.9917 H   0  0  0  0  0  0  0  0  0  0  0  0
  151.7440  145.6836  157.7015 H   0  0  0  0  0  0  0  0  0  0  0  0
  151.9307  144.0366  157.1225 H   0  0  0  0  0  0  0  0  0  0  0  0
  153.2524  144.8207  157.9781 H   0  0  0  0  0  0  0  0  0  0  0  0
  153.5090  143.1841  161.3987 H   0  0  0  0  0  0  0  0  0  0  0  0
  151.7361  139.4078  157.6944 H   0  0  0  0  0  0  0  0  0  0  0  0
  152.7121  138.1021  160.2964 H   0  0  0  0  0  0  0  0  0  0  0  0
  151.0377  138.3724  159.8638 H   0  0  0  0  0  0  0  0  0  0  0  0
  151.7818  136.1367  159.3866 H   0  0  0  0  0  0  0  0  0  0  0  0
  154.0617  136.4636  158.8753 H   0  0  0  0  0  0  0  0  0  0  0  0
  153.2493  135.6909  157.5319 H   0  0  0  0  0  0  0  0  0  0  0  0
  154.6988  137.6078  156.7798 H   0  0  0  0  0  0  0  0  0  0  0  0
  153.0202  137.8867  156.3581 H   0  0  0  0  0  0  0  0  0  0  0  0
  1  2  1  0  0  0  0
  1 16  1  0  0  0  0
  1 17  1  0  0  0  0
  1 18  1  0  0  0  0
  2  3  1  0  0  0  0
  2  4  1  0  0  0  0
  2  5  1  0  0  0  0
  3 19  1  0  0  0  0
  3 20  1  0  0  0  0
  3 21  1  0  0  0  0
  4 22  1  0  0  0  0
  4 23  1  0  0  0  0
  4 24  1  0  0  0  0
  5 15  1  0  0  0  0
  5  6  2  0  0  0  0
  6  7  1  0  0  0  0
  6 25  1  0  0  0  0
  7  8  1  0  0  0  0
  8  9  1  0  0  0  0
  8 15  2  0  0  0  0
  9 14  1  0  0  0  0
  9 10  1  0  0  0  0
  9 26  1  0  0  0  0
 10 11  1  0  0  0  0
 10 27  1  0  0  0  0
 10 28  1  0  0  0  0
 11 12  1  0  0  0  0
 11 29  1  0  0  0  0
 12 13  1  0  0  0  0
 12 30  1  0  0  0  0
 12 31  1  0  0  0  0
 13 14  1  0  0  0  0
 13 32  1  0  0  0  0
 13 33  1  0  0  0  0
M  END
> <s_m_source_file>
AV-unprocessed.smi

> <i_m_source_file_index>
3127

> <i_lp_mmshare_version>
43012

> <i_f3d_flags>
0

> <s_epik_input>
W0NIM11DKFtDSDNdKShbQ0gzXSljMVtjSF1zYyhuMSlbQ0BASF0yW0NIMl1bTkhdW0NIMl1bQ0gyXU8y

> <s_epik_cmdline>
J2VwaWtfcHl0aG9uJywgJy1waCcsICc3LjAnLCAnLXRuJywgJzgnLCAnLW1hJywgJzIwMCcsICctbWV0YWxfYmluZGluZycsICctaW1hZScsICc8aW5maWxlLm1hZT4nLCAnLW9tYWUnLCAnPG91dGZpbGUubWFlPic=

> <r_epik_Ionization_Penalty>
0.982256

> <r_epik_Ionization_Penalty_Charging>
0

> <r_epik_Ionization_Penalty_Neutral>
0.982256

> <r_epik_State_Penalty>
2.16535

> <r_epik_Charging_Adjusted_Penalty>
2.16535

> <i_epik_Tot_Q>
0

> <i_epik_Tot_abs_Q>
0

> <r_epik_Metal_State_Penalty>
2.16345

> <b_epik_Metal_Only>
0

> <s_lp_Force_Field>
OPLS_2005

> <r_lp_Energy>
6.45537

> <b_lp_Chiralities_Consistent>
1

> <s_lp_Variant>
AV-unprocessed.smi:3127-3

> <Gold.Version>
5.8.1

> <Gold.Id.Protein>
6NUR|6NUR_protein|mol2

> <Gold.PLP.Fitness>
37.8083

> <Gold.PLP.PLP>
-35.1609

> <Gold.PLP.part.hbond>
-1.9644

> <Gold.PLP.part.metal>
0.0000

> <Gold.PLP.part.buried>
-4.3563

> <Gold.PLP.part.nonpolar>
-28.5456

> <Gold.PLP.part.repulsive>
0.0000

> <Gold.PLP.ligand.clash>
0.0000

> <Gold.PLP.ligand.torsion>
0.1821

> <Gold.PLP.Chemscore.Hbond>
1.0000

> <Gold.PLP.Chemscore.CHOScore>
0.0000

> <Gold.PLP.Chemscore.Metal>
0.0000

> <Gold.Chemscore.Hbonds>
donor molecule, donor type, donor heavy atom, donor atom, acceptor molecule, acceptor atom, score
      P1  H  7997  8008       L1    14  1.00

> <Gold.PLP.Chemscore.Internal.Correction>
0.0116

> <Gold.Rescore>
     Score         DG    S(hbond)    S(metal)    S(lipo)     H(rot)  DE(clash)    DE(int)     intcor
     17.94     -18.21       0.96        0.00     105.90       1.12       0.07       0.20       ----

> <Gold.Chemscore.Fitness>
17.9377

> <Gold.Chemscore.DG>
-18.2128

> <Gold.Chemscore.ZeroCoef>
-5.4800

> <Gold.Chemscore.Hbond>
0.9586

> <Gold.Chemscore.Metal>
0.0000

> <Gold.Chemscore.Lipo>
105.8977

> <Gold.Chemscore.Internal_Hbond>
0.0000

> <Gold.Chemscore.DEClash>
0.0718

> <Gold.Chemscore.DEInternal>
0.2033

> <Gold.Chemscore.Rot>
1.1167

> <Gold.Chemscore.Internal.Correction>
   9.000000E+99

> <Gold.Chemscore.Hbonds>
donor molecule, donor type, donor heavy atom, donor atom, acceptor molecule, acceptor atom, score
      P1  H  7997  8008       L1    14  0.60

> <Gold.Chemscore.Hbond.Weighted>
-3.2016

> <Gold.Chemscore.Metal.Weighted>
-0.0000

> <Gold.Chemscore.Lipo.Weighted>
-12.3900

> <Gold.Chemscore.Internal_Hbond.Weighted>
0.0000

> <Gold.Chemscore.DEClash.Weighted>
0.0718

> <Gold.Chemscore.DEInternal.Weighted>
0.2033

> <Gold.Chemscore.Rot.Weighted>
2.8588

> <Gold.Chemscore.Internal.Correction.Weighted>
   9.000000E+99

> <Gold.Protein.RotatedTorsions>
[ 6907 6896 6895 6894 ] final   79.12 input  -60.11 | X-H torsion
[ 7974 7965 7964 7962 ] final    0.89 input  175.53 | X-H torsion
[ 8008 7997 7996 7995 ] final -103.48 input   59.86 | X-H torsion
[ 10167 10162 10161 10158 ] final -107.83 input  -65.29 | X-H torsion
[ 10718 10713 10712 10709 ] final  -69.08 input   66.30 | X-H torsion
[ 10763 10752 10751 10750 ] final   94.68 input  -60.55 | X-H torsion
[ 11005 11000 10999 10996 ] final   38.76 input  -57.11 | X-H torsion

> <Gold.Protein.ActiveResidues>
 VAL166  LYS551  ARG553  GLY616  TRP617  ASP618  TYR619  PRO620  LYS621  CYS622 
 ASP623  PHE694  ASN695  SER759  ASP760  ASP761  ALA762  ILE779  LEU786  VAL792 
 PHE793  MET794  SER795  GLU796  ALA797  LYS798  CYS799  TRP800  GLU811  SER814 

> <Gold.Protein.RotatedAtoms>
  152.5186  134.3559  159.9267 H   0  0  0  0  0  0  0  0  0  0  0  0  # atno 6907 bound_to 6896
  151.3510  133.3919  159.2688 H   0  0  0  0  0  0  0  0  0  0  0  0  # atno 6908 bound_to 6896
  150.9727  134.9115  159.7855 H   0  0  0  0  0  0  0  0  0  0  0  0  # atno 6909 bound_to 6896
  146.2437  140.1069  142.8345 H   0  0  0  0  0  0  0  0  0  0  0  0  # atno 7974 bound_to 7965
  154.8716  140.0422  157.1728 H   0  0  0  0  0  0  0  0  0  0  0  0  # atno 8008 bound_to 7997
  154.8733  140.2961  155.5447 H   0  0  0  0  0  0  0  0  0  0  0  0  # atno 8009 bound_to 7997
  156.2999  140.2425  156.3725 H   0  0  0  0  0  0  0  0  0  0  0  0  # atno 8010 bound_to 7997
  140.1727  143.4029  152.1342 H   0  0  0  0  0  0  0  0  0  0  0  0  # atno 10167 bound_to 10162
  156.0473  130.4306  150.2095 H   0  0  0  0  0  0  0  0  0  0  0  0  # atno 10718 bound_to 10713
  153.2445  135.4281  155.0733 H   0  0  0  0  0  0  0  0  0  0  0  0  # atno 10763 bound_to 10752
  154.8355  135.3411  154.6602 H   0  0  0  0  0  0  0  0  0  0  0  0  # atno 10764 bound_to 10752
  153.7024  135.7027  153.5116 H   0  0  0  0  0  0  0  0  0  0  0  0  # atno 10765 bound_to 10752
  140.2094  134.3774  155.8056 H   0  0  0  0  0  0  0  0  0  0  0  0  # atno 11005 bound_to 11000
  145.0520  140.9025  143.4990 LP  0  0  0  0  0  0  0  0  0  0  0  0  # atno 17320 bound_to 7965
  145.1169  139.2719  143.5608 LP  0  0  0  0  0  0  0  0  0  0  0  0  # atno 17321 bound_to 7965
  139.5330  144.7180  151.4988 LP  0  0  0  0  0  0  0  0  0  0  0  0  # atno 17342 bound_to 10162
  140.6571  143.8576  150.6847 LP  0  0  0  0  0  0  0  0  0  0  0  0  # atno 17343 bound_to 10162
  157.0183  130.9972  151.3347 LP  0  0  0  0  0  0  0  0  0  0  0  0  # atno 17370 bound_to 10713
  157.5362  130.8090  149.7974 LP  0  0  0  0  0  0  0  0  0  0  0  0  # atno 17371 bound_to 10713
  141.2226  133.7135  156.8392 LP  0  0  0  0  0  0  0  0  0  0  0  0  # atno 17394 bound_to 11000
  140.1967  134.8926  157.3123 LP  0  0  0  0  0  0  0  0  0  0  0  0  # atno 17395 bound_to 11000

$$$$
