AV-unprocessed.smi:1274|AV-procd|sdf|5340|dock5
  -GOLD-   22720 4473D 1   1.00000     0.00000
 Structure written by MMmdl.
 37 38  0  0  0  0  0  0  0  0  1 V2000
  152.7813  139.7682  154.9251 O   0  0  0  0  0  0  0  0  0  0  0  0
  151.7408  138.7570  155.1652 S   0  0  0  0  0  0  0  0  0  0  0  0
  151.9001  137.3779  154.6787 O   0  0  0  0  0  0  0  0  0  0  0  0
  151.3969  138.6856  156.8547 N   0  0  0  0  0  0  0  0  0  0  0  0
  151.1657  139.9201  157.6077 C   0  0  0  0  0  0  0  0  0  0  0  0
  152.4834  140.6501  157.9241 C   0  0  0  0  0  0  0  0  0  0  0  0
  152.2718  142.0938  158.3448 C   0  0  0  0  0  0  0  0  0  0  0  0
  152.8224  142.5857  159.5458 C   0  0  0  0  0  0  0  0  0  0  0  0
  152.5821  143.9266  159.9028 C   0  0  0  0  0  0  0  0  0  0  0  0
  151.7988  144.7200  159.0408 C   0  0  0  0  0  0  0  0  0  0  0  0
  151.2676  144.2605  157.8875 N   0  0  0  0  0  0  0  0  0  0  0  0
  151.5050  142.9744  157.5516 C   0  0  0  0  0  0  0  0  0  0  0  0
  150.2290  139.3857  154.5988 N   0  0  0  0  0  0  0  0  0  0  0  0
  149.0669  138.4705  154.6252 C   0  0  0  0  0  0  0  0  0  0  0  0
  147.8976  139.0147  153.7885 C   0  0  0  0  0  0  0  0  0  0  0  0
  147.5091  140.4267  154.2341 C   0  0  0  0  0  0  0  0  0  0  0  0
  148.7379  141.3361  154.1522 C   0  0  0  0  0  0  0  0  0  0  0  0
  149.9062  140.7752  154.9808 C   0  0  0  0  0  0  0  0  0  0  0  0
  152.0115  138.0342  157.3426 H   0  0  0  0  0  0  0  0  0  0  0  0
  150.5204  140.5682  157.0142 H   0  0  0  0  0  0  0  0  0  0  0  0
  150.6228  139.6886  158.5245 H   0  0  0  0  0  0  0  0  0  0  0  0
  153.0018  140.1271  158.7286 H   0  0  0  0  0  0  0  0  0  0  0  0
  153.1572  140.6153  157.0682 H   0  0  0  0  0  0  0  0  0  0  0  0
  153.4141  141.9467  160.1849 H   0  0  0  0  0  0  0  0  0  0  0  0
  152.9861  144.3372  160.8163 H   0  0  0  0  0  0  0  0  0  0  0  0
  151.5929  145.7517  159.2846 H   0  0  0  0  0  0  0  0  0  0  0  0
  151.0607  142.6373  156.6267 H   0  0  0  0  0  0  0  0  0  0  0  0
  149.3524  137.4903  154.2453 H   0  0  0  0  0  0  0  0  0  0  0  0
  148.7551  138.3253  155.6603 H   0  0  0  0  0  0  0  0  0  0  0  0
  148.1763  139.0252  152.7339 H   0  0  0  0  0  0  0  0  0  0  0  0
  147.0394  138.3480  153.8743 H   0  0  0  0  0  0  0  0  0  0  0  0
  146.7076  140.8151  153.6052 H   0  0  0  0  0  0  0  0  0  0  0  0
  147.1278  140.4044  155.2558 H   0  0  0  0  0  0  0  0  0  0  0  0
  149.0465  141.4416  153.1113 H   0  0  0  0  0  0  0  0  0  0  0  0
  148.4831  142.3369  154.5018 H   0  0  0  0  0  0  0  0  0  0  0  0
  149.6656  140.8022  156.0445 H   0  0  0  0  0  0  0  0  0  0  0  0
  150.7831  141.4072  154.8396 H   0  0  0  0  0  0  0  0  0  0  0  0
  1  2  2  0  0  0  0
  2  3  2  0  0  0  0
  2  4  1  0  0  0  0
  2 13  1  0  0  0  0
  4  5  1  0  0  0  0
  4 19  1  0  0  0  0
  5  6  1  0  0  0  0
  5 20  1  0  0  0  0
  5 21  1  0  0  0  0
  6  7  1  0  0  0  0
  6 22  1  0  0  0  0
  6 23  1  0  0  0  0
  7 12  1  0  0  0  0
  7  8  2  0  0  0  0
  8  9  1  0  0  0  0
  8 24  1  0  0  0  0
  9 10  2  0  0  0  0
  9 25  1  0  0  0  0
 10 11  1  0  0  0  0
 10 26  1  0  0  0  0
 11 12  2  0  0  0  0
 12 27  1  0  0  0  0
 13 18  1  0  0  0  0
 13 14  1  0  0  0  0
 14 15  1  0  0  0  0
 14 28  1  0  0  0  0
 14 29  1  0  0  0  0
 15 16  1  0  0  0  0
 15 30  1  0  0  0  0
 15 31  1  0  0  0  0
 16 17  1  0  0  0  0
 16 32  1  0  0  0  0
 16 33  1  0  0  0  0
 17 18  1  0  0  0  0
 17 34  1  0  0  0  0
 17 35  1  0  0  0  0
 18 36  1  0  0  0  0
 18 37  1  0  0  0  0
M  END
> <s_m_source_file>
AV-unprocessed.smi

> <i_m_source_file_index>
1274

> <i_lp_mmshare_version>
43012

> <i_f3d_flags>
0

> <s_epik_input>
W0NIMl0xW0NIMl1bQ0gyXVtDSDJdW0NIMl1OMVMoPU8pKD1PKVtOSF1bQ0gyXVtDSDJdYzJbY0hdW2NIXVtjSF1uW2NIXTI=

> <s_epik_cmdline>
J2VwaWtfcHl0aG9uJywgJy1waCcsICc3LjAnLCAnLXRuJywgJzgnLCAnLW1hJywgJzIwMCcsICctbWV0YWxfYmluZGluZycsICctaW1hZScsICc8aW5maWxlLm1hZT4nLCAnLW9tYWUnLCAnPG91dGZpbGUubWFlPic=

> <r_epik_Ionization_Penalty>
0.0259724

> <r_epik_Ionization_Penalty_Charging>
0

> <r_epik_Ionization_Penalty_Neutral>
0.0259724

> <r_epik_State_Penalty>
0.0167858

> <r_epik_Charging_Adjusted_Penalty>
0.0167858

> <i_epik_Tot_Q>
0

> <i_epik_Tot_abs_Q>
0

> <r_epik_Metal_State_Penalty>
0.268382

> <b_epik_Metal_Only>
0

> <s_lp_Force_Field>
OPLS_2005

> <r_lp_Energy>
7.33886

> <b_lp_Chiralities_Consistent>
1

> <s_lp_Variant>
AV-unprocessed.smi:1274-1

> <Gold.Version>
5.8.1

> <Gold.Id.Protein>
6NUR|6NUR_protein|mol2

> <Gold.PLP.Fitness>
42.7308

> <Gold.PLP.PLP>
-36.6495

> <Gold.PLP.part.hbond>
-3.1490

> <Gold.PLP.part.metal>
0.0000

> <Gold.PLP.part.buried>
-3.5287

> <Gold.PLP.part.nonpolar>
-29.6407

> <Gold.PLP.part.repulsive>
0.4102

> <Gold.PLP.ligand.clash>
0.0000

> <Gold.PLP.ligand.torsion>
0.6032

> <Gold.PLP.Chemscore.Hbond>
2.1760

> <Gold.PLP.Chemscore.CHOScore>
0.0000

> <Gold.PLP.Chemscore.Metal>
0.0000

> <Gold.Chemscore.Hbonds>
donor molecule, donor type, donor heavy atom, donor atom, acceptor molecule, acceptor atom, score
      P1  H  7989  7998       L1     1  0.31
      P1  H  7997  8009       L1     1  1.00
      P1  H 10752 10763       L1     3  0.92

> <Gold.PLP.Chemscore.Internal.Correction>
0.7595

> <Gold.Rescore>
     Score         DG    S(hbond)    S(metal)    S(lipo)     H(rot)  DE(clash)    DE(int)     intcor
     18.23     -19.06       1.96        0.00      97.04       1.69       0.22       0.61       ----

> <Gold.Chemscore.Fitness>
18.2331

> <Gold.Chemscore.DG>
-19.0637

> <Gold.Chemscore.ZeroCoef>
-5.4800

> <Gold.Chemscore.Hbond>
1.9622

> <Gold.Chemscore.Metal>
0.0000

> <Gold.Chemscore.Lipo>
97.0429

> <Gold.Chemscore.Internal_Hbond>
0.0000

> <Gold.Chemscore.DEClash>
0.2185

> <Gold.Chemscore.DEInternal>
0.6122

> <Gold.Chemscore.Rot>
1.6891

> <Gold.Chemscore.Internal.Correction>
   9.000000E+99

> <Gold.Chemscore.Hbonds>
donor molecule, donor type, donor heavy atom, donor atom, acceptor molecule, acceptor atom, score
      P1  H  7989  7998       L1     1  0.05
      P1  H  7997  8009       L1     1  0.98
      P1  H 10752 10763       L1     3  0.83

> <Gold.Chemscore.Hbond.Weighted>
-6.5538

> <Gold.Chemscore.Metal.Weighted>
-0.0000

> <Gold.Chemscore.Lipo.Weighted>
-11.3540

> <Gold.Chemscore.Internal_Hbond.Weighted>
0.0000

> <Gold.Chemscore.DEClash.Weighted>
0.2185

> <Gold.Chemscore.DEInternal.Weighted>
0.6122

> <Gold.Chemscore.Rot.Weighted>
4.3241

> <Gold.Chemscore.Internal.Correction.Weighted>
   9.000000E+99

> <Gold.Protein.RotatedTorsions>
[ 6907 6896 6895 6894 ] final  165.79 input  -60.11 | X-H torsion
[ 7974 7965 7964 7962 ] final    1.16 input  175.53 | X-H torsion
[ 8008 7997 7996 7995 ] final -134.69 input   59.86 | X-H torsion
[ 10167 10162 10161 10158 ] final  156.48 input  -65.29 | X-H torsion
[ 10718 10713 10712 10709 ] final  -70.77 input   66.30 | X-H torsion
[ 10763 10752 10751 10750 ] final   47.51 input  -60.55 | X-H torsion
[ 11005 11000 10999 10996 ] final  -88.96 input  -57.11 | X-H torsion

> <Gold.Protein.ActiveResidues>
 VAL166  LYS551  ARG553  GLY616  TRP617  ASP618  TYR619  PRO620  LYS621  CYS622 
 ASP623  PHE694  ASN695  SER759  ASP760  ASP761  ALA762  ILE779  LEU786  VAL792 
 PHE793  MET794  SER795  GLU796  ALA797  LYS798  CYS799  TRP800  GLU811  SER814 

> <Gold.Protein.RotatedAtoms>
  151.8889  133.3511  159.3791 H   0  0  0  0  0  0  0  0  0  0  0  0  # atno 6907 bound_to 6896
  150.7108  134.4944  159.5540 H   0  0  0  0  0  0  0  0  0  0  0  0  # atno 6908 bound_to 6896
  152.2510  134.8133  160.0497 H   0  0  0  0  0  0  0  0  0  0  0  0  # atno 6909 bound_to 6896
  146.2439  140.1028  142.8347 H   0  0  0  0  0  0  0  0  0  0  0  0  # atno 7974 bound_to 7965
  155.3663  140.0485  157.3046 H   0  0  0  0  0  0  0  0  0  0  0  0  # atno 8008 bound_to 7997
  154.5152  140.2206  155.9042 H   0  0  0  0  0  0  0  0  0  0  0  0  # atno 8009 bound_to 7997
  156.1629  140.3112  155.8843 H   0  0  0  0  0  0  0  0  0  0  0  0  # atno 8010 bound_to 7997
  139.4821  144.5005  151.8176 H   0  0  0  0  0  0  0  0  0  0  0  0  # atno 10167 bound_to 10162
  156.0392  130.4338  150.2345 H   0  0  0  0  0  0  0  0  0  0  0  0  # atno 10718 bound_to 10713
  152.9799  135.5974  154.3775 H   0  0  0  0  0  0  0  0  0  0  0  0  # atno 10763 bound_to 10752
  154.3443  135.2767  155.2408 H   0  0  0  0  0  0  0  0  0  0  0  0  # atno 10764 bound_to 10752
  154.4475  135.5998  153.6225 H   0  0  0  0  0  0  0  0  0  0  0  0  # atno 10765 bound_to 10752
  141.1593  133.7601  156.9526 H   0  0  0  0  0  0  0  0  0  0  0  0  # atno 11005 bound_to 11000
  145.0554  140.9048  143.4971 LP  0  0  0  0  0  0  0  0  0  0  0  0  # atno 17320 bound_to 7965
  145.1133  139.2742  143.5626 LP  0  0  0  0  0  0  0  0  0  0  0  0  # atno 17321 bound_to 7965
  140.4497  144.1871  150.5896 LP  0  0  0  0  0  0  0  0  0  0  0  0  # atno 17342 bound_to 10162
  140.4597  143.2454  151.9236 LP  0  0  0  0  0  0  0  0  0  0  0  0  # atno 17343 bound_to 10162
  157.0442  131.0044  151.3274 LP  0  0  0  0  0  0  0  0  0  0  0  0  # atno 17370 bound_to 10713
  157.5188  130.7985  149.7785 LP  0  0  0  0  0  0  0  0  0  0  0  0  # atno 17371 bound_to 10713
  140.1247  134.9394  157.2253 LP  0  0  0  0  0  0  0  0  0  0  0  0  # atno 17394 bound_to 11000
  140.3028  134.3112  155.7285 LP  0  0  0  0  0  0  0  0  0  0  0  0  # atno 17395 bound_to 11000

$$$$
