AV-unprocessed.smi:109|AV-procd|sdf|1062|dock5
  -GOLD-   2262018143D 1   1.00000     0.00000
 Structure written by MMmdl.
 58 61  0  0  0  0  0  0  0  0  1 V2000
  155.2827  139.4753  158.8521 O   0  0  0  0  0  0  0  0  0  0  0  0
  154.4177  140.2887  159.6149 C   0  0  0  0  0  0  0  0  0  0  0  0
  152.9563  140.0074  159.2256 C   0  0  0  0  0  0  0  0  0  0  0  0
  152.3280  141.0719  158.2917 C   0  0  1  0  0  0  0  0  0  0  0  0
  151.2714  140.4552  157.4862 N   0  0  0  0  0  0  0  0  0  0  0  0
  151.5319  139.5378  156.5283 C   0  0  0  0  0  0  0  0  0  0  0  0
  152.6174  139.6425  155.7183 N   0  0  0  0  0  0  0  0  0  0  0  0
  152.8505  138.7123  154.7881 C   0  0  0  0  0  0  0  0  0  0  0  0
  152.1392  137.6189  154.5062 N   0  0  0  0  0  0  0  0  0  0  0  0
  151.0454  137.5097  155.3143 C   0  0  0  0  0  0  0  0  0  0  0  0
  150.6758  138.4223  156.3411 C   0  0  0  0  0  0  0  0  0  0  0  0
  149.5071  137.9921  156.9553 N   0  0  0  0  0  0  0  0  0  0  0  0
  149.2054  136.8902  156.3224 C   0  0  0  0  0  0  0  0  0  0  0  0
  150.0816  136.5218  155.3258 N   0  0  0  0  0  0  0  0  0  0  0  0
  149.9966  135.3238  154.4383 C   0  0  1  0  0  0  0  0  0  0  0  0
  150.9251  134.3908  154.8888 O   0  0  0  0  0  0  0  0  0  0  0  0
  150.4487  133.0602  154.6773 C   0  0  1  0  0  0  0  0  0  0  0  0
  150.5423  132.2936  156.0080 C   0  0  0  0  0  0  0  0  0  0  0  0
  150.2959  133.1663  157.0898 O   0  0  0  0  0  0  0  0  0  0  0  0
  148.9975  133.2111  154.1782 C   0  0  2  0  0  0  0  0  0  0  0  0
  148.9714  132.9731  152.7802 O   0  0  0  0  0  0  0  0  0  0  0  0
  148.6317  134.6496  154.5340 C   0  0  2  0  0  0  0  0  0  0  0  0
  147.6717  135.1936  153.6474 O   0  0  0  0  0  0  0  0  0  0  0  0
  151.7424  142.2970  159.0516 C   0  0  0  0  0  0  0  0  0  0  0  0
  151.3517  143.4298  158.0672 C   0  0  0  0  0  0  0  0  0  0  0  0
  150.7630  144.6551  158.7835 C   0  0  0  0  0  0  0  0  0  0  0  0
  151.7362  145.2011  159.8348 C   0  0  0  0  0  0  0  0  0  0  0  0
  152.1200  144.1039  160.8346 C   0  0  0  0  0  0  0  0  0  0  0  0
  152.7026  142.8712  160.1237 C   0  0  0  0  0  0  0  0  0  0  0  0
  150.2540  135.6659  153.4346 H   0  0  0  0  0  0  0  0  0  0  0  0
  151.0643  132.5638  153.9244 H   0  0  0  0  0  0  0  0  0  0  0  0
  148.3149  132.5014  154.6472 H   0  0  0  0  0  0  0  0  0  0  0  0
  148.2669  134.6920  155.5604 H   0  0  0  0  0  0  0  0  0  0  0  0
  154.8688  138.6358  158.7219 H   0  0  0  0  0  0  0  0  0  0  0  0
  154.5800  140.0825  160.6733 H   0  0  0  0  0  0  0  0  0  0  0  0
  154.6814  141.3314  159.4388 H   0  0  0  0  0  0  0  0  0  0  0  0
  152.8820  139.0223  158.7624 H   0  0  0  0  0  0  0  0  0  0  0  0
  152.3924  139.9533  160.1551 H   0  0  0  0  0  0  0  0  0  0  0  0
  153.1209  141.4572  157.6509 H   0  0  0  0  0  0  0  0  0  0  0  0
  150.3360  140.7846  157.6781 H   0  0  0  0  0  0  0  0  0  0  0  0
  153.7332  138.8649  154.1851 H   0  0  0  0  0  0  0  0  0  0  0  0
  148.3292  136.3089  156.5708 H   0  0  0  0  0  0  0  0  0  0  0  0
  149.8549  131.4490  156.0366 H   0  0  0  0  0  0  0  0  0  0  0  0
  151.5474  131.8930  156.1425 H   0  0  0  0  0  0  0  0  0  0  0  0
  149.3843  133.4149  157.0738 H   0  0  0  0  0  0  0  0  0  0  0  0
  149.4298  132.1661  152.6032 H   0  0  0  0  0  0  0  0  0  0  0  0
  148.1277  135.5991  152.9258 H   0  0  0  0  0  0  0  0  0  0  0  0
  150.8357  141.9712  159.5646 H   0  0  0  0  0  0  0  0  0  0  0  0
  152.2285  143.7333  157.4935 H   0  0  0  0  0  0  0  0  0  0  0  0
  150.6205  143.0774  157.3395 H   0  0  0  0  0  0  0  0  0  0  0  0
  150.5279  145.4328  158.0563 H   0  0  0  0  0  0  0  0  0  0  0  0
  149.8208  144.3828  159.2611 H   0  0  0  0  0  0  0  0  0  0  0  0
  152.6327  145.5824  159.3442 H   0  0  0  0  0  0  0  0  0  0  0  0
  151.2854  146.0441  160.3594 H   0  0  0  0  0  0  0  0  0  0  0  0
  152.8420  144.4930  161.5530 H   0  0  0  0  0  0  0  0  0  0  0  0
  151.2405  143.8106  161.4093 H   0  0  0  0  0  0  0  0  0  0  0  0
  152.9183  142.1283  160.8899 H   0  0  0  0  0  0  0  0  0  0  0  0
  153.6562  143.1312  159.6626 H   0  0  0  0  0  0  0  0  0  0  0  0
  1  2  1  0  0  0  0
  1 34  1  0  0  0  0
  2  3  1  0  0  0  0
  2 35  1  0  0  0  0
  2 36  1  0  0  0  0
  3  4  1  0  0  0  0
  3 37  1  0  0  0  0
  3 38  1  0  0  0  0
  4  5  1  0  0  0  0
  4 24  1  0  0  0  0
  4 39  1  0  0  0  0
  5  6  1  0  0  0  0
  5 40  1  0  0  0  0
  6 11  1  0  0  0  0
  6  7  2  0  0  0  0
  7  8  1  0  0  0  0
  8  9  2  0  0  0  0
  8 41  1  0  0  0  0
  9 10  1  0  0  0  0
 10 14  1  0  0  0  0
 10 11  2  0  0  0  0
 11 12  1  0  0  0  0
 12 13  2  0  0  0  0
 13 14  1  0  0  0  0
 13 42  1  0  0  0  0
 14 15  1  0  0  0  0
 15 30  1  0  0  0  0
 15 22  1  0  0  0  0
 15 16  1  0  0  0  0
 16 17  1  0  0  0  0
 17 31  1  0  0  0  0
 17 18  1  0  0  0  0
 17 20  1  0  0  0  0
 18 19  1  0  0  0  0
 18 43  1  0  0  0  0
 18 44  1  0  0  0  0
 19 45  1  0  0  0  0
 20 32  1  0  0  0  0
 20 21  1  0  0  0  0
 20 22  1  0  0  0  0
 21 46  1  0  0  0  0
 22 33  1  0  0  0  0
 22 23  1  0  0  0  0
 23 47  1  0  0  0  0
 24 29  1  0  0  0  0
 24 25  1  0  0  0  0
 24 48  1  0  0  0  0
 25 26  1  0  0  0  0
 25 49  1  0  0  0  0
 25 50  1  0  0  0  0
 26 27  1  0  0  0  0
 26 51  1  0  0  0  0
 26 52  1  0  0  0  0
 27 28  1  0  0  0  0
 27 53  1  0  0  0  0
 27 54  1  0  0  0  0
 28 29  1  0  0  0  0
 28 55  1  0  0  0  0
 28 56  1  0  0  0  0
 29 57  1  0  0  0  0
 29 58  1  0  0  0  0
M  END
> <s_m_source_file>
AV-unprocessed.smi

> <i_m_source_file_index>
109

> <i_lp_mmshare_version>
43012

> <i_f3d_flags>
0

> <s_epik_input>
W0NIMl0xW0NIMl1bQ0gyXVtDSDJdW0NIMl1bQ0hdMVtDQEhdKFtDSDJdW0NIMl1bT0hdKVtOSF1jKG5bY0hdbjIpYyhjMjMpbltjSF1uM1tDQEBIXTRPW0NASF0oW0NIMl1bT0hdKVtDQEBIXShbT0hdKVtDQEhdNFtPSF0=

> <s_epik_cmdline>
J2VwaWtfcHl0aG9uJywgJy1waCcsICc3LjAnLCAnLXRuJywgJzgnLCAnLW1hJywgJzIwMCcsICctbWV0YWxfYmluZGluZycsICctaW1hZScsICc8aW5maWxlLm1hZT4nLCAnLW9tYWUnLCAnPG91dGZpbGUubWFlPic=

> <r_lp_tautomer_probability>
1

> <r_epik_Ionization_Penalty>
0.000793976

> <r_epik_Ionization_Penalty_Charging>
0

> <r_epik_Ionization_Penalty_Neutral>
0.000793976

> <r_epik_State_Penalty>
-0

> <r_epik_Charging_Adjusted_Penalty>
0

> <i_epik_Tot_Q>
0

> <i_epik_Tot_abs_Q>
0

> <r_epik_Metal_State_Penalty>
-0

> <b_epik_Metal_Only>
0

> <s_epik_Chemistry_Notes>
This compound contains an acetal/aminal-like group ( X-CH(R)-Y where X, Y are N, S, or O) that may be acid/base labile, releasing an aldehyde.

> <s_lp_Force_Field>
OPLS_2005

> <r_lp_Energy>
55.705

> <b_lp_Chiralities_Consistent>
1

> <s_lp_Variant>
AV-unprocessed.smi:109-32

> <Gold.Version>
5.8.1

> <Gold.Id.Protein>
6NUR|6NUR_protein|mol2

> <Gold.PLP.Fitness>
59.6934

> <Gold.PLP.PLP>
-48.5552

> <Gold.PLP.part.hbond>
-5.0000

> <Gold.PLP.part.metal>
0.0000

> <Gold.PLP.part.buried>
-6.8040

> <Gold.PLP.part.nonpolar>
-38.1132

> <Gold.PLP.part.repulsive>
0.2304

> <Gold.PLP.ligand.clash>
0.0000

> <Gold.PLP.ligand.torsion>
1.7251

> <Gold.PLP.Chemscore.Hbond>
4.8160

> <Gold.PLP.Chemscore.CHOScore>
0.0000

> <Gold.PLP.Chemscore.Metal>
0.0000

> <Gold.Chemscore.Hbonds>
donor molecule, donor type, donor heavy atom, donor atom, acceptor molecule, acceptor atom, score
      L1  H    23    47       P1  7948  0.86
      P1  H  6896  6907       L1    19  0.39
      P1  H  7997  8009       L1     1  1.00
      P1  H  7997  8010       L1     7  0.90
      P1  H 10752 10763       L1     9  0.53

> <Gold.PLP.Chemscore.Internal.Correction>
0.1404

> <Gold.Rescore>
     Score         DG    S(hbond)    S(metal)    S(lipo)     H(rot)  DE(clash)    DE(int)     intcor
     15.80     -17.54       3.89        0.00     111.77       5.47       0.00       1.75       ----

> <Gold.Chemscore.Fitness>
15.7979

> <Gold.Chemscore.DG>
-17.5430

> <Gold.Chemscore.ZeroCoef>
-5.4800

> <Gold.Chemscore.Hbond>
3.8860

> <Gold.Chemscore.Metal>
0.0000

> <Gold.Chemscore.Lipo>
111.7722

> <Gold.Chemscore.Internal_Hbond>
0.0000

> <Gold.Chemscore.DEClash>
0.0000

> <Gold.Chemscore.DEInternal>
1.7451

> <Gold.Chemscore.Rot>
5.4662

> <Gold.Chemscore.Internal.Correction>
   9.000000E+99

> <Gold.Chemscore.Hbonds>
donor molecule, donor type, donor heavy atom, donor atom, acceptor molecule, acceptor atom, score
      L1  H    23    47       P1  7948  0.84
      P1  H  6896  6907       L1    19  0.25
      P1  H  7997  8009       L1     1  0.38
      P1  H  7997  8010       L1     7  0.18
      P1  H 10752 10763       L1     9  0.23

> <Gold.Chemscore.Hbond.Weighted>
-12.9791

> <Gold.Chemscore.Metal.Weighted>
-0.0000

> <Gold.Chemscore.Lipo.Weighted>
-13.0773

> <Gold.Chemscore.Internal_Hbond.Weighted>
0.0000

> <Gold.Chemscore.DEClash.Weighted>
0.0000

> <Gold.Chemscore.DEInternal.Weighted>
1.7451

> <Gold.Chemscore.Rot.Weighted>
13.9935

> <Gold.Chemscore.Internal.Correction.Weighted>
   9.000000E+99

> <Gold.Protein.RotatedTorsions>
[ 6907 6896 6895 6894 ] final -144.65 input  -60.11 | X-H torsion
[ 7974 7965 7964 7962 ] final  -27.67 input  175.53 | X-H torsion
[ 8008 7997 7996 7995 ] final   96.82 input   59.86 | X-H torsion
[ 10167 10162 10161 10158 ] final   64.16 input  -65.29 | X-H torsion
[ 10718 10713 10712 10709 ] final  -47.35 input   66.30 | X-H torsion
[ 10763 10752 10751 10750 ] final   54.40 input  -60.55 | X-H torsion
[ 11005 11000 10999 10996 ] final  171.99 input  -57.11 | X-H torsion

> <Gold.Protein.ActiveResidues>
 VAL166  LYS551  ARG553  GLY616  TRP617  ASP618  TYR619  PRO620  LYS621  CYS622 
 ASP623  PHE694  ASN695  SER759  ASP760  ASP761  ALA762  ILE779  LEU786  VAL792 
 PHE793  MET794  SER795  GLU796  ALA797  LYS798  CYS799  TRP800  GLU811  SER814 

> <Gold.Protein.RotatedAtoms>
  151.1170  133.5132  159.2603 H   0  0  0  0  0  0  0  0  0  0  0  0  # atno 6907 bound_to 6896
  151.1904  135.0399  159.8840 H   0  0  0  0  0  0  0  0  0  0  0  0  # atno 6908 bound_to 6896
  152.5453  134.1011  159.8371 H   0  0  0  0  0  0  0  0  0  0  0  0  # atno 6909 bound_to 6896
  146.1341  140.5182  142.8680 H   0  0  0  0  0  0  0  0  0  0  0  0  # atno 7974 bound_to 7965
  156.0837  140.3267  155.7726 H   0  0  0  0  0  0  0  0  0  0  0  0  # atno 8008 bound_to 7997
  155.5111  140.0577  157.2940 H   0  0  0  0  0  0  0  0  0  0  0  0  # atno 8009 bound_to 7997
  154.4597  140.1960  156.0297 H   0  0  0  0  0  0  0  0  0  0  0  0  # atno 8010 bound_to 7997
  140.1251  144.4695  150.6897 H   0  0  0  0  0  0  0  0  0  0  0  0  # atno 10167 bound_to 10162
  156.2093  130.4160  149.9136 H   0  0  0  0  0  0  0  0  0  0  0  0  # atno 10718 bound_to 10713
  152.9804  135.5746  154.4898 H   0  0  0  0  0  0  0  0  0  0  0  0  # atno 10763 bound_to 10752
  154.4434  135.2776  155.1834 H   0  0  0  0  0  0  0  0  0  0  0  0  # atno 10764 bound_to 10752
  154.3492  135.6213  153.5688 H   0  0  0  0  0  0  0  0  0  0  0  0  # atno 10765 bound_to 10752
  140.3249  134.7406  157.4092 H   0  0  0  0  0  0  0  0  0  0  0  0  # atno 11005 bound_to 11000
  144.7721  140.5661  143.6663 LP  0  0  0  0  0  0  0  0  0  0  0  0  # atno 17320 bound_to 7965
  145.5194  139.1477  143.3560 LP  0  0  0  0  0  0  0  0  0  0  0  0  # atno 17321 bound_to 7965
  140.6849  143.2345  151.5286 LP  0  0  0  0  0  0  0  0  0  0  0  0  # atno 17342 bound_to 10162
  139.5548  144.2303  152.1593 LP  0  0  0  0  0  0  0  0  0  0  0  0  # atno 17343 bound_to 10162
  156.6819  130.8861  151.3577 LP  0  0  0  0  0  0  0  0  0  0  0  0  # atno 17370 bound_to 10713
  157.7030  130.9353  150.0842 LP  0  0  0  0  0  0  0  0  0  0  0  0  # atno 17371 bound_to 10713
  140.0910  134.5601  155.8444 LP  0  0  0  0  0  0  0  0  0  0  0  0  # atno 17394 bound_to 11000
  141.2077  133.6667  156.6326 LP  0  0  0  0  0  0  0  0  0  0  0  0  # atno 17395 bound_to 11000

$$$$
