AV-unprocessed.smi:1549|AV-procd|sdf|6223|dock1
  -GOLD-   22720 6393D 1   1.00000     0.00000
 Structure written by MMmdl.
 41 42  0  0  0  0  0  0  0  0  1 V2000
  145.4529  133.5643  151.1191 C   0  0  0  0  0  0  0  0  0  0  0  0
  146.1297  132.4801  151.9610 C   0  0  0  0  0  0  0  0  0  0  0  0
  147.1750  133.0786  152.7207 O   0  0  0  0  0  0  0  0  0  0  0  0
  147.9418  132.2759  153.5440 C   0  0  0  0  0  0  0  0  0  0  0  0
  147.6657  130.9484  153.5911 N   0  0  0  0  0  0  0  0  0  0  0  0
  148.4108  130.1654  154.3981 C   0  0  0  0  0  0  0  0  0  0  0  0
  149.4566  130.6590  155.1991 C   0  0  0  0  0  0  0  0  0  0  0  0
  149.7452  132.0354  155.1515 C   0  0  0  0  0  0  0  0  0  0  0  0
  148.9820  132.8683  154.2976 C   0  0  0  0  0  0  0  0  0  0  0  0
  149.1751  134.2731  154.1878 N   0  0  0  0  0  0  0  0  0  0  0  0
  149.7053  135.1193  155.0865 C   0  0  0  0  0  0  0  0  0  0  0  0
  150.1575  134.7996  156.1858 O   0  0  0  0  0  0  0  0  0  0  0  0
  149.6981  136.3790  154.6277 N   0  0  0  0  0  0  0  0  0  0  0  0
  150.1999  137.5430  155.3520 C   0  0  2  0  0  0  0  0  0  0  0  0
  150.0576  138.8181  154.4967 C   0  0  0  0  0  0  0  0  0  0  0  0
  150.6391  140.0484  155.2145 C   0  0  0  0  0  0  0  0  0  0  0  0
  152.0993  139.8326  155.6545 C   0  0  2  0  0  0  0  0  0  0  0  0
  152.9467  139.8014  154.5230 O   0  0  0  0  0  0  0  0  0  0  0  0
  152.2597  138.5359  156.4707 C   0  0  0  0  0  0  0  0  0  0  0  0
  151.6709  137.3134  155.7446 C   0  0  0  0  0  0  0  0  0  0  0  0
  144.6388  133.1463  150.5265 H   0  0  0  0  0  0  0  0  0  0  0  0
  146.1625  134.0273  150.4330 H   0  0  0  0  0  0  0  0  0  0  0  0
  145.0370  134.3486  151.7518 H   0  0  0  0  0  0  0  0  0  0  0  0
  145.3949  132.0194  152.6230 H   0  0  0  0  0  0  0  0  0  0  0  0
  146.5300  131.7049  151.3055 H   0  0  0  0  0  0  0  0  0  0  0  0
  148.1615  129.1147  154.4103 H   0  0  0  0  0  0  0  0  0  0  0  0
  150.0216  129.9980  155.8393 H   0  0  0  0  0  0  0  0  0  0  0  0
  150.5321  132.4233  155.7792 H   0  0  0  0  0  0  0  0  0  0  0  0
  148.9300  134.6715  153.2930 H   0  0  0  0  0  0  0  0  0  0  0  0
  149.3110  136.5479  153.7108 H   0  0  0  0  0  0  0  0  0  0  0  0
  149.6199  137.6650  156.2691 H   0  0  0  0  0  0  0  0  0  0  0  0
  150.5647  138.6802  153.5408 H   0  0  0  0  0  0  0  0  0  0  0  0
  149.0080  138.9998  154.2625 H   0  0  0  0  0  0  0  0  0  0  0  0
  150.5620  140.9274  154.5736 H   0  0  0  0  0  0  0  0  0  0  0  0
  150.0311  140.2614  156.0946 H   0  0  0  0  0  0  0  0  0  0  0  0
  152.4163  140.6790  156.2646 H   0  0  0  0  0  0  0  0  0  0  0  0
  152.8792  138.9488  154.1210 H   0  0  0  0  0  0  0  0  0  0  0  0
  153.3111  138.3634  156.7038 H   0  0  0  0  0  0  0  0  0  0  0  0
  151.7523  138.6549  157.4289 H   0  0  0  0  0  0  0  0  0  0  0  0
  151.7537  136.4344  156.3853 H   0  0  0  0  0  0  0  0  0  0  0  0
  152.2633  137.1005  154.8535 H   0  0  0  0  0  0  0  0  0  0  0  0
  1  2  1  0  0  0  0
  1 21  1  0  0  0  0
  1 22  1  0  0  0  0
  1 23  1  0  0  0  0
  2  3  1  0  0  0  0
  2 24  1  0  0  0  0
  2 25  1  0  0  0  0
  3  4  1  0  0  0  0
  4  9  1  0  0  0  0
  4  5  2  0  0  0  0
  5  6  1  0  0  0  0
  6  7  2  0  0  0  0
  6 26  1  0  0  0  0
  7  8  1  0  0  0  0
  7 27  1  0  0  0  0
  8  9  2  0  0  0  0
  8 28  1  0  0  0  0
  9 10  1  0  0  0  0
 10 11  1  0  0  0  0
 10 29  1  0  0  0  0
 11 12  2  0  0  0  0
 11 13  1  0  0  0  0
 13 14  1  0  0  0  0
 13 30  1  0  0  0  0
 14 20  1  0  0  0  0
 14 15  1  0  0  0  0
 14 31  1  0  0  0  0
 15 16  1  0  0  0  0
 15 32  1  0  0  0  0
 15 33  1  0  0  0  0
 16 17  1  0  0  0  0
 16 34  1  0  0  0  0
 16 35  1  0  0  0  0
 17 18  1  0  0  0  0
 17 19  1  0  0  0  0
 17 36  1  0  0  0  0
 18 37  1  0  0  0  0
 19 20  1  0  0  0  0
 19 38  1  0  0  0  0
 19 39  1  0  0  0  0
 20 40  1  0  0  0  0
 20 41  1  0  0  0  0
M  END
> <s_m_source_file>
AV-unprocessed.smi

> <i_m_source_file_index>
1549

> <i_lp_mmshare_version>
43012

> <i_f3d_flags>
0

> <s_epik_input>
W0NIM11bQ0gyXU9jMW5bY0hdW2NIXVtjSF1jMVtOSF1DKD1PKVtOSF1bQ0BASF0yW0NIMl1bQ0gyXVtDQEBIXShbT0hdKVtDSDJdW0NIMl0y

> <s_epik_cmdline>
J2VwaWtfcHl0aG9uJywgJy1waCcsICc3LjAnLCAnLXRuJywgJzgnLCAnLW1hJywgJzIwMCcsICctbWV0YWxfYmluZGluZycsICctaW1hZScsICc8aW5maWxlLm1hZT4nLCAnLW9tYWUnLCAnPG91dGZpbGUubWFlPic=

> <r_lp_tautomer_probability>
1

> <r_epik_Ionization_Penalty>
0.000120387

> <r_epik_Ionization_Penalty_Charging>
0

> <r_epik_Ionization_Penalty_Neutral>
0.000120387

> <r_epik_State_Penalty>
-0

> <r_epik_Charging_Adjusted_Penalty>
0

> <i_epik_Tot_Q>
0

> <i_epik_Tot_abs_Q>
0

> <r_epik_Metal_State_Penalty>
-0

> <b_epik_Metal_Only>
0

> <s_lp_Force_Field>
OPLS_2005

> <r_lp_Energy>
13.0635

> <b_lp_Chiralities_Consistent>
1

> <s_lp_Variant>
AV-unprocessed.smi:1549-2

> <Gold.Version>
5.8.1

> <Gold.Id.Protein>
6NUR|6NUR_protein|mol2

> <Gold.PLP.Fitness>
41.9350

> <Gold.PLP.PLP>
-33.2378

> <Gold.PLP.part.hbond>
-4.0000

> <Gold.PLP.part.metal>
0.0000

> <Gold.PLP.part.buried>
-3.1256

> <Gold.PLP.part.nonpolar>
-27.0911

> <Gold.PLP.part.repulsive>
0.3299

> <Gold.PLP.ligand.clash>
0.0000

> <Gold.PLP.ligand.torsion>
0.1475

> <Gold.PLP.Chemscore.Hbond>
2.9859

> <Gold.PLP.Chemscore.CHOScore>
0.0000

> <Gold.PLP.Chemscore.Metal>
0.0000

> <Gold.Chemscore.Hbonds>
donor molecule, donor type, donor heavy atom, donor atom, acceptor molecule, acceptor atom, score
      L1  H    10    29       P1  7948  0.76
      L1  H    13    30       P1  7948  1.00
      P1  H  7989  7998       L1    18  0.19
      P1  H  7997  8010       L1    18  0.42

> <Gold.PLP.Chemscore.Internal.Correction>
0.0344

> <Gold.Rescore>
     Score         DG    S(hbond)    S(metal)    S(lipo)     H(rot)  DE(clash)    DE(int)     intcor
     12.29     -14.88       2.00        0.00      65.51       1.93       0.05       2.54       ----

> <Gold.Chemscore.Fitness>
12.2946

> <Gold.Chemscore.DG>
-14.8821

> <Gold.Chemscore.ZeroCoef>
-5.4800

> <Gold.Chemscore.Hbond>
2.0010

> <Gold.Chemscore.Metal>
0.0000

> <Gold.Chemscore.Lipo>
65.5052

> <Gold.Chemscore.Internal_Hbond>
0.0000

> <Gold.Chemscore.DEClash>
0.0524

> <Gold.Chemscore.DEInternal>
2.5351

> <Gold.Chemscore.Rot>
1.9318

> <Gold.Chemscore.Internal.Correction>
   9.000000E+99

> <Gold.Chemscore.Hbonds>
donor molecule, donor type, donor heavy atom, donor atom, acceptor molecule, acceptor atom, score
      L1  H    10    29       P1  7948  0.12
      L1  H    13    30       P1  7948  0.91
      P1  H  7989  7998       L1    18  0.01
      P1  H  7997  8010       L1    18  0.01

> <Gold.Chemscore.Hbond.Weighted>
-6.6834

> <Gold.Chemscore.Metal.Weighted>
-0.0000

> <Gold.Chemscore.Lipo.Weighted>
-7.6641

> <Gold.Chemscore.Internal_Hbond.Weighted>
0.0000

> <Gold.Chemscore.DEClash.Weighted>
0.0524

> <Gold.Chemscore.DEInternal.Weighted>
2.5351

> <Gold.Chemscore.Rot.Weighted>
4.9454

> <Gold.Chemscore.Internal.Correction.Weighted>
   9.000000E+99

> <Gold.Protein.RotatedTorsions>
[ 6907 6896 6895 6894 ] final  -55.16 input  -60.11 | X-H torsion
[ 7974 7965 7964 7962 ] final   19.31 input  175.53 | X-H torsion
[ 8008 7997 7996 7995 ] final  114.13 input   59.86 | X-H torsion
[ 10167 10162 10161 10158 ] final -178.64 input  -65.29 | X-H torsion
[ 10718 10713 10712 10709 ] final -171.83 input   66.30 | X-H torsion
[ 10763 10752 10751 10750 ] final   69.63 input  -60.55 | X-H torsion
[ 11005 11000 10999 10996 ] final  134.70 input  -57.11 | X-H torsion

> <Gold.Protein.ActiveResidues>
 VAL166  LYS551  ARG553  GLY616  TRP617  ASP618  TYR619  PRO620  LYS621  CYS622 
 ASP623  PHE694  ASN695  SER759  ASP760  ASP761  ALA762  ILE779  LEU786  VAL792 
 PHE793  MET794  SER795  GLU796  ALA797  LYS798  CYS799  TRP800  GLU811  SER814 

> <Gold.Protein.RotatedAtoms>
  150.8276  134.7514  159.6825 H   0  0  0  0  0  0  0  0  0  0  0  0  # atno 6907 bound_to 6896
  152.4385  134.5636  159.9911 H   0  0  0  0  0  0  0  0  0  0  0  0  # atno 6908 bound_to 6896
  151.5804  133.3341  159.3043 H   0  0  0  0  0  0  0  0  0  0  0  0  # atno 6909 bound_to 6896
  146.2154  139.8332  142.8656 H   0  0  0  0  0  0  0  0  0  0  0  0  # atno 7974 bound_to 7965
  156.2302  140.2965  156.0169 H   0  0  0  0  0  0  0  0  0  0  0  0  # atno 8008 bound_to 7997
  155.2246  140.0417  157.2970 H   0  0  0  0  0  0  0  0  0  0  0  0  # atno 8009 bound_to 7997
  154.5983  140.2420  155.7835 H   0  0  0  0  0  0  0  0  0  0  0  0  # atno 8010 bound_to 7997
  139.5423  144.2330  152.0919 H   0  0  0  0  0  0  0  0  0  0  0  0  # atno 10167 bound_to 10162
  156.7467  130.9362  151.3113 H   0  0  0  0  0  0  0  0  0  0  0  0  # atno 10718 bound_to 10713
  153.0297  135.5203  154.7318 H   0  0  0  0  0  0  0  0  0  0  0  0  # atno 10763 bound_to 10752
  154.6343  135.2904  155.0181 H   0  0  0  0  0  0  0  0  0  0  0  0  # atno 10764 bound_to 10752
  154.1122  135.6620  153.4939 H   0  0  0  0  0  0  0  0  0  0  0  0  # atno 10765 bound_to 10752
  139.9931  134.9507  156.9903 H   0  0  0  0  0  0  0  0  0  0  0  0  # atno 11005 bound_to 11000
  145.2976  141.0185  143.3627 LP  0  0  0  0  0  0  0  0  0  0  0  0  # atno 17320 bound_to 7965
  144.9030  139.4625  143.6623 LP  0  0  0  0  0  0  0  0  0  0  0  0  # atno 17321 bound_to 7965
  140.1810  144.4844  150.6528 LP  0  0  0  0  0  0  0  0  0  0  0  0  # atno 17342 bound_to 10162
  140.6658  143.2267  151.5747 LP  0  0  0  0  0  0  0  0  0  0  0  0  # atno 17343 bound_to 10162
  157.6795  130.9126  150.0232 LP  0  0  0  0  0  0  0  0  0  0  0  0  # atno 17370 bound_to 10713
  156.1428  130.3642  149.9555 LP  0  0  0  0  0  0  0  0  0  0  0  0  # atno 17371 bound_to 10713
  140.4869  134.1232  155.7226 LP  0  0  0  0  0  0  0  0  0  0  0  0  # atno 17394 bound_to 11000
  141.1583  133.8842  157.1919 LP  0  0  0  0  0  0  0  0  0  0  0  0  # atno 17395 bound_to 11000

$$$$
