AV-unprocessed.smi:470|AV-procd|sdf|2657|dock3
  -GOLD-   2262023 73D 1   1.00000     0.00000
 Structure written by MMmdl.
 32 33  0  0  0  0  0  0  0  0  2 V2000
  143.4856  133.4708  149.0936 N   0  0  0  0  0  0  0  0  0  0  0  0
  143.9827  132.3660  149.6576 C   0  0  0  0  0  0  0  0  0  0  0  0
  143.2763  131.5664  150.2683 O   0  0  0  0  0  0  0  0  0  0  0  0
  145.4853  132.1152  149.5056 C   0  0  0  0  0  0  0  0  0  0  0  0
  146.2076  132.4556  150.7769 C   0  0  0  0  0  0  0  0  0  0  0  0
  146.4751  133.7083  151.2652 C   0  0  0  0  0  0  0  0  0  0  0  0
  147.3492  133.6398  152.7681 S   0  0  0  0  0  0  0  0  0  0  0  0
  147.3434  131.8774  152.6801 C   0  0  0  0  0  0  0  0  0  0  0  0
  147.8909  131.0563  153.5927 N   0  5  0  0  0  0  0  0  0  0  0  0
  148.7964  131.4409  154.5372 C   0  0  0  0  0  0  0  0  0  0  0  0
  148.6000  131.3811  155.7494 O   0  0  0  0  0  0  0  0  0  0  0  0
  150.1618  131.9940  154.0280 C   0  0  1  0  0  0  0  0  0  0  0  0
  150.4154  133.4454  154.5075 C   0  0  0  0  0  0  0  0  0  0  0  0
  151.0163  133.5259  155.8996 C   0  0  0  0  0  0  0  0  0  0  0  0
  151.6195  132.4932  156.5106 C   0  0  0  0  0  0  0  0  0  0  0  0
  151.7667  131.1173  155.8886 C   0  0  0  0  0  0  0  0  0  0  0  0
  151.3650  131.0888  154.3968 C   0  0  0  0  0  0  0  0  0  0  0  0
  146.6844  131.4344  151.6035 N   0  0  0  0  0  0  0  0  0  0  0  0
  142.5038  133.6855  149.1865 H   0  0  0  0  0  0  0  0  0  0  0  0
  144.0999  134.0974  148.5931 H   0  0  0  0  0  0  0  0  0  0  0  0
  145.6527  131.0705  149.2403 H   0  0  0  0  0  0  0  0  0  0  0  0
  145.8628  132.7084  148.6717 H   0  0  0  0  0  0  0  0  0  0  0  0
  146.2159  134.6627  150.8322 H   0  0  0  0  0  0  0  0  0  0  0  0
  150.1607  132.0053  152.9392 H   0  0  0  0  0  0  0  0  0  0  0  0
  151.0889  133.9545  153.8178 H   0  0  0  0  0  0  0  0  0  0  0  0
  149.4887  134.0189  154.5078 H   0  0  0  0  0  0  0  0  0  0  0  0
  150.9621  134.4837  156.3958 H   0  0  0  0  0  0  0  0  0  0  0  0
  152.0222  132.6212  157.5044 H   0  0  0  0  0  0  0  0  0  0  0  0
  152.7996  130.7861  155.9970 H   0  0  0  0  0  0  0  0  0  0  0  0
  151.1607  130.4188  156.4653 H   0  0  0  0  0  0  0  0  0  0  0  0
  151.1769  130.0601  154.0864 H   0  0  0  0  0  0  0  0  0  0  0  0
  152.2219  131.4183  153.8080 H   0  0  0  0  0  0  0  0  0  0  0  0
  1  2  1  0  0  0  0
  1 19  1  0  0  0  0
  1 20  1  0  0  0  0
  2  3  2  0  0  0  0
  2  4  1  0  0  0  0
  4  5  1  0  0  0  0
  4 21  1  0  0  0  0
  4 22  1  0  0  0  0
  5 18  1  0  0  0  0
  5  6  2  0  0  0  0
  6  7  1  0  0  0  0
  6 23  1  0  0  0  0
  7  8  1  0  0  0  0
  8  9  1  0  0  0  0
  8 18  2  0  0  0  0
  9 10  1  0  0  0  0
 10 11  2  0  0  0  0
 10 12  1  0  0  0  0
 12 17  1  0  0  0  0
 12 13  1  0  0  0  0
 12 24  1  0  0  0  0
 13 14  1  0  0  0  0
 13 25  1  0  0  0  0
 13 26  1  0  0  0  0
 14 15  2  0  0  0  0
 14 27  1  0  0  0  0
 15 16  1  0  0  0  0
 15 28  1  0  0  0  0
 16 17  1  0  0  0  0
 16 29  1  0  0  0  0
 16 30  1  0  0  0  0
 17 31  1  0  0  0  0
 17 32  1  0  0  0  0
M  CHG  1   9  -1
M  END
> <s_m_source_file>
AV-unprocessed.smi

> <i_m_source_file_index>
470

> <i_lp_mmshare_version>
43012

> <i_f3d_flags>
0

> <s_epik_input>
W05IMl1DKD1PKVtDSDJdYzFbY0hdc2MobjEpW05IXUMoPU8pW0NAQEhdMltDSDJdW0NIXT1bQ0hdW0NIMl1bQ0gyXTI=

> <s_epik_cmdline>
J2VwaWtfcHl0aG9uJywgJy1waCcsICc3LjAnLCAnLXRuJywgJzgnLCAnLW1hJywgJzIwMCcsICctbWV0YWxfYmluZGluZycsICctaW1hZScsICc8aW5maWxlLm1hZT4nLCAnLW9tYWUnLCAnPG91dGZpbGUubWFlPic=

> <r_lp_tautomer_probability>
1

> <r_epik_Ionization_Penalty>
4.98985

> <r_epik_Ionization_Penalty_Charging>
4.63309

> <r_epik_Ionization_Penalty_Neutral>
0.356756

> <r_epik_State_Penalty>
4.63286

> <r_epik_Charging_Adjusted_Penalty>
9.26595

> <i_epik_Tot_Q>
-1

> <i_epik_Tot_abs_Q>
1

> <r_epik_Metal_State_Penalty>
0.88943

> <b_epik_Metal_Only>
1

> <s_lp_Force_Field>
OPLS_2005

> <r_lp_Energy>
8.68361

> <b_lp_Chiralities_Consistent>
1

> <s_lp_Variant>
AV-unprocessed.smi:470-4

> <Gold.Version>
5.8.1

> <Gold.Id.Protein>
6NUR|6NUR_protein|mol2

> <Gold.PLP.Fitness>
35.7263

> <Gold.PLP.PLP>
-28.8486

> <Gold.PLP.part.hbond>
-3.0000

> <Gold.PLP.part.metal>
0.0000

> <Gold.PLP.part.buried>
-5.1873

> <Gold.PLP.part.nonpolar>
-24.6003

> <Gold.PLP.part.repulsive>
3.5992

> <Gold.PLP.ligand.clash>
0.0000

> <Gold.PLP.ligand.torsion>
1.0757

> <Gold.PLP.Chemscore.Hbond>
2.9913

> <Gold.PLP.Chemscore.CHOScore>
0.0000

> <Gold.PLP.Chemscore.Metal>
0.0000

> <Gold.Chemscore.Hbonds>
donor molecule, donor type, donor heavy atom, donor atom, acceptor molecule, acceptor atom, score
      L1  H     1    19       P1 10186  1.00
      L1  H     1    20       P1  7921  0.21
      P1  H 10785 10796       L1     3  0.69

> <Gold.PLP.Chemscore.Internal.Correction>
0.0554

> <Gold.Rescore>
     Score         DG    S(hbond)    S(metal)    S(lipo)     H(rot)  DE(clash)    DE(int)     intcor
     14.66     -16.91       2.78        0.00      59.14       1.87       0.97       1.27       ----

> <Gold.Chemscore.Fitness>
14.6628

> <Gold.Chemscore.DG>
-16.9080

> <Gold.Chemscore.ZeroCoef>
-5.4800

> <Gold.Chemscore.Hbond>
2.7822

> <Gold.Chemscore.Metal>
0.0000

> <Gold.Chemscore.Lipo>
59.1439

> <Gold.Chemscore.Internal_Hbond>
0.0000

> <Gold.Chemscore.DEClash>
0.9748

> <Gold.Chemscore.DEInternal>
1.2704

> <Gold.Chemscore.Rot>
1.8689

> <Gold.Chemscore.Internal.Correction>
   9.000000E+99

> <Gold.Chemscore.Hbonds>
donor molecule, donor type, donor heavy atom, donor atom, acceptor molecule, acceptor atom, score
      L1  H     1    19       P1 10186  1.00
      L1  H     1    20       P1  7921  0.21
      P1  H 10785 10796       L1     3  0.09

> <Gold.Chemscore.Hbond.Weighted>
-9.2926

> <Gold.Chemscore.Metal.Weighted>
-0.0000

> <Gold.Chemscore.Lipo.Weighted>
-6.9198

> <Gold.Chemscore.Internal_Hbond.Weighted>
0.0000

> <Gold.Chemscore.DEClash.Weighted>
0.9748

> <Gold.Chemscore.DEInternal.Weighted>
1.2704

> <Gold.Chemscore.Rot.Weighted>
4.7844

> <Gold.Chemscore.Internal.Correction.Weighted>
   9.000000E+99

> <Gold.Protein.RotatedTorsions>
[ 6907 6896 6895 6894 ] final   44.09 input  -60.11 | X-H torsion
[ 7974 7965 7964 7962 ] final   52.78 input  175.53 | X-H torsion
[ 8008 7997 7996 7995 ] final   80.84 input   59.86 | X-H torsion
[ 10167 10162 10161 10158 ] final  111.34 input  -65.29 | X-H torsion
[ 10718 10713 10712 10709 ] final  166.34 input   66.30 | X-H torsion
[ 10763 10752 10751 10750 ] final   32.92 input  -60.55 | X-H torsion
[ 11005 11000 10999 10996 ] final -131.46 input  -57.11 | X-H torsion

> <Gold.Protein.ActiveResidues>
 VAL166  LYS551  ARG553  GLY616  TRP617  ASP618  TYR619  PRO620  LYS621  CYS622 
 ASP623  PHE694  ASN695  SER759  ASP760  ASP761  ALA762  ILE779  LEU786  VAL792 
 PHE793  MET794  SER795  GLU796  ALA797  LYS798  CYS799  TRP800  GLU811  SER814 

> <Gold.Protein.RotatedAtoms>
  152.2283  134.8347  160.0476 H   0  0  0  0  0  0  0  0  0  0  0  0  # atno 6907 bound_to 6896
  151.9105  133.3555  159.3870 H   0  0  0  0  0  0  0  0  0  0  0  0  # atno 6908 bound_to 6896
  150.7018  134.4662  159.5448 H   0  0  0  0  0  0  0  0  0  0  0  0  # atno 6909 bound_to 6896
  145.9779  139.4213  143.0150 H   0  0  0  0  0  0  0  0  0  0  0  0  # atno 7974 bound_to 7965
  155.8889  140.3440  155.5942 H   0  0  0  0  0  0  0  0  0  0  0  0  # atno 8008 bound_to 7997
  155.7633  140.0835  157.2163 H   0  0  0  0  0  0  0  0  0  0  0  0  # atno 8009 bound_to 7997
  154.4031  140.1532  156.2845 H   0  0  0  0  0  0  0  0  0  0  0  0  # atno 8010 bound_to 7997
  139.6619  144.7128  151.1849 H   0  0  0  0  0  0  0  0  0  0  0  0  # atno 10167 bound_to 10162
  157.0672  131.0356  151.2625 H   0  0  0  0  0  0  0  0  0  0  0  0  # atno 10718 bound_to 10713
  153.0238  135.6401  154.1430 H   0  0  0  0  0  0  0  0  0  0  0  0  # atno 10763 bound_to 10752
  154.1161  135.2849  155.3221 H   0  0  0  0  0  0  0  0  0  0  0  0  # atno 10764 bound_to 10752
  154.6297  135.5497  153.7729 H   0  0  0  0  0  0  0  0  0  0  0  0  # atno 10765 bound_to 10752
  140.9257  134.1386  157.4277 H   0  0  0  0  0  0  0  0  0  0  0  0  # atno 11005 bound_to 11000
  145.7812  140.9855  143.1098 LP  0  0  0  0  0  0  0  0  0  0  0  0  # atno 17320 bound_to 7965
  144.6853  139.9567  143.7479 LP  0  0  0  0  0  0  0  0  0  0  0  0  # atno 17321 bound_to 7965
  140.7583  143.5981  150.8728 LP  0  0  0  0  0  0  0  0  0  0  0  0  # atno 17342 bound_to 10162
  139.9639  143.6132  152.2994 LP  0  0  0  0  0  0  0  0  0  0  0  0  # atno 17343 bound_to 10162
  157.4907  130.7820  149.7505 LP  0  0  0  0  0  0  0  0  0  0  0  0  # atno 17370 bound_to 10713
  155.9961  130.3908  150.2793 LP  0  0  0  0  0  0  0  0  0  0  0  0  # atno 17371 bound_to 10713
  139.8785  134.9987  156.5916 LP  0  0  0  0  0  0  0  0  0  0  0  0  # atno 17394 bound_to 11000
  140.7929  133.8567  155.8661 LP  0  0  0  0  0  0  0  0  0  0  0  0  # atno 17395 bound_to 11000

$$$$
