AV-unprocessed.smi:2299|AV-procd|sdf|9230|dock5
  -GOLD-   2272012453D 1   1.00000     0.00000
 Structure written by MMmdl.
 42 43  0  0  0  0  0  0  0  0  1 V2000
  153.0578  142.9256  162.4813 C   0  0  0  0  0  0  0  0  0  0  0  0
  152.7753  142.2142  161.1497 C   0  0  0  0  0  0  0  0  0  0  0  0
  153.9364  141.3007  160.7295 C   0  0  0  0  0  0  0  0  0  0  0  0
  152.4203  143.1947  160.0634 C   0  0  0  0  0  0  0  0  0  0  0  0
  152.3241  144.5051  160.2754 N   0  0  0  0  0  0  0  0  0  0  0  0
  151.9695  145.0448  159.0470 C   0  0  0  0  0  0  0  0  0  0  0  0
  151.8619  144.0355  158.1236 C   0  0  0  0  0  0  0  0  0  0  0  0
  152.1647  142.8428  158.7832 N   0  0  0  0  0  0  0  0  0  0  0  0
  152.1855  141.4871  158.2287 C   0  0  0  0  0  0  0  0  0  0  0  0
  150.9028  141.0773  157.4986 C   0  0  0  0  0  0  0  0  0  0  0  0
  150.3162  140.0433  157.8174 O   0  0  0  0  0  0  0  0  0  0  0  0
  150.4831  141.8984  156.5231 N   0  0  0  0  0  0  0  0  0  0  0  0
  149.2687  141.7295  155.7246 C   0  0  2  0  0  0  0  0  0  0  0  0
  148.0981  141.2778  156.6262 C   0  0  0  0  0  0  0  0  0  0  0  0
  146.7075  141.5859  156.0477 C   0  0  0  0  0  0  0  0  0  0  0  0
  146.3846  140.8693  154.7281 C   0  0  0  0  0  0  0  0  0  0  0  0
  147.2739  141.3098  153.5529 C   0  0  0  0  0  0  0  0  0  0  0  0
  148.5874  140.6780  153.5763 N   0  0  0  0  0  0  0  0  0  0  0  0
  149.5340  140.8090  154.5182 C   0  0  0  0  0  0  0  0  0  0  0  0
  150.5984  140.1981  154.4225 O   0  0  0  0  0  0  0  0  0  0  0  0
  152.2018  143.5247  162.7936 H   0  0  0  0  0  0  0  0  0  0  0  0
  153.9189  143.5902  162.4033 H   0  0  0  0  0  0  0  0  0  0  0  0
  153.2644  142.2066  163.2745 H   0  0  0  0  0  0  0  0  0  0  0  0
  151.9221  141.5626  161.3301 H   0  0  0  0  0  0  0  0  0  0  0  0
  153.6937  140.7533  159.8181 H   0  0  0  0  0  0  0  0  0  0  0  0
  154.1597  140.5675  161.5050 H   0  0  0  0  0  0  0  0  0  0  0  0
  154.8458  141.8727  160.5425 H   0  0  0  0  0  0  0  0  0  0  0  0
  151.8159  146.1067  158.9238 H   0  0  0  0  0  0  0  0  0  0  0  0
  151.6013  144.0816  157.0765 H   0  0  0  0  0  0  0  0  0  0  0  0
  153.0210  141.4081  157.5320 H   0  0  0  0  0  0  0  0  0  0  0  0
  152.3759  140.7853  159.0420 H   0  0  0  0  0  0  0  0  0  0  0  0
  151.0275  142.7288  156.3380 H   0  0  0  0  0  0  0  0  0  0  0  0
  149.0248  142.7091  155.3088 H   0  0  0  0  0  0  0  0  0  0  0  0
  148.1839  140.2126  156.8464 H   0  0  0  0  0  0  0  0  0  0  0  0
  148.1654  141.7832  157.5906 H   0  0  0  0  0  0  0  0  0  0  0  0
  145.9565  141.3049  156.7867 H   0  0  0  0  0  0  0  0  0  0  0  0
  146.6008  142.6629  155.9126 H   0  0  0  0  0  0  0  0  0  0  0  0
  146.4367  139.7875  154.8600 H   0  0  0  0  0  0  0  0  0  0  0  0
  145.3474  141.0886  154.4726 H   0  0  0  0  0  0  0  0  0  0  0  0
  146.7976  141.0172  152.6169 H   0  0  0  0  0  0  0  0  0  0  0  0
  147.3730  142.3956  153.5182 H   0  0  0  0  0  0  0  0  0  0  0  0
  148.7989  140.0684  152.7995 H   0  0  0  0  0  0  0  0  0  0  0  0
  1  2  1  0  0  0  0
  1 21  1  0  0  0  0
  1 22  1  0  0  0  0
  1 23  1  0  0  0  0
  2  3  1  0  0  0  0
  2  4  1  0  0  0  0
  2 24  1  0  0  0  0
  3 25  1  0  0  0  0
  3 26  1  0  0  0  0
  3 27  1  0  0  0  0
  4  8  1  0  0  0  0
  4  5  2  0  0  0  0
  5  6  1  0  0  0  0
  6  7  2  0  0  0  0
  6 28  1  0  0  0  0
  7  8  1  0  0  0  0
  7 29  1  0  0  0  0
  8  9  1  0  0  0  0
  9 10  1  0  0  0  0
  9 30  1  0  0  0  0
  9 31  1  0  0  0  0
 10 11  2  0  0  0  0
 10 12  1  0  0  0  0
 12 13  1  0  0  0  0
 12 32  1  0  0  0  0
 13 19  1  0  0  0  0
 13 14  1  0  0  0  0
 13 33  1  0  0  0  0
 14 15  1  0  0  0  0
 14 34  1  0  0  0  0
 14 35  1  0  0  0  0
 15 16  1  0  0  0  0
 15 36  1  0  0  0  0
 15 37  1  0  0  0  0
 16 17  1  0  0  0  0
 16 38  1  0  0  0  0
 16 39  1  0  0  0  0
 17 18  1  0  0  0  0
 17 40  1  0  0  0  0
 17 41  1  0  0  0  0
 18 19  1  0  0  0  0
 18 42  1  0  0  0  0
 19 20  2  0  0  0  0
M  END
> <s_m_source_file>
AV-unprocessed.smi

> <i_m_source_file_index>
2299

> <i_lp_mmshare_version>
43012

> <i_f3d_flags>
0

> <s_epik_input>
W0NIM11bQ0hdKFtDSDNdKWMxbltjSF1bY0hdbjFbQ0gyXUMoPU8pW05IXVtDQEBIXTJbQ0gyXVtDSDJdW0NIMl1bQ0gyXVtOSF1DMj1P

> <s_epik_cmdline>
J2VwaWtfcHl0aG9uJywgJy1waCcsICc3LjAnLCAnLXRuJywgJzgnLCAnLW1hJywgJzIwMCcsICctbWV0YWxfYmluZGluZycsICctaW1hZScsICc8aW5maWxlLm1hZT4nLCAnLW9tYWUnLCAnPG91dGZpbGUubWFlPic=

> <r_lp_tautomer_probability>
1

> <r_epik_Ionization_Penalty>
0.557868

> <r_epik_Ionization_Penalty_Charging>
0.557868

> <r_epik_Ionization_Penalty_Neutral>
1.99744e-07

> <r_epik_State_Penalty>
0.568774

> <r_epik_Charging_Adjusted_Penalty>
1.12664

> <i_epik_Tot_Q>
0

> <i_epik_Tot_abs_Q>
0

> <r_epik_Metal_State_Penalty>
0.289303

> <b_epik_Metal_Only>
0

> <s_lp_Force_Field>
OPLS_2005

> <r_lp_Energy>
12.6328

> <b_lp_Chiralities_Consistent>
1

> <s_lp_Variant>
AV-unprocessed.smi:2299-3

> <Gold.Version>
5.8.1

> <Gold.Id.Protein>
6NUR|6NUR_protein|mol2

> <Gold.PLP.Fitness>
50.0030

> <Gold.PLP.PLP>
-45.3450

> <Gold.PLP.part.hbond>
-1.9500

> <Gold.PLP.part.metal>
0.0000

> <Gold.PLP.part.buried>
-4.6573

> <Gold.PLP.part.nonpolar>
-38.0652

> <Gold.PLP.part.repulsive>
0.3964

> <Gold.PLP.ligand.clash>
0.0000

> <Gold.PLP.ligand.torsion>
0.4545

> <Gold.PLP.Chemscore.Hbond>
1.8320

> <Gold.PLP.Chemscore.CHOScore>
0.0000

> <Gold.PLP.Chemscore.Metal>
0.0000

> <Gold.Chemscore.Hbonds>
donor molecule, donor type, donor heavy atom, donor atom, acceptor molecule, acceptor atom, score
      L1  H    18    42       P1  7957  0.85
      P1  H  7989  7998       L1    20  1.00

> <Gold.PLP.Chemscore.Internal.Correction>
0.0710

> <Gold.Rescore>
     Score         DG    S(hbond)    S(metal)    S(lipo)     H(rot)  DE(clash)    DE(int)     intcor
     14.96     -17.60       1.86        0.00      87.61       1.70       0.07       2.57       ----

> <Gold.Chemscore.Fitness>
14.9597

> <Gold.Chemscore.DG>
-17.5965

> <Gold.Chemscore.ZeroCoef>
-5.4800

> <Gold.Chemscore.Hbond>
1.8622

> <Gold.Chemscore.Metal>
0.0000

> <Gold.Chemscore.Lipo>
87.6055

> <Gold.Chemscore.Internal_Hbond>
0.0000

> <Gold.Chemscore.DEClash>
0.0672

> <Gold.Chemscore.DEInternal>
2.5696

> <Gold.Chemscore.Rot>
1.7004

> <Gold.Chemscore.Internal.Correction>
   9.000000E+99

> <Gold.Chemscore.Hbonds>
donor molecule, donor type, donor heavy atom, donor atom, acceptor molecule, acceptor atom, score
      L1  H    18    42       P1  7957  0.83
      P1  H  7989  7998       L1    20  0.83

> <Gold.Chemscore.Hbond.Weighted>
-6.2197

> <Gold.Chemscore.Metal.Weighted>
-0.0000

> <Gold.Chemscore.Lipo.Weighted>
-10.2498

> <Gold.Chemscore.Internal_Hbond.Weighted>
0.0000

> <Gold.Chemscore.DEClash.Weighted>
0.0672

> <Gold.Chemscore.DEInternal.Weighted>
2.5696

> <Gold.Chemscore.Rot.Weighted>
4.3530

> <Gold.Chemscore.Internal.Correction.Weighted>
   9.000000E+99

> <Gold.Protein.RotatedTorsions>
[ 6907 6896 6895 6894 ] final  178.85 input  -60.11 | X-H torsion
[ 7974 7965 7964 7962 ] final  -37.96 input  175.53 | X-H torsion
[ 8008 7997 7996 7995 ] final  -78.86 input   59.86 | X-H torsion
[ 10167 10162 10161 10158 ] final  153.60 input  -65.29 | X-H torsion
[ 10718 10713 10712 10709 ] final -111.73 input   66.30 | X-H torsion
[ 10763 10752 10751 10750 ] final  -98.17 input  -60.55 | X-H torsion
[ 11005 11000 10999 10996 ] final  -87.24 input  -57.11 | X-H torsion

> <Gold.Protein.ActiveResidues>
 VAL166  LYS551  ARG553  GLY616  TRP617  ASP618  TYR619  PRO620  LYS621  CYS622 
 ASP623  PHE694  ASN695  SER759  ASP760  ASP761  ALA762  ILE779  LEU786  VAL792 
 PHE793  MET794  SER795  GLU796  ALA797  LYS798  CYS799  TRP800  GLU811  SER814 

> <Gold.Protein.RotatedAtoms>
  151.6811  133.3312  159.3219 H   0  0  0  0  0  0  0  0  0  0  0  0  # atno 6907 bound_to 6896
  150.7822  134.6780  159.6437 H   0  0  0  0  0  0  0  0  0  0  0  0  # atno 6908 bound_to 6896
  152.3883  134.6486  160.0169 H   0  0  0  0  0  0  0  0  0  0  0  0  # atno 6909 bound_to 6896
  146.0529  140.6456  142.9033 H   0  0  0  0  0  0  0  0  0  0  0  0  # atno 7974 bound_to 7965
  154.5729  140.0687  156.8991 H   0  0  0  0  0  0  0  0  0  0  0  0  # atno 8008 bound_to 7997
  155.2601  140.3358  155.4256 H   0  0  0  0  0  0  0  0  0  0  0  0  # atno 8009 bound_to 7997
  156.2132  140.1767  156.7633 H   0  0  0  0  0  0  0  0  0  0  0  0  # atno 8010 bound_to 7997
  139.4826  144.5259  151.7802 H   0  0  0  0  0  0  0  0  0  0  0  0  # atno 10167 bound_to 10162
  156.0664  130.5882  150.8413 H   0  0  0  0  0  0  0  0  0  0  0  0  # atno 10718 bound_to 10713
  154.7391  135.5019  153.9092 H   0  0  0  0  0  0  0  0  0  0  0  0  # atno 10763 bound_to 10752
  153.1025  135.6689  153.9654 H   0  0  0  0  0  0  0  0  0  0  0  0  # atno 10764 bound_to 10752
  153.9436  135.3065  155.3421 H   0  0  0  0  0  0  0  0  0  0  0  0  # atno 10765 bound_to 10752
  141.1619  133.7500  156.9278 H   0  0  0  0  0  0  0  0  0  0  0  0  # atno 11005 bound_to 11000
  144.7132  140.4116  143.7064 LP  0  0  0  0  0  0  0  0  0  0  0  0  # atno 17320 bound_to 7965
  145.6694  139.1596  143.2763 LP  0  0  0  0  0  0  0  0  0  0  0  0  # atno 17321 bound_to 7965
  140.4779  144.1493  150.5928 LP  0  0  0  0  0  0  0  0  0  0  0  0  # atno 17342 bound_to 10162
  140.4311  143.2568  151.9594 LP  0  0  0  0  0  0  0  0  0  0  0  0  # atno 17343 bound_to 10162
  157.5708  131.0946  150.9421 LP  0  0  0  0  0  0  0  0  0  0  0  0  # atno 17370 bound_to 10713
  156.9637  130.5465  149.5287 LP  0  0  0  0  0  0  0  0  0  0  0  0  # atno 17371 bound_to 10713
  140.1407  134.9295  157.2463 LP  0  0  0  0  0  0  0  0  0  0  0  0  # atno 17394 bound_to 11000
  140.2840  134.3317  155.7334 LP  0  0  0  0  0  0  0  0  0  0  0  0  # atno 17395 bound_to 11000

$$$$
