AV-unprocessed.smi:670|AV-procd|sdf|3272|dock3
  -GOLD-   22720 0233D 1   1.00000     0.00000
 Structure written by MMmdl.
 45 46  0  0  0  0  0  0  0  0  1 V2000
  153.4344  141.8288  161.3891 C   0  0  0  0  0  0  0  0  0  0  0  0
  152.3867  142.4008  160.4196 C   0  0  1  0  0  0  0  0  0  0  0  0
  152.2150  143.9177  160.6372 C   0  0  0  0  0  0  0  0  0  0  0  0
  151.1821  144.5194  159.6724 C   0  0  0  0  0  0  0  0  0  0  0  0
  151.5532  144.2221  158.2129 C   0  0  0  0  0  0  0  0  0  0  0  0
  151.7123  142.7123  157.9817 C   0  0  0  0  0  0  0  0  0  0  0  0
  152.7467  142.0975  158.9476 C   0  0  2  0  0  0  0  0  0  0  0  0
  152.7668  140.6842  158.7914 O   0  0  0  0  0  0  0  0  0  0  0  0
  151.5079  140.0505  158.9661 C   0  0  0  0  0  0  0  0  0  0  0  0
  151.2959  139.0544  157.8170 C   0  0  0  0  0  0  0  0  0  0  0  0
  150.0687  138.2862  157.9953 N   0  0  0  0  0  0  0  0  0  0  0  0
  149.8933  137.3073  158.8953 C   0  0  0  0  0  0  0  0  0  0  0  0
  150.7852  136.9187  159.6510 O   0  0  0  0  0  0  0  0  0  0  0  0
  148.4978  136.6672  158.9292 C   0  0  0  0  0  0  0  0  0  0  0  0
  148.1292  136.1438  160.2526 N   0  0  0  0  0  0  0  0  0  0  0  0
  147.9218  137.1234  161.2119 N   0  0  0  0  0  0  0  0  0  0  0  0
  147.5789  136.7901  162.4103 C   0  0  0  0  0  0  0  0  0  0  0  0
  147.3811  137.7922  163.3286 O   0  0  0  0  0  0  0  0  0  0  0  0
  147.4078  135.4024  162.7813 C   0  0  0  0  0  0  0  0  0  0  0  0
  147.6182  134.4550  161.8415 C   0  0  0  0  0  0  0  0  0  0  0  0
  148.0089  134.7984  160.4729 C   0  0  0  0  0  0  0  0  0  0  0  0
  148.2107  133.9561  159.5987 O   0  0  0  0  0  0  0  0  0  0  0  0
  147.9829  137.6104  164.0338 H   0  0  0  0  0  0  0  0  0  0  0  0
  154.4181  142.2642  161.2102 H   0  0  0  0  0  0  0  0  0  0  0  0
  153.5273  140.7473  161.2845 H   0  0  0  0  0  0  0  0  0  0  0  0
  153.1639  142.0332  162.4250 H   0  0  0  0  0  0  0  0  0  0  0  0
  151.4321  141.9211  160.6415 H   0  0  0  0  0  0  0  0  0  0  0  0
  151.9091  144.1147  161.6652 H   0  0  0  0  0  0  0  0  0  0  0  0
  153.1735  144.4202  160.5001 H   0  0  0  0  0  0  0  0  0  0  0  0
  150.1946  144.1107  159.8908 H   0  0  0  0  0  0  0  0  0  0  0  0
  151.1123  145.5966  159.8265 H   0  0  0  0  0  0  0  0  0  0  0  0
  150.7899  144.6226  157.5451 H   0  0  0  0  0  0  0  0  0  0  0  0
  152.4841  144.7312  157.9605 H   0  0  0  0  0  0  0  0  0  0  0  0
  150.7478  142.2212  158.1180 H   0  0  0  0  0  0  0  0  0  0  0  0
  152.0035  142.5373  156.9462 H   0  0  0  0  0  0  0  0  0  0  0  0
  153.7341  142.5161  158.7430 H   0  0  0  0  0  0  0  0  0  0  0  0
  151.4785  139.5235  159.9197 H   0  0  0  0  0  0  0  0  0  0  0  0
  150.7041  140.7882  158.9775 H   0  0  0  0  0  0  0  0  0  0  0  0
  151.2343  139.5889  156.8689 H   0  0  0  0  0  0  0  0  0  0  0  0
  152.1500  138.3797  157.7392 H   0  0  0  0  0  0  0  0  0  0  0  0
  149.2847  138.5410  157.4122 H   0  0  0  0  0  0  0  0  0  0  0  0
  147.7537  137.3951  158.5995 H   0  0  0  0  0  0  0  0  0  0  0  0
  148.4748  135.8677  158.1864 H   0  0  0  0  0  0  0  0  0  0  0  0
  147.1193  135.1383  163.7883 H   0  0  0  0  0  0  0  0  0  0  0  0
  147.4946  133.4147  162.1047 H   0  0  0  0  0  0  0  0  0  0  0  0
  1  2  1  0  0  0  0
  1 24  1  0  0  0  0
  1 25  1  0  0  0  0
  1 26  1  0  0  0  0
  2  7  1  0  0  0  0
  2  3  1  0  0  0  0
  2 27  1  0  0  0  0
  3  4  1  0  0  0  0
  3 28  1  0  0  0  0
  3 29  1  0  0  0  0
  4  5  1  0  0  0  0
  4 30  1  0  0  0  0
  4 31  1  0  0  0  0
  5  6  1  0  0  0  0
  5 32  1  0  0  0  0
  5 33  1  0  0  0  0
  6  7  1  0  0  0  0
  6 34  1  0  0  0  0
  6 35  1  0  0  0  0
  7  8  1  0  0  0  0
  7 36  1  0  0  0  0
  8  9  1  0  0  0  0
  9 10  1  0  0  0  0
  9 37  1  0  0  0  0
  9 38  1  0  0  0  0
 10 11  1  0  0  0  0
 10 39  1  0  0  0  0
 10 40  1  0  0  0  0
 11 12  1  0  0  0  0
 11 41  1  0  0  0  0
 12 13  2  0  0  0  0
 12 14  1  0  0  0  0
 14 42  1  0  0  0  0
 14 43  1  0  0  0  0
 14 15  1  0  0  0  0
 15 16  1  0  0  0  0
 15 21  1  0  0  0  0
 16 17  2  0  0  0  0
 17 18  1  0  0  0  0
 17 19  1  0  0  0  0
 18 23  1  0  0  0  0
 19 44  1  0  0  0  0
 19 20  2  0  0  0  0
 20 45  1  0  0  0  0
 20 21  1  0  0  0  0
 21 22  2  0  0  0  0
M  END
> <s_m_source_file>
AV-unprocessed.smi

> <i_m_source_file_index>
670

> <i_lp_mmshare_version>
43012

> <i_f3d_flags>
0

> <s_epik_input>
W0NIM11bQ0BASF0xW0NIMl1bQ0gyXVtDSDJdW0NIMl1bQ0BIXTFPW0NIMl1bQ0gyXVtOSF1DKD1PKVtDSDJdbjJbbkhdYyg9TylbY0hdW2NIXWMyPU8=

> <s_epik_cmdline>
J2VwaWtfcHl0aG9uJywgJy1waCcsICc3LjAnLCAnLXRuJywgJzgnLCAnLW1hJywgJzIwMCcsICctbWV0YWxfYmluZGluZycsICctaW1hZScsICc8aW5maWxlLm1hZT4nLCAnLW9tYWUnLCAnPG91dGZpbGUubWFlPic=

> <r_lp_tautomer_probability>
0.9996

> <r_epik_Ionization_Penalty>
2.12726

> <r_epik_Ionization_Penalty_Charging>
3.83395e-08

> <r_epik_Ionization_Penalty_Neutral>
2.12726

> <r_epik_State_Penalty>
1.70432

> <r_epik_Charging_Adjusted_Penalty>
1.70432

> <i_epik_Tot_Q>
0

> <i_epik_Tot_abs_Q>
0

> <r_epik_Metal_State_Penalty>
1.70432

> <b_epik_Metal_Only>
0

> <s_lp_Force_Field>
OPLS_2005

> <r_lp_Energy>
20.1935

> <b_lp_Chiralities_Consistent>
1

> <s_lp_Variant>
AV-unprocessed.smi:670-8

> <Gold.Version>
5.8.1

> <Gold.Id.Protein>
6NUR|6NUR_protein|mol2

> <Gold.PLP.Fitness>
54.8418

> <Gold.PLP.PLP>
-49.5514

> <Gold.PLP.part.hbond>
-4.3773

> <Gold.PLP.part.metal>
0.0000

> <Gold.PLP.part.buried>
-4.9545

> <Gold.PLP.part.nonpolar>
-40.9097

> <Gold.PLP.part.repulsive>
0.1022

> <Gold.PLP.ligand.clash>
0.0000

> <Gold.PLP.ligand.torsion>
0.8659

> <Gold.PLP.Chemscore.Hbond>
2.3200

> <Gold.PLP.Chemscore.CHOScore>
0.0000

> <Gold.PLP.Chemscore.Metal>
0.0000

> <Gold.Chemscore.Hbonds>
donor molecule, donor type, donor heavy atom, donor atom, acceptor molecule, acceptor atom, score
      P1  H  6896  6909       L1    13  1.00
      P1  H  6931  6943       L1    16  0.40
      P1  H  6934  6947       L1    16  0.71

> <Gold.PLP.Chemscore.Internal.Correction>
0.0621

> <Gold.Rescore>
     Score         DG    S(hbond)    S(metal)    S(lipo)     H(rot)  DE(clash)    DE(int)     intcor
     15.31     -16.44       1.82        0.00     109.27       3.09       0.13       1.00       ----

> <Gold.Chemscore.Fitness>
15.3075

> <Gold.Chemscore.DG>
-16.4411

> <Gold.Chemscore.ZeroCoef>
-5.4800

> <Gold.Chemscore.Hbond>
1.8225

> <Gold.Chemscore.Metal>
0.0000

> <Gold.Chemscore.Lipo>
109.2683

> <Gold.Chemscore.Internal_Hbond>
0.0000

> <Gold.Chemscore.DEClash>
0.1322

> <Gold.Chemscore.DEInternal>
1.0014

> <Gold.Chemscore.Rot>
3.0901

> <Gold.Chemscore.Internal.Correction>
   9.000000E+99

> <Gold.Chemscore.Hbonds>
donor molecule, donor type, donor heavy atom, donor atom, acceptor molecule, acceptor atom, score
      P1  H  6896  6909       L1    13  0.89
      P1  H  6931  6943       L1    16  0.01
      P1  H  6934  6947       L1    16  0.38

> <Gold.Chemscore.Hbond.Weighted>
-6.0873

> <Gold.Chemscore.Metal.Weighted>
-0.0000

> <Gold.Chemscore.Lipo.Weighted>
-12.7844

> <Gold.Chemscore.Internal_Hbond.Weighted>
0.0000

> <Gold.Chemscore.DEClash.Weighted>
0.1322

> <Gold.Chemscore.DEInternal.Weighted>
1.0014

> <Gold.Chemscore.Rot.Weighted>
7.9106

> <Gold.Chemscore.Internal.Correction.Weighted>
   9.000000E+99

> <Gold.Protein.RotatedTorsions>
[ 6907 6896 6895 6894 ] final   81.07 input  -60.11 | X-H torsion
[ 7974 7965 7964 7962 ] final   62.43 input  175.53 | X-H torsion
[ 8008 7997 7996 7995 ] final  -77.91 input   59.86 | X-H torsion
[ 10167 10162 10161 10158 ] final  169.55 input  -65.29 | X-H torsion
[ 10718 10713 10712 10709 ] final  -73.27 input   66.30 | X-H torsion
[ 10763 10752 10751 10750 ] final  110.99 input  -60.55 | X-H torsion
[ 11005 11000 10999 10996 ] final -150.12 input  -57.11 | X-H torsion

> <Gold.Protein.ActiveResidues>
 VAL166  LYS551  ARG553  GLY616  TRP617  ASP618  TYR619  PRO620  LYS621  CYS622 
 ASP623  PHE694  ASN695  SER759  ASP760  ASP761  ALA762  ILE779  LEU786  VAL792 
 PHE793  MET794  SER795  GLU796  ALA797  LYS798  CYS799  TRP800  GLU811  SER814 

> <Gold.Protein.RotatedAtoms>
  152.5256  134.3260  159.9165 H   0  0  0  0  0  0  0  0  0  0  0  0  # atno 6907 bound_to 6896
  151.3209  133.4034  159.2662 H   0  0  0  0  0  0  0  0  0  0  0  0  # atno 6908 bound_to 6896
  150.9960  134.9301  159.7984 H   0  0  0  0  0  0  0  0  0  0  0  0  # atno 6909 bound_to 6896
  145.8734  139.3393  143.0749 H   0  0  0  0  0  0  0  0  0  0  0  0  # atno 7974 bound_to 7965
  154.5640  140.0703  156.8863 H   0  0  0  0  0  0  0  0  0  0  0  0  # atno 8008 bound_to 7997
  155.2758  140.3368  155.4243 H   0  0  0  0  0  0  0  0  0  0  0  0  # atno 8009 bound_to 7997
  156.2065  140.1742  156.7773 H   0  0  0  0  0  0  0  0  0  0  0  0  # atno 8010 bound_to 7997
  139.4995  144.3693  151.9741 H   0  0  0  0  0  0  0  0  0  0  0  0  # atno 10167 bound_to 10162
  156.0287  130.4390  150.2717 H   0  0  0  0  0  0  0  0  0  0  0  0  # atno 10718 bound_to 10713
  153.4569  135.3731  155.2316 H   0  0  0  0  0  0  0  0  0  0  0  0  # atno 10763 bound_to 10752
  154.8757  135.3899  154.3971 H   0  0  0  0  0  0  0  0  0  0  0  0  # atno 10764 bound_to 10752
  153.4539  135.7086  153.6156 H   0  0  0  0  0  0  0  0  0  0  0  0  # atno 10765 bound_to 10752
  140.7436  134.3486  157.5142 H   0  0  0  0  0  0  0  0  0  0  0  0  # atno 11005 bound_to 11000
  145.9109  140.9180  143.0454 LP  0  0  0  0  0  0  0  0  0  0  0  0  # atno 17320 bound_to 7965
  144.6726  140.1159  143.7452 LP  0  0  0  0  0  0  0  0  0  0  0  0  # atno 17321 bound_to 7965
  140.3129  144.3517  150.6029 LP  0  0  0  0  0  0  0  0  0  0  0  0  # atno 17342 bound_to 10162
  140.5784  143.2174  151.7473 LP  0  0  0  0  0  0  0  0  0  0  0  0  # atno 17343 bound_to 10162
  157.0820  131.0146  151.3153 LP  0  0  0  0  0  0  0  0  0  0  0  0  # atno 17370 bound_to 10713
  157.4920  130.7827  149.7517 LP  0  0  0  0  0  0  0  0  0  0  0  0  # atno 17371 bound_to 10713
  139.8801  134.9096  156.2996 LP  0  0  0  0  0  0  0  0  0  0  0  0  # atno 17394 bound_to 11000
  140.9815  133.7265  156.0678 LP  0  0  0  0  0  0  0  0  0  0  0  0  # atno 17395 bound_to 11000

$$$$
