AV-unprocessed.smi:3110|AV-procd|sdf|11831|dock7
  -GOLD-   2272017203D 1   1.00000     0.00000
 Structure written by MMmdl.
 33 34  0  0  0  0  0  0  0  0  1 V2000
  155.1596  139.2862  159.0745 O   0  0  0  0  0  0  0  0  0  0  0  0
  155.1023  139.6327  160.2544 C   0  0  0  0  0  0  0  0  0  0  0  0
  155.7807  138.7934  161.3420 C   0  0  0  0  0  0  0  0  0  0  0  0
  154.8498  138.4633  162.5273 C   0  0  1  0  0  0  0  0  0  0  0  0
  154.1634  137.1324  162.3596 C   0  0  0  0  0  0  0  0  0  0  0  0
  154.2964  136.3459  163.4252 C   0  0  0  0  0  0  0  0  0  0  0  0
  155.0994  136.9915  164.5200 C   0  0  0  0  0  0  0  0  0  0  0  0
  155.5728  138.3218  163.8940 C   0  0  0  0  0  0  0  0  0  0  0  0
  154.4618  140.7373  160.6664 N   0  0  0  0  0  0  0  0  0  0  0  0
  153.7466  141.6630  159.7964 C   0  0  0  0  0  0  0  0  0  0  0  0
  153.1586  142.8429  160.5881 C   0  0  0  0  0  0  0  0  0  0  0  0
  152.4337  143.7521  159.7241 N   0  0  0  0  0  0  0  0  0  0  0  0
  152.2392  143.6325  158.3544 C   0  0  0  0  0  0  0  0  0  0  0  0
  151.4930  144.7228  157.9676 C   0  0  0  0  0  0  0  0  0  0  0  0
  151.2177  145.5202  159.0759 N   0  0  0  0  0  0  0  0  0  0  0  0
  151.8076  144.8825  160.0789 C   0  0  0  0  0  0  0  0  0  0  0  0
  156.1302  137.8691  160.8805 H   0  0  0  0  0  0  0  0  0  0  0  0
  156.6700  139.3112  161.7058 H   0  0  0  0  0  0  0  0  0  0  0  0
  154.0638  139.2162  162.6026 H   0  0  0  0  0  0  0  0  0  0  0  0
  153.6149  136.8772  161.4647 H   0  0  0  0  0  0  0  0  0  0  0  0
  153.8735  135.3572  163.5266 H   0  0  0  0  0  0  0  0  0  0  0  0
  154.4672  137.1582  165.3926 H   0  0  0  0  0  0  0  0  0  0  0  0
  155.9376  136.3578  164.8110 H   0  0  0  0  0  0  0  0  0  0  0  0
  156.6548  138.2883  163.7583 H   0  0  0  0  0  0  0  0  0  0  0  0
  155.3605  139.1695  164.5464 H   0  0  0  0  0  0  0  0  0  0  0  0
  154.4661  140.9487  161.6539 H   0  0  0  0  0  0  0  0  0  0  0  0
  154.4472  142.0314  159.0464 H   0  0  0  0  0  0  0  0  0  0  0  0
  152.9609  141.1337  159.2542 H   0  0  0  0  0  0  0  0  0  0  0  0
  152.4772  142.4895  161.3634 H   0  0  0  0  0  0  0  0  0  0  0  0
  153.9515  143.3980  161.0912 H   0  0  0  0  0  0  0  0  0  0  0  0
  152.6356  142.8050  157.7846 H   0  0  0  0  0  0  0  0  0  0  0  0
  151.1347  144.9921  156.9847 H   0  0  0  0  0  0  0  0  0  0  0  0
  151.7807  145.2438  161.0967 H   0  0  0  0  0  0  0  0  0  0  0  0
  1  2  2  0  0  0  0
  2  3  1  0  0  0  0
  2  9  1  0  0  0  0
  3  4  1  0  0  0  0
  3 17  1  0  0  0  0
  3 18  1  0  0  0  0
  4  8  1  0  0  0  0
  4  5  1  0  0  0  0
  4 19  1  0  0  0  0
  5  6  2  0  0  0  0
  5 20  1  0  0  0  0
  6  7  1  0  0  0  0
  6 21  1  0  0  0  0
  7  8  1  0  0  0  0
  7 22  1  0  0  0  0
  7 23  1  0  0  0  0
  8 24  1  0  0  0  0
  8 25  1  0  0  0  0
  9 10  1  0  0  0  0
  9 26  1  0  0  0  0
 10 11  1  0  0  0  0
 10 27  1  0  0  0  0
 10 28  1  0  0  0  0
 11 12  1  0  0  0  0
 11 29  1  0  0  0  0
 11 30  1  0  0  0  0
 12 16  1  0  0  0  0
 12 13  1  0  0  0  0
 13 14  2  0  0  0  0
 13 31  1  0  0  0  0
 14 15  1  0  0  0  0
 14 32  1  0  0  0  0
 15 16  2  0  0  0  0
 16 33  1  0  0  0  0
M  END
> <s_m_source_file>
AV-unprocessed.smi

> <i_m_source_file_index>
3110

> <i_lp_mmshare_version>
43012

> <i_f3d_flags>
0

> <s_epik_input>
W0NIMl0xW0NIMl1bQ0hdPVtDSF1bQ0BIXTFbQ0gyXUMoPU8pW05IXVtDSDJdW0NIMl1uMltjSF1bY0hdbltjSF0y

> <s_epik_cmdline>
J2VwaWtfcHl0aG9uJywgJy1waCcsICc3LjAnLCAnLXRuJywgJzgnLCAnLW1hJywgJzIwMCcsICctbWV0YWxfYmluZGluZycsICctaW1hZScsICc8aW5maWxlLm1hZT4nLCAnLW9tYWUnLCAnPG91dGZpbGUubWFlPic=

> <r_lp_tautomer_probability>
1

> <r_epik_Ionization_Penalty>
0.593629

> <r_epik_Ionization_Penalty_Charging>
0.593629

> <r_epik_Ionization_Penalty_Neutral>
1.57355e-08

> <r_epik_State_Penalty>
0.607413

> <r_epik_Charging_Adjusted_Penalty>
1.20104

> <i_epik_Tot_Q>
0

> <i_epik_Tot_abs_Q>
0

> <r_epik_Metal_State_Penalty>
0.299385

> <b_epik_Metal_Only>
0

> <s_lp_Force_Field>
OPLS_2005

> <r_lp_Energy>
16.9466

> <b_lp_Chiralities_Consistent>
1

> <s_lp_Variant>
AV-unprocessed.smi:3110-4

> <Gold.Version>
5.8.1

> <Gold.Id.Protein>
6NUR|6NUR_protein|mol2

> <Gold.PLP.Fitness>
46.0476

> <Gold.PLP.PLP>
-41.0231

> <Gold.PLP.part.hbond>
-2.0000

> <Gold.PLP.part.metal>
0.0000

> <Gold.PLP.part.buried>
-4.8588

> <Gold.PLP.part.nonpolar>
-34.5909

> <Gold.PLP.part.repulsive>
0.1969

> <Gold.PLP.ligand.clash>
0.0000

> <Gold.PLP.ligand.torsion>
0.5074

> <Gold.PLP.Chemscore.Hbond>
1.0000

> <Gold.PLP.Chemscore.CHOScore>
1.0000

> <Gold.PLP.Chemscore.Metal>
0.0000

> <Gold.Chemscore.Hbonds>
donor molecule, donor type, donor heavy atom, donor atom, acceptor molecule, acceptor atom, score
      P1  H  7997  8010       L1     1  1.00
      L1  C    14    32       P1  8028  0.88

> <Gold.PLP.Chemscore.Internal.Correction>
0.0393

> <Gold.Rescore>
     Score         DG    S(hbond)    S(metal)    S(lipo)     H(rot)  DE(clash)    DE(int)     intcor
     13.78     -14.04       0.99        0.00      88.99       2.01       0.06       0.20       ----

> <Gold.Chemscore.Fitness>
13.7760

> <Gold.Chemscore.DG>
-14.0389

> <Gold.Chemscore.ZeroCoef>
-5.4800

> <Gold.Chemscore.Hbond>
0.9863

> <Gold.Chemscore.Metal>
0.0000

> <Gold.Chemscore.Lipo>
88.9941

> <Gold.Chemscore.Internal_Hbond>
0.0000

> <Gold.Chemscore.DEClash>
0.0637

> <Gold.Chemscore.DEInternal>
0.1992

> <Gold.Chemscore.Rot>
2.0108

> <Gold.Chemscore.Internal.Correction>
   9.000000E+99

> <Gold.Chemscore.Hbonds>
donor molecule, donor type, donor heavy atom, donor atom, acceptor molecule, acceptor atom, score
      P1  H  7997  8010       L1     1  1.00

> <Gold.Chemscore.Hbond.Weighted>
-3.2944

> <Gold.Chemscore.Metal.Weighted>
-0.0000

> <Gold.Chemscore.Lipo.Weighted>
-10.4123

> <Gold.Chemscore.Internal_Hbond.Weighted>
0.0000

> <Gold.Chemscore.DEClash.Weighted>
0.0637

> <Gold.Chemscore.DEInternal.Weighted>
0.1992

> <Gold.Chemscore.Rot.Weighted>
5.1477

> <Gold.Chemscore.Internal.Correction.Weighted>
   9.000000E+99

> <Gold.Protein.RotatedTorsions>
[ 6907 6896 6895 6894 ] final    3.21 input  -60.11 | X-H torsion
[ 7974 7965 7964 7962 ] final  -57.29 input  175.53 | X-H torsion
[ 8008 7997 7996 7995 ] final  -18.45 input   59.86 | X-H torsion
[ 10167 10162 10161 10158 ] final   83.27 input  -65.29 | X-H torsion
[ 10718 10713 10712 10709 ] final  -41.01 input   66.30 | X-H torsion
[ 10763 10752 10751 10750 ] final  172.77 input  -60.55 | X-H torsion
[ 11005 11000 10999 10996 ] final  103.03 input  -57.11 | X-H torsion

> <Gold.Protein.ActiveResidues>
 VAL166  LYS551  ARG553  GLY616  TRP617  ASP618  TYR619  PRO620  LYS621  CYS622 
 ASP623  PHE694  ASN695  SER759  ASP760  ASP761  ALA762  ILE779  LEU786  VAL792 
 PHE793  MET794  SER795  GLU796  ALA797  LYS798  CYS799  TRP800  GLU811  SER814 

> <Gold.Protein.RotatedAtoms>
  151.6214  135.1031  160.0102 H   0  0  0  0  0  0  0  0  0  0  0  0  # atno 6907 bound_to 6896
  152.4156  133.7028  159.6444 H   0  0  0  0  0  0  0  0  0  0  0  0  # atno 6908 bound_to 6896
  150.8044  133.8464  159.3234 H   0  0  0  0  0  0  0  0  0  0  0  0  # atno 6909 bound_to 6896
  145.8527  140.8341  142.9977 H   0  0  0  0  0  0  0  0  0  0  0  0  # atno 7974 bound_to 7965
  154.4906  140.2115  155.9558 H   0  0  0  0  0  0  0  0  0  0  0  0  # atno 8008 bound_to 7997
  156.1299  140.3199  155.8302 H   0  0  0  0  0  0  0  0  0  0  0  0  # atno 8009 bound_to 7997
  155.4315  140.0504  157.3009 H   0  0  0  0  0  0  0  0  0  0  0  0  # atno 8010 bound_to 7997
  139.9201  144.6218  150.8448 H   0  0  0  0  0  0  0  0  0  0  0  0  # atno 10167 bound_to 10162
  156.2751  130.4211  149.8396 H   0  0  0  0  0  0  0  0  0  0  0  0  # atno 10718 bound_to 10713
  154.4307  135.2760  155.1914 H   0  0  0  0  0  0  0  0  0  0  0  0  # atno 10763 bound_to 10752
  154.3821  135.6085  153.5800 H   0  0  0  0  0  0  0  0  0  0  0  0  # atno 10764 bound_to 10752
  152.9836  135.5883  154.4618 H   0  0  0  0  0  0  0  0  0  0  0  0  # atno 10765 bound_to 10752
  139.8781  134.9247  156.5147 H   0  0  0  0  0  0  0  0  0  0  0  0  # atno 11005 bound_to 11000
  144.6728  140.0978  143.7462 LP  0  0  0  0  0  0  0  0  0  0  0  0  # atno 17320 bound_to 7965
  145.9338  139.2624  143.1309 LP  0  0  0  0  0  0  0  0  0  0  0  0  # atno 17321 bound_to 7965
  140.7664  143.3303  151.2425 LP  0  0  0  0  0  0  0  0  0  0  0  0  # atno 17342 bound_to 10162
  139.6869  143.9759  152.2838 LP  0  0  0  0  0  0  0  0  0  0  0  0  # atno 17343 bound_to 10162
  156.5864  130.8487  151.3396 LP  0  0  0  0  0  0  0  0  0  0  0  0  # atno 17370 bound_to 10713
  157.7296  130.9674  150.1797 LP  0  0  0  0  0  0  0  0  0  0  0  0  # atno 17371 bound_to 10713
  140.8494  133.8144  155.9153 LP  0  0  0  0  0  0  0  0  0  0  0  0  # atno 17394 bound_to 11000
  140.9159  134.2202  157.4957 LP  0  0  0  0  0  0  0  0  0  0  0  0  # atno 17395 bound_to 11000

$$$$
