AV-unprocessed.smi:242|AV-procd|sdf|1845|dock2
  -GOLD-   2262020463D 1   1.00000     0.00000
 Structure written by MMmdl.
 58 61  0  0  0  0  0  0  0  0  2 V2000
  143.8452  131.8659  150.6387 C   0  0  0  0  0  0  0  0  0  0  0  0
  145.0102  132.1531  151.6054 C   0  0  0  0  0  0  0  0  0  0  0  0
  145.6077  130.8218  152.0996 C   0  0  0  0  0  0  0  0  0  0  0  0
  144.5813  133.0055  152.7500 N   0  3  1  0  0  0  0  0  0  0  0  0
  145.6441  133.3174  153.7401 C   0  0  0  0  0  0  0  0  0  0  0  0
  145.4841  134.7943  154.1210 C   0  0  0  0  0  0  0  0  0  0  0  0
  144.0755  135.1572  153.6422 C   0  0  1  0  0  0  0  0  0  0  0  0
  143.8587  136.5845  153.3963 N   0  0  0  0  0  0  0  0  0  0  0  0
  142.4814  137.0111  153.1811 C   0  0  0  0  0  0  0  0  0  0  0  0
  144.4931  137.4013  154.2657 C   0  0  0  0  0  0  0  0  0  0  0  0
  144.0935  137.3603  155.5601 N   0  0  0  0  0  0  0  0  0  0  0  0
  144.6759  138.1564  156.4622 C   0  0  0  0  0  0  0  0  0  0  0  0
  145.6539  139.0473  156.2827 N   0  0  0  0  0  0  0  0  0  0  0  0
  146.0586  139.0858  154.9804 C   0  0  0  0  0  0  0  0  0  0  0  0
  145.5395  138.2996  153.9145 C   0  0  0  0  0  0  0  0  0  0  0  0
  146.2007  138.6057  152.7313 N   0  0  0  0  0  0  0  0  0  0  0  0
  147.0632  139.5217  153.0789 C   0  0  0  0  0  0  0  0  0  0  0  0
  147.0372  139.8794  154.4084 N   0  0  0  0  0  0  0  0  0  0  0  0
  147.8746  140.8734  155.0624 C   0  0  0  0  0  0  0  0  0  0  0  0
  149.3933  140.5873  154.9526 C   0  0  0  0  0  0  0  0  0  0  0  0
  149.7873  140.8244  153.6119 O   0  0  0  0  0  0  0  0  0  0  0  0
  150.1861  141.5401  155.8700 C   0  0  0  0  0  0  0  0  0  0  0  0
  151.6810  141.1793  155.9307 C   0  0  0  0  0  0  0  0  0  0  0  0
  151.8373  139.8251  156.3357 O   0  0  0  0  0  0  0  0  0  0  0  0
  151.2695  138.9086  155.4082 C   0  0  0  0  0  0  0  0  0  0  0  0
  149.7491  139.1273  155.3097 C   0  0  0  0  0  0  0  0  0  0  0  0
  143.9508  134.2936  152.3876 C   0  0  0  0  0  0  0  0  0  0  0  0
  144.1631  131.2057  149.8311 H   0  0  0  0  0  0  0  0  0  0  0  0
  143.4684  132.7746  150.1694 H   0  0  0  0  0  0  0  0  0  0  0  0
  143.0130  131.3822  151.1514 H   0  0  0  0  0  0  0  0  0  0  0  0
  145.7814  132.6917  151.0523 H   0  0  0  0  0  0  0  0  0  0  0  0
  145.8982  130.1886  151.2607 H   0  0  0  0  0  0  0  0  0  0  0  0
  144.8875  130.2636  152.6987 H   0  0  0  0  0  0  0  0  0  0  0  0
  146.5006  130.9705  152.7065 H   0  0  0  0  0  0  0  0  0  0  0  0
  145.5158  132.6709  154.6087 H   0  0  0  0  0  0  0  0  0  0  0  0
  146.6448  133.1457  153.3414 H   0  0  0  0  0  0  0  0  0  0  0  0
  145.6274  134.9691  155.1881 H   0  0  0  0  0  0  0  0  0  0  0  0
  146.2271  135.3870  153.5845 H   0  0  0  0  0  0  0  0  0  0  0  0
  143.3495  134.8036  154.3758 H   0  0  0  0  0  0  0  0  0  0  0  0
  142.4024  138.0988  153.1419 H   0  0  0  0  0  0  0  0  0  0  0  0
  141.8328  136.6491  153.9797 H   0  0  0  0  0  0  0  0  0  0  0  0
  142.1073  136.6212  152.2344 H   0  0  0  0  0  0  0  0  0  0  0  0
  144.3039  138.0681  157.4724 H   0  0  0  0  0  0  0  0  0  0  0  0
  147.7414  139.9722  152.3685 H   0  0  0  0  0  0  0  0  0  0  0  0
  147.6416  141.8501  154.6358 H   0  0  0  0  0  0  0  0  0  0  0  0
  147.5786  140.9244  156.1111 H   0  0  0  0  0  0  0  0  0  0  0  0
  149.3683  140.1842  153.0570 H   0  0  0  0  0  0  0  0  0  0  0  0
  150.0642  142.5745  155.5454 H   0  0  0  0  0  0  0  0  0  0  0  0
  149.7794  141.4885  156.8808 H   0  0  0  0  0  0  0  0  0  0  0  0
  152.1659  141.3421  154.9668 H   0  0  0  0  0  0  0  0  0  0  0  0
  152.1894  141.8209  156.6506 H   0  0  0  0  0  0  0  0  0  0  0  0
  151.7461  139.0185  154.4329 H   0  0  0  0  0  0  0  0  0  0  0  0
  151.4776  137.8937  155.7470 H   0  0  0  0  0  0  0  0  0  0  0  0
  149.2990  138.8722  156.2700 H   0  0  0  0  0  0  0  0  0  0  0  0
  149.3292  138.4343  154.5799 H   0  0  0  0  0  0  0  0  0  0  0  0
  144.4960  134.7513  151.5597 H   0  0  0  0  0  0  0  0  0  0  0  0
  142.9123  134.1598  152.0831 H   0  0  0  0  0  0  0  0  0  0  0  0
  143.8760  132.4885  153.2553 H   0  0  0  0  0  0  0  0  0  0  0  0
  1  2  1  0  0  0  0
  1 28  1  0  0  0  0
  1 29  1  0  0  0  0
  1 30  1  0  0  0  0
  2  3  1  0  0  0  0
  2  4  1  0  0  0  0
  2 31  1  0  0  0  0
  3 32  1  0  0  0  0
  3 33  1  0  0  0  0
  3 34  1  0  0  0  0
  4 27  1  0  0  0  0
  4  5  1  0  0  0  0
  4 58  1  0  0  0  0
  5  6  1  0  0  0  0
  5 35  1  0  0  0  0
  5 36  1  0  0  0  0
  6  7  1  0  0  0  0
  6 37  1  0  0  0  0
  6 38  1  0  0  0  0
  7  8  1  0  0  0  0
  7 27  1  0  0  0  0
  7 39  1  0  0  0  0
  8  9  1  0  0  0  0
  8 10  1  0  0  0  0
  9 40  1  0  0  0  0
  9 41  1  0  0  0  0
  9 42  1  0  0  0  0
 10 15  1  0  0  0  0
 10 11  2  0  0  0  0
 11 12  1  0  0  0  0
 12 13  2  0  0  0  0
 12 43  1  0  0  0  0
 13 14  1  0  0  0  0
 14 18  1  0  0  0  0
 14 15  2  0  0  0  0
 15 16  1  0  0  0  0
 16 17  2  0  0  0  0
 17 18  1  0  0  0  0
 17 44  1  0  0  0  0
 18 19  1  0  0  0  0
 19 20  1  0  0  0  0
 19 45  1  0  0  0  0
 19 46  1  0  0  0  0
 20 26  1  0  0  0  0
 20 21  1  0  0  0  0
 20 22  1  0  0  0  0
 21 47  1  0  0  0  0
 22 23  1  0  0  0  0
 22 48  1  0  0  0  0
 22 49  1  0  0  0  0
 23 24  1  0  0  0  0
 23 50  1  0  0  0  0
 23 51  1  0  0  0  0
 24 25  1  0  0  0  0
 25 26  1  0  0  0  0
 25 52  1  0  0  0  0
 25 53  1  0  0  0  0
 26 54  1  0  0  0  0
 26 55  1  0  0  0  0
 27 56  1  0  0  0  0
 27 57  1  0  0  0  0
M  CHG  1   4   1
M  END
> <s_m_source_file>
AV-unprocessed.smi

> <i_m_source_file_index>
242

> <i_lp_mmshare_version>
43012

> <i_f3d_flags>
0

> <s_epik_input>
W0NIM11bQ0hdKFtDSDNdKU4xW0NIMl1bQ0gyXVtDQEhdKFtDSDJdMSlOKFtDSDNdKWMobltjSF1uMiljKGMyMyluW2NIXW4zW0NIMl1DNChbT0hdKVtDSDJdW0NIMl1PW0NIMl1bQ0gyXTQ=

> <s_epik_cmdline>
J2VwaWtfcHl0aG9uJywgJy1waCcsICc3LjAnLCAnLXRuJywgJzgnLCAnLW1hJywgJzIwMCcsICctbWV0YWxfYmluZGluZycsICctaW1hZScsICc8aW5maWxlLm1hZT4nLCAnLW9tYWUnLCAnPG91dGZpbGUubWFlPic=

> <r_lp_tautomer_probability>
1

> <r_epik_Ionization_Penalty>
0.000825961

> <r_epik_Ionization_Penalty_Charging>
0.00034898

> <r_epik_Ionization_Penalty_Neutral>
0.000476981

> <r_epik_State_Penalty>
-0

> <r_epik_Charging_Adjusted_Penalty>
0.00034898

> <i_epik_Tot_Q>
1

> <i_epik_Tot_abs_Q>
1

> <r_epik_Metal_State_Penalty>
-0

> <b_epik_Metal_Only>
0

> <s_lp_Force_Field>
OPLS_2005

> <r_lp_Energy>
46.4754

> <b_lp_Chiralities_Consistent>
1

> <s_lp_Variant>
AV-unprocessed.smi:242-2

> <Gold.Version>
5.8.1

> <Gold.Id.Protein>
6NUR|6NUR_protein|mol2

> <Gold.PLP.Fitness>
44.0223

> <Gold.PLP.PLP>
-30.8517

> <Gold.PLP.part.hbond>
-3.7580

> <Gold.PLP.part.metal>
0.0000

> <Gold.PLP.part.buried>
-4.9779

> <Gold.PLP.part.nonpolar>
-22.2155

> <Gold.PLP.part.repulsive>
0.4368

> <Gold.PLP.ligand.clash>
0.0000

> <Gold.PLP.ligand.torsion>
0.5836

> <Gold.PLP.Chemscore.Hbond>
3.6393

> <Gold.PLP.Chemscore.CHOScore>
1.0000

> <Gold.PLP.Chemscore.Metal>
0.0000

> <Gold.Chemscore.Hbonds>
donor molecule, donor type, donor heavy atom, donor atom, acceptor molecule, acceptor atom, score
      L1  H     4    58       P1 10957  1.57
      L1  H    21    47       P1  7957  0.50
      P1  H  7989  7998       L1    21  0.38
      P1  H  8011  8017       L1    21  0.94
      L1  C    17    44       P1  7957  1.00

> <Gold.PLP.Chemscore.Internal.Correction>
0.4200

> <Gold.Rescore>
     Score         DG    S(hbond)    S(metal)    S(lipo)     H(rot)  DE(clash)    DE(int)     intcor
     13.46     -14.38       1.99        0.00      73.93       2.50       0.25       0.67       ----

> <Gold.Chemscore.Fitness>
13.4614

> <Gold.Chemscore.DG>
-14.3834

> <Gold.Chemscore.ZeroCoef>
-5.4800

> <Gold.Chemscore.Hbond>
1.9916

> <Gold.Chemscore.Metal>
0.0000

> <Gold.Chemscore.Lipo>
73.9345

> <Gold.Chemscore.Internal_Hbond>
0.0000

> <Gold.Chemscore.DEClash>
0.2500

> <Gold.Chemscore.DEInternal>
0.6720

> <Gold.Chemscore.Rot>
2.4996

> <Gold.Chemscore.Internal.Correction>
   9.000000E+99

> <Gold.Chemscore.Hbonds>
donor molecule, donor type, donor heavy atom, donor atom, acceptor molecule, acceptor atom, score
      L1  H     4    58       P1 10957  0.13
      L1  H    21    47       P1  7957  0.50
      P1  H  7989  7998       L1    21  0.27
      P1  H  8011  8017       L1    21  0.19

> <Gold.Chemscore.Hbond.Weighted>
-6.6520

> <Gold.Chemscore.Metal.Weighted>
-0.0000

> <Gold.Chemscore.Lipo.Weighted>
-8.6503

> <Gold.Chemscore.Internal_Hbond.Weighted>
0.0000

> <Gold.Chemscore.DEClash.Weighted>
0.2500

> <Gold.Chemscore.DEInternal.Weighted>
0.6720

> <Gold.Chemscore.Rot.Weighted>
6.3990

> <Gold.Chemscore.Internal.Correction.Weighted>
   9.000000E+99

> <Gold.Protein.RotatedTorsions>
[ 6907 6896 6895 6894 ] final -173.02 input  -60.11 | X-H torsion
[ 7974 7965 7964 7962 ] final  -32.13 input  175.53 | X-H torsion
[ 8008 7997 7996 7995 ] final   52.96 input   59.86 | X-H torsion
[ 10167 10162 10161 10158 ] final -143.71 input  -65.29 | X-H torsion
[ 10718 10713 10712 10709 ] final   33.90 input   66.30 | X-H torsion
[ 10763 10752 10751 10750 ] final  125.68 input  -60.55 | X-H torsion
[ 11005 11000 10999 10996 ] final -176.82 input  -57.11 | X-H torsion

> <Gold.Protein.ActiveResidues>
 VAL166  LYS551  ARG553  GLY616  TRP617  ASP618  TYR619  PRO620  LYS621  CYS622 
 ASP623  PHE694  ASN695  SER759  ASP760  ASP761  ALA762  ILE779  LEU786  VAL792 
 PHE793  MET794  SER795  GLU796  ALA797  LYS798  CYS799  TRP800  GLU811  SER814 

> <Gold.Protein.RotatedAtoms>
  151.5495  133.3420  159.2950 H   0  0  0  0  0  0  0  0  0  0  0  0  # atno 6907 bound_to 6896
  150.8487  134.7807  159.7002 H   0  0  0  0  0  0  0  0  0  0  0  0  # atno 6908 bound_to 6896
  152.4539  134.5343  159.9872 H   0  0  0  0  0  0  0  0  0  0  0  0  # atno 6909 bound_to 6896
  146.1014  140.5754  142.8819 H   0  0  0  0  0  0  0  0  0  0  0  0  # atno 7974 bound_to 7965
  155.4605  140.3461  155.4312 H   0  0  0  0  0  0  0  0  0  0  0  0  # atno 8008 bound_to 7997
  156.1164  140.1475  156.9296 H   0  0  0  0  0  0  0  0  0  0  0  0  # atno 8009 bound_to 7997
  154.4792  140.0875  156.7315 H   0  0  0  0  0  0  0  0  0  0  0  0  # atno 8010 bound_to 7997
  139.7968  143.7889  152.2655 H   0  0  0  0  0  0  0  0  0  0  0  0  # atno 10167 bound_to 10162
  157.3037  130.7363  149.6682 H   0  0  0  0  0  0  0  0  0  0  0  0  # atno 10718 bound_to 10713
  153.6811  135.3314  155.3178 H   0  0  0  0  0  0  0  0  0  0  0  0  # atno 10763 bound_to 10752
  154.8465  135.4409  154.1605 H   0  0  0  0  0  0  0  0  0  0  0  0  # atno 10764 bound_to 10752
  153.2622  135.6992  153.7644 H   0  0  0  0  0  0  0  0  0  0  0  0  # atno 10765 bound_to 10752
  140.4478  134.6372  157.4787 H   0  0  0  0  0  0  0  0  0  0  0  0  # atno 11005 bound_to 11000
  144.7436  140.5007  143.6852 LP  0  0  0  0  0  0  0  0  0  0  0  0  # atno 17320 bound_to 7965
  145.5847  139.1491  143.3216 LP  0  0  0  0  0  0  0  0  0  0  0  0  # atno 17321 bound_to 7965
  139.7997  144.7379  150.9841 LP  0  0  0  0  0  0  0  0  0  0  0  0  # atno 17342 bound_to 10162
  140.7820  143.4357  151.0626 LP  0  0  0  0  0  0  0  0  0  0  0  0  # atno 17343 bound_to 10162
  155.9673  130.4272  150.4734 LP  0  0  0  0  0  0  0  0  0  0  0  0  # atno 17370 bound_to 10713
  157.2720  131.0589  151.2254 LP  0  0  0  0  0  0  0  0  0  0  0  0  # atno 17371 bound_to 10713
  140.0027  134.6812  155.9505 LP  0  0  0  0  0  0  0  0  0  0  0  0  # atno 17394 bound_to 11000
  141.1677  133.6537  156.4540 LP  0  0  0  0  0  0  0  0  0  0  0  0  # atno 17395 bound_to 11000

$$$$
