AV-unprocessed.smi:1124|AV-procd|sdf|4833|dock4
  -GOLD-   22720 3393D 1   1.00000     0.00000
 Structure written by MMmdl.
 52 53  0  0  0  0  0  0  0  0  2 V2000
  147.4290  132.4714  149.7497 C   0  0  0  0  0  0  0  0  0  0  0  0
  147.6432  133.6388  150.6339 N   0  3  0  0  0  0  0  0  0  0  0  0
  148.8920  133.5174  151.4180 C   0  0  0  0  0  0  0  0  0  0  0  0
  146.4583  133.9608  151.4739 C   0  0  0  0  0  0  0  0  0  0  0  0
  146.3358  135.4751  151.7992 C   0  0  0  0  0  0  0  0  0  0  0  0
  146.4509  136.3026  150.5012 C   0  0  0  0  0  0  0  0  0  0  0  0
  144.9806  135.7789  152.4758 C   0  0  0  0  0  0  0  0  0  0  0  0
  147.4954  135.9166  152.7339 C   0  0  0  0  0  0  0  0  0  0  0  0
  147.5159  137.3513  153.0134 N   0  0  0  0  0  0  0  0  0  0  0  0
  148.3118  137.9644  153.9046 C   0  0  0  0  0  0  0  0  0  0  0  0
  149.1344  137.3701  154.6019 O   0  0  0  0  0  0  0  0  0  0  0  0
  148.1474  139.4597  153.9846 C   0  0  0  0  0  0  0  0  0  0  0  0
  147.0677  140.0742  153.3083 C   0  0  0  0  0  0  0  0  0  0  0  0
  146.8777  141.4627  153.4178 C   0  0  0  0  0  0  0  0  0  0  0  0
  147.7757  142.1952  154.2122 C   0  0  0  0  0  0  0  0  0  0  0  0
  148.8086  141.6295  154.8676 N   0  0  0  0  0  0  0  0  0  0  0  0
  149.0043  140.2910  154.7665 C   0  0  0  0  0  0  0  0  0  0  0  0
  150.1257  139.7672  155.4409 N   0  0  0  0  0  0  0  0  0  0  0  0
  150.6422  140.5243  156.5767 C   0  0  0  0  0  0  0  0  0  0  0  0
  151.6935  139.6879  157.3260 C   0  0  0  0  0  0  0  0  0  0  0  0
  152.7214  139.2919  156.4218 O   0  0  0  0  0  0  0  0  0  0  0  0
  152.2187  138.4909  155.3556 C   0  0  0  0  0  0  0  0  0  0  0  0
  151.1787  139.2906  154.5525 C   0  0  0  0  0  0  0  0  0  0  0  0
  147.3000  131.5578  150.3316 H   0  0  0  0  0  0  0  0  0  0  0  0
  148.2800  132.3337  149.0819 H   0  0  0  0  0  0  0  0  0  0  0  0
  146.5418  132.6109  149.1314 H   0  0  0  0  0  0  0  0  0  0  0  0
  148.8393  132.6764  152.1106 H   0  0  0  0  0  0  0  0  0  0  0  0
  149.0746  134.4255  151.9935 H   0  0  0  0  0  0  0  0  0  0  0  0
  149.7477  133.3653  150.7591 H   0  0  0  0  0  0  0  0  0  0  0  0
  145.5572  133.6073  150.9713 H   0  0  0  0  0  0  0  0  0  0  0  0
  146.5010  133.3983  152.4084 H   0  0  0  0  0  0  0  0  0  0  0  0
  146.4226  137.3728  150.7097 H   0  0  0  0  0  0  0  0  0  0  0  0
  145.6359  136.0923  149.8081 H   0  0  0  0  0  0  0  0  0  0  0  0
  147.3867  136.0961  149.9803 H   0  0  0  0  0  0  0  0  0  0  0  0
  144.9167  136.8245  152.7787 H   0  0  0  0  0  0  0  0  0  0  0  0
  144.8270  135.1687  153.3667 H   0  0  0  0  0  0  0  0  0  0  0  0
  144.1433  135.5883  151.8042 H   0  0  0  0  0  0  0  0  0  0  0  0
  147.4705  135.3475  153.6651 H   0  0  0  0  0  0  0  0  0  0  0  0
  148.4526  135.6738  152.2710 H   0  0  0  0  0  0  0  0  0  0  0  0
  146.8843  137.9264  152.4746 H   0  0  0  0  0  0  0  0  0  0  0  0
  146.3776  139.4909  152.7157 H   0  0  0  0  0  0  0  0  0  0  0  0
  146.0598  141.9535  152.9112 H   0  0  0  0  0  0  0  0  0  0  0  0
  147.6624  143.2633  154.3249 H   0  0  0  0  0  0  0  0  0  0  0  0
  151.0935  141.4541  156.2272 H   0  0  0  0  0  0  0  0  0  0  0  0
  149.8254  140.7897  157.2489 H   0  0  0  0  0  0  0  0  0  0  0  0
  152.1347  140.2731  158.1330 H   0  0  0  0  0  0  0  0  0  0  0  0
  151.2373  138.8076  157.7822 H   0  0  0  0  0  0  0  0  0  0  0  0
  153.0467  138.1966  154.7107 H   0  0  0  0  0  0  0  0  0  0  0  0
  151.7806  137.5730  155.7513 H   0  0  0  0  0  0  0  0  0  0  0  0
  150.7646  138.6683  153.7589 H   0  0  0  0  0  0  0  0  0  0  0  0
  151.6544  140.1461  154.0712 H   0  0  0  0  0  0  0  0  0  0  0  0
  147.7737  134.4337  150.0247 H   0  0  0  0  0  0  0  0  0  0  0  0
  1  2  1  0  0  0  0
  1 24  1  0  0  0  0
  1 25  1  0  0  0  0
  1 26  1  0  0  0  0
  2  3  1  0  0  0  0
  2  4  1  0  0  0  0
  2 52  1  0  0  0  0
  3 27  1  0  0  0  0
  3 28  1  0  0  0  0
  3 29  1  0  0  0  0
  4  5  1  0  0  0  0
  4 30  1  0  0  0  0
  4 31  1  0  0  0  0
  5  6  1  0  0  0  0
  5  7  1  0  0  0  0
  5  8  1  0  0  0  0
  6 32  1  0  0  0  0
  6 33  1  0  0  0  0
  6 34  1  0  0  0  0
  7 35  1  0  0  0  0
  7 36  1  0  0  0  0
  7 37  1  0  0  0  0
  8  9  1  0  0  0  0
  8 38  1  0  0  0  0
  8 39  1  0  0  0  0
  9 10  1  0  0  0  0
  9 40  1  0  0  0  0
 10 11  2  0  0  0  0
 10 12  1  0  0  0  0
 12 17  1  0  0  0  0
 12 13  2  0  0  0  0
 13 14  1  0  0  0  0
 13 41  1  0  0  0  0
 14 15  2  0  0  0  0
 14 42  1  0  0  0  0
 15 16  1  0  0  0  0
 15 43  1  0  0  0  0
 16 17  2  0  0  0  0
 17 18  1  0  0  0  0
 18 23  1  0  0  0  0
 18 19  1  0  0  0  0
 19 20  1  0  0  0  0
 19 44  1  0  0  0  0
 19 45  1  0  0  0  0
 20 21  1  0  0  0  0
 20 46  1  0  0  0  0
 20 47  1  0  0  0  0
 21 22  1  0  0  0  0
 22 23  1  0  0  0  0
 22 48  1  0  0  0  0
 22 49  1  0  0  0  0
 23 50  1  0  0  0  0
 23 51  1  0  0  0  0
M  CHG  1   2   1
M  END
> <s_m_source_file>
AV-unprocessed.smi

> <i_m_source_file_index>
1124

> <i_lp_mmshare_version>
43012

> <i_f3d_flags>
0

> <s_epik_input>
W0NIM11OKFtDSDNdKVtDSDJdQyhbQ0gzXSkoW0NIM10pW0NIMl1bTkhdQyg9TyljMVtjSF1bY0hdW2NIXW5jMU4yW0NIMl1bQ0gyXU9bQ0gyXVtDSDJdMg==

> <s_epik_cmdline>
J2VwaWtfcHl0aG9uJywgJy1waCcsICc3LjAnLCAnLXRuJywgJzgnLCAnLW1hJywgJzIwMCcsICctbWV0YWxfYmluZGluZycsICctaW1hZScsICc8aW5maWxlLm1hZT4nLCAnLW9tYWUnLCAnPG91dGZpbGUubWFlPic=

> <r_lp_tautomer_probability>
1

> <r_epik_Ionization_Penalty>
0.000493047

> <r_epik_Ionization_Penalty_Charging>
0.000482013

> <r_epik_Ionization_Penalty_Neutral>
1.10333e-05

> <r_epik_State_Penalty>
0.000299147

> <r_epik_Charging_Adjusted_Penalty>
0.000781161

> <i_epik_Tot_Q>
1

> <i_epik_Tot_abs_Q>
1

> <r_epik_Metal_State_Penalty>
-0

> <b_epik_Metal_Only>
0

> <s_lp_Force_Field>
OPLS_2005

> <r_lp_Energy>
38.5131

> <b_lp_Chiralities_Consistent>
1

> <s_lp_Variant>
AV-unprocessed.smi:1124-1

> <Gold.Version>
5.8.1

> <Gold.Id.Protein>
6NUR|6NUR_protein|mol2

> <Gold.PLP.Fitness>
35.3911

> <Gold.PLP.PLP>
-30.4857

> <Gold.PLP.part.hbond>
-2.0000

> <Gold.PLP.part.metal>
0.0000

> <Gold.PLP.part.buried>
-0.7463

> <Gold.PLP.part.nonpolar>
-27.6560

> <Gold.PLP.part.repulsive>
0.3079

> <Gold.PLP.ligand.clash>
0.0000

> <Gold.PLP.ligand.torsion>
0.8265

> <Gold.PLP.Chemscore.Hbond>
1.0000

> <Gold.PLP.Chemscore.CHOScore>
0.9318

> <Gold.PLP.Chemscore.Metal>
0.0000

> <Gold.Chemscore.Hbonds>
donor molecule, donor type, donor heavy atom, donor atom, acceptor molecule, acceptor atom, score
      P1  H  7997  8008       L1    21  1.00
      L1  C    15    43       P1  8028  1.00

> <Gold.PLP.Chemscore.Internal.Correction>
0.7630

> <Gold.Rescore>
     Score         DG    S(hbond)    S(metal)    S(lipo)     H(rot)  DE(clash)    DE(int)     intcor
     10.48     -13.34       0.97        0.00      77.29       1.73       0.23       2.62       ----

> <Gold.Chemscore.Fitness>
10.4814

> <Gold.Chemscore.DG>
-13.3374

> <Gold.Chemscore.ZeroCoef>
-5.4800

> <Gold.Chemscore.Hbond>
0.9747

> <Gold.Chemscore.Metal>
0.0000

> <Gold.Chemscore.Lipo>
77.2874

> <Gold.Chemscore.Internal_Hbond>
0.0000

> <Gold.Chemscore.DEClash>
0.2342

> <Gold.Chemscore.DEInternal>
2.6217

> <Gold.Chemscore.Rot>
1.7347

> <Gold.Chemscore.Internal.Correction>
   9.000000E+99

> <Gold.Chemscore.Hbonds>
donor molecule, donor type, donor heavy atom, donor atom, acceptor molecule, acceptor atom, score
      P1  H  7997  8008       L1    21  0.97

> <Gold.Chemscore.Hbond.Weighted>
-3.2555

> <Gold.Chemscore.Metal.Weighted>
-0.0000

> <Gold.Chemscore.Lipo.Weighted>
-9.0426

> <Gold.Chemscore.Internal_Hbond.Weighted>
0.0000

> <Gold.Chemscore.DEClash.Weighted>
0.2342

> <Gold.Chemscore.DEInternal.Weighted>
2.6217

> <Gold.Chemscore.Rot.Weighted>
4.4408

> <Gold.Chemscore.Internal.Correction.Weighted>
   9.000000E+99

> <Gold.Protein.RotatedTorsions>
[ 6907 6896 6895 6894 ] final   -2.46 input  -60.11 | X-H torsion
[ 7974 7965 7964 7962 ] final   51.03 input  175.53 | X-H torsion
[ 8008 7997 7996 7995 ] final  -55.27 input   59.86 | X-H torsion
[ 10167 10162 10161 10158 ] final   -7.58 input  -65.29 | X-H torsion
[ 10718 10713 10712 10709 ] final   82.57 input   66.30 | X-H torsion
[ 10763 10752 10751 10750 ] final  -24.25 input  -60.55 | X-H torsion
[ 11005 11000 10999 10996 ] final   27.17 input  -57.11 | X-H torsion

> <Gold.Protein.ActiveResidues>
 VAL166  LYS551  ARG553  GLY616  TRP617  ASP618  TYR619  PRO620  LYS621  CYS622 
 ASP623  PHE694  ASN695  SER759  ASP760  ASP761  ALA762  ILE779  LEU786  VAL792 
 PHE793  MET794  SER795  GLU796  ALA797  LYS798  CYS799  TRP800  GLU811  SER814 

> <Gold.Protein.RotatedAtoms>
  151.5295  135.1068  159.9898 H   0  0  0  0  0  0  0  0  0  0  0  0  # atno 6907 bound_to 6896
  152.4584  133.7768  159.6839 H   0  0  0  0  0  0  0  0  0  0  0  0  # atno 6908 bound_to 6896
  150.8537  133.7683  159.3041 H   0  0  0  0  0  0  0  0  0  0  0  0  # atno 6909 bound_to 6896
  145.9954  139.4382  143.0048 H   0  0  0  0  0  0  0  0  0  0  0  0  # atno 7974 bound_to 7965
  154.4189  140.1157  156.5450 H   0  0  0  0  0  0  0  0  0  0  0  0  # atno 8008 bound_to 7997
  155.6469  140.3496  155.4715 H   0  0  0  0  0  0  0  0  0  0  0  0  # atno 8009 bound_to 7997
  155.9825  140.1163  157.0703 H   0  0  0  0  0  0  0  0  0  0  0  0  # atno 8010 bound_to 7997
  140.7033  143.6064  150.8747 H   0  0  0  0  0  0  0  0  0  0  0  0  # atno 10167 bound_to 10162
  157.6860  131.0053  150.2394 H   0  0  0  0  0  0  0  0  0  0  0  0  # atno 10718 bound_to 10713
  153.6808  135.6967  153.5118 H   0  0  0  0  0  0  0  0  0  0  0  0  # atno 10763 bound_to 10752
  153.2486  135.4282  155.0773 H   0  0  0  0  0  0  0  0  0  0  0  0  # atno 10764 bound_to 10752
  154.8400  135.3526  154.6351 H   0  0  0  0  0  0  0  0  0  0  0  0  # atno 10765 bound_to 10752
  140.3291  134.2457  155.7705 H   0  0  0  0  0  0  0  0  0  0  0  0  # atno 11005 bound_to 11000
  145.7568  140.9951  143.1221 LP  0  0  0  0  0  0  0  0  0  0  0  0  # atno 17320 bound_to 7965
  144.6902  139.9282  143.7470 LP  0  0  0  0  0  0  0  0  0  0  0  0  # atno 17321 bound_to 7965
  139.9788  143.5974  152.2950 LP  0  0  0  0  0  0  0  0  0  0  0  0  # atno 17342 bound_to 10162
  139.6588  144.7662  151.2004 LP  0  0  0  0  0  0  0  0  0  0  0  0  # atno 17343 bound_to 10162
  156.3012  130.3758  149.7749 LP  0  0  0  0  0  0  0  0  0  0  0  0  # atno 17370 bound_to 10713
  156.5378  130.8286  151.3259 LP  0  0  0  0  0  0  0  0  0  0  0  0  # atno 17371 bound_to 10713
  141.2068  133.7824  157.0158 LP  0  0  0  0  0  0  0  0  0  0  0  0  # atno 17394 bound_to 11000
  140.0876  134.9612  157.1724 LP  0  0  0  0  0  0  0  0  0  0  0  0  # atno 17395 bound_to 11000

$$$$
