AV-unprocessed.smi:2407|AV-procd|sdf|9518|dock4
  -GOLD-   2272013153D 1   1.00000     0.00000
 Structure written by MMmdl.
 38 39  0  0  0  0  0  0  0  0  1 V2000
  149.1701  134.7365  155.4930 C   0  0  0  0  0  0  0  0  0  0  0  0
  149.4635  136.1916  155.2780 C   0  0  0  0  0  0  0  0  0  0  0  0
  148.4244  137.1841  155.0801 C   0  0  0  0  0  0  0  0  0  0  0  0
  148.7708  138.4750  154.8877 C   0  0  0  0  0  0  0  0  0  0  0  0
  150.1685  138.9014  154.8729 C   0  0  0  0  0  0  0  0  0  0  0  0
  150.5168  140.0679  154.6920 O   0  0  0  0  0  0  0  0  0  0  0  0
  151.0555  137.8828  155.0749 N   0  0  0  0  0  0  0  0  0  0  0  0
  152.5033  138.1246  155.0938 C   0  0  0  0  0  0  0  0  0  0  0  0
  153.1141  137.8855  156.4924 C   0  0  2  0  0  0  0  0  0  0  0  0
  153.1008  136.4922  156.7353 O   0  0  0  0  0  0  0  0  0  0  0  0
  152.2811  138.5480  157.6026 C   0  0  0  0  0  0  0  0  0  0  0  0
  153.1482  138.9069  158.6705 O   0  0  0  0  0  0  0  0  0  0  0  0
  153.0164  140.1560  159.2418 C   0  0  0  0  0  0  0  0  0  0  0  0
  152.2309  141.1947  158.6791 C   0  0  0  0  0  0  0  0  0  0  0  0
  152.1394  142.4477  159.3126 C   0  0  0  0  0  0  0  0  0  0  0  0
  152.8298  142.6808  160.5139 C   0  0  0  0  0  0  0  0  0  0  0  0
  153.6117  141.6592  161.0819 C   0  0  0  0  0  0  0  0  0  0  0  0
  153.7103  140.3965  160.4540 C   0  0  0  0  0  0  0  0  0  0  0  0
  154.5607  139.2934  161.0764 C   0  0  0  0  0  0  0  0  0  0  0  0
  155.0058  139.6304  162.2878 F   0  0  0  0  0  0  0  0  0  0  0  0
  153.8389  138.1786  161.1949 F   0  0  0  0  0  0  0  0  0  0  0  0
  155.6165  139.0442  160.3013 F   0  0  0  0  0  0  0  0  0  0  0  0
  150.7032  136.5580  155.2705 N   0  0  0  0  0  0  0  0  0  0  0  0
  148.0967  134.5548  155.5527 H   0  0  0  0  0  0  0  0  0  0  0  0
  149.6202  134.3813  156.4206 H   0  0  0  0  0  0  0  0  0  0  0  0
  149.5653  134.1361  154.6731 H   0  0  0  0  0  0  0  0  0  0  0  0
  147.3865  136.8851  155.0883 H   0  0  0  0  0  0  0  0  0  0  0  0
  147.9962  139.2132  154.7405 H   0  0  0  0  0  0  0  0  0  0  0  0
  152.9730  137.4617  154.3648 H   0  0  0  0  0  0  0  0  0  0  0  0
  152.7349  139.1321  154.7422 H   0  0  0  0  0  0  0  0  0  0  0  0
  154.1371  138.2618  156.5327 H   0  0  0  0  0  0  0  0  0  0  0  0
  152.2911  136.2726  157.1705 H   0  0  0  0  0  0  0  0  0  0  0  0
  151.8230  139.4606  157.2182 H   0  0  0  0  0  0  0  0  0  0  0  0
  151.4801  137.8851  157.9349 H   0  0  0  0  0  0  0  0  0  0  0  0
  151.6856  141.0566  157.7581 H   0  0  0  0  0  0  0  0  0  0  0  0
  151.5383  143.2311  158.8749 H   0  0  0  0  0  0  0  0  0  0  0  0
  152.7603  143.6429  161.0001 H   0  0  0  0  0  0  0  0  0  0  0  0
  154.1347  141.8578  162.0054 H   0  0  0  0  0  0  0  0  0  0  0  0
  1  2  1  0  0  0  0
  1 24  1  0  0  0  0
  1 25  1  0  0  0  0
  1 26  1  0  0  0  0
  2 23  2  0  0  0  0
  2  3  1  0  0  0  0
  3  4  2  0  0  0  0
  3 27  1  0  0  0  0
  4  5  1  0  0  0  0
  4 28  1  0  0  0  0
  5  6  2  0  0  0  0
  5  7  1  0  0  0  0
  7  8  1  0  0  0  0
  7 23  1  0  0  0  0
  8  9  1  0  0  0  0
  8 29  1  0  0  0  0
  8 30  1  0  0  0  0
  9 10  1  0  0  0  0
  9 11  1  0  0  0  0
  9 31  1  0  0  0  0
 10 32  1  0  0  0  0
 11 12  1  0  0  0  0
 11 33  1  0  0  0  0
 11 34  1  0  0  0  0
 12 13  1  0  0  0  0
 13 18  1  0  0  0  0
 13 14  2  0  0  0  0
 14 15  1  0  0  0  0
 14 35  1  0  0  0  0
 15 16  2  0  0  0  0
 15 36  1  0  0  0  0
 16 17  1  0  0  0  0
 16 37  1  0  0  0  0
 17 18  2  0  0  0  0
 17 38  1  0  0  0  0
 18 19  1  0  0  0  0
 19 20  1  0  0  0  0
 19 21  1  0  0  0  0
 19 22  1  0  0  0  0
M  END
> <s_m_source_file>
AV-unprocessed.smi

> <i_m_source_file_index>
2407

> <i_lp_mmshare_version>
43012

> <i_f3d_flags>
0

> <s_epik_input>
W0NIM11jMVtjSF1bY0hdYyg9TyluKG4xKVtDSDJdW0NASF0oW09IXSlbQ0gyXU9jMltjSF1bY0hdW2NIXVtjSF1jMkMoRikoRilG

> <s_epik_cmdline>
J2VwaWtfcHl0aG9uJywgJy1waCcsICc3LjAnLCAnLXRuJywgJzgnLCAnLW1hJywgJzIwMCcsICctbWV0YWxfYmluZGluZycsICctaW1hZScsICc8aW5maWxlLm1hZT4nLCAnLW9tYWUnLCAnPG91dGZpbGUubWFlPic=

> <r_lp_tautomer_probability>
1

> <r_epik_Ionization_Penalty>
5.91655e-06

> <r_epik_Ionization_Penalty_Charging>
5.79937e-06

> <r_epik_Ionization_Penalty_Neutral>
1.17174e-07

> <r_epik_State_Penalty>
-0

> <r_epik_Charging_Adjusted_Penalty>
5.79937e-06

> <i_epik_Tot_Q>
0

> <i_epik_Tot_abs_Q>
0

> <r_epik_Metal_State_Penalty>
-0

> <b_epik_Metal_Only>
0

> <s_lp_Force_Field>
OPLS_2005

> <r_lp_Energy>
33.5011

> <b_lp_Chiralities_Consistent>
1

> <s_lp_Variant>
AV-unprocessed.smi:2407-1

> <Gold.Version>
5.8.1

> <Gold.Id.Protein>
6NUR|6NUR_protein|mol2

> <Gold.PLP.Fitness>
49.4735

> <Gold.PLP.PLP>
-42.1966

> <Gold.PLP.part.hbond>
-4.0000

> <Gold.PLP.part.metal>
0.0000

> <Gold.PLP.part.buried>
-2.0181

> <Gold.PLP.part.nonpolar>
-37.1394

> <Gold.PLP.part.repulsive>
0.2337

> <Gold.PLP.ligand.clash>
0.3236

> <Gold.PLP.ligand.torsion>
1.1332

> <Gold.PLP.Chemscore.Hbond>
3.0855

> <Gold.PLP.Chemscore.CHOScore>
0.0000

> <Gold.PLP.Chemscore.Metal>
0.0000

> <Gold.Chemscore.Hbonds>
donor molecule, donor type, donor heavy atom, donor atom, acceptor molecule, acceptor atom, score
      P1  H  7989  7998       L1     6  1.00
      P1  H 10752 10764       L1    10  0.34

> <Gold.PLP.Chemscore.Internal.Correction>
0.6104

> <Gold.Rescore>
     Score         DG    S(hbond)    S(metal)    S(lipo)     H(rot)  DE(clash)    DE(int)     intcor
     12.12     -17.22       1.97        0.00     100.97       2.60       0.13       4.98       ----

> <Gold.Chemscore.Fitness>
12.1234

> <Gold.Chemscore.DG>
-17.2246

> <Gold.Chemscore.ZeroCoef>
-5.4800

> <Gold.Chemscore.Hbond>
1.9750

> <Gold.Chemscore.Metal>
0.0000

> <Gold.Chemscore.Lipo>
100.9674

> <Gold.Chemscore.Internal_Hbond>
0.0000

> <Gold.Chemscore.DEClash>
0.1261

> <Gold.Chemscore.DEInternal>
4.9752

> <Gold.Chemscore.Rot>
2.6035

> <Gold.Chemscore.Internal.Correction>
   9.000000E+99

> <Gold.Chemscore.Hbonds>
donor molecule, donor type, donor heavy atom, donor atom, acceptor molecule, acceptor atom, score
      P1  H  7989  7998       L1     6  1.00
      P1  H 10752 10764       L1    10  0.31

> <Gold.Chemscore.Hbond.Weighted>
-6.5963

> <Gold.Chemscore.Metal.Weighted>
-0.0000

> <Gold.Chemscore.Lipo.Weighted>
-11.8132

> <Gold.Chemscore.Internal_Hbond.Weighted>
0.0000

> <Gold.Chemscore.DEClash.Weighted>
0.1261

> <Gold.Chemscore.DEInternal.Weighted>
4.9752

> <Gold.Chemscore.Rot.Weighted>
6.6649

> <Gold.Chemscore.Internal.Correction.Weighted>
   9.000000E+99

> <Gold.Protein.RotatedTorsions>
[ 6907 6896 6895 6894 ] final -119.13 input  -60.11 | X-H torsion
[ 7974 7965 7964 7962 ] final -119.85 input  175.53 | X-H torsion
[ 8008 7997 7996 7995 ] final   15.43 input   59.86 | X-H torsion
[ 10167 10162 10161 10158 ] final  -85.95 input  -65.29 | X-H torsion
[ 10718 10713 10712 10709 ] final -179.06 input   66.30 | X-H torsion
[ 10763 10752 10751 10750 ] final   38.76 input  -60.55 | X-H torsion
[ 11005 11000 10999 10996 ] final  -50.31 input  -57.11 | X-H torsion

> <Gold.Protein.ActiveResidues>
 VAL166  LYS551  ARG553  GLY616  TRP617  ASP618  TYR619  PRO620  LYS621  CYS622 
 ASP623  PHE694  ASN695  SER759  ASP760  ASP761  ALA762  ILE779  LEU786  VAL792 
 PHE793  MET794  SER795  GLU796  ALA797  LYS798  CYS799  TRP800  GLU811  SER814 

> <Gold.Protein.RotatedAtoms>
  150.8279  133.8141  159.3110 H   0  0  0  0  0  0  0  0  0  0  0  0  # atno 6907 bound_to 6896
  151.5879  135.1053  160.0042 H   0  0  0  0  0  0  0  0  0  0  0  0  # atno 6908 bound_to 6896
  152.4362  133.7324  159.6651 H   0  0  0  0  0  0  0  0  0  0  0  0  # atno 6909 bound_to 6896
  145.0579  140.8268  143.4170 H   0  0  0  0  0  0  0  0  0  0  0  0  # atno 7974 bound_to 7965
  154.8625  140.2946  155.5530 H   0  0  0  0  0  0  0  0  0  0  0  0  # atno 8008 bound_to 7997
  156.3020  140.2475  156.3534 H   0  0  0  0  0  0  0  0  0  0  0  0  # atno 8009 bound_to 7997
  154.8903  140.0395  157.1824 H   0  0  0  0  0  0  0  0  0  0  0  0  # atno 8010 bound_to 7997
  140.3988  143.2672  151.9169 H   0  0  0  0  0  0  0  0  0  0  0  0  # atno 10167 bound_to 10162
  156.8535  130.9727  151.3090 H   0  0  0  0  0  0  0  0  0  0  0  0  # atno 10718 bound_to 10713
  152.9990  135.6240  154.2356 H   0  0  0  0  0  0  0  0  0  0  0  0  # atno 10763 bound_to 10752
  154.2098  135.2800  155.2964 H   0  0  0  0  0  0  0  0  0  0  0  0  # atno 10764 bound_to 10752
  154.5616  135.5703  153.7071 H   0  0  0  0  0  0  0  0  0  0  0  0  # atno 10765 bound_to 10752
  141.0808  133.6654  156.3712 H   0  0  0  0  0  0  0  0  0  0  0  0  # atno 11005 bound_to 11000
  145.1446  139.2551  143.5472 LP  0  0  0  0  0  0  0  0  0  0  0  0  # atno 17320 bound_to 7965
  146.3522  140.1132  142.8603 LP  0  0  0  0  0  0  0  0  0  0  0  0  # atno 17321 bound_to 7965
  139.4785  144.5654  151.8173 LP  0  0  0  0  0  0  0  0  0  0  0  0  # atno 17342 bound_to 10162
  140.4762  144.1516  150.5925 LP  0  0  0  0  0  0  0  0  0  0  0  0  # atno 17343 bound_to 10162
  157.6290  130.8714  149.9240 LP  0  0  0  0  0  0  0  0  0  0  0  0  # atno 17370 bound_to 10713
  156.0815  130.3672  150.0571 LP  0  0  0  0  0  0  0  0  0  0  0  0  # atno 17371 bound_to 10713
  140.5472  134.6063  157.5397 LP  0  0  0  0  0  0  0  0  0  0  0  0  # atno 17394 bound_to 11000
  139.9622  134.7433  156.0212 LP  0  0  0  0  0  0  0  0  0  0  0  0  # atno 17395 bound_to 11000

$$$$
