AV-unprocessed.smi:1920|AV-procd|sdf|7782|dock9
  -GOLD-   22720 9523D 1   1.00000     0.00000
 Structure written by MMmdl.
 36 37  0  0  0  0  0  0  0  0  1 V2000
  146.5995  142.2146  155.4138 C   0  0  0  0  0  0  0  0  0  0  0  0
  147.8234  141.3211  155.1589 C   0  0  1  0  0  0  0  0  0  0  0  0
  147.9988  141.0207  153.6582 C   0  0  0  0  0  0  0  0  0  0  0  0
  147.1866  139.8997  153.2219 N   0  0  0  0  0  0  0  0  0  0  0  0
  147.0072  139.4525  151.9196 C   0  0  0  0  0  0  0  0  0  0  0  0
  146.1572  138.3718  151.9887 C   0  0  0  0  0  0  0  0  0  0  0  0
  145.8055  138.1360  153.3157 N   0  0  0  0  0  0  0  0  0  0  0  0
  146.4542  139.0787  153.9871 C   0  0  0  0  0  0  0  0  0  0  0  0
  149.0250  141.9641  155.6865 N   0  0  0  0  0  0  0  0  0  0  0  0
  150.2651  141.4546  155.6370 C   0  0  0  0  0  0  0  0  0  0  0  0
  150.5318  140.3691  155.1210 O   0  0  0  0  0  0  0  0  0  0  0  0
  151.3755  142.2983  156.2716 C   0  0  0  0  0  0  0  0  0  0  0  0
  151.0933  142.6749  157.7424 C   0  0  2  0  0  0  0  0  0  0  0  0
  151.7205  143.9812  158.1679 C   0  0  0  0  0  0  0  0  0  0  0  0
  152.4423  143.8657  159.2802 C   0  0  0  0  0  0  0  0  0  0  0  0
  152.4435  142.4633  159.8219 C   0  0  0  0  0  0  0  0  0  0  0  0
  151.6697  141.6545  158.7571 C   0  0  0  0  0  0  0  0  0  0  0  0
  145.6875  141.7432  155.0468 H   0  0  0  0  0  0  0  0  0  0  0  0
  146.7007  143.1785  154.9140 H   0  0  0  0  0  0  0  0  0  0  0  0
  146.4625  142.4047  156.4787 H   0  0  0  0  0  0  0  0  0  0  0  0
  147.6641  140.3731  155.6765 H   0  0  0  0  0  0  0  0  0  0  0  0
  147.7128  141.8904  153.0650 H   0  0  0  0  0  0  0  0  0  0  0  0
  149.0444  140.8137  153.4248 H   0  0  0  0  0  0  0  0  0  0  0  0
  147.4834  139.9287  151.0753 H   0  0  0  0  0  0  0  0  0  0  0  0
  145.7756  137.7506  151.1917 H   0  0  0  0  0  0  0  0  0  0  0  0
  146.3923  139.1769  155.0611 H   0  0  0  0  0  0  0  0  0  0  0  0
  148.9027  142.8636  156.1289 H   0  0  0  0  0  0  0  0  0  0  0  0
  152.3048  141.7307  156.2117 H   0  0  0  0  0  0  0  0  0  0  0  0
  151.5302  143.2036  155.6821 H   0  0  0  0  0  0  0  0  0  0  0  0
  150.0174  142.7664  157.8989 H   0  0  0  0  0  0  0  0  0  0  0  0
  151.5693  144.9011  157.6220 H   0  0  0  0  0  0  0  0  0  0  0  0
  152.9649  144.6738  159.7703 H   0  0  0  0  0  0  0  0  0  0  0  0
  153.4627  142.0977  159.9500 H   0  0  0  0  0  0  0  0  0  0  0  0
  151.9399  142.4420  160.7887 H   0  0  0  0  0  0  0  0  0  0  0  0
  150.8804  141.0527  159.2086 H   0  0  0  0  0  0  0  0  0  0  0  0
  152.3522  140.9621  158.2623 H   0  0  0  0  0  0  0  0  0  0  0  0
  1  2  1  0  0  0  0
  1 18  1  0  0  0  0
  1 19  1  0  0  0  0
  1 20  1  0  0  0  0
  2  3  1  0  0  0  0
  2  9  1  0  0  0  0
  2 21  1  0  0  0  0
  3  4  1  0  0  0  0
  3 22  1  0  0  0  0
  3 23  1  0  0  0  0
  4  8  1  0  0  0  0
  4  5  1  0  0  0  0
  5  6  2  0  0  0  0
  5 24  1  0  0  0  0
  6  7  1  0  0  0  0
  6 25  1  0  0  0  0
  7  8  2  0  0  0  0
  8 26  1  0  0  0  0
  9 10  1  0  0  0  0
  9 27  1  0  0  0  0
 10 11  2  0  0  0  0
 10 12  1  0  0  0  0
 12 13  1  0  0  0  0
 12 28  1  0  0  0  0
 12 29  1  0  0  0  0
 13 17  1  0  0  0  0
 13 14  1  0  0  0  0
 13 30  1  0  0  0  0
 14 15  2  0  0  0  0
 14 31  1  0  0  0  0
 15 16  1  0  0  0  0
 15 32  1  0  0  0  0
 16 17  1  0  0  0  0
 16 33  1  0  0  0  0
 16 34  1  0  0  0  0
 17 35  1  0  0  0  0
 17 36  1  0  0  0  0
M  END
> <s_m_source_file>
AV-unprocessed.smi

> <i_m_source_file_index>
1920

> <i_lp_mmshare_version>
43012

> <i_f3d_flags>
0

> <s_epik_input>
W2NIXTFuW2NIXVtjSF1uMVtDSDJdW0NAQEhdKFtDSDNdKVtOSF1DKD1PKVtDSDJdW0NAQEhdMltDSF09W0NIXVtDSDJdW0NIMl0y

> <s_epik_cmdline>
J2VwaWtfcHl0aG9uJywgJy1waCcsICc3LjAnLCAnLXRuJywgJzgnLCAnLW1hJywgJzIwMCcsICctbWV0YWxfYmluZGluZycsICctaW1hZScsICc8aW5maWxlLm1hZT4nLCAnLW9tYWUnLCAnPG91dGZpbGUubWFlPic=

> <r_lp_tautomer_probability>
1

> <r_epik_Ionization_Penalty>
0.635367

> <r_epik_Ionization_Penalty_Charging>
0.635367

> <r_epik_Ionization_Penalty_Neutral>
2.1249e-08

> <r_epik_State_Penalty>
0.65258

> <r_epik_Charging_Adjusted_Penalty>
1.28795

> <i_epik_Tot_Q>
0

> <i_epik_Tot_abs_Q>
0

> <r_epik_Metal_State_Penalty>
0.310403

> <b_epik_Metal_Only>
0

> <s_lp_Force_Field>
OPLS_2005

> <r_lp_Energy>
19.6981

> <b_lp_Chiralities_Consistent>
1

> <s_lp_Variant>
AV-unprocessed.smi:1920-6

> <Gold.Version>
5.8.1

> <Gold.Id.Protein>
6NUR|6NUR_protein|mol2

> <Gold.PLP.Fitness>
43.7425

> <Gold.PLP.PLP>
-35.4624

> <Gold.PLP.part.hbond>
-2.0000

> <Gold.PLP.part.metal>
0.0000

> <Gold.PLP.part.buried>
0.2458

> <Gold.PLP.part.nonpolar>
-34.2196

> <Gold.PLP.part.repulsive>
0.4086

> <Gold.PLP.ligand.clash>
0.0000

> <Gold.PLP.ligand.torsion>
0.7426

> <Gold.PLP.Chemscore.Hbond>
1.8080

> <Gold.PLP.Chemscore.CHOScore>
1.4370

> <Gold.PLP.Chemscore.Metal>
0.0000

> <Gold.Chemscore.Hbonds>
donor molecule, donor type, donor heavy atom, donor atom, acceptor molecule, acceptor atom, score
      L1  H     9    27       P1  8028  0.78
      P1  H  7989  7998       L1    11  1.00
      L1  C     5    24       P1  7957  0.74
      L1  C     6    25       P1 10171  0.78

> <Gold.PLP.Chemscore.Internal.Correction>
0.0303

> <Gold.Rescore>
     Score         DG    S(hbond)    S(metal)    S(lipo)     H(rot)  DE(clash)    DE(int)     intcor
     14.63     -17.12       1.47        0.00      99.87       1.93       1.98       0.52       ----

> <Gold.Chemscore.Fitness>
14.6274

> <Gold.Chemscore.DG>
-17.1227

> <Gold.Chemscore.ZeroCoef>
-5.4800

> <Gold.Chemscore.Hbond>
1.4671

> <Gold.Chemscore.Metal>
0.0000

> <Gold.Chemscore.Lipo>
99.8708

> <Gold.Chemscore.Internal_Hbond>
0.0000

> <Gold.Chemscore.DEClash>
1.9770

> <Gold.Chemscore.DEInternal>
0.5183

> <Gold.Chemscore.Rot>
1.9306

> <Gold.Chemscore.Internal.Correction>
   9.000000E+99

> <Gold.Chemscore.Hbonds>
donor molecule, donor type, donor heavy atom, donor atom, acceptor molecule, acceptor atom, score
      L1  H     9    27       P1  8028  0.77
      P1  H  7989  7998       L1    11  0.37

> <Gold.Chemscore.Hbond.Weighted>
-4.9003

> <Gold.Chemscore.Metal.Weighted>
-0.0000

> <Gold.Chemscore.Lipo.Weighted>
-11.6849

> <Gold.Chemscore.Internal_Hbond.Weighted>
0.0000

> <Gold.Chemscore.DEClash.Weighted>
1.9770

> <Gold.Chemscore.DEInternal.Weighted>
0.5183

> <Gold.Chemscore.Rot.Weighted>
4.9424

> <Gold.Chemscore.Internal.Correction.Weighted>
   9.000000E+99

> <Gold.Protein.RotatedTorsions>
[ 6907 6896 6895 6894 ] final  128.06 input  -60.11 | X-H torsion
[ 7974 7965 7964 7962 ] final   98.51 input  175.53 | X-H torsion
[ 8008 7997 7996 7995 ] final  -49.56 input   59.86 | X-H torsion
[ 10167 10162 10161 10158 ] final  -20.37 input  -65.29 | X-H torsion
[ 10718 10713 10712 10709 ] final   38.45 input   66.30 | X-H torsion
[ 10763 10752 10751 10750 ] final  177.07 input  -60.55 | X-H torsion
[ 11005 11000 10999 10996 ] final  143.68 input  -57.11 | X-H torsion

> <Gold.Protein.ActiveResidues>
 VAL166  LYS551  ARG553  GLY616  TRP617  ASP618  TYR619  PRO620  LYS621  CYS622 
 ASP623  PHE694  ASN695  SER759  ASP760  ASP761  ALA762  ILE779  LEU786  VAL792 
 PHE793  MET794  SER795  GLU796  ALA797  LYS798  CYS799  TRP800  GLU811  SER814 

> <Gold.Protein.RotatedAtoms>
  152.3755  133.6475  159.6119 H   0  0  0  0  0  0  0  0  0  0  0  0  # atno 6907 bound_to 6896
  150.7700  133.9201  159.3404 H   0  0  0  0  0  0  0  0  0  0  0  0  # atno 6908 bound_to 6896
  151.7016  135.0930  160.0303 H   0  0  0  0  0  0  0  0  0  0  0  0  # atno 6909 bound_to 6896
  145.4113  139.2333  143.3247 H   0  0  0  0  0  0  0  0  0  0  0  0  # atno 7974 bound_to 7965
  154.4046  140.1294  156.4522 H   0  0  0  0  0  0  0  0  0  0  0  0  # atno 8008 bound_to 7997
  155.7355  140.3490  155.5059 H   0  0  0  0  0  0  0  0  0  0  0  0  # atno 8009 bound_to 7997
  155.9088  140.1032  157.1285 H   0  0  0  0  0  0  0  0  0  0  0  0  # atno 8010 bound_to 7997
  140.7275  143.4729  151.0222 H   0  0  0  0  0  0  0  0  0  0  0  0  # atno 10167 bound_to 10162
  157.3590  130.7639  149.7033 H   0  0  0  0  0  0  0  0  0  0  0  0  # atno 10718 bound_to 10713
  154.4895  135.2778  155.1507 H   0  0  0  0  0  0  0  0  0  0  0  0  # atno 10763 bound_to 10752
  154.3185  135.6214  153.5501 H   0  0  0  0  0  0  0  0  0  0  0  0  # atno 10764 bound_to 10752
  152.9886  135.5737  154.5314 H   0  0  0  0  0  0  0  0  0  0  0  0  # atno 10765 bound_to 10752
  140.0573  134.9224  157.1122 H   0  0  0  0  0  0  0  0  0  0  0  0  # atno 11005 bound_to 11000
  146.2703  140.4824  142.8817 LP  0  0  0  0  0  0  0  0  0  0  0  0  # atno 17320 bound_to 7965
  144.8307  140.6702  143.6293 LP  0  0  0  0  0  0  0  0  0  0  0  0  # atno 17321 bound_to 7965
  139.8422  143.7548  152.3180 LP  0  0  0  0  0  0  0  0  0  0  0  0  # atno 17342 bound_to 10162
  139.7701  144.7479  151.0237 LP  0  0  0  0  0  0  0  0  0  0  0  0  # atno 17343 bound_to 10162
  155.9734  130.4119  150.4006 LP  0  0  0  0  0  0  0  0  0  0  0  0  # atno 17370 bound_to 10713
  157.2080  131.0453  151.2615 LP  0  0  0  0  0  0  0  0  0  0  0  0  # atno 17371 bound_to 10713
  140.3824  134.2272  155.7170 LP  0  0  0  0  0  0  0  0  0  0  0  0  # atno 17394 bound_to 11000
  141.1957  133.8098  157.0701 LP  0  0  0  0  0  0  0  0  0  0  0  0  # atno 17395 bound_to 11000

$$$$
