AV-unprocessed.smi:3169|AV-procd|sdf|12104|dock10
  -GOLD-   2272017543D 1   1.00000     0.00000
 Structure written by MMmdl.
 36 37  0  0  0  0  0  0  0  0  2 V2000
  147.8718  134.3239  155.4887 O   0  0  0  0  0  0  0  0  0  0  0  0
  148.1708  134.8705  154.4266 C   0  0  0  0  0  0  0  0  0  0  0  0
  147.5155  134.6751  153.2737 N   0  0  0  0  0  0  0  0  0  0  0  0
  146.3636  133.7959  153.1135 C   0  0  0  0  0  0  0  0  0  0  0  0
  146.6270  132.7090  152.0585 C   0  0  0  0  0  0  0  0  0  0  0  0
  145.5907  132.6974  151.0253 N   0  0  0  0  0  0  0  0  0  0  0  0
  145.5995  132.0002  149.8448 C   0  0  0  0  0  0  0  0  0  0  0  0
  144.4257  132.3039  149.2039 C   0  0  0  0  0  0  0  0  0  0  0  0
  143.7524  133.1740  150.0193 N   0  3  0  0  0  0  0  0  0  0  0  0
  144.4630  133.4127  151.1264 C   0  0  0  0  0  0  0  0  0  0  0  0
  149.1879  135.7304  154.2833 N   0  0  0  0  0  0  0  0  0  0  0  0
  150.0698  136.1658  155.3599 C   0  0  0  0  0  0  0  0  0  0  0  0
  151.2571  136.9782  154.8183 C   0  0  1  0  0  0  0  0  0  0  0  0
  150.9611  138.4680  154.6581 C   0  0  0  0  0  0  0  0  0  0  0  0
  152.3493  139.0611  154.7303 C   0  0  0  0  0  0  0  0  0  0  0  0
  153.0043  138.1899  155.7983 C   0  0  0  0  0  0  0  0  0  0  0  0
  152.3591  136.9208  155.7216 O   0  0  0  0  0  0  0  0  0  0  0  0
  147.8316  135.1732  152.4542 H   0  0  0  0  0  0  0  0  0  0  0  0
  146.1050  133.3448  154.0732 H   0  0  0  0  0  0  0  0  0  0  0  0
  145.5085  134.4041  152.8171 H   0  0  0  0  0  0  0  0  0  0  0  0
  147.5883  132.8702  151.5689 H   0  0  0  0  0  0  0  0  0  0  0  0
  146.6605  131.7179  152.5139 H   0  0  0  0  0  0  0  0  0  0  0  0
  146.4185  131.3573  149.5561 H   0  0  0  0  0  0  0  0  0  0  0  0
  144.0303  131.9755  148.2536 H   0  0  0  0  0  0  0  0  0  0  0  0
  144.1817  134.0566  151.9409 H   0  0  0  0  0  0  0  0  0  0  0  0
  149.3526  136.1311  153.3714 H   0  0  0  0  0  0  0  0  0  0  0  0
  149.5080  136.7560  156.0860 H   0  0  0  0  0  0  0  0  0  0  0  0
  150.4296  135.2839  155.8903 H   0  0  0  0  0  0  0  0  0  0  0  0
  151.5878  136.5799  153.8575 H   0  0  0  0  0  0  0  0  0  0  0  0
  150.4432  138.7011  153.7274 H   0  0  0  0  0  0  0  0  0  0  0  0
  150.3560  138.8345  155.4888 H   0  0  0  0  0  0  0  0  0  0  0  0
  152.8600  138.9340  153.7747 H   0  0  0  0  0  0  0  0  0  0  0  0
  152.3524  140.1218  154.9831 H   0  0  0  0  0  0  0  0  0  0  0  0
  154.0813  138.0988  155.6557 H   0  0  0  0  0  0  0  0  0  0  0  0
  152.8288  138.6068  156.7907 H   0  0  0  0  0  0  0  0  0  0  0  0
  142.8477  133.5807  149.8161 H   0  0  0  0  0  0  0  0  0  0  0  0
  1  2  2  0  0  0  0
  2  3  1  0  0  0  0
  2 11  1  0  0  0  0
  3  4  1  0  0  0  0
  3 18  1  0  0  0  0
  4  5  1  0  0  0  0
  4 19  1  0  0  0  0
  4 20  1  0  0  0  0
  5  6  1  0  0  0  0
  5 21  1  0  0  0  0
  5 22  1  0  0  0  0
  6 10  1  0  0  0  0
  6  7  1  0  0  0  0
  7  8  2  0  0  0  0
  7 23  1  0  0  0  0
  8  9  1  0  0  0  0
  8 24  1  0  0  0  0
  9 10  2  0  0  0  0
  9 36  1  0  0  0  0
 10 25  1  0  0  0  0
 11 12  1  0  0  0  0
 11 26  1  0  0  0  0
 12 13  1  0  0  0  0
 12 27  1  0  0  0  0
 12 28  1  0  0  0  0
 13 17  1  0  0  0  0
 13 14  1  0  0  0  0
 13 29  1  0  0  0  0
 14 15  1  0  0  0  0
 14 30  1  0  0  0  0
 14 31  1  0  0  0  0
 15 16  1  0  0  0  0
 15 32  1  0  0  0  0
 15 33  1  0  0  0  0
 16 17  1  0  0  0  0
 16 34  1  0  0  0  0
 16 35  1  0  0  0  0
M  CHG  1   9   1
M  END
> <s_m_source_file>
AV-unprocessed.smi

> <i_m_source_file_index>
3169

> <i_lp_mmshare_version>
43012

> <i_f3d_flags>
0

> <s_epik_input>
TzFbQ0gyXVtDSDJdW0NIMl1bQ0BIXTFbQ0gyXVtOSF1DKD1PKVtOSF1bQ0gyXVtDSDJdbjJbY0hdW2NIXW5bY0hdMg==

> <s_epik_cmdline>
J2VwaWtfcHl0aG9uJywgJy1waCcsICc3LjAnLCAnLXRuJywgJzgnLCAnLW1hJywgJzIwMCcsICctbWV0YWxfYmluZGluZycsICctaW1hZScsICc8aW5maWxlLm1hZT4nLCAnLW9tYWUnLCAnPG91dGZpbGUubWFlPic=

> <r_lp_tautomer_probability>
1

> <r_epik_Ionization_Penalty>
0.256136

> <r_epik_Ionization_Penalty_Charging>
0

> <r_epik_Ionization_Penalty_Neutral>
0.256136

> <r_epik_State_Penalty>
0.247629

> <r_epik_Charging_Adjusted_Penalty>
0.247629

> <i_epik_Tot_Q>
1

> <i_epik_Tot_abs_Q>
1

> <r_epik_Metal_State_Penalty>
0.537113

> <b_epik_Metal_Only>
0

> <s_lp_Force_Field>
OPLS_2005

> <r_lp_Energy>
16.1594

> <b_lp_Chiralities_Consistent>
1

> <s_lp_Variant>
AV-unprocessed.smi:3169-2

> <Gold.Version>
5.8.1

> <Gold.Id.Protein>
6NUR|6NUR_protein|mol2

> <Gold.PLP.Fitness>
45.7048

> <Gold.PLP.PLP>
-30.5433

> <Gold.PLP.part.hbond>
-3.9631

> <Gold.PLP.part.metal>
0.0000

> <Gold.PLP.part.buried>
-4.4875

> <Gold.PLP.part.nonpolar>
-23.3968

> <Gold.PLP.part.repulsive>
0.1076

> <Gold.PLP.ligand.clash>
0.0000

> <Gold.PLP.ligand.torsion>
0.7783

> <Gold.PLP.Chemscore.Hbond>
4.9280

> <Gold.PLP.Chemscore.CHOScore>
0.6384

> <Gold.PLP.Chemscore.Metal>
0.0000

> <Gold.Chemscore.Hbonds>
donor molecule, donor type, donor heavy atom, donor atom, acceptor molecule, acceptor atom, score
      L1  H     3    18       P1  7948  0.93
      L1  H     9    36       P1 10186  1.95
      L1  H    11    26       P1  7948  0.99
      P1  H 10752 10763       L1    17  0.75
      L1  C     7    23       P1 10747  0.62

> <Gold.PLP.Chemscore.Internal.Correction>
0.0187

> <Gold.Rescore>
     Score         DG    S(hbond)    S(metal)    S(lipo)     H(rot)  DE(clash)    DE(int)     intcor
     17.59     -18.36       3.40        0.00      63.84       2.33       0.00       0.77       ----

> <Gold.Chemscore.Fitness>
17.5903

> <Gold.Chemscore.DG>
-18.3592

> <Gold.Chemscore.ZeroCoef>
-5.4800

> <Gold.Chemscore.Hbond>
3.4046

> <Gold.Chemscore.Metal>
0.0000

> <Gold.Chemscore.Lipo>
63.8419

> <Gold.Chemscore.Internal_Hbond>
0.0000

> <Gold.Chemscore.DEClash>
0.0021

> <Gold.Chemscore.DEInternal>
0.7668

> <Gold.Chemscore.Rot>
2.3288

> <Gold.Chemscore.Internal.Correction>
   9.000000E+99

> <Gold.Chemscore.Hbonds>
donor molecule, donor type, donor heavy atom, donor atom, acceptor molecule, acceptor atom, score
      L1  H     3    18       P1  7948  0.87
      L1  H     9    36       P1 10186  0.91
      L1  H    11    26       P1  7948  0.58
      P1  H 10752 10763       L1    17  0.26

> <Gold.Chemscore.Hbond.Weighted>
-11.3714

> <Gold.Chemscore.Metal.Weighted>
-0.0000

> <Gold.Chemscore.Lipo.Weighted>
-7.4695

> <Gold.Chemscore.Internal_Hbond.Weighted>
0.0000

> <Gold.Chemscore.DEClash.Weighted>
0.0021

> <Gold.Chemscore.DEInternal.Weighted>
0.7668

> <Gold.Chemscore.Rot.Weighted>
5.9617

> <Gold.Chemscore.Internal.Correction.Weighted>
   9.000000E+99

> <Gold.Protein.RotatedTorsions>
[ 6907 6896 6895 6894 ] final  147.69 input  -60.11 | X-H torsion
[ 7974 7965 7964 7962 ] final  -44.65 input  175.53 | X-H torsion
[ 8008 7997 7996 7995 ] final   92.15 input   59.86 | X-H torsion
[ 10167 10162 10161 10158 ] final -157.14 input  -65.29 | X-H torsion
[ 10718 10713 10712 10709 ] final   83.57 input   66.30 | X-H torsion
[ 10763 10752 10751 10750 ] final   98.63 input  -60.55 | X-H torsion
[ 11005 11000 10999 10996 ] final   79.17 input  -57.11 | X-H torsion

> <Gold.Protein.ActiveResidues>
 VAL166  LYS551  ARG553  GLY616  TRP617  ASP618  TYR619  PRO620  LYS621  CYS622 
 ASP623  PHE694  ASN695  SER759  ASP760  ASP761  ALA762  ILE779  LEU786  VAL792 
 PHE793  MET794  SER795  GLU796  ALA797  LYS798  CYS799  TRP800  GLU811  SER814 

> <Gold.Protein.RotatedAtoms>
  152.1514  133.4524  159.4815 H   0  0  0  0  0  0  0  0  0  0  0  0  # atno 6907 bound_to 6896
  150.6896  134.2184  159.4396 H   0  0  0  0  0  0  0  0  0  0  0  0  # atno 6908 bound_to 6896
  152.0081  134.9891  160.0618 H   0  0  0  0  0  0  0  0  0  0  0  0  # atno 6909 bound_to 6896
  145.9899  140.7192  142.9322 H   0  0  0  0  0  0  0  0  0  0  0  0  # atno 7974 bound_to 7965
  156.0320  140.3329  155.7150 H   0  0  0  0  0  0  0  0  0  0  0  0  # atno 8008 bound_to 7997
  155.5870  140.0642  157.2786 H   0  0  0  0  0  0  0  0  0  0  0  0  # atno 8009 bound_to 7997
  154.4357  140.1834  156.1024 H   0  0  0  0  0  0  0  0  0  0  0  0  # atno 8010 bound_to 7997
  139.6794  143.9607  152.2328 H   0  0  0  0  0  0  0  0  0  0  0  0  # atno 10167 bound_to 10162
  157.6881  131.0096  150.2543 H   0  0  0  0  0  0  0  0  0  0  0  0  # atno 10718 bound_to 10713
  153.2914  135.4141  155.1170 H   0  0  0  0  0  0  0  0  0  0  0  0  # atno 10763 bound_to 10752
  154.8521  135.3519  154.5975 H   0  0  0  0  0  0  0  0  0  0  0  0  # atno 10764 bound_to 10752
  153.6398  135.7057  153.5303 H   0  0  0  0  0  0  0  0  0  0  0  0  # atno 10765 bound_to 10752
  139.9183  134.7821  156.1744 H   0  0  0  0  0  0  0  0  0  0  0  0  # atno 11005 bound_to 11000
  144.6886  140.3052  143.7257 LP  0  0  0  0  0  0  0  0  0  0  0  0  # atno 17320 bound_to 7965
  145.7646  139.1836  143.2247 LP  0  0  0  0  0  0  0  0  0  0  0  0  # atno 17321 bound_to 7965
  139.9393  144.6691  150.8282 LP  0  0  0  0  0  0  0  0  0  0  0  0  # atno 17342 bound_to 10162
  140.7647  143.3255  151.2526 LP  0  0  0  0  0  0  0  0  0  0  0  0  # atno 17343 bound_to 10162
  156.3134  130.3775  149.7640 LP  0  0  0  0  0  0  0  0  0  0  0  0  # atno 17370 bound_to 10713
  156.5234  130.8225  151.3211 LP  0  0  0  0  0  0  0  0  0  0  0  0  # atno 17371 bound_to 10713
  141.0680  133.6810  156.2084 LP  0  0  0  0  0  0  0  0  0  0  0  0  # atno 17394 bound_to 11000
  140.6553  134.5025  157.5580 LP  0  0  0  0  0  0  0  0  0  0  0  0  # atno 17395 bound_to 11000

$$$$
