AV-unprocessed.smi:513|AV-procd|sdf|2773|dock10
  -GOLD-   2262023243D 1   1.00000     0.00000
 Structure written by MMmdl.
 42 44  0  0  0  0  0  0  0  0  1 V2000
  151.8881  145.9184  160.0215 C   0  0  0  0  0  0  0  0  0  0  0  0
  151.1671  144.9770  159.2480 O   0  0  0  0  0  0  0  0  0  0  0  0
  152.0089  144.0161  158.6314 C   0  0  0  0  0  0  0  0  0  0  0  0
  151.2864  142.6632  158.5757 C   0  0  0  0  0  0  0  0  0  0  0  0
  152.2223  141.5445  158.6713 N   0  0  0  0  0  0  0  0  0  0  0  0
  152.4763  140.5524  157.7717 C   0  0  0  0  0  0  0  0  0  0  0  0
  151.8603  140.4977  156.5207 N   0  0  0  0  0  0  0  0  0  0  0  0
  152.1591  139.5002  155.4970 C   0  0  0  0  0  0  0  0  0  0  0  0
  150.8619  138.9056  154.9118 C   0  0  0  0  0  0  0  0  0  0  0  0
  150.0640  139.9628  154.2992 N   0  0  0  0  0  0  0  0  0  0  0  0
  149.7473  140.9576  155.3183 C   0  0  0  0  0  0  0  0  0  0  0  0
  151.0559  141.5406  155.8877 C   0  0  0  0  0  0  0  0  0  0  0  0
  153.3272  139.6163  158.2031 N   0  0  0  0  0  0  0  0  0  0  0  0
  153.6684  140.0626  159.4695 C   0  0  0  0  0  0  0  0  0  0  0  0
  153.0155  141.2123  159.7709 C   0  0  0  0  0  0  0  0  0  0  0  0
  153.1659  141.8835  161.0687 C   0  0  0  0  0  0  0  0  0  0  0  0
  152.5736  142.9171  161.3711 O   0  0  0  0  0  0  0  0  0  0  0  0
  154.0207  141.2422  161.9023 N   0  0  0  0  0  0  0  0  0  0  0  0
  154.7115  140.0863  161.6590 C   0  0  0  0  0  0  0  0  0  0  0  0
  155.4514  139.6249  162.5273 O   0  0  0  0  0  0  0  0  0  0  0  0
  154.5391  139.4870  160.4358 N   0  0  0  0  0  0  0  0  0  0  0  0
  155.2265  138.2450  160.0773 C   0  0  0  0  0  0  0  0  0  0  0  0
  154.1613  141.6636  162.8091 H   0  0  0  0  0  0  0  0  0  0  0  0
  151.1945  146.6285  160.4717 H   0  0  0  0  0  0  0  0  0  0  0  0
  152.5918  146.4788  159.4047 H   0  0  0  0  0  0  0  0  0  0  0  0
  152.4382  145.4287  160.8262 H   0  0  0  0  0  0  0  0  0  0  0  0
  152.2674  144.3389  157.6220 H   0  0  0  0  0  0  0  0  0  0  0  0
  152.9401  143.9209  159.1920 H   0  0  0  0  0  0  0  0  0  0  0  0
  150.5510  142.6159  159.3719 H   0  0  0  0  0  0  0  0  0  0  0  0
  150.7135  142.5729  157.6539 H   0  0  0  0  0  0  0  0  0  0  0  0
  152.7663  139.9506  154.7102 H   0  0  0  0  0  0  0  0  0  0  0  0
  152.7581  138.7009  155.9345 H   0  0  0  0  0  0  0  0  0  0  0  0
  151.0995  138.1580  154.1549 H   0  0  0  0  0  0  0  0  0  0  0  0
  150.2820  138.4037  155.6876 H   0  0  0  0  0  0  0  0  0  0  0  0
  149.2097  139.5725  153.9277 H   0  0  0  0  0  0  0  0  0  0  0  0
  149.1483  141.7479  154.8654 H   0  0  0  0  0  0  0  0  0  0  0  0
  149.1436  140.5056  156.1065 H   0  0  0  0  0  0  0  0  0  0  0  0
  150.8476  142.3428  156.5944 H   0  0  0  0  0  0  0  0  0  0  0  0
  151.6372  142.0013  155.0876 H   0  0  0  0  0  0  0  0  0  0  0  0
  155.9218  137.8862  160.8369 H   0  0  0  0  0  0  0  0  0  0  0  0
  155.7958  138.3866  159.1580 H   0  0  0  0  0  0  0  0  0  0  0  0
  154.4966  137.4545  159.9004 H   0  0  0  0  0  0  0  0  0  0  0  0
  1  2  1  0  0  0  0
  1 24  1  0  0  0  0
  1 25  1  0  0  0  0
  1 26  1  0  0  0  0
  2  3  1  0  0  0  0
  3  4  1  0  0  0  0
  3 27  1  0  0  0  0
  3 28  1  0  0  0  0
  4  5  1  0  0  0  0
  4 29  1  0  0  0  0
  4 30  1  0  0  0  0
  5 15  1  0  0  0  0
  5  6  1  0  0  0  0
  6  7  1  0  0  0  0
  6 13  2  0  0  0  0
  7 12  1  0  0  0  0
  7  8  1  0  0  0  0
  8  9  1  0  0  0  0
  8 31  1  0  0  0  0
  8 32  1  0  0  0  0
  9 10  1  0  0  0  0
  9 33  1  0  0  0  0
  9 34  1  0  0  0  0
 10 11  1  0  0  0  0
 10 35  1  0  0  0  0
 11 12  1  0  0  0  0
 11 36  1  0  0  0  0
 11 37  1  0  0  0  0
 12 38  1  0  0  0  0
 12 39  1  0  0  0  0
 13 14  1  0  0  0  0
 14 21  1  0  0  0  0
 14 15  2  0  0  0  0
 15 16  1  0  0  0  0
 16 17  2  0  0  0  0
 16 18  1  0  0  0  0
 18 23  1  0  0  0  0
 18 19  1  0  0  0  0
 19 20  2  0  0  0  0
 19 21  1  0  0  0  0
 21 22  1  0  0  0  0
 22 40  1  0  0  0  0
 22 41  1  0  0  0  0
 22 42  1  0  0  0  0
M  END
> <s_m_source_file>
AV-unprocessed.smi

> <i_m_source_file_index>
513

> <i_lp_mmshare_version>
43012

> <i_f3d_flags>
0

> <s_epik_input>
W0NIM11uMWMoPU8pW25IXWMoPU8pYyhjMTIpbihbQ0gyXVtDSDJdT1tDSDNdKWMobjIpTjNbQ0gyXVtDSDJdW05IXVtDSDJdW0NIMl0z

> <s_epik_cmdline>
J2VwaWtfcHl0aG9uJywgJy1waCcsICc3LjAnLCAnLXRuJywgJzgnLCAnLW1hJywgJzIwMCcsICctbWV0YWxfYmluZGluZycsICctaW1hZScsICc8aW5maWxlLm1hZT4nLCAnLW9tYWUnLCAnPG91dGZpbGUubWFlPic=

> <r_epik_Ionization_Penalty>
2.51416

> <r_epik_Ionization_Penalty_Charging>
1.6225e-05

> <r_epik_Ionization_Penalty_Neutral>
2.51414

> <r_epik_State_Penalty>
2.67993

> <r_epik_Charging_Adjusted_Penalty>
2.67995

> <i_epik_Tot_Q>
0

> <i_epik_Tot_abs_Q>
0

> <r_epik_Metal_State_Penalty>
2.70812

> <b_epik_Metal_Only>
0

> <s_lp_Force_Field>
OPLS_2005

> <r_lp_Energy>
48.0947

> <b_lp_Chiralities_Consistent>
1

> <s_lp_Variant>
AV-unprocessed.smi:513-2

> <Gold.Version>
5.8.1

> <Gold.Id.Protein>
6NUR|6NUR_protein|mol2

> <Gold.PLP.Fitness>
44.5334

> <Gold.PLP.PLP>
-42.6406

> <Gold.PLP.part.hbond>
-2.5546

> <Gold.PLP.part.metal>
0.0000

> <Gold.PLP.part.buried>
-4.9633

> <Gold.PLP.part.nonpolar>
-33.3273

> <Gold.PLP.part.repulsive>
0.2233

> <Gold.PLP.ligand.clash>
2.5612

> <Gold.PLP.ligand.torsion>
0.4773

> <Gold.PLP.Chemscore.Hbond>
1.7000

> <Gold.PLP.Chemscore.CHOScore>
0.0000

> <Gold.PLP.Chemscore.Metal>
0.0000

> <Gold.Chemscore.Hbonds>
donor molecule, donor type, donor heavy atom, donor atom, acceptor molecule, acceptor atom, score
      P1  H  7989  7998       L1    10  0.68
      P1  H  7997  8008       L1    13  1.00

> <Gold.PLP.Chemscore.Internal.Correction>
0.3086

> <Gold.Rescore>
     Score         DG    S(hbond)    S(metal)    S(lipo)     H(rot)  DE(clash)    DE(int)     intcor
     12.34     -14.43       1.42        0.00      70.05       1.55       0.37       1.72       ----

> <Gold.Chemscore.Fitness>
12.3370

> <Gold.Chemscore.DG>
-14.4314

> <Gold.Chemscore.ZeroCoef>
-5.4800

> <Gold.Chemscore.Hbond>
1.4161

> <Gold.Chemscore.Metal>
0.0000

> <Gold.Chemscore.Lipo>
70.0540

> <Gold.Chemscore.Internal_Hbond>
0.0000

> <Gold.Chemscore.DEClash>
0.3746

> <Gold.Chemscore.DEInternal>
1.7198

> <Gold.Chemscore.Rot>
1.5526

> <Gold.Chemscore.Internal.Correction>
   9.000000E+99

> <Gold.Chemscore.Hbonds>
donor molecule, donor type, donor heavy atom, donor atom, acceptor molecule, acceptor atom, score
      P1  H  7989  7998       L1    10  0.02
      P1  H  7997  8008       L1    13  0.11

> <Gold.Chemscore.Hbond.Weighted>
-4.7296

> <Gold.Chemscore.Metal.Weighted>
-0.0000

> <Gold.Chemscore.Lipo.Weighted>
-8.1963

> <Gold.Chemscore.Internal_Hbond.Weighted>
0.0000

> <Gold.Chemscore.DEClash.Weighted>
0.3746

> <Gold.Chemscore.DEInternal.Weighted>
1.7198

> <Gold.Chemscore.Rot.Weighted>
3.9745

> <Gold.Chemscore.Internal.Correction.Weighted>
   9.000000E+99

> <Gold.Protein.RotatedTorsions>
[ 6907 6896 6895 6894 ] final  133.43 input  -60.11 | X-H torsion
[ 7974 7965 7964 7962 ] final  135.57 input  175.53 | X-H torsion
[ 8008 7997 7996 7995 ] final -103.89 input   59.86 | X-H torsion
[ 10167 10162 10161 10158 ] final  144.46 input  -65.29 | X-H torsion
[ 10718 10713 10712 10709 ] final -138.25 input   66.30 | X-H torsion
[ 10763 10752 10751 10750 ] final    5.34 input  -60.55 | X-H torsion
[ 11005 11000 10999 10996 ] final   29.81 input  -57.11 | X-H torsion

> <Gold.Protein.ActiveResidues>
 VAL166  LYS551  ARG553  GLY616  TRP617  ASP618  TYR619  PRO620  LYS621  CYS622 
 ASP623  PHE694  ASN695  SER759  ASP760  ASP761  ALA762  ILE779  LEU786  VAL792 
 PHE793  MET794  SER795  GLU796  ALA797  LYS798  CYS799  TRP800  GLU811  SER814 

> <Gold.Protein.RotatedAtoms>
  152.3220  133.5864  159.5750 H   0  0  0  0  0  0  0  0  0  0  0  0  # atno 6907 bound_to 6896
  150.7376  133.9997  159.3643 H   0  0  0  0  0  0  0  0  0  0  0  0  # atno 6908 bound_to 6896
  151.7880  135.0744  160.0434 H   0  0  0  0  0  0  0  0  0  0  0  0  # atno 6909 bound_to 6896
  144.9650  139.4668  143.5461 H   0  0  0  0  0  0  0  0  0  0  0  0  # atno 7974 bound_to 7965
  154.8774  140.0420  157.1761 H   0  0  0  0  0  0  0  0  0  0  0  0  # atno 8008 bound_to 7997
  154.8675  140.2953  155.5480 H   0  0  0  0  0  0  0  0  0  0  0  0  # atno 8009 bound_to 7997
  156.2999  140.2435  156.3659 H   0  0  0  0  0  0  0  0  0  0  0  0  # atno 8010 bound_to 7997
  139.4946  144.5970  151.6561 H   0  0  0  0  0  0  0  0  0  0  0  0  # atno 10167 bound_to 10162
  156.2973  130.7409  151.1451 H   0  0  0  0  0  0  0  0  0  0  0  0  # atno 10718 bound_to 10713
  153.2605  135.6923  153.7583 H   0  0  0  0  0  0  0  0  0  0  0  0  # atno 10763 bound_to 10752
  153.6644  135.3355  155.3137 H   0  0  0  0  0  0  0  0  0  0  0  0  # atno 10764 bound_to 10752
  154.8428  135.4485  154.1594 H   0  0  0  0  0  0  0  0  0  0  0  0  # atno 10765 bound_to 10752
  140.3010  134.2756  155.7754 H   0  0  0  0  0  0  0  0  0  0  0  0  # atno 11005 bound_to 11000
  146.3365  139.8825  142.8822 LP  0  0  0  0  0  0  0  0  0  0  0  0  # atno 17320 bound_to 7965
  145.2643  141.0087  143.3808 LP  0  0  0  0  0  0  0  0  0  0  0  0  # atno 17321 bound_to 7965
  140.5611  144.0268  150.6170 LP  0  0  0  0  0  0  0  0  0  0  0  0  # atno 17342 bound_to 10162
  140.3354  143.3052  152.0644 LP  0  0  0  0  0  0  0  0  0  0  0  0  # atno 17343 bound_to 10162
  157.7358  131.0568  150.5446 LP  0  0  0  0  0  0  0  0  0  0  0  0  # atno 17370 bound_to 10713
  156.5570  130.4246  149.6081 LP  0  0  0  0  0  0  0  0  0  0  0  0  # atno 17371 bound_to 10713
  141.2128  133.7646  156.9767 LP  0  0  0  0  0  0  0  0  0  0  0  0  # atno 17394 bound_to 11000
  140.1109  134.9477  157.2063 LP  0  0  0  0  0  0  0  0  0  0  0  0  # atno 17395 bound_to 11000

$$$$
