AV-unprocessed.smi:1127|AV-procd|sdf|4840|dock2
  -GOLD-   22720 3403D 1   1.00000     0.00000
 Structure written by MMmdl.
 42 43  0  0  0  0  0  0  0  0  1 V2000
  149.0833  135.1548  156.0893 C   0  0  0  0  0  0  0  0  0  0  0  0
  150.6076  135.2527  157.1414 S   0  0  2  0  0  0  0  0  0  0  0  0
  150.2008  135.9000  158.4665 O   0  0  0  0  0  0  0  0  0  0  0  0
  151.3675  136.6145  156.1881 C   0  0  0  0  0  0  0  0  0  0  0  0
  151.5052  136.6056  154.8588 N   0  0  0  0  0  0  0  0  0  0  0  0
  152.1300  137.8008  154.5572 N   0  0  0  0  0  0  0  0  0  0  0  0
  152.2989  138.4023  155.7367 C   0  0  0  0  0  0  0  0  0  0  0  0
  151.8422  137.7175  156.7972 N   0  0  0  0  0  0  0  0  0  0  0  0
  151.8772  138.0879  158.2009 C   0  0  0  0  0  0  0  0  0  0  0  0
  152.5000  139.4714  158.3833 C   0  0  0  0  0  0  0  0  0  0  0  0
  153.7085  139.5802  158.5878 O   0  0  0  0  0  0  0  0  0  0  0  0
  151.6590  140.5151  158.3216 N   0  0  0  0  0  0  0  0  0  0  0  0
  152.0211  141.9202  158.4943 C   0  0  0  0  0  0  0  0  0  0  0  0
  152.3507  142.1808  159.9823 C   0  0  0  0  0  0  0  0  0  0  0  0
  152.8640  143.5856  160.3519 C   0  0  0  0  0  0  0  0  0  0  0  0
  151.8768  144.7634  160.2215 C   0  0  0  0  0  0  0  0  0  0  0  0
  150.4284  144.4829  160.6716 C   0  0  0  0  0  0  0  0  0  0  0  0
  149.4386  144.2087  159.5206 C   0  0  0  0  0  0  0  0  0  0  0  0
  149.6082  142.8785  158.7605 C   0  0  0  0  0  0  0  0  0  0  0  0
  150.8884  142.7870  157.9031 C   0  0  0  0  0  0  0  0  0  0  0  0
  149.3074  135.4045  155.0520 H   0  0  0  0  0  0  0  0  0  0  0  0
  148.3259  135.8471  156.4571 H   0  0  0  0  0  0  0  0  0  0  0  0
  148.6723  134.1459  156.1186 H   0  0  0  0  0  0  0  0  0  0  0  0
  152.7710  139.3695  155.8289 H   0  0  0  0  0  0  0  0  0  0  0  0
  150.8583  138.0913  158.5906 H   0  0  0  0  0  0  0  0  0  0  0  0
  152.4301  137.3328  158.7613 H   0  0  0  0  0  0  0  0  0  0  0  0
  150.6838  140.3218  158.1456 H   0  0  0  0  0  0  0  0  0  0  0  0
  152.9177  142.1147  157.9028 H   0  0  0  0  0  0  0  0  0  0  0  0
  151.5021  141.9173  160.6103 H   0  0  0  0  0  0  0  0  0  0  0  0
  153.1312  141.4793  160.2792 H   0  0  0  0  0  0  0  0  0  0  0  0
  153.1867  143.5431  161.3928 H   0  0  0  0  0  0  0  0  0  0  0  0
  153.7649  143.8078  159.7792 H   0  0  0  0  0  0  0  0  0  0  0  0
  152.2708  145.5756  160.8337 H   0  0  0  0  0  0  0  0  0  0  0  0
  151.8892  145.1669  159.2103 H   0  0  0  0  0  0  0  0  0  0  0  0
  150.3877  143.6942  161.4227 H   0  0  0  0  0  0  0  0  0  0  0  0
  150.0701  145.3750  161.1864 H   0  0  0  0  0  0  0  0  0  0  0  0
  148.4323  144.2219  159.9407 H   0  0  0  0  0  0  0  0  0  0  0  0
  149.4655  145.0378  158.8126 H   0  0  0  0  0  0  0  0  0  0  0  0
  149.5212  142.0308  159.4398 H   0  0  0  0  0  0  0  0  0  0  0  0
  148.7549  142.7858  158.0877 H   0  0  0  0  0  0  0  0  0  0  0  0
  151.2565  143.7817  157.6591 H   0  0  0  0  0  0  0  0  0  0  0  0
  150.6196  142.3690  156.9315 H   0  0  0  0  0  0  0  0  0  0  0  0
  1  2  1  0  0  0  0
  1 21  1  0  0  0  0
  1 22  1  0  0  0  0
  1 23  1  0  0  0  0
  2  3  2  0  0  0  0
  2  4  1  0  0  0  0
  4  8  1  0  0  0  0
  4  5  2  0  0  0  0
  5  6  1  0  0  0  0
  6  7  2  0  0  0  0
  7  8  1  0  0  0  0
  7 24  1  0  0  0  0
  8  9  1  0  0  0  0
  9 10  1  0  0  0  0
  9 25  1  0  0  0  0
  9 26  1  0  0  0  0
 10 11  2  0  0  0  0
 10 12  1  0  0  0  0
 12 13  1  0  0  0  0
 12 27  1  0  0  0  0
 13 20  1  0  0  0  0
 13 14  1  0  0  0  0
 13 28  1  0  0  0  0
 14 15  1  0  0  0  0
 14 29  1  0  0  0  0
 14 30  1  0  0  0  0
 15 16  1  0  0  0  0
 15 31  1  0  0  0  0
 15 32  1  0  0  0  0
 16 17  1  0  0  0  0
 16 33  1  0  0  0  0
 16 34  1  0  0  0  0
 17 18  1  0  0  0  0
 17 35  1  0  0  0  0
 17 36  1  0  0  0  0
 18 19  1  0  0  0  0
 18 37  1  0  0  0  0
 18 38  1  0  0  0  0
 19 20  1  0  0  0  0
 19 39  1  0  0  0  0
 19 40  1  0  0  0  0
 20 41  1  0  0  0  0
 20 42  1  0  0  0  0
M  END
> <s_m_source_file>
AV-unprocessed.smi

> <i_m_source_file_index>
1127

> <i_lp_mmshare_version>
43012

> <i_f3d_flags>
0

> <s_epik_input>
W0NIM11bU0BdKD1PKWMxbm5bY0hdbjFbQ0gyXUMoPU8pW05IXVtDSF0yW0NIMl1bQ0gyXVtDSDJdW0NIMl1bQ0gyXVtDSDJdW0NIMl0y

> <s_epik_cmdline>
J2VwaWtfcHl0aG9uJywgJy1waCcsICc3LjAnLCAnLXRuJywgJzgnLCAnLW1hJywgJzIwMCcsICctbWV0YWxfYmluZGluZycsICctaW1hZScsICc8aW5maWxlLm1hZT4nLCAnLW9tYWUnLCAnPG91dGZpbGUubWFlPic=

> <r_lp_tautomer_probability>
1

> <r_epik_Ionization_Penalty>
7.34999e-08

> <r_epik_Ionization_Penalty_Charging>
0

> <r_epik_Ionization_Penalty_Neutral>
7.34999e-08

> <r_epik_State_Penalty>
-0

> <r_epik_Charging_Adjusted_Penalty>
0

> <i_epik_Tot_Q>
0

> <i_epik_Tot_abs_Q>
0

> <r_epik_Metal_State_Penalty>
-0

> <b_epik_Metal_Only>
0

> <s_lp_Force_Field>
OPLS_2005

> <r_lp_Energy>
17.7529

> <b_lp_Chiralities_Consistent>
1

> <s_lp_Variant>
AV-unprocessed.smi:1127-1

> <Gold.Version>
5.8.1

> <Gold.Id.Protein>
6NUR|6NUR_protein|mol2

> <Gold.PLP.Fitness>
39.0879

> <Gold.PLP.PLP>
-31.5161

> <Gold.PLP.part.hbond>
-3.9585

> <Gold.PLP.part.metal>
0.0000

> <Gold.PLP.part.buried>
-5.3978

> <Gold.PLP.part.nonpolar>
-24.2897

> <Gold.PLP.part.repulsive>
0.3593

> <Gold.PLP.ligand.clash>
0.0000

> <Gold.PLP.ligand.torsion>
1.0996

> <Gold.PLP.Chemscore.Hbond>
2.9040

> <Gold.PLP.Chemscore.CHOScore>
0.0000

> <Gold.PLP.Chemscore.Metal>
0.0000

> <Gold.Chemscore.Hbonds>
donor molecule, donor type, donor heavy atom, donor atom, acceptor molecule, acceptor atom, score
      P1  H  6896  6909       L1     3  0.96
      P1  H  7997  8008       L1    11  1.00
      P1  H 10752 10765       L1     5  0.75

> <Gold.PLP.Chemscore.Internal.Correction>
1.0589

> <Gold.Rescore>
     Score         DG    S(hbond)    S(metal)    S(lipo)     H(rot)  DE(clash)    DE(int)     intcor
     14.51     -16.90       1.92        0.00      80.17       1.70       0.10       2.29       ----

> <Gold.Chemscore.Fitness>
14.5099

> <Gold.Chemscore.DG>
-16.9023

> <Gold.Chemscore.ZeroCoef>
-5.4800

> <Gold.Chemscore.Hbond>
1.9179

> <Gold.Chemscore.Metal>
0.0000

> <Gold.Chemscore.Lipo>
80.1666

> <Gold.Chemscore.Internal_Hbond>
0.0000

> <Gold.Chemscore.DEClash>
0.0997

> <Gold.Chemscore.DEInternal>
2.2927

> <Gold.Chemscore.Rot>
1.7044

> <Gold.Chemscore.Internal.Correction>
   9.000000E+99

> <Gold.Chemscore.Hbonds>
donor molecule, donor type, donor heavy atom, donor atom, acceptor molecule, acceptor atom, score
      P1  H  6896  6909       L1     3  0.37
      P1  H  7997  8008       L1    11  0.88
      P1  H 10752 10765       L1     5  0.05

> <Gold.Chemscore.Hbond.Weighted>
-6.4059

> <Gold.Chemscore.Metal.Weighted>
-0.0000

> <Gold.Chemscore.Lipo.Weighted>
-9.3795

> <Gold.Chemscore.Internal_Hbond.Weighted>
0.0000

> <Gold.Chemscore.DEClash.Weighted>
0.0997

> <Gold.Chemscore.DEInternal.Weighted>
2.2927

> <Gold.Chemscore.Rot.Weighted>
4.3631

> <Gold.Chemscore.Internal.Correction.Weighted>
   9.000000E+99

> <Gold.Protein.RotatedTorsions>
[ 6907 6896 6895 6894 ] final   63.91 input  -60.11 | X-H torsion
[ 7974 7965 7964 7962 ] final   31.16 input  175.53 | X-H torsion
[ 8008 7997 7996 7995 ] final  -91.04 input   59.86 | X-H torsion
[ 10167 10162 10161 10158 ] final   15.27 input  -65.29 | X-H torsion
[ 10718 10713 10712 10709 ] final   21.29 input   66.30 | X-H torsion
[ 10763 10752 10751 10750 ] final  178.62 input  -60.55 | X-H torsion
[ 11005 11000 10999 10996 ] final  -92.71 input  -57.11 | X-H torsion

> <Gold.Protein.ActiveResidues>
 VAL166  LYS551  ARG553  GLY616  TRP617  ASP618  TYR619  PRO620  LYS621  CYS622 
 ASP623  PHE694  ASN695  SER759  ASP760  ASP761  ALA762  ILE779  LEU786  VAL792 
 PHE793  MET794  SER795  GLU796  ALA797  LYS798  CYS799  TRP800  GLU811  SER814 

> <Gold.Protein.RotatedAtoms>
  152.4290  134.5814  159.9948 H   0  0  0  0  0  0  0  0  0  0  0  0  # atno 6907 bound_to 6896
  151.5942  133.3357  159.3042 H   0  0  0  0  0  0  0  0  0  0  0  0  # atno 6908 bound_to 6896
  150.8181  134.7411  159.6813 H   0  0  0  0  0  0  0  0  0  0  0  0  # atno 6909 bound_to 6896
  146.1567  139.6694  142.9061 H   0  0  0  0  0  0  0  0  0  0  0  0  # atno 7974 bound_to 7965
  154.7059  140.0524  157.0503 H   0  0  0  0  0  0  0  0  0  0  0  0  # atno 8008 bound_to 7997
  155.0621  140.3190  155.4638 H   0  0  0  0  0  0  0  0  0  0  0  0  # atno 8009 bound_to 7997
  156.2774  140.2097  156.5748 H   0  0  0  0  0  0  0  0  0  0  0  0  # atno 8010 bound_to 7997
  140.5879  143.8854  150.6846 H   0  0  0  0  0  0  0  0  0  0  0  0  # atno 10167 bound_to 10162
  157.1364  130.6613  149.5967 H   0  0  0  0  0  0  0  0  0  0  0  0  # atno 10718 bound_to 10713
  154.5100  135.2788  155.1350 H   0  0  0  0  0  0  0  0  0  0  0  0  # atno 10763 bound_to 10752
  154.2950  135.6259  153.5404 H   0  0  0  0  0  0  0  0  0  0  0  0  # atno 10764 bound_to 10752
  152.9917  135.5683  154.5563 H   0  0  0  0  0  0  0  0  0  0  0  0  # atno 10765 bound_to 10752
  141.1515  133.7839  157.0058 H   0  0  0  0  0  0  0  0  0  0  0  0  # atno 11005 bound_to 11000
  145.4689  141.0435  143.2709 LP  0  0  0  0  0  0  0  0  0  0  0  0  # atno 17320 bound_to 7965
  144.7973  139.6209  143.7087 LP  0  0  0  0  0  0  0  0  0  0  0  0  # atno 17321 bound_to 7965
  140.2370  143.3693  152.1519 LP  0  0  0  0  0  0  0  0  0  0  0  0  # atno 17342 bound_to 10162
  139.5209  144.7038  151.5414 LP  0  0  0  0  0  0  0  0  0  0  0  0  # atno 17343 bound_to 10162
  155.9797  130.4793  150.6732 LP  0  0  0  0  0  0  0  0  0  0  0  0  # atno 17370 bound_to 10713
  157.4346  131.0853  151.1004 LP  0  0  0  0  0  0  0  0  0  0  0  0  # atno 17371 bound_to 10713
  140.0910  134.9592  157.1776 LP  0  0  0  0  0  0  0  0  0  0  0  0  # atno 17394 bound_to 11000
  140.3446  134.2666  155.7207 LP  0  0  0  0  0  0  0  0  0  0  0  0  # atno 17395 bound_to 11000

$$$$
