AV-unprocessed.smi:2923|AV-procd|sdf|11208|dock4
  -GOLD-   2272016103D 1   1.00000     0.00000
 Structure written by MMmdl.
 47 49  0  0  0  0  0  0  0  0  2 V2000
  143.2552  132.0504  150.5783 C   0  0  0  0  0  0  0  0  0  0  0  0
  144.4722  132.8034  150.2957 N   0  0  0  0  0  0  0  0  0  0  0  0
  145.5302  132.2150  149.4850 C   0  0  0  0  0  0  0  0  0  0  0  0
  144.6342  134.1008  150.8279 C   0  0  0  0  0  0  0  0  0  0  0  0
  143.9001  134.5803  151.9404 C   0  0  0  0  0  0  0  0  0  0  0  0
  144.1156  135.8920  152.4102 C   0  0  0  0  0  0  0  0  0  0  0  0
  145.0667  136.7188  151.7768 C   0  0  0  0  0  0  0  0  0  0  0  0
  145.2320  138.0386  152.2781 N   0  0  0  0  0  0  0  0  0  0  0  0
  146.3639  138.7490  152.4237 C   0  0  0  0  0  0  0  0  0  0  0  0
  147.5001  138.3370  152.1927 O   0  0  0  0  0  0  0  0  0  0  0  0
  146.1043  139.9841  152.8718 N   0  0  0  0  0  0  0  0  0  0  0  0
  147.1171  141.0060  153.1079 C   0  0  2  0  0  0  0  0  0  0  0  0
  148.1977  140.5404  154.0842 C   0  0  1  0  0  0  0  0  0  0  0  0
  149.6524  140.2519  153.9746 C   0  0  0  0  0  0  0  0  0  0  0  0
  150.1154  141.0178  155.2430 C   0  0  0  0  0  0  0  0  0  0  0  0
  148.9730  141.7962  155.6767 O   0  0  0  0  0  0  0  0  0  0  0  0
  148.2347  142.0006  154.4897 C   0  0  2  0  0  0  0  0  0  0  0  0
  146.7168  142.0460  154.2220 C   0  0  0  0  0  0  0  0  0  0  0  0
  146.1876  143.3853  153.7084 C   0  0  0  0  0  0  0  0  0  0  0  0
  145.7737  141.6176  155.3646 C   0  0  0  0  0  0  0  0  0  0  0  0
  145.7707  136.1965  150.6657 C   0  0  0  0  0  0  0  0  0  0  0  0
  145.5312  134.9349  150.2474 N   0  3  0  0  0  0  0  0  0  0  0  0
  143.1277  131.9150  151.6528 H   0  0  0  0  0  0  0  0  0  0  0  0
  143.2839  131.0619  150.1195 H   0  0  0  0  0  0  0  0  0  0  0  0
  142.3818  132.5739  150.1882 H   0  0  0  0  0  0  0  0  0  0  0  0
  146.4606  132.1566  150.0504 H   0  0  0  0  0  0  0  0  0  0  0  0
  145.7024  132.8127  148.5895 H   0  0  0  0  0  0  0  0  0  0  0  0
  145.2713  131.2051  149.1667 H   0  0  0  0  0  0  0  0  0  0  0  0
  143.1703  133.9635  152.4431 H   0  0  0  0  0  0  0  0  0  0  0  0
  143.5512  136.2570  153.2562 H   0  0  0  0  0  0  0  0  0  0  0  0
  144.3840  138.4955  152.5799 H   0  0  0  0  0  0  0  0  0  0  0  0
  145.1441  140.2431  153.0450 H   0  0  0  0  0  0  0  0  0  0  0  0
  147.5252  141.4545  152.1973 H   0  0  0  0  0  0  0  0  0  0  0  0
  147.7630  139.8946  154.8510 H   0  0  0  0  0  0  0  0  0  0  0  0
  149.8791  139.1865  154.0216 H   0  0  0  0  0  0  0  0  0  0  0  0
  150.0844  140.6692  153.0639 H   0  0  0  0  0  0  0  0  0  0  0  0
  150.4171  140.3392  156.0413 H   0  0  0  0  0  0  0  0  0  0  0  0
  150.9585  141.6715  155.0165 H   0  0  0  0  0  0  0  0  0  0  0  0
  148.7920  142.6388  153.7943 H   0  0  0  0  0  0  0  0  0  0  0  0
  146.2021  144.1469  154.4886 H   0  0  0  0  0  0  0  0  0  0  0  0
  145.1621  143.3004  153.3481 H   0  0  0  0  0  0  0  0  0  0  0  0
  146.7872  143.7616  152.8794 H   0  0  0  0  0  0  0  0  0  0  0  0
  145.8120  142.3284  156.1906 H   0  0  0  0  0  0  0  0  0  0  0  0
  146.0063  140.6403  155.7838 H   0  0  0  0  0  0  0  0  0  0  0  0
  144.7378  141.5716  155.0267 H   0  0  0  0  0  0  0  0  0  0  0  0
  146.5047  136.7316  150.0828 H   0  0  0  0  0  0  0  0  0  0  0  0
  146.0559  134.5914  149.4428 H   0  0  0  0  0  0  0  0  0  0  0  0
  1  2  1  0  0  0  0
  1 23  1  0  0  0  0
  1 24  1  0  0  0  0
  1 25  1  0  0  0  0
  2  3  1  0  0  0  0
  2  4  1  0  0  0  0
  3 26  1  0  0  0  0
  3 27  1  0  0  0  0
  3 28  1  0  0  0  0
  4 22  1  0  0  0  0
  4  5  2  0  0  0  0
  5  6  1  0  0  0  0
  5 29  1  0  0  0  0
  6  7  2  0  0  0  0
  6 30  1  0  0  0  0
  7  8  1  0  0  0  0
  7 21  1  0  0  0  0
  8  9  1  0  0  0  0
  8 31  1  0  0  0  0
  9 10  2  0  0  0  0
  9 11  1  0  0  0  0
 11 12  1  0  0  0  0
 11 32  1  0  0  0  0
 12 18  1  0  0  0  0
 12 13  1  0  0  0  0
 12 33  1  0  0  0  0
 13 17  1  0  0  0  0
 13 14  1  0  0  0  0
 13 34  1  0  0  0  0
 14 15  1  0  0  0  0
 14 35  1  0  0  0  0
 14 36  1  0  0  0  0
 15 16  1  0  0  0  0
 15 37  1  0  0  0  0
 15 38  1  0  0  0  0
 16 17  1  0  0  0  0
 17 18  1  0  0  0  0
 17 39  1  0  0  0  0
 18 19  1  0  0  0  0
 18 20  1  0  0  0  0
 19 40  1  0  0  0  0
 19 41  1  0  0  0  0
 19 42  1  0  0  0  0
 20 43  1  0  0  0  0
 20 44  1  0  0  0  0
 20 45  1  0  0  0  0
 21 22  2  0  0  0  0
 21 46  1  0  0  0  0
 22 47  1  0  0  0  0
M  CHG  1  22   1
M  END
> <s_m_source_file>
AV-unprocessed.smi

> <i_m_source_file_index>
2923

> <i_lp_mmshare_version>
43012

> <i_f3d_flags>
0

> <s_epik_input>
W0NIM11OKFtDSDNdKWMxW2NIXVtjSF1jKFtjSF1uMSlbTkhdQyg9TylbTkhdW0NASF0yQyhbQ0gzXSkoW0NIM10pW0NAQEhdKFtDQEhdMjMpT1tDSDJdW0NIMl0z

> <s_epik_cmdline>
J2VwaWtfcHl0aG9uJywgJy1waCcsICc3LjAnLCAnLXRuJywgJzgnLCAnLW1hJywgJzIwMCcsICctbWV0YWxfYmluZGluZycsICctaW1hZScsICc8aW5maWxlLm1hZT4nLCAnLW9tYWUnLCAnPG91dGZpbGUubWFlPic=

> <r_lp_tautomer_probability>
0.999994

> <r_epik_Ionization_Penalty>
0.252205

> <r_epik_Ionization_Penalty_Charging>
0.252185

> <r_epik_Ionization_Penalty_Neutral>
1.99479e-05

> <r_epik_State_Penalty>
0.243573

> <r_epik_Charging_Adjusted_Penalty>
0.495758

> <i_epik_Tot_Q>
1

> <i_epik_Tot_abs_Q>
1

> <r_epik_Metal_State_Penalty>
0.534372

> <b_epik_Metal_Only>
0

> <s_lp_Force_Field>
OPLS_2005

> <r_lp_Energy>
68.0101

> <b_lp_Chiralities_Consistent>
1

> <s_lp_Variant>
AV-unprocessed.smi:2923-7

> <Gold.Version>
5.8.1

> <Gold.Id.Protein>
6NUR|6NUR_protein|mol2

> <Gold.PLP.Fitness>
45.6860

> <Gold.PLP.PLP>
-39.6864

> <Gold.PLP.part.hbond>
-4.0000

> <Gold.PLP.part.metal>
0.0000

> <Gold.PLP.part.buried>
-1.2656

> <Gold.PLP.part.nonpolar>
-38.8914

> <Gold.PLP.part.repulsive>
5.4432

> <Gold.PLP.ligand.clash>
0.0000

> <Gold.PLP.ligand.torsion>
0.6816

> <Gold.PLP.Chemscore.Hbond>
2.3648

> <Gold.PLP.Chemscore.CHOScore>
0.0000

> <Gold.PLP.Chemscore.Metal>
0.0000

> <Gold.Chemscore.Hbonds>
donor molecule, donor type, donor heavy atom, donor atom, acceptor molecule, acceptor atom, score
      L1  H     8    31       P1 10175  0.60
      L1  H    11    32       P1 10175  0.96
      L1  H    22    47       P1  7921  0.82

> <Gold.PLP.Chemscore.Internal.Correction>
0.2685

> <Gold.Rescore>
     Score         DG    S(hbond)    S(metal)    S(lipo)     H(rot)  DE(clash)    DE(int)     intcor
     16.87     -21.54       2.18        0.00      96.96       1.00       3.24       1.43       ----

> <Gold.Chemscore.Fitness>
16.8656

> <Gold.Chemscore.DG>
-21.5410

> <Gold.Chemscore.ZeroCoef>
-5.4800

> <Gold.Chemscore.Hbond>
2.1788

> <Gold.Chemscore.Metal>
0.0000

> <Gold.Chemscore.Lipo>
96.9552

> <Gold.Chemscore.Internal_Hbond>
0.0000

> <Gold.Chemscore.DEClash>
3.2431

> <Gold.Chemscore.DEInternal>
1.4323

> <Gold.Chemscore.Rot>
1.0000

> <Gold.Chemscore.Internal.Correction>
   9.000000E+99

> <Gold.Chemscore.Hbonds>
donor molecule, donor type, donor heavy atom, donor atom, acceptor molecule, acceptor atom, score
      L1  H     8    31       P1 10175  0.58
      L1  H    11    32       P1 10175  0.90
      L1  H    22    47       P1  7921  0.40
      P1  H  7954  7966       L1    10  0.07

> <Gold.Chemscore.Hbond.Weighted>
-7.2772

> <Gold.Chemscore.Metal.Weighted>
-0.0000

> <Gold.Chemscore.Lipo.Weighted>
-11.3438

> <Gold.Chemscore.Internal_Hbond.Weighted>
0.0000

> <Gold.Chemscore.DEClash.Weighted>
3.2431

> <Gold.Chemscore.DEInternal.Weighted>
1.4323

> <Gold.Chemscore.Rot.Weighted>
2.5600

> <Gold.Chemscore.Internal.Correction.Weighted>
   9.000000E+99

> <Gold.Protein.RotatedTorsions>
[ 6907 6896 6895 6894 ] final  111.26 input  -60.11 | X-H torsion
[ 7974 7965 7964 7962 ] final   46.18 input  175.53 | X-H torsion
[ 8008 7997 7996 7995 ] final -125.54 input   59.86 | X-H torsion
[ 10167 10162 10161 10158 ] final  179.52 input  -65.29 | X-H torsion
[ 10718 10713 10712 10709 ] final   99.14 input   66.30 | X-H torsion
[ 10763 10752 10751 10750 ] final   43.69 input  -60.55 | X-H torsion
[ 11005 11000 10999 10996 ] final  -14.21 input  -57.11 | X-H torsion

> <Gold.Protein.ActiveResidues>
 VAL166  LYS551  ARG553  GLY616  TRP617  ASP618  TYR619  PRO620  LYS621  CYS622 
 ASP623  PHE694  ASN695  SER759  ASP760  ASP761  ALA762  ILE779  LEU786  VAL792 
 PHE793  MET794  SER795  GLU796  ALA797  LYS798  CYS799  TRP800  GLU811  SER814 

> <Gold.Protein.RotatedAtoms>
  152.4978  133.8683  159.7285 H   0  0  0  0  0  0  0  0  0  0  0  0  # atno 6907 bound_to 6896
  150.9176  133.6911  159.2846 H   0  0  0  0  0  0  0  0  0  0  0  0  # atno 6908 bound_to 6896
  151.4298  135.1012  159.9691 H   0  0  0  0  0  0  0  0  0  0  0  0  # atno 6909 bound_to 6896
  146.0413  139.4884  142.9776 H   0  0  0  0  0  0  0  0  0  0  0  0  # atno 7974 bound_to 7965
  155.2150  140.0420  157.2939 H   0  0  0  0  0  0  0  0  0  0  0  0  # atno 8008 bound_to 7997
  154.5987  140.2446  155.7793 H   0  0  0  0  0  0  0  0  0  0  0  0  # atno 8009 bound_to 7997
  156.2307  140.2939  156.0189 H   0  0  0  0  0  0  0  0  0  0  0  0  # atno 8010 bound_to 7997
  139.5340  144.2551  152.0753 H   0  0  0  0  0  0  0  0  0  0  0  0  # atno 10167 bound_to 10162
  157.6882  131.0661  150.4904 H   0  0  0  0  0  0  0  0  0  0  0  0  # atno 10718 bound_to 10713
  152.9855  135.6093  154.3153 H   0  0  0  0  0  0  0  0  0  0  0  0  # atno 10763 bound_to 10752
  154.2866  135.2776  155.2675 H   0  0  0  0  0  0  0  0  0  0  0  0  # atno 10764 bound_to 10752
  154.4990  135.5872  153.6573 H   0  0  0  0  0  0  0  0  0  0  0  0  # atno 10765 bound_to 10752
  140.7841  133.8340  155.9319 H   0  0  0  0  0  0  0  0  0  0  0  0  # atno 11005 bound_to 11000
  145.6879  141.0172  143.1571 LP  0  0  0  0  0  0  0  0  0  0  0  0  # atno 17320 bound_to 7965
  144.7076  139.8498  143.7425 LP  0  0  0  0  0  0  0  0  0  0  0  0  # atno 17321 bound_to 7965
  140.2019  144.4650  150.6427 LP  0  0  0  0  0  0  0  0  0  0  0  0  # atno 17342 bound_to 10162
  140.6536  143.2231  151.6021 LP  0  0  0  0  0  0  0  0  0  0  0  0  # atno 17343 bound_to 10162
  156.5230  130.4166  149.6240 LP  0  0  0  0  0  0  0  0  0  0  0  0  # atno 17370 bound_to 10713
  156.3137  130.7243  151.2141 LP  0  0  0  0  0  0  0  0  0  0  0  0  # atno 17371 bound_to 10713
  140.9454  134.1847  157.4767 LP  0  0  0  0  0  0  0  0  0  0  0  0  # atno 17394 bound_to 11000
  139.8739  134.9888  156.5430 LP  0  0  0  0  0  0  0  0  0  0  0  0  # atno 17395 bound_to 11000

$$$$
