AV-unprocessed.smi:824|AV-procd|sdf|3850|dock5
  -GOLD-   22720 1293D 1   1.00000     0.00000
 Structure written by MMmdl.
 51 52  0  0  0  0  0  0  0  0  2 V2000
  149.5140  140.6109  154.5525 C   0  0  0  0  0  0  0  0  0  0  0  0
  150.6304  140.4655  155.5714 C   0  0  0  0  0  0  0  0  0  0  0  0
  150.6789  141.4624  156.5564 N   0  0  0  0  0  0  0  0  0  0  0  0
  151.6042  141.4369  157.4669 C   0  0  0  0  0  0  0  0  0  0  0  0
  151.7109  142.4305  158.4414 N   0  0  0  0  0  0  0  0  0  0  0  0
  152.7959  142.3905  159.4238 C   0  0  0  0  0  0  0  0  0  0  0  0
  152.4490  143.2159  160.6736 C   0  0  0  0  0  0  0  0  0  0  0  0
  152.1270  144.5479  160.2956 O   0  0  0  0  0  0  0  0  0  0  0  0
  150.9946  144.5824  159.4376 C   0  0  0  0  0  0  0  0  0  0  0  0
  151.2982  143.8025  158.1477 C   0  0  0  0  0  0  0  0  0  0  0  0
  152.5502  140.4278  157.5387 N   0  5  0  0  0  0  0  0  0  0  0  0
  152.5564  139.4201  156.6218 C   0  0  0  0  0  0  0  0  0  0  0  0
  153.3720  138.5002  156.6721 O   0  0  0  0  0  0  0  0  0  0  0  0
  151.5468  139.4549  155.5486 C   0  0  0  0  0  0  0  0  0  0  0  0
  151.5727  138.3515  154.4849 C   0  0  0  0  0  0  0  0  0  0  0  0
  150.4194  137.3276  154.6048 C   0  0  0  0  0  0  0  0  0  0  0  0
  150.7684  136.1375  155.5182 C   0  0  0  0  0  0  0  0  0  0  0  0
  151.7873  136.2297  156.2044 O   0  0  0  0  0  0  0  0  0  0  0  0
  149.9617  135.0476  155.5707 N   0  0  0  0  0  0  0  0  0  0  0  0
  148.8225  134.8395  154.6718 C   0  0  0  0  0  0  0  0  0  0  0  0
  150.2029  133.9750  156.5499 C   0  0  0  0  0  0  0  0  0  0  0  0
  150.9040  132.7453  155.9252 C   0  0  0  0  0  0  0  0  0  0  0  0
  150.0087  132.0891  154.8642 C   0  0  0  0  0  0  0  0  0  0  0  0
  151.3348  131.7119  156.9803 C   0  0  0  0  0  0  0  0  0  0  0  0
  149.9181  140.7286  153.5485 H   0  0  0  0  0  0  0  0  0  0  0  0
  148.8979  141.4852  154.7652 H   0  0  0  0  0  0  0  0  0  0  0  0
  148.8648  139.7356  154.5683 H   0  0  0  0  0  0  0  0  0  0  0  0
  153.0226  141.3680  159.7268 H   0  0  0  0  0  0  0  0  0  0  0  0
  153.7002  142.7845  158.9583 H   0  0  0  0  0  0  0  0  0  0  0  0
  151.6160  142.7664  161.2166 H   0  0  0  0  0  0  0  0  0  0  0  0
  153.2987  143.2374  161.3559 H   0  0  0  0  0  0  0  0  0  0  0  0
  150.1235  144.1669  159.9469 H   0  0  0  0  0  0  0  0  0  0  0  0
  150.7599  145.6202  159.2013 H   0  0  0  0  0  0  0  0  0  0  0  0
  152.0923  144.2992  157.5886 H   0  0  0  0  0  0  0  0  0  0  0  0
  150.4112  143.8031  157.5125 H   0  0  0  0  0  0  0  0  0  0  0  0
  151.5398  138.8184  153.5000 H   0  0  0  0  0  0  0  0  0  0  0  0
  152.5228  137.8197  154.5086 H   0  0  0  0  0  0  0  0  0  0  0  0
  149.5039  137.8350  154.9006 H   0  0  0  0  0  0  0  0  0  0  0  0
  150.2066  136.9259  153.6138 H   0  0  0  0  0  0  0  0  0  0  0  0
  149.1497  134.8253  153.6316 H   0  0  0  0  0  0  0  0  0  0  0  0
  148.0830  135.6301  154.7928 H   0  0  0  0  0  0  0  0  0  0  0  0
  148.3025  133.9002  154.8590 H   0  0  0  0  0  0  0  0  0  0  0  0
  150.7897  134.3415  157.3929 H   0  0  0  0  0  0  0  0  0  0  0  0
  149.2525  133.6704  156.9921 H   0  0  0  0  0  0  0  0  0  0  0  0
  151.8059  133.0861  155.4154 H   0  0  0  0  0  0  0  0  0  0  0  0
  149.0887  131.7043  155.3047 H   0  0  0  0  0  0  0  0  0  0  0  0
  150.5195  131.2569  154.3793 H   0  0  0  0  0  0  0  0  0  0  0  0
  149.7332  132.8023  154.0868 H   0  0  0  0  0  0  0  0  0  0  0  0
  150.4770  131.3264  157.5321 H   0  0  0  0  0  0  0  0  0  0  0  0
  152.0265  132.1424  157.7032 H   0  0  0  0  0  0  0  0  0  0  0  0
  151.8425  130.8651  156.5176 H   0  0  0  0  0  0  0  0  0  0  0  0
  1  2  1  0  0  0  0
  1 25  1  0  0  0  0
  1 26  1  0  0  0  0
  1 27  1  0  0  0  0
  2 14  2  0  0  0  0
  2  3  1  0  0  0  0
  3  4  2  0  0  0  0
  4  5  1  0  0  0  0
  4 11  1  0  0  0  0
  5 10  1  0  0  0  0
  5  6  1  0  0  0  0
  6  7  1  0  0  0  0
  6 28  1  0  0  0  0
  6 29  1  0  0  0  0
  7  8  1  0  0  0  0
  7 30  1  0  0  0  0
  7 31  1  0  0  0  0
  8  9  1  0  0  0  0
  9 10  1  0  0  0  0
  9 32  1  0  0  0  0
  9 33  1  0  0  0  0
 10 34  1  0  0  0  0
 10 35  1  0  0  0  0
 11 12  1  0  0  0  0
 12 13  2  0  0  0  0
 12 14  1  0  0  0  0
 14 15  1  0  0  0  0
 15 16  1  0  0  0  0
 15 36  1  0  0  0  0
 15 37  1  0  0  0  0
 16 17  1  0  0  0  0
 16 38  1  0  0  0  0
 16 39  1  0  0  0  0
 17 18  2  0  0  0  0
 17 19  1  0  0  0  0
 19 20  1  0  0  0  0
 19 21  1  0  0  0  0
 20 40  1  0  0  0  0
 20 41  1  0  0  0  0
 20 42  1  0  0  0  0
 21 22  1  0  0  0  0
 21 43  1  0  0  0  0
 21 44  1  0  0  0  0
 22 23  1  0  0  0  0
 22 24  1  0  0  0  0
 22 45  1  0  0  0  0
 23 46  1  0  0  0  0
 23 47  1  0  0  0  0
 23 48  1  0  0  0  0
 24 49  1  0  0  0  0
 24 50  1  0  0  0  0
 24 51  1  0  0  0  0
M  CHG  1  11  -1
M  END
> <s_m_source_file>
AV-unprocessed.smi

> <i_m_source_file_index>
824

> <i_lp_mmshare_version>
43012

> <i_f3d_flags>
0

> <s_epik_input>
W0NIMl0xW0NIMl1PW0NIMl1bQ0gyXU4xYyhuYzJbQ0gzXSlbbkhdYyg9TyljMltDSDJdW0NIMl1DKD1PKU4oW0NIM10pW0NIMl1bQ0hdKFtDSDNdKVtDSDNd

> <s_epik_cmdline>
J2VwaWtfcHl0aG9uJywgJy1waCcsICc3LjAnLCAnLXRuJywgJzgnLCAnLW1hJywgJzIwMCcsICctbWV0YWxfYmluZGluZycsICctaW1hZScsICc8aW5maWxlLm1hZT4nLCAnLW9tYWUnLCAnPG91dGZpbGUubWFlPic=

> <r_lp_tautomer_probability>
1

> <r_epik_Ionization_Penalty>
5.09891

> <r_epik_Ionization_Penalty_Charging>
4.43024e-08

> <r_epik_Ionization_Penalty_Neutral>
5.09891

> <r_epik_State_Penalty>
2.55975

> <r_epik_Charging_Adjusted_Penalty>
2.55975

> <i_epik_Tot_Q>
-1

> <i_epik_Tot_abs_Q>
1

> <r_epik_Metal_State_Penalty>
0.115808

> <b_epik_Metal_Only>
0

> <s_lp_Force_Field>
OPLS_2005

> <r_lp_Energy>
31.6324

> <b_lp_Chiralities_Consistent>
1

> <s_lp_Variant>
AV-unprocessed.smi:824-3

> <Gold.Version>
5.8.1

> <Gold.Id.Protein>
6NUR|6NUR_protein|mol2

> <Gold.PLP.Fitness>
47.1030

> <Gold.PLP.PLP>
-45.8063

> <Gold.PLP.part.hbond>
-3.0000

> <Gold.PLP.part.metal>
0.0000

> <Gold.PLP.part.buried>
-1.0317

> <Gold.PLP.part.nonpolar>
-40.5835

> <Gold.PLP.part.repulsive>
0.1538

> <Gold.PLP.ligand.clash>
0.6350

> <Gold.PLP.ligand.torsion>
0.9094

> <Gold.PLP.Chemscore.Hbond>
1.1200

> <Gold.PLP.Chemscore.CHOScore>
0.0000

> <Gold.PLP.Chemscore.Metal>
0.0000

> <Gold.Chemscore.Hbonds>
donor molecule, donor type, donor heavy atom, donor atom, acceptor molecule, acceptor atom, score
      P1  H  7997  8009       L1    13  0.10
      P1  H 10752 10764       L1    18  1.00

> <Gold.PLP.Chemscore.Internal.Correction>
0.3903

> <Gold.Rescore>
     Score         DG    S(hbond)    S(metal)    S(lipo)     H(rot)  DE(clash)    DE(int)     intcor
     13.95     -16.52       0.97        0.00     103.07       1.66       0.30       2.27       ----

> <Gold.Chemscore.Fitness>
13.9475

> <Gold.Chemscore.DG>
-16.5160

> <Gold.Chemscore.ZeroCoef>
-5.4800

> <Gold.Chemscore.Hbond>
0.9686

> <Gold.Chemscore.Metal>
0.0000

> <Gold.Chemscore.Lipo>
103.0726

> <Gold.Chemscore.Internal_Hbond>
0.0000

> <Gold.Chemscore.DEClash>
0.3002

> <Gold.Chemscore.DEInternal>
2.2683

> <Gold.Chemscore.Rot>
1.6635

> <Gold.Chemscore.Internal.Correction>
   9.000000E+99

> <Gold.Chemscore.Hbonds>
donor molecule, donor type, donor heavy atom, donor atom, acceptor molecule, acceptor atom, score
      P1  H 10752 10764       L1    18  0.39

> <Gold.Chemscore.Hbond.Weighted>
-3.2350

> <Gold.Chemscore.Metal.Weighted>
-0.0000

> <Gold.Chemscore.Lipo.Weighted>
-12.0595

> <Gold.Chemscore.Internal_Hbond.Weighted>
0.0000

> <Gold.Chemscore.DEClash.Weighted>
0.3002

> <Gold.Chemscore.DEInternal.Weighted>
2.2683

> <Gold.Chemscore.Rot.Weighted>
4.2585

> <Gold.Chemscore.Internal.Correction.Weighted>
   9.000000E+99

> <Gold.Protein.RotatedTorsions>
[ 6907 6896 6895 6894 ] final -102.80 input  -60.11 | X-H torsion
[ 7974 7965 7964 7962 ] final   30.06 input  175.53 | X-H torsion
[ 8008 7997 7996 7995 ] final  141.43 input   59.86 | X-H torsion
[ 10167 10162 10161 10158 ] final -160.17 input  -65.29 | X-H torsion
[ 10718 10713 10712 10709 ] final -133.58 input   66.30 | X-H torsion
[ 10763 10752 10751 10750 ] final  -28.67 input  -60.55 | X-H torsion
[ 11005 11000 10999 10996 ] final  130.08 input  -57.11 | X-H torsion

> <Gold.Protein.ActiveResidues>
 VAL166  LYS551  ARG553  GLY616  TRP617  ASP618  TYR619  PRO620  LYS621  CYS622 
 ASP623  PHE694  ASN695  SER759  ASP760  ASP761  ALA762  ILE779  LEU786  VAL792 
 PHE793  MET794  SER795  GLU796  ALA797  LYS798  CYS799  TRP800  GLU811  SER814 

> <Gold.Protein.RotatedAtoms>
  150.7212  134.0526  159.3803 H   0  0  0  0  0  0  0  0  0  0  0  0  # atno 6907 bound_to 6896
  151.8503  135.0558  160.0467 H   0  0  0  0  0  0  0  0  0  0  0  0  # atno 6908 bound_to 6896
  152.2795  133.5421  159.5525 H   0  0  0  0  0  0  0  0  0  0  0  0  # atno 6909 bound_to 6896
  146.1635  139.6839  142.9017 H   0  0  0  0  0  0  0  0  0  0  0  0  # atno 7974 bound_to 7965
  156.2965  140.2315  156.4564 H   0  0  0  0  0  0  0  0  0  0  0  0  # atno 8008 bound_to 7997
  154.8057  140.0446  157.1326 H   0  0  0  0  0  0  0  0  0  0  0  0  # atno 8009 bound_to 7997
  154.9482  140.3038  155.5091 H   0  0  0  0  0  0  0  0  0  0  0  0  # atno 8010 bound_to 7997
  139.6559  143.9999  152.2193 H   0  0  0  0  0  0  0  0  0  0  0  0  # atno 10167 bound_to 10162
  156.2464  130.7127  151.1009 H   0  0  0  0  0  0  0  0  0  0  0  0  # atno 10718 bound_to 10713
  153.7521  135.6925  153.4943 H   0  0  0  0  0  0  0  0  0  0  0  0  # atno 10763 bound_to 10752
  153.1996  135.4441  155.0249 H   0  0  0  0  0  0  0  0  0  0  0  0  # atno 10764 bound_to 10752
  154.8184  135.3410  154.7041 H   0  0  0  0  0  0  0  0  0  0  0  0  # atno 10765 bound_to 10752
  139.9651  134.9592  156.9241 H   0  0  0  0  0  0  0  0  0  0  0  0  # atno 11005 bound_to 11000
  145.4528  141.0429  143.2795 LP  0  0  0  0  0  0  0  0  0  0  0  0  # atno 17320 bound_to 7965
  144.8059  139.6052  143.7051 LP  0  0  0  0  0  0  0  0  0  0  0  0  # atno 17321 bound_to 7965
  139.9726  144.6483  150.7975 LP  0  0  0  0  0  0  0  0  0  0  0  0  # atno 17342 bound_to 10162
  140.7559  143.3055  151.2973 LP  0  0  0  0  0  0  0  0  0  0  0  0  # atno 17343 bound_to 10162
  157.7197  131.0689  150.6187 LP  0  0  0  0  0  0  0  0  0  0  0  0  # atno 17370 bound_to 10713
  156.6263  130.4420  149.5803 LP  0  0  0  0  0  0  0  0  0  0  0  0  # atno 17371 bound_to 10713
  140.5414  134.0716  155.7342 LP  0  0  0  0  0  0  0  0  0  0  0  0  # atno 17394 bound_to 11000
  141.1331  133.9269  157.2493 LP  0  0  0  0  0  0  0  0  0  0  0  0  # atno 17395 bound_to 11000

$$$$
