AV-unprocessed.smi:2220|AV-procd|sdf|8978|dock3
  -GOLD-   2272012193D 1   1.00000     0.00000
 Structure written by MMmdl.
 39 40  0  0  0  0  0  0  0  0  2 V2000
  149.2439  139.7634  156.7893 C   0  0  0  0  0  0  0  0  0  0  0  0
  149.4257  138.5211  156.0337 N   0  0  0  0  0  0  0  0  0  0  0  0
  149.1522  138.4421  154.7252 C   0  0  0  0  0  0  0  0  0  0  0  0
  149.4212  137.1904  154.3474 N   0  3  0  0  0  0  0  0  0  0  0  0
  149.8685  136.4641  155.4166 C   0  0  0  0  0  0  0  0  0  0  0  0
  149.8767  137.3064  156.5012 C   0  0  0  0  0  0  0  0  0  0  0  0
  150.2787  137.0545  157.9194 C   0  0  0  0  0  0  0  0  0  0  0  0
  151.6227  137.7225  158.2545 C   0  0  0  0  0  0  0  0  0  0  0  0
  151.4381  139.0915  158.7206 N   0  0  0  0  0  0  0  0  0  0  0  0
  152.4026  140.0237  158.7716 C   0  0  0  0  0  0  0  0  0  0  0  0
  153.5647  139.8091  158.4253 O   0  0  0  0  0  0  0  0  0  0  0  0
  151.9923  141.4064  159.2952 C   0  0  0  0  0  0  0  0  0  0  0  0
  151.0515  142.1163  158.2993 C   0  0  0  0  0  0  0  0  0  0  0  0
  150.6335  143.5007  158.8202 C   0  0  0  0  0  0  0  0  0  0  0  0
  151.8590  144.3738  159.1394 C   0  0  0  0  0  0  0  0  0  0  0  0
  152.5021  144.6648  158.0075 F   0  0  0  0  0  0  0  0  0  0  0  0
  151.4494  145.5163  159.6902 F   0  0  0  0  0  0  0  0  0  0  0  0
  152.8237  143.6665  160.1068 C   0  0  0  0  0  0  0  0  0  0  0  0
  153.2315  142.2807  159.5808 C   0  0  0  0  0  0  0  0  0  0  0  0
  148.7976  140.5290  156.1533 H   0  0  0  0  0  0  0  0  0  0  0  0
  150.2134  140.1115  157.1456 H   0  0  0  0  0  0  0  0  0  0  0  0
  148.5860  139.5755  157.6379 H   0  0  0  0  0  0  0  0  0  0  0  0
  148.7859  139.2329  154.0948 H   0  0  0  0  0  0  0  0  0  0  0  0
  150.1459  135.4234  155.3307 H   0  0  0  0  0  0  0  0  0  0  0  0
  149.4970  137.4137  158.5894 H   0  0  0  0  0  0  0  0  0  0  0  0
  150.3442  135.9765  158.0721 H   0  0  0  0  0  0  0  0  0  0  0  0
  152.1618  137.1425  159.0059 H   0  0  0  0  0  0  0  0  0  0  0  0
  152.2605  137.7522  157.3713 H   0  0  0  0  0  0  0  0  0  0  0  0
  150.5099  139.3520  159.0215 H   0  0  0  0  0  0  0  0  0  0  0  0
  151.4520  141.2696  160.2340 H   0  0  0  0  0  0  0  0  0  0  0  0
  151.5429  142.2302  157.3319 H   0  0  0  0  0  0  0  0  0  0  0  0
  150.1620  141.5100  158.1234 H   0  0  0  0  0  0  0  0  0  0  0  0
  149.9981  143.9990  158.0872 H   0  0  0  0  0  0  0  0  0  0  0  0
  150.0289  143.3786  159.7200 H   0  0  0  0  0  0  0  0  0  0  0  0
  153.7106  144.2802  160.2680 H   0  0  0  0  0  0  0  0  0  0  0  0
  152.3453  143.5545  161.0806 H   0  0  0  0  0  0  0  0  0  0  0  0
  153.8789  141.7910  160.3095 H   0  0  0  0  0  0  0  0  0  0  0  0
  153.8253  142.4020  158.6736 H   0  0  0  0  0  0  0  0  0  0  0  0
  149.3102  136.8340  153.4065 H   0  0  0  0  0  0  0  0  0  0  0  0
  1  2  1  0  0  0  0
  1 20  1  0  0  0  0
  1 21  1  0  0  0  0
  1 22  1  0  0  0  0
  2  6  1  0  0  0  0
  2  3  1  0  0  0  0
  3  4  2  0  0  0  0
  3 23  1  0  0  0  0
  4  5  1  0  0  0  0
  4 39  1  0  0  0  0
  5  6  2  0  0  0  0
  5 24  1  0  0  0  0
  6  7  1  0  0  0  0
  7  8  1  0  0  0  0
  7 25  1  0  0  0  0
  7 26  1  0  0  0  0
  8  9  1  0  0  0  0
  8 27  1  0  0  0  0
  8 28  1  0  0  0  0
  9 10  1  0  0  0  0
  9 29  1  0  0  0  0
 10 11  2  0  0  0  0
 10 12  1  0  0  0  0
 12 19  1  0  0  0  0
 12 13  1  0  0  0  0
 12 30  1  0  0  0  0
 13 14  1  0  0  0  0
 13 31  1  0  0  0  0
 13 32  1  0  0  0  0
 14 15  1  0  0  0  0
 14 33  1  0  0  0  0
 14 34  1  0  0  0  0
 15 16  1  0  0  0  0
 15 17  1  0  0  0  0
 15 18  1  0  0  0  0
 18 19  1  0  0  0  0
 18 35  1  0  0  0  0
 18 36  1  0  0  0  0
 19 37  1  0  0  0  0
 19 38  1  0  0  0  0
M  CHG  1   4   1
M  END
> <s_m_source_file>
AV-unprocessed.smi

> <i_m_source_file_index>
2220

> <i_lp_mmshare_version>
43012

> <i_f3d_flags>
0

> <s_epik_input>
W0NIM11uMVtjSF1uW2NIXWMxW0NIMl1bQ0gyXVtOSF1DKD1PKVtDSF0oW0NIMl1bQ0gyXTIpW0NIMl1bQ0gyXUMyKEYpRg==

> <s_epik_cmdline>
J2VwaWtfcHl0aG9uJywgJy1waCcsICc3LjAnLCAnLXRuJywgJzgnLCAnLW1hJywgJzIwMCcsICctbWV0YWxfYmluZGluZycsICctaW1hZScsICc8aW5maWxlLm1hZT4nLCAnLW9tYWUnLCAnPG91dGZpbGUubWFlPic=

> <r_lp_tautomer_probability>
1

> <r_epik_Ionization_Penalty>
0.15432

> <r_epik_Ionization_Penalty_Charging>
0

> <r_epik_Ionization_Penalty_Neutral>
0.15432

> <r_epik_State_Penalty>
0.143614

> <r_epik_Charging_Adjusted_Penalty>
0.143614

> <i_epik_Tot_Q>
1

> <i_epik_Tot_abs_Q>
1

> <r_epik_Metal_State_Penalty>
0.465047

> <b_epik_Metal_Only>
0

> <s_lp_Force_Field>
OPLS_2005

> <r_lp_Energy>
11.3937

> <b_lp_Chiralities_Consistent>
1

> <s_lp_Variant>
AV-unprocessed.smi:2220-1

> <Gold.Version>
5.8.1

> <Gold.Id.Protein>
6NUR|6NUR_protein|mol2

> <Gold.PLP.Fitness>
47.8518

> <Gold.PLP.PLP>
-38.2638

> <Gold.PLP.part.hbond>
-2.5663

> <Gold.PLP.part.metal>
0.0000

> <Gold.PLP.part.buried>
-4.9920

> <Gold.PLP.part.nonpolar>
-30.6770

> <Gold.PLP.part.repulsive>
0.1443

> <Gold.PLP.ligand.clash>
0.0221

> <Gold.PLP.ligand.torsion>
0.6351

> <Gold.PLP.Chemscore.Hbond>
2.8880

> <Gold.PLP.Chemscore.CHOScore>
0.7343

> <Gold.PLP.Chemscore.Metal>
0.0000

> <Gold.Chemscore.Hbonds>
donor molecule, donor type, donor heavy atom, donor atom, acceptor molecule, acceptor atom, score
      L1  H     4    39       P1  7948  2.00
      P1  H  7997  8008       L1    11  1.00

> <Gold.PLP.Chemscore.Internal.Correction>
0.0132

> <Gold.Rescore>
     Score         DG    S(hbond)    S(metal)    S(lipo)     H(rot)  DE(clash)    DE(int)     intcor
     15.66     -16.14       1.98        0.00      75.45       1.87       0.00       0.48       ----

> <Gold.Chemscore.Fitness>
15.6643

> <Gold.Chemscore.DG>
-16.1419

> <Gold.Chemscore.ZeroCoef>
-5.4800

> <Gold.Chemscore.Hbond>
1.9803

> <Gold.Chemscore.Metal>
0.0000

> <Gold.Chemscore.Lipo>
75.4501

> <Gold.Chemscore.Internal_Hbond>
0.0000

> <Gold.Chemscore.DEClash>
0.0000

> <Gold.Chemscore.DEInternal>
0.4776

> <Gold.Chemscore.Rot>
1.8672

> <Gold.Chemscore.Internal.Correction>
   9.000000E+99

> <Gold.Chemscore.Hbonds>
donor molecule, donor type, donor heavy atom, donor atom, acceptor molecule, acceptor atom, score
      L1  H     4    39       P1  7948  0.96
      P1  H  7997  8008       L1    11  0.99

> <Gold.Chemscore.Hbond.Weighted>
-6.6142

> <Gold.Chemscore.Metal.Weighted>
-0.0000

> <Gold.Chemscore.Lipo.Weighted>
-8.8277

> <Gold.Chemscore.Internal_Hbond.Weighted>
0.0000

> <Gold.Chemscore.DEClash.Weighted>
0.0000

> <Gold.Chemscore.DEInternal.Weighted>
0.4776

> <Gold.Chemscore.Rot.Weighted>
4.7800

> <Gold.Chemscore.Internal.Correction.Weighted>
   9.000000E+99

> <Gold.Protein.RotatedTorsions>
[ 6907 6896 6895 6894 ] final   62.28 input  -60.11 | X-H torsion
[ 7974 7965 7964 7962 ] final  -93.10 input  175.53 | X-H torsion
[ 8008 7997 7996 7995 ] final  -92.24 input   59.86 | X-H torsion
[ 10167 10162 10161 10158 ] final  131.54 input  -65.29 | X-H torsion
[ 10718 10713 10712 10709 ] final   80.41 input   66.30 | X-H torsion
[ 10763 10752 10751 10750 ] final  -36.44 input  -60.55 | X-H torsion
[ 11005 11000 10999 10996 ] final   16.55 input  -57.11 | X-H torsion

> <Gold.Protein.ActiveResidues>
 VAL166  LYS551  ARG553  GLY616  TRP617  ASP618  TYR619  PRO620  LYS621  CYS622 
 ASP623  PHE694  ASN695  SER759  ASP760  ASP761  ALA762  ILE779  LEU786  VAL792 
 PHE793  MET794  SER795  GLU796  ALA797  LYS798  CYS799  TRP800  GLU811  SER814 

> <Gold.Protein.RotatedAtoms>
  152.4159  134.6043  160.0008 H   0  0  0  0  0  0  0  0  0  0  0  0  # atno 6907 bound_to 6896
  151.6207  133.3334  159.3095 H   0  0  0  0  0  0  0  0  0  0  0  0  # atno 6908 bound_to 6896
  150.8047  134.7204  159.6699 H   0  0  0  0  0  0  0  0  0  0  0  0  # atno 6909 bound_to 6896
  145.3910  140.9528  143.2340 H   0  0  0  0  0  0  0  0  0  0  0  0  # atno 7974 bound_to 7965
  154.7207  140.0511  157.0636 H   0  0  0  0  0  0  0  0  0  0  0  0  # atno 8008 bound_to 7997
  155.0431  140.3171  155.4698 H   0  0  0  0  0  0  0  0  0  0  0  0  # atno 8009 bound_to 7997
  156.2815  140.2129  156.5556 H   0  0  0  0  0  0  0  0  0  0  0  0  # atno 8010 bound_to 7997
  139.5379  144.6701  151.4722 H   0  0  0  0  0  0  0  0  0  0  0  0  # atno 10167 bound_to 10162
  157.6805  130.9958  150.2076 H   0  0  0  0  0  0  0  0  0  0  0  0  # atno 10718 bound_to 10713
  153.8798  135.6823  153.4768 H   0  0  0  0  0  0  0  0  0  0  0  0  # atno 10763 bound_to 10752
  153.1240  135.4727  154.9240 H   0  0  0  0  0  0  0  0  0  0  0  0  # atno 10764 bound_to 10752
  154.7674  135.3228  154.8210 H   0  0  0  0  0  0  0  0  0  0  0  0  # atno 10765 bound_to 10752
  140.4459  134.1274  155.7696 H   0  0  0  0  0  0  0  0  0  0  0  0  # atno 11005 bound_to 11000
  144.8440  139.5426  143.6887 LP  0  0  0  0  0  0  0  0  0  0  0  0  # atno 17320 bound_to 7965
  146.2797  139.6846  142.9237 LP  0  0  0  0  0  0  0  0  0  0  0  0  # atno 17321 bound_to 7965
  140.6595  143.8528  150.6872 LP  0  0  0  0  0  0  0  0  0  0  0  0  # atno 17342 bound_to 10162
  140.1918  143.4030  152.1857 LP  0  0  0  0  0  0  0  0  0  0  0  0  # atno 17343 bound_to 10162
  156.2753  130.3727  149.7989 LP  0  0  0  0  0  0  0  0  0  0  0  0  # atno 17370 bound_to 10713
  156.5694  130.8418  151.3352 LP  0  0  0  0  0  0  0  0  0  0  0  0  # atno 17371 bound_to 10713
  141.1685  133.8655  157.1642 LP  0  0  0  0  0  0  0  0  0  0  0  0  # atno 17394 bound_to 11000
  140.0039  135.0016  157.0249 LP  0  0  0  0  0  0  0  0  0  0  0  0  # atno 17395 bound_to 11000

$$$$
