AV-unprocessed.smi:1740|AV-procd|sdf|7011|dock5
  -GOLD-   22720 8223D 1   1.00000     0.00000
 Structure written by MMmdl.
 53 55  0  0  0  0  0  0  0  0  3 V2000
  149.0227  134.1993  153.7677 N   0  0  0  0  0  0  0  0  0  0  0  0
  148.8821  134.5504  155.0475 C   0  0  0  0  0  0  0  0  0  0  0  0
  149.2103  133.8068  155.9704 O   0  0  0  0  0  0  0  0  0  0  0  0
  148.3044  135.9428  155.3230 C   0  0  0  0  0  0  0  0  0  0  0  0
  149.1520  137.0386  154.7863 N   0  3  2  0  0  0  0  0  0  0  0  0
  150.5363  137.0271  155.3298 C   0  0  0  0  0  0  0  0  0  0  0  0
  151.4166  138.0742  154.6245 C   0  0  0  0  0  0  0  0  0  0  0  0
  150.8102  139.4869  154.6944 C   0  0  2  0  0  0  0  0  0  0  0  0
  150.9302  140.0385  156.0442 N   0  0  0  0  0  0  0  0  0  0  0  0
  152.0020  139.8974  156.8380 C   0  0  0  0  0  0  0  0  0  0  0  0
  153.0216  139.2934  156.5056 O   0  0  0  0  0  0  0  0  0  0  0  0
  151.8288  140.5142  158.0187 N   0  0  0  0  0  0  0  0  0  0  0  0
  152.7581  140.5790  159.0947 C   0  0  0  0  0  0  0  0  0  0  0  0
  153.5425  139.4484  159.4389 C   0  0  0  0  0  0  0  0  0  0  0  0
  154.4035  139.5021  160.5507 C   0  0  0  0  0  0  0  0  0  0  0  0
  154.4554  140.6814  161.3131 C   0  0  0  0  0  0  0  0  0  0  0  0
  153.6888  141.7361  160.9666 N   0  3  0  0  0  0  0  0  0  0  0  0
  152.8520  141.7521  159.8987 C   0  0  0  0  0  0  0  0  0  0  0  0
  152.1243  142.9381  159.6481 N   0  0  0  0  0  0  0  0  0  0  0  0
  152.0212  143.9704  160.6739 C   0  0  0  0  0  0  0  0  0  0  0  0
  151.5237  145.2127  159.9400 C   0  0  0  0  0  0  0  0  0  0  0  0
  152.1976  145.0806  158.5779 C   0  0  0  0  0  0  0  0  0  0  0  0
  152.2287  143.5684  158.3353 C   0  0  0  0  0  0  0  0  0  0  0  0
  149.3439  139.4579  154.2189 C   0  0  0  0  0  0  0  0  0  0  0  0
  148.5214  138.3740  154.9379 C   0  0  0  0  0  0  0  0  0  0  0  0
  149.4046  133.2927  153.5377 H   0  0  0  0  0  0  0  0  0  0  0  0
  148.7548  134.8363  153.0313 H   0  0  0  0  0  0  0  0  0  0  0  0
  147.3229  135.9706  154.8478 H   0  0  0  0  0  0  0  0  0  0  0  0
  148.1394  136.0854  156.3923 H   0  0  0  0  0  0  0  0  0  0  0  0
  150.5095  137.2162  156.4039 H   0  0  0  0  0  0  0  0  0  0  0  0
  150.9838  136.0418  155.1976 H   0  0  0  0  0  0  0  0  0  0  0  0
  152.4207  138.0704  155.0504 H   0  0  0  0  0  0  0  0  0  0  0  0
  151.5324  137.7885  153.5780 H   0  0  0  0  0  0  0  0  0  0  0  0
  151.3827  140.1248  154.0183 H   0  0  0  0  0  0  0  0  0  0  0  0
  150.1354  140.5473  156.4031 H   0  0  0  0  0  0  0  0  0  0  0  0
  150.9935  141.0718  158.1223 H   0  0  0  0  0  0  0  0  0  0  0  0
  153.4785  138.5297  158.8746 H   0  0  0  0  0  0  0  0  0  0  0  0
  155.0048  138.6462  160.8211 H   0  0  0  0  0  0  0  0  0  0  0  0
  155.0793  140.8123  162.1855 H   0  0  0  0  0  0  0  0  0  0  0  0
  151.3409  143.6728  161.4726 H   0  0  0  0  0  0  0  0  0  0  0  0
  152.9993  144.1741  161.1117 H   0  0  0  0  0  0  0  0  0  0  0  0
  150.4395  145.1708  159.8250 H   0  0  0  0  0  0  0  0  0  0  0  0
  151.7761  146.1402  160.4547 H   0  0  0  0  0  0  0  0  0  0  0  0
  151.6785  145.6266  157.7896 H   0  0  0  0  0  0  0  0  0  0  0  0
  153.2173  145.4639  158.6365 H   0  0  0  0  0  0  0  0  0  0  0  0
  153.1345  143.2718  157.8045 H   0  0  0  0  0  0  0  0  0  0  0  0
  151.3687  143.2689  157.7357 H   0  0  0  0  0  0  0  0  0  0  0  0
  148.8766  140.4341  154.3530 H   0  0  0  0  0  0  0  0  0  0  0  0
  149.3231  139.2618  153.1461 H   0  0  0  0  0  0  0  0  0  0  0  0
  147.5150  138.3567  154.5180 H   0  0  0  0  0  0  0  0  0  0  0  0
  148.4177  138.6125  155.9977 H   0  0  0  0  0  0  0  0  0  0  0  0
  149.2243  136.8702  153.7925 H   0  0  0  0  0  0  0  0  0  0  0  0
  153.7500  142.5775  161.5400 H   0  0  0  0  0  0  0  0  0  0  0  0
  1  2  1  0  0  0  0
  1 26  1  0  0  0  0
  1 27  1  0  0  0  0
  2  3  2  0  0  0  0
  2  4  1  0  0  0  0
  4  5  1  0  0  0  0
  4 28  1  0  0  0  0
  4 29  1  0  0  0  0
  5 25  1  0  0  0  0
  5  6  1  0  0  0  0
  5 52  1  0  0  0  0
  6  7  1  0  0  0  0
  6 30  1  0  0  0  0
  6 31  1  0  0  0  0
  7  8  1  0  0  0  0
  7 32  1  0  0  0  0
  7 33  1  0  0  0  0
  8  9  1  0  0  0  0
  8 24  1  0  0  0  0
  8 34  1  0  0  0  0
  9 10  1  0  0  0  0
  9 35  1  0  0  0  0
 10 11  2  0  0  0  0
 10 12  1  0  0  0  0
 12 13  1  0  0  0  0
 12 36  1  0  0  0  0
 13 18  1  0  0  0  0
 13 14  2  0  0  0  0
 14 15  1  0  0  0  0
 14 37  1  0  0  0  0
 15 16  2  0  0  0  0
 15 38  1  0  0  0  0
 16 17  1  0  0  0  0
 16 39  1  0  0  0  0
 17 18  2  0  0  0  0
 17 53  1  0  0  0  0
 18 19  1  0  0  0  0
 19 23  1  0  0  0  0
 19 20  1  0  0  0  0
 20 21  1  0  0  0  0
 20 40  1  0  0  0  0
 20 41  1  0  0  0  0
 21 22  1  0  0  0  0
 21 42  1  0  0  0  0
 21 43  1  0  0  0  0
 22 23  1  0  0  0  0
 22 44  1  0  0  0  0
 22 45  1  0  0  0  0
 23 46  1  0  0  0  0
 23 47  1  0  0  0  0
 24 25  1  0  0  0  0
 24 48  1  0  0  0  0
 24 49  1  0  0  0  0
 25 50  1  0  0  0  0
 25 51  1  0  0  0  0
M  CHG  1   5   1
M  CHG  1  17   1
M  END
> <s_m_source_file>
AV-unprocessed.smi

> <i_m_source_file_index>
1740

> <i_lp_mmshare_version>
43012

> <i_f3d_flags>
0

> <s_epik_input>
W05IMl1DKD1PKVtDSDJdTjFbQ0gyXVtDSDJdW0NIXShbQ0gyXVtDSDJdMSlbTkhdQyg9TylbTkhdYzJbY0hdW2NIXVtjSF1uYzJOM1tDSDJdW0NIMl1bQ0gyXVtDSDJdMw==

> <s_epik_cmdline>
J2VwaWtfcHl0aG9uJywgJy1waCcsICc3LjAnLCAnLXRuJywgJzgnLCAnLW1hJywgJzIwMCcsICctbWV0YWxfYmluZGluZycsICctaW1hZScsICc8aW5maWxlLm1hZT4nLCAnLW9tYWUnLCAnPG91dGZpbGUubWFlPic=

> <r_lp_tautomer_probability>
0.999994

> <r_epik_Ionization_Penalty>
2.11361

> <r_epik_Ionization_Penalty_Charging>
2.11355

> <r_epik_Ionization_Penalty_Neutral>
5.98217e-05

> <r_epik_State_Penalty>
2.13444

> <r_epik_Charging_Adjusted_Penalty>
4.24799

> <i_epik_Tot_Q>
2

> <i_epik_Tot_abs_Q>
2

> <r_epik_Metal_State_Penalty>
2.23528

> <b_epik_Metal_Only>
0

> <s_lp_Force_Field>
OPLS_2005

> <r_lp_Energy>
48.4513

> <b_lp_Chiralities_Consistent>
1

> <s_lp_Variant>
AV-unprocessed.smi:1740-6

> <Gold.Version>
5.8.1

> <Gold.Id.Protein>
6NUR|6NUR_protein|mol2

> <Gold.PLP.Fitness>
57.3251

> <Gold.PLP.PLP>
-46.4369

> <Gold.PLP.part.hbond>
-3.0000

> <Gold.PLP.part.metal>
0.0000

> <Gold.PLP.part.buried>
-5.3493

> <Gold.PLP.part.nonpolar>
-38.5136

> <Gold.PLP.part.repulsive>
0.2161

> <Gold.PLP.ligand.clash>
0.0000

> <Gold.PLP.ligand.torsion>
0.7579

> <Gold.PLP.Chemscore.Hbond>
4.0000

> <Gold.PLP.Chemscore.CHOScore>
0.0000

> <Gold.PLP.Chemscore.Metal>
0.0000

> <Gold.Chemscore.Hbonds>
donor molecule, donor type, donor heavy atom, donor atom, acceptor molecule, acceptor atom, score
      L1  H     1    27       P1  7948  1.00
      L1  H     5    52       P1  7948  1.98
      P1  H  7997  8009       L1    11  1.00

> <Gold.PLP.Chemscore.Internal.Correction>
0.4039

> <Gold.Rescore>
     Score         DG    S(hbond)    S(metal)    S(lipo)     H(rot)  DE(clash)    DE(int)     intcor
     18.23     -21.69       2.69        0.00     110.43       2.22       0.16       3.30       ----

> <Gold.Chemscore.Fitness>
18.2256

> <Gold.Chemscore.DG>
-21.6863

> <Gold.Chemscore.ZeroCoef>
-5.4800

> <Gold.Chemscore.Hbond>
2.6860

> <Gold.Chemscore.Metal>
0.0000

> <Gold.Chemscore.Lipo>
110.4273

> <Gold.Chemscore.Internal_Hbond>
0.0000

> <Gold.Chemscore.DEClash>
0.1599

> <Gold.Chemscore.DEInternal>
3.3008

> <Gold.Chemscore.Rot>
2.2207

> <Gold.Chemscore.Internal.Correction>
   9.000000E+99

> <Gold.Chemscore.Hbonds>
donor molecule, donor type, donor heavy atom, donor atom, acceptor molecule, acceptor atom, score
      L1  H     1    27       P1  7948  0.25
      L1  H     5    52       P1  7948  0.91
      P1  H  7997  8009       L1    11  0.90

> <Gold.Chemscore.Hbond.Weighted>
-8.9711

> <Gold.Chemscore.Metal.Weighted>
-0.0000

> <Gold.Chemscore.Lipo.Weighted>
-12.9200

> <Gold.Chemscore.Internal_Hbond.Weighted>
0.0000

> <Gold.Chemscore.DEClash.Weighted>
0.1599

> <Gold.Chemscore.DEInternal.Weighted>
3.3008

> <Gold.Chemscore.Rot.Weighted>
5.6849

> <Gold.Chemscore.Internal.Correction.Weighted>
   9.000000E+99

> <Gold.Protein.RotatedTorsions>
[ 6907 6896 6895 6894 ] final   -8.28 input  -60.11 | X-H torsion
[ 7974 7965 7964 7962 ] final -115.87 input  175.53 | X-H torsion
[ 8008 7997 7996 7995 ] final -170.80 input   59.86 | X-H torsion
[ 10167 10162 10161 10158 ] final  -57.10 input  -65.29 | X-H torsion
[ 10718 10713 10712 10709 ] final  -46.33 input   66.30 | X-H torsion
[ 10763 10752 10751 10750 ] final  132.89 input  -60.55 | X-H torsion
[ 11005 11000 10999 10996 ] final   13.84 input  -57.11 | X-H torsion

> <Gold.Protein.ActiveResidues>
 VAL166  LYS551  ARG553  GLY616  TRP617  ASP618  TYR619  PRO620  LYS621  CYS622 
 ASP623  PHE694  ASN695  SER759  ASP760  ASP761  ALA762  ILE779  LEU786  VAL792 
 PHE793  MET794  SER795  GLU796  ALA797  LYS798  CYS799  TRP800  GLU811  SER814 

> <Gold.Protein.RotatedAtoms>
  151.4362  135.1015  159.9656 H   0  0  0  0  0  0  0  0  0  0  0  0  # atno 6907 bound_to 6896
  152.4939  133.8571  159.7242 H   0  0  0  0  0  0  0  0  0  0  0  0  # atno 6908 bound_to 6896
  150.9120  133.6927  159.2880 H   0  0  0  0  0  0  0  0  0  0  0  0  # atno 6909 bound_to 6896
  145.1034  140.8566  143.3913 H   0  0  0  0  0  0  0  0  0  0  0  0  # atno 7974 bound_to 7965
  155.9232  140.1078  157.1190 H   0  0  0  0  0  0  0  0  0  0  0  0  # atno 8008 bound_to 7997
  154.4058  140.1252  156.4772 H   0  0  0  0  0  0  0  0  0  0  0  0  # atno 8009 bound_to 7997
  155.7170  140.3470  155.5001 H   0  0  0  0  0  0  0  0  0  0  0  0  # atno 8010 bound_to 7997
  140.6278  143.2446  151.5319 H   0  0  0  0  0  0  0  0  0  0  0  0  # atno 10167 bound_to 10162
  156.2194  130.4165  149.9013 H   0  0  0  0  0  0  0  0  0  0  0  0  # atno 10718 bound_to 10713
  153.7981  135.3146  155.3387 H   0  0  0  0  0  0  0  0  0  0  0  0  # atno 10763 bound_to 10752
  154.8100  135.4673  154.0494 H   0  0  0  0  0  0  0  0  0  0  0  0  # atno 10764 bound_to 10752
  153.1833  135.6897  153.8536 H   0  0  0  0  0  0  0  0  0  0  0  0  # atno 10765 bound_to 10752
  140.4762  134.0981  155.7742 H   0  0  0  0  0  0  0  0  0  0  0  0  # atno 11005 bound_to 11000
  145.0930  139.2877  143.5725 LP  0  0  0  0  0  0  0  0  0  0  0  0  # atno 17320 bound_to 7965
  146.3529  140.0473  142.8638 LP  0  0  0  0  0  0  0  0  0  0  0  0  # atno 17321 bound_to 7965
  139.5496  144.2430  152.1506 LP  0  0  0  0  0  0  0  0  0  0  0  0  # atno 17342 bound_to 10162
  140.1666  144.4975  150.6602 LP  0  0  0  0  0  0  0  0  0  0  0  0  # atno 17343 bound_to 10162
  156.6664  130.8803  151.3555 LP  0  0  0  0  0  0  0  0  0  0  0  0  # atno 17370 bound_to 10713
  157.7079  130.9407  150.0993 LP  0  0  0  0  0  0  0  0  0  0  0  0  # atno 17371 bound_to 10713
  141.1553  133.8893  157.1992 LP  0  0  0  0  0  0  0  0  0  0  0  0  # atno 17394 bound_to 11000
  139.9855  135.0083  156.9851 LP  0  0  0  0  0  0  0  0  0  0  0  0  # atno 17395 bound_to 11000

$$$$
