AV-unprocessed.smi:1304|AV-procd|sdf|5432|dock6
  -GOLD-   22720 4593D 1   1.00000     0.00000
 Structure written by MMmdl.
 48 49  0  0  0  0  0  0  0  0  2 V2000
  146.8182  138.7112  155.5027 C   0  0  0  0  0  0  0  0  0  0  0  0
  146.7068  137.8759  154.2147 C   0  0  0  0  0  0  0  0  0  0  0  0
  146.8665  136.3340  154.3923 C   0  0  2  0  0  0  0  0  0  0  0  0
  145.7592  135.8689  155.3751 C   0  0  0  0  0  0  0  0  0  0  0  0
  148.2609  136.0091  155.0164 C   0  0  0  0  0  0  0  0  0  0  0  0
  149.2938  136.9867  154.6771 N   0  0  0  0  0  0  0  0  0  0  0  0
  150.6141  136.8240  154.8535 C   0  0  0  0  0  0  0  0  0  0  0  0
  151.1095  135.8267  155.3787 O   0  0  0  0  0  0  0  0  0  0  0  0
  151.5098  137.9659  154.3568 C   0  0  0  0  0  0  0  0  0  0  0  0
  151.1304  139.2661  154.9341 N   0  0  0  0  0  0  0  0  0  0  0  0
  150.0049  139.9125  154.3850 C   0  0  0  0  0  0  0  0  0  0  0  0
  149.5732  141.0978  154.8440 C   0  0  0  0  0  0  0  0  0  0  0  0
  150.2953  141.7128  155.9323 C   0  0  0  0  0  0  0  0  0  0  0  0
  151.3724  141.1027  156.4659 C   0  0  0  0  0  0  0  0  0  0  0  0
  151.8477  139.8067  155.9680 C   0  0  0  0  0  0  0  0  0  0  0  0
  152.8287  139.2401  156.4516 O   0  0  0  0  0  0  0  0  0  0  0  0
  146.7086  135.6483  153.0577 N   0  3  0  0  0  0  0  0  0  0  0  0
  146.7511  134.1583  153.0837 C   0  0  0  0  0  0  0  0  0  0  0  0
  146.7980  133.5959  151.6540 C   0  0  0  0  0  0  0  0  0  0  0  0
  145.6636  134.0486  150.9284 O   0  0  0  0  0  0  0  0  0  0  0  0
  145.6406  135.4649  150.8183 C   0  0  0  0  0  0  0  0  0  0  0  0
  145.5619  136.0974  152.2183 C   0  0  0  0  0  0  0  0  0  0  0  0
  146.7151  139.7726  155.2757 H   0  0  0  0  0  0  0  0  0  0  0  0
  147.7835  138.5791  155.9908 H   0  0  0  0  0  0  0  0  0  0  0  0
  146.0388  138.4582  156.2212 H   0  0  0  0  0  0  0  0  0  0  0  0
  145.7620  138.1079  153.7238 H   0  0  0  0  0  0  0  0  0  0  0  0
  147.4672  138.2456  153.5269 H   0  0  0  0  0  0  0  0  0  0  0  0
  145.7100  136.5069  156.2586 H   0  0  0  0  0  0  0  0  0  0  0  0
  145.9350  134.8571  155.7406 H   0  0  0  0  0  0  0  0  0  0  0  0
  144.7718  135.8857  154.9133 H   0  0  0  0  0  0  0  0  0  0  0  0
  148.1957  135.9961  156.1038 H   0  0  0  0  0  0  0  0  0  0  0  0
  148.5994  135.0136  154.7286 H   0  0  0  0  0  0  0  0  0  0  0  0
  148.9811  137.8441  154.2444 H   0  0  0  0  0  0  0  0  0  0  0  0
  152.5553  137.7504  154.5865 H   0  0  0  0  0  0  0  0  0  0  0  0
  151.4543  137.9910  153.2678 H   0  0  0  0  0  0  0  0  0  0  0  0
  149.5162  139.3845  153.5791 H   0  0  0  0  0  0  0  0  0  0  0  0
  148.7064  141.5770  154.4129 H   0  0  0  0  0  0  0  0  0  0  0  0
  149.9699  142.6664  156.3212 H   0  0  0  0  0  0  0  0  0  0  0  0
  151.8999  141.5780  157.2801 H   0  0  0  0  0  0  0  0  0  0  0  0
  147.6238  133.7916  153.6204 H   0  0  0  0  0  0  0  0  0  0  0  0
  145.8712  133.7613  153.5903 H   0  0  0  0  0  0  0  0  0  0  0  0
  147.7166  133.8934  151.1461 H   0  0  0  0  0  0  0  0  0  0  0  0
  146.7863  132.5061  151.6798 H   0  0  0  0  0  0  0  0  0  0  0  0
  146.5247  135.8150  150.2829 H   0  0  0  0  0  0  0  0  0  0  0  0
  144.7738  135.7573  150.2252 H   0  0  0  0  0  0  0  0  0  0  0  0
  144.6181  135.8239  152.6904 H   0  0  0  0  0  0  0  0  0  0  0  0
  145.5558  137.1781  152.0880 H   0  0  0  0  0  0  0  0  0  0  0  0
  147.5301  135.9253  152.5392 H   0  0  0  0  0  0  0  0  0  0  0  0
  1  2  1  0  0  0  0
  1 23  1  0  0  0  0
  1 24  1  0  0  0  0
  1 25  1  0  0  0  0
  2  3  1  0  0  0  0
  2 26  1  0  0  0  0
  2 27  1  0  0  0  0
  3  4  1  0  0  0  0
  3  5  1  0  0  0  0
  3 17  1  0  0  0  0
  4 28  1  0  0  0  0
  4 29  1  0  0  0  0
  4 30  1  0  0  0  0
  5  6  1  0  0  0  0
  5 31  1  0  0  0  0
  5 32  1  0  0  0  0
  6  7  1  0  0  0  0
  6 33  1  0  0  0  0
  7  8  2  0  0  0  0
  7  9  1  0  0  0  0
  9 10  1  0  0  0  0
  9 34  1  0  0  0  0
  9 35  1  0  0  0  0
 10 15  1  0  0  0  0
 10 11  1  0  0  0  0
 11 12  2  0  0  0  0
 11 36  1  0  0  0  0
 12 13  1  0  0  0  0
 12 37  1  0  0  0  0
 13 14  2  0  0  0  0
 13 38  1  0  0  0  0
 14 15  1  0  0  0  0
 14 39  1  0  0  0  0
 15 16  2  0  0  0  0
 17 22  1  0  0  0  0
 17 18  1  0  0  0  0
 17 48  1  0  0  0  0
 18 19  1  0  0  0  0
 18 40  1  0  0  0  0
 18 41  1  0  0  0  0
 19 20  1  0  0  0  0
 19 42  1  0  0  0  0
 19 43  1  0  0  0  0
 20 21  1  0  0  0  0
 21 22  1  0  0  0  0
 21 44  1  0  0  0  0
 21 45  1  0  0  0  0
 22 46  1  0  0  0  0
 22 47  1  0  0  0  0
M  CHG  1  17   1
M  END
> <s_m_source_file>
AV-unprocessed.smi

> <i_m_source_file_index>
1304

> <i_lp_mmshare_version>
43012

> <i_f3d_flags>
0

> <s_epik_input>
W0NIMl0xW0NIMl1PW0NIMl1bQ0gyXU4xW0NAQF0oW0NIM10pKFtDSDJdW0NIM10pW0NIMl1bTkhdQyg9TylbQ0gyXW4yW2NIXVtjSF1bY0hdW2NIXWMyPU8=

> <s_epik_cmdline>
J2VwaWtfcHl0aG9uJywgJy1waCcsICc3LjAnLCAnLXRuJywgJzgnLCAnLW1hJywgJzIwMCcsICctbWV0YWxfYmluZGluZycsICctaW1hZScsICc8aW5maWxlLm1hZT4nLCAnLW9tYWUnLCAnPG91dGZpbGUubWFlPic=

> <r_lp_tautomer_probability>
1

> <r_epik_Ionization_Penalty>
0.519658

> <r_epik_Ionization_Penalty_Charging>
0.519658

> <r_epik_Ionization_Penalty_Neutral>
8.70177e-08

> <r_epik_State_Penalty>
0.527569

> <r_epik_Charging_Adjusted_Penalty>
1.04723

> <i_epik_Tot_Q>
1

> <i_epik_Tot_abs_Q>
1

> <r_epik_Metal_State_Penalty>
0.527613

> <b_epik_Metal_Only>
0

> <s_lp_Force_Field>
OPLS_2005

> <r_lp_Energy>
37.518

> <b_lp_Chiralities_Consistent>
1

> <s_lp_Variant>
AV-unprocessed.smi:1304-4

> <Gold.Version>
5.8.1

> <Gold.Id.Protein>
6NUR|6NUR_protein|mol2

> <Gold.PLP.Fitness>
48.6592

> <Gold.PLP.PLP>
-35.9216

> <Gold.PLP.part.hbond>
-4.0000

> <Gold.PLP.part.metal>
0.0000

> <Gold.PLP.part.buried>
-1.4578

> <Gold.PLP.part.nonpolar>
-29.2193

> <Gold.PLP.part.repulsive>
0.2694

> <Gold.PLP.ligand.clash>
0.0000

> <Gold.PLP.ligand.torsion>
1.1124

> <Gold.PLP.Chemscore.Hbond>
4.0000

> <Gold.PLP.Chemscore.CHOScore>
0.8958

> <Gold.PLP.Chemscore.Metal>
0.0000

> <Gold.Chemscore.Hbonds>
donor molecule, donor type, donor heavy atom, donor atom, acceptor molecule, acceptor atom, score
      L1  H    17    48       P1  7948  2.00
      P1  H  7997  8008       L1    16  1.00
      P1  H 10752 10763       L1     8  1.00
      L1  C    11    36       P1  7957  0.91

> <Gold.PLP.Chemscore.Internal.Correction>
0.2751

> <Gold.Rescore>
     Score         DG    S(hbond)    S(metal)    S(lipo)     H(rot)  DE(clash)    DE(int)     intcor
     16.55     -17.76       2.99        0.00      64.07       2.03       0.11       1.11       ----

> <Gold.Chemscore.Fitness>
16.5461

> <Gold.Chemscore.DG>
-17.7618

> <Gold.Chemscore.ZeroCoef>
-5.4800

> <Gold.Chemscore.Hbond>
2.9886

> <Gold.Chemscore.Metal>
0.0000

> <Gold.Chemscore.Lipo>
64.0700

> <Gold.Chemscore.Internal_Hbond>
0.0000

> <Gold.Chemscore.DEClash>
0.1069

> <Gold.Chemscore.DEInternal>
1.1088

> <Gold.Chemscore.Rot>
2.0298

> <Gold.Chemscore.Internal.Correction>
   9.000000E+99

> <Gold.Chemscore.Hbonds>
donor molecule, donor type, donor heavy atom, donor atom, acceptor molecule, acceptor atom, score
      L1  H    17    48       P1  7948  0.98
      P1  H  7997  8008       L1    16  0.96
      P1  H 10752 10763       L1     8  0.72

> <Gold.Chemscore.Hbond.Weighted>
-9.9818

> <Gold.Chemscore.Metal.Weighted>
-0.0000

> <Gold.Chemscore.Lipo.Weighted>
-7.4962

> <Gold.Chemscore.Internal_Hbond.Weighted>
0.0000

> <Gold.Chemscore.DEClash.Weighted>
0.1069

> <Gold.Chemscore.DEInternal.Weighted>
1.1088

> <Gold.Chemscore.Rot.Weighted>
5.1962

> <Gold.Chemscore.Internal.Correction.Weighted>
   9.000000E+99

> <Gold.Protein.RotatedTorsions>
[ 6907 6896 6895 6894 ] final -154.87 input  -60.11 | X-H torsion
[ 7974 7965 7964 7962 ] final  -46.17 input  175.53 | X-H torsion
[ 8008 7997 7996 7995 ] final  -49.92 input   59.86 | X-H torsion
[ 10167 10162 10161 10158 ] final -117.35 input  -65.29 | X-H torsion
[ 10718 10713 10712 10709 ] final   -6.39 input   66.30 | X-H torsion
[ 10763 10752 10751 10750 ] final   65.54 input  -60.55 | X-H torsion
[ 11005 11000 10999 10996 ] final   62.00 input  -57.11 | X-H torsion

> <Gold.Protein.ActiveResidues>
 VAL166  LYS551  ARG553  GLY616  TRP617  ASP618  TYR619  PRO620  LYS621  CYS622 
 ASP623  PHE694  ASN695  SER759  ASP760  ASP761  ALA762  ILE779  LEU786  VAL792 
 PHE793  MET794  SER795  GLU796  ALA797  LYS798  CYS799  TRP800  GLU811  SER814 

> <Gold.Protein.RotatedAtoms>
  151.2640  133.4288  159.2617 H   0  0  0  0  0  0  0  0  0  0  0  0  # atno 6907 bound_to 6896
  151.0505  134.9670  159.8219 H   0  0  0  0  0  0  0  0  0  0  0  0  # atno 6908 bound_to 6896
  152.5382  134.2594  159.8982 H   0  0  0  0  0  0  0  0  0  0  0  0  # atno 6909 bound_to 6896
  145.9747  140.7347  142.9393 H   0  0  0  0  0  0  0  0  0  0  0  0  # atno 7974 bound_to 7965
  154.4052  140.1285  156.4582 H   0  0  0  0  0  0  0  0  0  0  0  0  # atno 8008 bound_to 7997
  155.7299  140.3491  155.5035 H   0  0  0  0  0  0  0  0  0  0  0  0  # atno 8009 bound_to 7997
  155.9136  140.1040  157.1250 H   0  0  0  0  0  0  0  0  0  0  0  0  # atno 8010 bound_to 7997
  140.0693  143.4893  152.1989 H   0  0  0  0  0  0  0  0  0  0  0  0  # atno 10167 bound_to 10162
  156.7325  130.5184  149.5842 H   0  0  0  0  0  0  0  0  0  0  0  0  # atno 10718 bound_to 10713
  153.0101  135.5353  154.6684 H   0  0  0  0  0  0  0  0  0  0  0  0  # atno 10763 bound_to 10752
  154.5874  135.2855  155.0672 H   0  0  0  0  0  0  0  0  0  0  0  0  # atno 10764 bound_to 10752
  154.1778  135.6521  153.5078 H   0  0  0  0  0  0  0  0  0  0  0  0  # atno 10765 bound_to 10752
  140.0122  134.6279  155.9763 H   0  0  0  0  0  0  0  0  0  0  0  0  # atno 11005 bound_to 11000
  144.6845  140.2807  143.7292 LP  0  0  0  0  0  0  0  0  0  0  0  0  # atno 17320 bound_to 7965
  145.7856  139.1907  143.2132 LP  0  0  0  0  0  0  0  0  0  0  0  0  # atno 17321 bound_to 7965
  139.5846  144.7525  151.3553 LP  0  0  0  0  0  0  0  0  0  0  0  0  # atno 17342 bound_to 10162
  140.7134  143.7331  150.7608 LP  0  0  0  0  0  0  0  0  0  0  0  0  # atno 17343 bound_to 10162
  156.1519  130.6315  151.0606 LP  0  0  0  0  0  0  0  0  0  0  0  0  # atno 17370 bound_to 10713
  157.6852  131.0826  150.7261 LP  0  0  0  0  0  0  0  0  0  0  0  0  # atno 17371 bound_to 10713
  141.1718  133.6538  156.4682 LP  0  0  0  0  0  0  0  0  0  0  0  0  # atno 17394 bound_to 11000
  140.4534  134.6907  157.5051 LP  0  0  0  0  0  0  0  0  0  0  0  0  # atno 17395 bound_to 11000

$$$$
