AV-unprocessed.smi:174|AV-procd|sdf|1428|dock3
  -GOLD-   2262019203D 1   1.00000     0.00000
 Structure written by MMmdl.
 51 54  0  0  0  0  0  0  0  0  1 V2000
  150.7230  129.3715  153.8085 N   0  0  0  0  0  0  0  0  0  0  0  0
  150.9804  130.1179  154.8847 C   0  0  0  0  0  0  0  0  0  0  0  0
  152.1214  130.2600  155.3224 O   0  0  0  0  0  0  0  0  0  0  0  0
  149.7775  130.8094  155.5425 C   0  0  0  0  0  0  0  0  0  0  0  0
  149.9506  132.2622  155.6911 N   0  0  0  0  0  0  0  0  0  0  0  0
  149.3106  133.0999  154.6730 C   0  0  0  0  0  0  0  0  0  0  0  0
  150.1091  134.3768  154.3933 C   0  0  0  0  0  0  0  0  0  0  0  0
  150.3727  135.0889  155.6375 N   0  0  0  0  0  0  0  0  0  0  0  0
  150.6773  136.4168  155.6111 C   0  0  0  0  0  0  0  0  0  0  0  0
  150.4039  137.1026  154.4688 N   0  0  0  0  0  0  0  0  0  0  0  0
  150.6813  138.4049  154.3684 C   0  0  0  0  0  0  0  0  0  0  0  0
  151.2242  139.2132  155.2783 N   0  0  0  0  0  0  0  0  0  0  0  0
  151.4953  138.5423  156.4332 C   0  0  0  0  0  0  0  0  0  0  0  0
  151.2592  137.1586  156.6861 C   0  0  0  0  0  0  0  0  0  0  0  0
  151.6595  136.8555  157.9847 N   0  0  0  0  0  0  0  0  0  0  0  0
  152.1114  137.9821  158.4621 C   0  0  0  0  0  0  0  0  0  0  0  0
  152.0503  139.0473  157.5957 N   0  0  0  0  0  0  0  0  0  0  0  0
  152.4799  140.4080  157.8659 C   0  0  0  0  0  0  0  0  0  0  0  0
  153.1343  140.5460  159.2566 C   0  0  1  0  0  0  0  0  0  0  0  0
  154.4359  139.9940  159.2428 O   0  0  0  0  0  0  0  0  0  0  0  0
  153.2050  141.9913  159.7914 C   0  0  1  0  0  0  0  0  0  0  0  0
  151.9374  142.8402  159.6539 C   0  0  0  0  0  0  0  0  0  0  0  0
  152.1530  143.8723  160.7371 C   0  0  0  0  0  0  0  0  0  0  0  0
  152.7879  143.0324  161.8420 C   0  0  0  0  0  0  0  0  0  0  0  0
  153.5231  142.0053  161.1811 O   0  0  0  0  0  0  0  0  0  0  0  0
  150.8099  134.3253  156.8179 C   0  0  0  0  0  0  0  0  0  0  0  0
  150.6320  132.7972  156.7333 C   0  0  0  0  0  0  0  0  0  0  0  0
  151.1349  132.1070  157.6204 O   0  0  0  0  0  0  0  0  0  0  0  0
  151.4780  128.8930  153.3392 H   0  0  0  0  0  0  0  0  0  0  0  0
  149.7764  129.2853  153.4686 H   0  0  0  0  0  0  0  0  0  0  0  0
  148.8914  130.6022  154.9410 H   0  0  0  0  0  0  0  0  0  0  0  0
  149.5829  130.3492  156.5130 H   0  0  0  0  0  0  0  0  0  0  0  0
  149.1889  132.5447  153.7419 H   0  0  0  0  0  0  0  0  0  0  0  0
  148.3081  133.3550  155.0196 H   0  0  0  0  0  0  0  0  0  0  0  0
  151.0548  134.1311  153.9078 H   0  0  0  0  0  0  0  0  0  0  0  0
  149.5329  134.9983  153.7072 H   0  0  0  0  0  0  0  0  0  0  0  0
  150.4326  138.8643  153.4230 H   0  0  0  0  0  0  0  0  0  0  0  0
  152.5031  138.0679  159.4653 H   0  0  0  0  0  0  0  0  0  0  0  0
  153.1625  140.7157  157.0740 H   0  0  0  0  0  0  0  0  0  0  0  0
  151.6067  141.0572  157.7940 H   0  0  0  0  0  0  0  0  0  0  0  0
  152.5516  139.9602  159.9688 H   0  0  0  0  0  0  0  0  0  0  0  0
  154.7559  139.9593  160.1314 H   0  0  0  0  0  0  0  0  0  0  0  0
  154.0200  142.5144  159.2876 H   0  0  0  0  0  0  0  0  0  0  0  0
  151.8257  143.2783  158.6618 H   0  0  0  0  0  0  0  0  0  0  0  0
  151.0383  142.2668  159.8759 H   0  0  0  0  0  0  0  0  0  0  0  0
  152.8529  144.6355  160.3944 H   0  0  0  0  0  0  0  0  0  0  0  0
  151.2330  144.3662  161.0508 H   0  0  0  0  0  0  0  0  0  0  0  0
  153.4276  143.6228  162.4982 H   0  0  0  0  0  0  0  0  0  0  0  0
  152.0159  142.5639  162.4535 H   0  0  0  0  0  0  0  0  0  0  0  0
  151.8635  134.5357  157.0093 H   0  0  0  0  0  0  0  0  0  0  0  0
  150.2525  134.6625  157.6928 H   0  0  0  0  0  0  0  0  0  0  0  0
  1  2  1  0  0  0  0
  1 29  1  0  0  0  0
  1 30  1  0  0  0  0
  2  3  2  0  0  0  0
  2  4  1  0  0  0  0
  4  5  1  0  0  0  0
  4 31  1  0  0  0  0
  4 32  1  0  0  0  0
  5 27  1  0  0  0  0
  5  6  1  0  0  0  0
  6  7  1  0  0  0  0
  6 33  1  0  0  0  0
  6 34  1  0  0  0  0
  7  8  1  0  0  0  0
  7 35  1  0  0  0  0
  7 36  1  0  0  0  0
  8  9  1  0  0  0  0
  8 26  1  0  0  0  0
  9 14  1  0  0  0  0
  9 10  2  0  0  0  0
 10 11  1  0  0  0  0
 11 12  2  0  0  0  0
 11 37  1  0  0  0  0
 12 13  1  0  0  0  0
 13 17  1  0  0  0  0
 13 14  2  0  0  0  0
 14 15  1  0  0  0  0
 15 16  2  0  0  0  0
 16 17  1  0  0  0  0
 16 38  1  0  0  0  0
 17 18  1  0  0  0  0
 18 19  1  0  0  0  0
 18 39  1  0  0  0  0
 18 40  1  0  0  0  0
 19 20  1  0  0  0  0
 19 21  1  0  0  0  0
 19 41  1  0  0  0  0
 20 42  1  0  0  0  0
 21 25  1  0  0  0  0
 21 22  1  0  0  0  0
 21 43  1  0  0  0  0
 22 23  1  0  0  0  0
 22 44  1  0  0  0  0
 22 45  1  0  0  0  0
 23 24  1  0  0  0  0
 23 46  1  0  0  0  0
 23 47  1  0  0  0  0
 24 25  1  0  0  0  0
 24 48  1  0  0  0  0
 24 49  1  0  0  0  0
 26 27  1  0  0  0  0
 26 50  1  0  0  0  0
 26 51  1  0  0  0  0
 27 28  2  0  0  0  0
M  END
> <s_m_source_file>
AV-unprocessed.smi

> <i_m_source_file_index>
174

> <i_lp_mmshare_version>
43012

> <i_f3d_flags>
0

> <s_epik_input>
W05IMl1DKD1PKVtDSDJdTjFbQ0gyXVtDSDJdTihbQ0gyXUMxPU8pYyhuW2NIXW4yKWMoYzIzKW5bY0hdbjNbQ0gyXVtDQEhdKFtPSF0pW0NAQEhdNFtDSDJdW0NIMl1bQ0gyXU80

> <s_epik_cmdline>
J2VwaWtfcHl0aG9uJywgJy1waCcsICc3LjAnLCAnLXRuJywgJzgnLCAnLW1hJywgJzIwMCcsICctbWV0YWxfYmluZGluZycsICctaW1hZScsICc8aW5maWxlLm1hZT4nLCAnLW9tYWUnLCAnPG91dGZpbGUubWFlPic=

> <r_lp_tautomer_probability>
1

> <r_epik_Ionization_Penalty>
0.000250477

> <r_epik_Ionization_Penalty_Charging>
0

> <r_epik_Ionization_Penalty_Neutral>
0.000250477

> <r_epik_State_Penalty>
-0

> <r_epik_Charging_Adjusted_Penalty>
0

> <i_epik_Tot_Q>
0

> <i_epik_Tot_abs_Q>
0

> <r_epik_Metal_State_Penalty>
-0

> <b_epik_Metal_Only>
0

> <s_lp_Force_Field>
OPLS_2005

> <r_lp_Energy>
38.9575

> <b_lp_Chiralities_Consistent>
1

> <s_lp_Variant>
AV-unprocessed.smi:174-4

> <Gold.Version>
5.8.1

> <Gold.Id.Protein>
6NUR|6NUR_protein|mol2

> <Gold.PLP.Fitness>
51.7364

> <Gold.PLP.PLP>
-42.1938

> <Gold.PLP.part.hbond>
-2.9713

> <Gold.PLP.part.metal>
0.0000

> <Gold.PLP.part.buried>
-3.0463

> <Gold.PLP.part.nonpolar>
-34.5332

> <Gold.PLP.part.repulsive>
0.7185

> <Gold.PLP.ligand.clash>
0.0000

> <Gold.PLP.ligand.torsion>
0.7139

> <Gold.PLP.Chemscore.Hbond>
2.8945

> <Gold.PLP.Chemscore.CHOScore>
0.6560

> <Gold.PLP.Chemscore.Metal>
0.0000

> <Gold.Chemscore.Hbonds>
donor molecule, donor type, donor heavy atom, donor atom, acceptor molecule, acceptor atom, score
      L1  H     1    29       P1 10737  0.87
      P1  H  6896  6907       L1    28  0.98
      P1  H  7997  8009       L1    20  1.00
      L1  C    11    37       P1  7957  0.67

> <Gold.PLP.Chemscore.Internal.Correction>
0.3191

> <Gold.Rescore>
     Score         DG    S(hbond)    S(metal)    S(lipo)     H(rot)  DE(clash)    DE(int)     intcor
     10.92     -13.21       2.06        0.00      83.00       3.46       0.28       2.00       ----

> <Gold.Chemscore.Fitness>
10.9242

> <Gold.Chemscore.DG>
-13.2056

> <Gold.Chemscore.ZeroCoef>
-5.4800

> <Gold.Chemscore.Hbond>
2.0570

> <Gold.Chemscore.Metal>
0.0000

> <Gold.Chemscore.Lipo>
82.9956

> <Gold.Chemscore.Internal_Hbond>
0.0000

> <Gold.Chemscore.DEClash>
0.2799

> <Gold.Chemscore.DEInternal>
2.0015

> <Gold.Chemscore.Rot>
3.4591

> <Gold.Chemscore.Internal.Correction>
   9.000000E+99

> <Gold.Chemscore.Hbonds>
donor molecule, donor type, donor heavy atom, donor atom, acceptor molecule, acceptor atom, score
      L1  H     1    29       P1 10737  0.53
      P1  H  6896  6907       L1    28  0.60
      P1  H  7997  8009       L1    20  0.59

> <Gold.Chemscore.Hbond.Weighted>
-6.8704

> <Gold.Chemscore.Metal.Weighted>
-0.0000

> <Gold.Chemscore.Lipo.Weighted>
-9.7105

> <Gold.Chemscore.Internal_Hbond.Weighted>
0.0000

> <Gold.Chemscore.DEClash.Weighted>
0.2799

> <Gold.Chemscore.DEInternal.Weighted>
2.0015

> <Gold.Chemscore.Rot.Weighted>
8.8553

> <Gold.Chemscore.Internal.Correction.Weighted>
   9.000000E+99

> <Gold.Protein.RotatedTorsions>
[ 6907 6896 6895 6894 ] final -169.33 input  -60.11 | X-H torsion
[ 7974 7965 7964 7962 ] final  117.85 input  175.53 | X-H torsion
[ 8008 7997 7996 7995 ] final  119.01 input   59.86 | X-H torsion
[ 10167 10162 10161 10158 ] final  -34.33 input  -65.29 | X-H torsion
[ 10718 10713 10712 10709 ] final  133.95 input   66.30 | X-H torsion
[ 10763 10752 10751 10750 ] final   89.98 input  -60.55 | X-H torsion
[ 11005 11000 10999 10996 ] final   66.69 input  -57.11 | X-H torsion

> <Gold.Protein.ActiveResidues>
 VAL166  LYS551  ARG553  GLY616  TRP617  ASP618  TYR619  PRO620  LYS621  CYS622 
 ASP623  PHE694  ASN695  SER759  ASP760  ASP761  ALA762  ILE779  LEU786  VAL792 
 PHE793  MET794  SER795  GLU796  ALA797  LYS798  CYS799  TRP800  GLU811  SER814 

> <Gold.Protein.RotatedAtoms>
  151.4898  133.3527  159.2851 H   0  0  0  0  0  0  0  0  0  0  0  0  # atno 6907 bound_to 6896
  150.8842  134.8239  159.7258 H   0  0  0  0  0  0  0  0  0  0  0  0  # atno 6908 bound_to 6896
  152.4782  134.4800  159.9714 H   0  0  0  0  0  0  0  0  0  0  0  0  # atno 6909 bound_to 6896
  145.1623  139.3148  143.4510 H   0  0  0  0  0  0  0  0  0  0  0  0  # atno 7974 bound_to 7965
  156.2575  140.2862  156.0925 H   0  0  0  0  0  0  0  0  0  0  0  0  # atno 8008 bound_to 7997
  155.1448  140.0396  157.2824 H   0  0  0  0  0  0  0  0  0  0  0  0  # atno 8009 bound_to 7997
  154.6503  140.2543  155.7227 H   0  0  0  0  0  0  0  0  0  0  0  0  # atno 8010 bound_to 7997
  140.7188  143.3556  151.2067 H   0  0  0  0  0  0  0  0  0  0  0  0  # atno 10167 bound_to 10162
  157.4722  131.1081  150.9788 H   0  0  0  0  0  0  0  0  0  0  0  0  # atno 10718 bound_to 10713
  153.1927  135.4450  155.0170 H   0  0  0  0  0  0  0  0  0  0  0  0  # atno 10763 bound_to 10752
  154.8100  135.3290  154.7332 H   0  0  0  0  0  0  0  0  0  0  0  0  # atno 10764 bound_to 10752
  153.7785  135.6979  153.4948 H   0  0  0  0  0  0  0  0  0  0  0  0  # atno 10765 bound_to 10752
  139.9816  134.6735  156.0252 H   0  0  0  0  0  0  0  0  0  0  0  0  # atno 11005 bound_to 11000
  146.3480  140.1738  142.8589 LP  0  0  0  0  0  0  0  0  0  0  0  0  # atno 17320 bound_to 7965
  145.0318  140.8876  143.5105 LP  0  0  0  0  0  0  0  0  0  0  0  0  # atno 17321 bound_to 7965
  139.7096  143.9398  152.2942 LP  0  0  0  0  0  0  0  0  0  0  0  0  # atno 17342 bound_to 10162
  139.9119  144.6851  150.8553 LP  0  0  0  0  0  0  0  0  0  0  0  0  # atno 17343 bound_to 10162
  157.0550  130.5802  149.5376 LP  0  0  0  0  0  0  0  0  0  0  0  0  # atno 17370 bound_to 10713
  156.0079  130.5167  150.7891 LP  0  0  0  0  0  0  0  0  0  0  0  0  # atno 17371 bound_to 10713
  141.1487  133.6552  156.3947 LP  0  0  0  0  0  0  0  0  0  0  0  0  # atno 17394 bound_to 11000
  140.5085  134.6418  157.5275 LP  0  0  0  0  0  0  0  0  0  0  0  0  # atno 17395 bound_to 11000

$$$$
