AV-unprocessed.smi:2695|AV-procd|sdf|10409|dock8
  -GOLD-   2272014443D 1   1.00000     0.00000
 Structure written by MMmdl.
 42 43  0  0  0  0  0  0  0  0  1 V2000
  150.3009  137.2764  155.6145 C   0  0  0  0  0  0  0  0  0  0  0  0
  149.3535  138.3255  155.0446 C   0  0  0  0  0  0  0  0  0  0  0  0
  148.1740  137.9740  154.5007 C   0  0  0  0  0  0  0  0  0  0  0  0
  147.3156  138.9855  153.9350 C   0  0  0  0  0  0  0  0  0  0  0  0
  146.1370  138.6417  153.4012 O   0  0  0  0  0  0  0  0  0  0  0  0
  147.7111  140.2718  153.9379 C   0  0  0  0  0  0  0  0  0  0  0  0
  148.9930  140.6862  154.5130 C   0  0  0  0  0  0  0  0  0  0  0  0
  149.3511  141.8648  154.4949 O   0  0  0  0  0  0  0  0  0  0  0  0
  149.7579  139.6928  155.0708 N   0  0  0  0  0  0  0  0  0  0  0  0
  151.0384  140.0697  155.7133 C   0  0  0  0  0  0  0  0  0  0  0  0
  150.8732  140.6253  157.1360 C   0  0  0  0  0  0  0  0  0  0  0  0
  149.7581  140.7382  157.6472 O   0  0  0  0  0  0  0  0  0  0  0  0
  152.0080  140.9876  157.7535 N   0  0  0  0  0  0  0  0  0  0  0  0
  152.1143  141.5503  159.1013 C   0  0  2  0  0  0  0  0  0  0  0  0
  152.2363  143.0944  159.0125 C   0  0  0  0  0  0  0  0  0  0  0  0
  152.1172  143.8336  160.3521 C   0  0  0  0  0  0  0  0  0  0  0  0
  151.7025  145.2707  160.0092 C   0  0  0  0  0  0  0  0  0  0  0  0
  151.1999  145.2441  158.5600 C   0  0  0  0  0  0  0  0  0  0  0  0
  151.1523  143.7684  158.1609 C   0  0  0  0  0  0  0  0  0  0  0  0
  153.2954  140.8691  159.8298 C   0  0  0  0  0  0  0  0  0  0  0  0
  154.4490  141.2772  159.2991 F   0  0  0  0  0  0  0  0  0  0  0  0
  153.2894  141.1790  161.1269 F   0  0  0  0  0  0  0  0  0  0  0  0
  153.2373  139.5442  159.7015 F   0  0  0  0  0  0  0  0  0  0  0  0
  149.9968  136.2763  155.3042 H   0  0  0  0  0  0  0  0  0  0  0  0
  150.2896  137.3004  156.7044 H   0  0  0  0  0  0  0  0  0  0  0  0
  151.3240  137.4154  155.2655 H   0  0  0  0  0  0  0  0  0  0  0  0
  147.8730  136.9367  154.4716 H   0  0  0  0  0  0  0  0  0  0  0  0
  145.6526  139.4376  153.2435 H   0  0  0  0  0  0  0  0  0  0  0  0
  147.0684  141.0270  153.5086 H   0  0  0  0  0  0  0  0  0  0  0  0
  151.7120  139.2117  155.7599 H   0  0  0  0  0  0  0  0  0  0  0  0
  151.5951  140.7890  155.1143 H   0  0  0  0  0  0  0  0  0  0  0  0
  152.8757  140.8573  157.2536 H   0  0  0  0  0  0  0  0  0  0  0  0
  151.2100  141.3143  159.6652 H   0  0  0  0  0  0  0  0  0  0  0  0
  153.2034  143.3471  158.5748 H   0  0  0  0  0  0  0  0  0  0  0  0
  151.3404  143.3718  160.9631 H   0  0  0  0  0  0  0  0  0  0  0  0
  153.0449  143.8078  160.9243 H   0  0  0  0  0  0  0  0  0  0  0  0
  150.9298  145.6224  160.6934 H   0  0  0  0  0  0  0  0  0  0  0  0
  152.5505  145.9506  160.0997 H   0  0  0  0  0  0  0  0  0  0  0  0
  150.2289  145.7277  158.4486 H   0  0  0  0  0  0  0  0  0  0  0  0
  151.9056  145.7752  157.9197 H   0  0  0  0  0  0  0  0  0  0  0  0
  151.3072  143.6286  157.0904 H   0  0  0  0  0  0  0  0  0  0  0  0
  150.1737  143.3548  158.4100 H   0  0  0  0  0  0  0  0  0  0  0  0
  1  2  1  0  0  0  0
  1 24  1  0  0  0  0
  1 25  1  0  0  0  0
  1 26  1  0  0  0  0
  2  9  1  0  0  0  0
  2  3  2  0  0  0  0
  3  4  1  0  0  0  0
  3 27  1  0  0  0  0
  4  5  1  0  0  0  0
  4  6  2  0  0  0  0
  5 28  1  0  0  0  0
  6  7  1  0  0  0  0
  6 29  1  0  0  0  0
  7  8  2  0  0  0  0
  7  9  1  0  0  0  0
  9 10  1  0  0  0  0
 10 11  1  0  0  0  0
 10 30  1  0  0  0  0
 10 31  1  0  0  0  0
 11 12  2  0  0  0  0
 11 13  1  0  0  0  0
 13 14  1  0  0  0  0
 13 32  1  0  0  0  0
 14 15  1  0  0  0  0
 14 20  1  0  0  0  0
 14 33  1  0  0  0  0
 15 19  1  0  0  0  0
 15 16  1  0  0  0  0
 15 34  1  0  0  0  0
 16 17  1  0  0  0  0
 16 35  1  0  0  0  0
 16 36  1  0  0  0  0
 17 18  1  0  0  0  0
 17 37  1  0  0  0  0
 17 38  1  0  0  0  0
 18 19  1  0  0  0  0
 18 39  1  0  0  0  0
 18 40  1  0  0  0  0
 19 41  1  0  0  0  0
 19 42  1  0  0  0  0
 20 21  1  0  0  0  0
 20 22  1  0  0  0  0
 20 23  1  0  0  0  0
M  END
> <s_m_source_file>
AV-unprocessed.smi

> <i_m_source_file_index>
2695

> <i_lp_mmshare_version>
43012

> <i_f3d_flags>
0

> <s_epik_input>
W0NIM11jMVtjSF1jKFtPSF0pW2NIXWMoPU8pbjFbQ0gyXUMoPU8pW05IXVtDQEBIXShDKEYpKEYpRilbQ0hdMltDSDJdW0NIMl1bQ0gyXVtDSDJdMg==

> <s_epik_cmdline>
J2VwaWtfcHl0aG9uJywgJy1waCcsICc3LjAnLCAnLXRuJywgJzgnLCAnLW1hJywgJzIwMCcsICctbWV0YWxfYmluZGluZycsICctaW1hZScsICc8aW5maWxlLm1hZT4nLCAnLW9tYWUnLCAnPG91dGZpbGUubWFlPic=

> <r_lp_tautomer_probability>
0.999984

> <r_epik_Ionization_Penalty>
0.843628

> <r_epik_Ionization_Penalty_Charging>
1.18449e-07

> <r_epik_Ionization_Penalty_Neutral>
0.843628

> <r_epik_State_Penalty>
0.886913

> <r_epik_Charging_Adjusted_Penalty>
0.886913

> <i_epik_Tot_Q>
0

> <i_epik_Tot_abs_Q>
0

> <r_epik_Metal_State_Penalty>
0.886913

> <b_epik_Metal_Only>
0

> <s_lp_Force_Field>
OPLS_2005

> <r_lp_Energy>
35.2102

> <b_lp_Chiralities_Consistent>
1

> <s_lp_Variant>
AV-unprocessed.smi:2695-3

> <Gold.Version>
5.8.1

> <Gold.Id.Protein>
6NUR|6NUR_protein|mol2

> <Gold.PLP.Fitness>
43.2324

> <Gold.PLP.PLP>
-42.2415

> <Gold.PLP.part.hbond>
-3.0000

> <Gold.PLP.part.metal>
0.0000

> <Gold.PLP.part.buried>
-2.3769

> <Gold.PLP.part.nonpolar>
-37.6207

> <Gold.PLP.part.repulsive>
0.8794

> <Gold.PLP.ligand.clash>
0.0000

> <Gold.PLP.ligand.torsion>
0.7633

> <Gold.PLP.Chemscore.Hbond>
0.7166

> <Gold.PLP.Chemscore.CHOScore>
0.0000

> <Gold.PLP.Chemscore.Metal>
0.0000

> <Gold.Chemscore.Hbonds>
donor molecule, donor type, donor heavy atom, donor atom, acceptor molecule, acceptor atom, score
      L1  H     5    28       P1 10175  0.17
      P1  H  8011  8017       L1     8  0.16

> <Gold.PLP.Chemscore.Internal.Correction>
0.3678

> <Gold.Rescore>
     Score         DG    S(hbond)    S(metal)    S(lipo)     H(rot)  DE(clash)    DE(int)     intcor
     13.47     -15.69       1.26        0.00     102.86       2.36       0.61       1.61       ----

> <Gold.Chemscore.Fitness>
13.4693

> <Gold.Chemscore.DG>
-15.6861

> <Gold.Chemscore.ZeroCoef>
-5.4800

> <Gold.Chemscore.Hbond>
1.2613

> <Gold.Chemscore.Metal>
0.0000

> <Gold.Chemscore.Lipo>
102.8608

> <Gold.Chemscore.Internal_Hbond>
0.0000

> <Gold.Chemscore.DEClash>
0.6086

> <Gold.Chemscore.DEInternal>
1.6082

> <Gold.Chemscore.Rot>
2.3599

> <Gold.Chemscore.Internal.Correction>
   9.000000E+99

> <Gold.Chemscore.Hbonds>
donor molecule, donor type, donor heavy atom, donor atom, acceptor molecule, acceptor atom, score
      L1  H     5    28       P1 10175  0.18
      P1  H  8011  8017       L1     8  0.11

> <Gold.Chemscore.Hbond.Weighted>
-4.2126

> <Gold.Chemscore.Metal.Weighted>
-0.0000

> <Gold.Chemscore.Lipo.Weighted>
-12.0347

> <Gold.Chemscore.Internal_Hbond.Weighted>
0.0000

> <Gold.Chemscore.DEClash.Weighted>
0.6086

> <Gold.Chemscore.DEInternal.Weighted>
1.6082

> <Gold.Chemscore.Rot.Weighted>
6.0413

> <Gold.Chemscore.Internal.Correction.Weighted>
   9.000000E+99

> <Gold.Protein.RotatedTorsions>
[ 6907 6896 6895 6894 ] final   28.68 input  -60.11 | X-H torsion
[ 7974 7965 7964 7962 ] final  127.74 input  175.53 | X-H torsion
[ 8008 7997 7996 7995 ] final   11.26 input   59.86 | X-H torsion
[ 10167 10162 10161 10158 ] final  -62.33 input  -65.29 | X-H torsion
[ 10718 10713 10712 10709 ] final  -23.43 input   66.30 | X-H torsion
[ 10763 10752 10751 10750 ] final -144.73 input  -60.55 | X-H torsion
[ 11005 11000 10999 10996 ] final   65.61 input  -57.11 | X-H torsion

> <Gold.Protein.ActiveResidues>
 VAL166  LYS551  ARG553  GLY616  TRP617  ASP618  TYR619  PRO620  LYS621  CYS622 
 ASP623  PHE694  ASN695  SER759  ASP760  ASP761  ALA762  ILE779  LEU786  VAL792 
 PHE793  MET794  SER795  GLU796  ALA797  LYS798  CYS799  TRP800  GLU811  SER814 

> <Gold.Protein.RotatedAtoms>
  152.0205  134.9825  160.0570 H   0  0  0  0  0  0  0  0  0  0  0  0  # atno 6907 bound_to 6896
  152.1342  133.4420  159.4743 H   0  0  0  0  0  0  0  0  0  0  0  0  # atno 6908 bound_to 6896
  150.6859  134.2302  159.4475 H   0  0  0  0  0  0  0  0  0  0  0  0  # atno 6909 bound_to 6896
  145.0472  139.3913  143.5072 H   0  0  0  0  0  0  0  0  0  0  0  0  # atno 7974 bound_to 7965
  154.8046  140.2858  155.5897 H   0  0  0  0  0  0  0  0  0  0  0  0  # atno 8008 bound_to 7997
  156.2981  140.2580  156.2851 H   0  0  0  0  0  0  0  0  0  0  0  0  # atno 8009 bound_to 7997
  154.9518  140.0379  157.2137 H   0  0  0  0  0  0  0  0  0  0  0  0  # atno 8010 bound_to 7997
  140.5946  143.2348  151.6064 H   0  0  0  0  0  0  0  0  0  0  0  0  # atno 10167 bound_to 10162
  156.4911  130.4566  149.6755 H   0  0  0  0  0  0  0  0  0  0  0  0  # atno 10718 bound_to 10713
  154.8415  135.3432  154.6392 H   0  0  0  0  0  0  0  0  0  0  0  0  # atno 10763 bound_to 10752
  153.7003  135.6970  153.5069 H   0  0  0  0  0  0  0  0  0  0  0  0  # atno 10764 bound_to 10752
  153.2528  135.4348  155.0769 H   0  0  0  0  0  0  0  0  0  0  0  0  # atno 10765 bound_to 10752
  139.9883  134.6632  156.0136 H   0  0  0  0  0  0  0  0  0  0  0  0  # atno 11005 bound_to 11000
  146.3515  140.0103  142.8667 LP  0  0  0  0  0  0  0  0  0  0  0  0  # atno 17320 bound_to 7965
  145.1573  140.9654  143.4398 LP  0  0  0  0  0  0  0  0  0  0  0  0  # atno 17321 bound_to 7965
  139.5250  144.3088  152.1010 LP  0  0  0  0  0  0  0  0  0  0  0  0  # atno 17342 bound_to 10162
  140.2258  144.4419  150.6321 LP  0  0  0  0  0  0  0  0  0  0  0  0  # atno 17343 bound_to 10162
  156.3425  130.7390  151.2337 LP  0  0  0  0  0  0  0  0  0  0  0  0  # atno 17370 bound_to 10713
  157.7473  131.0399  150.4575 LP  0  0  0  0  0  0  0  0  0  0  0  0  # atno 17371 bound_to 10713
  141.1544  133.6544  156.4115 LP  0  0  0  0  0  0  0  0  0  0  0  0  # atno 17394 bound_to 11000
  140.4958  134.6532  157.5229 LP  0  0  0  0  0  0  0  0  0  0  0  0  # atno 17395 bound_to 11000

$$$$
