AV-unprocessed.smi:1872|AV-procd|sdf|7603|dock3
  -GOLD-   22720 9323D 1   1.00000     0.00000
 Structure written by MMmdl.
 39 41  0  0  0  0  0  0  0  0  1 V2000
  151.6756  139.3199  155.2893 C   0  0  0  0  0  0  0  0  0  0  0  0
  151.7660  140.2598  156.4496 C   0  0  0  0  0  0  0  0  0  0  0  0
  152.4383  139.9563  157.5600 N   0  0  0  0  0  0  0  0  0  0  0  0
  152.2507  141.0788  158.3438 C   0  0  0  0  0  0  0  0  0  0  0  0
  152.7128  141.3784  159.6455 C   0  0  0  0  0  0  0  0  0  0  0  0
  152.3865  142.6085  160.2533 C   0  0  0  0  0  0  0  0  0  0  0  0
  151.5960  143.5551  159.5699 C   0  0  0  0  0  0  0  0  0  0  0  0
  151.1264  143.2773  158.2718 C   0  0  0  0  0  0  0  0  0  0  0  0
  151.4543  142.0479  157.6697 C   0  0  0  0  0  0  0  0  0  0  0  0
  151.1628  141.4735  156.4360 N   0  0  0  0  0  0  0  0  0  0  0  0
  150.3694  142.0685  155.3692 C   0  0  0  0  0  0  0  0  0  0  0  0
  149.2889  141.1151  154.8201 C   0  0  2  0  0  0  0  0  0  0  0  0
  149.6087  140.7269  153.4975 O   0  0  0  0  0  0  0  0  0  0  0  0
  147.9068  141.7414  154.9164 C   0  0  0  0  0  0  0  0  0  0  0  0
  147.2438  142.1695  153.7476 C   0  0  0  0  0  0  0  0  0  0  0  0
  145.9582  142.7386  153.8285 C   0  0  0  0  0  0  0  0  0  0  0  0
  145.3195  142.8953  155.0752 C   0  0  0  0  0  0  0  0  0  0  0  0
  144.0587  143.4480  155.0880 O   0  0  0  0  0  0  0  0  0  0  0  0
  143.9149  144.7840  154.8791 C   0  0  0  0  0  0  0  0  0  0  0  0
  144.0677  145.0606  153.5617 F   0  0  0  0  0  0  0  0  0  0  0  0
  142.6730  145.1896  155.2411 F   0  0  0  0  0  0  0  0  0  0  0  0
  145.9799  142.4512  156.2457 C   0  0  0  0  0  0  0  0  0  0  0  0
  147.2647  141.8805  156.1655 C   0  0  0  0  0  0  0  0  0  0  0  0
  152.2099  138.3942  155.5061 H   0  0  0  0  0  0  0  0  0  0  0  0
  152.1163  139.7696  154.4001 H   0  0  0  0  0  0  0  0  0  0  0  0
  150.6343  139.0723  155.0830 H   0  0  0  0  0  0  0  0  0  0  0  0
  153.3193  140.6605  160.1772 H   0  0  0  0  0  0  0  0  0  0  0  0
  152.7440  142.8272  161.2488 H   0  0  0  0  0  0  0  0  0  0  0  0
  151.3503  144.4949  160.0423 H   0  0  0  0  0  0  0  0  0  0  0  0
  150.5235  144.0013  157.7441 H   0  0  0  0  0  0  0  0  0  0  0  0
  149.9099  142.9835  155.7437 H   0  0  0  0  0  0  0  0  0  0  0  0
  151.0431  142.3772  154.5689 H   0  0  0  0  0  0  0  0  0  0  0  0
  149.2882  140.2015  155.4153 H   0  0  0  0  0  0  0  0  0  0  0  0
  149.1151  139.9493  153.2859 H   0  0  0  0  0  0  0  0  0  0  0  0
  147.7168  142.0600  152.7828 H   0  0  0  0  0  0  0  0  0  0  0  0
  145.4594  143.0597  152.9258 H   0  0  0  0  0  0  0  0  0  0  0  0
  144.6596  145.3607  155.4283 H   0  0  0  0  0  0  0  0  0  0  0  0
  145.5087  142.5353  157.2137 H   0  0  0  0  0  0  0  0  0  0  0  0
  147.7535  141.5433  157.0681 H   0  0  0  0  0  0  0  0  0  0  0  0
  1  2  1  0  0  0  0
  1 24  1  0  0  0  0
  1 25  1  0  0  0  0
  1 26  1  0  0  0  0
  2 10  1  0  0  0  0
  2  3  2  0  0  0  0
  3  4  1  0  0  0  0
  4  9  2  0  0  0  0
  4  5  1  0  0  0  0
  5  6  2  0  0  0  0
  5 27  1  0  0  0  0
  6  7  1  0  0  0  0
  6 28  1  0  0  0  0
  7  8  2  0  0  0  0
  7 29  1  0  0  0  0
  8  9  1  0  0  0  0
  8 30  1  0  0  0  0
  9 10  1  0  0  0  0
 10 11  1  0  0  0  0
 11 12  1  0  0  0  0
 11 31  1  0  0  0  0
 11 32  1  0  0  0  0
 12 13  1  0  0  0  0
 12 14  1  0  0  0  0
 12 33  1  0  0  0  0
 13 34  1  0  0  0  0
 14 23  1  0  0  0  0
 14 15  2  0  0  0  0
 15 16  1  0  0  0  0
 15 35  1  0  0  0  0
 16 17  2  0  0  0  0
 16 36  1  0  0  0  0
 17 18  1  0  0  0  0
 17 22  1  0  0  0  0
 18 19  1  0  0  0  0
 19 20  1  0  0  0  0
 19 21  1  0  0  0  0
 19 37  1  0  0  0  0
 22 23  2  0  0  0  0
 22 38  1  0  0  0  0
 23 39  1  0  0  0  0
M  END
> <s_m_source_file>
AV-unprocessed.smi

> <i_m_source_file_index>
1872

> <i_lp_mmshare_version>
43012

> <i_f3d_flags>
0

> <s_epik_input>
W2NIXTFbY0hdW2NIXVtjSF1jKGMxMiluKGMobjIpW0NIM10pW0NIMl1bQ0BIXShbT0hdKWMzW2NIXVtjSF1jKE9bQ0hdKEYpRilbY0hdW2NIXTM=

> <s_epik_cmdline>
J2VwaWtfcHl0aG9uJywgJy1waCcsICc3LjAnLCAnLXRuJywgJzgnLCAnLW1hJywgJzIwMCcsICctbWV0YWxfYmluZGluZycsICctaW1hZScsICc8aW5maWxlLm1hZT4nLCAnLW9tYWUnLCAnPG91dGZpbGUubWFlPic=

> <r_lp_tautomer_probability>
1

> <r_epik_Ionization_Penalty>
0.129663

> <r_epik_Ionization_Penalty_Charging>
0

> <r_epik_Ionization_Penalty_Neutral>
0.129663

> <r_epik_State_Penalty>
0.119073

> <r_epik_Charging_Adjusted_Penalty>
0.119073

> <i_epik_Tot_Q>
0

> <i_epik_Tot_abs_Q>
0

> <r_epik_Metal_State_Penalty>
0.000131867

> <b_epik_Metal_Only>
0

> <s_lp_Force_Field>
OPLS_2005

> <r_lp_Energy>
11.4486

> <b_lp_Chiralities_Consistent>
1

> <s_lp_Variant>
AV-unprocessed.smi:1872-1

> <Gold.Version>
5.8.1

> <Gold.Id.Protein>
6NUR|6NUR_protein|mol2

> <Gold.PLP.Fitness>
52.2036

> <Gold.PLP.PLP>
-48.0836

> <Gold.PLP.part.hbond>
-3.7699

> <Gold.PLP.part.metal>
0.0000

> <Gold.PLP.part.buried>
-3.3105

> <Gold.PLP.part.nonpolar>
-39.5541

> <Gold.PLP.part.repulsive>
0.1182

> <Gold.PLP.ligand.clash>
0.0000

> <Gold.PLP.ligand.torsion>
1.4500

> <Gold.PLP.Chemscore.Hbond>
2.2974

> <Gold.PLP.Chemscore.CHOScore>
0.0000

> <Gold.PLP.Chemscore.Metal>
0.0000

> <Gold.Chemscore.Hbonds>
donor molecule, donor type, donor heavy atom, donor atom, acceptor molecule, acceptor atom, score
      P1  H  7989  7998       L1    13  0.37
      P1  H  7997  8008       L1     3  0.54
      P1  H  8011  8017       L1    13  0.94

> <Gold.PLP.Chemscore.Internal.Correction>
0.1278

> <Gold.Rescore>
     Score         DG    S(hbond)    S(metal)    S(lipo)     H(rot)  DE(clash)    DE(int)     intcor
     12.32     -16.38       1.10        0.00     110.99       2.25       1.18       2.88       ----

> <Gold.Chemscore.Fitness>
12.3219

> <Gold.Chemscore.DG>
-16.3810

> <Gold.Chemscore.ZeroCoef>
-5.4800

> <Gold.Chemscore.Hbond>
1.1031

> <Gold.Chemscore.Metal>
0.0000

> <Gold.Chemscore.Lipo>
110.9948

> <Gold.Chemscore.Internal_Hbond>
0.0000

> <Gold.Chemscore.DEClash>
1.1836

> <Gold.Chemscore.DEInternal>
2.8755

> <Gold.Chemscore.Rot>
2.2538

> <Gold.Chemscore.Internal.Correction>
   9.000000E+99

> <Gold.Chemscore.Hbonds>
donor molecule, donor type, donor heavy atom, donor atom, acceptor molecule, acceptor atom, score
      L1  H    13    34       P1  7957  0.01
      P1  H  7989  7998       L1    13  0.15
      P1  H  7997  8008       L1     3  0.04
      P1  H  8011  8017       L1    13  0.62

> <Gold.Chemscore.Hbond.Weighted>
-3.6843

> <Gold.Chemscore.Metal.Weighted>
-0.0000

> <Gold.Chemscore.Lipo.Weighted>
-12.9864

> <Gold.Chemscore.Internal_Hbond.Weighted>
0.0000

> <Gold.Chemscore.DEClash.Weighted>
1.1836

> <Gold.Chemscore.DEInternal.Weighted>
2.8755

> <Gold.Chemscore.Rot.Weighted>
5.7697

> <Gold.Chemscore.Internal.Correction.Weighted>
   9.000000E+99

> <Gold.Protein.RotatedTorsions>
[ 6907 6896 6895 6894 ] final  164.21 input  -60.11 | X-H torsion
[ 7974 7965 7964 7962 ] final  164.98 input  175.53 | X-H torsion
[ 8008 7997 7996 7995 ] final  -60.27 input   59.86 | X-H torsion
[ 10167 10162 10161 10158 ] final   17.63 input  -65.29 | X-H torsion
[ 10718 10713 10712 10709 ] final -130.23 input   66.30 | X-H torsion
[ 10763 10752 10751 10750 ] final  157.92 input  -60.55 | X-H torsion
[ 11005 11000 10999 10996 ] final   22.80 input  -57.11 | X-H torsion

> <Gold.Protein.ActiveResidues>
 VAL166  LYS551  ARG553  GLY616  TRP617  ASP618  TYR619  PRO620  LYS621  CYS622 
 ASP623  PHE694  ASN695  SER759  ASP760  ASP761  ALA762  ILE779  LEU786  VAL792 
 PHE793  MET794  SER795  GLU796  ALA797  LYS798  CYS799  TRP800  GLU811  SER814 

> <Gold.Protein.RotatedAtoms>
  151.9134  133.3567  159.3871 H   0  0  0  0  0  0  0  0  0  0  0  0  # atno 6907 bound_to 6896
  150.7053  134.4709  159.5434 H   0  0  0  0  0  0  0  0  0  0  0  0  # atno 6908 bound_to 6896
  152.2319  134.8313  160.0523 H   0  0  0  0  0  0  0  0  0  0  0  0  # atno 6909 bound_to 6896
  144.7522  139.8404  143.6362 H   0  0  0  0  0  0  0  0  0  0  0  0  # atno 7974 bound_to 7965
  154.4391  140.1043  156.6247 H   0  0  0  0  0  0  0  0  0  0  0  0  # atno 8008 bound_to 7997
  155.5669  140.3488  155.4486 H   0  0  0  0  0  0  0  0  0  0  0  0  # atno 8009 bound_to 7997
  156.0418  140.1284  157.0136 H   0  0  0  0  0  0  0  0  0  0  0  0  # atno 8010 bound_to 7997
  140.5712  143.9158  150.6714 H   0  0  0  0  0  0  0  0  0  0  0  0  # atno 10167 bound_to 10162
  156.2124  130.6927  151.0664 H   0  0  0  0  0  0  0  0  0  0  0  0  # atno 10718 bound_to 10713
  154.2079  135.2787  155.2968 H   0  0  0  0  0  0  0  0  0  0  0  0  # atno 10763 bound_to 10752
  154.5802  135.5592  153.7181 H   0  0  0  0  0  0  0  0  0  0  0  0  # atno 10764 bound_to 10752
  153.0071  135.6343  154.2218 H   0  0  0  0  0  0  0  0  0  0  0  0  # atno 10765 bound_to 10752
  140.3766  134.1965  155.7665 H   0  0  0  0  0  0  0  0  0  0  0  0  # atno 11005 bound_to 11000
  146.1486  139.4563  143.0063 LP  0  0  0  0  0  0  0  0  0  0  0  0  # atno 17320 bound_to 7965
  145.6905  141.0165  143.1558 LP  0  0  0  0  0  0  0  0  0  0  0  0  # atno 17321 bound_to 7965
  140.2633  143.3508  152.1303 LP  0  0  0  0  0  0  0  0  0  0  0  0  # atno 17342 bound_to 10162
  139.5118  144.6907  151.5767 LP  0  0  0  0  0  0  0  0  0  0  0  0  # atno 17343 bound_to 10162
  157.7045  131.0762  150.6711 LP  0  0  0  0  0  0  0  0  0  0  0  0  # atno 17370 bound_to 10713
  156.6771  130.4556  149.5639 LP  0  0  0  0  0  0  0  0  0  0  0  0  # atno 17371 bound_to 10713
  141.1937  133.8145  157.0787 LP  0  0  0  0  0  0  0  0  0  0  0  0  # atno 17394 bound_to 11000
  140.0510  134.9805  157.1137 LP  0  0  0  0  0  0  0  0  0  0  0  0  # atno 17395 bound_to 11000

$$$$
