AV-unprocessed.smi:1740|AV-procd|sdf|7015|dock5
  -GOLD-   22720 8233D 1   1.00000     0.00000
 Structure written by MMmdl.
 52 54  0  0  0  0  0  0  0  0  4 V2000
  148.0411  143.4837  158.8239 N   0  5  0  0  0  0  0  0  0  0  0  0
  147.9217  142.3196  158.1546 C   0  0  0  0  0  0  0  0  0  0  0  0
  148.6393  141.3254  158.2338 O   0  0  0  0  0  0  0  0  0  0  0  0
  146.7215  142.3149  157.2019 C   0  0  0  0  0  0  0  0  0  0  0  0
  147.1616  142.1112  155.7978 N   0  3  2  0  0  0  0  0  0  0  0  0
  146.0645  142.2828  154.8079 C   0  0  0  0  0  0  0  0  0  0  0  0
  146.5927  142.1893  153.3645 C   0  0  0  0  0  0  0  0  0  0  0  0
  147.3584  140.8789  153.1124 C   0  0  2  0  0  0  0  0  0  0  0  0
  146.4361  139.7439  153.0852 N   0  0  0  0  0  0  0  0  0  0  0  0
  146.4813  138.7300  152.2093 C   0  0  0  0  0  0  0  0  0  0  0  0
  147.3108  138.6456  151.3039 O   0  0  0  0  0  0  0  0  0  0  0  0
  145.5289  137.8186  152.4661 N   0  0  0  0  0  0  0  0  0  0  0  0
  145.3405  136.5691  151.8134 C   0  0  0  0  0  0  0  0  0  0  0  0
  146.3249  136.0631  150.9269 C   0  0  0  0  0  0  0  0  0  0  0  0
  146.0941  134.8608  150.2329 C   0  0  0  0  0  0  0  0  0  0  0  0
  144.8740  134.1902  150.4233 C   0  0  0  0  0  0  0  0  0  0  0  0
  143.9525  134.7035  151.2644 N   0  3  0  0  0  0  0  0  0  0  0  0
  144.1210  135.8482  151.9732 C   0  0  0  0  0  0  0  0  0  0  0  0
  143.0697  136.2540  152.8276 N   0  0  0  0  0  0  0  0  0  0  0  0
  142.5000  137.5913  152.7121 C   0  0  0  0  0  0  0  0  0  0  0  0
  141.2106  137.5452  153.5269 C   0  0  0  0  0  0  0  0  0  0  0  0
  140.7217  136.1198  153.2877 C   0  0  0  0  0  0  0  0  0  0  0  0
  142.0143  135.3055  153.1709 C   0  0  0  0  0  0  0  0  0  0  0  0
  148.4485  140.7043  154.1885 C   0  0  0  0  0  0  0  0  0  0  0  0
  147.8766  140.8235  155.6122 C   0  0  0  0  0  0  0  0  0  0  0  0
  147.9343  144.3633  158.3040 H   0  0  0  0  0  0  0  0  0  0  0  0
  146.0525  141.5101  157.5117 H   0  0  0  0  0  0  0  0  0  0  0  0
  146.1540  143.2425  157.2925 H   0  0  0  0  0  0  0  0  0  0  0  0
  145.2975  141.5260  154.9798 H   0  0  0  0  0  0  0  0  0  0  0  0
  145.5827  143.2513  154.9452 H   0  0  0  0  0  0  0  0  0  0  0  0
  145.7693  142.2896  152.6563 H   0  0  0  0  0  0  0  0  0  0  0  0
  147.2574  143.0335  153.1761 H   0  0  0  0  0  0  0  0  0  0  0  0
  147.8363  140.9487  152.1333 H   0  0  0  0  0  0  0  0  0  0  0  0
  145.7131  139.7307  153.7897 H   0  0  0  0  0  0  0  0  0  0  0  0
  144.9749  137.9693  153.2964 H   0  0  0  0  0  0  0  0  0  0  0  0
  147.2488  136.5949  150.7540 H   0  0  0  0  0  0  0  0  0  0  0  0
  146.8375  134.4672  149.5551 H   0  0  0  0  0  0  0  0  0  0  0  0
  144.6060  133.2676  149.9293 H   0  0  0  0  0  0  0  0  0  0  0  0
  143.1869  138.3524  153.0832 H   0  0  0  0  0  0  0  0  0  0  0  0
  142.2667  137.8154  151.6704 H   0  0  0  0  0  0  0  0  0  0  0  0
  141.4308  137.6909  154.5853 H   0  0  0  0  0  0  0  0  0  0  0  0
  140.4881  138.3028  153.2229 H   0  0  0  0  0  0  0  0  0  0  0  0
  140.0627  135.7572  154.0768 H   0  0  0  0  0  0  0  0  0  0  0  0
  140.1734  136.0751  152.3458 H   0  0  0  0  0  0  0  0  0  0  0  0
  141.9158  134.5118  152.4293 H   0  0  0  0  0  0  0  0  0  0  0  0
  142.2533  134.8477  154.1310 H   0  0  0  0  0  0  0  0  0  0  0  0
  148.9596  139.7484  154.0694 H   0  0  0  0  0  0  0  0  0  0  0  0
  149.2122  141.4707  154.0489 H   0  0  0  0  0  0  0  0  0  0  0  0
  148.6946  140.7524  156.3301 H   0  0  0  0  0  0  0  0  0  0  0  0
  147.1986  139.9947  155.8222 H   0  0  0  0  0  0  0  0  0  0  0  0
  147.8374  142.8427  155.6230 H   0  0  0  0  0  0  0  0  0  0  0  0
  143.0768  134.1931  151.3802 H   0  0  0  0  0  0  0  0  0  0  0  0
  1  2  1  0  0  0  0
  1 26  1  0  0  0  0
  2  3  2  0  0  0  0
  2  4  1  0  0  0  0
  4  5  1  0  0  0  0
  4 27  1  0  0  0  0
  4 28  1  0  0  0  0
  5 25  1  0  0  0  0
  5  6  1  0  0  0  0
  5 51  1  0  0  0  0
  6  7  1  0  0  0  0
  6 29  1  0  0  0  0
  6 30  1  0  0  0  0
  7  8  1  0  0  0  0
  7 31  1  0  0  0  0
  7 32  1  0  0  0  0
  8  9  1  0  0  0  0
  8 24  1  0  0  0  0
  8 33  1  0  0  0  0
  9 10  1  0  0  0  0
  9 34  1  0  0  0  0
 10 11  2  0  0  0  0
 10 12  1  0  0  0  0
 12 13  1  0  0  0  0
 12 35  1  0  0  0  0
 13 18  1  0  0  0  0
 13 14  2  0  0  0  0
 14 15  1  0  0  0  0
 14 36  1  0  0  0  0
 15 16  2  0  0  0  0
 15 37  1  0  0  0  0
 16 17  1  0  0  0  0
 16 38  1  0  0  0  0
 17 18  2  0  0  0  0
 17 52  1  0  0  0  0
 18 19  1  0  0  0  0
 19 23  1  0  0  0  0
 19 20  1  0  0  0  0
 20 21  1  0  0  0  0
 20 39  1  0  0  0  0
 20 40  1  0  0  0  0
 21 22  1  0  0  0  0
 21 41  1  0  0  0  0
 21 42  1  0  0  0  0
 22 23  1  0  0  0  0
 22 43  1  0  0  0  0
 22 44  1  0  0  0  0
 23 45  1  0  0  0  0
 23 46  1  0  0  0  0
 24 25  1  0  0  0  0
 24 47  1  0  0  0  0
 24 48  1  0  0  0  0
 25 49  1  0  0  0  0
 25 50  1  0  0  0  0
M  CHG  1   1  -1
M  CHG  1   5   1
M  CHG  1  17   1
M  END
> <s_m_source_file>
AV-unprocessed.smi

> <i_m_source_file_index>
1740

> <i_lp_mmshare_version>
43012

> <i_f3d_flags>
0

> <s_epik_input>
W05IMl1DKD1PKVtDSDJdTjFbQ0gyXVtDSDJdW0NIXShbQ0gyXVtDSDJdMSlbTkhdQyg9TylbTkhdYzJbY0hdW2NIXVtjSF1uYzJOM1tDSDJdW0NIMl1bQ0gyXVtDSDJdMw==

> <s_epik_cmdline>
J2VwaWtfcHl0aG9uJywgJy1waCcsICc3LjAnLCAnLXRuJywgJzgnLCAnLW1hJywgJzIwMCcsICctbWV0YWxfYmluZGluZycsICctaW1hZScsICc8aW5maWxlLm1hZT4nLCAnLW9tYWUnLCAnPG91dGZpbGUubWFlPic=

> <r_lp_tautomer_probability>
0.999994

> <r_epik_Ionization_Penalty>
6.97817

> <r_epik_Ionization_Penalty_Charging>
6.97815

> <r_epik_Ionization_Penalty_Neutral>
1.88285e-05

> <r_epik_State_Penalty>
7.80985

> <r_epik_Charging_Adjusted_Penalty>
14.788

> <i_epik_Tot_Q>
1

> <i_epik_Tot_abs_Q>
3

> <r_epik_Metal_State_Penalty>
3.85728

> <b_epik_Metal_Only>
1

> <s_lp_Force_Field>
OPLS_2005

> <r_lp_Energy>
44.1168

> <b_lp_Chiralities_Consistent>
1

> <s_lp_Variant>
AV-unprocessed.smi:1740-10

> <Gold.Version>
5.8.1

> <Gold.Id.Protein>
6NUR|6NUR_protein|mol2

> <Gold.PLP.Fitness>
49.5785

> <Gold.PLP.PLP>
-38.1948

> <Gold.PLP.part.hbond>
-5.9558

> <Gold.PLP.part.metal>
0.0000

> <Gold.PLP.part.buried>
-2.2299

> <Gold.PLP.part.nonpolar>
-31.2687

> <Gold.PLP.part.repulsive>
2.1899

> <Gold.PLP.ligand.clash>
0.0000

> <Gold.PLP.ligand.torsion>
0.5316

> <Gold.PLP.Chemscore.Hbond>
3.9913

> <Gold.PLP.Chemscore.CHOScore>
0.0000

> <Gold.PLP.Chemscore.Metal>
0.0000

> <Gold.Chemscore.Hbonds>
donor molecule, donor type, donor heavy atom, donor atom, acceptor molecule, acceptor atom, score
      L1  H     1    26       P1  8029  1.00
      L1  H     5    51       P1  8028  1.53
      P1  H  7954  7966       L1    11  1.00

> <Gold.PLP.Chemscore.Internal.Correction>
0.4730

> <Gold.Rescore>
     Score         DG    S(hbond)    S(metal)    S(lipo)     H(rot)  DE(clash)    DE(int)     intcor
     11.79     -16.97       2.33        0.00      79.63       2.18       1.66       3.52       ----

> <Gold.Chemscore.Fitness>
11.7897

> <Gold.Chemscore.DG>
-16.9732

> <Gold.Chemscore.ZeroCoef>
-5.4800

> <Gold.Chemscore.Hbond>
2.3252

> <Gold.Chemscore.Metal>
0.0000

> <Gold.Chemscore.Lipo>
79.6254

> <Gold.Chemscore.Internal_Hbond>
0.0000

> <Gold.Chemscore.DEClash>
1.6599

> <Gold.Chemscore.DEInternal>
3.5236

> <Gold.Chemscore.Rot>
2.1832

> <Gold.Chemscore.Internal.Correction>
   9.000000E+99

> <Gold.Chemscore.Hbonds>
donor molecule, donor type, donor heavy atom, donor atom, acceptor molecule, acceptor atom, score
      L1  H     1    26       P1  8029  0.65
      L1  H     5    51       P1  8028  0.52
      P1  H  7954  7966       L1    11  0.94

> <Gold.Chemscore.Hbond.Weighted>
-7.7661

> <Gold.Chemscore.Metal.Weighted>
-0.0000

> <Gold.Chemscore.Lipo.Weighted>
-9.3162

> <Gold.Chemscore.Internal_Hbond.Weighted>
0.0000

> <Gold.Chemscore.DEClash.Weighted>
1.6599

> <Gold.Chemscore.DEInternal.Weighted>
3.5236

> <Gold.Chemscore.Rot.Weighted>
5.5891

> <Gold.Chemscore.Internal.Correction.Weighted>
   9.000000E+99

> <Gold.Protein.RotatedTorsions>
[ 6907 6896 6895 6894 ] final   32.23 input  -60.11 | X-H torsion
[ 7974 7965 7964 7962 ] final  -33.79 input  175.53 | X-H torsion
[ 8008 7997 7996 7995 ] final  -58.31 input   59.86 | X-H torsion
[ 10167 10162 10161 10158 ] final   32.93 input  -65.29 | X-H torsion
[ 10718 10713 10712 10709 ] final   -1.46 input   66.30 | X-H torsion
[ 10763 10752 10751 10750 ] final -131.86 input  -60.55 | X-H torsion
[ 11005 11000 10999 10996 ] final  -69.24 input  -57.11 | X-H torsion

> <Gold.Protein.ActiveResidues>
 VAL166  LYS551  ARG553  GLY616  TRP617  ASP618  TYR619  PRO620  LYS621  CYS622 
 ASP623  PHE694  ASN695  SER759  ASP760  ASP761  ALA762  ILE779  LEU786  VAL792 
 PHE793  MET794  SER795  GLU796  ALA797  LYS798  CYS799  TRP800  GLU811  SER814 

> <Gold.Protein.RotatedAtoms>
  152.0715  134.9530  160.0574 H   0  0  0  0  0  0  0  0  0  0  0  0  # atno 6907 bound_to 6896
  152.0854  133.4169  159.4528 H   0  0  0  0  0  0  0  0  0  0  0  0  # atno 6908 bound_to 6896
  150.6836  134.2853  159.4687 H   0  0  0  0  0  0  0  0  0  0  0  0  # atno 6909 bound_to 6896
  146.0882  140.5959  142.8876 H   0  0  0  0  0  0  0  0  0  0  0  0  # atno 7974 bound_to 7965
  154.4303  140.1087  156.5936 H   0  0  0  0  0  0  0  0  0  0  0  0  # atno 8008 bound_to 7997
  155.5986  140.3493  155.4568 H   0  0  0  0  0  0  0  0  0  0  0  0  # atno 8009 bound_to 7997
  156.0191  140.1235  157.0365 H   0  0  0  0  0  0  0  0  0  0  0  0  # atno 8010 bound_to 7997
  140.4453  144.1127  150.6181 H   0  0  0  0  0  0  0  0  0  0  0  0  # atno 10167 bound_to 10162
  156.8053  130.5406  149.5716 H   0  0  0  0  0  0  0  0  0  0  0  0  # atno 10718 bound_to 10713
  154.8748  135.3816  154.4314 H   0  0  0  0  0  0  0  0  0  0  0  0  # atno 10763 bound_to 10752
  153.5008  135.7030  153.5838 H   0  0  0  0  0  0  0  0  0  0  0  0  # atno 10764 bound_to 10752
  153.4170  135.3910  155.2054 H   0  0  0  0  0  0  0  0  0  0  0  0  # atno 10765 bound_to 10752
  141.1550  133.6759  156.6569 H   0  0  0  0  0  0  0  0  0  0  0  0  # atno 11005 bound_to 11000
  144.7341  140.4758  143.6916 LP  0  0  0  0  0  0  0  0  0  0  0  0  # atno 17320 bound_to 7965
  145.6089  139.1511  143.3087 LP  0  0  0  0  0  0  0  0  0  0  0  0  # atno 17321 bound_to 7965
  140.4270  143.2585  151.9643 LP  0  0  0  0  0  0  0  0  0  0  0  0  # atno 17342 bound_to 10162
  139.4792  144.5778  151.7982 LP  0  0  0  0  0  0  0  0  0  0  0  0  # atno 17343 bound_to 10162
  156.1076  130.6016  150.9996 LP  0  0  0  0  0  0  0  0  0  0  0  0  # atno 17370 bound_to 10713
  157.6533  131.0893  150.8003 LP  0  0  0  0  0  0  0  0  0  0  0  0  # atno 17371 bound_to 10713
  140.3277  134.7955  157.4302 LP  0  0  0  0  0  0  0  0  0  0  0  0  # atno 17394 bound_to 11000
  140.1043  134.5431  155.8324 LP  0  0  0  0  0  0  0  0  0  0  0  0  # atno 17395 bound_to 11000

$$$$
