AV-unprocessed.smi:2510|AV-procd|sdf|9883|dock2
  -GOLD-   2272013523D 1   1.00000     0.00000
 Structure written by MMmdl.
 48 49  0  0  0  0  0  0  0  0  1 V2000
  147.5415  140.6785  153.5973 C   0  0  0  0  0  0  0  0  0  0  0  0
  148.8939  141.1258  154.1781 C   0  0  0  0  0  0  0  0  0  0  0  0
  149.5811  140.1640  155.1780 C   0  0  0  0  0  0  0  0  0  0  0  0
  148.5700  139.9175  156.3346 C   0  0  0  0  0  0  0  0  0  0  0  0
  148.1352  141.1573  157.1398 C   0  0  0  0  0  0  0  0  0  0  0  0
  150.2495  138.8861  154.5868 C   0  0  2  0  0  0  0  0  0  0  0  0
  149.4722  137.6636  154.7702 N   0  0  0  0  0  0  0  0  0  0  0  0
  149.9914  136.4307  154.8576 C   0  0  0  0  0  0  0  0  0  0  0  0
  151.1996  136.2031  154.7780 O   0  0  0  0  0  0  0  0  0  0  0  0
  148.9795  135.2988  155.0729 C   0  0  0  0  0  0  0  0  0  0  0  0
  149.6219  133.9511  155.1876 C   0  0  0  0  0  0  0  0  0  0  0  0
  149.4219  132.7922  154.4905 C   0  0  0  0  0  0  0  0  0  0  0  0
  150.3335  131.8657  155.0765 C   0  0  0  0  0  0  0  0  0  0  0  0
  150.5562  130.4276  154.7120 C   0  0  0  0  0  0  0  0  0  0  0  0
  151.0405  132.4042  156.0588 N   0  0  0  0  0  0  0  0  0  0  0  0
  150.5985  133.6740  156.1176 N   0  0  0  0  0  0  0  0  0  0  0  0
  151.3972  139.0294  155.5951 C   0  0  1  0  0  0  0  0  0  0  0  0
  152.7967  138.5874  155.1831 C   0  0  0  0  0  0  0  0  0  0  0  0
  151.0367  140.5239  155.5929 C   0  0  2  0  0  0  0  0  0  0  0  0
  151.1256  141.1557  156.8607 O   0  0  0  0  0  0  0  0  0  0  0  0
  151.0368  142.5682  156.7989 C   0  0  0  0  0  0  0  0  0  0  0  0
  150.9701  134.3337  156.7863 H   0  0  0  0  0  0  0  0  0  0  0  0
  147.2062  141.3845  152.8374 H   0  0  0  0  0  0  0  0  0  0  0  0
  146.7650  140.6461  154.3615 H   0  0  0  0  0  0  0  0  0  0  0  0
  147.5999  139.6994  153.1234 H   0  0  0  0  0  0  0  0  0  0  0  0
  149.5605  141.3000  153.3331 H   0  0  0  0  0  0  0  0  0  0  0  0
  148.7428  142.1021  154.6406 H   0  0  0  0  0  0  0  0  0  0  0  0
  147.6670  139.4488  155.9415 H   0  0  0  0  0  0  0  0  0  0  0  0
  148.9769  139.1960  157.0432 H   0  0  0  0  0  0  0  0  0  0  0  0
  147.4972  140.8612  157.9726 H   0  0  0  0  0  0  0  0  0  0  0  0
  147.5577  141.8547  156.5336 H   0  0  0  0  0  0  0  0  0  0  0  0
  148.9807  141.6998  157.5592 H   0  0  0  0  0  0  0  0  0  0  0  0
  150.6226  139.0122  153.5695 H   0  0  0  0  0  0  0  0  0  0  0  0
  148.4703  137.7655  154.8415 H   0  0  0  0  0  0  0  0  0  0  0  0
  148.4017  135.5112  155.9734 H   0  0  0  0  0  0  0  0  0  0  0  0
  148.2724  135.2966  154.2425 H   0  0  0  0  0  0  0  0  0  0  0  0
  148.7271  132.6303  153.6796 H   0  0  0  0  0  0  0  0  0  0  0  0
  149.9124  130.1259  153.8855 H   0  0  0  0  0  0  0  0  0  0  0  0
  150.3421  129.7709  155.5556 H   0  0  0  0  0  0  0  0  0  0  0  0
  151.5888  130.2548  154.4077 H   0  0  0  0  0  0  0  0  0  0  0  0
  151.1199  138.5842  156.5524 H   0  0  0  0  0  0  0  0  0  0  0  0
  153.1074  139.0649  154.2537 H   0  0  0  0  0  0  0  0  0  0  0  0
  152.8383  137.5094  155.0285 H   0  0  0  0  0  0  0  0  0  0  0  0
  153.5359  138.8342  155.9441 H   0  0  0  0  0  0  0  0  0  0  0  0
  151.5676  141.0782  154.8168 H   0  0  0  0  0  0  0  0  0  0  0  0
  151.0398  142.9756  157.8096 H   0  0  0  0  0  0  0  0  0  0  0  0
  150.1158  142.8884  156.3103 H   0  0  0  0  0  0  0  0  0  0  0  0
  151.8857  142.9972  156.2679 H   0  0  0  0  0  0  0  0  0  0  0  0
  1  2  1  0  0  0  0
  1 23  1  0  0  0  0
  1 24  1  0  0  0  0
  1 25  1  0  0  0  0
  2  3  1  0  0  0  0
  2 26  1  0  0  0  0
  2 27  1  0  0  0  0
  3 19  1  0  0  0  0
  3  4  1  0  0  0  0
  3  6  1  0  0  0  0
  4  5  1  0  0  0  0
  4 28  1  0  0  0  0
  4 29  1  0  0  0  0
  5 30  1  0  0  0  0
  5 31  1  0  0  0  0
  5 32  1  0  0  0  0
  6  7  1  0  0  0  0
  6 17  1  0  0  0  0
  6 33  1  0  0  0  0
  7  8  1  0  0  0  0
  7 34  1  0  0  0  0
  8  9  2  0  0  0  0
  8 10  1  0  0  0  0
 10 35  1  0  0  0  0
 10 36  1  0  0  0  0
 10 11  1  0  0  0  0
 11 16  1  0  0  0  0
 11 12  2  0  0  0  0
 12 13  1  0  0  0  0
 12 37  1  0  0  0  0
 13 14  1  0  0  0  0
 13 15  2  0  0  0  0
 14 38  1  0  0  0  0
 14 39  1  0  0  0  0
 14 40  1  0  0  0  0
 15 16  1  0  0  0  0
 16 22  1  0  0  0  0
 17 18  1  0  0  0  0
 17 19  1  0  0  0  0
 17 41  1  0  0  0  0
 18 42  1  0  0  0  0
 18 43  1  0  0  0  0
 18 44  1  0  0  0  0
 19 20  1  0  0  0  0
 19 45  1  0  0  0  0
 20 21  1  0  0  0  0
 21 46  1  0  0  0  0
 21 47  1  0  0  0  0
 21 48  1  0  0  0  0
M  END
> <s_m_source_file>
AV-unprocessed.smi

> <i_m_source_file_index>
2510

> <i_lp_mmshare_version>
43012

> <i_f3d_flags>
0

> <s_epik_input>
W0NIM11PW0NAQEhdMVtDQEhdKFtDSDNdKVtDQEBIXShDMShbQ0gyXVtDSDNdKVtDSDJdW0NIM10pW05IXUMoPU8pW0NIMl1jMltjSF1jKFtDSDNdKVtuSF1uMg==

> <s_epik_cmdline>
J2VwaWtfcHl0aG9uJywgJy1waCcsICc3LjAnLCAnLXRuJywgJzgnLCAnLW1hJywgJzIwMCcsICctbWV0YWxfYmluZGluZycsICctaW1hZScsICc8aW5maWxlLm1hZT4nLCAnLW9tYWUnLCAnPG91dGZpbGUubWFlPic=

> <r_lp_tautomer_probability>
0.5

> <r_epik_Ionization_Penalty>
0.000134763

> <r_epik_Ionization_Penalty_Charging>
0

> <r_epik_Ionization_Penalty_Neutral>
0.000134763

> <r_epik_State_Penalty>
0.41068

> <r_epik_Charging_Adjusted_Penalty>
0.41068

> <i_epik_Tot_Q>
0

> <i_epik_Tot_abs_Q>
0

> <r_epik_Metal_State_Penalty>
0.410661

> <b_epik_Metal_Only>
0

> <s_lp_Force_Field>
OPLS_2005

> <r_lp_Energy>
25.9976

> <b_lp_Chiralities_Consistent>
1

> <s_lp_Variant>
AV-unprocessed.smi:2510-14

> <Gold.Version>
5.8.1

> <Gold.Id.Protein>
6NUR|6NUR_protein|mol2

> <Gold.PLP.Fitness>
37.8100

> <Gold.PLP.PLP>
-35.4436

> <Gold.PLP.part.hbond>
-1.3166

> <Gold.PLP.part.metal>
0.0000

> <Gold.PLP.part.buried>
-1.4996

> <Gold.PLP.part.nonpolar>
-31.7998

> <Gold.PLP.part.repulsive>
0.3059

> <Gold.PLP.ligand.clash>
0.0000

> <Gold.PLP.ligand.torsion>
0.6100

> <Gold.PLP.Chemscore.Hbond>
1.0000

> <Gold.PLP.Chemscore.CHOScore>
0.0000

> <Gold.PLP.Chemscore.Metal>
0.0000

> <Gold.Chemscore.Hbonds>
donor molecule, donor type, donor heavy atom, donor atom, acceptor molecule, acceptor atom, score
      P1  H 10752 10764       L1     9  1.00

> <Gold.PLP.Chemscore.Internal.Correction>
0.5864

> <Gold.Rescore>
     Score         DG    S(hbond)    S(metal)    S(lipo)     H(rot)  DE(clash)    DE(int)     intcor
     13.37     -14.71       1.00        0.00      89.91       1.81       0.24       1.10       ----

> <Gold.Chemscore.Fitness>
13.3710

> <Gold.Chemscore.DG>
-14.7051

> <Gold.Chemscore.ZeroCoef>
-5.4800

> <Gold.Chemscore.Hbond>
0.9999

> <Gold.Chemscore.Metal>
0.0000

> <Gold.Chemscore.Lipo>
89.9098

> <Gold.Chemscore.Internal_Hbond>
0.0000

> <Gold.Chemscore.DEClash>
0.2390

> <Gold.Chemscore.DEInternal>
1.0951

> <Gold.Chemscore.Rot>
1.8102

> <Gold.Chemscore.Internal.Correction>
   9.000000E+99

> <Gold.Chemscore.Hbonds>
donor molecule, donor type, donor heavy atom, donor atom, acceptor molecule, acceptor atom, score
      P1  H 10752 10764       L1     9  0.99

> <Gold.Chemscore.Hbond.Weighted>
-3.3397

> <Gold.Chemscore.Metal.Weighted>
-0.0000

> <Gold.Chemscore.Lipo.Weighted>
-10.5195

> <Gold.Chemscore.Internal_Hbond.Weighted>
0.0000

> <Gold.Chemscore.DEClash.Weighted>
0.2390

> <Gold.Chemscore.DEInternal.Weighted>
1.0951

> <Gold.Chemscore.Rot.Weighted>
4.6341

> <Gold.Chemscore.Internal.Correction.Weighted>
   9.000000E+99

> <Gold.Protein.RotatedTorsions>
[ 6907 6896 6895 6894 ] final    5.07 input  -60.11 | X-H torsion
[ 7974 7965 7964 7962 ] final  -51.50 input  175.53 | X-H torsion
[ 8008 7997 7996 7995 ] final  152.71 input   59.86 | X-H torsion
[ 10167 10162 10161 10158 ] final  -42.06 input  -65.29 | X-H torsion
[ 10718 10713 10712 10709 ] final -175.31 input   66.30 | X-H torsion
[ 10763 10752 10751 10750 ] final  -48.97 input  -60.55 | X-H torsion
[ 11005 11000 10999 10996 ] final  120.92 input  -57.11 | X-H torsion

> <Gold.Protein.ActiveResidues>
 VAL166  LYS551  ARG553  GLY616  TRP617  ASP618  TYR619  PRO620  LYS621  CYS622 
 ASP623  PHE694  ASN695  SER759  ASP760  ASP761  ALA762  ILE779  LEU786  VAL792 
 PHE793  MET794  SER795  GLU796  ALA797  LYS798  CYS799  TRP800  GLU811  SER814 

> <Gold.Protein.RotatedAtoms>
  151.6516  135.1001  160.0161 H   0  0  0  0  0  0  0  0  0  0  0  0  # atno 6907 bound_to 6896
  152.3997  133.6796  159.6315 H   0  0  0  0  0  0  0  0  0  0  0  0  # atno 6908 bound_to 6896
  150.7899  133.8728  159.3304 H   0  0  0  0  0  0  0  0  0  0  0  0  # atno 6909 bound_to 6896
  145.9183  140.7855  142.9660 H   0  0  0  0  0  0  0  0  0  0  0  0  # atno 7974 bound_to 7965
  156.2616  140.2013  156.6376 H   0  0  0  0  0  0  0  0  0  0  0  0  # atno 8008 bound_to 7997
  154.6635  140.0558  157.0112 H   0  0  0  0  0  0  0  0  0  0  0  0  # atno 8009 bound_to 7997
  155.1242  140.3227  155.4492 H   0  0  0  0  0  0  0  0  0  0  0  0  # atno 8010 bound_to 7997
  140.6982  143.3059  151.3156 H   0  0  0  0  0  0  0  0  0  0  0  0  # atno 10167 bound_to 10162
  156.7980  130.9542  151.3119 H   0  0  0  0  0  0  0  0  0  0  0  0  # atno 10718 bound_to 10713
  154.0864  135.6583  153.4845 H   0  0  0  0  0  0  0  0  0  0  0  0  # atno 10763 bound_to 10752
  153.0337  135.5192  154.7423 H   0  0  0  0  0  0  0  0  0  0  0  0  # atno 10764 bound_to 10752
  154.6534  135.3004  154.9927 H   0  0  0  0  0  0  0  0  0  0  0  0  # atno 10765 bound_to 10752
  139.9205  134.9637  156.7880 H   0  0  0  0  0  0  0  0  0  0  0  0  # atno 11005 bound_to 11000
  144.6750  140.1935  143.7394 LP  0  0  0  0  0  0  0  0  0  0  0  0  # atno 17320 bound_to 7965
  145.8583  139.2209  143.1732 LP  0  0  0  0  0  0  0  0  0  0  0  0  # atno 17321 bound_to 7965
  139.6464  144.0443  152.2594 LP  0  0  0  0  0  0  0  0  0  0  0  0  # atno 17342 bound_to 10162
  139.9965  144.6324  150.7767 LP  0  0  0  0  0  0  0  0  0  0  0  0  # atno 17343 bound_to 10162
  157.6568  130.8931  149.9745 LP  0  0  0  0  0  0  0  0  0  0  0  0  # atno 17370 bound_to 10713
  156.1118  130.3649  150.0035 LP  0  0  0  0  0  0  0  0  0  0  0  0  # atno 17371 bound_to 10713
  140.6490  133.9749  155.7745 LP  0  0  0  0  0  0  0  0  0  0  0  0  # atno 17394 bound_to 11000
  141.0721  134.0190  157.3512 LP  0  0  0  0  0  0  0  0  0  0  0  0  # atno 17395 bound_to 11000

$$$$
