AV-unprocessed.smi:557|AV-procd|sdf|2918|dock1
  -GOLD-   2262023413D 1   1.00000     0.00000
 Structure written by MMmdl.
 47 49  0  0  0  0  0  0  0  0  2 V2000
  148.1182  141.2638  153.9883 C   0  0  0  0  0  0  0  0  0  0  0  0
  149.2808  140.5216  154.4264 N   0  0  0  0  0  0  0  0  0  0  0  0
  149.7097  139.2760  154.0214 C   0  0  0  0  0  0  0  0  0  0  0  0
  150.8529  138.9910  154.7136 C   0  0  0  0  0  0  0  0  0  0  0  0
  151.7114  137.7593  154.6457 C   0  0  0  0  0  0  0  0  0  0  0  0
  151.0441  136.5719  155.3517 C   0  0  0  0  0  0  0  0  0  0  0  0
  150.2005  135.8274  154.4208 N   0  0  0  0  0  0  0  0  0  0  0  0
  149.4888  134.7176  154.6798 C   0  0  0  0  0  0  0  0  0  0  0  0
  149.4795  134.1951  155.7925 O   0  0  0  0  0  0  0  0  0  0  0  0
  148.7981  134.2405  153.6305 N   0  0  0  0  0  0  0  0  0  0  0  0
  147.9392  133.0603  153.6502 C   0  0  2  0  0  0  0  0  0  0  0  0
  148.7097  131.7631  153.8672 C   0  0  0  0  0  0  0  0  0  0  0  0
  147.7237  130.7133  153.3533 C   0  0  0  0  0  0  0  0  0  0  0  0
  147.0027  131.3519  152.2288 N   0  3  1  0  0  0  0  0  0  0  0  0
  145.5900  130.9256  152.0773 C   0  0  0  0  0  0  0  0  0  0  0  0
  144.9341  131.6411  150.8825 C   0  0  0  0  0  0  0  0  0  0  0  0
  145.1128  133.1732  150.9249 C   0  0  0  0  0  0  0  0  0  0  0  0
  145.9238  133.6388  152.1448 C   0  0  0  0  0  0  0  0  0  0  0  0
  147.2273  132.8237  152.3066 C   0  0  1  0  0  0  0  0  0  0  0  0
  151.0429  140.1447  155.5269 C   0  0  0  0  0  0  0  0  0  0  0  0
  150.1010  141.0574  155.3532 N   0  0  0  0  0  0  0  0  0  0  0  0
  147.5493  140.6772  153.2665 H   0  0  0  0  0  0  0  0  0  0  0  0
  148.4316  142.1968  153.5189 H   0  0  0  0  0  0  0  0  0  0  0  0
  147.4796  141.4893  154.8429 H   0  0  0  0  0  0  0  0  0  0  0  0
  149.1715  138.6995  153.2831 H   0  0  0  0  0  0  0  0  0  0  0  0
  151.9160  137.4941  153.6076 H   0  0  0  0  0  0  0  0  0  0  0  0
  152.6846  137.9488  155.1003 H   0  0  0  0  0  0  0  0  0  0  0  0
  151.8080  135.9087  155.7615 H   0  0  0  0  0  0  0  0  0  0  0  0
  150.4381  136.9285  156.1862 H   0  0  0  0  0  0  0  0  0  0  0  0
  150.1574  136.1866  153.4777 H   0  0  0  0  0  0  0  0  0  0  0  0
  148.8735  134.7361  152.7539 H   0  0  0  0  0  0  0  0  0  0  0  0
  147.2007  133.1451  154.4507 H   0  0  0  0  0  0  0  0  0  0  0  0
  149.6177  131.7503  153.2618 H   0  0  0  0  0  0  0  0  0  0  0  0
  148.9927  131.6038  154.9082 H   0  0  0  0  0  0  0  0  0  0  0  0
  148.2170  129.7934  153.0390 H   0  0  0  0  0  0  0  0  0  0  0  0
  147.0215  130.4600  154.1494 H   0  0  0  0  0  0  0  0  0  0  0  0
  145.5507  129.8453  151.9331 H   0  0  0  0  0  0  0  0  0  0  0  0
  145.0375  131.1406  152.9934 H   0  0  0  0  0  0  0  0  0  0  0  0
  145.3650  131.2588  149.9563 H   0  0  0  0  0  0  0  0  0  0  0  0
  143.8733  131.3912  150.8445 H   0  0  0  0  0  0  0  0  0  0  0  0
  145.6174  133.4987  150.0142 H   0  0  0  0  0  0  0  0  0  0  0  0
  144.1389  133.6648  150.9213 H   0  0  0  0  0  0  0  0  0  0  0  0
  146.1527  134.7007  152.0518 H   0  0  0  0  0  0  0  0  0  0  0  0
  145.3099  133.5421  153.0415 H   0  0  0  0  0  0  0  0  0  0  0  0
  147.9051  133.0687  151.4871 H   0  0  0  0  0  0  0  0  0  0  0  0
  151.8330  140.3429  156.2362 H   0  0  0  0  0  0  0  0  0  0  0  0
  147.4751  131.0574  151.3860 H   0  0  0  0  0  0  0  0  0  0  0  0
  1  2  1  0  0  0  0
  1 22  1  0  0  0  0
  1 23  1  0  0  0  0
  1 24  1  0  0  0  0
  2 21  1  0  0  0  0
  2  3  1  0  0  0  0
  3  4  2  0  0  0  0
  3 25  1  0  0  0  0
  4  5  1  0  0  0  0
  4 20  1  0  0  0  0
  5  6  1  0  0  0  0
  5 26  1  0  0  0  0
  5 27  1  0  0  0  0
  6  7  1  0  0  0  0
  6 28  1  0  0  0  0
  6 29  1  0  0  0  0
  7  8  1  0  0  0  0
  7 30  1  0  0  0  0
  8  9  2  0  0  0  0
  8 10  1  0  0  0  0
 10 11  1  0  0  0  0
 10 31  1  0  0  0  0
 11 19  1  0  0  0  0
 11 12  1  0  0  0  0
 11 32  1  0  0  0  0
 12 13  1  0  0  0  0
 12 33  1  0  0  0  0
 12 34  1  0  0  0  0
 13 14  1  0  0  0  0
 13 35  1  0  0  0  0
 13 36  1  0  0  0  0
 14 19  1  0  0  0  0
 14 15  1  0  0  0  0
 14 47  1  0  0  0  0
 15 16  1  0  0  0  0
 15 37  1  0  0  0  0
 15 38  1  0  0  0  0
 16 17  1  0  0  0  0
 16 39  1  0  0  0  0
 16 40  1  0  0  0  0
 17 18  1  0  0  0  0
 17 41  1  0  0  0  0
 17 42  1  0  0  0  0
 18 19  1  0  0  0  0
 18 43  1  0  0  0  0
 18 44  1  0  0  0  0
 19 45  1  0  0  0  0
 20 21  2  0  0  0  0
 20 46  1  0  0  0  0
M  CHG  1  14   1
M  END
> <s_m_source_file>
AV-unprocessed.smi

> <i_m_source_file_index>
557

> <i_lp_mmshare_version>
43012

> <i_f3d_flags>
0

> <s_epik_input>
W0NIM11uMVtjSF1jKFtjSF1uMSlbQ0gyXVtDSDJdW05IXUMoPU8pW05IXVtDQEhdKFtDSDJdW0NIMl0yKVtDQEhdKE4yMylbQ0gyXVtDSDJdW0NIMl1bQ0gyXTM=

> <s_epik_cmdline>
J2VwaWtfcHl0aG9uJywgJy1waCcsICc3LjAnLCAnLXRuJywgJzgnLCAnLW1hJywgJzIwMCcsICctbWV0YWxfYmluZGluZycsICctaW1hZScsICc8aW5maWxlLm1hZT4nLCAnLW9tYWUnLCAnPG91dGZpbGUubWFlPic=

> <r_lp_tautomer_probability>
1

> <r_epik_Ionization_Penalty>
0.000956547

> <r_epik_Ionization_Penalty_Charging>
0.000435796

> <r_epik_Ionization_Penalty_Neutral>
0.000520752

> <r_epik_State_Penalty>
-0

> <r_epik_Charging_Adjusted_Penalty>
0.000435796

> <i_epik_Tot_Q>
1

> <i_epik_Tot_abs_Q>
1

> <r_epik_Metal_State_Penalty>
-0

> <b_epik_Metal_Only>
0

> <s_lp_Force_Field>
OPLS_2005

> <r_lp_Energy>
44.7682

> <b_lp_Chiralities_Consistent>
1

> <s_lp_Variant>
AV-unprocessed.smi:557-5

> <Gold.Version>
5.8.1

> <Gold.Id.Protein>
6NUR|6NUR_protein|mol2

> <Gold.PLP.Fitness>
49.0748

> <Gold.PLP.PLP>
-41.4892

> <Gold.PLP.part.hbond>
-3.9734

> <Gold.PLP.part.metal>
0.0000

> <Gold.PLP.part.buried>
-1.8709

> <Gold.PLP.part.nonpolar>
-36.4745

> <Gold.PLP.part.repulsive>
0.1888

> <Gold.PLP.ligand.clash>
0.0000

> <Gold.PLP.ligand.torsion>
0.3810

> <Gold.PLP.Chemscore.Hbond>
2.0320

> <Gold.PLP.Chemscore.CHOScore>
0.7443

> <Gold.PLP.Chemscore.Metal>
0.0000

> <Gold.Chemscore.Hbonds>
donor molecule, donor type, donor heavy atom, donor atom, acceptor molecule, acceptor atom, score
      L1  H     7    30       P1  7948  0.38
      L1  H    10    31       P1  7948  0.55
      L1  H    14    47       P1 10747  1.00
      L1  C     3    25       P1  7948  0.27
      L1  C     3    25       P1  7957  0.44

> <Gold.PLP.Chemscore.Internal.Correction>
0.0186

> <Gold.Rescore>
     Score         DG    S(hbond)    S(metal)    S(lipo)     H(rot)  DE(clash)    DE(int)     intcor
     15.66     -16.01       0.99        0.00      96.74       1.60       0.08       0.27       ----

> <Gold.Chemscore.Fitness>
15.6560

> <Gold.Chemscore.DG>
-16.0092

> <Gold.Chemscore.ZeroCoef>
-5.4800

> <Gold.Chemscore.Hbond>
0.9915

> <Gold.Chemscore.Metal>
0.0000

> <Gold.Chemscore.Lipo>
96.7366

> <Gold.Chemscore.Internal_Hbond>
0.0000

> <Gold.Chemscore.DEClash>
0.0807

> <Gold.Chemscore.DEInternal>
0.2724

> <Gold.Chemscore.Rot>
1.6018

> <Gold.Chemscore.Internal.Correction>
   9.000000E+99

> <Gold.Chemscore.Hbonds>
donor molecule, donor type, donor heavy atom, donor atom, acceptor molecule, acceptor atom, score
      L1  H     7    30       P1  7948  0.01
      L1  H    10    31       P1  7948  0.03
      L1  H    14    47       P1 10747  0.98

> <Gold.Chemscore.Hbond.Weighted>
-3.3116

> <Gold.Chemscore.Metal.Weighted>
-0.0000

> <Gold.Chemscore.Lipo.Weighted>
-11.3182

> <Gold.Chemscore.Internal_Hbond.Weighted>
0.0000

> <Gold.Chemscore.DEClash.Weighted>
0.0807

> <Gold.Chemscore.DEInternal.Weighted>
0.2724

> <Gold.Chemscore.Rot.Weighted>
4.1006

> <Gold.Chemscore.Internal.Correction.Weighted>
   9.000000E+99

> <Gold.Protein.RotatedTorsions>
[ 6907 6896 6895 6894 ] final  152.72 input  -60.11 | X-H torsion
[ 7974 7965 7964 7962 ] final   80.14 input  175.53 | X-H torsion
[ 8008 7997 7996 7995 ] final  -66.11 input   59.86 | X-H torsion
[ 10167 10162 10161 10158 ] final  -84.93 input  -65.29 | X-H torsion
[ 10718 10713 10712 10709 ] final  -69.82 input   66.30 | X-H torsion
[ 10763 10752 10751 10750 ] final   84.96 input  -60.55 | X-H torsion
[ 11005 11000 10999 10996 ] final  -34.50 input  -57.11 | X-H torsion

> <Gold.Protein.ActiveResidues>
 VAL166  LYS551  ARG553  GLY616  TRP617  ASP618  TYR619  PRO620  LYS621  CYS622 
 ASP623  PHE694  ASN695  SER759  ASP760  ASP761  ALA762  ILE779  LEU786  VAL792 
 PHE793  MET794  SER795  GLU796  ALA797  LYS798  CYS799  TRP800  GLU811  SER814 

> <Gold.Protein.RotatedAtoms>
  152.0828  133.4161  159.4508 H   0  0  0  0  0  0  0  0  0  0  0  0  # atno 6907 bound_to 6896
  150.6862  134.2962  159.4696 H   0  0  0  0  0  0  0  0  0  0  0  0  # atno 6908 bound_to 6896
  152.0805  134.9473  160.0624 H   0  0  0  0  0  0  0  0  0  0  0  0  # atno 6909 bound_to 6896
  145.6551  139.2457  143.1954 H   0  0  0  0  0  0  0  0  0  0  0  0  # atno 7974 bound_to 7965
  154.4714  140.0919  156.7154 H   0  0  0  0  0  0  0  0  0  0  0  0  # atno 8008 bound_to 7997
  155.4714  140.3464  155.4308 H   0  0  0  0  0  0  0  0  0  0  0  0  # atno 8009 bound_to 7997
  156.1045  140.1431  156.9411 H   0  0  0  0  0  0  0  0  0  0  0  0  # atno 8010 bound_to 7997
  140.4085  143.2632  151.9049 H   0  0  0  0  0  0  0  0  0  0  0  0  # atno 10167 bound_to 10162
  156.0437  130.4320  150.2204 H   0  0  0  0  0  0  0  0  0  0  0  0  # atno 10718 bound_to 10713
  153.1430  135.4635  154.9524 H   0  0  0  0  0  0  0  0  0  0  0  0  # atno 10763 bound_to 10752
  154.7763  135.3174  154.8087 H   0  0  0  0  0  0  0  0  0  0  0  0  # atno 10764 bound_to 10752
  153.8606  135.6913  153.4837 H   0  0  0  0  0  0  0  0  0  0  0  0  # atno 10765 bound_to 10752
  140.9721  133.7103  156.1541 H   0  0  0  0  0  0  0  0  0  0  0  0  # atno 11005 bound_to 11000
  146.1171  140.7355  142.9475 LP  0  0  0  0  0  0  0  0  0  0  0  0  # atno 17320 bound_to 7965
  144.7108  140.4033  143.7082 LP  0  0  0  0  0  0  0  0  0  0  0  0  # atno 17321 bound_to 7965
  139.4783  144.5561  151.8312 LP  0  0  0  0  0  0  0  0  0  0  0  0  # atno 17342 bound_to 10162
  140.4663  144.1650  150.5912 LP  0  0  0  0  0  0  0  0  0  0  0  0  # atno 17343 bound_to 10162
  157.0296  131.0003  151.3316 LP  0  0  0  0  0  0  0  0  0  0  0  0  # atno 17370 bound_to 10713
  157.5287  130.8044  149.7891 LP  0  0  0  0  0  0  0  0  0  0  0  0  # atno 17371 bound_to 10713
  140.7313  134.4251  157.5565 LP  0  0  0  0  0  0  0  0  0  0  0  0  # atno 17394 bound_to 11000
  139.8916  134.8775  156.2311 LP  0  0  0  0  0  0  0  0  0  0  0  0  # atno 17395 bound_to 11000

$$$$
