AV-unprocessed.smi:207|AV-procd|sdf|1602|dock6
  -GOLD-   2262019513D 1   1.00000     0.00000
 Structure written by MMmdl.
 55 58  0  0  0  0  0  0  0  0  1 V2000
  147.0517  142.3793  153.8002 C   0  0  0  0  0  0  0  0  0  0  0  0
  147.4062  141.0233  154.4443 C   0  0  0  0  0  0  0  0  0  0  0  0
  146.9093  141.0779  155.9142 C   0  0  0  0  0  0  0  0  0  0  0  0
  146.5613  139.9652  153.6853 C   0  0  0  0  0  0  0  0  0  0  0  0
  146.8561  138.6061  154.1417 N   0  0  0  0  0  0  0  0  0  0  0  0
  146.0104  137.6121  153.7694 C   0  0  0  0  0  0  0  0  0  0  0  0
  145.1304  137.0941  154.6681 N   0  0  0  0  0  0  0  0  0  0  0  0
  144.2845  136.1260  154.3044 C   0  0  0  0  0  0  0  0  0  0  0  0
  144.1545  135.5358  153.1151 N   0  0  0  0  0  0  0  0  0  0  0  0
  145.0423  136.0399  152.2115 C   0  0  0  0  0  0  0  0  0  0  0  0
  145.9938  137.0716  152.4524 C   0  0  0  0  0  0  0  0  0  0  0  0
  146.7258  137.3176  151.2971 N   0  0  0  0  0  0  0  0  0  0  0  0
  146.2286  136.4879  150.4216 C   0  0  0  0  0  0  0  0  0  0  0  0
  145.2204  135.6738  150.8882 N   0  0  0  0  0  0  0  0  0  0  0  0
  144.4993  134.6633  150.1273 C   0  0  0  0  0  0  0  0  0  0  0  0
  144.8209  133.2089  150.5329 C   0  0  0  0  0  0  0  0  0  0  0  0
  143.7084  132.2501  150.0723 C   0  0  0  0  0  0  0  0  0  0  0  0
  143.3785  132.4562  148.7134 O   0  0  0  0  0  0  0  0  0  0  0  0
  146.2441  132.7224  150.2212 C   0  0  0  0  0  0  0  0  0  0  0  0
  146.4389  132.2527  151.5713 O   0  0  0  0  0  0  0  0  0  0  0  0
  145.2808  133.0081  151.9839 C   0  0  0  0  0  0  0  0  0  0  0  0
  148.2712  138.2672  154.0445 C   0  0  0  0  0  0  0  0  0  0  0  0
  149.1188  139.3216  154.7707 C   0  0  0  0  0  0  0  0  0  0  0  0
  148.8515  140.6842  154.2964 N   0  0  0  0  0  0  0  0  0  0  0  0
  149.8056  141.6407  154.8797 C   0  0  0  0  0  0  0  0  0  0  0  0
  149.8238  141.6862  156.4176 C   0  0  0  0  0  0  0  0  0  0  0  0
  150.3767  142.9127  156.8431 O   0  0  0  0  0  0  0  0  0  0  0  0
  145.9719  142.5283  153.7576 H   0  0  0  0  0  0  0  0  0  0  0  0
  147.4270  142.4474  152.7785 H   0  0  0  0  0  0  0  0  0  0  0  0
  147.4536  143.2166  154.3704 H   0  0  0  0  0  0  0  0  0  0  0  0
  145.8388  141.2822  155.9527 H   0  0  0  0  0  0  0  0  0  0  0  0
  147.3939  141.8658  156.4892 H   0  0  0  0  0  0  0  0  0  0  0  0
  147.0622  140.1408  156.4482 H   0  0  0  0  0  0  0  0  0  0  0  0
  145.4982  140.1720  153.8191 H   0  0  0  0  0  0  0  0  0  0  0  0
  146.7629  140.0272  152.6144 H   0  0  0  0  0  0  0  0  0  0  0  0
  143.6170  135.7739  155.0771 H   0  0  0  0  0  0  0  0  0  0  0  0
  146.5925  136.4423  149.4055 H   0  0  0  0  0  0  0  0  0  0  0  0
  143.4329  134.8643  150.2366 H   0  0  0  0  0  0  0  0  0  0  0  0
  144.7149  134.8177  149.0692 H   0  0  0  0  0  0  0  0  0  0  0  0
  143.9854  131.2062  150.2212 H   0  0  0  0  0  0  0  0  0  0  0  0
  142.8027  132.4058  150.6597 H   0  0  0  0  0  0  0  0  0  0  0  0
  142.7723  133.1786  148.6567 H   0  0  0  0  0  0  0  0  0  0  0  0
  146.2897  131.9204  149.4834 H   0  0  0  0  0  0  0  0  0  0  0  0
  146.9475  133.5189  149.9744 H   0  0  0  0  0  0  0  0  0  0  0  0
  145.5606  133.9325  152.4922 H   0  0  0  0  0  0  0  0  0  0  0  0
  144.5925  132.4219  152.5943 H   0  0  0  0  0  0  0  0  0  0  0  0
  148.4772  137.2849  154.4679 H   0  0  0  0  0  0  0  0  0  0  0  0
  148.5524  138.2230  152.9913 H   0  0  0  0  0  0  0  0  0  0  0  0
  148.9654  139.2535  155.8477 H   0  0  0  0  0  0  0  0  0  0  0  0
  150.1682  139.0761  154.6038 H   0  0  0  0  0  0  0  0  0  0  0  0
  150.8110  141.4756  154.4961 H   0  0  0  0  0  0  0  0  0  0  0  0
  149.5465  142.6488  154.5526 H   0  0  0  0  0  0  0  0  0  0  0  0
  148.8100  141.6037  156.8105 H   0  0  0  0  0  0  0  0  0  0  0  0
  150.4057  140.8811  156.8593 H   0  0  0  0  0  0  0  0  0  0  0  0
  149.7735  143.6064  156.6234 H   0  0  0  0  0  0  0  0  0  0  0  0
  1  2  1  0  0  0  0
  1 28  1  0  0  0  0
  1 29  1  0  0  0  0
  1 30  1  0  0  0  0
  2 24  1  0  0  0  0
  2  3  1  0  0  0  0
  2  4  1  0  0  0  0
  3 31  1  0  0  0  0
  3 32  1  0  0  0  0
  3 33  1  0  0  0  0
  4  5  1  0  0  0  0
  4 34  1  0  0  0  0
  4 35  1  0  0  0  0
  5  6  1  0  0  0  0
  5 22  1  0  0  0  0
  6 11  1  0  0  0  0
  6  7  2  0  0  0  0
  7  8  1  0  0  0  0
  8  9  2  0  0  0  0
  8 36  1  0  0  0  0
  9 10  1  0  0  0  0
 10 14  1  0  0  0  0
 10 11  2  0  0  0  0
 11 12  1  0  0  0  0
 12 13  2  0  0  0  0
 13 14  1  0  0  0  0
 13 37  1  0  0  0  0
 14 15  1  0  0  0  0
 15 16  1  0  0  0  0
 15 38  1  0  0  0  0
 15 39  1  0  0  0  0
 16 21  1  0  0  0  0
 16 17  1  0  0  0  0
 16 19  1  0  0  0  0
 17 18  1  0  0  0  0
 17 40  1  0  0  0  0
 17 41  1  0  0  0  0
 18 42  1  0  0  0  0
 19 20  1  0  0  0  0
 19 43  1  0  0  0  0
 19 44  1  0  0  0  0
 20 21  1  0  0  0  0
 21 45  1  0  0  0  0
 21 46  1  0  0  0  0
 22 23  1  0  0  0  0
 22 47  1  0  0  0  0
 22 48  1  0  0  0  0
 23 24  1  0  0  0  0
 23 49  1  0  0  0  0
 23 50  1  0  0  0  0
 24 25  1  0  0  0  0
 25 26  1  0  0  0  0
 25 51  1  0  0  0  0
 25 52  1  0  0  0  0
 26 27  1  0  0  0  0
 26 53  1  0  0  0  0
 26 54  1  0  0  0  0
 27 55  1  0  0  0  0
M  END
> <s_m_source_file>
AV-unprocessed.smi

> <i_m_source_file_index>
207

> <i_lp_mmshare_version>
43012

> <i_f3d_flags>
0

> <s_epik_input>
W09IXVtDSDJdW0NIMl1OMVtDSDJdW0NIMl1OKFtDSDJdQzEoW0NIM10pW0NIM10pYyhuW2NIXW4yKWMoYzIzKW5bY0hdbjNbQ0gyXUM0KFtDSDJdW09IXSlbQ0gyXU9bQ0gyXTQ=

> <s_epik_cmdline>
J2VwaWtfcHl0aG9uJywgJy1waCcsICc3LjAnLCAnLXRuJywgJzgnLCAnLW1hJywgJzIwMCcsICctbWV0YWxfYmluZGluZycsICctaW1hZScsICc8aW5maWxlLm1hZT4nLCAnLW9tYWUnLCAnPG91dGZpbGUubWFlPic=

> <r_lp_tautomer_probability>
1

> <r_epik_Ionization_Penalty>
0.411763

> <r_epik_Ionization_Penalty_Charging>
0

> <r_epik_Ionization_Penalty_Neutral>
0.411763

> <r_epik_State_Penalty>
0.407012

> <r_epik_Charging_Adjusted_Penalty>
0.407012

> <i_epik_Tot_Q>
0

> <i_epik_Tot_abs_Q>
0

> <r_epik_Metal_State_Penalty>
0.401279

> <b_epik_Metal_Only>
0

> <s_lp_Force_Field>
OPLS_2005

> <r_lp_Energy>
76.2772

> <b_lp_Chiralities_Consistent>
1

> <s_lp_Variant>
AV-unprocessed.smi:207-1

> <Gold.Version>
5.8.1

> <Gold.Id.Protein>
6NUR|6NUR_protein|mol2

> <Gold.PLP.Fitness>
43.4723

> <Gold.PLP.PLP>
-34.9103

> <Gold.PLP.part.hbond>
-3.0838

> <Gold.PLP.part.metal>
0.0000

> <Gold.PLP.part.buried>
-2.9560

> <Gold.PLP.part.nonpolar>
-31.4980

> <Gold.PLP.part.repulsive>
3.2432

> <Gold.PLP.ligand.clash>
0.0000

> <Gold.PLP.ligand.torsion>
0.9199

> <Gold.PLP.Chemscore.Hbond>
2.2283

> <Gold.PLP.Chemscore.CHOScore>
1.0000

> <Gold.PLP.Chemscore.Metal>
0.0000

> <Gold.Chemscore.Hbonds>
donor molecule, donor type, donor heavy atom, donor atom, acceptor molecule, acceptor atom, score
      L1  H    18    42       P1 10186  0.26
      L1  H    27    55       P1  8028  1.00
      P1  H  7954  7966       L1    12  0.35
      P1  H 10785 10796       L1    18  0.04
      L1  C    13    37       P1  7921  1.00

> <Gold.PLP.Chemscore.Internal.Correction>
0.7167

> <Gold.Rescore>
     Score         DG    S(hbond)    S(metal)    S(lipo)     H(rot)  DE(clash)    DE(int)     intcor
      9.14     -11.88       1.93        0.00      81.42       3.74       1.79       0.95       ----

> <Gold.Chemscore.Fitness>
9.1424

> <Gold.Chemscore.DG>
-11.8800

> <Gold.Chemscore.ZeroCoef>
-5.4800

> <Gold.Chemscore.Hbond>
1.9331

> <Gold.Chemscore.Metal>
0.0000

> <Gold.Chemscore.Lipo>
81.4178

> <Gold.Chemscore.Internal_Hbond>
0.0000

> <Gold.Chemscore.DEClash>
1.7862

> <Gold.Chemscore.DEInternal>
0.9514

> <Gold.Chemscore.Rot>
3.7432

> <Gold.Chemscore.Internal.Correction>
   9.000000E+99

> <Gold.Chemscore.Hbonds>
donor molecule, donor type, donor heavy atom, donor atom, acceptor molecule, acceptor atom, score
      L1  H    18    42       P1 10186  0.26
      L1  H    27    55       P1  8028  1.00
      P1  H  7954  7966       L1    12  0.01

> <Gold.Chemscore.Hbond.Weighted>
-6.4566

> <Gold.Chemscore.Metal.Weighted>
-0.0000

> <Gold.Chemscore.Lipo.Weighted>
-9.5259

> <Gold.Chemscore.Internal_Hbond.Weighted>
0.0000

> <Gold.Chemscore.DEClash.Weighted>
1.7862

> <Gold.Chemscore.DEInternal.Weighted>
0.9514

> <Gold.Chemscore.Rot.Weighted>
9.5825

> <Gold.Chemscore.Internal.Correction.Weighted>
   9.000000E+99

> <Gold.Protein.RotatedTorsions>
[ 6907 6896 6895 6894 ] final   74.62 input  -60.11 | X-H torsion
[ 7974 7965 7964 7962 ] final   86.92 input  175.53 | X-H torsion
[ 8008 7997 7996 7995 ] final  -70.51 input   59.86 | X-H torsion
[ 10167 10162 10161 10158 ] final   14.05 input  -65.29 | X-H torsion
[ 10718 10713 10712 10709 ] final  175.23 input   66.30 | X-H torsion
[ 10763 10752 10751 10750 ] final  161.43 input  -60.55 | X-H torsion
[ 11005 11000 10999 10996 ] final -172.17 input  -57.11 | X-H torsion

> <Gold.Protein.ActiveResidues>
 VAL166  LYS551  ARG553  GLY616  TRP617  ASP618  TYR619  PRO620  LYS621  CYS622 
 ASP623  PHE694  ASN695  SER759  ASP760  ASP761  ALA762  ILE779  LEU786  VAL792 
 PHE793  MET794  SER795  GLU796  ALA797  LYS798  CYS799  TRP800  GLU811  SER814 

> <Gold.Protein.RotatedAtoms>
  152.4985  134.4244  159.9491 H   0  0  0  0  0  0  0  0  0  0  0  0  # atno 6907 bound_to 6896
  151.4219  133.3689  159.2765 H   0  0  0  0  0  0  0  0  0  0  0  0  # atno 6908 bound_to 6896
  150.9216  134.8656  159.7552 H   0  0  0  0  0  0  0  0  0  0  0  0  # atno 6909 bound_to 6896
  145.5658  139.2308  143.2434 H   0  0  0  0  0  0  0  0  0  0  0  0  # atno 7974 bound_to 7965
  154.5017  140.0833  156.7812 H   0  0  0  0  0  0  0  0  0  0  0  0  # atno 8008 bound_to 7997
  155.3987  140.3436  155.4237 H   0  0  0  0  0  0  0  0  0  0  0  0  # atno 8009 bound_to 7997
  156.1465  140.1545  156.8826 H   0  0  0  0  0  0  0  0  0  0  0  0  # atno 8010 bound_to 7997
  140.5962  143.8698  150.6920 H   0  0  0  0  0  0  0  0  0  0  0  0  # atno 10167 bound_to 10162
  156.9380  130.9992  151.2974 H   0  0  0  0  0  0  0  0  0  0  0  0  # atno 10718 bound_to 10713
  154.2628  135.2768  155.2771 H   0  0  0  0  0  0  0  0  0  0  0  0  # atno 10763 bound_to 10752
  154.5369  135.5713  153.6810 H   0  0  0  0  0  0  0  0  0  0  0  0  # atno 10764 bound_to 10752
  152.9959  135.6241  154.2779 H   0  0  0  0  0  0  0  0  0  0  0  0  # atno 10765 bound_to 10752
  140.5000  134.5903  157.4984 H   0  0  0  0  0  0  0  0  0  0  0  0  # atno 11005 bound_to 11000
  146.1819  140.6484  142.9185 LP  0  0  0  0  0  0  0  0  0  0  0  0  # atno 17320 bound_to 7965
  144.7461  140.5071  143.6835 LP  0  0  0  0  0  0  0  0  0  0  0  0  # atno 17321 bound_to 7965
  140.2232  143.3792  152.1626 LP  0  0  0  0  0  0  0  0  0  0  0  0  # atno 17342 bound_to 10162
  139.5259  144.7102  151.5230 LP  0  0  0  0  0  0  0  0  0  0  0  0  # atno 17343 bound_to 10162
  157.5804  130.8372  149.8514 LP  0  0  0  0  0  0  0  0  0  0  0  0  # atno 17370 bound_to 10713
  156.0417  130.3737  150.1418 LP  0  0  0  0  0  0  0  0  0  0  0  0  # atno 17371 bound_to 10713
  139.9719  134.7279  156.0025 LP  0  0  0  0  0  0  0  0  0  0  0  0  # atno 17394 bound_to 11000
  141.1440  133.6559  156.3814 LP  0  0  0  0  0  0  0  0  0  0  0  0  # atno 17395 bound_to 11000

$$$$
