AV-unprocessed.smi:1308|AV-procd|sdf|5441|dock3
  -GOLD-   22720 5 03D 1   1.00000     0.00000
 Structure written by MMmdl.
 45 45  0  0  0  0  0  0  0  0  1 V2000
  146.8236  135.8981  154.8681 C   0  0  0  0  0  0  0  0  0  0  0  0
  148.0994  136.7090  154.9353 C   0  0  0  0  0  0  0  0  0  0  0  0
  147.9199  138.0531  154.6529 N   0  0  0  0  0  0  0  0  0  0  0  0
  149.0302  138.8780  154.6967 C   0  0  0  0  0  0  0  0  0  0  0  0
  148.7472  140.3355  154.3756 C   0  0  0  0  0  0  0  0  0  0  0  0
  150.2582  138.3867  155.0022 C   0  0  0  0  0  0  0  0  0  0  0  0
  151.5089  139.2634  155.0610 C   0  0  0  0  0  0  0  0  0  0  0  0
  152.1867  139.3883  156.4279 C   0  0  0  0  0  0  0  0  0  0  0  0
  153.3112  138.9229  156.6141 O   0  0  0  0  0  0  0  0  0  0  0  0
  151.4824  140.0371  157.3706 N   0  0  0  0  0  0  0  0  0  0  0  0
  151.9023  140.3474  158.7397 C   0  0  1  0  0  0  0  0  0  0  0  0
  152.6299  139.1603  159.3956 C   0  0  0  0  0  0  0  0  0  0  0  0
  152.7120  141.6603  158.8362 C   0  0  0  0  0  0  0  0  0  0  0  0
  153.3784  141.8835  160.2088 C   0  0  0  0  0  0  0  0  0  0  0  0
  152.4885  142.6228  161.2286 C   0  0  0  0  0  0  0  0  0  0  0  0
  152.1288  144.0472  160.7730 C   0  0  0  0  0  0  0  0  0  0  0  0
  153.1614  142.6596  162.6094 C   0  0  0  0  0  0  0  0  0  0  0  0
  150.3894  136.9377  155.2839 C   0  0  0  0  0  0  0  0  0  0  0  0
  151.4779  136.4290  155.5492 O   0  0  0  0  0  0  0  0  0  0  0  0
  149.2304  136.1462  155.2353 N   0  0  0  0  0  0  0  0  0  0  0  0
  147.0252  138.4590  154.4199 H   0  0  0  0  0  0  0  0  0  0  0  0
  147.0198  134.8440  155.0682 H   0  0  0  0  0  0  0  0  0  0  0  0
  146.3732  135.9780  153.8783 H   0  0  0  0  0  0  0  0  0  0  0  0
  146.1059  136.2567  155.6066 H   0  0  0  0  0  0  0  0  0  0  0  0
  149.3442  140.6629  153.5241 H   0  0  0  0  0  0  0  0  0  0  0  0
  148.9883  140.9683  155.2298 H   0  0  0  0  0  0  0  0  0  0  0  0
  147.6972  140.4955  154.1273 H   0  0  0  0  0  0  0  0  0  0  0  0
  151.2933  140.2655  154.6890 H   0  0  0  0  0  0  0  0  0  0  0  0
  152.2411  138.8593  154.3612 H   0  0  0  0  0  0  0  0  0  0  0  0
  150.5677  140.3725  157.1055 H   0  0  0  0  0  0  0  0  0  0  0  0
  150.9770  140.4965  159.2971 H   0  0  0  0  0  0  0  0  0  0  0  0
  152.8108  139.3533  160.4533 H   0  0  0  0  0  0  0  0  0  0  0  0
  153.5967  138.9675  158.9302 H   0  0  0  0  0  0  0  0  0  0  0  0
  152.0374  138.2475  159.3260 H   0  0  0  0  0  0  0  0  0  0  0  0
  153.4780  141.6416  158.0614 H   0  0  0  0  0  0  0  0  0  0  0  0
  152.0735  142.5121  158.6004 H   0  0  0  0  0  0  0  0  0  0  0  0
  153.6466  140.9132  160.6282 H   0  0  0  0  0  0  0  0  0  0  0  0
  154.3168  142.4242  160.0795 H   0  0  0  0  0  0  0  0  0  0  0  0
  151.5601  142.0607  161.3388 H   0  0  0  0  0  0  0  0  0  0  0  0
  153.0238  144.6469  160.6042 H   0  0  0  0  0  0  0  0  0  0  0  0
  151.5262  144.5573  161.5250 H   0  0  0  0  0  0  0  0  0  0  0  0
  151.5498  144.0435  159.8500 H   0  0  0  0  0  0  0  0  0  0  0  0
  154.1082  143.1996  162.5747 H   0  0  0  0  0  0  0  0  0  0  0  0
  153.3650  141.6532  162.9769 H   0  0  0  0  0  0  0  0  0  0  0  0
  152.5245  143.1523  163.3446 H   0  0  0  0  0  0  0  0  0  0  0  0
  1 22  1  0  0  0  0
  1 23  1  0  0  0  0
  1 24  1  0  0  0  0
  1  2  1  0  0  0  0
  2  3  1  0  0  0  0
  2 20  2  0  0  0  0
  3  4  1  0  0  0  0
  3 21  1  0  0  0  0
  4  6  2  0  0  0  0
  4  5  1  0  0  0  0
  5 25  1  0  0  0  0
  5 26  1  0  0  0  0
  5 27  1  0  0  0  0
  6 18  1  0  0  0  0
  6  7  1  0  0  0  0
  7  8  1  0  0  0  0
  7 28  1  0  0  0  0
  7 29  1  0  0  0  0
  8  9  2  0  0  0  0
  8 10  1  0  0  0  0
 10 11  1  0  0  0  0
 10 30  1  0  0  0  0
 11 12  1  0  0  0  0
 11 13  1  0  0  0  0
 11 31  1  0  0  0  0
 12 32  1  0  0  0  0
 12 33  1  0  0  0  0
 12 34  1  0  0  0  0
 13 14  1  0  0  0  0
 13 35  1  0  0  0  0
 13 36  1  0  0  0  0
 14 15  1  0  0  0  0
 14 37  1  0  0  0  0
 14 38  1  0  0  0  0
 15 16  1  0  0  0  0
 15 17  1  0  0  0  0
 15 39  1  0  0  0  0
 16 40  1  0  0  0  0
 16 41  1  0  0  0  0
 16 42  1  0  0  0  0
 17 43  1  0  0  0  0
 17 44  1  0  0  0  0
 17 45  1  0  0  0  0
 18 19  2  0  0  0  0
 18 20  1  0  0  0  0
M  END
> <s_m_source_file>
AV-unprocessed.smi

> <i_m_source_file_index>
1308

> <i_lp_mmshare_version>
43012

> <i_f3d_flags>
0

> <s_epik_input>
W0NIM11jMW5jKFtDSDNdKWMoYyg9TylbbkhdMSlbQ0gyXUMoPU8pW05IXVtDQEhdKFtDSDNdKVtDSDJdW0NIMl1bQ0hdKFtDSDNdKVtDSDNd

> <s_epik_cmdline>
J2VwaWtfcHl0aG9uJywgJy1waCcsICc3LjAnLCAnLXRuJywgJzgnLCAnLW1hJywgJzIwMCcsICctbWV0YWxfYmluZGluZycsICctaW1hZScsICc8aW5maWxlLm1hZT4nLCAnLW9tYWUnLCAnPG91dGZpbGUubWFlPic=

> <r_lp_tautomer_probability>
0.156392

> <r_epik_Ionization_Penalty>
0.0141156

> <r_epik_Ionization_Penalty_Charging>
0.0139937

> <r_epik_Ionization_Penalty_Neutral>
0.00012188

> <r_epik_State_Penalty>
1.52994

> <r_epik_Charging_Adjusted_Penalty>
1.54393

> <i_epik_Tot_Q>
0

> <i_epik_Tot_abs_Q>
0

> <r_epik_Metal_State_Penalty>
1.70663

> <b_epik_Metal_Only>
0

> <s_lp_Force_Field>
OPLS_2005

> <r_lp_Energy>
10.3869

> <b_lp_Chiralities_Consistent>
1

> <s_lp_Variant>
AV-unprocessed.smi:1308-4

> <Gold.Version>
5.8.1

> <Gold.Id.Protein>
6NUR|6NUR_protein|mol2

> <Gold.PLP.Fitness>
41.8705

> <Gold.PLP.PLP>
-37.0776

> <Gold.PLP.part.hbond>
-1.7841

> <Gold.PLP.part.metal>
0.0000

> <Gold.PLP.part.buried>
-3.8700

> <Gold.PLP.part.nonpolar>
-31.5940

> <Gold.PLP.part.repulsive>
0.2816

> <Gold.PLP.ligand.clash>
0.0000

> <Gold.PLP.ligand.torsion>
0.6445

> <Gold.PLP.Chemscore.Hbond>
2.0000

> <Gold.PLP.Chemscore.CHOScore>
0.0000

> <Gold.PLP.Chemscore.Metal>
0.0000

> <Gold.Chemscore.Hbonds>
donor molecule, donor type, donor heavy atom, donor atom, acceptor molecule, acceptor atom, score
      P1  H  7997  8010       L1     9  1.00
      P1  H 10752 10763       L1    19  1.00

> <Gold.PLP.Chemscore.Internal.Correction>
0.0820

> <Gold.Rescore>
     Score         DG    S(hbond)    S(metal)    S(lipo)     H(rot)  DE(clash)    DE(int)     intcor
     15.59     -17.48       1.96        0.00      89.90       1.98       0.01       1.88       ----

> <Gold.Chemscore.Fitness>
15.5872

> <Gold.Chemscore.DG>
-17.4774

> <Gold.Chemscore.ZeroCoef>
-5.4800

> <Gold.Chemscore.Hbond>
1.9632

> <Gold.Chemscore.Metal>
0.0000

> <Gold.Chemscore.Lipo>
89.8983

> <Gold.Chemscore.Internal_Hbond>
0.0000

> <Gold.Chemscore.DEClash>
0.0141

> <Gold.Chemscore.DEInternal>
1.8762

> <Gold.Chemscore.Rot>
1.9835

> <Gold.Chemscore.Internal.Correction>
   9.000000E+99

> <Gold.Chemscore.Hbonds>
donor molecule, donor type, donor heavy atom, donor atom, acceptor molecule, acceptor atom, score
      P1  H  7997  8010       L1     9  0.56
      P1  H 10752 10763       L1    19  0.95

> <Gold.Chemscore.Hbond.Weighted>
-6.5571

> <Gold.Chemscore.Metal.Weighted>
-0.0000

> <Gold.Chemscore.Lipo.Weighted>
-10.5181

> <Gold.Chemscore.Internal_Hbond.Weighted>
0.0000

> <Gold.Chemscore.DEClash.Weighted>
0.0141

> <Gold.Chemscore.DEInternal.Weighted>
1.8762

> <Gold.Chemscore.Rot.Weighted>
5.0778

> <Gold.Chemscore.Internal.Correction.Weighted>
   9.000000E+99

> <Gold.Protein.RotatedTorsions>
[ 6907 6896 6895 6894 ] final   84.06 input  -60.11 | X-H torsion
[ 7974 7965 7964 7962 ] final  158.83 input  175.53 | X-H torsion
[ 8008 7997 7996 7995 ] final   77.09 input   59.86 | X-H torsion
[ 10167 10162 10161 10158 ] final    4.95 input  -65.29 | X-H torsion
[ 10718 10713 10712 10709 ] final  -28.21 input   66.30 | X-H torsion
[ 10763 10752 10751 10750 ] final   51.60 input  -60.55 | X-H torsion
[ 11005 11000 10999 10996 ] final   -4.28 input  -57.11 | X-H torsion

> <Gold.Protein.ActiveResidues>
 VAL166  LYS551  ARG553  GLY616  TRP617  ASP618  TYR619  PRO620  LYS621  CYS622 
 ASP623  PHE694  ASN695  SER759  ASP760  ASP761  ALA762  ILE779  LEU786  VAL792 
 PHE793  MET794  SER795  GLU796  ALA797  LYS798  CYS799  TRP800  GLU811  SER814 

> <Gold.Protein.RotatedAtoms>
  152.5343  134.2799  159.9003 H   0  0  0  0  0  0  0  0  0  0  0  0  # atno 6907 bound_to 6896
  151.2754  133.4228  159.2631 H   0  0  0  0  0  0  0  0  0  0  0  0  # atno 6908 bound_to 6896
  151.0331  134.9568  159.8178 H   0  0  0  0  0  0  0  0  0  0  0  0  # atno 6909 bound_to 6896
  144.7824  139.7533  143.6254 H   0  0  0  0  0  0  0  0  0  0  0  0  # atno 7974 bound_to 7965
  155.8367  140.3464  155.5606 H   0  0  0  0  0  0  0  0  0  0  0  0  # atno 8008 bound_to 7997
  155.8184  140.0909  157.1883 H   0  0  0  0  0  0  0  0  0  0  0  0  # atno 8009 bound_to 7997
  154.4004  140.1434  156.3458 H   0  0  0  0  0  0  0  0  0  0  0  0  # atno 8010 bound_to 7997
  140.6508  143.7550  150.7571 H   0  0  0  0  0  0  0  0  0  0  0  0  # atno 10167 bound_to 10162
  156.4281  130.4439  149.7136 H   0  0  0  0  0  0  0  0  0  0  0  0  # atno 10718 bound_to 10713
  152.9786  135.5840  154.4442 H   0  0  0  0  0  0  0  0  0  0  0  0  # atno 10763 bound_to 10752
  154.4039  135.2769  155.2081 H   0  0  0  0  0  0  0  0  0  0  0  0  # atno 10764 bound_to 10752
  154.3900  135.6127  153.5892 H   0  0  0  0  0  0  0  0  0  0  0  0  # atno 10765 bound_to 10752
  140.6786  133.9173  155.8540 H   0  0  0  0  0  0  0  0  0  0  0  0  # atno 11005 bound_to 11000
  146.2038  139.5350  142.9726 LP  0  0  0  0  0  0  0  0  0  0  0  0  # atno 17320 bound_to 7965
  145.6015  141.0354  143.2016 LP  0  0  0  0  0  0  0  0  0  0  0  0  # atno 17321 bound_to 7965
  140.1200  143.4620  152.2318 LP  0  0  0  0  0  0  0  0  0  0  0  0  # atno 17342 bound_to 10162
  139.5723  144.7469  151.3859 LP  0  0  0  0  0  0  0  0  0  0  0  0  # atno 17343 bound_to 10162
  156.4050  130.7694  151.2704 LP  0  0  0  0  0  0  0  0  0  0  0  0  # atno 17370 bound_to 10713
  157.7508  131.0228  150.3809 LP  0  0  0  0  0  0  0  0  0  0  0  0  # atno 17371 bound_to 10713
  141.0336  134.0722  157.3986 LP  0  0  0  0  0  0  0  0  0  0  0  0  # atno 17394 bound_to 11000
  139.8959  135.0143  156.7024 LP  0  0  0  0  0  0  0  0  0  0  0  0  # atno 17395 bound_to 11000

$$$$
