AV-unprocessed.smi:393|AV-procd|sdf|2484|dock7
  -GOLD-   2262022423D 1   1.00000     0.00000
 Structure written by MMmdl.
 43 44  0  0  0  0  0  0  0  0  1 V2000
  143.9514  145.7742  153.9117 C   0  0  0  0  0  0  0  0  0  0  0  0
  143.7785  144.8625  155.1313 C   0  0  0  0  0  0  0  0  0  0  0  0
  144.4348  143.4881  154.9369 C   0  0  0  0  0  0  0  0  0  0  0  0
  145.9582  143.5857  154.7452 C   0  0  0  0  0  0  0  0  0  0  0  0
  146.6043  142.2112  154.5591 C   0  0  0  0  0  0  0  0  0  0  0  0
  145.9047  141.1995  154.5086 O   0  0  0  0  0  0  0  0  0  0  0  0
  147.9414  142.1881  154.4495 N   0  0  0  0  0  0  0  0  0  0  0  0
  148.7390  140.9892  154.2105 C   0  0  0  0  0  0  0  0  0  0  0  0
  149.9026  140.7942  155.1754 C   0  0  0  0  0  0  0  0  0  0  0  0
  150.7642  139.6924  155.0115 C   0  0  0  0  0  0  0  0  0  0  0  0
  151.8356  139.5378  155.9099 C   0  0  0  0  0  0  0  0  0  0  0  0
  152.0768  140.3899  156.9277 N   0  0  0  0  0  0  0  0  0  0  0  0
  151.2474  141.4473  157.1079 C   0  0  0  0  0  0  0  0  0  0  0  0
  151.5109  142.3300  158.1780 N   0  0  0  0  0  0  0  0  0  0  0  0
  152.4675  141.8560  159.1752 C   0  0  0  0  0  0  0  0  0  0  0  0
  152.4205  142.7477  160.4278 C   0  0  0  0  0  0  0  0  0  0  0  0
  152.6335  144.1067  160.0609 O   0  0  0  0  0  0  0  0  0  0  0  0
  151.6238  144.5793  159.1753 C   0  0  0  0  0  0  0  0  0  0  0  0
  151.6445  143.7543  157.8775 C   0  0  0  0  0  0  0  0  0  0  0  0
  150.1467  141.6805  156.2491 C   0  0  0  0  0  0  0  0  0  0  0  0
  143.4857  146.7450  154.0821 H   0  0  0  0  0  0  0  0  0  0  0  0
  143.4923  145.3361  153.0252 H   0  0  0  0  0  0  0  0  0  0  0  0
  145.0061  145.9448  153.6940 H   0  0  0  0  0  0  0  0  0  0  0  0
  144.2054  145.3513  156.0077 H   0  0  0  0  0  0  0  0  0  0  0  0
  142.7153  144.7337  155.3366 H   0  0  0  0  0  0  0  0  0  0  0  0
  144.2098  142.8580  155.7988 H   0  0  0  0  0  0  0  0  0  0  0  0
  143.9891  142.9959  154.0708 H   0  0  0  0  0  0  0  0  0  0  0  0
  146.1818  144.2179  153.8844 H   0  0  0  0  0  0  0  0  0  0  0  0
  146.4141  144.0661  155.6115 H   0  0  0  0  0  0  0  0  0  0  0  0
  148.4392  143.0645  154.5049 H   0  0  0  0  0  0  0  0  0  0  0  0
  148.0812  140.1237  154.2911 H   0  0  0  0  0  0  0  0  0  0  0  0
  149.1128  140.9983  153.1852 H   0  0  0  0  0  0  0  0  0  0  0  0
  150.6144  138.9833  154.2104 H   0  0  0  0  0  0  0  0  0  0  0  0
  152.5189  138.7078  155.8082 H   0  0  0  0  0  0  0  0  0  0  0  0
  152.2722  140.8255  159.4680 H   0  0  0  0  0  0  0  0  0  0  0  0
  153.4675  141.8777  158.7403 H   0  0  0  0  0  0  0  0  0  0  0  0
  151.4642  142.6441  160.9427 H   0  0  0  0  0  0  0  0  0  0  0  0
  153.1950  142.4450  161.1325 H   0  0  0  0  0  0  0  0  0  0  0  0
  150.6463  144.5215  159.6572 H   0  0  0  0  0  0  0  0  0  0  0  0
  151.8081  145.6306  158.9546 H   0  0  0  0  0  0  0  0  0  0  0  0
  152.5795  143.9242  157.3415 H   0  0  0  0  0  0  0  0  0  0  0  0
  150.8310  144.0820  157.2291 H   0  0  0  0  0  0  0  0  0  0  0  0
  149.5095  142.5390  156.3983 H   0  0  0  0  0  0  0  0  0  0  0  0
  1  2  1  0  0  0  0
  1 21  1  0  0  0  0
  1 22  1  0  0  0  0
  1 23  1  0  0  0  0
  2  3  1  0  0  0  0
  2 24  1  0  0  0  0
  2 25  1  0  0  0  0
  3  4  1  0  0  0  0
  3 26  1  0  0  0  0
  3 27  1  0  0  0  0
  4  5  1  0  0  0  0
  4 28  1  0  0  0  0
  4 29  1  0  0  0  0
  5  6  2  0  0  0  0
  5  7  1  0  0  0  0
  7  8  1  0  0  0  0
  7 30  1  0  0  0  0
  8  9  1  0  0  0  0
  8 31  1  0  0  0  0
  8 32  1  0  0  0  0
  9 20  1  0  0  0  0
  9 10  2  0  0  0  0
 10 11  1  0  0  0  0
 10 33  1  0  0  0  0
 11 12  2  0  0  0  0
 11 34  1  0  0  0  0
 12 13  1  0  0  0  0
 13 14  1  0  0  0  0
 13 20  2  0  0  0  0
 14 19  1  0  0  0  0
 14 15  1  0  0  0  0
 15 16  1  0  0  0  0
 15 35  1  0  0  0  0
 15 36  1  0  0  0  0
 16 17  1  0  0  0  0
 16 37  1  0  0  0  0
 16 38  1  0  0  0  0
 17 18  1  0  0  0  0
 18 19  1  0  0  0  0
 18 39  1  0  0  0  0
 18 40  1  0  0  0  0
 19 41  1  0  0  0  0
 19 42  1  0  0  0  0
 20 43  1  0  0  0  0
M  END
> <s_m_source_file>
AV-unprocessed.smi

> <i_m_source_file_index>
393

> <i_lp_mmshare_version>
43012

> <i_f3d_flags>
0

> <s_epik_input>
W0NIM11bQ0gyXVtDSDJdW0NIMl1DKD1PKVtOSF1bQ0gyXWMxW2NIXVtjSF1uYyhbY0hdMSlOMltDSDJdW0NIMl1PW0NIMl1bQ0gyXTI=

> <s_epik_cmdline>
J2VwaWtfcHl0aG9uJywgJy1waCcsICc3LjAnLCAnLXRuJywgJzgnLCAnLW1hJywgJzIwMCcsICctbWV0YWxfYmluZGluZycsICctaW1hZScsICc8aW5maWxlLm1hZT4nLCAnLW9tYWUnLCAnPG91dGZpbGUubWFlPic=

> <r_lp_tautomer_probability>
1

> <r_epik_Ionization_Penalty>
0.00585334

> <r_epik_Ionization_Penalty_Charging>
0

> <r_epik_Ionization_Penalty_Neutral>
0.00585334

> <r_epik_State_Penalty>
0.00430121

> <r_epik_Charging_Adjusted_Penalty>
0.00430121

> <i_epik_Tot_Q>
0

> <i_epik_Tot_abs_Q>
0

> <r_epik_Metal_State_Penalty>
-0

> <b_epik_Metal_Only>
0

> <s_lp_Force_Field>
OPLS_2005

> <r_lp_Energy>
14.3492

> <b_lp_Chiralities_Consistent>
1

> <s_lp_Variant>
AV-unprocessed.smi:393-1

> <Gold.Version>
5.8.1

> <Gold.Id.Protein>
6NUR|6NUR_protein|mol2

> <Gold.PLP.Fitness>
45.4864

> <Gold.PLP.PLP>
-41.9742

> <Gold.PLP.part.hbond>
-1.6442

> <Gold.PLP.part.metal>
0.0000

> <Gold.PLP.part.buried>
-2.7568

> <Gold.PLP.part.nonpolar>
-37.7372

> <Gold.PLP.part.repulsive>
0.4347

> <Gold.PLP.ligand.clash>
0.0000

> <Gold.PLP.ligand.torsion>
0.2510

> <Gold.PLP.Chemscore.Hbond>
1.2121

> <Gold.PLP.Chemscore.CHOScore>
0.0000

> <Gold.PLP.Chemscore.Metal>
0.0000

> <Gold.Chemscore.Hbonds>
donor molecule, donor type, donor heavy atom, donor atom, acceptor molecule, acceptor atom, score
      L1  H     7    30       P1  8028  0.94
      P1  H  7997  8009       L1    12  0.13

> <Gold.PLP.Chemscore.Internal.Correction>
0.3780

> <Gold.Rescore>
     Score         DG    S(hbond)    S(metal)    S(lipo)     H(rot)  DE(clash)    DE(int)     intcor
     15.89     -16.53       0.97        0.00     105.54       1.77       0.29       0.35       ----

> <Gold.Chemscore.Fitness>
15.8904

> <Gold.Chemscore.DG>
-16.5326

> <Gold.Chemscore.ZeroCoef>
-5.4800

> <Gold.Chemscore.Hbond>
0.9674

> <Gold.Chemscore.Metal>
0.0000

> <Gold.Chemscore.Lipo>
105.5436

> <Gold.Chemscore.Internal_Hbond>
0.0000

> <Gold.Chemscore.DEClash>
0.2885

> <Gold.Chemscore.DEInternal>
0.3537

> <Gold.Chemscore.Rot>
1.7684

> <Gold.Chemscore.Internal.Correction>
   9.000000E+99

> <Gold.Chemscore.Hbonds>
donor molecule, donor type, donor heavy atom, donor atom, acceptor molecule, acceptor atom, score
      L1  H     7    30       P1  8028  0.84
      P1  H  7997  8009       L1    12  0.01

> <Gold.Chemscore.Hbond.Weighted>
-3.2311

> <Gold.Chemscore.Metal.Weighted>
-0.0000

> <Gold.Chemscore.Lipo.Weighted>
-12.3486

> <Gold.Chemscore.Internal_Hbond.Weighted>
0.0000

> <Gold.Chemscore.DEClash.Weighted>
0.2885

> <Gold.Chemscore.DEInternal.Weighted>
0.3537

> <Gold.Chemscore.Rot.Weighted>
4.5271

> <Gold.Chemscore.Internal.Correction.Weighted>
   9.000000E+99

> <Gold.Protein.RotatedTorsions>
[ 6907 6896 6895 6894 ] final   40.83 input  -60.11 | X-H torsion
[ 7974 7965 7964 7962 ] final   -1.13 input  175.53 | X-H torsion
[ 8008 7997 7996 7995 ] final  178.81 input   59.86 | X-H torsion
[ 10167 10162 10161 10158 ] final  -55.73 input  -65.29 | X-H torsion
[ 10718 10713 10712 10709 ] final  -17.44 input   66.30 | X-H torsion
[ 10763 10752 10751 10750 ] final  -58.78 input  -60.55 | X-H torsion
[ 11005 11000 10999 10996 ] final    0.02 input  -57.11 | X-H torsion

> <Gold.Protein.ActiveResidues>
 VAL166  LYS551  ARG553  GLY616  TRP617  ASP618  TYR619  PRO620  LYS621  CYS622 
 ASP623  PHE694  ASN695  SER759  ASP760  ASP761  ALA762  ILE779  LEU786  VAL792 
 PHE793  MET794  SER795  GLU796  ALA797  LYS798  CYS799  TRP800  GLU811  SER814 

> <Gold.Protein.RotatedAtoms>
  152.1876  134.8700  160.0520 H   0  0  0  0  0  0  0  0  0  0  0  0  # atno 6907 bound_to 6896
  151.9601  133.3687  159.4040 H   0  0  0  0  0  0  0  0  0  0  0  0  # atno 6908 bound_to 6896
  150.6929  134.4173  159.5233 H   0  0  0  0  0  0  0  0  0  0  0  0  # atno 6909 bound_to 6896
  146.2420  140.1375  142.8336 H   0  0  0  0  0  0  0  0  0  0  0  0  # atno 7974 bound_to 7965
  156.0504  140.1324  157.0056 H   0  0  0  0  0  0  0  0  0  0  0  0  # atno 8008 bound_to 7997
  154.4432  140.1012  156.6439 H   0  0  0  0  0  0  0  0  0  0  0  0  # atno 8009 bound_to 7997
  155.5532  140.3463  155.4475 H   0  0  0  0  0  0  0  0  0  0  0  0  # atno 8010 bound_to 7997
  140.6358  143.2481  151.5122 H   0  0  0  0  0  0  0  0  0  0  0  0  # atno 10167 bound_to 10162
  156.5735  130.4755  149.6352 H   0  0  0  0  0  0  0  0  0  0  0  0  # atno 10718 bound_to 10713
  154.2435  135.6339  153.5215 H   0  0  0  0  0  0  0  0  0  0  0  0  # atno 10763 bound_to 10752
  152.9925  135.5547  154.5885 H   0  0  0  0  0  0  0  0  0  0  0  0  # atno 10764 bound_to 10752
  154.5396  135.2894  155.1082 H   0  0  0  0  0  0  0  0  0  0  0  0  # atno 10765 bound_to 10752
  140.6312  133.9574  155.8275 H   0  0  0  0  0  0  0  0  0  0  0  0  # atno 11005 bound_to 11000
  145.0275  140.8844  143.5130 LP  0  0  0  0  0  0  0  0  0  0  0  0  # atno 17320 bound_to 7965
  145.1433  139.2559  143.5479 LP  0  0  0  0  0  0  0  0  0  0  0  0  # atno 17321 bound_to 7965
  139.5568  144.2255  152.1626 LP  0  0  0  0  0  0  0  0  0  0  0  0  # atno 17342 bound_to 10162
  140.1511  144.5114  150.6687 LP  0  0  0  0  0  0  0  0  0  0  0  0  # atno 17343 bound_to 10162
  156.2694  130.7008  151.1801 LP  0  0  0  0  0  0  0  0  0  0  0  0  # atno 17370 bound_to 10713
  157.7343  131.0583  150.5533 LP  0  0  0  0  0  0  0  0  0  0  0  0  # atno 17371 bound_to 10713
  141.0674  134.0256  157.3574 LP  0  0  0  0  0  0  0  0  0  0  0  0  # atno 17394 bound_to 11000
  139.9115  135.0191  156.7712 LP  0  0  0  0  0  0  0  0  0  0  0  0  # atno 17395 bound_to 11000

$$$$
