AV-unprocessed.smi:2753|AV-procd|sdf|10610|dock6
  -GOLD-   2272015 63D 1   1.00000     0.00000
 Structure written by MMmdl.
 28 29  0  0  0  0  0  0  0  0  2 V2000
  145.9672  136.5337  156.0417 F   0  0  0  0  0  0  0  0  0  0  0  0
  146.6870  137.2714  155.1974 C   0  0  0  0  0  0  0  0  0  0  0  0
  146.6048  138.5401  155.5996 F   0  0  0  0  0  0  0  0  0  0  0  0
  147.9594  136.8937  155.3135 F   0  0  0  0  0  0  0  0  0  0  0  0
  146.2028  137.0997  153.7871 C   0  0  0  0  0  0  0  0  0  0  0  0
  145.7157  138.0598  152.9287 C   0  0  0  0  0  0  0  0  0  0  0  0
  145.4078  137.3897  151.7580 N   0  0  0  0  0  0  0  0  0  0  0  0
  145.7047  136.0964  151.9342 C   0  0  0  0  0  0  0  0  0  0  0  0
  145.5009  135.0697  150.8631 C   0  0  1  0  0  0  0  0  0  0  0  0
  145.9975  133.6769  151.2966 C   0  0  0  0  0  0  0  0  0  0  0  0
  145.7568  132.6471  150.1821 C   0  0  0  0  0  0  0  0  0  0  0  0
  144.2814  132.6403  149.7488 C   0  0  0  0  0  0  0  0  0  0  0  0
  143.8519  133.9939  149.3352 N   0  3  0  0  0  0  0  0  0  0  0  0
  144.0312  135.0078  150.3979 C   0  0  0  0  0  0  0  0  0  0  0  0
  146.1912  135.8557  153.1486 N   0  0  0  0  0  0  0  0  0  0  0  0
  145.0274  137.8054  150.9195 H   0  0  0  0  0  0  0  0  0  0  0  0
  145.5700  139.1228  153.0512 H   0  0  0  0  0  0  0  0  0  0  0  0
  146.1023  135.3771  150.0055 H   0  0  0  0  0  0  0  0  0  0  0  0
  147.0586  133.7141  151.5462 H   0  0  0  0  0  0  0  0  0  0  0  0
  145.4757  133.3600  152.2009 H   0  0  0  0  0  0  0  0  0  0  0  0
  146.3903  132.8801  149.3252 H   0  0  0  0  0  0  0  0  0  0  0  0
  146.0504  131.6535  150.5225 H   0  0  0  0  0  0  0  0  0  0  0  0
  144.1338  131.9504  148.9177 H   0  0  0  0  0  0  0  0  0  0  0  0
  143.6462  132.2955  150.5661 H   0  0  0  0  0  0  0  0  0  0  0  0
  144.3959  134.2716  148.5308 H   0  0  0  0  0  0  0  0  0  0  0  0
  143.3734  134.7645  151.2336 H   0  0  0  0  0  0  0  0  0  0  0  0
  143.7132  135.9779  150.0146 H   0  0  0  0  0  0  0  0  0  0  0  0
  142.8768  133.9630  149.0735 H   0  0  0  0  0  0  0  0  0  0  0  0
  1  2  1  0  0  0  0
  2  3  1  0  0  0  0
  2  4  1  0  0  0  0
  2  5  1  0  0  0  0
  5 15  1  0  0  0  0
  5  6  2  0  0  0  0
  6  7  1  0  0  0  0
  6 17  1  0  0  0  0
  7 16  1  0  0  0  0
  7  8  1  0  0  0  0
  8  9  1  0  0  0  0
  8 15  2  0  0  0  0
  9 14  1  0  0  0  0
  9 10  1  0  0  0  0
  9 18  1  0  0  0  0
 10 11  1  0  0  0  0
 10 19  1  0  0  0  0
 10 20  1  0  0  0  0
 11 12  1  0  0  0  0
 11 21  1  0  0  0  0
 11 22  1  0  0  0  0
 12 13  1  0  0  0  0
 12 23  1  0  0  0  0
 12 24  1  0  0  0  0
 13 14  1  0  0  0  0
 13 25  1  0  0  0  0
 13 28  1  0  0  0  0
 14 26  1  0  0  0  0
 14 27  1  0  0  0  0
M  CHG  1  13   1
M  END
> <s_m_source_file>
AV-unprocessed.smi

> <i_m_source_file_index>
2753

> <i_lp_mmshare_version>
43012

> <i_f3d_flags>
0

> <s_epik_input>
RkMoRikoRiljMVtjSF1bbkhdYyhuMSlbQ0BASF0yW0NIMl1bQ0gyXVtDSDJdW05IXVtDSDJdMg==

> <s_epik_cmdline>
J2VwaWtfcHl0aG9uJywgJy1waCcsICc3LjAnLCAnLXRuJywgJzgnLCAnLW1hJywgJzIwMCcsICctbWV0YWxfYmluZGluZycsICctaW1hZScsICc8aW5maWxlLm1hZT4nLCAnLW9tYWUnLCAnPG91dGZpbGUubWFlPic=

> <r_lp_tautomer_probability>
0.5

> <r_epik_Ionization_Penalty>
0.00052307

> <r_epik_Ionization_Penalty_Charging>
0.000431517

> <r_epik_Ionization_Penalty_Neutral>
9.15529e-05

> <r_epik_State_Penalty>
0.103148

> <r_epik_Charging_Adjusted_Penalty>
0.103579

> <i_epik_Tot_Q>
1

> <i_epik_Tot_abs_Q>
1

> <r_epik_Metal_State_Penalty>
0.166025

> <b_epik_Metal_Only>
0

> <s_lp_Force_Field>
OPLS_2005

> <r_lp_Energy>
16.8068

> <b_lp_Chiralities_Consistent>
1

> <s_lp_Variant>
AV-unprocessed.smi:2753-2

> <Gold.Version>
5.8.1

> <Gold.Id.Protein>
6NUR|6NUR_protein|mol2

> <Gold.PLP.Fitness>
35.3777

> <Gold.PLP.PLP>
-20.9373

> <Gold.PLP.part.hbond>
-3.0000

> <Gold.PLP.part.metal>
0.0000

> <Gold.PLP.part.buried>
-3.2492

> <Gold.PLP.part.nonpolar>
-15.9974

> <Gold.PLP.part.repulsive>
1.0427

> <Gold.PLP.ligand.clash>
0.0000

> <Gold.PLP.ligand.torsion>
0.0143

> <Gold.PLP.Chemscore.Hbond>
3.9200

> <Gold.PLP.Chemscore.CHOScore>
0.8939

> <Gold.PLP.Chemscore.Metal>
0.0000

> <Gold.Chemscore.Hbonds>
donor molecule, donor type, donor heavy atom, donor atom, acceptor molecule, acceptor atom, score
      L1  H     7    16       P1 10171  1.00
      L1  H    13    25       P1  7921  1.00
      L1  H    13    28       P1 10186  1.92
      L1  C     6    17       P1 10175  0.98

> <Gold.PLP.Chemscore.Internal.Correction>
0.0273

> <Gold.Rescore>
     Score         DG    S(hbond)    S(metal)    S(lipo)     H(rot)  DE(clash)    DE(int)     intcor
     17.68     -17.98       2.88        0.00      46.64       1.00       0.29       0.02       ----

> <Gold.Chemscore.Fitness>
17.6764

> <Gold.Chemscore.DG>
-17.9827

> <Gold.Chemscore.ZeroCoef>
-5.4800

> <Gold.Chemscore.Hbond>
2.8760

> <Gold.Chemscore.Metal>
0.0000

> <Gold.Chemscore.Lipo>
46.6397

> <Gold.Chemscore.Internal_Hbond>
0.0000

> <Gold.Chemscore.DEClash>
0.2886

> <Gold.Chemscore.DEInternal>
0.0177

> <Gold.Chemscore.Rot>
1.0000

> <Gold.Chemscore.Internal.Correction>
   9.000000E+99

> <Gold.Chemscore.Hbonds>
donor molecule, donor type, donor heavy atom, donor atom, acceptor molecule, acceptor atom, score
      L1  H     7    16       P1 10171  1.00
      L1  H    13    25       P1  7921  0.92
      L1  H    13    28       P1 10186  0.90

> <Gold.Chemscore.Hbond.Weighted>
-9.6059

> <Gold.Chemscore.Metal.Weighted>
-0.0000

> <Gold.Chemscore.Lipo.Weighted>
-5.4568

> <Gold.Chemscore.Internal_Hbond.Weighted>
0.0000

> <Gold.Chemscore.DEClash.Weighted>
0.2886

> <Gold.Chemscore.DEInternal.Weighted>
0.0177

> <Gold.Chemscore.Rot.Weighted>
2.5600

> <Gold.Chemscore.Internal.Correction.Weighted>
   9.000000E+99

> <Gold.Protein.RotatedTorsions>
[ 6907 6896 6895 6894 ] final  -97.43 input  -60.11 | X-H torsion
[ 7974 7965 7964 7962 ] final  110.38 input  175.53 | X-H torsion
[ 8008 7997 7996 7995 ] final  145.09 input   59.86 | X-H torsion
[ 10167 10162 10161 10158 ] final -136.82 input  -65.29 | X-H torsion
[ 10718 10713 10712 10709 ] final   43.25 input   66.30 | X-H torsion
[ 10763 10752 10751 10750 ] final  103.09 input  -60.55 | X-H torsion
[ 11005 11000 10999 10996 ] final -104.19 input  -57.11 | X-H torsion

> <Gold.Protein.ActiveResidues>
 VAL166  LYS551  ARG553  GLY616  TRP617  ASP618  TYR619  PRO620  LYS621  CYS622 
 ASP623  PHE694  ASN695  SER759  ASP760  ASP761  ALA762  ILE779  LEU786  VAL792 
 PHE793  MET794  SER795  GLU796  ALA797  LYS798  CYS799  TRP800  GLU811  SER814 

> <Gold.Protein.RotatedAtoms>
  150.7016  134.1350  159.4083 H   0  0  0  0  0  0  0  0  0  0  0  0  # atno 6907 bound_to 6896
  151.9335  135.0243  160.0540 H   0  0  0  0  0  0  0  0  0  0  0  0  # atno 6908 bound_to 6896
  152.2155  133.4908  159.5170 H   0  0  0  0  0  0  0  0  0  0  0  0  # atno 6909 bound_to 6896
  145.2557  139.2722  143.4044 H   0  0  0  0  0  0  0  0  0  0  0  0  # atno 7974 bound_to 7965
  156.2892  140.2218  156.5158 H   0  0  0  0  0  0  0  0  0  0  0  0  # atno 8008 bound_to 7997
  154.7570  140.0476  157.0963 H   0  0  0  0  0  0  0  0  0  0  0  0  # atno 8009 bound_to 7997
  155.0038  140.3105  155.4860 H   0  0  0  0  0  0  0  0  0  0  0  0  # atno 8010 bound_to 7997
  139.8639  143.7042  152.2647 H   0  0  0  0  0  0  0  0  0  0  0  0  # atno 10167 bound_to 10162
  157.4139  130.7930  149.7454 H   0  0  0  0  0  0  0  0  0  0  0  0  # atno 10718 bound_to 10713
  153.3481  135.3988  155.1625 H   0  0  0  0  0  0  0  0  0  0  0  0  # atno 10763 bound_to 10752
  154.8657  135.3650  154.5258 H   0  0  0  0  0  0  0  0  0  0  0  0  # atno 10764 bound_to 10752
  153.5707  135.7079  153.5565 H   0  0  0  0  0  0  0  0  0  0  0  0  # atno 10765 bound_to 10752
  141.1112  133.8702  157.1580 H   0  0  0  0  0  0  0  0  0  0  0  0  # atno 11005 bound_to 11000
  146.3290  140.2960  142.8618 LP  0  0  0  0  0  0  0  0  0  0  0  0  # atno 17320 bound_to 7965
  144.9463  140.8132  143.5599 LP  0  0  0  0  0  0  0  0  0  0  0  0  # atno 17321 bound_to 7965
  139.7347  144.7574  151.0746 LP  0  0  0  0  0  0  0  0  0  0  0  0  # atno 17342 bound_to 10162
  140.7771  143.5045  150.9729 LP  0  0  0  0  0  0  0  0  0  0  0  0  # atno 17343 bound_to 10162
  155.9859  130.3979  150.3239 LP  0  0  0  0  0  0  0  0  0  0  0  0  # atno 17370 bound_to 10713
  157.1380  131.0289  151.2940 LP  0  0  0  0  0  0  0  0  0  0  0  0  # atno 17371 bound_to 10713
  140.0007  135.0029  157.0182 LP  0  0  0  0  0  0  0  0  0  0  0  0  # atno 17394 bound_to 11000
  140.4771  134.1328  155.7211 LP  0  0  0  0  0  0  0  0  0  0  0  0  # atno 17395 bound_to 11000

$$$$
