AV-unprocessed.smi:3109|AV-procd|sdf|11827|dock3
  -GOLD-   2272017203D 1   1.00000     0.00000
 Structure written by MMmdl.
 37 38  0  0  0  0  0  0  0  0  2 V2000
  146.3303  141.7178  154.0700 C   0  0  0  0  0  0  0  0  0  0  0  0
  146.2961  141.9920  155.4656 C   0  0  0  0  0  0  0  0  0  0  0  0
  147.4649  141.7908  156.0525 N   0  0  0  0  0  0  0  0  0  0  0  0
  148.2789  141.3734  155.0580 N   0  0  0  0  0  0  0  0  0  0  0  0
  149.6747  141.0754  155.3352 C   0  0  0  0  0  0  0  0  0  0  0  0
  150.0696  141.3389  156.7990 C   0  0  0  0  0  0  0  0  0  0  0  0
  150.4664  142.7491  157.0048 N   0  3  0  0  0  0  0  0  0  0  0  0
  150.9250  143.0896  158.3710 C   0  0  0  0  0  0  0  0  0  0  0  0
  151.4025  144.5568  158.4007 C   0  0  0  0  0  0  0  0  0  0  0  0
  151.2066  145.2314  159.7710 C   0  0  0  0  0  0  0  0  0  0  0  0
  152.1922  144.7913  160.8628 C   0  0  0  0  0  0  0  0  0  0  0  0
  152.2142  143.2789  161.1373 C   0  0  0  0  0  0  0  0  0  0  0  0
  152.8980  142.4868  160.0128 C   0  0  0  0  0  0  0  0  0  0  0  0
  151.9859  142.0671  158.8462 C   0  0  0  0  0  0  0  0  0  0  0  0
  147.6216  141.3341  153.8460 C   0  0  0  0  0  0  0  0  0  0  0  0
  145.5333  141.7979  153.3457 H   0  0  0  0  0  0  0  0  0  0  0  0
  145.4637  142.3314  156.0645 H   0  0  0  0  0  0  0  0  0  0  0  0
  149.8678  140.0336  155.0757 H   0  0  0  0  0  0  0  0  0  0  0  0
  150.2885  141.6830  154.6691 H   0  0  0  0  0  0  0  0  0  0  0  0
  149.2243  141.1099  157.4486 H   0  0  0  0  0  0  0  0  0  0  0  0
  150.8797  140.6713  157.0921 H   0  0  0  0  0  0  0  0  0  0  0  0
  151.2007  142.9810  156.3509 H   0  0  0  0  0  0  0  0  0  0  0  0
  150.0523  143.0156  159.0219 H   0  0  0  0  0  0  0  0  0  0  0  0
  152.4367  144.6411  158.0640 H   0  0  0  0  0  0  0  0  0  0  0  0
  150.8133  145.1318  157.6846 H   0  0  0  0  0  0  0  0  0  0  0  0
  151.3084  146.3096  159.6428 H   0  0  0  0  0  0  0  0  0  0  0  0
  150.1838  145.0753  160.1159 H   0  0  0  0  0  0  0  0  0  0  0  0
  153.1962  145.1340  160.6096 H   0  0  0  0  0  0  0  0  0  0  0  0
  151.9304  145.3093  161.7861 H   0  0  0  0  0  0  0  0  0  0  0  0
  152.7823  143.1190  162.0545 H   0  0  0  0  0  0  0  0  0  0  0  0
  151.2123  142.8967  161.3368 H   0  0  0  0  0  0  0  0  0  0  0  0
  153.7445  143.0577  159.6292 H   0  0  0  0  0  0  0  0  0  0  0  0
  153.3352  141.5816  160.4357 H   0  0  0  0  0  0  0  0  0  0  0  0
  151.4729  141.1482  159.1319 H   0  0  0  0  0  0  0  0  0  0  0  0
  152.6301  141.7921  158.0094 H   0  0  0  0  0  0  0  0  0  0  0  0
  148.1198  141.0387  152.9341 H   0  0  0  0  0  0  0  0  0  0  0  0
  149.6613  143.3226  156.7978 H   0  0  0  0  0  0  0  0  0  0  0  0
  1 15  2  0  0  0  0
  1  2  1  0  0  0  0
  1 16  1  0  0  0  0
  2  3  2  0  0  0  0
  2 17  1  0  0  0  0
  3  4  1  0  0  0  0
  4  5  1  0  0  0  0
  4 15  1  0  0  0  0
  5  6  1  0  0  0  0
  5 18  1  0  0  0  0
  5 19  1  0  0  0  0
  6  7  1  0  0  0  0
  6 20  1  0  0  0  0
  6 21  1  0  0  0  0
  7  8  1  0  0  0  0
  7 22  1  0  0  0  0
  7 37  1  0  0  0  0
  8 14  1  0  0  0  0
  8  9  1  0  0  0  0
  8 23  1  0  0  0  0
  9 10  1  0  0  0  0
  9 24  1  0  0  0  0
  9 25  1  0  0  0  0
 10 11  1  0  0  0  0
 10 26  1  0  0  0  0
 10 27  1  0  0  0  0
 11 12  1  0  0  0  0
 11 28  1  0  0  0  0
 11 29  1  0  0  0  0
 12 13  1  0  0  0  0
 12 30  1  0  0  0  0
 12 31  1  0  0  0  0
 13 14  1  0  0  0  0
 13 32  1  0  0  0  0
 13 33  1  0  0  0  0
 14 34  1  0  0  0  0
 14 35  1  0  0  0  0
 15 36  1  0  0  0  0
M  CHG  1   7   1
M  END
> <s_m_source_file>
AV-unprocessed.smi

> <i_m_source_file_index>
3109

> <i_lp_mmshare_version>
43012

> <i_f3d_flags>
0

> <s_epik_input>
W2NIXTFbY0hdW2NIXW5uMVtDSDJdW0NIMl1bTkhdW0NIXTJbQ0gyXVtDSDJdW0NIMl1bQ0gyXVtDSDJdW0NIMl0y

> <s_epik_cmdline>
J2VwaWtfcHl0aG9uJywgJy1waCcsICc3LjAnLCAnLXRuJywgJzgnLCAnLW1hJywgJzIwMCcsICctbWV0YWxfYmluZGluZycsICctaW1hZScsICc8aW5maWxlLm1hZT4nLCAnLW9tYWUnLCAnPG91dGZpbGUubWFlPic=

> <r_lp_tautomer_probability>
1

> <r_epik_Ionization_Penalty>
0.00143219

> <r_epik_Ionization_Penalty_Charging>
0.00142912

> <r_epik_Ionization_Penalty_Neutral>
3.07097e-06

> <r_epik_State_Penalty>
-0

> <r_epik_Charging_Adjusted_Penalty>
0.00142912

> <i_epik_Tot_Q>
1

> <i_epik_Tot_abs_Q>
1

> <r_epik_Metal_State_Penalty>
-0

> <b_epik_Metal_Only>
0

> <s_lp_Force_Field>
OPLS_2005

> <r_lp_Energy>
18.9936

> <b_lp_Chiralities_Consistent>
1

> <s_lp_Variant>
AV-unprocessed.smi:3109-1

> <Gold.Version>
5.8.1

> <Gold.Id.Protein>
6NUR|6NUR_protein|mol2

> <Gold.PLP.Fitness>
48.6030

> <Gold.PLP.PLP>
-39.9758

> <Gold.PLP.part.hbond>
-1.0000

> <Gold.PLP.part.metal>
0.0000

> <Gold.PLP.part.buried>
-5.2887

> <Gold.PLP.part.nonpolar>
-33.8734

> <Gold.PLP.part.repulsive>
0.9711

> <Gold.PLP.ligand.clash>
0.0000

> <Gold.PLP.ligand.torsion>
0.1981

> <Gold.PLP.Chemscore.Hbond>
2.0000

> <Gold.PLP.Chemscore.CHOScore>
1.0000

> <Gold.PLP.Chemscore.Metal>
0.0000

> <Gold.Chemscore.Hbonds>
donor molecule, donor type, donor heavy atom, donor atom, acceptor molecule, acceptor atom, score
      L1  H     7    37       P1  8028  1.89
      L1  C    15    36       P1  7957  1.00

> <Gold.PLP.Chemscore.Internal.Correction>
0.0234

> <Gold.Rescore>
     Score         DG    S(hbond)    S(metal)    S(lipo)     H(rot)  DE(clash)    DE(int)     intcor
     17.79     -18.05       0.97        0.00     111.60       1.46       0.05       0.20       ----

> <Gold.Chemscore.Fitness>
17.7933

> <Gold.Chemscore.DG>
-18.0452

> <Gold.Chemscore.ZeroCoef>
-5.4800

> <Gold.Chemscore.Hbond>
0.9693

> <Gold.Chemscore.Metal>
0.0000

> <Gold.Chemscore.Lipo>
111.6003

> <Gold.Chemscore.Internal_Hbond>
0.0000

> <Gold.Chemscore.DEClash>
0.0484

> <Gold.Chemscore.DEInternal>
0.2035

> <Gold.Chemscore.Rot>
1.4568

> <Gold.Chemscore.Internal.Correction>
   9.000000E+99

> <Gold.Chemscore.Hbonds>
donor molecule, donor type, donor heavy atom, donor atom, acceptor molecule, acceptor atom, score
      L1  H     7    37       P1  8028  0.90

> <Gold.Chemscore.Hbond.Weighted>
-3.2373

> <Gold.Chemscore.Metal.Weighted>
-0.0000

> <Gold.Chemscore.Lipo.Weighted>
-13.0572

> <Gold.Chemscore.Internal_Hbond.Weighted>
0.0000

> <Gold.Chemscore.DEClash.Weighted>
0.0484

> <Gold.Chemscore.DEInternal.Weighted>
0.2035

> <Gold.Chemscore.Rot.Weighted>
3.7293

> <Gold.Chemscore.Internal.Correction.Weighted>
   9.000000E+99

> <Gold.Protein.RotatedTorsions>
[ 6907 6896 6895 6894 ] final  -96.65 input  -60.11 | X-H torsion
[ 7974 7965 7964 7962 ] final   28.22 input  175.53 | X-H torsion
[ 8008 7997 7996 7995 ] final -110.89 input   59.86 | X-H torsion
[ 10167 10162 10161 10158 ] final  101.36 input  -65.29 | X-H torsion
[ 10718 10713 10712 10709 ] final  -10.45 input   66.30 | X-H torsion
[ 10763 10752 10751 10750 ] final  171.37 input  -60.55 | X-H torsion
[ 11005 11000 10999 10996 ] final   79.15 input  -57.11 | X-H torsion

> <Gold.Protein.ActiveResidues>
 VAL166  LYS551  ARG553  GLY616  TRP617  ASP618  TYR619  PRO620  LYS621  CYS622 
 ASP623  PHE694  ASN695  SER759  ASP760  ASP761  ALA762  ILE779  LEU786  VAL792 
 PHE793  MET794  SER795  GLU796  ALA797  LYS798  CYS799  TRP800  GLU811  SER814 

> <Gold.Protein.RotatedAtoms>
  150.6994  134.1469  159.4125 H   0  0  0  0  0  0  0  0  0  0  0  0  # atno 6907 bound_to 6896
  151.9453  135.0192  160.0548 H   0  0  0  0  0  0  0  0  0  0  0  0  # atno 6908 bound_to 6896
  152.2058  133.4839  159.5120 H   0  0  0  0  0  0  0  0  0  0  0  0  # atno 6909 bound_to 6896
  146.1741  139.7085  142.8947 H   0  0  0  0  0  0  0  0  0  0  0  0  # atno 7974 bound_to 7965
  154.9814  140.0396  157.2279 H   0  0  0  0  0  0  0  0  0  0  0  0  # atno 8008 bound_to 7997
  154.7711  140.2802  155.6115 H   0  0  0  0  0  0  0  0  0  0  0  0  # atno 8009 bound_to 7997
  156.2921  140.2610  156.2514 H   0  0  0  0  0  0  0  0  0  0  0  0  # atno 8010 bound_to 7997
  139.7445  144.7002  151.0525 H   0  0  0  0  0  0  0  0  0  0  0  0  # atno 10167 bound_to 10162
  156.6733  130.5015  149.5993 H   0  0  0  0  0  0  0  0  0  0  0  0  # atno 10718 bound_to 10713
  154.4109  135.2756  155.2037 H   0  0  0  0  0  0  0  0  0  0  0  0  # atno 10763 bound_to 10752
  154.4023  135.6041  153.5908 H   0  0  0  0  0  0  0  0  0  0  0  0  # atno 10764 bound_to 10752
  152.9831  135.5929  154.4391 H   0  0  0  0  0  0  0  0  0  0  0  0  # atno 10765 bound_to 10752
  139.9184  134.7820  156.1742 H   0  0  0  0  0  0  0  0  0  0  0  0  # atno 11005 bound_to 11000
  145.4260  141.0411  143.2937 LP  0  0  0  0  0  0  0  0  0  0  0  0  # atno 17320 bound_to 7965
  144.8208  139.5795  143.6987 LP  0  0  0  0  0  0  0  0  0  0  0  0  # atno 17321 bound_to 7965
  140.7790  143.4883  150.9926 LP  0  0  0  0  0  0  0  0  0  0  0  0  # atno 17342 bound_to 10162
  139.8571  143.7362  152.3175 LP  0  0  0  0  0  0  0  0  0  0  0  0  # atno 17343 bound_to 10162
  156.1922  130.6567  151.1074 LP  0  0  0  0  0  0  0  0  0  0  0  0  # atno 17370 bound_to 10713
  157.7069  131.0752  150.6634 LP  0  0  0  0  0  0  0  0  0  0  0  0  # atno 17371 bound_to 10713
  141.0682  133.6809  156.2087 LP  0  0  0  0  0  0  0  0  0  0  0  0  # atno 17394 bound_to 11000
  140.6550  134.5027  157.5580 LP  0  0  0  0  0  0  0  0  0  0  0  0  # atno 17395 bound_to 11000

$$$$
