AV-unprocessed.smi:2177|AV-procd|sdf|8848|dock3
  -GOLD-   2272012 43D 1   1.00000     0.00000
 Structure written by MMmdl.
 42 43  0  0  0  0  0  0  0  0  1 V2000
  148.9316  140.7460  154.3873 C   0  0  0  0  0  0  0  0  0  0  0  0
  150.0821  140.0646  155.0713 C   0  0  0  0  0  0  0  0  0  0  0  0
  151.1467  139.7191  154.3665 N   0  0  0  0  0  0  0  0  0  0  0  0
  151.9702  139.1280  155.2550 N   0  0  0  0  0  0  0  0  0  0  0  0
  153.2488  138.6127  154.8056 C   0  0  0  0  0  0  0  0  0  0  0  0
  151.4284  139.1068  156.5251 C   0  0  0  0  0  0  0  0  0  0  0  0
  152.1470  138.4966  157.6854 C   0  0  0  0  0  0  0  0  0  0  0  0
  150.1974  139.7025  156.4454 C   0  0  0  0  0  0  0  0  0  0  0  0
  149.1743  139.9157  157.5344 C   0  0  0  0  0  0  0  0  0  0  0  0
  148.2753  138.6830  157.6350 C   0  0  0  0  0  0  0  0  0  0  0  0
  147.5280  138.3854  156.7038 O   0  0  0  0  0  0  0  0  0  0  0  0
  148.3769  137.9685  158.7664 N   0  0  0  0  0  0  0  0  0  0  0  0
  147.7302  136.6880  159.0330 C   0  0  2  0  0  0  0  0  0  0  0  0
  146.2046  136.8490  158.9536 C   0  0  0  0  0  0  0  0  0  0  0  0
  148.1892  136.1648  160.4073 C   0  0  2  0  0  0  0  0  0  0  0  0
  147.5846  134.8176  160.8135 C   0  0  0  0  0  0  0  0  0  0  0  0
  147.6142  134.8504  162.3338 C   0  0  0  0  0  0  0  0  0  0  0  0
  147.9115  136.3140  162.6718 C   0  0  0  0  0  0  0  0  0  0  0  0
  147.7428  137.0176  161.4495 O   0  0  0  0  0  0  0  0  0  0  0  0
  148.0304  140.1351  154.4431 H   0  0  0  0  0  0  0  0  0  0  0  0
  149.1395  140.9342  153.3333 H   0  0  0  0  0  0  0  0  0  0  0  0
  148.7119  141.7047  154.8569 H   0  0  0  0  0  0  0  0  0  0  0  0
  154.0540  139.2094  155.2341 H   0  0  0  0  0  0  0  0  0  0  0  0
  153.3193  138.6513  153.7176 H   0  0  0  0  0  0  0  0  0  0  0  0
  153.3608  137.5770  155.1276 H   0  0  0  0  0  0  0  0  0  0  0  0
  151.6398  138.7128  158.6251 H   0  0  0  0  0  0  0  0  0  0  0  0
  153.1637  138.8823  157.7608 H   0  0  0  0  0  0  0  0  0  0  0  0
  152.2022  137.4133  157.5776 H   0  0  0  0  0  0  0  0  0  0  0  0
  149.6423  140.0937  158.5028 H   0  0  0  0  0  0  0  0  0  0  0  0
  148.5585  140.7927  157.3325 H   0  0  0  0  0  0  0  0  0  0  0  0
  149.0140  138.3051  159.4736 H   0  0  0  0  0  0  0  0  0  0  0  0
  148.0404  135.9626  158.2783 H   0  0  0  0  0  0  0  0  0  0  0  0
  145.7000  135.8993  159.1325 H   0  0  0  0  0  0  0  0  0  0  0  0
  145.8974  137.2024  157.9689 H   0  0  0  0  0  0  0  0  0  0  0  0
  145.8411  137.5633  159.6931 H   0  0  0  0  0  0  0  0  0  0  0  0
  149.2789  136.1028  160.4456 H   0  0  0  0  0  0  0  0  0  0  0  0
  146.5510  134.7489  160.4711 H   0  0  0  0  0  0  0  0  0  0  0  0
  148.1295  133.9691  160.3987 H   0  0  0  0  0  0  0  0  0  0  0  0
  146.6559  134.5303  162.7448 H   0  0  0  0  0  0  0  0  0  0  0  0
  148.3885  134.1961  162.7361 H   0  0  0  0  0  0  0  0  0  0  0  0
  147.2539  136.7075  163.4473 H   0  0  0  0  0  0  0  0  0  0  0  0
  148.9427  136.4270  163.0103 H   0  0  0  0  0  0  0  0  0  0  0  0
  1  2  1  0  0  0  0
  1 20  1  0  0  0  0
  1 21  1  0  0  0  0
  1 22  1  0  0  0  0
  2  8  1  0  0  0  0
  2  3  2  0  0  0  0
  3  4  1  0  0  0  0
  4  5  1  0  0  0  0
  4  6  1  0  0  0  0
  5 23  1  0  0  0  0
  5 24  1  0  0  0  0
  5 25  1  0  0  0  0
  6  7  1  0  0  0  0
  6  8  2  0  0  0  0
  7 26  1  0  0  0  0
  7 27  1  0  0  0  0
  7 28  1  0  0  0  0
  8  9  1  0  0  0  0
  9 10  1  0  0  0  0
  9 29  1  0  0  0  0
  9 30  1  0  0  0  0
 10 11  2  0  0  0  0
 10 12  1  0  0  0  0
 12 13  1  0  0  0  0
 12 31  1  0  0  0  0
 13 14  1  0  0  0  0
 13 15  1  0  0  0  0
 13 32  1  0  0  0  0
 14 33  1  0  0  0  0
 14 34  1  0  0  0  0
 14 35  1  0  0  0  0
 15 19  1  0  0  0  0
 15 16  1  0  0  0  0
 15 36  1  0  0  0  0
 16 17  1  0  0  0  0
 16 37  1  0  0  0  0
 16 38  1  0  0  0  0
 17 18  1  0  0  0  0
 17 39  1  0  0  0  0
 17 40  1  0  0  0  0
 18 19  1  0  0  0  0
 18 41  1  0  0  0  0
 18 42  1  0  0  0  0
M  END
> <s_m_source_file>
AV-unprocessed.smi

> <i_m_source_file_index>
2177

> <i_lp_mmshare_version>
43012

> <i_f3d_flags>
0

> <s_epik_input>
W0NIM11jMW5uKFtDSDNdKWMoW0NIM10pYzFbQ0gyXUMoPU8pW05IXVtDQEhdKFtDSDNdKVtDQEBIXTJbQ0gyXVtDSDJdW0NIMl1PMg==

> <s_epik_cmdline>
J2VwaWtfcHl0aG9uJywgJy1waCcsICc3LjAnLCAnLXRuJywgJzgnLCAnLW1hJywgJzIwMCcsICctbWV0YWxfYmluZGluZycsICctaW1hZScsICc8aW5maWxlLm1hZT4nLCAnLW9tYWUnLCAnPG91dGZpbGUubWFlPic=

> <r_lp_tautomer_probability>
1

> <r_epik_Ionization_Penalty>
0.00310467

> <r_epik_Ionization_Penalty_Charging>
0

> <r_epik_Ionization_Penalty_Neutral>
0.00310467

> <r_epik_State_Penalty>
0.00218493

> <r_epik_Charging_Adjusted_Penalty>
0.00218493

> <i_epik_Tot_Q>
0

> <i_epik_Tot_abs_Q>
0

> <r_epik_Metal_State_Penalty>
-0

> <b_epik_Metal_Only>
0

> <s_lp_Force_Field>
OPLS_2005

> <r_lp_Energy>
11.4342

> <b_lp_Chiralities_Consistent>
1

> <s_lp_Variant>
AV-unprocessed.smi:2177-1

> <Gold.Version>
5.8.1

> <Gold.Id.Protein>
6NUR|6NUR_protein|mol2

> <Gold.PLP.Fitness>
38.3926

> <Gold.PLP.PLP>
-31.8374

> <Gold.PLP.part.hbond>
-3.0000

> <Gold.PLP.part.metal>
0.0000

> <Gold.PLP.part.buried>
-3.8295

> <Gold.PLP.part.nonpolar>
-26.4910

> <Gold.PLP.part.repulsive>
0.8338

> <Gold.PLP.ligand.clash>
0.0000

> <Gold.PLP.ligand.torsion>
0.4254

> <Gold.PLP.Chemscore.Hbond>
2.4592

> <Gold.PLP.Chemscore.CHOScore>
0.0000

> <Gold.PLP.Chemscore.Metal>
0.0000

> <Gold.Chemscore.Hbonds>
donor molecule, donor type, donor heavy atom, donor atom, acceptor molecule, acceptor atom, score
      P1  H  6931  6943       L1    19  0.60
      P1  H  6934  6947       L1    19  0.59
      P1  H  7989  7998       L1     3  0.96

> <Gold.PLP.Chemscore.Internal.Correction>
0.0285

> <Gold.Rescore>
     Score         DG    S(hbond)    S(metal)    S(lipo)     H(rot)  DE(clash)    DE(int)     intcor
     14.68     -15.73       1.88        0.00      65.99       1.46       0.55       0.51       ----

> <Gold.Chemscore.Fitness>
14.6765

> <Gold.Chemscore.DG>
-15.7326

> <Gold.Chemscore.ZeroCoef>
-5.4800

> <Gold.Chemscore.Hbond>
1.8791

> <Gold.Chemscore.Metal>
0.0000

> <Gold.Chemscore.Lipo>
65.9909

> <Gold.Chemscore.Internal_Hbond>
0.0000

> <Gold.Chemscore.DEClash>
0.5451

> <Gold.Chemscore.DEInternal>
0.5110

> <Gold.Chemscore.Rot>
1.4627

> <Gold.Chemscore.Internal.Correction>
   9.000000E+99

> <Gold.Chemscore.Hbonds>
donor molecule, donor type, donor heavy atom, donor atom, acceptor molecule, acceptor atom, score
      P1  H  6931  6943       L1    19  0.03
      P1  H  6934  6947       L1    19  0.55
      P1  H  7989  7998       L1     3  0.74

> <Gold.Chemscore.Hbond.Weighted>
-6.2761

> <Gold.Chemscore.Metal.Weighted>
-0.0000

> <Gold.Chemscore.Lipo.Weighted>
-7.7209

> <Gold.Chemscore.Internal_Hbond.Weighted>
0.0000

> <Gold.Chemscore.DEClash.Weighted>
0.5451

> <Gold.Chemscore.DEInternal.Weighted>
0.5110

> <Gold.Chemscore.Rot.Weighted>
3.7445

> <Gold.Chemscore.Internal.Correction.Weighted>
   9.000000E+99

> <Gold.Protein.RotatedTorsions>
[ 6907 6896 6895 6894 ] final    9.11 input  -60.11 | X-H torsion
[ 7974 7965 7964 7962 ] final  -18.80 input  175.53 | X-H torsion
[ 8008 7997 7996 7995 ] final  127.84 input   59.86 | X-H torsion
[ 10167 10162 10161 10158 ] final  -45.40 input  -65.29 | X-H torsion
[ 10718 10713 10712 10709 ] final  -39.59 input   66.30 | X-H torsion
[ 10763 10752 10751 10750 ] final  146.02 input  -60.55 | X-H torsion
[ 11005 11000 10999 10996 ] final  176.80 input  -57.11 | X-H torsion

> <Gold.Protein.ActiveResidues>
 VAL166  LYS551  ARG553  GLY616  TRP617  ASP618  TYR619  PRO620  LYS621  CYS622 
 ASP623  PHE694  ASN695  SER759  ASP760  ASP761  ALA762  ILE779  LEU786  VAL792 
 PHE793  MET794  SER795  GLU796  ALA797  LYS798  CYS799  TRP800  GLU811  SER814 

> <Gold.Protein.RotatedAtoms>
  151.7168  135.0902  160.0277 H   0  0  0  0  0  0  0  0  0  0  0  0  # atno 6907 bound_to 6896
  152.3627  133.6313  159.6035 H   0  0  0  0  0  0  0  0  0  0  0  0  # atno 6908 bound_to 6896
  150.7615  133.9314  159.3469 H   0  0  0  0  0  0  0  0  0  0  0  0  # atno 6909 bound_to 6896
  146.1874  140.3972  142.8471 H   0  0  0  0  0  0  0  0  0  0  0  0  # atno 7974 bound_to 7965
  156.2901  140.2659  156.2338 H   0  0  0  0  0  0  0  0  0  0  0  0  # atno 8008 bound_to 7997
  155.0045  140.0387  157.2392 H   0  0  0  0  0  0  0  0  0  0  0  0  # atno 8009 bound_to 7997
  154.7572  140.2754  155.6249 H   0  0  0  0  0  0  0  0  0  0  0  0  # atno 8010 bound_to 7997
  140.6859  143.2881  151.3633 H   0  0  0  0  0  0  0  0  0  0  0  0  # atno 10167 bound_to 10162
  156.2908  130.4228  149.8241 H   0  0  0  0  0  0  0  0  0  0  0  0  # atno 10718 bound_to 10713
  154.0150  135.2911  155.3388 H   0  0  0  0  0  0  0  0  0  0  0  0  # atno 10763 bound_to 10752
  154.7080  135.5161  153.8628 H   0  0  0  0  0  0  0  0  0  0  0  0  # atno 10764 bound_to 10752
  153.0706  135.6646  154.0377 H   0  0  0  0  0  0  0  0  0  0  0  0  # atno 10765 bound_to 10752
  140.3771  134.6979  157.4428 H   0  0  0  0  0  0  0  0  0  0  0  0  # atno 11005 bound_to 11000
  144.8422  140.6875  143.6222 LP  0  0  0  0  0  0  0  0  0  0  0  0  # atno 17320 bound_to 7965
  145.3897  139.1619  143.4235 LP  0  0  0  0  0  0  0  0  0  0  0  0  # atno 17321 bound_to 7965
  139.6218  144.0892  152.2398 LP  0  0  0  0  0  0  0  0  0  0  0  0  # atno 17342 bound_to 10162
  140.0339  144.6060  150.7465 LP  0  0  0  0  0  0  0  0  0  0  0  0  # atno 17343 bound_to 10162
  156.5654  130.8402  151.3341 LP  0  0  0  0  0  0  0  0  0  0  0  0  # atno 17370 bound_to 10713
  157.7342  130.9742  150.2015 LP  0  0  0  0  0  0  0  0  0  0  0  0  # atno 17371 bound_to 10713
  140.0507  134.6135  155.8865 LP  0  0  0  0  0  0  0  0  0  0  0  0  # atno 17394 bound_to 11000
  141.1936  133.6579  156.5554 LP  0  0  0  0  0  0  0  0  0  0  0  0  # atno 17395 bound_to 11000

$$$$
