AV-unprocessed.smi:143|AV-procd|sdf|1193|dock8
  -GOLD-   2262018353D 1   1.00000     0.00000
 Structure written by MMmdl.
 38 40  0  0  0  0  0  0  0  0  1 V2000
  154.7445  139.5475  159.2607 O   0  0  0  0  0  0  0  0  0  0  0  0
  154.2902  140.1055  160.2616 C   0  0  0  0  0  0  0  0  0  0  0  0
  154.5333  139.5001  161.6607 C   0  0  0  0  0  0  0  0  0  0  0  0
  155.2879  138.2520  161.6228 N   0  0  0  0  0  0  0  0  0  0  0  0
  156.5468  138.2610  160.9708 C   0  0  0  0  0  0  0  0  0  0  0  0
  157.0039  139.2765  160.4431 O   0  0  0  0  0  0  0  0  0  0  0  0
  157.2508  136.9837  160.9953 C   0  0  0  0  0  0  0  0  0  0  0  0
  158.4595  136.8796  160.4174 F   0  0  0  0  0  0  0  0  0  0  0  0
  156.7101  135.9010  161.5948 C   0  0  0  0  0  0  0  0  0  0  0  0
  155.4714  135.9150  162.2099 N   0  0  0  0  0  0  0  0  0  0  0  0
  154.9768  134.6643  162.8995 C   0  0  2  0  0  0  0  0  0  0  0  0
  154.6966  134.8567  164.4021 C   0  0  0  0  0  0  0  0  0  0  0  0
  155.6055  133.8263  165.0520 C   0  0  0  0  0  0  0  0  0  0  0  0
  155.8646  132.8396  163.9189 C   0  0  0  0  0  0  0  0  0  0  0  0
  155.9485  133.6724  162.7732 O   0  0  0  0  0  0  0  0  0  0  0  0
  154.7330  137.1199  162.2681 C   0  0  0  0  0  0  0  0  0  0  0  0
  153.6577  137.1802  162.8671 O   0  0  0  0  0  0  0  0  0  0  0  0
  153.4892  141.3625  160.1877 C   0  0  0  0  0  0  0  0  0  0  0  0
  153.1563  142.0422  161.3831 C   0  0  0  0  0  0  0  0  0  0  0  0
  152.3997  143.2296  161.3477 C   0  0  0  0  0  0  0  0  0  0  0  0
  151.9620  143.7500  160.1161 C   0  0  0  0  0  0  0  0  0  0  0  0
  150.9381  145.3535  160.0673 Br  0  0  0  0  0  0  0  0  0  0  0  0
  152.2825  143.0813  158.9204 C   0  0  0  0  0  0  0  0  0  0  0  0
  153.0408  141.8947  158.9542 C   0  0  0  0  0  0  0  0  0  0  0  0
  155.0717  140.1984  162.3030 H   0  0  0  0  0  0  0  0  0  0  0  0
  153.5900  139.3023  162.1722 H   0  0  0  0  0  0  0  0  0  0  0  0
  157.2795  134.9830  161.5873 H   0  0  0  0  0  0  0  0  0  0  0  0
  154.0798  134.3573  162.3597 H   0  0  0  0  0  0  0  0  0  0  0  0
  154.8944  135.8743  164.7400 H   0  0  0  0  0  0  0  0  0  0  0  0
  153.6471  134.6285  164.5909 H   0  0  0  0  0  0  0  0  0  0  0  0
  156.5417  134.2921  165.3609 H   0  0  0  0  0  0  0  0  0  0  0  0
  155.1577  133.3563  165.9279 H   0  0  0  0  0  0  0  0  0  0  0  0
  156.7765  132.2601  164.0636 H   0  0  0  0  0  0  0  0  0  0  0  0
  155.0285  132.1474  163.8067 H   0  0  0  0  0  0  0  0  0  0  0  0
  153.4807  141.6627  162.3415 H   0  0  0  0  0  0  0  0  0  0  0  0
  152.1554  143.7403  162.2675 H   0  0  0  0  0  0  0  0  0  0  0  0
  151.9462  143.4779  157.9738 H   0  0  0  0  0  0  0  0  0  0  0  0
  153.2637  141.4094  158.0161 H   0  0  0  0  0  0  0  0  0  0  0  0
  1  2  2  0  0  0  0
  2  3  1  0  0  0  0
  2 18  1  0  0  0  0
  3  4  1  0  0  0  0
  3 25  1  0  0  0  0
  3 26  1  0  0  0  0
  4 16  1  0  0  0  0
  4  5  1  0  0  0  0
  5  6  2  0  0  0  0
  5  7  1  0  0  0  0
  7  8  1  0  0  0  0
  7  9  2  0  0  0  0
  9 10  1  0  0  0  0
  9 27  1  0  0  0  0
 10 11  1  0  0  0  0
 10 16  1  0  0  0  0
 11 15  1  0  0  0  0
 11 12  1  0  0  0  0
 11 28  1  0  0  0  0
 12 13  1  0  0  0  0
 12 29  1  0  0  0  0
 12 30  1  0  0  0  0
 13 14  1  0  0  0  0
 13 31  1  0  0  0  0
 13 32  1  0  0  0  0
 14 15  1  0  0  0  0
 14 33  1  0  0  0  0
 14 34  1  0  0  0  0
 16 17  2  0  0  0  0
 18 24  1  0  0  0  0
 18 19  2  0  0  0  0
 19 20  1  0  0  0  0
 19 35  1  0  0  0  0
 20 21  2  0  0  0  0
 20 36  1  0  0  0  0
 21 22  1  0  0  0  0
 21 23  1  0  0  0  0
 23 24  2  0  0  0  0
 23 37  1  0  0  0  0
 24 38  1  0  0  0  0
M  END
> <s_m_source_file>
AV-unprocessed.smi

> <i_m_source_file_index>
143

> <i_lp_mmshare_version>
43012

> <i_f3d_flags>
0

> <s_epik_input>
W2NIXTFbY0hdYyhCcilbY0hdW2NIXWMxQyg9TylbQ0gyXW4yYyg9TyljKEYpW2NIXW4oYzI9TylbQ0BASF0zW0NIMl1bQ0gyXVtDSDJdTzM=

> <s_epik_cmdline>
J2VwaWtfcHl0aG9uJywgJy1waCcsICc3LjAnLCAnLXRuJywgJzgnLCAnLW1hJywgJzIwMCcsICctbWV0YWxfYmluZGluZycsICctaW1hZScsICc8aW5maWxlLm1hZT4nLCAnLW9tYWUnLCAnPG91dGZpbGUubWFlPic=

> <r_lp_tautomer_probability>
1

> <r_epik_Ionization_Penalty>
4.7008e-09

> <r_epik_Ionization_Penalty_Charging>
4.69459e-09

> <r_epik_Ionization_Penalty_Neutral>
6.21034e-12

> <r_epik_State_Penalty>
-0

> <r_epik_Charging_Adjusted_Penalty>
4.69459e-09

> <i_epik_Tot_Q>
0

> <i_epik_Tot_abs_Q>
0

> <r_epik_Metal_State_Penalty>
-0

> <b_epik_Metal_Only>
0

> <s_epik_Chemistry_Notes>
This compound contains an acetal/aminal-like group ( X-CH(R)-Y where X, Y are N, S, or O) that may be acid/base labile, releasing an aldehyde.

> <s_lp_Force_Field>
OPLS_2005

> <r_lp_Energy>
36.1645

> <b_lp_Chiralities_Consistent>
1

> <s_lp_Variant>
AV-unprocessed.smi:143-1

> <Gold.Version>
5.8.1

> <Gold.Id.Protein>
6NUR|6NUR_protein|mol2

> <Gold.PLP.Fitness>
45.3735

> <Gold.PLP.PLP>
-42.5284

> <Gold.PLP.part.hbond>
-1.0000

> <Gold.PLP.part.metal>
0.0000

> <Gold.PLP.part.buried>
-4.9270

> <Gold.PLP.part.nonpolar>
-36.3530

> <Gold.PLP.part.repulsive>
0.0294

> <Gold.PLP.ligand.clash>
0.0000

> <Gold.PLP.ligand.torsion>
0.0926

> <Gold.PLP.Chemscore.Hbond>
1.0000

> <Gold.PLP.Chemscore.CHOScore>
0.0000

> <Gold.PLP.Chemscore.Metal>
0.0000

> <Gold.Chemscore.Hbonds>
donor molecule, donor type, donor heavy atom, donor atom, acceptor molecule, acceptor atom, score
      P1  H  7997  8008       L1     1  1.00

> <Gold.PLP.Chemscore.Internal.Correction>
0.0304

> <Gold.Rescore>
     Score         DG    S(hbond)    S(metal)    S(lipo)     H(rot)  DE(clash)    DE(int)     intcor
     12.35     -17.55       0.99        0.00     109.44       1.58       0.01       5.19       ----

> <Gold.Chemscore.Fitness>
12.3463

> <Gold.Chemscore.DG>
-17.5523

> <Gold.Chemscore.ZeroCoef>
-5.4800

> <Gold.Chemscore.Hbond>
0.9893

> <Gold.Chemscore.Metal>
0.0000

> <Gold.Chemscore.Lipo>
109.4363

> <Gold.Chemscore.Internal_Hbond>
0.0000

> <Gold.Chemscore.DEClash>
0.0133

> <Gold.Chemscore.DEInternal>
5.1927

> <Gold.Chemscore.Rot>
1.5765

> <Gold.Chemscore.Internal.Correction>
   9.000000E+99

> <Gold.Chemscore.Hbonds>
donor molecule, donor type, donor heavy atom, donor atom, acceptor molecule, acceptor atom, score
      P1  H  7997  8008       L1     1  0.95

> <Gold.Chemscore.Hbond.Weighted>
-3.3041

> <Gold.Chemscore.Metal.Weighted>
-0.0000

> <Gold.Chemscore.Lipo.Weighted>
-12.8040

> <Gold.Chemscore.Internal_Hbond.Weighted>
0.0000

> <Gold.Chemscore.DEClash.Weighted>
0.0133

> <Gold.Chemscore.DEInternal.Weighted>
5.1927

> <Gold.Chemscore.Rot.Weighted>
4.0359

> <Gold.Chemscore.Internal.Correction.Weighted>
   9.000000E+99

> <Gold.Protein.RotatedTorsions>
[ 6907 6896 6895 6894 ] final   74.90 input  -60.11 | X-H torsion
[ 7974 7965 7964 7962 ] final   16.16 input  175.53 | X-H torsion
[ 8008 7997 7996 7995 ] final -125.40 input   59.86 | X-H torsion
[ 10167 10162 10161 10158 ] final  -88.95 input  -65.29 | X-H torsion
[ 10718 10713 10712 10709 ] final -110.35 input   66.30 | X-H torsion
[ 10763 10752 10751 10750 ] final -156.92 input  -60.55 | X-H torsion
[ 11005 11000 10999 10996 ] final  -28.04 input  -57.11 | X-H torsion

> <Gold.Protein.ActiveResidues>
 VAL166  LYS551  ARG553  GLY616  TRP617  ASP618  TYR619  PRO620  LYS621  CYS622 
 ASP623  PHE694  ASN695  SER759  ASP760  ASP761  ALA762  ILE779  LEU786  VAL792 
 PHE793  MET794  SER795  GLU796  ALA797  LYS798  CYS799  TRP800  GLU811  SER814 

> <Gold.Protein.RotatedAtoms>
  152.4999  134.4201  159.9477 H   0  0  0  0  0  0  0  0  0  0  0  0  # atno 6907 bound_to 6896
  151.4174  133.3702  159.2759 H   0  0  0  0  0  0  0  0  0  0  0  0  # atno 6908 bound_to 6896
  150.9247  134.8687  159.7572 H   0  0  0  0  0  0  0  0  0  0  0  0  # atno 6909 bound_to 6896
  146.2258  139.8789  142.8574 H   0  0  0  0  0  0  0  0  0  0  0  0  # atno 7974 bound_to 7965
  155.2127  140.0419  157.2936 H   0  0  0  0  0  0  0  0  0  0  0  0  # atno 8008 bound_to 7997
  154.6001  140.2450  155.7775 H   0  0  0  0  0  0  0  0  0  0  0  0  # atno 8009 bound_to 7997
  156.2315  140.2936  156.0211 H   0  0  0  0  0  0  0  0  0  0  0  0  # atno 8010 bound_to 7997
  140.3697  143.2801  151.9516 H   0  0  0  0  0  0  0  0  0  0  0  0  # atno 10167 bound_to 10162
  156.0586  130.5811  150.8225 H   0  0  0  0  0  0  0  0  0  0  0  0  # atno 10718 bound_to 10713
  154.7676  135.3135  154.8255 H   0  0  0  0  0  0  0  0  0  0  0  0  # atno 10763 bound_to 10752
  153.8999  135.6817  153.4760 H   0  0  0  0  0  0  0  0  0  0  0  0  # atno 10764 bound_to 10752
  153.1284  135.4791  154.9243 H   0  0  0  0  0  0  0  0  0  0  0  0  # atno 10765 bound_to 10752
  140.9173  133.7421  156.0753 H   0  0  0  0  0  0  0  0  0  0  0  0  # atno 11005 bound_to 11000
  145.2533  141.0051  143.3868 LP  0  0  0  0  0  0  0  0  0  0  0  0  # atno 17320 bound_to 7965
  144.9357  139.4247  143.6473 LP  0  0  0  0  0  0  0  0  0  0  0  0  # atno 17321 bound_to 7965
  139.4805  144.5918  151.7758 LP  0  0  0  0  0  0  0  0  0  0  0  0  # atno 17342 bound_to 10162
  140.5046  144.1118  150.5979 LP  0  0  0  0  0  0  0  0  0  0  0  0  # atno 17343 bound_to 10162
  157.5577  131.0945  150.9605 LP  0  0  0  0  0  0  0  0  0  0  0  0  # atno 17370 bound_to 10713
  156.9850  130.5541  149.5299 LP  0  0  0  0  0  0  0  0  0  0  0  0  # atno 17371 bound_to 10713
  140.8033  134.3484  157.5433 LP  0  0  0  0  0  0  0  0  0  0  0  0  # atno 17394 bound_to 11000
  139.8768  134.9210  156.3266 LP  0  0  0  0  0  0  0  0  0  0  0  0  # atno 17395 bound_to 11000

$$$$
