AV-unprocessed.smi:229|AV-procd|sdf|1759|dock9
  -GOLD-   2262020293D 1   1.00000     0.00000
 Structure written by MMmdl.
 58 62  0  0  0  0  0  0  0  0  1 V2000
  153.8257  141.6001  162.3689 C   0  0  0  0  0  0  0  0  0  0  0  0
  153.8728  141.1197  160.9121 C   0  0  0  0  0  0  0  0  0  0  0  0
  152.7189  141.6545  160.0480 C   0  0  2  0  0  0  0  0  0  0  0  0
  152.6721  141.0171  158.6476 C   0  0  0  0  0  0  0  0  0  0  0  0
  151.6276  141.6463  157.8494 N   0  0  0  0  0  0  0  0  0  0  0  0
  151.2666  140.9645  156.7329 C   0  0  0  0  0  0  0  0  0  0  0  0
  152.1154  140.0503  156.1901 N   0  0  0  0  0  0  0  0  0  0  0  0
  151.7642  139.3675  155.0962 C   0  0  0  0  0  0  0  0  0  0  0  0
  150.6325  139.4419  154.3933 N   0  0  0  0  0  0  0  0  0  0  0  0
  149.7808  140.3632  154.9273 C   0  0  0  0  0  0  0  0  0  0  0  0
  150.0157  141.1618  156.0822 C   0  0  0  0  0  0  0  0  0  0  0  0
  148.9254  141.9944  156.3096 N   0  0  0  0  0  0  0  0  0  0  0  0
  148.0906  141.6971  155.3515 C   0  0  0  0  0  0  0  0  0  0  0  0
  148.5249  140.7270  154.4773 N   0  0  0  0  0  0  0  0  0  0  0  0
  147.8089  140.2074  153.3258 C   0  0  0  0  0  0  0  0  0  0  0  0
  147.3131  138.7643  153.5426 C   0  0  2  0  0  0  0  0  0  0  0  0
  148.4281  137.9023  153.6729 O   0  0  0  0  0  0  0  0  0  0  0  0
  146.3977  138.2906  152.3949 C   0  0  1  0  0  0  0  0  0  0  0  0
  147.0167  138.1939  150.9966 C   0  0  0  0  0  0  0  0  0  0  0  0
  146.0800  137.2099  150.3327 C   0  0  0  0  0  0  0  0  0  0  0  0
  145.7880  136.2373  151.4738 C   0  0  0  0  0  0  0  0  0  0  0  0
  145.8473  137.0065  152.6729 O   0  0  0  0  0  0  0  0  0  0  0  0
  151.7766  143.0954  157.7547 C   0  0  0  0  0  0  0  0  0  0  0  0
  151.8836  143.7332  159.1582 C   0  0  2  0  0  0  0  0  0  0  0  0
  150.5549  143.7627  159.9222 C   0  0  0  0  0  0  0  0  0  0  0  0
  150.0908  145.2061  159.7891 C   0  0  0  0  0  0  0  0  0  0  0  0
  151.3102  145.9197  159.8674 O   0  0  0  0  0  0  0  0  0  0  0  0
  152.2515  145.2265  159.0602 C   0  0  0  0  0  0  0  0  0  0  0  0
  152.9029  143.0643  159.9083 O   0  0  0  0  0  0  0  0  0  0  0  0
  154.6969  141.2461  162.9201 H   0  0  0  0  0  0  0  0  0  0  0  0
  152.9399  141.2314  162.8857 H   0  0  0  0  0  0  0  0  0  0  0  0
  153.8188  142.6891  162.4240 H   0  0  0  0  0  0  0  0  0  0  0  0
  154.8180  141.4433  160.4748 H   0  0  0  0  0  0  0  0  0  0  0  0
  153.8837  140.0295  160.8838 H   0  0  0  0  0  0  0  0  0  0  0  0
  151.7799  141.4605  160.5681 H   0  0  0  0  0  0  0  0  0  0  0  0
  153.6300  141.1484  158.1421 H   0  0  0  0  0  0  0  0  0  0  0  0
  152.5074  139.9446  158.7356 H   0  0  0  0  0  0  0  0  0  0  0  0
  152.4952  138.6605  154.7324 H   0  0  0  0  0  0  0  0  0  0  0  0
  147.1314  142.1840  155.2512 H   0  0  0  0  0  0  0  0  0  0  0  0
  146.9666  140.8701  153.1231 H   0  0  0  0  0  0  0  0  0  0  0  0
  148.4642  140.2616  152.4554 H   0  0  0  0  0  0  0  0  0  0  0  0
  146.7489  138.7280  154.4754 H   0  0  0  0  0  0  0  0  0  0  0  0
  148.4560  137.3373  152.9158 H   0  0  0  0  0  0  0  0  0  0  0  0
  145.5399  138.9628  152.3374 H   0  0  0  0  0  0  0  0  0  0  0  0
  147.0619  139.1548  150.4836 H   0  0  0  0  0  0  0  0  0  0  0  0
  148.0229  137.7750  151.0260 H   0  0  0  0  0  0  0  0  0  0  0  0
  145.1635  137.7147  150.0240 H   0  0  0  0  0  0  0  0  0  0  0  0
  146.5143  136.7247  149.4581 H   0  0  0  0  0  0  0  0  0  0  0  0
  144.8224  135.7435  151.3637 H   0  0  0  0  0  0  0  0  0  0  0  0
  146.5587  135.4667  151.5211 H   0  0  0  0  0  0  0  0  0  0  0  0
  152.6768  143.3175  157.1794 H   0  0  0  0  0  0  0  0  0  0  0  0
  150.9331  143.5278  157.2139 H   0  0  0  0  0  0  0  0  0  0  0  0
  149.8196  143.0473  159.5523 H   0  0  0  0  0  0  0  0  0  0  0  0
  150.7225  143.5490  160.9789 H   0  0  0  0  0  0  0  0  0  0  0  0
  149.6177  145.3815  158.8215 H   0  0  0  0  0  0  0  0  0  0  0  0
  149.3969  145.5021  160.5759 H   0  0  0  0  0  0  0  0  0  0  0  0
  153.2703  145.4351  159.3884 H   0  0  0  0  0  0  0  0  0  0  0  0
  152.1563  145.5907  158.0359 H   0  0  0  0  0  0  0  0  0  0  0  0
  1  2  1  0  0  0  0
  1 30  1  0  0  0  0
  1 31  1  0  0  0  0
  1 32  1  0  0  0  0
  2  3  1  0  0  0  0
  2 33  1  0  0  0  0
  2 34  1  0  0  0  0
  3 29  1  0  0  0  0
  3  4  1  0  0  0  0
  3 35  1  0  0  0  0
  4  5  1  0  0  0  0
  4 36  1  0  0  0  0
  4 37  1  0  0  0  0
  5  6  1  0  0  0  0
  5 23  1  0  0  0  0
  6 11  1  0  0  0  0
  6  7  2  0  0  0  0
  7  8  1  0  0  0  0
  8  9  2  0  0  0  0
  8 38  1  0  0  0  0
  9 10  1  0  0  0  0
 10 14  1  0  0  0  0
 10 11  2  0  0  0  0
 11 12  1  0  0  0  0
 12 13  2  0  0  0  0
 13 14  1  0  0  0  0
 13 39  1  0  0  0  0
 14 15  1  0  0  0  0
 15 16  1  0  0  0  0
 15 40  1  0  0  0  0
 15 41  1  0  0  0  0
 16 17  1  0  0  0  0
 16 18  1  0  0  0  0
 16 42  1  0  0  0  0
 17 43  1  0  0  0  0
 18 22  1  0  0  0  0
 18 19  1  0  0  0  0
 18 44  1  0  0  0  0
 19 20  1  0  0  0  0
 19 45  1  0  0  0  0
 19 46  1  0  0  0  0
 20 21  1  0  0  0  0
 20 47  1  0  0  0  0
 20 48  1  0  0  0  0
 21 22  1  0  0  0  0
 21 49  1  0  0  0  0
 21 50  1  0  0  0  0
 23 24  1  0  0  0  0
 23 51  1  0  0  0  0
 23 52  1  0  0  0  0
 24 28  1  0  0  0  0
 24 25  1  0  0  0  0
 24 29  1  0  0  0  0
 25 26  1  0  0  0  0
 25 53  1  0  0  0  0
 25 54  1  0  0  0  0
 26 27  1  0  0  0  0
 26 55  1  0  0  0  0
 26 56  1  0  0  0  0
 27 28  1  0  0  0  0
 28 57  1  0  0  0  0
 28 58  1  0  0  0  0
M  END
> <s_m_source_file>
AV-unprocessed.smi

> <i_m_source_file_index>
229

> <i_lp_mmshare_version>
43012

> <i_f3d_flags>
0

> <s_epik_input>
W0NIMl0xT1tDSDJdW0NIMl1bQ0BdMTJbQ0gyXU4oW0NIMl1bQ0BIXShPMilbQ0gyXVtDSDNdKWMobltjSF1uMyljKGMzNCluW2NIXW40W0NIMl1bQ0BIXShbT0hdKVtDQEBIXTVbQ0gyXVtDSDJdW0NIMl1PNQ==

> <s_epik_cmdline>
J2VwaWtfcHl0aG9uJywgJy1waCcsICc3LjAnLCAnLXRuJywgJzgnLCAnLW1hJywgJzIwMCcsICctbWV0YWxfYmluZGluZycsICctaW1hZScsICc8aW5maWxlLm1hZT4nLCAnLW9tYWUnLCAnPG91dGZpbGUubWFlPic=

> <r_lp_tautomer_probability>
1

> <r_epik_Ionization_Penalty>
0.00318402

> <r_epik_Ionization_Penalty_Charging>
0

> <r_epik_Ionization_Penalty_Neutral>
0.00318402

> <r_epik_State_Penalty>
0.00215642

> <r_epik_Charging_Adjusted_Penalty>
0.00215642

> <i_epik_Tot_Q>
0

> <i_epik_Tot_abs_Q>
0

> <r_epik_Metal_State_Penalty>
-0

> <b_epik_Metal_Only>
0

> <s_lp_Force_Field>
OPLS_2005

> <r_lp_Energy>
55.431

> <b_lp_Chiralities_Consistent>
1

> <s_lp_Variant>
AV-unprocessed.smi:229-13

> <Gold.Version>
5.8.1

> <Gold.Id.Protein>
6NUR|6NUR_protein|mol2

> <Gold.PLP.Fitness>
53.0983

> <Gold.PLP.PLP>
-49.6166

> <Gold.PLP.part.hbond>
-4.3403

> <Gold.PLP.part.metal>
0.0000

> <Gold.PLP.part.buried>
7.7082

> <Gold.PLP.part.nonpolar>
-54.9161

> <Gold.PLP.part.repulsive>
2.8108

> <Gold.PLP.ligand.clash>
0.0000

> <Gold.PLP.ligand.torsion>
0.4928

> <Gold.PLP.Chemscore.Hbond>
1.3738

> <Gold.PLP.Chemscore.CHOScore>
0.0000

> <Gold.PLP.Chemscore.Metal>
0.0000

> <Gold.Chemscore.Hbonds>
donor molecule, donor type, donor heavy atom, donor atom, acceptor molecule, acceptor atom, score
      L1  H    17    43       P1  7948  1.00
      P1  H  7989  7998       L1     9  0.05
      P1  H  7997  8009       L1     7  0.50

> <Gold.PLP.Chemscore.Internal.Correction>
0.3461

> <Gold.Rescore>
     Score         DG    S(hbond)    S(metal)    S(lipo)     H(rot)  DE(clash)    DE(int)     intcor
     14.81     -18.58       1.22        0.00     130.82       2.46       2.04       1.73       ----

> <Gold.Chemscore.Fitness>
14.8064

> <Gold.Chemscore.DG>
-18.5782

> <Gold.Chemscore.ZeroCoef>
-5.4800

> <Gold.Chemscore.Hbond>
1.2240

> <Gold.Chemscore.Metal>
0.0000

> <Gold.Chemscore.Lipo>
130.8165

> <Gold.Chemscore.Internal_Hbond>
0.0000

> <Gold.Chemscore.DEClash>
2.0433

> <Gold.Chemscore.DEInternal>
1.7285

> <Gold.Chemscore.Rot>
2.4591

> <Gold.Chemscore.Internal.Correction>
   9.000000E+99

> <Gold.Chemscore.Hbonds>
donor molecule, donor type, donor heavy atom, donor atom, acceptor molecule, acceptor atom, score
      L1  H    17    43       P1  7948  0.98
      P1  H  7997  8009       L1     7  0.39

> <Gold.Chemscore.Hbond.Weighted>
-4.0880

> <Gold.Chemscore.Metal.Weighted>
-0.0000

> <Gold.Chemscore.Lipo.Weighted>
-15.3055

> <Gold.Chemscore.Internal_Hbond.Weighted>
0.0000

> <Gold.Chemscore.DEClash.Weighted>
2.0433

> <Gold.Chemscore.DEInternal.Weighted>
1.7285

> <Gold.Chemscore.Rot.Weighted>
6.2953

> <Gold.Chemscore.Internal.Correction.Weighted>
   9.000000E+99

> <Gold.Protein.RotatedTorsions>
[ 6907 6896 6895 6894 ] final   95.11 input  -60.11 | X-H torsion
[ 7974 7965 7964 7962 ] final  176.33 input  175.53 | X-H torsion
[ 8008 7997 7996 7995 ] final -168.03 input   59.86 | X-H torsion
[ 10167 10162 10161 10158 ] final -147.66 input  -65.29 | X-H torsion
[ 10718 10713 10712 10709 ] final    9.92 input   66.30 | X-H torsion
[ 10763 10752 10751 10750 ] final  -43.33 input  -60.55 | X-H torsion
[ 11005 11000 10999 10996 ] final  -45.94 input  -57.11 | X-H torsion

> <Gold.Protein.ActiveResidues>
 VAL166  LYS551  ARG553  GLY616  TRP617  ASP618  TYR619  PRO620  LYS621  CYS622 
 ASP623  PHE694  ASN695  SER759  ASP760  ASP761  ALA762  ILE779  LEU786  VAL792 
 PHE793  MET794  SER795  GLU796  ALA797  LYS798  CYS799  TRP800  GLU811  SER814 

> <Gold.Protein.RotatedAtoms>
  152.5446  134.1091  159.8350 H   0  0  0  0  0  0  0  0  0  0  0  0  # atno 6907 bound_to 6896
  151.1159  133.5131  159.2611 H   0  0  0  0  0  0  0  0  0  0  0  0  # atno 6908 bound_to 6896
  151.1832  135.0380  159.8856 H   0  0  0  0  0  0  0  0  0  0  0  0  # atno 6909 bound_to 6896
  144.7186  140.0080  143.6440 H   0  0  0  0  0  0  0  0  0  0  0  0  # atno 7974 bound_to 7965
  155.8859  140.1016  157.1453 H   0  0  0  0  0  0  0  0  0  0  0  0  # atno 8008 bound_to 7997
  154.4010  140.1320  156.4318 H   0  0  0  0  0  0  0  0  0  0  0  0  # atno 8009 bound_to 7997
  155.7590  140.3463  155.5190 H   0  0  0  0  0  0  0  0  0  0  0  0  # atno 8010 bound_to 7997
  139.7602  143.8389  152.2605 H   0  0  0  0  0  0  0  0  0  0  0  0  # atno 10167 bound_to 10162
  156.9733  130.5977  149.5670 H   0  0  0  0  0  0  0  0  0  0  0  0  # atno 10718 bound_to 10713
  153.9938  135.6702  153.4755 H   0  0  0  0  0  0  0  0  0  0  0  0  # atno 10763 bound_to 10752
  153.0693  135.4983  154.8265 H   0  0  0  0  0  0  0  0  0  0  0  0  # atno 10764 bound_to 10752
  154.7093  135.3094  154.9184 H   0  0  0  0  0  0  0  0  0  0  0  0  # atno 10765 bound_to 10752
  141.0547  133.6730  156.3084 H   0  0  0  0  0  0  0  0  0  0  0  0  # atno 11005 bound_to 11000
  146.0281  139.3311  143.0772 LP  0  0  0  0  0  0  0  0  0  0  0  0  # atno 17320 bound_to 7965
  145.8486  140.9541  143.0762 LP  0  0  0  0  0  0  0  0  0  0  0  0  # atno 17321 bound_to 7965
  139.8393  144.7217  150.9352 LP  0  0  0  0  0  0  0  0  0  0  0  0  # atno 17342 bound_to 10162
  140.7806  143.3998  151.1168 LP  0  0  0  0  0  0  0  0  0  0  0  0  # atno 17343 bound_to 10162
  156.0274  130.5367  150.8443 LP  0  0  0  0  0  0  0  0  0  0  0  0  # atno 17370 bound_to 10713
  157.5577  131.0945  150.9604 LP  0  0  0  0  0  0  0  0  0  0  0  0  # atno 17371 bound_to 10713
  140.5986  134.5578  157.5513 LP  0  0  0  0  0  0  0  0  0  0  0  0  # atno 17394 bound_to 11000
  139.9380  134.7839  156.0751 LP  0  0  0  0  0  0  0  0  0  0  0  0  # atno 17395 bound_to 11000

$$$$
