AV-unprocessed.smi:115|AV-procd|sdf|1124|dock10
  -GOLD-   2262018253D 1   1.00000     0.00000
 Structure written by MMmdl.
 55 57  0  0  0  0  0  0  0  0  1 V2000
  141.5580  146.3603  155.2312 C   0  0  0  0  0  0  0  0  0  0  0  0
  142.0323  145.3193  154.3947 O   0  0  0  0  0  0  0  0  0  0  0  0
  142.5661  144.2293  155.1297 C   0  0  0  0  0  0  0  0  0  0  0  0
  144.0389  144.5285  155.4771 C   0  0  1  0  0  0  0  0  0  0  0  0
  144.2212  145.6923  156.4665 C   0  0  0  0  0  0  0  0  0  0  0  0
  144.8004  143.3360  155.8842 N   0  0  0  0  0  0  0  0  0  0  0  0
  144.5856  142.6477  157.0776 C   0  0  0  0  0  0  0  0  0  0  0  0
  143.5479  143.0383  158.0828 C   0  0  0  0  0  0  0  0  0  0  0  0
  145.4722  141.6152  157.1329 C   0  0  0  0  0  0  0  0  0  0  0  0
  146.2558  141.6268  155.9488 C   0  0  0  0  0  0  0  0  0  0  0  0
  147.3696  140.7126  155.5863 C   0  0  0  0  0  0  0  0  0  0  0  0
  147.2917  139.4859  155.6676 O   0  0  0  0  0  0  0  0  0  0  0  0
  148.6542  141.3925  155.0762 C   0  0  0  0  0  0  0  0  0  0  0  0
  149.8404  141.0105  155.8335 N   0  0  0  0  0  0  0  0  0  0  0  0
  150.7279  140.0787  155.2405 C   0  0  0  0  0  0  0  0  0  0  0  0
  150.5315  139.6088  154.1183 O   0  0  0  0  0  0  0  0  0  0  0  0
  151.8788  139.7320  156.0656 C   0  0  0  0  0  0  0  0  0  0  0  0
  152.7543  138.8097  155.6307 F   0  0  0  0  0  0  0  0  0  0  0  0
  152.0727  140.3098  157.2704 C   0  0  0  0  0  0  0  0  0  0  0  0
  151.2290  141.2750  157.7966 N   0  0  0  0  0  0  0  0  0  0  0  0
  151.4348  141.8324  159.1905 C   0  0  2  0  0  0  0  0  0  0  0  0
  151.5365  143.3672  159.2450 C   0  0  0  0  0  0  0  0  0  0  0  0
  153.0185  143.5867  159.4804 C   0  0  0  0  0  0  0  0  0  0  0  0
  153.3917  142.3439  160.2791 C   0  0  0  0  0  0  0  0  0  0  0  0
  152.6299  141.3029  159.6816 O   0  0  0  0  0  0  0  0  0  0  0  0
  150.0461  141.6126  157.0992 C   0  0  0  0  0  0  0  0  0  0  0  0
  149.2354  142.4119  157.5734 O   0  0  0  0  0  0  0  0  0  0  0  0
  145.8079  142.6698  155.1685 C   0  0  0  0  0  0  0  0  0  0  0  0
  146.2505  143.1038  153.7982 C   0  0  0  0  0  0  0  0  0  0  0  0
  141.1662  147.1722  154.6187 H   0  0  0  0  0  0  0  0  0  0  0  0
  142.3584  146.7635  155.8530 H   0  0  0  0  0  0  0  0  0  0  0  0
  140.7536  146.0096  155.8792 H   0  0  0  0  0  0  0  0  0  0  0  0
  141.9620  144.0718  156.0219 H   0  0  0  0  0  0  0  0  0  0  0  0
  142.5042  143.3244  154.5224 H   0  0  0  0  0  0  0  0  0  0  0  0
  144.4663  144.8717  154.5367 H   0  0  0  0  0  0  0  0  0  0  0  0
  143.7437  146.5979  156.0913 H   0  0  0  0  0  0  0  0  0  0  0  0
  145.2784  145.9175  156.6089 H   0  0  0  0  0  0  0  0  0  0  0  0
  143.7958  145.4838  157.4461 H   0  0  0  0  0  0  0  0  0  0  0  0
  143.4926  142.3052  158.8877 H   0  0  0  0  0  0  0  0  0  0  0  0
  142.5603  143.0989  157.6245 H   0  0  0  0  0  0  0  0  0  0  0  0
  143.7815  144.0042  158.5316 H   0  0  0  0  0  0  0  0  0  0  0  0
  145.5518  140.9197  157.9556 H   0  0  0  0  0  0  0  0  0  0  0  0
  148.8286  141.1591  154.0250 H   0  0  0  0  0  0  0  0  0  0  0  0
  148.5644  142.4792  155.1185 H   0  0  0  0  0  0  0  0  0  0  0  0
  152.9311  139.9854  157.8365 H   0  0  0  0  0  0  0  0  0  0  0  0
  150.5868  141.4919  159.7860 H   0  0  0  0  0  0  0  0  0  0  0  0
  151.1320  143.8612  158.3615 H   0  0  0  0  0  0  0  0  0  0  0  0
  150.9703  143.7131  160.1108 H   0  0  0  0  0  0  0  0  0  0  0  0
  153.5630  143.6025  158.5362 H   0  0  0  0  0  0  0  0  0  0  0  0
  153.2330  144.5142  160.0119 H   0  0  0  0  0  0  0  0  0  0  0  0
  154.4598  142.1278  160.2500 H   0  0  0  0  0  0  0  0  0  0  0  0
  153.0923  142.4533  161.3226 H   0  0  0  0  0  0  0  0  0  0  0  0
  146.6085  142.2624  153.2069 H   0  0  0  0  0  0  0  0  0  0  0  0
  147.0564  143.8348  153.8644 H   0  0  0  0  0  0  0  0  0  0  0  0
  145.4417  143.5357  153.2163 H   0  0  0  0  0  0  0  0  0  0  0  0
  1  2  1  0  0  0  0
  1 30  1  0  0  0  0
  1 31  1  0  0  0  0
  1 32  1  0  0  0  0
  2  3  1  0  0  0  0
  3  4  1  0  0  0  0
  3 33  1  0  0  0  0
  3 34  1  0  0  0  0
  4  5  1  0  0  0  0
  4  6  1  0  0  0  0
  4 35  1  0  0  0  0
  5 36  1  0  0  0  0
  5 37  1  0  0  0  0
  5 38  1  0  0  0  0
  6 28  1  0  0  0  0
  6  7  1  0  0  0  0
  7  8  1  0  0  0  0
  7  9  2  0  0  0  0
  8 39  1  0  0  0  0
  8 40  1  0  0  0  0
  8 41  1  0  0  0  0
  9 10  1  0  0  0  0
  9 42  1  0  0  0  0
 10 11  1  0  0  0  0
 10 28  2  0  0  0  0
 11 12  2  0  0  0  0
 11 13  1  0  0  0  0
 13 14  1  0  0  0  0
 13 43  1  0  0  0  0
 13 44  1  0  0  0  0
 14 26  1  0  0  0  0
 14 15  1  0  0  0  0
 15 16  2  0  0  0  0
 15 17  1  0  0  0  0
 17 18  1  0  0  0  0
 17 19  2  0  0  0  0
 19 20  1  0  0  0  0
 19 45  1  0  0  0  0
 20 21  1  0  0  0  0
 20 26  1  0  0  0  0
 21 25  1  0  0  0  0
 21 22  1  0  0  0  0
 21 46  1  0  0  0  0
 22 23  1  0  0  0  0
 22 47  1  0  0  0  0
 22 48  1  0  0  0  0
 23 24  1  0  0  0  0
 23 49  1  0  0  0  0
 23 50  1  0  0  0  0
 24 25  1  0  0  0  0
 24 51  1  0  0  0  0
 24 52  1  0  0  0  0
 26 27  2  0  0  0  0
 28 29  1  0  0  0  0
 29 53  1  0  0  0  0
 29 54  1  0  0  0  0
 29 55  1  0  0  0  0
M  END
> <s_m_source_file>
AV-unprocessed.smi

> <i_m_source_file_index>
115

> <i_lp_mmshare_version>
43012

> <i_f3d_flags>
0

> <s_epik_input>
W0NIM11PW0NIMl1bQ0BIXShbQ0gzXSluMWMoW0NIM10pW2NIXWMoYzFbQ0gzXSlDKD1PKVtDSDJdbjJjKD1PKWMoRilbY0hdbihjMj1PKVtDQEBIXTNbQ0gyXVtDSDJdW0NIMl1PMw==

> <s_epik_cmdline>
J2VwaWtfcHl0aG9uJywgJy1waCcsICc3LjAnLCAnLXRuJywgJzgnLCAnLW1hJywgJzIwMCcsICctbWV0YWxfYmluZGluZycsICctaW1hZScsICc8aW5maWxlLm1hZT4nLCAnLW9tYWUnLCAnPG91dGZpbGUubWFlPic=

> <r_lp_tautomer_probability>
1

> <r_epik_Ionization_Penalty>
5.02611e-09

> <r_epik_Ionization_Penalty_Charging>
5.01743e-09

> <r_epik_Ionization_Penalty_Neutral>
8.68114e-12

> <r_epik_State_Penalty>
-0

> <r_epik_Charging_Adjusted_Penalty>
5.01743e-09

> <i_epik_Tot_Q>
0

> <i_epik_Tot_abs_Q>
0

> <r_epik_Metal_State_Penalty>
-0

> <b_epik_Metal_Only>
0

> <s_epik_Chemistry_Notes>
This compound contains an acetal/aminal-like group ( X-CH(R)-Y where X, Y are N, S, or O) that may be acid/base labile, releasing an aldehyde.

> <s_lp_Force_Field>
OPLS_2005

> <r_lp_Energy>
46.8154

> <b_lp_Chiralities_Consistent>
1

> <s_lp_Variant>
AV-unprocessed.smi:115-2

> <Gold.Version>
5.8.1

> <Gold.Id.Protein>
6NUR|6NUR_protein|mol2

> <Gold.PLP.Fitness>
44.8987

> <Gold.PLP.PLP>
-46.4570

> <Gold.PLP.part.hbond>
-1.0000

> <Gold.PLP.part.metal>
0.0000

> <Gold.PLP.part.buried>
-6.1114

> <Gold.PLP.part.nonpolar>
-40.5172

> <Gold.PLP.part.repulsive>
1.3133

> <Gold.PLP.ligand.clash>
0.0000

> <Gold.PLP.ligand.torsion>
1.4454

> <Gold.PLP.Chemscore.Hbond>
0.3500

> <Gold.PLP.Chemscore.CHOScore>
0.0000

> <Gold.PLP.Chemscore.Metal>
0.0000

> <Gold.Chemscore.Hbonds>
donor molecule, donor type, donor heavy atom, donor atom, acceptor molecule, acceptor atom, score
      P1  H  7989  7998       L1    16  0.40

> <Gold.PLP.Chemscore.Internal.Correction>
0.2825

> <Gold.Rescore>
     Score         DG    S(hbond)    S(metal)    S(lipo)     H(rot)  DE(clash)    DE(int)     intcor
      8.89     -11.73       0.45        0.00      88.67       2.19       0.52       2.32       ----

> <Gold.Chemscore.Fitness>
8.8887

> <Gold.Chemscore.DG>
-11.7343

> <Gold.Chemscore.ZeroCoef>
-5.4800

> <Gold.Chemscore.Hbond>
0.4478

> <Gold.Chemscore.Metal>
0.0000

> <Gold.Chemscore.Lipo>
88.6721

> <Gold.Chemscore.Internal_Hbond>
0.0000

> <Gold.Chemscore.DEClash>
0.5248

> <Gold.Chemscore.DEInternal>
2.3208

> <Gold.Chemscore.Rot>
2.1938

> <Gold.Chemscore.Internal.Correction>
   9.000000E+99

> <Gold.Chemscore.Hbonds>
donor molecule, donor type, donor heavy atom, donor atom, acceptor molecule, acceptor atom, score
      P1  H  7989  7998       L1    16  0.01

> <Gold.Chemscore.Hbond.Weighted>
-1.4956

> <Gold.Chemscore.Metal.Weighted>
-0.0000

> <Gold.Chemscore.Lipo.Weighted>
-10.3746

> <Gold.Chemscore.Internal_Hbond.Weighted>
0.0000

> <Gold.Chemscore.DEClash.Weighted>
0.5248

> <Gold.Chemscore.DEInternal.Weighted>
2.3208

> <Gold.Chemscore.Rot.Weighted>
5.6160

> <Gold.Chemscore.Internal.Correction.Weighted>
   9.000000E+99

> <Gold.Protein.RotatedTorsions>
[ 6907 6896 6895 6894 ] final  -53.11 input  -60.11 | X-H torsion
[ 7974 7965 7964 7962 ] final  111.96 input  175.53 | X-H torsion
[ 8008 7997 7996 7995 ] final   44.45 input   59.86 | X-H torsion
[ 10167 10162 10161 10158 ] final -163.36 input  -65.29 | X-H torsion
[ 10718 10713 10712 10709 ] final   69.25 input   66.30 | X-H torsion
[ 10763 10752 10751 10750 ] final  -89.65 input  -60.55 | X-H torsion
[ 11005 11000 10999 10996 ] final  -27.78 input  -57.11 | X-H torsion

> <Gold.Protein.ActiveResidues>
 VAL166  LYS551  ARG553  GLY616  TRP617  ASP618  TYR619  PRO620  LYS621  CYS622 
 ASP623  PHE694  ASN695  SER759  ASP760  ASP761  ALA762  ILE779  LEU786  VAL792 
 PHE793  MET794  SER795  GLU796  ALA797  LYS798  CYS799  TRP800  GLU811  SER814 

> <Gold.Protein.RotatedAtoms>
  150.8456  134.7764  159.6967 H   0  0  0  0  0  0  0  0  0  0  0  0  # atno 6907 bound_to 6896
  152.4533  134.5342  159.9830 H   0  0  0  0  0  0  0  0  0  0  0  0  # atno 6908 bound_to 6896
  151.5473  133.3385  159.2982 H   0  0  0  0  0  0  0  0  0  0  0  0  # atno 6909 bound_to 6896
  145.2356  139.2801  143.4145 H   0  0  0  0  0  0  0  0  0  0  0  0  # atno 7974 bound_to 7965
  155.3195  140.3396  155.4241 H   0  0  0  0  0  0  0  0  0  0  0  0  # atno 8008 bound_to 7997
  156.1916  140.1699  156.8118 H   0  0  0  0  0  0  0  0  0  0  0  0  # atno 8009 bound_to 7997
  154.5449  140.0717  156.8555 H   0  0  0  0  0  0  0  0  0  0  0  0  # atno 8010 bound_to 7997
  139.6326  144.0411  152.2028 H   0  0  0  0  0  0  0  0  0  0  0  0  # atno 10167 bound_to 10162
  157.6335  130.9416  150.0488 H   0  0  0  0  0  0  0  0  0  0  0  0  # atno 10718 bound_to 10713
  154.6575  135.5333  153.7976 H   0  0  0  0  0  0  0  0  0  0  0  0  # atno 10763 bound_to 10752
  153.0422  135.6497  154.0923 H   0  0  0  0  0  0  0  0  0  0  0  0  # atno 10764 bound_to 10752
  154.0835  135.2945  155.3265 H   0  0  0  0  0  0  0  0  0  0  0  0  # atno 10765 bound_to 10752
  140.9149  133.7436  156.0722 H   0  0  0  0  0  0  0  0  0  0  0  0  # atno 11005 bound_to 11000
  146.3342  140.2704  142.8605 LP  0  0  0  0  0  0  0  0  0  0  0  0  # atno 17320 bound_to 7965
  144.9636  140.8300  143.5498 LP  0  0  0  0  0  0  0  0  0  0  0  0  # atno 17321 bound_to 7965
  140.0080  144.6245  150.7672 LP  0  0  0  0  0  0  0  0  0  0  0  0  # atno 17342 bound_to 10162
  140.7447  143.2865  151.3449 LP  0  0  0  0  0  0  0  0  0  0  0  0  # atno 17343 bound_to 10162
  156.1557  130.3643  149.9373 LP  0  0  0  0  0  0  0  0  0  0  0  0  # atno 17370 bound_to 10713
  156.7382  130.9069  151.3630 LP  0  0  0  0  0  0  0  0  0  0  0  0  # atno 17371 bound_to 10713
  140.8062  134.3452  157.5425 LP  0  0  0  0  0  0  0  0  0  0  0  0  # atno 17394 bound_to 11000
  139.8764  134.9227  156.3307 LP  0  0  0  0  0  0  0  0  0  0  0  0  # atno 17395 bound_to 11000

$$$$
