AV-unprocessed.smi:1601|AV-procd|sdf|6437|dock2
  -GOLD-   22720 7 83D 1   1.00000     0.00000
 Structure written by MMmdl.
 42 43  0  0  0  0  0  0  0  0  2 V2000
  145.5376  137.2628  152.1996 C   0  0  0  0  0  0  0  0  0  0  0  0
  145.8075  136.0682  153.1470 C   0  0  2  0  0  0  0  0  0  0  0  0
  146.6986  136.5214  154.3396 C   0  0  0  0  0  0  0  0  0  0  0  0
  147.7036  137.5130  153.9655 N   0  0  0  0  0  0  0  0  0  0  0  0
  147.7114  138.7924  154.3730 C   0  0  0  0  0  0  0  0  0  0  0  0
  146.8544  139.2602  155.1237 O   0  0  0  0  0  0  0  0  0  0  0  0
  148.8551  139.6712  153.8425 C   0  0  1  0  0  0  0  0  0  0  0  0
  148.6092  141.1738  154.0896 C   0  0  0  0  0  0  0  0  0  0  0  0
  150.1338  139.2229  154.3826 N   0  0  0  0  0  0  0  0  0  0  0  0
  150.6421  137.9399  154.4039 C   0  0  0  0  0  0  0  0  0  0  0  0
  151.8513  137.9867  155.0363 C   0  0  0  0  0  0  0  0  0  0  0  0
  151.9971  139.3579  155.3850 C   0  0  0  0  0  0  0  0  0  0  0  0
  150.9658  140.0923  155.0025 N   0  0  0  0  0  0  0  0  0  0  0  0
  146.3811  134.9018  152.3950 N   0  3  0  0  0  0  0  0  0  0  0  0
  146.6776  133.7071  153.2352 C   0  0  0  0  0  0  0  0  0  0  0  0
  147.2546  132.5534  152.3968 C   0  0  0  0  0  0  0  0  0  0  0  0
  146.3592  132.2227  151.3477 O   0  0  0  0  0  0  0  0  0  0  0  0
  146.1765  133.3182  150.4656 C   0  0  0  0  0  0  0  0  0  0  0  0
  145.5470  134.4949  151.2288 C   0  0  0  0  0  0  0  0  0  0  0  0
  145.1707  138.1375  152.7356 H   0  0  0  0  0  0  0  0  0  0  0  0
  144.7717  137.0440  151.4576 H   0  0  0  0  0  0  0  0  0  0  0  0
  146.4441  137.5601  151.6716 H   0  0  0  0  0  0  0  0  0  0  0  0
  144.8505  135.7430  153.5583 H   0  0  0  0  0  0  0  0  0  0  0  0
  146.1069  136.9650  155.1404 H   0  0  0  0  0  0  0  0  0  0  0  0
  147.2141  135.6621  154.7695 H   0  0  0  0  0  0  0  0  0  0  0  0
  148.4434  137.2061  153.3503 H   0  0  0  0  0  0  0  0  0  0  0  0
  148.8986  139.5303  152.7611 H   0  0  0  0  0  0  0  0  0  0  0  0
  147.6748  141.4995  153.6310 H   0  0  0  0  0  0  0  0  0  0  0  0
  149.4106  141.7738  153.6579 H   0  0  0  0  0  0  0  0  0  0  0  0
  148.5545  141.4129  155.1524 H   0  0  0  0  0  0  0  0  0  0  0  0
  150.1073  137.1081  153.9696 H   0  0  0  0  0  0  0  0  0  0  0  0
  152.5277  137.1663  155.2244 H   0  0  0  0  0  0  0  0  0  0  0  0
  152.8140  139.8370  155.9041 H   0  0  0  0  0  0  0  0  0  0  0  0
  147.4166  133.9407  153.9998 H   0  0  0  0  0  0  0  0  0  0  0  0
  145.7683  133.3830  153.7440 H   0  0  0  0  0  0  0  0  0  0  0  0
  148.2316  132.8184  151.9889 H   0  0  0  0  0  0  0  0  0  0  0  0
  147.4022  131.6731  153.0227 H   0  0  0  0  0  0  0  0  0  0  0  0
  147.1279  133.6075  150.0161 H   0  0  0  0  0  0  0  0  0  0  0  0
  145.5220  133.0079  149.6509 H   0  0  0  0  0  0  0  0  0  0  0  0
  144.5482  134.2207  151.5725 H   0  0  0  0  0  0  0  0  0  0  0  0
  145.4289  135.3143  150.5229 H   0  0  0  0  0  0  0  0  0  0  0  0
  147.2686  135.2094  152.0238 H   0  0  0  0  0  0  0  0  0  0  0  0
  1  2  1  0  0  0  0
  1 20  1  0  0  0  0
  1 21  1  0  0  0  0
  1 22  1  0  0  0  0
  2  3  1  0  0  0  0
  2 14  1  0  0  0  0
  2 23  1  0  0  0  0
  3  4  1  0  0  0  0
  3 24  1  0  0  0  0
  3 25  1  0  0  0  0
  4  5  1  0  0  0  0
  4 26  1  0  0  0  0
  5  6  2  0  0  0  0
  5  7  1  0  0  0  0
  7  8  1  0  0  0  0
  7  9  1  0  0  0  0
  7 27  1  0  0  0  0
  8 28  1  0  0  0  0
  8 29  1  0  0  0  0
  8 30  1  0  0  0  0
  9 13  1  0  0  0  0
  9 10  1  0  0  0  0
 10 11  2  0  0  0  0
 10 31  1  0  0  0  0
 11 12  1  0  0  0  0
 11 32  1  0  0  0  0
 12 13  2  0  0  0  0
 12 33  1  0  0  0  0
 14 19  1  0  0  0  0
 14 15  1  0  0  0  0
 14 42  1  0  0  0  0
 15 16  1  0  0  0  0
 15 34  1  0  0  0  0
 15 35  1  0  0  0  0
 16 17  1  0  0  0  0
 16 36  1  0  0  0  0
 16 37  1  0  0  0  0
 17 18  1  0  0  0  0
 18 19  1  0  0  0  0
 18 38  1  0  0  0  0
 18 39  1  0  0  0  0
 19 40  1  0  0  0  0
 19 41  1  0  0  0  0
M  CHG  1  14   1
M  END
> <s_m_source_file>
AV-unprocessed.smi

> <i_m_source_file_index>
1601

> <i_lp_mmshare_version>
43012

> <i_f3d_flags>
0

> <s_epik_input>
W0NIMl0xW0NIMl1PW0NIMl1bQ0gyXU4xW0NASF0oW0NIM10pW0NIMl1bTkhdQyg9TylbQ0BIXShbQ0gzXSluMltjSF1bY0hdW2NIXW4y

> <s_epik_cmdline>
J2VwaWtfcHl0aG9uJywgJy1waCcsICc3LjAnLCAnLXRuJywgJzgnLCAnLW1hJywgJzIwMCcsICctbWV0YWxfYmluZGluZycsICctaW1hZScsICc8aW5maWxlLm1hZT4nLCAnLW9tYWUnLCAnPG91dGZpbGUubWFlPic=

> <r_lp_tautomer_probability>
1

> <r_epik_Ionization_Penalty>
0.732551

> <r_epik_Ionization_Penalty_Charging>
0.732531

> <r_epik_Ionization_Penalty_Neutral>
2.04647e-05

> <r_epik_State_Penalty>
0.757939

> <r_epik_Charging_Adjusted_Penalty>
1.49047

> <i_epik_Tot_Q>
1

> <i_epik_Tot_abs_Q>
1

> <r_epik_Metal_State_Penalty>
0.757952

> <b_epik_Metal_Only>
0

> <s_lp_Force_Field>
OPLS_2005

> <r_lp_Energy>
24.7345

> <b_lp_Chiralities_Consistent>
1

> <s_lp_Variant>
AV-unprocessed.smi:1601-7

> <Gold.Version>
5.8.1

> <Gold.Id.Protein>
6NUR|6NUR_protein|mol2

> <Gold.PLP.Fitness>
44.8196

> <Gold.PLP.PLP>
-30.9461

> <Gold.PLP.part.hbond>
-3.0000

> <Gold.PLP.part.metal>
0.0000

> <Gold.PLP.part.buried>
-1.1761

> <Gold.PLP.part.nonpolar>
-28.1097

> <Gold.PLP.part.repulsive>
0.2120

> <Gold.PLP.ligand.clash>
0.0000

> <Gold.PLP.ligand.torsion>
0.6256

> <Gold.PLP.Chemscore.Hbond>
3.9500

> <Gold.PLP.Chemscore.CHOScore>
1.0383

> <Gold.PLP.Chemscore.Metal>
0.0000

> <Gold.Chemscore.Hbonds>
donor molecule, donor type, donor heavy atom, donor atom, acceptor molecule, acceptor atom, score
      L1  H     4    26       P1  7948  0.99
      L1  H    14    42       P1  7948  2.00
      P1  H  7989  7998       L1    13  0.85
      L1  C    10    31       P1  7948  1.00
      L1  C    10    31       P1  7949  0.01

> <Gold.PLP.Chemscore.Internal.Correction>
0.1597

> <Gold.Rescore>
     Score         DG    S(hbond)    S(metal)    S(lipo)     H(rot)  DE(clash)    DE(int)     intcor
     13.89     -15.83       1.99        0.00      72.30       1.86       1.25       0.68       ----

> <Gold.Chemscore.Fitness>
13.8905

> <Gold.Chemscore.DG>
-15.8252

> <Gold.Chemscore.ZeroCoef>
-5.4800

> <Gold.Chemscore.Hbond>
1.9927

> <Gold.Chemscore.Metal>
0.0000

> <Gold.Chemscore.Lipo>
72.3016

> <Gold.Chemscore.Internal_Hbond>
0.0000

> <Gold.Chemscore.DEClash>
1.2515

> <Gold.Chemscore.DEInternal>
0.6832

> <Gold.Chemscore.Rot>
1.8631

> <Gold.Chemscore.Internal.Correction>
   9.000000E+99

> <Gold.Chemscore.Hbonds>
donor molecule, donor type, donor heavy atom, donor atom, acceptor molecule, acceptor atom, score
      L1  H     4    26       P1  7948  0.93
      L1  H    14    42       P1  7948  0.98
      P1  H  7989  7998       L1    13  0.04

> <Gold.Chemscore.Hbond.Weighted>
-6.6556

> <Gold.Chemscore.Metal.Weighted>
-0.0000

> <Gold.Chemscore.Lipo.Weighted>
-8.4593

> <Gold.Chemscore.Internal_Hbond.Weighted>
0.0000

> <Gold.Chemscore.DEClash.Weighted>
1.2515

> <Gold.Chemscore.DEInternal.Weighted>
0.6832

> <Gold.Chemscore.Rot.Weighted>
4.7697

> <Gold.Chemscore.Internal.Correction.Weighted>
   9.000000E+99

> <Gold.Protein.RotatedTorsions>
[ 6907 6896 6895 6894 ] final  138.39 input  -60.11 | X-H torsion
[ 7974 7965 7964 7962 ] final -119.60 input  175.53 | X-H torsion
[ 8008 7997 7996 7995 ] final -113.96 input   59.86 | X-H torsion
[ 10167 10162 10161 10158 ] final -168.27 input  -65.29 | X-H torsion
[ 10718 10713 10712 10709 ] final -131.78 input   66.30 | X-H torsion
[ 10763 10752 10751 10750 ] final  -92.10 input  -60.55 | X-H torsion
[ 11005 11000 10999 10996 ] final -117.20 input  -57.11 | X-H torsion

> <Gold.Protein.ActiveResidues>
 VAL166  LYS551  ARG553  GLY616  TRP617  ASP618  TYR619  PRO620  LYS621  CYS622 
 ASP623  PHE694  ASN695  SER759  ASP760  ASP761  ALA762  ILE779  LEU786  VAL792 
 PHE793  MET794  SER795  GLU796  ALA797  LYS798  CYS799  TRP800  GLU811  SER814 

> <Gold.Protein.RotatedAtoms>
  152.2671  133.5349  159.5416 H   0  0  0  0  0  0  0  0  0  0  0  0  # atno 6907 bound_to 6896
  150.7145  134.0750  159.3886 H   0  0  0  0  0  0  0  0  0  0  0  0  # atno 6908 bound_to 6896
  151.8665  135.0505  160.0525 H   0  0  0  0  0  0  0  0  0  0  0  0  # atno 6909 bound_to 6896
  145.0607  140.8288  143.4154 H   0  0  0  0  0  0  0  0  0  0  0  0  # atno 7974 bound_to 7965
  155.0289  140.0393  157.2466 H   0  0  0  0  0  0  0  0  0  0  0  0  # atno 8008 bound_to 7997
  154.7313  140.2731  155.6430 H   0  0  0  0  0  0  0  0  0  0  0  0  # atno 8009 bound_to 7997
  156.2842  140.2683  156.2014 H   0  0  0  0  0  0  0  0  0  0  0  0  # atno 8010 bound_to 7997
  139.5996  144.1039  152.1728 H   0  0  0  0  0  0  0  0  0  0  0  0  # atno 10167 bound_to 10162
  156.2279  130.7019  151.0827 H   0  0  0  0  0  0  0  0  0  0  0  0  # atno 10718 bound_to 10713
  154.6827  135.5243  153.8285 H   0  0  0  0  0  0  0  0  0  0  0  0  # atno 10763 bound_to 10752
  153.0576  135.6556  154.0549 H   0  0  0  0  0  0  0  0  0  0  0  0  # atno 10764 bound_to 10752
  154.0434  135.2975  155.3331 H   0  0  0  0  0  0  0  0  0  0  0  0  # atno 10765 bound_to 10752
  141.0371  133.9893  157.3054 H   0  0  0  0  0  0  0  0  0  0  0  0  # atno 11005 bound_to 11000
  145.1412  139.2571  143.5489 LP  0  0  0  0  0  0  0  0  0  0  0  0  # atno 17320 bound_to 7965
  146.3524  140.1090  142.8604 LP  0  0  0  0  0  0  0  0  0  0  0  0  # atno 17321 bound_to 7965
  140.0632  144.5840  150.7247 LP  0  0  0  0  0  0  0  0  0  0  0  0  # atno 17342 bound_to 10162
  140.7239  143.2616  151.4186 LP  0  0  0  0  0  0  0  0  0  0  0  0  # atno 17343 bound_to 10162
  157.7119  131.0730  150.6469 LP  0  0  0  0  0  0  0  0  0  0  0  0  # atno 17370 bound_to 10713
  156.6535  130.4492  149.5711 LP  0  0  0  0  0  0  0  0  0  0  0  0  # atno 17371 bound_to 10713
  139.9248  135.0201  156.8196 LP  0  0  0  0  0  0  0  0  0  0  0  0  # atno 17394 bound_to 11000
  140.6303  133.9912  155.7658 LP  0  0  0  0  0  0  0  0  0  0  0  0  # atno 17395 bound_to 11000

$$$$
