AV-unprocessed.smi:3011|AV-procd|sdf|11459|dock1
  -GOLD-   2272016393D 1   1.00000     0.00000
 Structure written by MMmdl.
 47 49  0  0  0  0  0  0  0  0  2 V2000
  147.9278  131.5352  160.3750 C   0  0  0  0  0  0  0  0  0  0  0  0
  148.1478  132.8625  159.9214 O   0  0  0  0  0  0  0  0  0  0  0  0
  147.7116  133.9051  160.7138 C   0  0  0  0  0  0  0  0  0  0  0  0
  147.0121  133.7266  161.9343 C   0  0  0  0  0  0  0  0  0  0  0  0
  146.6001  134.8392  162.6898 C   0  0  0  0  0  0  0  0  0  0  0  0
  146.8811  136.1396  162.2373 C   0  0  0  0  0  0  0  0  0  0  0  0
  147.5743  136.3286  161.0282 C   0  0  0  0  0  0  0  0  0  0  0  0
  147.9933  135.2140  160.2595 C   0  0  0  0  0  0  0  0  0  0  0  0
  148.6727  135.3201  159.0657 O   0  0  0  0  0  0  0  0  0  0  0  0
  148.8561  136.6052  158.4889 C   0  0  0  0  0  0  0  0  0  0  0  0
  150.1522  136.5884  157.6661 C   0  0  0  0  0  0  0  0  0  0  0  0
  149.9512  136.0099  156.3291 N   0  0  0  0  0  0  0  0  0  0  0  0
  149.6241  136.6082  155.1456 C   0  0  0  0  0  0  0  0  0  0  0  0
  149.4149  138.0790  154.9112 C   0  0  2  0  0  0  0  0  0  0  0  0
  148.0367  138.3855  154.2956 C   0  0  0  0  0  0  0  0  0  0  0  0
  150.4958  138.6804  154.1334 N   0  0  0  0  0  0  0  0  0  0  0  0
  151.8030  138.5883  154.4144 C   0  0  0  0  0  0  0  0  0  0  0  0
  152.2407  137.9719  155.3821 O   0  0  0  0  0  0  0  0  0  0  0  0
  149.5687  135.6223  154.2036 N   0  3  0  0  0  0  0  0  0  0  0  0
  149.8379  134.3867  154.7916 C   0  0  0  0  0  0  0  0  0  0  0  0
  149.8880  133.1086  154.2439 C   0  0  0  0  0  0  0  0  0  0  0  0
  150.1907  132.0529  155.1288 C   0  0  0  0  0  0  0  0  0  0  0  0
  150.4282  132.2882  156.4987 C   0  0  0  0  0  0  0  0  0  0  0  0
  150.3762  133.5891  157.0416 C   0  0  0  0  0  0  0  0  0  0  0  0
  150.0794  134.6273  156.1591 C   0  0  0  0  0  0  0  0  0  0  0  0
  148.3234  130.8342  159.6403 H   0  0  0  0  0  0  0  0  0  0  0  0
  146.8639  131.3246  160.4910 H   0  0  0  0  0  0  0  0  0  0  0  0
  148.4400  131.3465  161.3194 H   0  0  0  0  0  0  0  0  0  0  0  0
  146.7783  132.7438  162.3144 H   0  0  0  0  0  0  0  0  0  0  0  0
  146.0678  134.6942  163.6183 H   0  0  0  0  0  0  0  0  0  0  0  0
  146.5642  136.9934  162.8180 H   0  0  0  0  0  0  0  0  0  0  0  0
  147.7712  137.3409  160.7102 H   0  0  0  0  0  0  0  0  0  0  0  0
  148.0154  136.8579  157.8415 H   0  0  0  0  0  0  0  0  0  0  0  0
  148.9232  137.3630  159.2711 H   0  0  0  0  0  0  0  0  0  0  0  0
  150.5241  137.6048  157.5351 H   0  0  0  0  0  0  0  0  0  0  0  0
  150.9404  136.0385  158.1809 H   0  0  0  0  0  0  0  0  0  0  0  0
  149.4423  138.5703  155.8834 H   0  0  0  0  0  0  0  0  0  0  0  0
  147.2345  138.0070  154.9299 H   0  0  0  0  0  0  0  0  0  0  0  0
  147.9188  137.9363  153.3090 H   0  0  0  0  0  0  0  0  0  0  0  0
  147.8880  139.4604  154.1893 H   0  0  0  0  0  0  0  0  0  0  0  0
  150.2265  139.2157  153.3203 H   0  0  0  0  0  0  0  0  0  0  0  0
  152.4216  139.1270  153.6795 H   0  0  0  0  0  0  0  0  0  0  0  0
  149.7050  132.9261  153.1951 H   0  0  0  0  0  0  0  0  0  0  0  0
  150.2407  131.0424  154.7494 H   0  0  0  0  0  0  0  0  0  0  0  0
  150.6560  131.4543  157.1466 H   0  0  0  0  0  0  0  0  0  0  0  0
  150.5591  133.7583  158.0923 H   0  0  0  0  0  0  0  0  0  0  0  0
  149.3570  135.7881  153.2281 H   0  0  0  0  0  0  0  0  0  0  0  0
  1  2  1  0  0  0  0
  1 26  1  0  0  0  0
  1 27  1  0  0  0  0
  1 28  1  0  0  0  0
  2  3  1  0  0  0  0
  3  8  1  0  0  0  0
  3  4  2  0  0  0  0
  4  5  1  0  0  0  0
  4 29  1  0  0  0  0
  5  6  2  0  0  0  0
  5 30  1  0  0  0  0
  6  7  1  0  0  0  0
  6 31  1  0  0  0  0
  7  8  2  0  0  0  0
  7 32  1  0  0  0  0
  8  9  1  0  0  0  0
  9 10  1  0  0  0  0
 10 11  1  0  0  0  0
 10 33  1  0  0  0  0
 10 34  1  0  0  0  0
 11 12  1  0  0  0  0
 11 35  1  0  0  0  0
 11 36  1  0  0  0  0
 12 25  1  0  0  0  0
 12 13  1  0  0  0  0
 13 14  1  0  0  0  0
 13 19  2  0  0  0  0
 14 15  1  0  0  0  0
 14 16  1  0  0  0  0
 14 37  1  0  0  0  0
 15 38  1  0  0  0  0
 15 39  1  0  0  0  0
 15 40  1  0  0  0  0
 16 17  1  0  0  0  0
 16 41  1  0  0  0  0
 17 18  2  0  0  0  0
 17 42  1  0  0  0  0
 19 20  1  0  0  0  0
 19 47  1  0  0  0  0
 20 25  2  0  0  0  0
 20 21  1  0  0  0  0
 21 22  2  0  0  0  0
 21 43  1  0  0  0  0
 22 23  1  0  0  0  0
 22 44  1  0  0  0  0
 23 24  2  0  0  0  0
 23 45  1  0  0  0  0
 24 25  1  0  0  0  0
 24 46  1  0  0  0  0
M  CHG  1  19   1
M  END
> <s_m_source_file>
AV-unprocessed.smi

> <i_m_source_file_index>
3011

> <i_lp_mmshare_version>
43012

> <i_f3d_flags>
0

> <s_epik_input>
W0NIM11PYzFbY0hdW2NIXVtjSF1bY0hdYzFPW0NIMl1bQ0gyXW4oYyhuMilbQ0BIXShbQ0gzXSlbTkhdW0NIXT1PKWMoYzIzKVtjSF1bY0hdW2NIXVtjSF0z

> <s_epik_cmdline>
J2VwaWtfcHl0aG9uJywgJy1waCcsICc3LjAnLCAnLXRuJywgJzgnLCAnLW1hJywgJzIwMCcsICctbWV0YWxfYmluZGluZycsICctaW1hZScsICc8aW5maWxlLm1hZT4nLCAnLW9tYWUnLCAnPG91dGZpbGUubWFlPic=

> <r_lp_tautomer_probability>
1

> <r_epik_Ionization_Penalty>
1.14644

> <r_epik_Ionization_Penalty_Charging>
1.14644

> <r_epik_Ionization_Penalty_Neutral>
5.5802e-08

> <r_epik_State_Penalty>
1.20743

> <r_epik_Charging_Adjusted_Penalty>
2.35387

> <i_epik_Tot_Q>
1

> <i_epik_Tot_abs_Q>
1

> <r_epik_Metal_State_Penalty>
1.28856

> <b_epik_Metal_Only>
0

> <s_lp_Force_Field>
OPLS_2005

> <r_lp_Energy>
19.8167

> <b_lp_Chiralities_Consistent>
1

> <s_lp_Variant>
AV-unprocessed.smi:3011-3

> <Gold.Version>
5.8.1

> <Gold.Id.Protein>
6NUR|6NUR_protein|mol2

> <Gold.PLP.Fitness>
50.8665

> <Gold.PLP.PLP>
-41.4157

> <Gold.PLP.part.hbond>
-3.4874

> <Gold.PLP.part.metal>
0.0000

> <Gold.PLP.part.buried>
-4.1283

> <Gold.PLP.part.nonpolar>
-35.5820

> <Gold.PLP.part.repulsive>
0.1790

> <Gold.PLP.ligand.clash>
0.0000

> <Gold.PLP.ligand.torsion>
0.8466

> <Gold.PLP.Chemscore.Hbond>
3.5600

> <Gold.PLP.Chemscore.CHOScore>
0.0000

> <Gold.PLP.Chemscore.Metal>
0.0000

> <Gold.Chemscore.Hbonds>
donor molecule, donor type, donor heavy atom, donor atom, acceptor molecule, acceptor atom, score
      L1  H    16    41       P1  7957  0.11
      L1  H    19    47       P1  7948  1.62
      P1  H  6896  6909       L1     9  0.44

> <Gold.PLP.Chemscore.Internal.Correction>
0.4640

> <Gold.Rescore>
     Score         DG    S(hbond)    S(metal)    S(lipo)     H(rot)  DE(clash)    DE(int)     intcor
     14.29     -16.26       1.92        0.00      95.61       2.66       0.03       1.94       ----

> <Gold.Chemscore.Fitness>
14.2894

> <Gold.Chemscore.DG>
-16.2575

> <Gold.Chemscore.ZeroCoef>
-5.4800

> <Gold.Chemscore.Hbond>
1.9167

> <Gold.Chemscore.Metal>
0.0000

> <Gold.Chemscore.Lipo>
95.6100

> <Gold.Chemscore.Internal_Hbond>
0.0000

> <Gold.Chemscore.DEClash>
0.0323

> <Gold.Chemscore.DEInternal>
1.9358

> <Gold.Chemscore.Rot>
2.6604

> <Gold.Chemscore.Internal.Correction>
   9.000000E+99

> <Gold.Chemscore.Hbonds>
donor molecule, donor type, donor heavy atom, donor atom, acceptor molecule, acceptor atom, score
      L1  H    16    41       P1  7957  0.13
      L1  H    19    47       P1  7948  0.24
      P1  H  6896  6909       L1     9  0.15

> <Gold.Chemscore.Hbond.Weighted>
-6.4017

> <Gold.Chemscore.Metal.Weighted>
-0.0000

> <Gold.Chemscore.Lipo.Weighted>
-11.1864

> <Gold.Chemscore.Internal_Hbond.Weighted>
0.0000

> <Gold.Chemscore.DEClash.Weighted>
0.0323

> <Gold.Chemscore.DEInternal.Weighted>
1.9358

> <Gold.Chemscore.Rot.Weighted>
6.8106

> <Gold.Chemscore.Internal.Correction.Weighted>
   9.000000E+99

> <Gold.Protein.RotatedTorsions>
[ 6907 6896 6895 6894 ] final   28.50 input  -60.11 | X-H torsion
[ 7974 7965 7964 7962 ] final  130.55 input  175.53 | X-H torsion
[ 8008 7997 7996 7995 ] final   20.66 input   59.86 | X-H torsion
[ 10167 10162 10161 10158 ] final   29.82 input  -65.29 | X-H torsion
[ 10718 10713 10712 10709 ] final   10.37 input   66.30 | X-H torsion
[ 10763 10752 10751 10750 ] final  -41.79 input  -60.55 | X-H torsion
[ 11005 11000 10999 10996 ] final   27.76 input  -57.11 | X-H torsion

> <Gold.Protein.ActiveResidues>
 VAL166  LYS551  ARG553  GLY616  TRP617  ASP618  TYR619  PRO620  LYS621  CYS622 
 ASP623  PHE694  ASN695  SER759  ASP760  ASP761  ALA762  ILE779  LEU786  VAL792 
 PHE793  MET794  SER795  GLU796  ALA797  LYS798  CYS799  TRP800  GLU811  SER814 

> <Gold.Protein.RotatedAtoms>
  152.0178  134.9840  160.0569 H   0  0  0  0  0  0  0  0  0  0  0  0  # atno 6907 bound_to 6896
  152.1367  133.4434  159.4755 H   0  0  0  0  0  0  0  0  0  0  0  0  # atno 6908 bound_to 6896
  150.6861  134.2274  159.4464 H   0  0  0  0  0  0  0  0  0  0  0  0  # atno 6909 bound_to 6896
  145.0168  139.4169  143.5217 H   0  0  0  0  0  0  0  0  0  0  0  0  # atno 7974 bound_to 7965
  154.9390  140.3050  155.5130 H   0  0  0  0  0  0  0  0  0  0  0  0  # atno 8008 bound_to 7997
  156.2997  140.2340  156.4394 H   0  0  0  0  0  0  0  0  0  0  0  0  # atno 8009 bound_to 7997
  154.8164  140.0425  157.1368 H   0  0  0  0  0  0  0  0  0  0  0  0  # atno 8010 bound_to 7997
  140.4732  144.0730  150.6243 H   0  0  0  0  0  0  0  0  0  0  0  0  # atno 10167 bound_to 10162
  156.9800  130.6002  149.5676 H   0  0  0  0  0  0  0  0  0  0  0  0  # atno 10718 bound_to 10713
  153.9683  135.6731  153.4746 H   0  0  0  0  0  0  0  0  0  0  0  0  # atno 10763 bound_to 10752
  153.0805  135.4926  154.8489 H   0  0  0  0  0  0  0  0  0  0  0  0  # atno 10764 bound_to 10752
  154.7233  135.3122  154.8972 H   0  0  0  0  0  0  0  0  0  0  0  0  # atno 10765 bound_to 10752
  140.3229  134.2524  155.7714 H   0  0  0  0  0  0  0  0  0  0  0  0  # atno 11005 bound_to 11000
  146.3479  139.9642  142.8713 LP  0  0  0  0  0  0  0  0  0  0  0  0  # atno 17320 bound_to 7965
  145.1949  140.9828  143.4189 LP  0  0  0  0  0  0  0  0  0  0  0  0  # atno 17321 bound_to 7965
  140.3951  143.2732  152.0014 LP  0  0  0  0  0  0  0  0  0  0  0  0  # atno 17342 bound_to 10162
  139.4821  144.6045  151.7546 LP  0  0  0  0  0  0  0  0  0  0  0  0  # atno 17343 bound_to 10162
  156.0248  130.5342  150.8376 LP  0  0  0  0  0  0  0  0  0  0  0  0  # atno 17370 bound_to 10713
  157.5533  131.0944  150.9665 LP  0  0  0  0  0  0  0  0  0  0  0  0  # atno 17371 bound_to 10713
  141.2082  133.7784  157.0072 LP  0  0  0  0  0  0  0  0  0  0  0  0  # atno 17394 bound_to 11000
  140.0927  134.9583  157.1800 LP  0  0  0  0  0  0  0  0  0  0  0  0  # atno 17395 bound_to 11000

$$$$
