AV-unprocessed.smi:3057|AV-procd|sdf|11662|dock1
  -GOLD-   2272017 63D 1   1.00000     0.00000
 Structure written by MMmdl.
 40 42  0  0  0  0  0  0  0  0  1 V2000
  152.5157  145.8229  160.6281 C   0  0  0  0  0  0  0  0  0  0  0  0
  151.6522  144.5491  160.7390 C   0  0  2  0  0  0  0  0  0  0  0  0
  151.9453  143.7883  162.0420 C   0  0  0  0  0  0  0  0  0  0  0  0
  153.0557  142.7999  161.6528 C   0  0  0  0  0  0  0  0  0  0  0  0
  152.8532  142.6512  160.1517 C   0  0  0  0  0  0  0  0  0  0  0  0
  153.3630  141.7489  159.4892 O   0  0  0  0  0  0  0  0  0  0  0  0
  152.0055  143.5924  159.7068 N   0  0  0  0  0  0  0  0  0  0  0  0
  151.2363  143.6518  158.4542 C   0  0  1  0  0  0  0  0  0  0  0  0
  150.5829  142.3123  158.0642 C   0  0  0  0  0  0  0  0  0  0  0  0
  150.8500  141.2829  158.6856 O   0  0  0  0  0  0  0  0  0  0  0  0
  149.7077  142.3487  157.0494 N   0  0  0  0  0  0  0  0  0  0  0  0
  148.9818  141.1898  156.5489 C   0  0  0  0  0  0  0  0  0  0  0  0
  149.2873  140.9610  155.0621 C   0  0  0  0  0  0  0  0  0  0  0  0
  150.2773  139.8321  154.8456 C   0  0  0  0  0  0  0  0  0  0  0  0
  149.8277  138.5224  154.5725 C   0  0  0  0  0  0  0  0  0  0  0  0
  150.7878  137.5086  154.3872 C   0  0  0  0  0  0  0  0  0  0  0  0
  152.1528  137.8413  154.4830 C   0  0  0  0  0  0  0  0  0  0  0  0
  152.4986  139.1788  154.7614 C   0  0  0  0  0  0  0  0  0  0  0  0
  151.5861  140.1583  154.9407 N   0  0  0  0  0  0  0  0  0  0  0  0
  150.1864  144.7701  158.6347 C   0  0  0  0  0  0  0  0  0  0  0  0
  149.9119  144.9061  160.4224 S   0  0  0  0  0  0  0  0  0  0  0  0
  153.5750  145.6019  160.7619 H   0  0  0  0  0  0  0  0  0  0  0  0
  152.2346  146.5502  161.3901 H   0  0  0  0  0  0  0  0  0  0  0  0
  152.4064  146.3069  159.6578 H   0  0  0  0  0  0  0  0  0  0  0  0
  152.2409  144.4478  162.8587 H   0  0  0  0  0  0  0  0  0  0  0  0
  151.0640  143.2345  162.3696 H   0  0  0  0  0  0  0  0  0  0  0  0
  154.0459  143.2141  161.8449 H   0  0  0  0  0  0  0  0  0  0  0  0
  152.9628  141.8464  162.1733 H   0  0  0  0  0  0  0  0  0  0  0  0
  151.9248  143.9404  157.6582 H   0  0  0  0  0  0  0  0  0  0  0  0
  149.5378  143.2330  156.5926 H   0  0  0  0  0  0  0  0  0  0  0  0
  149.2606  140.3096  157.1309 H   0  0  0  0  0  0  0  0  0  0  0  0
  147.9111  141.3460  156.6902 H   0  0  0  0  0  0  0  0  0  0  0  0
  148.3662  140.7369  154.5217 H   0  0  0  0  0  0  0  0  0  0  0  0
  149.6886  141.8733  154.6181 H   0  0  0  0  0  0  0  0  0  0  0  0
  148.7731  138.2974  154.5087 H   0  0  0  0  0  0  0  0  0  0  0  0
  150.4822  136.4943  154.1768 H   0  0  0  0  0  0  0  0  0  0  0  0
  152.9164  137.0898  154.3472 H   0  0  0  0  0  0  0  0  0  0  0  0
  153.5356  139.4694  154.8427 H   0  0  0  0  0  0  0  0  0  0  0  0
  150.5780  145.7192  158.2682 H   0  0  0  0  0  0  0  0  0  0  0  0
  149.2498  144.5794  158.1091 H   0  0  0  0  0  0  0  0  0  0  0  0
  1  2  1  0  0  0  0
  1 22  1  0  0  0  0
  1 23  1  0  0  0  0
  1 24  1  0  0  0  0
  2  7  1  0  0  0  0
  2 21  1  0  0  0  0
  2  3  1  0  0  0  0
  3  4  1  0  0  0  0
  3 25  1  0  0  0  0
  3 26  1  0  0  0  0
  4  5  1  0  0  0  0
  4 27  1  0  0  0  0
  4 28  1  0  0  0  0
  5  6  2  0  0  0  0
  5  7  1  0  0  0  0
  7  8  1  0  0  0  0
  8  9  1  0  0  0  0
  8 20  1  0  0  0  0
  8 29  1  0  0  0  0
  9 10  2  0  0  0  0
  9 11  1  0  0  0  0
 11 12  1  0  0  0  0
 11 30  1  0  0  0  0
 12 13  1  0  0  0  0
 12 31  1  0  0  0  0
 12 32  1  0  0  0  0
 13 14  1  0  0  0  0
 13 33  1  0  0  0  0
 13 34  1  0  0  0  0
 14 19  1  0  0  0  0
 14 15  2  0  0  0  0
 15 16  1  0  0  0  0
 15 35  1  0  0  0  0
 16 17  2  0  0  0  0
 16 36  1  0  0  0  0
 17 18  1  0  0  0  0
 17 37  1  0  0  0  0
 18 19  2  0  0  0  0
 18 38  1  0  0  0  0
 20 21  1  0  0  0  0
 20 39  1  0  0  0  0
 20 40  1  0  0  0  0
M  END
> <s_m_source_file>
AV-unprocessed.smi

> <i_m_source_file_index>
3057

> <i_lp_mmshare_version>
43012

> <i_f3d_flags>
0

> <s_epik_input>
W0NIMl0xW0NIMl1DKD1PKU4oW0NAQF0xMltDSDNdKVtDQEhdKFtDSDJdUzIpQyg9TylbTkhdW0NIMl1bQ0gyXWMzW2NIXVtjSF1bY0hdW2NIXW4z

> <s_epik_cmdline>
J2VwaWtfcHl0aG9uJywgJy1waCcsICc3LjAnLCAnLXRuJywgJzgnLCAnLW1hJywgJzIwMCcsICctbWV0YWxfYmluZGluZycsICctaW1hZScsICc8aW5maWxlLm1hZT4nLCAnLW9tYWUnLCAnPG91dGZpbGUubWFlPic=

> <r_epik_Ionization_Penalty>
0.0249631

> <r_epik_Ionization_Penalty_Charging>
0

> <r_epik_Ionization_Penalty_Neutral>
0.0249631

> <r_epik_State_Penalty>
0.0202943

> <r_epik_Charging_Adjusted_Penalty>
0.0202943

> <i_epik_Tot_Q>
0

> <i_epik_Tot_abs_Q>
0

> <r_epik_Metal_State_Penalty>
0.0194661

> <b_epik_Metal_Only>
0

> <s_lp_Force_Field>
OPLS_2005

> <r_lp_Energy>
25.2027

> <b_lp_Chiralities_Consistent>
1

> <s_lp_Variant>
AV-unprocessed.smi:3057-2

> <Gold.Version>
5.8.1

> <Gold.Id.Protein>
6NUR|6NUR_protein|mol2

> <Gold.PLP.Fitness>
43.9357

> <Gold.PLP.PLP>
-40.3075

> <Gold.PLP.part.hbond>
-2.0000

> <Gold.PLP.part.metal>
0.0000

> <Gold.PLP.part.buried>
0.8812

> <Gold.PLP.part.nonpolar>
-39.2918

> <Gold.PLP.part.repulsive>
0.0651

> <Gold.PLP.ligand.clash>
0.0000

> <Gold.PLP.ligand.torsion>
0.8148

> <Gold.PLP.Chemscore.Hbond>
1.7500

> <Gold.PLP.Chemscore.CHOScore>
0.0000

> <Gold.PLP.Chemscore.Metal>
0.0000

> <Gold.Chemscore.Hbonds>
donor molecule, donor type, donor heavy atom, donor atom, acceptor molecule, acceptor atom, score
      L1  H    11    30       P1  8028  1.00
      P1  H  7989  7998       L1    19  0.75

> <Gold.PLP.Chemscore.Internal.Correction>
0.0079

> <Gold.Rescore>
     Score         DG    S(hbond)    S(metal)    S(lipo)     H(rot)  DE(clash)    DE(int)     intcor
     12.73     -19.76       0.99        0.00     127.31       1.53       3.61       3.42       ----

> <Gold.Chemscore.Fitness>
12.7288

> <Gold.Chemscore.DG>
-19.7578

> <Gold.Chemscore.ZeroCoef>
-5.4800

> <Gold.Chemscore.Hbond>
0.9910

> <Gold.Chemscore.Metal>
0.0000

> <Gold.Chemscore.Lipo>
127.3050

> <Gold.Chemscore.Internal_Hbond>
0.0000

> <Gold.Chemscore.DEClash>
3.6073

> <Gold.Chemscore.DEInternal>
3.4217

> <Gold.Chemscore.Rot>
1.5339

> <Gold.Chemscore.Internal.Correction>
   9.000000E+99

> <Gold.Chemscore.Hbonds>
donor molecule, donor type, donor heavy atom, donor atom, acceptor molecule, acceptor atom, score
      L1  H    11    30       P1  8028  1.00
      P1  H  7989  7998       L1    19  0.02

> <Gold.Chemscore.Hbond.Weighted>
-3.3099

> <Gold.Chemscore.Metal.Weighted>
-0.0000

> <Gold.Chemscore.Lipo.Weighted>
-14.8947

> <Gold.Chemscore.Internal_Hbond.Weighted>
0.0000

> <Gold.Chemscore.DEClash.Weighted>
3.6073

> <Gold.Chemscore.DEInternal.Weighted>
3.4217

> <Gold.Chemscore.Rot.Weighted>
3.9267

> <Gold.Chemscore.Internal.Correction.Weighted>
   9.000000E+99

> <Gold.Protein.RotatedTorsions>
[ 6907 6896 6895 6894 ] final   -5.79 input  -60.11 | X-H torsion
[ 7974 7965 7964 7962 ] final  142.44 input  175.53 | X-H torsion
[ 8008 7997 7996 7995 ] final  136.85 input   59.86 | X-H torsion
[ 10167 10162 10161 10158 ] final  -51.40 input  -65.29 | X-H torsion
[ 10718 10713 10712 10709 ] final -145.57 input   66.30 | X-H torsion
[ 10763 10752 10751 10750 ] final   75.23 input  -60.55 | X-H torsion
[ 11005 11000 10999 10996 ] final -131.73 input  -57.11 | X-H torsion

> <Gold.Protein.ActiveResidues>
 VAL166  LYS551  ARG553  GLY616  TRP617  ASP618  TYR619  PRO620  LYS621  CYS622 
 ASP623  PHE694  ASN695  SER759  ASP760  ASP761  ALA762  ILE779  LEU786  VAL792 
 PHE793  MET794  SER795  GLU796  ALA797  LYS798  CYS799  TRP800  GLU811  SER814 

> <Gold.Protein.RotatedAtoms>
  151.4759  135.1049  159.9764 H   0  0  0  0  0  0  0  0  0  0  0  0  # atno 6907 bound_to 6896
  152.4798  133.8223  159.7070 H   0  0  0  0  0  0  0  0  0  0  0  0  # atno 6908 bound_to 6896
  150.8862  133.7244  159.2944 H   0  0  0  0  0  0  0  0  0  0  0  0  # atno 6909 bound_to 6896
  144.9008  139.5426  143.5755 H   0  0  0  0  0  0  0  0  0  0  0  0  # atno 7974 bound_to 7965
  156.3003  140.2434  156.3814 H   0  0  0  0  0  0  0  0  0  0  0  0  # atno 8008 bound_to 7997
  154.8698  140.0416  157.1737 H   0  0  0  0  0  0  0  0  0  0  0  0  # atno 8009 bound_to 7997
  154.8808  140.2949  155.5430 H   0  0  0  0  0  0  0  0  0  0  0  0  # atno 8010 bound_to 7997
  140.6590  143.2621  151.4499 H   0  0  0  0  0  0  0  0  0  0  0  0  # atno 10167 bound_to 10162
  156.3840  130.7852  151.2047 H   0  0  0  0  0  0  0  0  0  0  0  0  # atno 10718 bound_to 10713
  153.0640  135.4996  154.8159 H   0  0  0  0  0  0  0  0  0  0  0  0  # atno 10763 bound_to 10752
  154.6926  135.2987  154.9460 H   0  0  0  0  0  0  0  0  0  0  0  0  # atno 10764 bound_to 10752
  154.0209  135.6742  153.4825 H   0  0  0  0  0  0  0  0  0  0  0  0  # atno 10765 bound_to 10752
  140.9233  134.1416  157.4296 H   0  0  0  0  0  0  0  0  0  0  0  0  # atno 11005 bound_to 11000
  146.3107  139.7736  142.9022 LP  0  0  0  0  0  0  0  0  0  0  0  0  # atno 17320 bound_to 7965
  145.3620  141.0327  143.3279 LP  0  0  0  0  0  0  0  0  0  0  0  0  # atno 17321 bound_to 7965
  139.5819  144.1691  152.1979 LP  0  0  0  0  0  0  0  0  0  0  0  0  # atno 17342 bound_to 10162
  140.1018  144.5533  150.6983 LP  0  0  0  0  0  0  0  0  0  0  0  0  # atno 17343 bound_to 10162
  157.7494  131.0335  150.4276 LP  0  0  0  0  0  0  0  0  0  0  0  0  # atno 17370 bound_to 10713
  156.4525  130.4014  149.6627 LP  0  0  0  0  0  0  0  0  0  0  0  0  # atno 17371 bound_to 10713
  139.8780  134.9979  156.5872 LP  0  0  0  0  0  0  0  0  0  0  0  0  # atno 17394 bound_to 11000
  140.7959  133.8544  155.8685 LP  0  0  0  0  0  0  0  0  0  0  0  0  # atno 17395 bound_to 11000

$$$$
