AV-unprocessed.smi:3251|AV-procd|sdf|12436|dock7
  -GOLD-   2272018323D 1   1.00000     0.00000
 Structure written by MMmdl.
 41 42  0  0  0  0  0  0  0  0  2 V2000
  151.4099  142.5825  158.3753 C   0  0  0  0  0  0  0  0  0  0  0  0
  150.9514  141.9414  157.0971 C   0  0  0  0  0  0  0  0  0  0  0  0
  150.1151  142.5023  156.0905 C   0  0  0  0  0  0  0  0  0  0  0  0
  149.8979  141.6735  155.0823 N   0  0  0  0  0  0  0  0  0  0  0  0
  150.5846  140.5580  155.4085 N   0  0  0  0  0  0  0  0  0  0  0  0
  150.5795  139.4179  154.5099 C   0  0  0  0  0  0  0  0  0  0  0  0
  149.2284  138.6862  154.5111 C   0  0  0  0  0  0  0  0  0  0  0  0
  148.6704  138.5755  153.1451 N   0  3  0  0  0  0  0  0  0  0  0  0
  147.1948  138.6589  153.0558 C   0  0  1  0  0  0  0  0  0  0  0  0
  146.7586  140.1257  153.2012 C   0  0  0  0  0  0  0  0  0  0  0  0
  146.6736  138.0847  151.7225 C   0  0  0  0  0  0  0  0  0  0  0  0
  146.9412  138.6769  150.6755 O   0  0  0  0  0  0  0  0  0  0  0  0
  145.9296  136.9576  151.7344 N   0  0  0  0  0  0  0  0  0  0  0  0
  145.3947  136.3395  150.5219 C   0  0  0  0  0  0  0  0  0  0  0  0
  144.8578  134.9744  150.9520 C   0  0  0  0  0  0  0  0  0  0  0  0
  144.5272  135.1545  152.4263 C   0  0  0  0  0  0  0  0  0  0  0  0
  145.5489  136.1811  152.9149 C   0  0  0  0  0  0  0  0  0  0  0  0
  151.2311  140.6927  156.6187 C   0  0  0  0  0  0  0  0  0  0  0  0
  150.6447  143.2347  158.7969 H   0  0  0  0  0  0  0  0  0  0  0  0
  152.3014  143.1906  158.2216 H   0  0  0  0  0  0  0  0  0  0  0  0
  151.6530  141.8410  159.1367 H   0  0  0  0  0  0  0  0  0  0  0  0
  149.6616  143.4823  156.0636 H   0  0  0  0  0  0  0  0  0  0  0  0
  150.8030  139.7776  153.5047 H   0  0  0  0  0  0  0  0  0  0  0  0
  151.3890  138.7399  154.7854 H   0  0  0  0  0  0  0  0  0  0  0  0
  149.3482  137.6961  154.9529 H   0  0  0  0  0  0  0  0  0  0  0  0
  148.5193  139.2290  155.1366 H   0  0  0  0  0  0  0  0  0  0  0  0
  149.0635  139.3232  152.5919 H   0  0  0  0  0  0  0  0  0  0  0  0
  146.7921  138.0958  153.8978 H   0  0  0  0  0  0  0  0  0  0  0  0
  145.6741  140.2302  153.1533 H   0  0  0  0  0  0  0  0  0  0  0  0
  147.1853  140.7500  152.4148 H   0  0  0  0  0  0  0  0  0  0  0  0
  147.0813  140.5352  154.1589 H   0  0  0  0  0  0  0  0  0  0  0  0
  144.5880  136.9628  150.1326 H   0  0  0  0  0  0  0  0  0  0  0  0
  146.1514  136.2382  149.7421 H   0  0  0  0  0  0  0  0  0  0  0  0
  143.9998  134.6514  150.3617 H   0  0  0  0  0  0  0  0  0  0  0  0
  145.6406  134.2226  150.8426 H   0  0  0  0  0  0  0  0  0  0  0  0
  143.5208  135.5634  152.5266 H   0  0  0  0  0  0  0  0  0  0  0  0
  144.5650  134.2195  152.9861 H   0  0  0  0  0  0  0  0  0  0  0  0
  146.4322  135.6759  153.3085 H   0  0  0  0  0  0  0  0  0  0  0  0
  145.1279  136.8009  153.7069 H   0  0  0  0  0  0  0  0  0  0  0  0
  151.8312  139.8971  157.0358 H   0  0  0  0  0  0  0  0  0  0  0  0
  148.9632  137.6946  152.7452 H   0  0  0  0  0  0  0  0  0  0  0  0
  1  2  1  0  0  0  0
  1 19  1  0  0  0  0
  1 20  1  0  0  0  0
  1 21  1  0  0  0  0
  2 18  2  0  0  0  0
  2  3  1  0  0  0  0
  3  4  2  0  0  0  0
  3 22  1  0  0  0  0
  4  5  1  0  0  0  0
  5  6  1  0  0  0  0
  5 18  1  0  0  0  0
  6  7  1  0  0  0  0
  6 23  1  0  0  0  0
  6 24  1  0  0  0  0
  7  8  1  0  0  0  0
  7 25  1  0  0  0  0
  7 26  1  0  0  0  0
  8  9  1  0  0  0  0
  8 27  1  0  0  0  0
  8 41  1  0  0  0  0
  9 10  1  0  0  0  0
  9 11  1  0  0  0  0
  9 28  1  0  0  0  0
 10 29  1  0  0  0  0
 10 30  1  0  0  0  0
 10 31  1  0  0  0  0
 11 12  2  0  0  0  0
 11 13  1  0  0  0  0
 13 17  1  0  0  0  0
 13 14  1  0  0  0  0
 14 15  1  0  0  0  0
 14 32  1  0  0  0  0
 14 33  1  0  0  0  0
 15 16  1  0  0  0  0
 15 34  1  0  0  0  0
 15 35  1  0  0  0  0
 16 17  1  0  0  0  0
 16 36  1  0  0  0  0
 16 37  1  0  0  0  0
 17 38  1  0  0  0  0
 17 39  1  0  0  0  0
 18 40  1  0  0  0  0
M  CHG  1   8   1
M  END
> <s_m_source_file>
AV-unprocessed.smi

> <i_m_source_file_index>
3251

> <i_lp_mmshare_version>
43012

> <i_f3d_flags>
0

> <s_epik_input>
W0NIM11jMVtjSF1ubihbY0hdMSlbQ0gyXVtDSDJdW05IXVtDQEhdKFtDSDNdKUMoPU8pTjJbQ0gyXVtDSDJdW0NIMl1bQ0gyXTI=

> <s_epik_cmdline>
J2VwaWtfcHl0aG9uJywgJy1waCcsICc3LjAnLCAnLXRuJywgJzgnLCAnLW1hJywgJzIwMCcsICctbWV0YWxfYmluZGluZycsICctaW1hZScsICc8aW5maWxlLm1hZT4nLCAnLW9tYWUnLCAnPG91dGZpbGUubWFlPic=

> <r_lp_tautomer_probability>
1

> <r_epik_Ionization_Penalty>
0.203173

> <r_epik_Ionization_Penalty_Charging>
0.203168

> <r_epik_Ionization_Penalty_Neutral>
5.06494e-06

> <r_epik_State_Penalty>
0.193072

> <r_epik_Charging_Adjusted_Penalty>
0.39624

> <i_epik_Tot_Q>
1

> <i_epik_Tot_abs_Q>
1

> <r_epik_Metal_State_Penalty>
0.193587

> <b_epik_Metal_Only>
0

> <s_lp_Force_Field>
OPLS_2005

> <r_lp_Energy>
29.7429

> <b_lp_Chiralities_Consistent>
1

> <s_lp_Variant>
AV-unprocessed.smi:3251-2

> <Gold.Version>
5.8.1

> <Gold.Id.Protein>
6NUR|6NUR_protein|mol2

> <Gold.PLP.Fitness>
43.5213

> <Gold.PLP.PLP>
-30.7020

> <Gold.PLP.part.hbond>
-3.8967

> <Gold.PLP.part.metal>
0.0000

> <Gold.PLP.part.buried>
2.7562

> <Gold.PLP.part.nonpolar>
-30.7564

> <Gold.PLP.part.repulsive>
1.2696

> <Gold.PLP.ligand.clash>
0.0000

> <Gold.PLP.ligand.torsion>
0.9672

> <Gold.PLP.Chemscore.Hbond>
3.8960

> <Gold.PLP.Chemscore.CHOScore>
1.0000

> <Gold.PLP.Chemscore.Metal>
0.0000

> <Gold.Chemscore.Hbonds>
donor molecule, donor type, donor heavy atom, donor atom, acceptor molecule, acceptor atom, score
      L1  H     8    27       P1  7957  1.00
      L1  H     8    41       P1  7948  2.00
      P1  H  7954  7966       L1    12  0.83

> <Gold.PLP.Chemscore.Internal.Correction>
0.0657

> <Gold.Rescore>
     Score         DG    S(hbond)    S(metal)    S(lipo)     H(rot)  DE(clash)    DE(int)     intcor
     16.29     -19.13       2.91        0.00      72.23       1.76       1.97       0.87       ----

> <Gold.Chemscore.Fitness>
16.2876

> <Gold.Chemscore.DG>
-19.1299

> <Gold.Chemscore.ZeroCoef>
-5.4800

> <Gold.Chemscore.Hbond>
2.9055

> <Gold.Chemscore.Metal>
0.0000

> <Gold.Chemscore.Lipo>
72.2305

> <Gold.Chemscore.Internal_Hbond>
0.0000

> <Gold.Chemscore.DEClash>
1.9680

> <Gold.Chemscore.DEInternal>
0.8743

> <Gold.Chemscore.Rot>
1.7599

> <Gold.Chemscore.Internal.Correction>
   9.000000E+99

> <Gold.Chemscore.Hbonds>
donor molecule, donor type, donor heavy atom, donor atom, acceptor molecule, acceptor atom, score
      L1  H     8    27       P1  7957  0.98
      L1  H     8    41       P1  7948  1.00
      P1  H  7954  7966       L1    12  0.60

> <Gold.Chemscore.Hbond.Weighted>
-9.7042

> <Gold.Chemscore.Metal.Weighted>
-0.0000

> <Gold.Chemscore.Lipo.Weighted>
-8.4510

> <Gold.Chemscore.Internal_Hbond.Weighted>
0.0000

> <Gold.Chemscore.DEClash.Weighted>
1.9680

> <Gold.Chemscore.DEInternal.Weighted>
0.8743

> <Gold.Chemscore.Rot.Weighted>
4.5053

> <Gold.Chemscore.Internal.Correction.Weighted>
   9.000000E+99

> <Gold.Protein.RotatedTorsions>
[ 6907 6896 6895 6894 ] final  165.87 input  -60.11 | X-H torsion
[ 7974 7965 7964 7962 ] final  -22.20 input  175.53 | X-H torsion
[ 8008 7997 7996 7995 ] final   79.46 input   59.86 | X-H torsion
[ 10167 10162 10161 10158 ] final   93.70 input  -65.29 | X-H torsion
[ 10718 10713 10712 10709 ] final   23.29 input   66.30 | X-H torsion
[ 10763 10752 10751 10750 ] final  103.91 input  -60.55 | X-H torsion
[ 11005 11000 10999 10996 ] final  -80.26 input  -57.11 | X-H torsion

> <Gold.Protein.ActiveResidues>
 VAL166  LYS551  ARG553  GLY616  TRP617  ASP618  TYR619  PRO620  LYS621  CYS622 
 ASP623  PHE694  ASN695  SER759  ASP760  ASP761  ALA762  ILE779  LEU786  VAL792 
 PHE793  MET794  SER795  GLU796  ALA797  LYS798  CYS799  TRP800  GLU811  SER814 

> <Gold.Protein.RotatedAtoms>
  151.8876  133.3509  159.3787 H   0  0  0  0  0  0  0  0  0  0  0  0  # atno 6907 bound_to 6896
  150.7111  134.4956  159.5546 H   0  0  0  0  0  0  0  0  0  0  0  0  # atno 6908 bound_to 6896
  152.2520  134.8123  160.0495 H   0  0  0  0  0  0  0  0  0  0  0  0  # atno 6909 bound_to 6896
  146.1689  140.4446  142.8540 H   0  0  0  0  0  0  0  0  0  0  0  0  # atno 7974 bound_to 7965
  155.8700  140.3449  155.5815 H   0  0  0  0  0  0  0  0  0  0  0  0  # atno 8008 bound_to 7997
  155.7838  140.0862  157.2064 H   0  0  0  0  0  0  0  0  0  0  0  0  # atno 8009 bound_to 7997
  154.4017  140.1496  156.3070 H   0  0  0  0  0  0  0  0  0  0  0  0  # atno 8010 bound_to 7997
  139.8155  144.6755  150.9586 H   0  0  0  0  0  0  0  0  0  0  0  0  # atno 10167 bound_to 10162
  157.1641  130.6730  149.6054 H   0  0  0  0  0  0  0  0  0  0  0  0  # atno 10718 bound_to 10713
  153.3589  135.3961  155.1703 H   0  0  0  0  0  0  0  0  0  0  0  0  # atno 10763 bound_to 10752
  154.8675  135.3674  154.5125 H   0  0  0  0  0  0  0  0  0  0  0  0  # atno 10764 bound_to 10752
  153.5583  135.7081  153.5619 H   0  0  0  0  0  0  0  0  0  0  0  0  # atno 10765 bound_to 10752
  141.1668  133.7142  156.8246 H   0  0  0  0  0  0  0  0  0  0  0  0  # atno 11005 bound_to 11000
  144.8134  140.6425  143.6400 LP  0  0  0  0  0  0  0  0  0  0  0  0  # atno 17320 bound_to 7965
  145.4393  139.1538  143.3979 LP  0  0  0  0  0  0  0  0  0  0  0  0  # atno 17321 bound_to 7965
  140.7816  143.4143  151.0943 LP  0  0  0  0  0  0  0  0  0  0  0  0  # atno 17342 bound_to 10162
  139.7807  143.8360  152.3137 LP  0  0  0  0  0  0  0  0  0  0  0  0  # atno 17343 bound_to 10162
  155.9749  130.4701  150.6420 LP  0  0  0  0  0  0  0  0  0  0  0  0  # atno 17370 bound_to 10713
  157.4105  131.0823  151.1225 LP  0  0  0  0  0  0  0  0  0  0  0  0  # atno 17371 bound_to 10713
  140.2095  134.8838  157.3258 LP  0  0  0  0  0  0  0  0  0  0  0  0  # atno 17394 bound_to 11000
  140.2102  134.4148  155.7617 LP  0  0  0  0  0  0  0  0  0  0  0  0  # atno 17395 bound_to 11000

$$$$
