AV-unprocessed.smi:2102|AV-procd|sdf|8581|dock8
  -GOLD-   2272011313D 1   1.00000     0.00000
 Structure written by MMmdl.
 29 30  0  0  0  0  0  0  0  0  1 V2000
  152.3418  138.6367  153.9428 C   0  0  0  0  0  0  0  0  0  0  0  0
  152.1864  138.9950  155.3373 N   0  0  0  0  0  0  0  0  0  0  0  0
  152.9573  138.3215  156.3158 C   0  0  0  0  0  0  0  0  0  0  0  0
  153.7660  137.4371  156.0328 O   0  0  0  0  0  0  0  0  0  0  0  0
  152.7110  138.7608  157.6842 C   0  0  0  0  0  0  0  0  0  0  0  0
  151.8122  139.7337  157.9506 C   0  0  0  0  0  0  0  0  0  0  0  0
  151.0725  140.3762  156.9744 N   0  0  0  0  0  0  0  0  0  0  0  0
  150.1329  141.4395  157.3529 C   0  0  0  0  0  0  0  0  0  0  0  0
  150.7825  142.5296  158.2168 C   0  0  0  0  0  0  0  0  0  0  0  0
  151.3929  142.2340  159.2452 O   0  0  0  0  0  0  0  0  0  0  0  0
  150.6221  143.7908  157.7908 N   0  0  0  0  0  0  0  0  0  0  0  0
  151.1352  144.9552  158.4372 C   0  0  0  0  0  0  0  0  0  0  0  0
  152.3827  144.8003  159.2798 C   0  0  0  0  0  0  0  0  0  0  0  0
  151.0523  145.0148  159.9473 C   0  0  0  0  0  0  0  0  0  0  0  0
  151.2482  140.0109  155.6226 C   0  0  0  0  0  0  0  0  0  0  0  0
  150.6014  140.5660  154.7305 O   0  0  0  0  0  0  0  0  0  0  0  0
  153.1052  137.8708  153.8114 H   0  0  0  0  0  0  0  0  0  0  0  0
  152.6337  139.5406  153.4052 H   0  0  0  0  0  0  0  0  0  0  0  0
  151.3763  138.2628  153.5976 H   0  0  0  0  0  0  0  0  0  0  0  0
  153.2573  138.3018  158.4948 H   0  0  0  0  0  0  0  0  0  0  0  0
  151.6694  140.0257  158.9809 H   0  0  0  0  0  0  0  0  0  0  0  0
  149.6923  141.8860  156.4594 H   0  0  0  0  0  0  0  0  0  0  0  0
  149.2975  141.0158  157.9121 H   0  0  0  0  0  0  0  0  0  0  0  0
  150.1020  143.9371  156.9379 H   0  0  0  0  0  0  0  0  0  0  0  0
  151.0278  145.9054  157.9154 H   0  0  0  0  0  0  0  0  0  0  0  0
  152.8278  143.8099  159.3548 H   0  0  0  0  0  0  0  0  0  0  0  0
  153.0878  145.6291  159.2877 H   0  0  0  0  0  0  0  0  0  0  0  0
  150.8674  145.9867  160.4004 H   0  0  0  0  0  0  0  0  0  0  0  0
  150.6103  144.1673  160.4681 H   0  0  0  0  0  0  0  0  0  0  0  0
  1  2  1  0  0  0  0
  1 17  1  0  0  0  0
  1 18  1  0  0  0  0
  1 19  1  0  0  0  0
  2 15  1  0  0  0  0
  2  3  1  0  0  0  0
  3  4  2  0  0  0  0
  3  5  1  0  0  0  0
  5  6  2  0  0  0  0
  5 20  1  0  0  0  0
  6  7  1  0  0  0  0
  6 21  1  0  0  0  0
  7  8  1  0  0  0  0
  7 15  1  0  0  0  0
  8  9  1  0  0  0  0
  8 22  1  0  0  0  0
  8 23  1  0  0  0  0
  9 10  2  0  0  0  0
  9 11  1  0  0  0  0
 11 12  1  0  0  0  0
 11 24  1  0  0  0  0
 12 14  1  0  0  0  0
 12 13  1  0  0  0  0
 12 25  1  0  0  0  0
 13 14  1  0  0  0  0
 13 26  1  0  0  0  0
 13 27  1  0  0  0  0
 14 28  1  0  0  0  0
 14 29  1  0  0  0  0
 15 16  2  0  0  0  0
M  END
> <s_m_source_file>
AV-unprocessed.smi

> <i_m_source_file_index>
2102

> <i_lp_mmshare_version>
43012

> <i_f3d_flags>
0

> <s_epik_input>
W0NIM11uMWMoPU8pW2NIXVtjSF1uKGMxPU8pW0NIMl1DKD1PKVtOSF1bQ0hdMltDSDJdW0NIMl0y

> <s_epik_cmdline>
J2VwaWtfcHl0aG9uJywgJy1waCcsICc3LjAnLCAnLXRuJywgJzgnLCAnLW1hJywgJzIwMCcsICctbWV0YWxfYmluZGluZycsICctaW1hZScsICc8aW5maWxlLm1hZT4nLCAnLW9tYWUnLCAnPG91dGZpbGUubWFlPic=

> <r_lp_tautomer_probability>
1

> <r_epik_Ionization_Penalty>
3.25544e-08

> <r_epik_Ionization_Penalty_Charging>
1.18841e-08

> <r_epik_Ionization_Penalty_Neutral>
2.06703e-08

> <r_epik_State_Penalty>
-0

> <r_epik_Charging_Adjusted_Penalty>
1.18841e-08

> <i_epik_Tot_Q>
0

> <i_epik_Tot_abs_Q>
0

> <r_epik_Metal_State_Penalty>
-0

> <b_epik_Metal_Only>
0

> <s_lp_Force_Field>
OPLS_2005

> <r_lp_Energy>
23.1094

> <b_lp_Chiralities_Consistent>
1

> <s_lp_Variant>
AV-unprocessed.smi:2102-1

> <Gold.Version>
5.8.1

> <Gold.Id.Protein>
6NUR|6NUR_protein|mol2

> <Gold.PLP.Fitness>
40.4746

> <Gold.PLP.PLP>
-33.1921

> <Gold.PLP.part.hbond>
-3.0000

> <Gold.PLP.part.metal>
0.0000

> <Gold.PLP.part.buried>
-6.0989

> <Gold.PLP.part.nonpolar>
-23.2815

> <Gold.PLP.part.repulsive>
0.0946

> <Gold.PLP.ligand.clash>
0.0000

> <Gold.PLP.ligand.torsion>
0.4119

> <Gold.PLP.Chemscore.Hbond>
2.6898

> <Gold.PLP.Chemscore.CHOScore>
0.0000

> <Gold.PLP.Chemscore.Metal>
0.0000

> <Gold.Chemscore.Hbonds>
donor molecule, donor type, donor heavy atom, donor atom, acceptor molecule, acceptor atom, score
      L1  H    11    24       P1  8028  1.00
      P1  H  7989  7998       L1    16  0.99
      P1  H 10752 10764       L1     4  0.24

> <Gold.PLP.Chemscore.Internal.Correction>
0.0368

> <Gold.Rescore>
     Score         DG    S(hbond)    S(metal)    S(lipo)     H(rot)  DE(clash)    DE(int)     intcor
     13.03     -17.82       2.80        0.00      60.80       1.62       0.04       4.75       ----

> <Gold.Chemscore.Fitness>
13.0325

> <Gold.Chemscore.DG>
-17.8154

> <Gold.Chemscore.ZeroCoef>
-5.4800

> <Gold.Chemscore.Hbond>
2.8044

> <Gold.Chemscore.Metal>
0.0000

> <Gold.Chemscore.Lipo>
60.8024

> <Gold.Chemscore.Internal_Hbond>
0.0000

> <Gold.Chemscore.DEClash>
0.0354

> <Gold.Chemscore.DEInternal>
4.7475

> <Gold.Chemscore.Rot>
1.6192

> <Gold.Chemscore.Internal.Correction>
   9.000000E+99

> <Gold.Chemscore.Hbonds>
donor molecule, donor type, donor heavy atom, donor atom, acceptor molecule, acceptor atom, score
      L1  H    11    24       P1  8028  0.97
      P1  H  7989  7998       L1    16  0.61
      P1  H 10752 10764       L1     4  0.23

> <Gold.Chemscore.Hbond.Weighted>
-9.3668

> <Gold.Chemscore.Metal.Weighted>
-0.0000

> <Gold.Chemscore.Lipo.Weighted>
-7.1139

> <Gold.Chemscore.Internal_Hbond.Weighted>
0.0000

> <Gold.Chemscore.DEClash.Weighted>
0.0354

> <Gold.Chemscore.DEInternal.Weighted>
4.7475

> <Gold.Chemscore.Rot.Weighted>
4.1452

> <Gold.Chemscore.Internal.Correction.Weighted>
   9.000000E+99

> <Gold.Protein.RotatedTorsions>
[ 6907 6896 6895 6894 ] final -158.60 input  -60.11 | X-H torsion
[ 7974 7965 7964 7962 ] final  107.96 input  175.53 | X-H torsion
[ 8008 7997 7996 7995 ] final   18.28 input   59.86 | X-H torsion
[ 10167 10162 10161 10158 ] final   55.07 input  -65.29 | X-H torsion
[ 10718 10713 10712 10709 ] final -113.79 input   66.30 | X-H torsion
[ 10763 10752 10751 10750 ] final   -0.03 input  -60.55 | X-H torsion
[ 11005 11000 10999 10996 ] final   51.28 input  -57.11 | X-H torsion

> <Gold.Protein.ActiveResidues>
 VAL166  LYS551  ARG553  GLY616  TRP617  ASP618  TYR619  PRO620  LYS621  CYS622 
 ASP623  PHE694  ASN695  SER759  ASP760  ASP761  ALA762  ILE779  LEU786  VAL792 
 PHE793  MET794  SER795  GLU796  ALA797  LYS798  CYS799  TRP800  GLU811  SER814 

> <Gold.Protein.RotatedAtoms>
  151.3206  133.4041  159.2653 H   0  0  0  0  0  0  0  0  0  0  0  0  # atno 6907 bound_to 6896
  151.0037  134.9343  159.7979 H   0  0  0  0  0  0  0  0  0  0  0  0  # atno 6908 bound_to 6896
  152.5282  134.3171  159.9187 H   0  0  0  0  0  0  0  0  0  0  0  0  # atno 6909 bound_to 6896
  145.2868  139.2613  143.3886 H   0  0  0  0  0  0  0  0  0  0  0  0  # atno 7974 bound_to 7965
  154.9037  140.3004  155.5304 H   0  0  0  0  0  0  0  0  0  0  0  0  # atno 8008 bound_to 7997
  156.3017  140.2402  156.4003 H   0  0  0  0  0  0  0  0  0  0  0  0  # atno 8009 bound_to 7997
  154.8495  140.0410  157.1584 H   0  0  0  0  0  0  0  0  0  0  0  0  # atno 8010 bound_to 7997
  140.2233  144.3765  150.6442 H   0  0  0  0  0  0  0  0  0  0  0  0  # atno 10167 bound_to 10162
  156.0788  130.5992  150.8689 H   0  0  0  0  0  0  0  0  0  0  0  0  # atno 10718 bound_to 10713
  153.3266  135.6972  153.6984 H   0  0  0  0  0  0  0  0  0  0  0  0  # atno 10763 bound_to 10752
  153.5803  135.3499  155.2873 H   0  0  0  0  0  0  0  0  0  0  0  0  # atno 10764 bound_to 10752
  154.8609  135.4293  154.2444 H   0  0  0  0  0  0  0  0  0  0  0  0  # atno 10765 bound_to 10752
  140.0946  134.5163  155.8820 H   0  0  0  0  0  0  0  0  0  0  0  0  # atno 11005 bound_to 11000
  146.3198  140.3350  142.8643 LP  0  0  0  0  0  0  0  0  0  0  0  0  # atno 17320 bound_to 7965
  144.9206  140.7863  143.5751 LP  0  0  0  0  0  0  0  0  0  0  0  0  # atno 17321 bound_to 7965
  140.6239  143.2179  151.6638 LP  0  0  0  0  0  0  0  0  0  0  0  0  # atno 17342 bound_to 10162
  139.5136  144.3438  152.0716 LP  0  0  0  0  0  0  0  0  0  0  0  0  # atno 17343 bound_to 10162
  157.5896  131.0945  150.9140 LP  0  0  0  0  0  0  0  0  0  0  0  0  # atno 17370 bound_to 10713
  156.9318  130.5352  149.5279 LP  0  0  0  0  0  0  0  0  0  0  0  0  # atno 17371 bound_to 10713
  141.2088  133.6677  156.6395 LP  0  0  0  0  0  0  0  0  0  0  0  0  # atno 17394 bound_to 11000
  140.3305  134.7933  157.4322 LP  0  0  0  0  0  0  0  0  0  0  0  0  # atno 17395 bound_to 11000

$$$$
