AV-unprocessed.smi:740|AV-procd|sdf|3549|dock10
  -GOLD-   22720 0543D 1   1.00000     0.00000
 Structure written by MMmdl.
 44 46  0  0  0  0  0  0  0  0  1 V2000
  151.3198  143.6635  158.5135 C   0  0  0  0  0  0  0  0  0  0  0  0
  152.2087  142.8171  159.4075 C   0  0  0  0  0  0  0  0  0  0  0  0
  152.8357  141.6721  158.8667 C   0  0  0  0  0  0  0  0  0  0  0  0
  153.6734  140.8608  159.6625 C   0  0  0  0  0  0  0  0  0  0  0  0
  154.3787  139.7131  159.3432 N   0  0  0  0  0  0  0  0  0  0  0  0
  154.9700  139.4319  160.5006 C   0  0  0  0  0  0  0  0  0  0  0  0
  154.7300  140.2618  161.5337 N   0  0  0  0  0  0  0  0  0  0  0  0
  155.2691  140.1565  162.8775 C   0  0  0  0  0  0  0  0  0  0  0  0
  156.6832  139.5450  162.8956 C   0  0  1  0  0  0  0  0  0  0  0  0
  157.5269  140.3329  162.0773 O   0  0  0  0  0  0  0  0  0  0  0  0
  157.2696  139.5063  164.3220 C   0  0  0  0  0  0  0  0  0  0  0  0
  156.7357  140.5831  165.1642 N   0  0  0  0  0  0  0  0  0  0  0  0
  156.0126  140.3795  166.2739 C   0  0  0  0  0  0  0  0  0  0  0  0
  155.6847  139.2885  166.7395 O   0  0  0  0  0  0  0  0  0  0  0  0
  155.6324  141.7002  166.9284 C   0  0  0  0  0  0  0  0  0  0  0  0
  156.2606  142.7488  165.9982 C   0  0  2  0  0  0  0  0  0  0  0  0
  155.2423  143.7301  165.3946 C   0  0  0  0  0  0  0  0  0  0  0  0
  156.9260  141.8884  164.9256 C   0  0  0  0  0  0  0  0  0  0  0  0
  157.5498  142.3701  163.9798 O   0  0  0  0  0  0  0  0  0  0  0  0
  153.8692  141.2291  161.0258 C   0  0  0  0  0  0  0  0  0  0  0  0
  153.2493  142.3650  161.5762 C   0  0  0  0  0  0  0  0  0  0  0  0
  152.4151  143.1647  160.7668 C   0  0  0  0  0  0  0  0  0  0  0  0
  151.7520  144.3903  161.3696 C   0  0  0  0  0  0  0  0  0  0  0  0
  151.2403  143.2377  157.5128 H   0  0  0  0  0  0  0  0  0  0  0  0
  151.7253  144.6709  158.4174 H   0  0  0  0  0  0  0  0  0  0  0  0
  150.3136  143.7324  158.9275 H   0  0  0  0  0  0  0  0  0  0  0  0
  152.6799  141.4069  157.8313 H   0  0  0  0  0  0  0  0  0  0  0  0
  155.6186  138.5744  160.6043 H   0  0  0  0  0  0  0  0  0  0  0  0
  155.2697  141.1462  163.3362 H   0  0  0  0  0  0  0  0  0  0  0  0
  154.5867  139.5419  163.4664 H   0  0  0  0  0  0  0  0  0  0  0  0
  156.6360  138.5375  162.4798 H   0  0  0  0  0  0  0  0  0  0  0  0
  157.2133  141.2242  162.0909 H   0  0  0  0  0  0  0  0  0  0  0  0
  157.1119  138.5271  164.7780 H   0  0  0  0  0  0  0  0  0  0  0  0
  158.3534  139.6248  164.2725 H   0  0  0  0  0  0  0  0  0  0  0  0
  154.5473  141.7908  166.9899 H   0  0  0  0  0  0  0  0  0  0  0  0
  156.0435  141.7562  167.9369 H   0  0  0  0  0  0  0  0  0  0  0  0
  157.0350  143.3028  166.5304 H   0  0  0  0  0  0  0  0  0  0  0  0
  155.7313  144.4569  164.7449 H   0  0  0  0  0  0  0  0  0  0  0  0
  154.7281  144.2861  166.1789 H   0  0  0  0  0  0  0  0  0  0  0  0
  154.4849  143.2115  164.8054 H   0  0  0  0  0  0  0  0  0  0  0  0
  153.4178  142.6202  162.6118 H   0  0  0  0  0  0  0  0  0  0  0  0
  152.0266  144.5171  162.4172 H   0  0  0  0  0  0  0  0  0  0  0  0
  150.6667  144.3016  161.3168 H   0  0  0  0  0  0  0  0  0  0  0  0
  152.0530  145.2905  160.8336 H   0  0  0  0  0  0  0  0  0  0  0  0
  1  2  1  0  0  0  0
  1 24  1  0  0  0  0
  1 25  1  0  0  0  0
  1 26  1  0  0  0  0
  2 22  1  0  0  0  0
  2  3  2  0  0  0  0
  3  4  1  0  0  0  0
  3 27  1  0  0  0  0
  4 20  2  0  0  0  0
  4  5  1  0  0  0  0
  5  6  2  0  0  0  0
  6  7  1  0  0  0  0
  6 28  1  0  0  0  0
  7  8  1  0  0  0  0
  7 20  1  0  0  0  0
  8  9  1  0  0  0  0
  8 29  1  0  0  0  0
  8 30  1  0  0  0  0
  9 10  1  0  0  0  0
  9 11  1  0  0  0  0
  9 31  1  0  0  0  0
 10 32  1  0  0  0  0
 11 12  1  0  0  0  0
 11 33  1  0  0  0  0
 11 34  1  0  0  0  0
 12 18  1  0  0  0  0
 12 13  1  0  0  0  0
 13 14  2  0  0  0  0
 13 15  1  0  0  0  0
 15 16  1  0  0  0  0
 15 35  1  0  0  0  0
 15 36  1  0  0  0  0
 16 17  1  0  0  0  0
 16 18  1  0  0  0  0
 16 37  1  0  0  0  0
 17 38  1  0  0  0  0
 17 39  1  0  0  0  0
 17 40  1  0  0  0  0
 18 19  2  0  0  0  0
 20 21  1  0  0  0  0
 21 22  2  0  0  0  0
 21 41  1  0  0  0  0
 22 23  1  0  0  0  0
 23 42  1  0  0  0  0
 23 43  1  0  0  0  0
 23 44  1  0  0  0  0
M  END
> <s_m_source_file>
AV-unprocessed.smi

> <i_m_source_file_index>
740

> <i_lp_mmshare_version>
43012

> <i_f3d_flags>
0

> <s_epik_input>
W0NIM11jKFtjSF0xKWMoW0NIM10pW2NIXWMoYzEyKW4oW2NIXW4yKVtDSDJdW0NASF0oW09IXSlbQ0gyXU4zQyg9TylbQ0gyXVtDQEBIXShbQ0gzXSlDMz1P

> <s_epik_cmdline>
J2VwaWtfcHl0aG9uJywgJy1waCcsICc3LjAnLCAnLXRuJywgJzgnLCAnLW1hJywgJzIwMCcsICctbWV0YWxfYmluZGluZycsICctaW1hZScsICc8aW5maWxlLm1hZT4nLCAnLW9tYWUnLCAnPG91dGZpbGUubWFlPic=

> <r_lp_tautomer_probability>
1

> <r_epik_Ionization_Penalty>
0.104021

> <r_epik_Ionization_Penalty_Charging>
0

> <r_epik_Ionization_Penalty_Neutral>
0.104021

> <r_epik_State_Penalty>
0.0939354

> <r_epik_Charging_Adjusted_Penalty>
0.0939354

> <i_epik_Tot_Q>
0

> <i_epik_Tot_abs_Q>
0

> <r_epik_Metal_State_Penalty>
0.000101783

> <b_epik_Metal_Only>
0

> <s_lp_Force_Field>
OPLS_2005

> <r_lp_Energy>
16.4677

> <b_lp_Chiralities_Consistent>
1

> <s_lp_Variant>
AV-unprocessed.smi:740-4

> <Gold.Version>
5.8.1

> <Gold.Id.Protein>
6NUR|6NUR_protein|mol2

> <Gold.PLP.Fitness>
48.7733

> <Gold.PLP.PLP>
-47.3388

> <Gold.PLP.part.hbond>
-3.3885

> <Gold.PLP.part.metal>
0.0000

> <Gold.PLP.part.buried>
-2.4329

> <Gold.PLP.part.nonpolar>
-39.7122

> <Gold.PLP.part.repulsive>
0.1366

> <Gold.PLP.ligand.clash>
0.0000

> <Gold.PLP.ligand.torsion>
0.7830

> <Gold.PLP.Chemscore.Hbond>
0.9913

> <Gold.PLP.Chemscore.CHOScore>
0.0000

> <Gold.PLP.Chemscore.Metal>
0.0000

> <Gold.Chemscore.Hbonds>
donor molecule, donor type, donor heavy atom, donor atom, acceptor molecule, acceptor atom, score
      P1  H  7997  8009       L1     5  0.71

> <Gold.PLP.Chemscore.Internal.Correction>
0.0269

> <Gold.Rescore>
     Score         DG    S(hbond)    S(metal)    S(lipo)     H(rot)  DE(clash)    DE(int)     intcor
     12.19     -17.14       0.89        0.00     124.98       2.31       3.12       1.83       ----

> <Gold.Chemscore.Fitness>
12.1883

> <Gold.Chemscore.DG>
-17.1385

> <Gold.Chemscore.ZeroCoef>
-5.4800

> <Gold.Chemscore.Hbond>
0.8866

> <Gold.Chemscore.Metal>
0.0000

> <Gold.Chemscore.Lipo>
124.9830

> <Gold.Chemscore.Internal_Hbond>
0.0000

> <Gold.Chemscore.DEClash>
3.1213

> <Gold.Chemscore.DEInternal>
1.8289

> <Gold.Chemscore.Rot>
2.3147

> <Gold.Chemscore.Internal.Correction>
   9.000000E+99

> <Gold.Chemscore.Hbonds>
donor molecule, donor type, donor heavy atom, donor atom, acceptor molecule, acceptor atom, score
      P1  H  7997  8009       L1     5  0.35

> <Gold.Chemscore.Hbond.Weighted>
-2.9611

> <Gold.Chemscore.Metal.Weighted>
-0.0000

> <Gold.Chemscore.Lipo.Weighted>
-14.6230

> <Gold.Chemscore.Internal_Hbond.Weighted>
0.0000

> <Gold.Chemscore.DEClash.Weighted>
3.1213

> <Gold.Chemscore.DEInternal.Weighted>
1.8289

> <Gold.Chemscore.Rot.Weighted>
5.9256

> <Gold.Chemscore.Internal.Correction.Weighted>
   9.000000E+99

> <Gold.Protein.RotatedTorsions>
[ 6907 6896 6895 6894 ] final -147.19 input  -60.11 | X-H torsion
[ 7974 7965 7964 7962 ] final  153.42 input  175.53 | X-H torsion
[ 8008 7997 7996 7995 ] final  123.48 input   59.86 | X-H torsion
[ 10167 10162 10161 10158 ] final  136.48 input  -65.29 | X-H torsion
[ 10718 10713 10712 10709 ] final -130.57 input   66.30 | X-H torsion
[ 10763 10752 10751 10750 ] final -172.23 input  -60.55 | X-H torsion
[ 11005 11000 10999 10996 ] final -164.04 input  -57.11 | X-H torsion

> <Gold.Protein.ActiveResidues>
 VAL166  LYS551  ARG553  GLY616  TRP617  ASP618  TYR619  PRO620  LYS621  CYS622 
 ASP623  PHE694  ASN695  SER759  ASP760  ASP761  ALA762  ILE779  LEU786  VAL792 
 PHE793  MET794  SER795  GLU796  ALA797  LYS798  CYS799  TRP800  GLU811  SER814 

> <Gold.Protein.RotatedAtoms>
  151.1522  133.4900  159.2594 H   0  0  0  0  0  0  0  0  0  0  0  0  # atno 6907 bound_to 6896
  151.1542  135.0242  159.8692 H   0  0  0  0  0  0  0  0  0  0  0  0  # atno 6908 bound_to 6896
  152.5463  134.1403  159.8529 H   0  0  0  0  0  0  0  0  0  0  0  0  # atno 6909 bound_to 6896
  144.8155  139.6799  143.6123 H   0  0  0  0  0  0  0  0  0  0  0  0  # atno 7974 bound_to 7965
  156.2767  140.2762  156.1635 H   0  0  0  0  0  0  0  0  0  0  0  0  # atno 8008 bound_to 7997
  155.0729  140.0387  157.2632 H   0  0  0  0  0  0  0  0  0  0  0  0  # atno 8009 bound_to 7997
  154.7025  140.2652  155.6711 H   0  0  0  0  0  0  0  0  0  0  0  0  # atno 8010 bound_to 7997
  139.5178  144.6462  151.5433 H   0  0  0  0  0  0  0  0  0  0  0  0  # atno 10167 bound_to 10162
  156.2158  130.6947  151.0701 H   0  0  0  0  0  0  0  0  0  0  0  0  # atno 10718 bound_to 10713
  154.6216  135.2876  155.0319 H   0  0  0  0  0  0  0  0  0  0  0  0  # atno 10763 bound_to 10752
  154.1512  135.6503  153.4968 H   0  0  0  0  0  0  0  0  0  0  0  0  # atno 10764 bound_to 10752
  153.0238  135.5356  154.7008 H   0  0  0  0  0  0  0  0  0  0  0  0  # atno 10765 bound_to 10752
  140.5913  134.5041  157.5193 H   0  0  0  0  0  0  0  0  0  0  0  0  # atno 11005 bound_to 11000
  146.2458  139.6095  142.9460 LP  0  0  0  0  0  0  0  0  0  0  0  0  # atno 17320 bound_to 7965
  145.5224  141.0431  143.2428 LP  0  0  0  0  0  0  0  0  0  0  0  0  # atno 17321 bound_to 7965
  140.6248  143.9190  150.6555 LP  0  0  0  0  0  0  0  0  0  0  0  0  # atno 17342 bound_to 10162
  140.2475  143.3618  152.1434 LP  0  0  0  0  0  0  0  0  0  0  0  0  # atno 17343 bound_to 10162
  157.7062  131.0755  150.6658 LP  0  0  0  0  0  0  0  0  0  0  0  0  # atno 17370 bound_to 10713
  156.6719  130.4542  149.5654 LP  0  0  0  0  0  0  0  0  0  0  0  0  # atno 17371 bound_to 10713
  139.9273  134.8032  156.1032 LP  0  0  0  0  0  0  0  0  0  0  0  0  # atno 17394 bound_to 11000
  141.0933  133.6706  156.2588 LP  0  0  0  0  0  0  0  0  0  0  0  0  # atno 17395 bound_to 11000

$$$$
