AV-unprocessed.smi:3117|AV-procd|sdf|11883|dock5
  -GOLD-   2272017273D 1   1.00000     0.00000
 Structure written by MMmdl.
 36 36  0  0  0  0  0  0  0  0  1 V2000
  148.9537  142.1772  158.3052 C   0  0  0  0  0  0  0  0  0  0  0  0
  149.8355  141.5551  157.1982 C   0  0  1  0  0  0  0  0  0  0  0  0
  149.5712  142.1868  155.8995 N   0  0  0  0  0  0  0  0  0  0  0  0
  148.4021  141.6920  155.1689 C   0  0  0  0  0  0  0  0  0  0  0  0
  148.7400  140.4767  154.2776 C   0  0  0  0  0  0  0  0  0  0  0  0
  149.2945  139.2786  155.0727 C   0  0  0  0  0  0  0  0  0  0  0  0
  147.4942  140.0522  153.4825 C   0  0  0  0  0  0  0  0  0  0  0  0
  149.7043  140.8794  153.3241 O   0  0  0  0  0  0  0  0  0  0  0  0
  151.3539  141.6498  157.5130 C   0  0  2  0  0  0  0  0  0  0  0  0
  151.8538  140.4572  158.3521 C   0  0  0  0  0  0  0  0  0  0  0  0
  151.7151  142.9034  158.1646 N   0  0  0  0  0  0  0  0  0  0  0  0
  151.5383  144.1889  157.6956 C   0  0  0  0  0  0  0  0  0  0  0  0
  152.0241  145.0416  158.6449 C   0  0  0  0  0  0  0  0  0  0  0  0
  152.4833  144.1743  159.6747 C   0  0  0  0  0  0  0  0  0  0  0  0
  152.2966  142.8968  159.3861 N   0  0  0  0  0  0  0  0  0  0  0  0
  149.1179  141.6998  159.2709 H   0  0  0  0  0  0  0  0  0  0  0  0
  147.8909  142.0645  158.0955 H   0  0  0  0  0  0  0  0  0  0  0  0
  149.1603  143.2413  158.4232 H   0  0  0  0  0  0  0  0  0  0  0  0
  149.5779  140.4971  157.1325 H   0  0  0  0  0  0  0  0  0  0  0  0
  149.4931  143.1924  156.0144 H   0  0  0  0  0  0  0  0  0  0  0  0
  147.6273  141.4083  155.8821 H   0  0  0  0  0  0  0  0  0  0  0  0
  147.9754  142.4777  154.5460 H   0  0  0  0  0  0  0  0  0  0  0  0
  148.5884  138.9567  155.8388 H   0  0  0  0  0  0  0  0  0  0  0  0
  150.2346  139.5185  155.5708 H   0  0  0  0  0  0  0  0  0  0  0  0
  149.4849  138.4250  154.4211 H   0  0  0  0  0  0  0  0  0  0  0  0
  146.6973  139.7205  154.1491 H   0  0  0  0  0  0  0  0  0  0  0  0
  147.7150  139.2298  152.8012 H   0  0  0  0  0  0  0  0  0  0  0  0
  147.1012  140.8772  152.8864 H   0  0  0  0  0  0  0  0  0  0  0  0
  149.7236  140.2400  152.6287 H   0  0  0  0  0  0  0  0  0  0  0  0
  151.8940  141.6310  156.5647 H   0  0  0  0  0  0  0  0  0  0  0  0
  151.7210  139.5128  157.8240 H   0  0  0  0  0  0  0  0  0  0  0  0
  151.3190  140.3821  159.2995 H   0  0  0  0  0  0  0  0  0  0  0  0
  152.9163  140.5549  158.5769 H   0  0  0  0  0  0  0  0  0  0  0  0
  151.0856  144.3881  156.7355 H   0  0  0  0  0  0  0  0  0  0  0  0
  152.0476  146.1206  158.6094 H   0  0  0  0  0  0  0  0  0  0  0  0
  152.9434  144.4331  160.6167 H   0  0  0  0  0  0  0  0  0  0  0  0
  1  2  1  0  0  0  0
  1 16  1  0  0  0  0
  1 17  1  0  0  0  0
  1 18  1  0  0  0  0
  2  3  1  0  0  0  0
  2  9  1  0  0  0  0
  2 19  1  0  0  0  0
  3  4  1  0  0  0  0
  3 20  1  0  0  0  0
  4  5  1  0  0  0  0
  4 21  1  0  0  0  0
  4 22  1  0  0  0  0
  5  6  1  0  0  0  0
  5  7  1  0  0  0  0
  5  8  1  0  0  0  0
  6 23  1  0  0  0  0
  6 24  1  0  0  0  0
  6 25  1  0  0  0  0
  7 26  1  0  0  0  0
  7 27  1  0  0  0  0
  7 28  1  0  0  0  0
  8 29  1  0  0  0  0
  9 10  1  0  0  0  0
  9 11  1  0  0  0  0
  9 30  1  0  0  0  0
 10 31  1  0  0  0  0
 10 32  1  0  0  0  0
 10 33  1  0  0  0  0
 11 15  1  0  0  0  0
 11 12  1  0  0  0  0
 12 13  2  0  0  0  0
 12 34  1  0  0  0  0
 13 14  1  0  0  0  0
 13 35  1  0  0  0  0
 14 15  2  0  0  0  0
 14 36  1  0  0  0  0
M  END
> <s_m_source_file>
AV-unprocessed.smi

> <i_m_source_file_index>
3117

> <i_lp_mmshare_version>
43012

> <i_f3d_flags>
0

> <s_epik_input>
W0NIM11DKFtDSDNdKShbT0hdKVtDSDJdW05IXVtDQEBIXShbQ0gzXSlbQ0BIXShbQ0gzXSluMVtjSF1bY0hdW2NIXW4x

> <s_epik_cmdline>
J2VwaWtfcHl0aG9uJywgJy1waCcsICc3LjAnLCAnLXRuJywgJzgnLCAnLW1hJywgJzIwMCcsICctbWV0YWxfYmluZGluZycsICctaW1hZScsICc8aW5maWxlLm1hZT4nLCAnLW9tYWUnLCAnPG91dGZpbGUubWFlPic=

> <r_lp_tautomer_probability>
1

> <r_epik_Ionization_Penalty>
2.13419

> <r_epik_Ionization_Penalty_Charging>
0

> <r_epik_Ionization_Penalty_Neutral>
2.13419

> <r_epik_State_Penalty>
2.27148

> <r_epik_Charging_Adjusted_Penalty>
2.27148

> <i_epik_Tot_Q>
0

> <i_epik_Tot_abs_Q>
0

> <r_epik_Metal_State_Penalty>
2.27029

> <b_epik_Metal_Only>
0

> <s_lp_Force_Field>
OPLS_2005

> <r_lp_Energy>
18.8486

> <b_lp_Chiralities_Consistent>
1

> <s_lp_Variant>
AV-unprocessed.smi:3117-6

> <Gold.Version>
5.8.1

> <Gold.Id.Protein>
6NUR|6NUR_protein|mol2

> <Gold.PLP.Fitness>
44.1344

> <Gold.PLP.PLP>
-34.1232

> <Gold.PLP.part.hbond>
-3.3491

> <Gold.PLP.part.metal>
0.0000

> <Gold.PLP.part.buried>
-4.1381

> <Gold.PLP.part.nonpolar>
-27.5860

> <Gold.PLP.part.repulsive>
0.0000

> <Gold.PLP.ligand.clash>
0.0000

> <Gold.PLP.ligand.torsion>
1.0865

> <Gold.PLP.Chemscore.Hbond>
3.0151

> <Gold.PLP.Chemscore.CHOScore>
1.0000

> <Gold.PLP.Chemscore.Metal>
0.0000

> <Gold.Chemscore.Hbonds>
donor molecule, donor type, donor heavy atom, donor atom, acceptor molecule, acceptor atom, score
      L1  H     3    20       P1  8028  1.00
      L1  H     8    29       P1  7957  0.79
      P1  H  7989  7998       L1     8  0.14
      P1  H  8011  8017       L1     8  0.95
      L1  C    12    34       P1  8028  1.00

> <Gold.PLP.Chemscore.Internal.Correction>
0.1389

> <Gold.Rescore>
     Score         DG    S(hbond)    S(metal)    S(lipo)     H(rot)  DE(clash)    DE(int)     intcor
     16.24     -17.42       2.27        0.00      85.17       2.19       0.03       1.16       ----

> <Gold.Chemscore.Fitness>
16.2395

> <Gold.Chemscore.DG>
-17.4211

> <Gold.Chemscore.ZeroCoef>
-5.4800

> <Gold.Chemscore.Hbond>
2.2688

> <Gold.Chemscore.Metal>
0.0000

> <Gold.Chemscore.Lipo>
85.1724

> <Gold.Chemscore.Internal_Hbond>
0.0000

> <Gold.Chemscore.DEClash>
0.0259

> <Gold.Chemscore.DEInternal>
1.1556

> <Gold.Chemscore.Rot>
2.1882

> <Gold.Chemscore.Internal.Correction>
   9.000000E+99

> <Gold.Chemscore.Hbonds>
donor molecule, donor type, donor heavy atom, donor atom, acceptor molecule, acceptor atom, score
      L1  H     3    20       P1  8028  0.98
      L1  H     8    29       P1  7957  0.74
      P1  H  7989  7998       L1     8  0.01
      P1  H  8011  8017       L1     8  0.21

> <Gold.Chemscore.Hbond.Weighted>
-7.5777

> <Gold.Chemscore.Metal.Weighted>
-0.0000

> <Gold.Chemscore.Lipo.Weighted>
-9.9652

> <Gold.Chemscore.Internal_Hbond.Weighted>
0.0000

> <Gold.Chemscore.DEClash.Weighted>
0.0259

> <Gold.Chemscore.DEInternal.Weighted>
1.1556

> <Gold.Chemscore.Rot.Weighted>
5.6018

> <Gold.Chemscore.Internal.Correction.Weighted>
   9.000000E+99

> <Gold.Protein.RotatedTorsions>
[ 6907 6896 6895 6894 ] final  136.70 input  -60.11 | X-H torsion
[ 7974 7965 7964 7962 ] final  119.98 input  175.53 | X-H torsion
[ 8008 7997 7996 7995 ] final   69.11 input   59.86 | X-H torsion
[ 10167 10162 10161 10158 ] final  -40.55 input  -65.29 | X-H torsion
[ 10718 10713 10712 10709 ] final   39.13 input   66.30 | X-H torsion
[ 10763 10752 10751 10750 ] final  143.42 input  -60.55 | X-H torsion
[ 11005 11000 10999 10996 ] final  102.15 input  -57.11 | X-H torsion

> <Gold.Protein.ActiveResidues>
 VAL166  LYS551  ARG553  GLY616  TRP617  ASP618  TYR619  PRO620  LYS621  CYS622 
 ASP623  PHE694  ASN695  SER759  ASP760  ASP761  ALA762  ILE779  LEU786  VAL792 
 PHE793  MET794  SER795  GLU796  ALA797  LYS798  CYS799  TRP800  GLU811  SER814 

> <Gold.Protein.RotatedAtoms>
  152.2864  133.5519  159.5529 H   0  0  0  0  0  0  0  0  0  0  0  0  # atno 6907 bound_to 6896
  150.7217  134.0491  159.3801 H   0  0  0  0  0  0  0  0  0  0  0  0  # atno 6908 bound_to 6896
  151.8399  135.0594  160.0497 H   0  0  0  0  0  0  0  0  0  0  0  0  # atno 6909 bound_to 6896
  145.1366  139.3294  143.4637 H   0  0  0  0  0  0  0  0  0  0  0  0  # atno 7974 bound_to 7965
  155.7187  140.3493  155.5006 H   0  0  0  0  0  0  0  0  0  0  0  0  # atno 8008 bound_to 7997
  155.9290  140.1080  157.1169 H   0  0  0  0  0  0  0  0  0  0  0  0  # atno 8009 bound_to 7997
  154.4082  140.1235  156.4764 H   0  0  0  0  0  0  0  0  0  0  0  0  # atno 8010 bound_to 7997
  140.7031  143.3147  151.2940 H   0  0  0  0  0  0  0  0  0  0  0  0  # atno 10167 bound_to 10162
  157.3670  130.7680  149.7090 H   0  0  0  0  0  0  0  0  0  0  0  0  # atno 10718 bound_to 10713
  153.9721  135.2949  155.3426 H   0  0  0  0  0  0  0  0  0  0  0  0  # atno 10763 bound_to 10752
  154.7316  135.5065  153.8977 H   0  0  0  0  0  0  0  0  0  0  0  0  # atno 10764 bound_to 10752
  153.0895  135.6703  153.9995 H   0  0  0  0  0  0  0  0  0  0  0  0  # atno 10765 bound_to 10752
  139.8776  134.9212  156.5015 H   0  0  0  0  0  0  0  0  0  0  0  0  # atno 11005 bound_to 11000
  146.3509  140.1387  142.8595 LP  0  0  0  0  0  0  0  0  0  0  0  0  # atno 17320 bound_to 7965
  145.0577  140.9065  143.4957 LP  0  0  0  0  0  0  0  0  0  0  0  0  # atno 17321 bound_to 7965
  139.6581  144.0239  152.2673 LP  0  0  0  0  0  0  0  0  0  0  0  0  # atno 17342 bound_to 10162
  139.9797  144.6436  150.7912 LP  0  0  0  0  0  0  0  0  0  0  0  0  # atno 17343 bound_to 10162
  155.9748  130.4098  150.3896 LP  0  0  0  0  0  0  0  0  0  0  0  0  # atno 17370 bound_to 10713
  157.1981  131.0431  151.2665 LP  0  0  0  0  0  0  0  0  0  0  0  0  # atno 17371 bound_to 10713
  140.8586  133.8077  155.9242 LP  0  0  0  0  0  0  0  0  0  0  0  0  # atno 17394 bound_to 11000
  140.9072  134.2305  157.5007 LP  0  0  0  0  0  0  0  0  0  0  0  0  # atno 17395 bound_to 11000

$$$$
