AV-unprocessed.smi:3287|AV-procd|sdf|12603|dock4
  -GOLD-   2272018533D 1   1.00000     0.00000
 Structure written by MMmdl.
 43 44  0  0  0  0  0  0  0  0  2 V2000
  152.2289  143.3642  161.7790 C   0  0  0  0  0  0  0  0  0  0  0  0
  152.4364  143.3851  160.2541 C   0  0  1  0  0  0  0  0  0  0  0  0
  152.1337  141.9914  159.6672 C   0  0  0  0  0  0  0  0  0  0  0  0
  152.3290  141.9463  158.1434 C   0  0  0  0  0  0  0  0  0  0  0  0
  151.4908  143.0156  157.4230 C   0  0  1  0  0  0  0  0  0  0  0  0
  150.0510  142.6715  157.4843 N   0  3  0  0  0  0  0  0  0  0  0  0
  149.7190  141.2549  157.2189 C   0  0  0  0  0  0  0  0  0  0  0  0
  149.6278  140.9755  155.7089 C   0  0  1  0  0  0  0  0  0  0  0  0
  149.9213  142.1682  155.0069 O   0  0  0  0  0  0  0  0  0  0  0  0
  150.5541  139.8391  155.3051 C   0  0  0  0  0  0  0  0  0  0  0  0
  151.9359  139.8831  155.5927 C   0  0  0  0  0  0  0  0  0  0  0  0
  152.7410  138.7953  155.1995 C   0  0  0  0  0  0  0  0  0  0  0  0
  152.2574  137.7074  154.5626 N   0  0  0  0  0  0  0  0  0  0  0  0
  150.9352  137.6692  154.2925 C   0  0  0  0  0  0  0  0  0  0  0  0
  150.0437  138.7035  154.6416 C   0  0  0  0  0  0  0  0  0  0  0  0
  151.7911  144.4093  158.0131 C   0  0  0  0  0  0  0  0  0  0  0  0
  151.5915  144.4757  159.5432 C   0  0  2  0  0  0  0  0  0  0  0  0
  151.9034  145.8965  160.0464 C   0  0  0  0  0  0  0  0  0  0  0  0
  151.1781  143.2266  162.0354 H   0  0  0  0  0  0  0  0  0  0  0  0
  152.5714  144.2865  162.2476 H   0  0  0  0  0  0  0  0  0  0  0  0
  152.7909  142.5506  162.2388 H   0  0  0  0  0  0  0  0  0  0  0  0
  153.4906  143.5989  160.0705 H   0  0  0  0  0  0  0  0  0  0  0  0
  152.7797  141.2456  160.1323 H   0  0  0  0  0  0  0  0  0  0  0  0
  151.1114  141.7021  159.9144 H   0  0  0  0  0  0  0  0  0  0  0  0
  153.3843  142.1052  157.9169 H   0  0  0  0  0  0  0  0  0  0  0  0
  152.0850  140.9535  157.7636 H   0  0  0  0  0  0  0  0  0  0  0  0
  151.7812  143.0094  156.3715 H   0  0  0  0  0  0  0  0  0  0  0  0
  149.7239  142.8866  158.4152 H   0  0  0  0  0  0  0  0  0  0  0  0
  150.4618  140.5995  157.6735 H   0  0  0  0  0  0  0  0  0  0  0  0
  148.7613  141.0285  157.6899 H   0  0  0  0  0  0  0  0  0  0  0  0
  148.6051  140.6923  155.4552 H   0  0  0  0  0  0  0  0  0  0  0  0
  149.6000  142.9003  155.5121 H   0  0  0  0  0  0  0  0  0  0  0  0
  152.3744  140.7279  156.1036 H   0  0  0  0  0  0  0  0  0  0  0  0
  153.8014  138.7990  155.4041 H   0  0  0  0  0  0  0  0  0  0  0  0
  150.5757  136.7869  153.7836 H   0  0  0  0  0  0  0  0  0  0  0  0
  148.9934  138.6207  154.4033 H   0  0  0  0  0  0  0  0  0  0  0  0
  152.8263  144.6658  157.7831 H   0  0  0  0  0  0  0  0  0  0  0  0
  151.1895  145.1732  157.5212 H   0  0  0  0  0  0  0  0  0  0  0  0
  150.5386  144.2818  159.7531 H   0  0  0  0  0  0  0  0  0  0  0  0
  152.9622  146.1332  159.9375 H   0  0  0  0  0  0  0  0  0  0  0  0
  151.6370  146.0234  161.0953 H   0  0  0  0  0  0  0  0  0  0  0  0
  151.3390  146.6425  159.4860 H   0  0  0  0  0  0  0  0  0  0  0  0
  149.5481  143.2529  156.8287 H   0  0  0  0  0  0  0  0  0  0  0  0
  1  2  1  0  0  0  0
  1 19  1  0  0  0  0
  1 20  1  0  0  0  0
  1 21  1  0  0  0  0
  2 17  1  0  0  0  0
  2  3  1  0  0  0  0
  2 22  1  0  0  0  0
  3  4  1  0  0  0  0
  3 23  1  0  0  0  0
  3 24  1  0  0  0  0
  4  5  1  0  0  0  0
  4 25  1  0  0  0  0
  4 26  1  0  0  0  0
  5  6  1  0  0  0  0
  5 16  1  0  0  0  0
  5 27  1  0  0  0  0
  6  7  1  0  0  0  0
  6 28  1  0  0  0  0
  6 43  1  0  0  0  0
  7  8  1  0  0  0  0
  7 29  1  0  0  0  0
  7 30  1  0  0  0  0
  8  9  1  0  0  0  0
  8 10  1  0  0  0  0
  8 31  1  0  0  0  0
  9 32  1  0  0  0  0
 10 15  1  0  0  0  0
 10 11  2  0  0  0  0
 11 12  1  0  0  0  0
 11 33  1  0  0  0  0
 12 13  2  0  0  0  0
 12 34  1  0  0  0  0
 13 14  1  0  0  0  0
 14 15  2  0  0  0  0
 14 35  1  0  0  0  0
 15 36  1  0  0  0  0
 16 17  1  0  0  0  0
 16 37  1  0  0  0  0
 16 38  1  0  0  0  0
 17 18  1  0  0  0  0
 17 39  1  0  0  0  0
 18 40  1  0  0  0  0
 18 41  1  0  0  0  0
 18 42  1  0  0  0  0
M  CHG  1   6   1
M  END
> <s_m_source_file>
AV-unprocessed.smi

> <i_m_source_file_index>
3287

> <i_lp_mmshare_version>
43012

> <i_f3d_flags>
0

> <s_epik_input>
W0NIM11bQ0BASF0xW0NIMl1bQ0gyXVtDQEhdKFtDSDJdW0NASF0xW0NIM10pW05IXVtDSDJdW0NASF0oW09IXSljMltjSF1bY0hdbltjSF1bY0hdMg==

> <s_epik_cmdline>
J2VwaWtfcHl0aG9uJywgJy1waCcsICc3LjAnLCAnLXRuJywgJzgnLCAnLW1hJywgJzIwMCcsICctbWV0YWxfYmluZGluZycsICctaW1hZScsICc8aW5maWxlLm1hZT4nLCAnLW9tYWUnLCAnPG91dGZpbGUubWFlPic=

> <r_lp_tautomer_probability>
1

> <r_epik_Ionization_Penalty>
0.00537262

> <r_epik_Ionization_Penalty_Charging>
0.00321624

> <r_epik_Ionization_Penalty_Neutral>
0.00215638

> <r_epik_State_Penalty>
-0

> <r_epik_Charging_Adjusted_Penalty>
0.00321624

> <i_epik_Tot_Q>
1

> <i_epik_Tot_abs_Q>
1

> <r_epik_Metal_State_Penalty>
-0

> <b_epik_Metal_Only>
0

> <s_lp_Force_Field>
OPLS_2005

> <r_lp_Energy>
19.4184

> <b_lp_Chiralities_Consistent>
1

> <s_lp_Variant>
AV-unprocessed.smi:3287-14

> <Gold.Version>
5.8.1

> <Gold.Id.Protein>
6NUR|6NUR_protein|mol2

> <Gold.PLP.Fitness>
57.1912

> <Gold.PLP.PLP>
-45.5176

> <Gold.PLP.part.hbond>
-4.3451

> <Gold.PLP.part.metal>
0.0000

> <Gold.PLP.part.buried>
-2.3856

> <Gold.PLP.part.nonpolar>
-39.0132

> <Gold.PLP.part.repulsive>
0.1233

> <Gold.PLP.ligand.clash>
0.0000

> <Gold.PLP.ligand.torsion>
1.0208

> <Gold.PLP.Chemscore.Hbond>
3.5148

> <Gold.PLP.Chemscore.CHOScore>
1.0518

> <Gold.PLP.Chemscore.Metal>
0.0000

> <Gold.Chemscore.Hbonds>
donor molecule, donor type, donor heavy atom, donor atom, acceptor molecule, acceptor atom, score
      L1  H     6    43       P1  8028  2.00
      L1  H     9    32       P1  8028  1.00
      P1  H 10752 10765       L1    13  0.48
      L1  C    14    35       P1  7948  0.51
      L1  C    14    35       P1  7949  0.55

> <Gold.PLP.Chemscore.Internal.Correction>
0.0152

> <Gold.Rescore>
     Score         DG    S(hbond)    S(metal)    S(lipo)     H(rot)  DE(clash)    DE(int)     intcor
     21.78     -25.57       2.64        0.00     137.98       1.90       1.64       2.15       ----

> <Gold.Chemscore.Fitness>
21.7832

> <Gold.Chemscore.DG>
-25.5663

> <Gold.Chemscore.ZeroCoef>
-5.4800

> <Gold.Chemscore.Hbond>
2.6392

> <Gold.Chemscore.Metal>
0.0000

> <Gold.Chemscore.Lipo>
137.9837

> <Gold.Chemscore.Internal_Hbond>
0.0000

> <Gold.Chemscore.DEClash>
1.6378

> <Gold.Chemscore.DEInternal>
2.1452

> <Gold.Chemscore.Rot>
1.9035

> <Gold.Chemscore.Internal.Correction>
   9.000000E+99

> <Gold.Chemscore.Hbonds>
donor molecule, donor type, donor heavy atom, donor atom, acceptor molecule, acceptor atom, score
      L1  H     6    43       P1  8028  0.97
      L1  H     9    32       P1  8028  0.94
      P1  H 10752 10765       L1    13  0.26

> <Gold.Chemscore.Hbond.Weighted>
-8.8151

> <Gold.Chemscore.Metal.Weighted>
-0.0000

> <Gold.Chemscore.Lipo.Weighted>
-16.1441

> <Gold.Chemscore.Internal_Hbond.Weighted>
0.0000

> <Gold.Chemscore.DEClash.Weighted>
1.6378

> <Gold.Chemscore.DEInternal.Weighted>
2.1452

> <Gold.Chemscore.Rot.Weighted>
4.8729

> <Gold.Chemscore.Internal.Correction.Weighted>
   9.000000E+99

> <Gold.Protein.RotatedTorsions>
[ 6907 6896 6895 6894 ] final   26.56 input  -60.11 | X-H torsion
[ 7974 7965 7964 7962 ] final   83.10 input  175.53 | X-H torsion
[ 8008 7997 7996 7995 ] final   23.05 input   59.86 | X-H torsion
[ 10167 10162 10161 10158 ] final -111.15 input  -65.29 | X-H torsion
[ 10718 10713 10712 10709 ] final   78.21 input   66.30 | X-H torsion
[ 10763 10752 10751 10750 ] final  165.26 input  -60.55 | X-H torsion
[ 11005 11000 10999 10996 ] final   88.55 input  -57.11 | X-H torsion

> <Gold.Protein.ActiveResidues>
 VAL166  LYS551  ARG553  GLY616  TRP617  ASP618  TYR619  PRO620  LYS621  CYS622 
 ASP623  PHE694  ASN695  SER759  ASP760  ASP761  ALA762  ILE779  LEU786  VAL792 
 PHE793  MET794  SER795  GLU796  ALA797  LYS798  CYS799  TRP800  GLU811  SER814 

> <Gold.Protein.RotatedAtoms>
  151.9893  134.9987  160.0560 H   0  0  0  0  0  0  0  0  0  0  0  0  # atno 6907 bound_to 6896
  152.1623  133.4585  159.4875 H   0  0  0  0  0  0  0  0  0  0  0  0  # atno 6908 bound_to 6896
  150.6889  134.1973  159.4351 H   0  0  0  0  0  0  0  0  0  0  0  0  # atno 6909 bound_to 6896
  145.6164  139.2377  143.2163 H   0  0  0  0  0  0  0  0  0  0  0  0  # atno 7974 bound_to 7965
  154.9750  140.3095  155.4971 H   0  0  0  0  0  0  0  0  0  0  0  0  # atno 8008 bound_to 7997
  156.2961  140.2277  156.4785 H   0  0  0  0  0  0  0  0  0  0  0  0  # atno 8009 bound_to 7997
  154.7841  140.0444  157.1139 H   0  0  0  0  0  0  0  0  0  0  0  0  # atno 8010 bound_to 7997
  140.1367  143.4314  152.1590 H   0  0  0  0  0  0  0  0  0  0  0  0  # atno 10167 bound_to 10162
  157.6737  130.9858  150.1753 H   0  0  0  0  0  0  0  0  0  0  0  0  # atno 10718 bound_to 10713
  154.3213  135.2756  155.2518 H   0  0  0  0  0  0  0  0  0  0  0  0  # atno 10763 bound_to 10752
  154.4870  135.5843  153.6435 H   0  0  0  0  0  0  0  0  0  0  0  0  # atno 10764 bound_to 10752
  152.9876  135.6125  154.3398 H   0  0  0  0  0  0  0  0  0  0  0  0  # atno 10765 bound_to 10752
  139.8894  134.8495  156.3016 H   0  0  0  0  0  0  0  0  0  0  0  0  # atno 11005 bound_to 11000
  146.1465  140.6986  142.9342 LP  0  0  0  0  0  0  0  0  0  0  0  0  # atno 17320 bound_to 7965
  144.7249  140.4492  143.6981 LP  0  0  0  0  0  0  0  0  0  0  0  0  # atno 17321 bound_to 7965
  139.5492  144.7324  151.4487 LP  0  0  0  0  0  0  0  0  0  0  0  0  # atno 17342 bound_to 10162
  140.6785  143.8136  150.7090 LP  0  0  0  0  0  0  0  0  0  0  0  0  # atno 17343 bound_to 10162
  156.2498  130.3699  149.8245 LP  0  0  0  0  0  0  0  0  0  0  0  0  # atno 17370 bound_to 10713
  156.6021  130.8551  151.3434 LP  0  0  0  0  0  0  0  0  0  0  0  0  # atno 17371 bound_to 10713
  140.9910  133.7209  156.0813 LP  0  0  0  0  0  0  0  0  0  0  0  0  # atno 17394 bound_to 11000
  140.7625  134.3923  157.5523 LP  0  0  0  0  0  0  0  0  0  0  0  0  # atno 17395 bound_to 11000

$$$$
