AV-unprocessed.smi:1670|AV-procd|sdf|6694|dock4
  -GOLD-   22720 7423D 1   1.00000     0.00000
 Structure written by MMmdl.
 41 42  0  0  0  0  0  0  0  0  1 V2000
  149.7816  132.8570  155.5124 C   0  0  0  0  0  0  0  0  0  0  0  0
  149.4468  134.3344  155.2670 C   0  0  1  0  0  0  0  0  0  0  0  0
  150.7249  135.1990  155.2121 C   0  0  0  0  0  0  0  0  0  0  0  0
  150.4394  136.6231  155.2387 N   0  0  0  0  0  0  0  0  0  0  0  0
  150.9019  137.6040  154.3871 C   0  0  0  0  0  0  0  0  0  0  0  0
  150.3823  138.7919  154.8151 C   0  0  0  0  0  0  0  0  0  0  0  0
  149.6028  138.4305  155.9495 C   0  0  0  0  0  0  0  0  0  0  0  0
  149.6341  137.1312  156.1974 N   0  0  0  0  0  0  0  0  0  0  0  0
  148.6852  134.4497  154.0237 N   0  0  0  0  0  0  0  0  0  0  0  0
  147.5924  133.7382  153.7106 C   0  0  0  0  0  0  0  0  0  0  0  0
  147.1161  132.8575  154.4269 O   0  0  0  0  0  0  0  0  0  0  0  0
  147.0736  134.1239  152.5344 N   0  0  0  0  0  0  0  0  0  0  0  0
  145.8529  133.6270  151.8976 C   0  0  2  0  0  0  0  0  0  0  0  0
  145.9877  132.1643  151.4206 C   0  0  0  0  0  0  0  0  0  0  0  0
  144.6622  131.6550  150.8315 C   0  0  0  0  0  0  0  0  0  0  0  0
  144.1713  132.5725  149.6969 C   0  0  1  0  0  0  0  0  0  0  0  0
  142.9223  132.1116  149.2269 O   0  0  0  0  0  0  0  0  0  0  0  0
  144.0335  134.0295  150.1754 C   0  0  0  0  0  0  0  0  0  0  0  0
  145.3570  134.5470  150.7612 C   0  0  0  0  0  0  0  0  0  0  0  0
  150.3244  132.7294  156.4494 H   0  0  0  0  0  0  0  0  0  0  0  0
  150.4000  132.4501  154.7115 H   0  0  0  0  0  0  0  0  0  0  0  0
  148.8755  132.2534  155.5741 H   0  0  0  0  0  0  0  0  0  0  0  0
  148.8351  134.6684  156.1071 H   0  0  0  0  0  0  0  0  0  0  0  0
  151.3632  134.9749  156.0674 H   0  0  0  0  0  0  0  0  0  0  0  0
  151.3098  134.9654  154.3206 H   0  0  0  0  0  0  0  0  0  0  0  0
  151.5602  137.3776  153.5613 H   0  0  0  0  0  0  0  0  0  0  0  0
  150.5384  139.7701  154.3854 H   0  0  0  0  0  0  0  0  0  0  0  0
  149.0179  139.0691  156.5951 H   0  0  0  0  0  0  0  0  0  0  0  0
  148.9940  135.1530  153.3688 H   0  0  0  0  0  0  0  0  0  0  0  0
  147.5584  134.8579  152.0392 H   0  0  0  0  0  0  0  0  0  0  0  0
  145.0971  133.6445  152.6839 H   0  0  0  0  0  0  0  0  0  0  0  0
  146.7679  132.0776  150.6638 H   0  0  0  0  0  0  0  0  0  0  0  0
  146.2910  131.5251  152.2507 H   0  0  0  0  0  0  0  0  0  0  0  0
  144.7899  130.6368  150.4622 H   0  0  0  0  0  0  0  0  0  0  0  0
  143.9108  131.6064  151.6212 H   0  0  0  0  0  0  0  0  0  0  0  0
  144.8782  132.5305  148.8670 H   0  0  0  0  0  0  0  0  0  0  0  0
  142.2886  132.8049  149.3301 H   0  0  0  0  0  0  0  0  0  0  0  0
  143.7218  134.6685  149.3484 H   0  0  0  0  0  0  0  0  0  0  0  0
  143.2513  134.0990  150.9330 H   0  0  0  0  0  0  0  0  0  0  0  0
  145.2219  135.5634  151.1330 H   0  0  0  0  0  0  0  0  0  0  0  0
  146.0978  134.6052  149.9634 H   0  0  0  0  0  0  0  0  0  0  0  0
  1  2  1  0  0  0  0
  1 20  1  0  0  0  0
  1 21  1  0  0  0  0
  1 22  1  0  0  0  0
  2  3  1  0  0  0  0
  2  9  1  0  0  0  0
  2 23  1  0  0  0  0
  3  4  1  0  0  0  0
  3 24  1  0  0  0  0
  3 25  1  0  0  0  0
  4  8  1  0  0  0  0
  4  5  1  0  0  0  0
  5  6  2  0  0  0  0
  5 26  1  0  0  0  0
  6  7  1  0  0  0  0
  6 27  1  0  0  0  0
  7  8  2  0  0  0  0
  7 28  1  0  0  0  0
  9 10  1  0  0  0  0
  9 29  1  0  0  0  0
 10 11  2  0  0  0  0
 10 12  1  0  0  0  0
 12 13  1  0  0  0  0
 12 30  1  0  0  0  0
 13 19  1  0  0  0  0
 13 14  1  0  0  0  0
 13 31  1  0  0  0  0
 14 15  1  0  0  0  0
 14 32  1  0  0  0  0
 14 33  1  0  0  0  0
 15 16  1  0  0  0  0
 15 34  1  0  0  0  0
 15 35  1  0  0  0  0
 16 17  1  0  0  0  0
 16 18  1  0  0  0  0
 16 36  1  0  0  0  0
 17 37  1  0  0  0  0
 18 19  1  0  0  0  0
 18 38  1  0  0  0  0
 18 39  1  0  0  0  0
 19 40  1  0  0  0  0
 19 41  1  0  0  0  0
M  END
> <s_m_source_file>
AV-unprocessed.smi

> <i_m_source_file_index>
1670

> <i_lp_mmshare_version>
43012

> <i_f3d_flags>
0

> <s_epik_input>
bjFbY0hdW2NIXVtjSF1uMVtDSDJdW0NAQEhdKFtDSDNdKVtOSF1DKD1PKVtOSF1bQ0BASF0yW0NIMl1bQ0gyXVtDQEBIXShbT0hdKVtDSDJdW0NIMl0y

> <s_epik_cmdline>
J2VwaWtfcHl0aG9uJywgJy1waCcsICc3LjAnLCAnLXRuJywgJzgnLCAnLW1hJywgJzIwMCcsICctbWV0YWxfYmluZGluZycsICctaW1hZScsICc8aW5maWxlLm1hZT4nLCAnLW9tYWUnLCAnPG91dGZpbGUubWFlPic=

> <r_lp_tautomer_probability>
1

> <r_epik_Ionization_Penalty>
7.33369e-05

> <r_epik_Ionization_Penalty_Charging>
0

> <r_epik_Ionization_Penalty_Neutral>
7.33369e-05

> <r_epik_State_Penalty>
-0

> <r_epik_Charging_Adjusted_Penalty>
0

> <i_epik_Tot_Q>
0

> <i_epik_Tot_abs_Q>
0

> <r_epik_Metal_State_Penalty>
-0

> <b_epik_Metal_Only>
0

> <s_lp_Force_Field>
OPLS_2005

> <r_lp_Energy>
5.2693

> <b_lp_Chiralities_Consistent>
1

> <s_lp_Variant>
AV-unprocessed.smi:1670-2

> <Gold.Version>
5.8.1

> <Gold.Id.Protein>
6NUR|6NUR_protein|mol2

> <Gold.PLP.Fitness>
48.6863

> <Gold.PLP.PLP>
-34.6166

> <Gold.PLP.part.hbond>
-5.0000

> <Gold.PLP.part.metal>
0.0000

> <Gold.PLP.part.buried>
-4.9537

> <Gold.PLP.part.nonpolar>
-26.0371

> <Gold.PLP.part.repulsive>
0.0735

> <Gold.PLP.ligand.clash>
0.0000

> <Gold.PLP.ligand.torsion>
0.3250

> <Gold.PLP.Chemscore.Hbond>
3.8850

> <Gold.PLP.Chemscore.CHOScore>
1.0000

> <Gold.PLP.Chemscore.Metal>
0.0000

> <Gold.Chemscore.Hbonds>
donor molecule, donor type, donor heavy atom, donor atom, acceptor molecule, acceptor atom, score
      L1  H     9    29       P1  7948  1.00
      L1  H    12    30       P1  7948  1.00
      L1  H    17    37       P1 10186  0.91
      P1  H 10785 10796       L1    17  0.96
      L1  C     5    26       P1  7949  1.00

> <Gold.PLP.Chemscore.Internal.Correction>
0.0646

> <Gold.Rescore>
     Score         DG    S(hbond)    S(metal)    S(lipo)     H(rot)  DE(clash)    DE(int)     intcor
     17.76     -19.63       3.22        0.00      77.74       2.22       0.21       1.66       ----

> <Gold.Chemscore.Fitness>
17.7617

> <Gold.Chemscore.DG>
-19.6251

> <Gold.Chemscore.ZeroCoef>
-5.4800

> <Gold.Chemscore.Hbond>
3.2152

> <Gold.Chemscore.Metal>
0.0000

> <Gold.Chemscore.Lipo>
77.7413

> <Gold.Chemscore.Internal_Hbond>
0.0000

> <Gold.Chemscore.DEClash>
0.2062

> <Gold.Chemscore.DEInternal>
1.6572

> <Gold.Chemscore.Rot>
2.2224

> <Gold.Chemscore.Internal.Correction>
   9.000000E+99

> <Gold.Chemscore.Hbonds>
donor molecule, donor type, donor heavy atom, donor atom, acceptor molecule, acceptor atom, score
      L1  H     9    29       P1  7948  0.39
      L1  H    12    30       P1  7948  0.80
      L1  H    17    37       P1 10186  0.89
      P1  H 10785 10796       L1    17  0.50

> <Gold.Chemscore.Hbond.Weighted>
-10.7387

> <Gold.Chemscore.Metal.Weighted>
-0.0000

> <Gold.Chemscore.Lipo.Weighted>
-9.0957

> <Gold.Chemscore.Internal_Hbond.Weighted>
0.0000

> <Gold.Chemscore.DEClash.Weighted>
0.2062

> <Gold.Chemscore.DEInternal.Weighted>
1.6572

> <Gold.Chemscore.Rot.Weighted>
5.6893

> <Gold.Chemscore.Internal.Correction.Weighted>
   9.000000E+99

> <Gold.Protein.RotatedTorsions>
[ 6907 6896 6895 6894 ] final -161.07 input  -60.11 | X-H torsion
[ 7974 7965 7964 7962 ] final -148.85 input  175.53 | X-H torsion
[ 8008 7997 7996 7995 ] final   57.19 input   59.86 | X-H torsion
[ 10167 10162 10161 10158 ] final -101.26 input  -65.29 | X-H torsion
[ 10718 10713 10712 10709 ] final   70.24 input   66.30 | X-H torsion
[ 10763 10752 10751 10750 ] final  123.82 input  -60.55 | X-H torsion
[ 11005 11000 10999 10996 ] final  110.14 input  -57.11 | X-H torsion

> <Gold.Protein.ActiveResidues>
 VAL166  LYS551  ARG553  GLY616  TRP617  ASP618  TYR619  PRO620  LYS621  CYS622 
 ASP623  PHE694  ASN695  SER759  ASP760  ASP761  ALA762  ILE779  LEU786  VAL792 
 PHE793  MET794  SER795  GLU796  ALA797  LYS798  CYS799  TRP800  GLU811  SER814 

> <Gold.Protein.RotatedAtoms>
  151.3590  133.3897  159.2687 H   0  0  0  0  0  0  0  0  0  0  0  0  # atno 6907 bound_to 6896
  150.9741  134.9109  159.7816 H   0  0  0  0  0  0  0  0  0  0  0  0  # atno 6908 bound_to 6896
  152.5194  134.3552  159.9317 H   0  0  0  0  0  0  0  0  0  0  0  0  # atno 6909 bound_to 6896
  144.8004  140.5142  143.5711 H   0  0  0  0  0  0  0  0  0  0  0  0  # atno 7974 bound_to 7965
  155.5298  140.3482  155.4424 H   0  0  0  0  0  0  0  0  0  0  0  0  # atno 8008 bound_to 7997
  156.0726  140.1367  156.9837 H   0  0  0  0  0  0  0  0  0  0  0  0  # atno 8009 bound_to 7997
  154.4536  140.0962  156.6667 H   0  0  0  0  0  0  0  0  0  0  0  0  # atno 8010 bound_to 7997
  140.2431  143.3524  152.0783 H   0  0  0  0  0  0  0  0  0  0  0  0  # atno 10167 bound_to 10162
  157.6389  130.9467  150.0624 H   0  0  0  0  0  0  0  0  0  0  0  0  # atno 10718 bound_to 10713
  153.6516  135.3362  155.3101 H   0  0  0  0  0  0  0  0  0  0  0  0  # atno 10763 bound_to 10752
  154.8536  135.4342  154.1898 H   0  0  0  0  0  0  0  0  0  0  0  0  # atno 10764 bound_to 10752
  153.2842  135.7011  153.7430 H   0  0  0  0  0  0  0  0  0  0  0  0  # atno 10765 bound_to 10752
  139.8876  134.9476  156.6233 H   0  0  0  0  0  0  0  0  0  0  0  0  # atno 11005 bound_to 11000
  145.5568  139.1478  143.3363 LP  0  0  0  0  0  0  0  0  0  0  0  0  # atno 17320 bound_to 7965
  146.2283  140.5705  142.8986 LP  0  0  0  0  0  0  0  0  0  0  0  0  # atno 17321 bound_to 7965
  139.5070  144.6825  151.5972 LP  0  0  0  0  0  0  0  0  0  0  0  0  # atno 17342 bound_to 10162
  140.6098  143.9457  150.6445 LP  0  0  0  0  0  0  0  0  0  0  0  0  # atno 17343 bound_to 10162
  156.1653  130.3645  149.9241 LP  0  0  0  0  0  0  0  0  0  0  0  0  # atno 17370 bound_to 10713
  156.7230  130.9014  151.3619 LP  0  0  0  0  0  0  0  0  0  0  0  0  # atno 17371 bound_to 10713
  140.7722  133.8729  155.8501 LP  0  0  0  0  0  0  0  0  0  0  0  0  # atno 17394 bound_to 11000
  140.9832  134.1378  157.4476 LP  0  0  0  0  0  0  0  0  0  0  0  0  # atno 17395 bound_to 11000

$$$$
