AV-unprocessed.smi:1555|AV-procd|sdf|6265|dock7
  -GOLD-   22720 6453D 1   1.00000     0.00000
 Structure written by MMmdl.
 42 43  0  0  0  0  0  0  0  0  2 V2000
  149.4854  134.5505  156.2886 C   0  0  0  0  0  0  0  0  0  0  0  0
  149.0367  134.9887  154.8871 C   0  0  1  0  0  0  0  0  0  0  0  0
  147.5173  134.8210  154.6983 C   0  0  0  0  0  0  0  0  0  0  0  0
  147.1850  133.9621  153.5570 N   0  0  0  0  0  0  0  0  0  0  0  0
  146.0983  134.0642  152.7264 C   0  0  0  0  0  0  0  0  0  0  0  0
  146.2122  133.0522  151.8083 C   0  0  0  0  0  0  0  0  0  0  0  0
  147.3617  132.3757  152.1175 N   0  3  0  0  0  0  0  0  0  0  0  0
  147.9510  132.9295  153.1822 C   0  0  0  0  0  0  0  0  0  0  0  0
  149.4158  136.3823  154.6648 N   0  0  0  0  0  0  0  0  0  0  0  0
  150.6351  136.9108  154.8650 C   0  0  0  0  0  0  0  0  0  0  0  0
  151.5795  136.2392  155.2822 O   0  0  0  0  0  0  0  0  0  0  0  0
  150.7345  138.2313  154.5678 N   0  0  0  0  0  0  0  0  0  0  0  0
  149.6189  139.1523  154.2921 C   0  0  0  0  0  0  0  0  0  0  0  0
  149.4499  140.0959  155.4958 C   0  0  0  0  0  0  0  0  0  0  0  0
  150.7547  140.8682  155.7930 C   0  0  0  0  0  0  0  0  0  0  0  0
  150.6108  141.7312  157.0596 C   0  0  0  0  0  0  0  0  0  0  0  0
  149.4056  142.4665  157.0313 O   0  0  0  0  0  0  0  0  0  0  0  0
  151.9552  139.8962  155.8785 C   0  0  0  0  0  0  0  0  0  0  0  0
  152.0069  138.9574  154.6591 C   0  0  0  0  0  0  0  0  0  0  0  0
  149.2285  133.5074  156.4745 H   0  0  0  0  0  0  0  0  0  0  0  0
  149.0123  135.1533  157.0647 H   0  0  0  0  0  0  0  0  0  0  0  0
  150.5656  134.6471  156.4036 H   0  0  0  0  0  0  0  0  0  0  0  0
  149.5379  134.3473  154.1600 H   0  0  0  0  0  0  0  0  0  0  0  0
  147.0675  134.3764  155.5873 H   0  0  0  0  0  0  0  0  0  0  0  0
  147.0339  135.7878  154.5483 H   0  0  0  0  0  0  0  0  0  0  0  0
  145.3458  134.8302  152.8451 H   0  0  0  0  0  0  0  0  0  0  0  0
  145.5782  132.7707  150.9800 H   0  0  0  0  0  0  0  0  0  0  0  0
  148.8673  132.6085  153.6451 H   0  0  0  0  0  0  0  0  0  0  0  0
  148.6908  137.0012  154.3319 H   0  0  0  0  0  0  0  0  0  0  0  0
  149.8467  139.7311  153.3959 H   0  0  0  0  0  0  0  0  0  0  0  0
  148.6736  138.6545  154.0759 H   0  0  0  0  0  0  0  0  0  0  0  0
  148.6378  140.7973  155.3019 H   0  0  0  0  0  0  0  0  0  0  0  0
  149.1550  139.5158  156.3716 H   0  0  0  0  0  0  0  0  0  0  0  0
  150.9294  141.5377  154.9488 H   0  0  0  0  0  0  0  0  0  0  0  0
  150.6027  141.1013  157.9496 H   0  0  0  0  0  0  0  0  0  0  0  0
  151.4513  142.4187  157.1599 H   0  0  0  0  0  0  0  0  0  0  0  0
  149.5661  143.2899  156.5959 H   0  0  0  0  0  0  0  0  0  0  0  0
  152.8889  140.4549  155.9481 H   0  0  0  0  0  0  0  0  0  0  0  0
  151.8849  139.3003  156.7896 H   0  0  0  0  0  0  0  0  0  0  0  0
  152.8686  138.2935  154.7400 H   0  0  0  0  0  0  0  0  0  0  0  0
  152.1636  139.5345  153.7467 H   0  0  0  0  0  0  0  0  0  0  0  0
  147.7173  131.5726  151.6140 H   0  0  0  0  0  0  0  0  0  0  0  0
  1  2  1  0  0  0  0
  1 20  1  0  0  0  0
  1 21  1  0  0  0  0
  1 22  1  0  0  0  0
  2  3  1  0  0  0  0
  2  9  1  0  0  0  0
  2 23  1  0  0  0  0
  3  4  1  0  0  0  0
  3 24  1  0  0  0  0
  3 25  1  0  0  0  0
  4  8  1  0  0  0  0
  4  5  1  0  0  0  0
  5  6  2  0  0  0  0
  5 26  1  0  0  0  0
  6  7  1  0  0  0  0
  6 27  1  0  0  0  0
  7  8  2  0  0  0  0
  7 42  1  0  0  0  0
  8 28  1  0  0  0  0
  9 10  1  0  0  0  0
  9 29  1  0  0  0  0
 10 11  2  0  0  0  0
 10 12  1  0  0  0  0
 12 19  1  0  0  0  0
 12 13  1  0  0  0  0
 13 14  1  0  0  0  0
 13 30  1  0  0  0  0
 13 31  1  0  0  0  0
 14 15  1  0  0  0  0
 14 32  1  0  0  0  0
 14 33  1  0  0  0  0
 15 16  1  0  0  0  0
 15 18  1  0  0  0  0
 15 34  1  0  0  0  0
 16 17  1  0  0  0  0
 16 35  1  0  0  0  0
 16 36  1  0  0  0  0
 17 37  1  0  0  0  0
 18 19  1  0  0  0  0
 18 38  1  0  0  0  0
 18 39  1  0  0  0  0
 19 40  1  0  0  0  0
 19 41  1  0  0  0  0
M  CHG  1   7   1
M  END
> <s_m_source_file>
AV-unprocessed.smi

> <i_m_source_file_index>
1555

> <i_lp_mmshare_version>
43012

> <i_f3d_flags>
0

> <s_epik_input>
W2NIXTFuW2NIXVtjSF1uMVtDSDJdW0NAQEhdKFtDSDNdKVtOSF1DKD1PKU4yW0NIMl1bQ0gyXVtDSF0oW0NIMl1bT0hdKVtDSDJdW0NIMl0y

> <s_epik_cmdline>
J2VwaWtfcHl0aG9uJywgJy1waCcsICc3LjAnLCAnLXRuJywgJzgnLCAnLW1hJywgJzIwMCcsICctbWV0YWxfYmluZGluZycsICctaW1hZScsICc8aW5maWxlLm1hZT4nLCAnLW9tYWUnLCAnPG91dGZpbGUubWFlPic=

> <r_lp_tautomer_probability>
1

> <r_epik_Ionization_Penalty>
0.253261

> <r_epik_Ionization_Penalty_Charging>
0

> <r_epik_Ionization_Penalty_Neutral>
0.253261

> <r_epik_State_Penalty>
0.244619

> <r_epik_Charging_Adjusted_Penalty>
0.244619

> <i_epik_Tot_Q>
1

> <i_epik_Tot_abs_Q>
1

> <r_epik_Metal_State_Penalty>
0.535039

> <b_epik_Metal_Only>
0

> <s_lp_Force_Field>
OPLS_2005

> <r_lp_Energy>
35.1674

> <b_lp_Chiralities_Consistent>
1

> <s_lp_Variant>
AV-unprocessed.smi:1555-2

> <Gold.Version>
5.8.1

> <Gold.Id.Protein>
6NUR|6NUR_protein|mol2

> <Gold.PLP.Fitness>
42.3307

> <Gold.PLP.PLP>
-35.8189

> <Gold.PLP.part.hbond>
-3.8872

> <Gold.PLP.part.metal>
0.0000

> <Gold.PLP.part.buried>
-3.0679

> <Gold.PLP.part.nonpolar>
-29.5721

> <Gold.PLP.part.repulsive>
0.1349

> <Gold.PLP.ligand.clash>
0.0000

> <Gold.PLP.ligand.torsion>
1.2596

> <Gold.PLP.Chemscore.Hbond>
3.0000

> <Gold.PLP.Chemscore.CHOScore>
0.0000

> <Gold.PLP.Chemscore.Metal>
0.0000

> <Gold.Chemscore.Hbonds>
donor molecule, donor type, donor heavy atom, donor atom, acceptor molecule, acceptor atom, score
      L1  H     7    42       P1 10747  0.96
      L1  H    17    37       P1  8028  0.96
      P1  H 10752 10764       L1    11  1.00

> <Gold.PLP.Chemscore.Internal.Correction>
0.0309

> <Gold.Rescore>
     Score         DG    S(hbond)    S(metal)    S(lipo)     H(rot)  DE(clash)    DE(int)     intcor
     13.16     -15.94       2.97        0.00      60.65       2.56       0.09       2.69       ----

> <Gold.Chemscore.Fitness>
13.1635

> <Gold.Chemscore.DG>
-15.9397

> <Gold.Chemscore.ZeroCoef>
-5.4800

> <Gold.Chemscore.Hbond>
2.9716

> <Gold.Chemscore.Metal>
0.0000

> <Gold.Chemscore.Lipo>
60.6479

> <Gold.Chemscore.Internal_Hbond>
0.0000

> <Gold.Chemscore.DEClash>
0.0912

> <Gold.Chemscore.DEInternal>
2.6851

> <Gold.Chemscore.Rot>
2.5630

> <Gold.Chemscore.Internal.Correction>
   9.000000E+99

> <Gold.Chemscore.Hbonds>
donor molecule, donor type, donor heavy atom, donor atom, acceptor molecule, acceptor atom, score
      L1  H     7    42       P1 10747  0.91
      L1  H    17    37       P1  8028  0.92
      P1  H 10752 10764       L1    11  0.98

> <Gold.Chemscore.Hbond.Weighted>
-9.9251

> <Gold.Chemscore.Metal.Weighted>
-0.0000

> <Gold.Chemscore.Lipo.Weighted>
-7.0958

> <Gold.Chemscore.Internal_Hbond.Weighted>
0.0000

> <Gold.Chemscore.DEClash.Weighted>
0.0912

> <Gold.Chemscore.DEInternal.Weighted>
2.6851

> <Gold.Chemscore.Rot.Weighted>
6.5612

> <Gold.Chemscore.Internal.Correction.Weighted>
   9.000000E+99

> <Gold.Protein.RotatedTorsions>
[ 6907 6896 6895 6894 ] final -132.96 input  -60.11 | X-H torsion
[ 7974 7965 7964 7962 ] final  -50.13 input  175.53 | X-H torsion
[ 8008 7997 7996 7995 ] final   49.92 input   59.86 | X-H torsion
[ 10167 10162 10161 10158 ] final    5.93 input  -65.29 | X-H torsion
[ 10718 10713 10712 10709 ] final  -31.10 input   66.30 | X-H torsion
[ 10763 10752 10751 10750 ] final  -36.39 input  -60.55 | X-H torsion
[ 11005 11000 10999 10996 ] final  115.19 input  -57.11 | X-H torsion

> <Gold.Protein.ActiveResidues>
 VAL166  LYS551  ARG553  GLY616  TRP617  ASP618  TYR619  PRO620  LYS621  CYS622 
 ASP623  PHE694  ASN695  SER759  ASP760  ASP761  ALA762  ILE779  LEU786  VAL792 
 PHE793  MET794  SER795  GLU796  ALA797  LYS798  CYS799  TRP800  GLU811  SER814 

> <Gold.Protein.RotatedAtoms>
  150.9684  133.6370  159.2741 H   0  0  0  0  0  0  0  0  0  0  0  0  # atno 6907 bound_to 6896
  151.3667  135.0913  159.9462 H   0  0  0  0  0  0  0  0  0  0  0  0  # atno 6908 bound_to 6896
  152.5174  133.9247  159.7606 H   0  0  0  0  0  0  0  0  0  0  0  0  # atno 6909 bound_to 6896
  145.9331  140.7731  142.9589 H   0  0  0  0  0  0  0  0  0  0  0  0  # atno 7974 bound_to 7965
  155.4102  140.3442  155.4263 H   0  0  0  0  0  0  0  0  0  0  0  0  # atno 8008 bound_to 7997
  156.1453  140.1554  156.8888 H   0  0  0  0  0  0  0  0  0  0  0  0  # atno 8009 bound_to 7997
  154.5005  140.0816  156.7769 H   0  0  0  0  0  0  0  0  0  0  0  0  # atno 8010 bound_to 7997
  140.6455  143.7672  150.7493 H   0  0  0  0  0  0  0  0  0  0  0  0  # atno 10167 bound_to 10162
  156.3914  130.4373  149.7391 H   0  0  0  0  0  0  0  0  0  0  0  0  # atno 10718 bound_to 10713
  153.8790  135.6823  153.4768 H   0  0  0  0  0  0  0  0  0  0  0  0  # atno 10763 bound_to 10752
  153.1244  135.4725  154.9246 H   0  0  0  0  0  0  0  0  0  0  0  0  # atno 10764 bound_to 10752
  154.7678  135.3229  154.8203 H   0  0  0  0  0  0  0  0  0  0  0  0  # atno 10765 bound_to 10752
  139.9003  134.9580  156.7008 H   0  0  0  0  0  0  0  0  0  0  0  0  # atno 11005 bound_to 11000
  144.6768  140.2160  143.7372 LP  0  0  0  0  0  0  0  0  0  0  0  0  # atno 17320 bound_to 7965
  145.8399  139.2125  143.1833 LP  0  0  0  0  0  0  0  0  0  0  0  0  # atno 17321 bound_to 7965
  140.1312  143.4524  152.2253 LP  0  0  0  0  0  0  0  0  0  0  0  0  # atno 17342 bound_to 10162
  139.5666  144.7438  151.4006 LP  0  0  0  0  0  0  0  0  0  0  0  0  # atno 17343 bound_to 10162
  156.4443  130.7876  151.2897 LP  0  0  0  0  0  0  0  0  0  0  0  0  # atno 17370 bound_to 10713
  157.7499  131.0115  150.3348 LP  0  0  0  0  0  0  0  0  0  0  0  0  # atno 17371 bound_to 10713
  140.7152  133.9189  155.8110 LP  0  0  0  0  0  0  0  0  0  0  0  0  # atno 17394 bound_to 11000
  141.0270  134.0810  157.4057 LP  0  0  0  0  0  0  0  0  0  0  0  0  # atno 17395 bound_to 11000

$$$$
