AV-unprocessed.smi:809|AV-procd|sdf|3805|dock1
  -GOLD-   22720 1243D 1   1.00000     0.00000
 Structure written by MMmdl.
 40 41  0  0  0  0  0  0  0  0  2 V2000
  151.7523  140.3322  156.6295 C   0  0  0  0  0  0  0  0  0  0  0  0
  150.5549  140.3699  155.7328 C   0  0  0  0  0  0  0  0  0  0  0  0
  149.8383  141.4799  155.3571 C   0  0  0  0  0  0  0  0  0  0  0  0
  148.5163  141.0762  154.2947 S   0  0  0  0  0  0  0  0  0  0  0  0
  148.9947  139.3896  154.4049 C   0  0  0  0  0  0  0  0  0  0  0  0
  148.2973  138.3654  153.7127 N   0  0  0  0  0  0  0  0  0  0  0  0
  147.0180  137.9821  153.8659 C   0  0  0  0  0  0  0  0  0  0  0  0
  146.2072  138.4980  154.6353 O   0  0  0  0  0  0  0  0  0  0  0  0
  146.7243  136.9477  153.0652 N   0  0  0  0  0  0  0  0  0  0  0  0
  145.4319  136.2693  153.0055 C   0  0  0  0  0  0  0  0  0  0  0  0
  145.3625  135.1562  151.9269 C   0  0  1  0  0  0  0  0  0  0  0  0
  146.6392  134.5448  151.8746 O   0  0  0  0  0  0  0  0  0  0  0  0
  144.3538  134.0694  152.3616 C   0  0  0  0  0  0  0  0  0  0  0  0
  144.1506  132.9796  151.2933 C   0  0  0  0  0  0  0  0  0  0  0  0
  143.7480  133.5752  149.9968 N   0  3  2  0  0  0  0  0  0  0  0  0
  143.4148  132.5490  148.9855 C   0  0  0  0  0  0  0  0  0  0  0  0
  144.7513  134.5495  149.5041 C   0  0  0  0  0  0  0  0  0  0  0  0
  144.9774  135.6818  150.5230 C   0  0  0  0  0  0  0  0  0  0  0  0
  150.0642  139.1826  155.1818 N   0  0  0  0  0  0  0  0  0  0  0  0
  151.9155  141.2933  157.1177 H   0  0  0  0  0  0  0  0  0  0  0  0
  152.6547  140.0893  156.0682 H   0  0  0  0  0  0  0  0  0  0  0  0
  151.6366  139.5818  157.4118 H   0  0  0  0  0  0  0  0  0  0  0  0
  150.0085  142.5083  155.6389 H   0  0  0  0  0  0  0  0  0  0  0  0
  148.8402  137.8581  153.0297 H   0  0  0  0  0  0  0  0  0  0  0  0
  147.4508  136.5952  152.4596 H   0  0  0  0  0  0  0  0  0  0  0  0
  145.1425  135.8882  153.9868 H   0  0  0  0  0  0  0  0  0  0  0  0
  144.7046  137.0458  152.7665 H   0  0  0  0  0  0  0  0  0  0  0  0
  147.3044  135.2141  151.9163 H   0  0  0  0  0  0  0  0  0  0  0  0
  144.6700  133.6119  153.3003 H   0  0  0  0  0  0  0  0  0  0  0  0
  143.3880  134.5342  152.5650 H   0  0  0  0  0  0  0  0  0  0  0  0
  145.0637  132.3964  151.1628 H   0  0  0  0  0  0  0  0  0  0  0  0
  143.3800  132.2848  151.6294 H   0  0  0  0  0  0  0  0  0  0  0  0
  144.2867  131.9402  148.7425 H   0  0  0  0  0  0  0  0  0  0  0  0
  143.0554  133.0147  148.0674 H   0  0  0  0  0  0  0  0  0  0  0  0
  142.6280  131.8888  149.3519 H   0  0  0  0  0  0  0  0  0  0  0  0
  145.6903  134.0343  149.2946 H   0  0  0  0  0  0  0  0  0  0  0  0
  144.4111  134.9769  148.5603 H   0  0  0  0  0  0  0  0  0  0  0  0
  144.0644  136.2740  150.6003 H   0  0  0  0  0  0  0  0  0  0  0  0
  145.7452  136.3548  150.1392 H   0  0  0  0  0  0  0  0  0  0  0  0
  142.8987  134.0949  150.1677 H   0  0  0  0  0  0  0  0  0  0  0  0
  1  2  1  0  0  0  0
  1 20  1  0  0  0  0
  1 21  1  0  0  0  0
  1 22  1  0  0  0  0
  2 19  1  0  0  0  0
  2  3  2  0  0  0  0
  3  4  1  0  0  0  0
  3 23  1  0  0  0  0
  4  5  1  0  0  0  0
  5  6  1  0  0  0  0
  5 19  2  0  0  0  0
  6  7  1  0  0  0  0
  6 24  1  0  0  0  0
  7  8  2  0  0  0  0
  7  9  1  0  0  0  0
  9 10  1  0  0  0  0
  9 25  1  0  0  0  0
 10 11  1  0  0  0  0
 10 26  1  0  0  0  0
 10 27  1  0  0  0  0
 11 18  1  0  0  0  0
 11 12  1  0  0  0  0
 11 13  1  0  0  0  0
 12 28  1  0  0  0  0
 13 14  1  0  0  0  0
 13 29  1  0  0  0  0
 13 30  1  0  0  0  0
 14 15  1  0  0  0  0
 14 31  1  0  0  0  0
 14 32  1  0  0  0  0
 15 16  1  0  0  0  0
 15 17  1  0  0  0  0
 15 40  1  0  0  0  0
 16 33  1  0  0  0  0
 16 34  1  0  0  0  0
 16 35  1  0  0  0  0
 17 18  1  0  0  0  0
 17 36  1  0  0  0  0
 17 37  1  0  0  0  0
 18 38  1  0  0  0  0
 18 39  1  0  0  0  0
M  CHG  1  15   1
M  END
> <s_m_source_file>
AV-unprocessed.smi

> <i_m_source_file_index>
809

> <i_lp_mmshare_version>
43012

> <i_f3d_flags>
0

> <s_epik_input>
W0NIM11jMVtjSF1zYyhuMSlbTkhdQyg9TylbTkhdW0NIMl1DMihbT0hdKVtDSDJdW0NIMl1OKFtDSDNdKVtDSDJdW0NIMl0y

> <s_epik_cmdline>
J2VwaWtfcHl0aG9uJywgJy1waCcsICc3LjAnLCAnLXRuJywgJzgnLCAnLW1hJywgJzIwMCcsICctbWV0YWxfYmluZGluZycsICctaW1hZScsICc8aW5maWxlLm1hZT4nLCAnLW9tYWUnLCAnPG91dGZpbGUubWFlPic=

> <r_lp_tautomer_probability>
0.999

> <r_epik_Ionization_Penalty>
0.00116503

> <r_epik_Ionization_Penalty_Charging>
0.000767707

> <r_epik_Ionization_Penalty_Neutral>
0.00039732

> <r_epik_State_Penalty>
0.000177984

> <r_epik_Charging_Adjusted_Penalty>
0.00094569

> <i_epik_Tot_Q>
1

> <i_epik_Tot_abs_Q>
1

> <r_epik_Metal_State_Penalty>
0.00775393

> <b_epik_Metal_Only>
0

> <s_lp_Force_Field>
OPLS_2005

> <r_lp_Energy>
16.8218

> <b_lp_Chiralities_Consistent>
1

> <s_lp_Variant>
AV-unprocessed.smi:809-1

> <Gold.Version>
5.8.1

> <Gold.Id.Protein>
6NUR|6NUR_protein|mol2

> <Gold.PLP.Fitness>
43.9347

> <Gold.PLP.PLP>
-28.6273

> <Gold.PLP.part.hbond>
-4.3694

> <Gold.PLP.part.metal>
0.0000

> <Gold.PLP.part.buried>
3.1821

> <Gold.PLP.part.nonpolar>
-27.7128

> <Gold.PLP.part.repulsive>
0.2444

> <Gold.PLP.ligand.clash>
0.0000

> <Gold.PLP.ligand.torsion>
1.0503

> <Gold.PLP.Chemscore.Hbond>
4.8000

> <Gold.PLP.Chemscore.CHOScore>
1.0000

> <Gold.PLP.Chemscore.Metal>
0.0000

> <Gold.Chemscore.Hbonds>
donor molecule, donor type, donor heavy atom, donor atom, acceptor molecule, acceptor atom, score
      L1  H     6    24       P1  7948  0.96
      L1  H     9    25       P1  7948  1.00
      L1  H    12    28       P1  7948  1.00
      L1  H    15    40       P1 10186  1.82
      L1  C     3    23       P1  8028  1.00

> <Gold.PLP.Chemscore.Internal.Correction>
0.0081

> <Gold.Rescore>
     Score         DG    S(hbond)    S(metal)    S(lipo)     H(rot)  DE(clash)    DE(int)     intcor
     19.60     -22.69       3.81        0.00      78.70       1.85       1.94       1.15       ----

> <Gold.Chemscore.Fitness>
19.6001

> <Gold.Chemscore.DG>
-22.6857

> <Gold.Chemscore.ZeroCoef>
-5.4800

> <Gold.Chemscore.Hbond>
3.8104

> <Gold.Chemscore.Metal>
0.0000

> <Gold.Chemscore.Lipo>
78.6967

> <Gold.Chemscore.Internal_Hbond>
0.0000

> <Gold.Chemscore.DEClash>
1.9379

> <Gold.Chemscore.DEInternal>
1.1478

> <Gold.Chemscore.Rot>
1.8471

> <Gold.Chemscore.Internal.Correction>
   9.000000E+99

> <Gold.Chemscore.Hbonds>
donor molecule, donor type, donor heavy atom, donor atom, acceptor molecule, acceptor atom, score
      L1  H     6    24       P1  7948  0.90
      L1  H     9    25       P1  7948  1.00
      L1  H    12    28       P1  7948  0.98
      L1  H    15    40       P1 10186  0.83

> <Gold.Chemscore.Hbond.Weighted>
-12.7268

> <Gold.Chemscore.Metal.Weighted>
-0.0000

> <Gold.Chemscore.Lipo.Weighted>
-9.2075

> <Gold.Chemscore.Internal_Hbond.Weighted>
0.0000

> <Gold.Chemscore.DEClash.Weighted>
1.9379

> <Gold.Chemscore.DEInternal.Weighted>
1.1478

> <Gold.Chemscore.Rot.Weighted>
4.7286

> <Gold.Chemscore.Internal.Correction.Weighted>
   9.000000E+99

> <Gold.Protein.RotatedTorsions>
[ 6907 6896 6895 6894 ] final  -33.57 input  -60.11 | X-H torsion
[ 7974 7965 7964 7962 ] final   40.59 input  175.53 | X-H torsion
[ 8008 7997 7996 7995 ] final  -12.40 input   59.86 | X-H torsion
[ 10167 10162 10161 10158 ] final  136.79 input  -65.29 | X-H torsion
[ 10718 10713 10712 10709 ] final -176.38 input   66.30 | X-H torsion
[ 10763 10752 10751 10750 ] final -122.71 input  -60.55 | X-H torsion
[ 11005 11000 10999 10996 ] final   70.50 input  -57.11 | X-H torsion

> <Gold.Protein.ActiveResidues>
 VAL166  LYS551  ARG553  GLY616  TRP617  ASP618  TYR619  PRO620  LYS621  CYS622 
 ASP623  PHE694  ASN695  SER759  ASP760  ASP761  ALA762  ILE779  LEU786  VAL792 
 PHE793  MET794  SER795  GLU796  ALA797  LYS798  CYS799  TRP800  GLU811  SER814 

> <Gold.Protein.RotatedAtoms>
  151.0638  134.9754  159.8273 H   0  0  0  0  0  0  0  0  0  0  0  0  # atno 6907 bound_to 6896
  152.5399  134.2384  159.8862 H   0  0  0  0  0  0  0  0  0  0  0  0  # atno 6908 bound_to 6896
  151.2405  133.4359  159.2641 H   0  0  0  0  0  0  0  0  0  0  0  0  # atno 6909 bound_to 6896
  146.0892  139.5515  142.9486 H   0  0  0  0  0  0  0  0  0  0  0  0  # atno 7974 bound_to 7965
  154.5381  140.2277  155.8688 H   0  0  0  0  0  0  0  0  0  0  0  0  # atno 8008 bound_to 7997
  156.1831  140.3095  155.9149 H   0  0  0  0  0  0  0  0  0  0  0  0  # atno 8009 bound_to 7997
  155.3314  140.0445  157.3033 H   0  0  0  0  0  0  0  0  0  0  0  0  # atno 8010 bound_to 7997
  139.5167  144.6445  151.5477 H   0  0  0  0  0  0  0  0  0  0  0  0  # atno 10167 bound_to 10162
  156.8139  130.9596  151.3115 H   0  0  0  0  0  0  0  0  0  0  0  0  # atno 10718 bound_to 10713
  154.8695  135.4123  154.2826 H   0  0  0  0  0  0  0  0  0  0  0  0  # atno 10763 bound_to 10752
  153.3716  135.7008  153.6639 H   0  0  0  0  0  0  0  0  0  0  0  0  # atno 10764 bound_to 10752
  153.5498  135.3631  155.2726 H   0  0  0  0  0  0  0  0  0  0  0  0  # atno 10765 bound_to 10752
  139.9594  134.7087  156.0679 H   0  0  0  0  0  0  0  0  0  0  0  0  # atno 11005 bound_to 11000
  145.6071  141.0346  143.1987 LP  0  0  0  0  0  0  0  0  0  0  0  0  # atno 17320 bound_to 7965
  144.7348  139.7618  143.7333 LP  0  0  0  0  0  0  0  0  0  0  0  0  # atno 17321 bound_to 7965
  140.6225  143.9232  150.6537 LP  0  0  0  0  0  0  0  0  0  0  0  0  # atno 17342 bound_to 10162
  140.2510  143.3593  152.1406 LP  0  0  0  0  0  0  0  0  0  0  0  0  # atno 17343 bound_to 10162
  157.6492  130.8870  149.9598 LP  0  0  0  0  0  0  0  0  0  0  0  0  # atno 17370 bound_to 10713
  156.1028  130.3654  150.0187 LP  0  0  0  0  0  0  0  0  0  0  0  0  # atno 17371 bound_to 10713
  141.1270  133.6596  156.3362 LP  0  0  0  0  0  0  0  0  0  0  0  0  # atno 17394 bound_to 11000
  140.5534  134.6005  157.5414 LP  0  0  0  0  0  0  0  0  0  0  0  0  # atno 17395 bound_to 11000

$$$$
