AV-unprocessed.smi:72|AV-procd|sdf|716|dock4
  -GOLD-   2262017 43D 1   1.00000     0.00000
 Structure written by MMmdl.
 28 29  0  0  0  0  0  0  0  0  2 V2000
  152.5474  143.8407  159.3445 N   0  0  0  0  0  0  0  0  0  0  0  0
  152.0547  142.8702  158.7088 C   0  0  0  0  0  0  0  0  0  0  0  0
  150.7642  143.0012  158.0687 N   0  0  0  0  0  0  0  0  0  0  0  0
  150.3008  141.9740  157.4256 C   0  0  0  0  0  0  0  0  0  0  0  0
  151.0423  140.7221  157.3366 N   0  0  0  0  0  0  0  0  0  0  0  0
  150.5060  139.5127  156.5871 C   0  0  1  0  0  0  0  0  0  0  0  0
  149.2185  139.7790  156.1055 O   0  0  0  0  0  0  0  0  0  0  0  0
  149.2443  139.9126  154.6889 C   0  0  2  0  0  0  0  0  0  0  0  0
  147.8471  139.6827  154.0869 C   0  0  0  0  0  0  0  0  0  0  0  0
  147.7795  140.2198  152.7829 O   0  0  0  0  0  0  0  0  0  0  0  0
  150.3579  138.9505  154.2575 C   0  0  2  0  0  0  0  0  0  0  0  0
  149.8881  137.6165  154.1915 O   0  0  0  0  0  0  0  0  0  0  0  0
  151.3814  139.1013  155.3756 C   0  0  1  0  0  0  0  0  0  0  0  0
  152.3475  140.0712  155.0078 O   0  0  0  0  0  0  0  0  0  0  0  0
  152.3075  140.6236  157.9754 C   0  0  0  0  0  0  0  0  0  0  0  0
  152.9217  139.5602  157.8841 O   0  0  0  0  0  0  0  0  0  0  0  0
  152.7861  141.7047  158.6530 N   0  5  0  0  0  0  0  0  0  0  0  0
  150.4118  138.7240  157.3353 H   0  0  0  0  0  0  0  0  0  0  0  0
  149.5627  140.9313  154.4611 H   0  0  0  0  0  0  0  0  0  0  0  0
  150.7625  139.2105  153.2782 H   0  0  0  0  0  0  0  0  0  0  0  0
  151.9006  138.1672  155.5949 H   0  0  0  0  0  0  0  0  0  0  0  0
  151.9446  144.6507  159.3327 H   0  0  0  0  0  0  0  0  0  0  0  0
  149.3367  141.9899  156.9184 H   0  0  0  0  0  0  0  0  0  0  0  0
  147.5880  138.6241  154.0632 H   0  0  0  0  0  0  0  0  0  0  0  0
  147.0947  140.1781  154.7007 H   0  0  0  0  0  0  0  0  0  0  0  0
  148.5254  139.9104  152.2919 H   0  0  0  0  0  0  0  0  0  0  0  0
  149.5356  137.4677  153.3273 H   0  0  0  0  0  0  0  0  0  0  0  0
  153.2069  139.7192  155.1813 H   0  0  0  0  0  0  0  0  0  0  0  0
  1  2  2  0  0  0  0
  1 22  1  0  0  0  0
  2 17  1  0  0  0  0
  2  3  1  0  0  0  0
  3  4  2  0  0  0  0
  4  5  1  0  0  0  0
  4 23  1  0  0  0  0
  5  6  1  0  0  0  0
  5 15  1  0  0  0  0
  6 18  1  0  0  0  0
  6 13  1  0  0  0  0
  6  7  1  0  0  0  0
  7  8  1  0  0  0  0
  8 19  1  0  0  0  0
  8  9  1  0  0  0  0
  8 11  1  0  0  0  0
  9 10  1  0  0  0  0
  9 24  1  0  0  0  0
  9 25  1  0  0  0  0
 10 26  1  0  0  0  0
 11 20  1  0  0  0  0
 11 12  1  0  0  0  0
 11 13  1  0  0  0  0
 12 27  1  0  0  0  0
 13 21  1  0  0  0  0
 13 14  1  0  0  0  0
 14 28  1  0  0  0  0
 15 16  2  0  0  0  0
 15 17  1  0  0  0  0
M  CHG  1  17  -1
M  END
> <s_m_source_file>
AV-unprocessed.smi

> <i_m_source_file_index>
72

> <i_lp_mmshare_version>
43012

> <i_f3d_flags>
0

> <s_epik_input>
W05IMl1jMW5bY0hdbihjKD1PKW4xKVtDQEBIXTJPW0NASF0oW0NIMl1bT0hdKVtDQEBIXShbT0hdKVtDQEhdMltPSF0=

> <s_epik_cmdline>
J2VwaWtfcHl0aG9uJywgJy1waCcsICc3LjAnLCAnLXRuJywgJzgnLCAnLW1hJywgJzIwMCcsICctbWV0YWxfYmluZGluZycsICctaW1hZScsICc8aW5maWxlLm1hZT4nLCAnLW9tYWUnLCAnPG91dGZpbGUubWFlPic=

> <r_lp_tautomer_probability>
7.17554e-07

> <r_epik_Ionization_Penalty>
12.8705

> <r_epik_Ionization_Penalty_Charging>
5.64144

> <r_epik_Ionization_Penalty_Neutral>
7.22905

> <r_epik_State_Penalty>
3.30104

> <r_epik_Charging_Adjusted_Penalty>
8.94249

> <i_epik_Tot_Q>
-1

> <i_epik_Tot_abs_Q>
1

> <r_epik_Metal_State_Penalty>
0.529074

> <b_epik_Metal_Only>
1

> <s_epik_Chemistry_Notes>
This compound contains an acetal/aminal-like group ( X-CH(R)-Y where X, Y are N, S, or O) that may be acid/base labile, releasing an aldehyde.

> <s_lp_Force_Field>
OPLS_2005

> <r_lp_Energy>
37.2706

> <b_lp_Chiralities_Consistent>
1

> <s_lp_Variant>
AV-unprocessed.smi:72-54

> <Gold.Version>
5.8.1

> <Gold.Id.Protein>
6NUR|6NUR_protein|mol2

> <Gold.PLP.Fitness>
34.5896

> <Gold.PLP.PLP>
-24.0823

> <Gold.PLP.part.hbond>
-3.8989

> <Gold.PLP.part.metal>
0.0000

> <Gold.PLP.part.buried>
-4.7785

> <Gold.PLP.part.nonpolar>
-15.8605

> <Gold.PLP.part.repulsive>
0.1223

> <Gold.PLP.ligand.clash>
0.0000

> <Gold.PLP.ligand.torsion>
0.1997

> <Gold.PLP.Chemscore.Hbond>
3.6240

> <Gold.PLP.Chemscore.CHOScore>
0.0000

> <Gold.PLP.Chemscore.Metal>
0.0000

> <Gold.Chemscore.Hbonds>
donor molecule, donor type, donor heavy atom, donor atom, acceptor molecule, acceptor atom, score
      L1  H    10    26       P1  7957  1.00
      L1  H    12    27       P1  7948  1.00
      P1  H  7989  7998       L1    14  0.62
      P1  H  7997  8008       L1    16  1.00

> <Gold.PLP.Chemscore.Internal.Correction>
0.0348

> <Gold.Rescore>
     Score         DG    S(hbond)    S(metal)    S(lipo)     H(rot)  DE(clash)    DE(int)     intcor
      7.95      -8.40       3.14        0.00      23.84       4.04       0.03       0.42       ----

> <Gold.Chemscore.Fitness>
7.9506

> <Gold.Chemscore.DG>
-8.4023

> <Gold.Chemscore.ZeroCoef>
-5.4800

> <Gold.Chemscore.Hbond>
3.1367

> <Gold.Chemscore.Metal>
0.0000

> <Gold.Chemscore.Lipo>
23.8355

> <Gold.Chemscore.Internal_Hbond>
0.0000

> <Gold.Chemscore.DEClash>
0.0333

> <Gold.Chemscore.DEInternal>
0.4184

> <Gold.Chemscore.Rot>
4.0403

> <Gold.Chemscore.Internal.Correction>
   9.000000E+99

> <Gold.Chemscore.Hbonds>
donor molecule, donor type, donor heavy atom, donor atom, acceptor molecule, acceptor atom, score
      L1  H    10    26       P1  7957  0.92
      L1  H    12    27       P1  7948  0.83
      P1  H  7989  7998       L1    14  0.35
      P1  H  7997  8008       L1    16  0.40

> <Gold.Chemscore.Hbond.Weighted>
-10.4767

> <Gold.Chemscore.Metal.Weighted>
-0.0000

> <Gold.Chemscore.Lipo.Weighted>
-2.7888

> <Gold.Chemscore.Internal_Hbond.Weighted>
0.0000

> <Gold.Chemscore.DEClash.Weighted>
0.0333

> <Gold.Chemscore.DEInternal.Weighted>
0.4184

> <Gold.Chemscore.Rot.Weighted>
10.3431

> <Gold.Chemscore.Internal.Correction.Weighted>
   9.000000E+99

> <Gold.Protein.RotatedTorsions>
[ 6907 6896 6895 6894 ] final  -43.68 input  -60.11 | X-H torsion
[ 7974 7965 7964 7962 ] final  -21.27 input  175.53 | X-H torsion
[ 8008 7997 7996 7995 ] final  -77.02 input   59.86 | X-H torsion
[ 10167 10162 10161 10158 ] final   49.77 input  -65.29 | X-H torsion
[ 10718 10713 10712 10709 ] final  -28.33 input   66.30 | X-H torsion
[ 10763 10752 10751 10750 ] final  161.02 input  -60.55 | X-H torsion
[ 11005 11000 10999 10996 ] final   29.67 input  -57.11 | X-H torsion

> <Gold.Protein.ActiveResidues>
 VAL166  LYS551  ARG553  GLY616  TRP617  ASP618  TYR619  PRO620  LYS621  CYS622 
 ASP623  PHE694  ASN695  SER759  ASP760  ASP761  ALA762  ILE779  LEU786  VAL792 
 PHE793  MET794  SER795  GLU796  ALA797  LYS798  CYS799  TRP800  GLU811  SER814 

> <Gold.Protein.RotatedAtoms>
  150.9412  134.8821  159.7613 H   0  0  0  0  0  0  0  0  0  0  0  0  # atno 6907 bound_to 6896
  152.5081  134.3938  159.9403 H   0  0  0  0  0  0  0  0  0  0  0  0  # atno 6908 bound_to 6896
  151.3959  133.3733  159.2761 H   0  0  0  0  0  0  0  0  0  0  0  0  # atno 6909 bound_to 6896
  146.1742  140.4317  142.8520 H   0  0  0  0  0  0  0  0  0  0  0  0  # atno 7974 bound_to 7965
  154.5557  140.0717  156.8740 H   0  0  0  0  0  0  0  0  0  0  0  0  # atno 8008 bound_to 7997
  155.2906  140.3378  155.4234 H   0  0  0  0  0  0  0  0  0  0  0  0  # atno 8009 bound_to 7997
  156.2000  140.1718  156.7904 H   0  0  0  0  0  0  0  0  0  0  0  0  # atno 8010 bound_to 7997
  140.2794  144.3174  150.6268 H   0  0  0  0  0  0  0  0  0  0  0  0  # atno 10167 bound_to 10162
  156.4266  130.4437  149.7146 H   0  0  0  0  0  0  0  0  0  0  0  0  # atno 10718 bound_to 10713
  154.2565  135.2770  155.2795 H   0  0  0  0  0  0  0  0  0  0  0  0  # atno 10763 bound_to 10752
  154.5421  135.5699  153.6851 H   0  0  0  0  0  0  0  0  0  0  0  0  # atno 10764 bound_to 10752
  152.9970  135.6253  154.2713 H   0  0  0  0  0  0  0  0  0  0  0  0  # atno 10765 bound_to 10752
  140.3025  134.2740  155.7751 H   0  0  0  0  0  0  0  0  0  0  0  0  # atno 11005 bound_to 11000
  144.8210  140.6550  143.6353 LP  0  0  0  0  0  0  0  0  0  0  0  0  # atno 17320 bound_to 7965
  145.4256  139.1557  143.4050 LP  0  0  0  0  0  0  0  0  0  0  0  0  # atno 17321 bound_to 7965
  140.5824  143.2172  151.7403 LP  0  0  0  0  0  0  0  0  0  0  0  0  # atno 17342 bound_to 10162
  139.4967  144.4060  152.0131 LP  0  0  0  0  0  0  0  0  0  0  0  0  # atno 17343 bound_to 10162
  156.4066  130.7701  151.2712 LP  0  0  0  0  0  0  0  0  0  0  0  0  # atno 17370 bound_to 10713
  157.7508  131.0224  150.3790 LP  0  0  0  0  0  0  0  0  0  0  0  0  # atno 17371 bound_to 10713
  141.2125  133.7655  156.9788 LP  0  0  0  0  0  0  0  0  0  0  0  0  # atno 17394 bound_to 11000
  140.1096  134.9485  157.2046 LP  0  0  0  0  0  0  0  0  0  0  0  0  # atno 17395 bound_to 11000

$$$$
