AV-unprocessed.smi:2888|AV-procd|sdf|11106|dock7
  -GOLD-   2272015573D 1   1.00000     0.00000
 Structure written by MMmdl.
 34 36  0  0  0  0  0  0  0  0  2 V2000
  152.4761  140.2558  159.4472 C   0  0  0  0  0  0  0  0  0  0  0  0
  151.9296  141.4985  158.7765 C   0  0  0  0  0  0  0  0  0  0  0  0
  152.3951  142.7828  159.1074 C   0  0  0  0  0  0  0  0  0  0  0  0
  151.8124  143.8635  158.4171 C   0  0  0  0  0  0  0  0  0  0  0  0
  152.2189  145.2980  158.6789 C   0  0  0  0  0  0  0  0  0  0  0  0
  150.8520  143.6376  157.4859 N   0  3  0  0  0  0  0  0  0  0  0  0
  150.4546  142.3833  157.2222 C   0  0  0  0  0  0  0  0  0  0  0  0
  149.4695  142.2137  156.2661 N   0  0  0  0  0  0  0  0  0  0  0  0
  148.9314  140.9180  155.8677 C   0  0  2  0  0  0  0  0  0  0  0  0
  149.2511  140.5504  154.4165 C   0  0  0  0  0  0  0  0  0  0  0  0
  147.8558  140.2373  153.8572 C   0  0  2  0  0  0  0  0  0  0  0  0
  147.0454  141.5180  153.6203 C   0  0  0  0  0  0  0  0  0  0  0  0
  146.7073  141.9398  155.0491 C   0  0  0  0  0  0  0  0  0  0  0  0
  147.3919  140.8388  155.8777 C   0  0  1  0  0  0  0  0  0  0  0  0
  147.2079  139.7311  155.0127 O   0  0  0  0  0  0  0  0  0  0  0  0
  150.9720  141.3147  157.8458 N   0  0  0  0  0  0  0  0  0  0  0  0
  153.3041  140.4993  160.1135 H   0  0  0  0  0  0  0  0  0  0  0  0
  152.8381  139.5480  158.7008 H   0  0  0  0  0  0  0  0  0  0  0  0
  151.6973  139.7687  160.0347 H   0  0  0  0  0  0  0  0  0  0  0  0
  153.1612  142.9334  159.8545 H   0  0  0  0  0  0  0  0  0  0  0  0
  153.0858  145.3465  159.3385 H   0  0  0  0  0  0  0  0  0  0  0  0
  151.4006  145.8430  159.1500 H   0  0  0  0  0  0  0  0  0  0  0  0
  152.4745  145.7997  157.7452 H   0  0  0  0  0  0  0  0  0  0  0  0
  148.9865  143.0414  155.9486 H   0  0  0  0  0  0  0  0  0  0  0  0
  149.3394  140.1467  156.5226 H   0  0  0  0  0  0  0  0  0  0  0  0
  149.7446  141.3467  153.8572 H   0  0  0  0  0  0  0  0  0  0  0  0
  149.8917  139.6683  154.3826 H   0  0  0  0  0  0  0  0  0  0  0  0
  147.8616  139.5543  153.0072 H   0  0  0  0  0  0  0  0  0  0  0  0
  147.6127  142.2741  153.0768 H   0  0  0  0  0  0  0  0  0  0  0  0
  146.1349  141.3048  153.0589 H   0  0  0  0  0  0  0  0  0  0  0  0
  147.0588  142.9426  155.2925 H   0  0  0  0  0  0  0  0  0  0  0  0
  145.6280  141.9173  155.2034 H   0  0  0  0  0  0  0  0  0  0  0  0
  146.9613  140.7027  156.8702 H   0  0  0  0  0  0  0  0  0  0  0  0
  150.4379  144.4300  156.9946 H   0  0  0  0  0  0  0  0  0  0  0  0
  1  2  1  0  0  0  0
  1 17  1  0  0  0  0
  1 18  1  0  0  0  0
  1 19  1  0  0  0  0
  2 16  1  0  0  0  0
  2  3  2  0  0  0  0
  3  4  1  0  0  0  0
  3 20  1  0  0  0  0
  4  5  1  0  0  0  0
  4  6  2  0  0  0  0
  5 21  1  0  0  0  0
  5 22  1  0  0  0  0
  5 23  1  0  0  0  0
  6  7  1  0  0  0  0
  6 34  1  0  0  0  0
  7  8  1  0  0  0  0
  7 16  2  0  0  0  0
  8  9  1  0  0  0  0
  8 24  1  0  0  0  0
  9 14  1  0  0  0  0
  9 10  1  0  0  0  0
  9 25  1  0  0  0  0
 10 11  1  0  0  0  0
 10 26  1  0  0  0  0
 10 27  1  0  0  0  0
 11 15  1  0  0  0  0
 11 12  1  0  0  0  0
 11 28  1  0  0  0  0
 12 13  1  0  0  0  0
 12 29  1  0  0  0  0
 12 30  1  0  0  0  0
 13 14  1  0  0  0  0
 13 31  1  0  0  0  0
 13 32  1  0  0  0  0
 14 15  1  0  0  0  0
 14 33  1  0  0  0  0
M  CHG  1   6   1
M  END
> <s_m_source_file>
AV-unprocessed.smi

> <i_m_source_file_index>
2888

> <i_lp_mmshare_version>
43012

> <i_f3d_flags>
0

> <s_epik_input>
W0NIM11jMVtjSF1jKFtDSDNdKW5jKG4xKVtOSF1bQ0BIXShbQ0gyXVtDQEBIXTIzKVtDQEBIXShPMylbQ0gyXVtDSDJdMg==

> <s_epik_cmdline>
J2VwaWtfcHl0aG9uJywgJy1waCcsICc3LjAnLCAnLXRuJywgJzgnLCAnLW1hJywgJzIwMCcsICctbWV0YWxfYmluZGluZycsICctaW1hZScsICc8aW5maWxlLm1hZT4nLCAnLW9tYWUnLCAnPG91dGZpbGUubWFlPic=

> <r_lp_tautomer_probability>
0.505494

> <r_epik_Ionization_Penalty>
2.49163

> <r_epik_Ionization_Penalty_Charging>
2.49163

> <r_epik_Ionization_Penalty_Neutral>
3.7631e-06

> <r_epik_State_Penalty>
2.656

> <r_epik_Charging_Adjusted_Penalty>
5.14762

> <i_epik_Tot_Q>
1

> <i_epik_Tot_abs_Q>
1

> <r_epik_Metal_State_Penalty>
2.66479

> <b_epik_Metal_Only>
0

> <s_lp_Force_Field>
OPLS_2005

> <r_lp_Energy>
36.4538

> <b_lp_Chiralities_Consistent>
1

> <s_lp_Variant>
AV-unprocessed.smi:2888-7

> <Gold.Version>
5.8.1

> <Gold.Id.Protein>
6NUR|6NUR_protein|mol2

> <Gold.PLP.Fitness>
42.1426

> <Gold.PLP.PLP>
-31.6844

> <Gold.PLP.part.hbond>
-2.0000

> <Gold.PLP.part.metal>
0.0000

> <Gold.PLP.part.buried>
-3.6060

> <Gold.PLP.part.nonpolar>
-25.9528

> <Gold.PLP.part.repulsive>
0.1553

> <Gold.PLP.ligand.clash>
0.0000

> <Gold.PLP.ligand.torsion>
0.0591

> <Gold.PLP.Chemscore.Hbond>
3.5226

> <Gold.PLP.Chemscore.CHOScore>
0.0000

> <Gold.PLP.Chemscore.Metal>
0.0000

> <Gold.Chemscore.Hbonds>
donor molecule, donor type, donor heavy atom, donor atom, acceptor molecule, acceptor atom, score
      L1  H     6    34       P1  8028  1.52
      L1  H     8    24       P1  8028  2.00

> <Gold.PLP.Chemscore.Internal.Correction>
0.0087

> <Gold.Rescore>
     Score         DG    S(hbond)    S(metal)    S(lipo)     H(rot)  DE(clash)    DE(int)     intcor
     18.66     -18.72       1.65        0.00      87.88       1.00       0.01       0.05       ----

> <Gold.Chemscore.Fitness>
18.6564

> <Gold.Chemscore.DG>
-18.7160

> <Gold.Chemscore.ZeroCoef>
-5.4800

> <Gold.Chemscore.Hbond>
1.6508

> <Gold.Chemscore.Metal>
0.0000

> <Gold.Chemscore.Lipo>
87.8827

> <Gold.Chemscore.Internal_Hbond>
0.0000

> <Gold.Chemscore.DEClash>
0.0098

> <Gold.Chemscore.DEInternal>
0.0499

> <Gold.Chemscore.Rot>
1.0000

> <Gold.Chemscore.Internal.Correction>
   9.000000E+99

> <Gold.Chemscore.Hbonds>
donor molecule, donor type, donor heavy atom, donor atom, acceptor molecule, acceptor atom, score
      L1  H     6    34       P1  8028  0.62
      L1  H     8    24       P1  8028  0.97

> <Gold.Chemscore.Hbond.Weighted>
-5.5137

> <Gold.Chemscore.Metal.Weighted>
-0.0000

> <Gold.Chemscore.Lipo.Weighted>
-10.2823

> <Gold.Chemscore.Internal_Hbond.Weighted>
0.0000

> <Gold.Chemscore.DEClash.Weighted>
0.0098

> <Gold.Chemscore.DEInternal.Weighted>
0.0499

> <Gold.Chemscore.Rot.Weighted>
2.5600

> <Gold.Chemscore.Internal.Correction.Weighted>
   9.000000E+99

> <Gold.Protein.RotatedTorsions>
[ 6907 6896 6895 6894 ] final -128.46 input  -60.11 | X-H torsion
[ 7974 7965 7964 7962 ] final  -99.42 input  175.53 | X-H torsion
[ 8008 7997 7996 7995 ] final   43.52 input   59.86 | X-H torsion
[ 10167 10162 10161 10158 ] final   94.54 input  -65.29 | X-H torsion
[ 10718 10713 10712 10709 ] final  -88.03 input   66.30 | X-H torsion
[ 10763 10752 10751 10750 ] final  -69.90 input  -60.55 | X-H torsion
[ 11005 11000 10999 10996 ] final  137.69 input  -57.11 | X-H torsion

> <Gold.Protein.ActiveResidues>
 VAL166  LYS551  ARG553  GLY616  TRP617  ASP618  TYR619  PRO620  LYS621  CYS622 
 ASP623  PHE694  ASN695  SER759  ASP760  ASP761  ALA762  ILE779  LEU786  VAL792 
 PHE793  MET794  SER795  GLU796  ALA797  LYS798  CYS799  TRP800  GLU811  SER814 

> <Gold.Protein.RotatedAtoms>
  150.9182  133.6913  159.2838 H   0  0  0  0  0  0  0  0  0  0  0  0  # atno 6907 bound_to 6896
  151.4377  135.1015  159.9670 H   0  0  0  0  0  0  0  0  0  0  0  0  # atno 6908 bound_to 6896
  152.4965  133.8597  159.7299 H   0  0  0  0  0  0  0  0  0  0  0  0  # atno 6909 bound_to 6896
  145.3078  140.9393  143.2787 H   0  0  0  0  0  0  0  0  0  0  0  0  # atno 7974 bound_to 7965
  155.3041  140.3387  155.4246 H   0  0  0  0  0  0  0  0  0  0  0  0  # atno 8008 bound_to 7997
  156.1987  140.1724  156.7983 H   0  0  0  0  0  0  0  0  0  0  0  0  # atno 8009 bound_to 7997
  154.5531  140.0701  156.8684 H   0  0  0  0  0  0  0  0  0  0  0  0  # atno 8010 bound_to 7997
  139.8073  144.6788  150.9686 H   0  0  0  0  0  0  0  0  0  0  0  0  # atno 10167 bound_to 10162
  155.9984  130.4821  150.4957 H   0  0  0  0  0  0  0  0  0  0  0  0  # atno 10718 bound_to 10713
  154.4100  135.6011  153.5947 H   0  0  0  0  0  0  0  0  0  0  0  0  # atno 10763 bound_to 10752
  152.9790  135.5927  154.4081 H   0  0  0  0  0  0  0  0  0  0  0  0  # atno 10764 bound_to 10752
  154.3892  135.2842  155.2143 H   0  0  0  0  0  0  0  0  0  0  0  0  # atno 10765 bound_to 10752
  140.0131  134.9430  157.0320 H   0  0  0  0  0  0  0  0  0  0  0  0  # atno 11005 bound_to 11000
  144.9041  139.4612  143.6618 LP  0  0  0  0  0  0  0  0  0  0  0  0  # atno 17320 bound_to 7965
  146.3129  139.7811  142.9006 LP  0  0  0  0  0  0  0  0  0  0  0  0  # atno 17321 bound_to 7965
  140.7819  143.4220  151.0827 LP  0  0  0  0  0  0  0  0  0  0  0  0  # atno 17342 bound_to 10162
  139.7889  143.8248  152.3149 LP  0  0  0  0  0  0  0  0  0  0  0  0  # atno 17343 bound_to 10162
  157.2947  131.0633  151.2110 LP  0  0  0  0  0  0  0  0  0  0  0  0  # atno 17370 bound_to 10713
  157.3110  130.6890  149.6216 LP  0  0  0  0  0  0  0  0  0  0  0  0  # atno 17371 bound_to 10713
  140.4519  134.1574  155.7182 LP  0  0  0  0  0  0  0  0  0  0  0  0  # atno 17394 bound_to 11000
  141.1724  133.8581  157.1527 LP  0  0  0  0  0  0  0  0  0  0  0  0  # atno 17395 bound_to 11000

$$$$
