AV-unprocessed.smi:2899|AV-procd|sdf|11145|dock2
  -GOLD-   2272016 23D 1   1.00000     0.00000
 Structure written by MMmdl.
 30 32  0  0  0  0  0  0  0  0  1 V2000
  152.7124  142.1068  161.1351 C   0  0  0  0  0  0  0  0  0  0  0  0
  152.1931  143.0926  160.1104 C   0  0  0  0  0  0  0  0  0  0  0  0
  153.0215  143.6045  159.0903 C   0  0  0  0  0  0  0  0  0  0  0  0
  152.4184  144.5149  158.1991 C   0  0  0  0  0  0  0  0  0  0  0  0
  151.1218  144.8758  158.3191 N   0  0  0  0  0  0  0  0  0  0  0  0
  150.4298  144.3311  159.3231 C   0  0  0  0  0  0  0  0  0  0  0  0
  149.1080  144.7264  159.4156 N   0  0  0  0  0  0  0  0  0  0  0  0
  148.1675  144.2459  160.4215 C   0  0  2  0  0  0  0  0  0  0  0  0
  146.9216  143.5930  159.8186 C   0  0  0  0  0  0  0  0  0  0  0  0
  145.7931  144.3694  160.5131 C   0  0  2  0  0  0  0  0  0  0  0  0
  145.6419  145.7814  159.9327 C   0  0  0  0  0  0  0  0  0  0  0  0
  146.8791  146.4807  160.4927 C   0  0  0  0  0  0  0  0  0  0  0  0
  147.5468  145.3522  161.2972 C   0  0  1  0  0  0  0  0  0  0  0  0
  146.3957  144.6673  161.7618 O   0  0  0  0  0  0  0  0  0  0  0  0
  150.8973  143.4579  160.2235 N   0  0  0  0  0  0  0  0  0  0  0  0
  153.7468  141.8315  160.9280 H   0  0  0  0  0  0  0  0  0  0  0  0
  152.1100  141.1981  161.1267 H   0  0  0  0  0  0  0  0  0  0  0  0
  152.6679  142.5405  162.1345 H   0  0  0  0  0  0  0  0  0  0  0  0
  154.0583  143.3182  158.9931 H   0  0  0  0  0  0  0  0  0  0  0  0
  152.9776  144.9552  157.3870 H   0  0  0  0  0  0  0  0  0  0  0  0
  148.8119  145.4789  158.8114 H   0  0  0  0  0  0  0  0  0  0  0  0
  148.6706  143.5179  161.0596 H   0  0  0  0  0  0  0  0  0  0  0  0
  146.8632  143.6740  158.7321 H   0  0  0  0  0  0  0  0  0  0  0  0
  146.8861  142.5349  160.0805 H   0  0  0  0  0  0  0  0  0  0  0  0
  144.8551  143.8183  160.5851 H   0  0  0  0  0  0  0  0  0  0  0  0
  145.6114  145.7819  158.8425 H   0  0  0  0  0  0  0  0  0  0  0  0
  144.7333  146.2590  160.3013 H   0  0  0  0  0  0  0  0  0  0  0  0
  147.5244  146.8931  159.7168 H   0  0  0  0  0  0  0  0  0  0  0  0
  146.5850  147.2973  161.1529 H   0  0  0  0  0  0  0  0  0  0  0  0
  148.2021  145.7074  162.0930 H   0  0  0  0  0  0  0  0  0  0  0  0
  1  2  1  0  0  0  0
  1 16  1  0  0  0  0
  1 17  1  0  0  0  0
  1 18  1  0  0  0  0
  2 15  1  0  0  0  0
  2  3  2  0  0  0  0
  3  4  1  0  0  0  0
  3 19  1  0  0  0  0
  4  5  2  0  0  0  0
  4 20  1  0  0  0  0
  5  6  1  0  0  0  0
  6  7  1  0  0  0  0
  6 15  2  0  0  0  0
  7  8  1  0  0  0  0
  7 21  1  0  0  0  0
  8 13  1  0  0  0  0
  8  9  1  0  0  0  0
  8 22  1  0  0  0  0
  9 10  1  0  0  0  0
  9 23  1  0  0  0  0
  9 24  1  0  0  0  0
 10 14  1  0  0  0  0
 10 11  1  0  0  0  0
 10 25  1  0  0  0  0
 11 12  1  0  0  0  0
 11 26  1  0  0  0  0
 11 27  1  0  0  0  0
 12 13  1  0  0  0  0
 12 28  1  0  0  0  0
 12 29  1  0  0  0  0
 13 14  1  0  0  0  0
 13 30  1  0  0  0  0
M  END
> <s_m_source_file>
AV-unprocessed.smi

> <i_m_source_file_index>
2899

> <i_lp_mmshare_version>
43012

> <i_f3d_flags>
0

> <s_epik_input>
W0NIM11jMVtjSF1bY0hdbmMobjEpW05IXVtDQEhdKFtDSDJdW0NAQEhdMjMpW0NAQEhdKE8zKVtDSDJdW0NIMl0y

> <s_epik_cmdline>
J2VwaWtfcHl0aG9uJywgJy1waCcsICc3LjAnLCAnLXRuJywgJzgnLCAnLW1hJywgJzIwMCcsICctbWV0YWxfYmluZGluZycsICctaW1hZScsICc8aW5maWxlLm1hZT4nLCAnLW9tYWUnLCAnPG91dGZpbGUubWFlPic=

> <r_lp_tautomer_probability>
1

> <r_epik_Ionization_Penalty>
0.00589655

> <r_epik_Ionization_Penalty_Charging>
0

> <r_epik_Ionization_Penalty_Neutral>
0.00589655

> <r_epik_State_Penalty>
0.00375391

> <r_epik_Charging_Adjusted_Penalty>
0.00375391

> <i_epik_Tot_Q>
0

> <i_epik_Tot_abs_Q>
0

> <r_epik_Metal_State_Penalty>
-0

> <b_epik_Metal_Only>
0

> <s_lp_Force_Field>
OPLS_2005

> <r_lp_Energy>
31.8412

> <b_lp_Chiralities_Consistent>
1

> <s_lp_Variant>
AV-unprocessed.smi:2899-3

> <Gold.Version>
5.8.1

> <Gold.Id.Protein>
6NUR|6NUR_protein|mol2

> <Gold.PLP.Fitness>
37.5342

> <Gold.PLP.PLP>
-34.5347

> <Gold.PLP.part.hbond>
-2.7841

> <Gold.PLP.part.metal>
0.0000

> <Gold.PLP.part.buried>
-4.1153

> <Gold.PLP.part.nonpolar>
-28.9997

> <Gold.PLP.part.repulsive>
0.5914

> <Gold.PLP.ligand.clash>
0.0000

> <Gold.PLP.ligand.torsion>
0.0045

> <Gold.PLP.Chemscore.Hbond>
1.0000

> <Gold.PLP.Chemscore.CHOScore>
0.0000

> <Gold.PLP.Chemscore.Metal>
0.0000

> <Gold.Chemscore.Hbonds>
donor molecule, donor type, donor heavy atom, donor atom, acceptor molecule, acceptor atom, score
      L1  H     7    21       P1  8029  0.94

> <Gold.PLP.Chemscore.Internal.Correction>
0.0086

> <Gold.Rescore>
     Score         DG    S(hbond)    S(metal)    S(lipo)     H(rot)  DE(clash)    DE(int)     intcor
     15.55     -15.66       1.00        0.00      80.52       1.00       0.11       0.00       ----

> <Gold.Chemscore.Fitness>
15.5460

> <Gold.Chemscore.DG>
-15.6640

> <Gold.Chemscore.ZeroCoef>
-5.4800

> <Gold.Chemscore.Hbond>
0.9950

> <Gold.Chemscore.Metal>
0.0000

> <Gold.Chemscore.Lipo>
80.5177

> <Gold.Chemscore.Internal_Hbond>
0.0000

> <Gold.Chemscore.DEClash>
0.1135

> <Gold.Chemscore.DEInternal>
0.0045

> <Gold.Chemscore.Rot>
1.0000

> <Gold.Chemscore.Internal.Correction>
   9.000000E+99

> <Gold.Chemscore.Hbonds>
donor molecule, donor type, donor heavy atom, donor atom, acceptor molecule, acceptor atom, score
      L1  H     7    21       P1  8029  0.91

> <Gold.Chemscore.Hbond.Weighted>
-3.3235

> <Gold.Chemscore.Metal.Weighted>
-0.0000

> <Gold.Chemscore.Lipo.Weighted>
-9.4206

> <Gold.Chemscore.Internal_Hbond.Weighted>
0.0000

> <Gold.Chemscore.DEClash.Weighted>
0.1135

> <Gold.Chemscore.DEInternal.Weighted>
0.0045

> <Gold.Chemscore.Rot.Weighted>
2.5600

> <Gold.Chemscore.Internal.Correction.Weighted>
   9.000000E+99

> <Gold.Protein.RotatedTorsions>
[ 6907 6896 6895 6894 ] final   14.84 input  -60.11 | X-H torsion
[ 7974 7965 7964 7962 ] final    0.27 input  175.53 | X-H torsion
[ 8008 7997 7996 7995 ] final  -48.69 input   59.86 | X-H torsion
[ 10167 10162 10161 10158 ] final   44.92 input  -65.29 | X-H torsion
[ 10718 10713 10712 10709 ] final   79.46 input   66.30 | X-H torsion
[ 10763 10752 10751 10750 ] final   57.53 input  -60.55 | X-H torsion
[ 11005 11000 10999 10996 ] final  160.12 input  -57.11 | X-H torsion

> <Gold.Protein.ActiveResidues>
 VAL166  LYS551  ARG553  GLY616  TRP617  ASP618  TYR619  PRO620  LYS621  CYS622 
 ASP623  PHE694  ASN695  SER759  ASP760  ASP761  ALA762  ILE779  LEU786  VAL792 
 PHE793  MET794  SER795  GLU796  ALA797  LYS798  CYS799  TRP800  GLU811  SER814 

> <Gold.Protein.RotatedAtoms>
  151.8086  135.0687  160.0409 H   0  0  0  0  0  0  0  0  0  0  0  0  # atno 6907 bound_to 6896
  152.3037  133.5677  159.5643 H   0  0  0  0  0  0  0  0  0  0  0  0  # atno 6908 bound_to 6896
  150.7285  134.0170  159.3731 H   0  0  0  0  0  0  0  0  0  0  0  0  # atno 6909 bound_to 6896
  146.2433  140.1164  142.8342 H   0  0  0  0  0  0  0  0  0  0  0  0  # atno 7974 bound_to 7965
  154.4032  140.1315  156.4380 H   0  0  0  0  0  0  0  0  0  0  0  0  # atno 8008 bound_to 7997
  155.7486  140.3488  155.5119 H   0  0  0  0  0  0  0  0  0  0  0  0  # atno 8009 bound_to 7997
  155.8971  140.1013  157.1367 H   0  0  0  0  0  0  0  0  0  0  0  0  # atno 8010 bound_to 7997
  140.3294  144.2607  150.6170 H   0  0  0  0  0  0  0  0  0  0  0  0  # atno 10167 bound_to 10162
  157.6777  130.9915  150.1936 H   0  0  0  0  0  0  0  0  0  0  0  0  # atno 10718 bound_to 10713
  152.9852  135.5638  154.5405 H   0  0  0  0  0  0  0  0  0  0  0  0  # atno 10763 bound_to 10752
  154.4860  135.2790  155.1536 H   0  0  0  0  0  0  0  0  0  0  0  0  # atno 10764 bound_to 10752
  154.3025  135.6304  153.5484 H   0  0  0  0  0  0  0  0  0  0  0  0  # atno 10765 bound_to 10752
  140.2029  134.8325  157.3037 H   0  0  0  0  0  0  0  0  0  0  0  0  # atno 11005 bound_to 11000
  145.0444  140.8970  143.5033 LP  0  0  0  0  0  0  0  0  0  0  0  0  # atno 17320 bound_to 7965
  145.1250  139.2669  143.5569 LP  0  0  0  0  0  0  0  0  0  0  0  0  # atno 17321 bound_to 7965
  140.5411  143.2223  151.8083 LP  0  0  0  0  0  0  0  0  0  0  0  0  # atno 17342 bound_to 10162
  139.4859  144.4599  151.9553 LP  0  0  0  0  0  0  0  0  0  0  0  0  # atno 17343 bound_to 10162
  156.2642  130.3714  149.8098 LP  0  0  0  0  0  0  0  0  0  0  0  0  # atno 17370 bound_to 10713
  156.5835  130.8475  151.3389 LP  0  0  0  0  0  0  0  0  0  0  0  0  # atno 17371 bound_to 10713
  140.2035  134.4226  155.7650 LP  0  0  0  0  0  0  0  0  0  0  0  0  # atno 17394 bound_to 11000
  141.2227  133.7083  156.8222 LP  0  0  0  0  0  0  0  0  0  0  0  0  # atno 17395 bound_to 11000

$$$$
