AV-unprocessed.smi:761|AV-procd|sdf|3630|dock3
  -GOLD-   22720 1 23D 1   1.00000     0.00000
 Structure written by MMmdl.
 34 35  0  0  0  0  0  0  0  0  2 V2000
  144.4186  136.3020  151.5775 O   0  0  0  0  0  0  0  0  0  0  0  0
  145.6221  136.0431  151.5680 C   0  0  0  0  0  0  0  0  0  0  0  0
  146.5719  136.9647  151.7830 N   0  0  0  0  0  0  0  0  0  0  0  0
  146.3121  138.3705  152.0707 C   0  0  0  0  0  0  0  0  0  0  0  0
  146.4020  138.6635  153.5798 C   0  0  0  0  0  0  0  0  0  0  0  0
  146.2566  140.1075  153.8746 N   0  3  0  0  0  0  0  0  0  0  0  0
  147.1930  140.9948  153.1258 C   0  0  0  0  0  0  0  0  0  0  0  0
  147.5747  142.0318  154.1439 C   0  0  0  0  0  0  0  0  0  0  0  0
  147.1015  141.7284  155.3472 C   0  0  0  0  0  0  0  0  0  0  0  0
  146.3295  140.4396  155.3254 C   0  0  0  0  0  0  0  0  0  0  0  0
  146.1597  134.8354  151.3240 N   0  0  0  0  0  0  0  0  0  0  0  0
  145.4974  133.6022  151.0764 C   0  0  0  0  0  0  0  0  0  0  0  0
  144.1452  133.6517  150.6791 C   0  0  0  0  0  0  0  0  0  0  0  0
  143.4710  132.4436  150.4108 C   0  0  0  0  0  0  0  0  0  0  0  0
  144.0560  131.2312  150.5052 N   0  0  0  0  0  0  0  0  0  0  0  0
  145.3544  131.1862  150.8710 C   0  0  0  0  0  0  0  0  0  0  0  0
  146.1196  132.3333  151.1625 C   0  0  0  0  0  0  0  0  0  0  0  0
  147.5382  136.6728  151.7528 H   0  0  0  0  0  0  0  0  0  0  0  0
  147.0096  138.9916  151.5063 H   0  0  0  0  0  0  0  0  0  0  0  0
  145.3147  138.6134  151.7032 H   0  0  0  0  0  0  0  0  0  0  0  0
  145.6066  138.1205  154.0924 H   0  0  0  0  0  0  0  0  0  0  0  0
  147.3447  138.3037  153.9950 H   0  0  0  0  0  0  0  0  0  0  0  0
  148.0875  140.4667  152.7920 H   0  0  0  0  0  0  0  0  0  0  0  0
  146.6998  141.4440  152.2634 H   0  0  0  0  0  0  0  0  0  0  0  0
  148.1778  142.8948  153.9021 H   0  0  0  0  0  0  0  0  0  0  0  0
  147.2546  142.3031  156.2490 H   0  0  0  0  0  0  0  0  0  0  0  0
  145.3320  140.5626  155.7479 H   0  0  0  0  0  0  0  0  0  0  0  0
  146.8699  139.6828  155.8960 H   0  0  0  0  0  0  0  0  0  0  0  0
  147.1668  134.8017  151.2649 H   0  0  0  0  0  0  0  0  0  0  0  0
  143.6274  134.5950  150.5843 H   0  0  0  0  0  0  0  0  0  0  0  0
  142.4338  132.4528  150.1099 H   0  0  0  0  0  0  0  0  0  0  0  0
  145.8014  130.2047  150.9274 H   0  0  0  0  0  0  0  0  0  0  0  0
  147.1582  132.2163  151.4296 H   0  0  0  0  0  0  0  0  0  0  0  0
  145.3273  140.3762  153.5843 H   0  0  0  0  0  0  0  0  0  0  0  0
  1  2  2  0  0  0  0
  2  3  1  0  0  0  0
  2 11  1  0  0  0  0
  3  4  1  0  0  0  0
  3 18  1  0  0  0  0
  4  5  1  0  0  0  0
  4 19  1  0  0  0  0
  4 20  1  0  0  0  0
  5  6  1  0  0  0  0
  5 21  1  0  0  0  0
  5 22  1  0  0  0  0
  6 10  1  0  0  0  0
  6  7  1  0  0  0  0
  6 34  1  0  0  0  0
  7  8  1  0  0  0  0
  7 23  1  0  0  0  0
  7 24  1  0  0  0  0
  8  9  2  0  0  0  0
  8 25  1  0  0  0  0
  9 10  1  0  0  0  0
  9 26  1  0  0  0  0
 10 27  1  0  0  0  0
 10 28  1  0  0  0  0
 11 12  1  0  0  0  0
 11 29  1  0  0  0  0
 12 17  1  0  0  0  0
 12 13  2  0  0  0  0
 13 14  1  0  0  0  0
 13 30  1  0  0  0  0
 14 15  2  0  0  0  0
 14 31  1  0  0  0  0
 15 16  1  0  0  0  0
 16 17  2  0  0  0  0
 16 32  1  0  0  0  0
 17 33  1  0  0  0  0
M  CHG  1   6   1
M  END
> <s_m_source_file>
AV-unprocessed.smi

> <i_m_source_file_index>
761

> <i_lp_mmshare_version>
43012

> <i_f3d_flags>
0

> <s_epik_input>
W2NIXTFbY0hdbltjSF1bY0hdYzFbTkhdQyg9TylbTkhdW0NIMl1bQ0gyXU4yW0NIMl1bQ0hdPVtDSF1bQ0gyXTI=

> <s_epik_cmdline>
J2VwaWtfcHl0aG9uJywgJy1waCcsICc3LjAnLCAnLXRuJywgJzgnLCAnLW1hJywgJzIwMCcsICctbWV0YWxfYmluZGluZycsICctaW1hZScsICc8aW5maWxlLm1hZT4nLCAnLW9tYWUnLCAnPG91dGZpbGUubWFlPic=

> <r_epik_Ionization_Penalty>
0.100973

> <r_epik_Ionization_Penalty_Charging>
0.00265978

> <r_epik_Ionization_Penalty_Neutral>
0.098313

> <r_epik_State_Penalty>
0.0959991

> <r_epik_Charging_Adjusted_Penalty>
0.0986589

> <i_epik_Tot_Q>
1

> <i_epik_Tot_abs_Q>
1

> <r_epik_Metal_State_Penalty>
0.0816347

> <b_epik_Metal_Only>
0

> <s_lp_Force_Field>
OPLS_2005

> <r_lp_Energy>
25.6578

> <b_lp_Chiralities_Consistent>
1

> <s_lp_Variant>
AV-unprocessed.smi:761-1

> <Gold.Version>
5.8.1

> <Gold.Id.Protein>
6NUR|6NUR_protein|mol2

> <Gold.PLP.Fitness>
45.6210

> <Gold.PLP.PLP>
-30.8635

> <Gold.PLP.part.hbond>
-3.5578

> <Gold.PLP.part.metal>
0.0000

> <Gold.PLP.part.buried>
-6.1278

> <Gold.PLP.part.nonpolar>
-24.5206

> <Gold.PLP.part.repulsive>
1.6571

> <Gold.PLP.ligand.clash>
0.0000

> <Gold.PLP.ligand.torsion>
0.2347

> <Gold.PLP.Chemscore.Hbond>
3.4565

> <Gold.PLP.Chemscore.CHOScore>
1.6097

> <Gold.PLP.Chemscore.Metal>
0.0000

> <Gold.Chemscore.Hbonds>
donor molecule, donor type, donor heavy atom, donor atom, acceptor molecule, acceptor atom, score
      L1  H     3    18       P1  7948  0.83
      L1  H     6    34       P1 10175  2.00
      L1  H    11    29       P1  7948  0.23
      P1  H 10785 10796       L1    15  0.29
      L1  C    14    31       P1 10186  0.98
      L1  C    14    31       P1 10952  0.58

> <Gold.PLP.Chemscore.Internal.Correction>
0.0282

> <Gold.Rescore>
     Score         DG    S(hbond)    S(metal)    S(lipo)     H(rot)  DE(clash)    DE(int)     intcor
     16.35     -18.58       2.39        0.00      76.68       1.51       0.64       1.59       ----

> <Gold.Chemscore.Fitness>
16.3473

> <Gold.Chemscore.DG>
-18.5777

> <Gold.Chemscore.ZeroCoef>
-5.4800

> <Gold.Chemscore.Hbond>
2.3941

> <Gold.Chemscore.Metal>
0.0000

> <Gold.Chemscore.Lipo>
76.6788

> <Gold.Chemscore.Internal_Hbond>
0.0000

> <Gold.Chemscore.DEClash>
0.6358

> <Gold.Chemscore.DEInternal>
1.5945

> <Gold.Chemscore.Rot>
1.5117

> <Gold.Chemscore.Internal.Correction>
   9.000000E+99

> <Gold.Chemscore.Hbonds>
donor molecule, donor type, donor heavy atom, donor atom, acceptor molecule, acceptor atom, score
      L1  H     3    18       P1  7948  0.80
      L1  H     6    34       P1 10175  0.97
      L1  H    11    29       P1  7948  0.11
      P1  H 10785 10796       L1    15  0.13

> <Gold.Chemscore.Hbond.Weighted>
-7.9963

> <Gold.Chemscore.Metal.Weighted>
-0.0000

> <Gold.Chemscore.Lipo.Weighted>
-8.9714

> <Gold.Chemscore.Internal_Hbond.Weighted>
0.0000

> <Gold.Chemscore.DEClash.Weighted>
0.6358

> <Gold.Chemscore.DEInternal.Weighted>
1.5945

> <Gold.Chemscore.Rot.Weighted>
3.8700

> <Gold.Chemscore.Internal.Correction.Weighted>
   9.000000E+99

> <Gold.Protein.RotatedTorsions>
[ 6907 6896 6895 6894 ] final   71.30 input  -60.11 | X-H torsion
[ 7974 7965 7964 7962 ] final   41.63 input  175.53 | X-H torsion
[ 8008 7997 7996 7995 ] final  -25.11 input   59.86 | X-H torsion
[ 10167 10162 10161 10158 ] final  -54.14 input  -65.29 | X-H torsion
[ 10718 10713 10712 10709 ] final  -53.23 input   66.30 | X-H torsion
[ 10763 10752 10751 10750 ] final   57.19 input  -60.55 | X-H torsion
[ 11005 11000 10999 10996 ] final  100.27 input  -57.11 | X-H torsion

> <Gold.Protein.ActiveResidues>
 VAL166  LYS551  ARG553  GLY616  TRP617  ASP618  TYR619  PRO620  LYS621  CYS622 
 ASP623  PHE694  ASN695  SER759  ASP760  ASP761  ALA762  ILE779  LEU786  VAL792 
 PHE793  MET794  SER795  GLU796  ALA797  LYS798  CYS799  TRP800  GLU811  SER814 

> <Gold.Protein.RotatedAtoms>
  152.4801  134.4741  159.9644 H   0  0  0  0  0  0  0  0  0  0  0  0  # atno 6907 bound_to 6896
  151.4749  133.3554  159.2837 H   0  0  0  0  0  0  0  0  0  0  0  0  # atno 6908 bound_to 6896
  150.8868  134.8292  159.7325 H   0  0  0  0  0  0  0  0  0  0  0  0  # atno 6909 bound_to 6896
  146.0807  139.5393  142.9538 H   0  0  0  0  0  0  0  0  0  0  0  0  # atno 7974 bound_to 7965
  154.4493  140.1935  156.0569 H   0  0  0  0  0  0  0  0  0  0  0  0  # atno 8008 bound_to 7997
  156.0612  140.3296  155.7437 H   0  0  0  0  0  0  0  0  0  0  0  0  # atno 8009 bound_to 7997
  155.5409  140.0586  157.2861 H   0  0  0  0  0  0  0  0  0  0  0  0  # atno 8010 bound_to 7997
  140.6447  143.2528  151.4893 H   0  0  0  0  0  0  0  0  0  0  0  0  # atno 10167 bound_to 10162
  156.1553  130.4150  149.9879 H   0  0  0  0  0  0  0  0  0  0  0  0  # atno 10718 bound_to 10713
  152.9845  135.5650  154.5350 H   0  0  0  0  0  0  0  0  0  0  0  0  # atno 10763 bound_to 10752
  154.4815  135.2789  155.1569 H   0  0  0  0  0  0  0  0  0  0  0  0  # atno 10764 bound_to 10752
  154.3075  135.6295  153.5504 H   0  0  0  0  0  0  0  0  0  0  0  0  # atno 10765 bound_to 10752
  139.8771  134.9132  156.4730 H   0  0  0  0  0  0  0  0  0  0  0  0  # atno 11005 bound_to 11000
  145.6222  141.0320  143.1908 LP  0  0  0  0  0  0  0  0  0  0  0  0  # atno 17320 bound_to 7965
  144.7291  139.7780  143.7354 LP  0  0  0  0  0  0  0  0  0  0  0  0  # atno 17321 bound_to 7965
  139.5657  144.2049  152.1760 LP  0  0  0  0  0  0  0  0  0  0  0  0  # atno 17342 bound_to 10162
  140.1330  144.5271  150.6791 LP  0  0  0  0  0  0  0  0  0  0  0  0  # atno 17343 bound_to 10162
  156.7724  130.9191  151.3644 LP  0  0  0  0  0  0  0  0  0  0  0  0  # atno 17370 bound_to 10713
  157.6690  130.9034  149.9997 LP  0  0  0  0  0  0  0  0  0  0  0  0  # atno 17371 bound_to 10713
  140.8782  133.7938  155.9437 LP  0  0  0  0  0  0  0  0  0  0  0  0  # atno 17394 bound_to 11000
  140.8882  134.2528  157.5108 LP  0  0  0  0  0  0  0  0  0  0  0  0  # atno 17395 bound_to 11000

$$$$
