AV-unprocessed.smi:2671|AV-procd|sdf|10351|dock5
  -GOLD-   2272014373D 1   1.00000     0.00000
 Structure written by MMmdl.
 29 30  0  0  0  0  0  0  0  0  1 V2000
  154.4134  140.4508  160.1467 O   0  0  0  0  0  0  0  0  0  0  0  0
  153.4096  141.0231  159.7276 C   0  0  0  0  0  0  0  0  0  0  0  0
  153.0921  142.3941  160.1454 C   0  0  0  0  0  0  0  0  0  0  0  0
  151.9841  142.9976  159.6700 C   0  0  0  0  0  0  0  0  0  0  0  0
  151.5837  144.4144  160.0491 C   0  0  0  0  0  0  0  0  0  0  0  0
  150.2573  144.5087  160.1352 F   0  0  0  0  0  0  0  0  0  0  0  0
  152.1001  144.7371  161.2344 F   0  0  0  0  0  0  0  0  0  0  0  0
  152.0088  145.3057  159.1513 F   0  0  0  0  0  0  0  0  0  0  0  0
  151.1479  142.3305  158.7896 N   0  0  0  0  0  0  0  0  0  0  0  0
  151.4698  141.0334  158.4101 C   0  0  0  0  0  0  0  0  0  0  0  0
  150.2164  140.3944  157.2606 S   0  0  0  0  0  0  0  0  0  0  0  0
  150.3809  141.5436  155.8635 C   0  0  0  0  0  0  0  0  0  0  0  0
  149.4455  141.1716  154.7051 C   0  0  1  0  0  0  0  0  0  0  0  0
  149.4103  139.6804  154.3655 C   0  0  0  0  0  0  0  0  0  0  0  0
  148.0195  139.4723  153.7834 C   0  0  0  0  0  0  0  0  0  0  0  0
  147.2797  140.7747  154.1001 C   0  0  0  0  0  0  0  0  0  0  0  0
  148.0968  141.4362  155.0548 O   0  0  0  0  0  0  0  0  0  0  0  0
  152.5240  140.3970  158.8354 N   0  0  0  0  0  0  0  0  0  0  0  0
  150.3283  142.8165  158.4543 H   0  0  0  0  0  0  0  0  0  0  0  0
  153.7451  142.9152  160.8305 H   0  0  0  0  0  0  0  0  0  0  0  0
  151.4150  141.5226  155.5191 H   0  0  0  0  0  0  0  0  0  0  0  0
  150.1775  142.5595  156.2039 H   0  0  0  0  0  0  0  0  0  0  0  0
  149.6938  141.7543  153.8158 H   0  0  0  0  0  0  0  0  0  0  0  0
  150.2046  139.3911  153.6768 H   0  0  0  0  0  0  0  0  0  0  0  0
  149.5183  139.0818  155.2711 H   0  0  0  0  0  0  0  0  0  0  0  0
  148.0517  139.2954  152.7079 H   0  0  0  0  0  0  0  0  0  0  0  0
  147.5334  138.6150  154.2504 H   0  0  0  0  0  0  0  0  0  0  0  0
  147.1989  141.3963  153.2072 H   0  0  0  0  0  0  0  0  0  0  0  0
  146.2755  140.6046  154.4884 H   0  0  0  0  0  0  0  0  0  0  0  0
  1  2  2  0  0  0  0
  2 18  1  0  0  0  0
  2  3  1  0  0  0  0
  3 20  1  0  0  0  0
  3  4  2  0  0  0  0
  4  5  1  0  0  0  0
  4  9  1  0  0  0  0
  5  6  1  0  0  0  0
  5  7  1  0  0  0  0
  5  8  1  0  0  0  0
  9 10  1  0  0  0  0
  9 19  1  0  0  0  0
 10 11  1  0  0  0  0
 10 18  2  0  0  0  0
 11 12  1  0  0  0  0
 12 13  1  0  0  0  0
 12 21  1  0  0  0  0
 12 22  1  0  0  0  0
 13 17  1  0  0  0  0
 13 14  1  0  0  0  0
 13 23  1  0  0  0  0
 14 15  1  0  0  0  0
 14 24  1  0  0  0  0
 14 25  1  0  0  0  0
 15 16  1  0  0  0  0
 15 26  1  0  0  0  0
 15 27  1  0  0  0  0
 16 17  1  0  0  0  0
 16 28  1  0  0  0  0
 16 29  1  0  0  0  0
M  END
> <s_m_source_file>
AV-unprocessed.smi

> <i_m_source_file_index>
2671

> <i_lp_mmshare_version>
43012

> <i_f3d_flags>
0

> <s_epik_input>
W09IXWMxW2NIXWMoQyhGKShGKUYpbmMobjEpU1tDSDJdW0NAQEhdMltDSDJdW0NIMl1bQ0gyXU8y

> <s_epik_cmdline>
J2VwaWtfcHl0aG9uJywgJy1waCcsICc3LjAnLCAnLXRuJywgJzgnLCAnLW1hJywgJzIwMCcsICctbWV0YWxfYmluZGluZycsICctaW1hZScsICc8aW5maWxlLm1hZT4nLCAnLW9tYWUnLCAnPG91dGZpbGUubWFlPic=

> <r_lp_tautomer_probability>
0.273662

> <r_epik_Ionization_Penalty>
1.33793

> <r_epik_Ionization_Penalty_Charging>
1.33793

> <r_epik_Ionization_Penalty_Neutral>
8.2996e-08

> <r_epik_State_Penalty>
1.59174

> <r_epik_Charging_Adjusted_Penalty>
2.92967

> <i_epik_Tot_Q>
0

> <i_epik_Tot_abs_Q>
0

> <r_epik_Metal_State_Penalty>
2.31522

> <b_epik_Metal_Only>
0

> <s_lp_Force_Field>
OPLS_2005

> <r_lp_Energy>
25.3569

> <b_lp_Chiralities_Consistent>
1

> <s_lp_Variant>
AV-unprocessed.smi:2671-6

> <Gold.Version>
5.8.1

> <Gold.Id.Protein>
6NUR|6NUR_protein|mol2

> <Gold.PLP.Fitness>
37.9258

> <Gold.PLP.PLP>
-40.1757

> <Gold.PLP.part.hbond>
0.0000

> <Gold.PLP.part.metal>
0.0000

> <Gold.PLP.part.buried>
-5.1781

> <Gold.PLP.part.nonpolar>
-34.6028

> <Gold.PLP.part.repulsive>
0.1936

> <Gold.PLP.ligand.clash>
0.0000

> <Gold.PLP.ligand.torsion>
1.1333

> <Gold.PLP.Chemscore.Hbond>
0.0000

> <Gold.PLP.Chemscore.CHOScore>
0.0000

> <Gold.PLP.Chemscore.Metal>
0.0000

> <Gold.PLP.Chemscore.Internal.Correction>
0.0167

> <Gold.Rescore>
     Score         DG    S(hbond)    S(metal)    S(lipo)     H(rot)  DE(clash)    DE(int)     intcor
      8.36      -9.70       0.00        0.00      73.11       1.69       0.11       1.23       ----

> <Gold.Chemscore.Fitness>
8.3629

> <Gold.Chemscore.DG>
-9.7015

> <Gold.Chemscore.ZeroCoef>
-5.4800

> <Gold.Chemscore.Hbond>
0.0000

> <Gold.Chemscore.Metal>
0.0000

> <Gold.Chemscore.Lipo>
73.1103

> <Gold.Chemscore.Internal_Hbond>
0.0000

> <Gold.Chemscore.DEClash>
0.1080

> <Gold.Chemscore.DEInternal>
1.2306

> <Gold.Chemscore.Rot>
1.6924

> <Gold.Chemscore.Internal.Correction>
   9.000000E+99

> <Gold.Chemscore.Hbond.Weighted>
-0.0000

> <Gold.Chemscore.Metal.Weighted>
-0.0000

> <Gold.Chemscore.Lipo.Weighted>
-8.5539

> <Gold.Chemscore.Internal_Hbond.Weighted>
0.0000

> <Gold.Chemscore.DEClash.Weighted>
0.1080

> <Gold.Chemscore.DEInternal.Weighted>
1.2306

> <Gold.Chemscore.Rot.Weighted>
4.3324

> <Gold.Chemscore.Internal.Correction.Weighted>
   9.000000E+99

> <Gold.Protein.RotatedTorsions>
[ 6907 6896 6895 6894 ] final   40.94 input  -60.11 | X-H torsion
[ 7974 7965 7964 7962 ] final   81.83 input  175.53 | X-H torsion
[ 8008 7997 7996 7995 ] final    6.60 input   59.86 | X-H torsion
[ 10167 10162 10161 10158 ] final  -45.41 input  -65.29 | X-H torsion
[ 10718 10713 10712 10709 ] final  138.67 input   66.30 | X-H torsion
[ 10763 10752 10751 10750 ] final  116.59 input  -60.55 | X-H torsion
[ 11005 11000 10999 10996 ] final   23.21 input  -57.11 | X-H torsion

> <Gold.Protein.ActiveResidues>
 VAL166  LYS551  ARG553  GLY616  TRP617  ASP618  TYR619  PRO620  LYS621  CYS622 
 ASP623  PHE694  ASN695  SER759  ASP760  ASP761  ALA762  ILE779  LEU786  VAL792 
 PHE793  MET794  SER795  GLU796  ALA797  LYS798  CYS799  TRP800  GLU811  SER814 

> <Gold.Protein.RotatedAtoms>
  152.1889  134.8689  160.0519 H   0  0  0  0  0  0  0  0  0  0  0  0  # atno 6907 bound_to 6896
  151.9586  133.3683  159.4035 H   0  0  0  0  0  0  0  0  0  0  0  0  # atno 6908 bound_to 6896
  150.6931  134.4188  159.5239 H   0  0  0  0  0  0  0  0  0  0  0  0  # atno 6909 bound_to 6896
  145.6330  139.2409  143.2074 H   0  0  0  0  0  0  0  0  0  0  0  0  # atno 7974 bound_to 7965
  154.7431  140.2752  155.6356 H   0  0  0  0  0  0  0  0  0  0  0  0  # atno 8008 bound_to 7997
  156.2878  140.2693  156.2089 H   0  0  0  0  0  0  0  0  0  0  0  0  # atno 8009 bound_to 7997
  155.0233  140.0371  157.2435 H   0  0  0  0  0  0  0  0  0  0  0  0  # atno 8010 bound_to 7997
  140.6859  143.2881  151.3636 H   0  0  0  0  0  0  0  0  0  0  0  0  # atno 10167 bound_to 10162
  157.4228  131.1040  151.0335 H   0  0  0  0  0  0  0  0  0  0  0  0  # atno 10718 bound_to 10713
  153.5395  135.3562  155.2712 H   0  0  0  0  0  0  0  0  0  0  0  0  # atno 10763 bound_to 10752
  154.8719  135.4087  154.3060 H   0  0  0  0  0  0  0  0  0  0  0  0  # atno 10764 bound_to 10752
  153.3765  135.7066  153.6666 H   0  0  0  0  0  0  0  0  0  0  0  0  # atno 10765 bound_to 10752
  140.3722  134.2011  155.7666 H   0  0  0  0  0  0  0  0  0  0  0  0  # atno 11005 bound_to 11000
  146.1342  140.7145  142.9398 LP  0  0  0  0  0  0  0  0  0  0  0  0  # atno 17320 bound_to 7965
  144.7186  140.4297  143.7025 LP  0  0  0  0  0  0  0  0  0  0  0  0  # atno 17321 bound_to 7965
  139.6217  144.0894  152.2397 LP  0  0  0  0  0  0  0  0  0  0  0  0  # atno 17342 bound_to 10162
  140.0340  144.6058  150.7464 LP  0  0  0  0  0  0  0  0  0  0  0  0  # atno 17343 bound_to 10162
  157.1259  130.6082  149.5517 LP  0  0  0  0  0  0  0  0  0  0  0  0  # atno 17370 bound_to 10713
  155.9886  130.4930  150.7178 LP  0  0  0  0  0  0  0  0  0  0  0  0  # atno 17371 bound_to 10713
  141.1951  133.8113  157.0730 LP  0  0  0  0  0  0  0  0  0  0  0  0  # atno 17394 bound_to 11000
  140.0543  134.9789  157.1193 LP  0  0  0  0  0  0  0  0  0  0  0  0  # atno 17395 bound_to 11000

$$$$
