AV-unprocessed.smi:17|AV-procd|sdf|105|dock9
  -GOLD-   2262015263D 1   1.00000     0.00000
 Structure written by MMmdl.
 57 59  0  0  0  0  0  0  0  0  1 V2000
  146.4899  136.7076  162.3245 C   0  0  0  0  0  0  0  0  0  0  0  0
  147.8163  136.4541  161.5890 C   0  0  0  0  0  0  0  0  0  0  0  0
  147.7056  135.4541  160.5223 N   0  0  0  0  0  0  0  0  0  0  0  0
  148.0820  135.8252  159.2673 C   0  0  0  0  0  0  0  0  0  0  0  0
  148.9494  135.0382  158.5757 N   0  0  0  0  0  0  0  0  0  0  0  0
  149.3570  135.3849  157.3519 C   0  0  0  0  0  0  0  0  0  0  0  0
  149.0291  136.4627  156.6386 N   0  0  0  0  0  0  0  0  0  0  0  0
  148.1557  137.2564  157.3205 C   0  0  0  0  0  0  0  0  0  0  0  0
  147.6351  137.0175  158.6250 C   0  0  0  0  0  0  0  0  0  0  0  0
  146.7666  138.0461  158.9745 N   0  0  0  0  0  0  0  0  0  0  0  0
  146.7796  138.8465  157.9444 C   0  0  0  0  0  0  0  0  0  0  0  0
  147.5935  138.4508  156.9086 N   0  0  0  0  0  0  0  0  0  0  0  0
  147.8040  139.1455  155.6511 C   0  0  0  0  0  0  0  0  0  0  0  0
  149.0554  140.0617  155.6731 C   0  0  2  0  0  0  0  0  0  0  0  0
  149.0354  141.1532  154.5769 C   0  0  0  0  0  0  0  0  0  0  0  0
  148.0653  142.1465  154.8387 O   0  0  0  0  0  0  0  0  0  0  0  0
  150.4138  139.3113  155.7262 C   0  0  1  0  0  0  0  0  0  0  0  0
  150.8431  138.6249  154.4422 C   0  0  0  0  0  0  0  0  0  0  0  0
  152.3051  138.3122  154.7408 C   0  0  0  0  0  0  0  0  0  0  0  0
  152.7682  139.3898  155.5488 O   0  0  0  0  0  0  0  0  0  0  0  0
  151.6644  140.1324  156.0614 C   0  0  0  0  0  0  0  0  0  0  0  0
  147.5998  134.0232  160.8439 C   0  0  1  0  0  0  0  0  0  0  0  0
  147.2527  133.7956  162.3255 C   0  0  0  0  0  0  0  0  0  0  0  0
  146.6231  133.2743  159.9109 C   0  0  0  0  0  0  0  0  0  0  0  0
  146.8159  131.4333  159.9784 S   0  0  0  0  0  0  0  0  0  0  0  0
  148.2207  131.2105  161.1467 C   0  0  0  0  0  0  0  0  0  0  0  0
  145.6159  130.8403  160.5885 O   0  0  0  0  0  0  0  0  0  0  0  0
  147.2647  130.9772  158.6542 O   0  0  0  0  0  0  0  0  0  0  0  0
  146.6109  137.4907  163.0728 H   0  0  0  0  0  0  0  0  0  0  0  0
  146.1387  135.8141  162.8413 H   0  0  0  0  0  0  0  0  0  0  0  0
  145.7058  137.0259  161.6378 H   0  0  0  0  0  0  0  0  0  0  0  0
  148.1548  137.3977  161.1634 H   0  0  0  0  0  0  0  0  0  0  0  0
  148.5910  136.1672  162.2980 H   0  0  0  0  0  0  0  0  0  0  0  0
  150.0463  134.7019  156.8780 H   0  0  0  0  0  0  0  0  0  0  0  0
  146.1980  139.7564  157.9137 H   0  0  0  0  0  0  0  0  0  0  0  0
  147.8853  138.3901  154.8705 H   0  0  0  0  0  0  0  0  0  0  0  0
  146.9047  139.7207  155.4326 H   0  0  0  0  0  0  0  0  0  0  0  0
  149.0046  140.6114  156.6140 H   0  0  0  0  0  0  0  0  0  0  0  0
  150.0095  141.6359  154.4939 H   0  0  0  0  0  0  0  0  0  0  0  0
  148.8308  140.7114  153.6014 H   0  0  0  0  0  0  0  0  0  0  0  0
  148.4497  142.8009  155.4020 H   0  0  0  0  0  0  0  0  0  0  0  0
  150.3288  138.5275  156.4811 H   0  0  0  0  0  0  0  0  0  0  0  0
  150.2582  137.7329  154.2165 H   0  0  0  0  0  0  0  0  0  0  0  0
  150.7841  139.2982  153.5876 H   0  0  0  0  0  0  0  0  0  0  0  0
  152.3861  137.3879  155.3144 H   0  0  0  0  0  0  0  0  0  0  0  0
  152.9042  138.2036  153.8365 H   0  0  0  0  0  0  0  0  0  0  0  0
  151.6601  141.1026  155.5668 H   0  0  0  0  0  0  0  0  0  0  0  0
  151.7739  140.3022  157.1326 H   0  0  0  0  0  0  0  0  0  0  0  0
  148.5702  133.5532  160.6848 H   0  0  0  0  0  0  0  0  0  0  0  0
  147.2796  132.7344  162.5733 H   0  0  0  0  0  0  0  0  0  0  0  0
  146.2558  134.1645  162.5674 H   0  0  0  0  0  0  0  0  0  0  0  0
  147.9643  134.3000  162.9796 H   0  0  0  0  0  0  0  0  0  0  0  0
  145.6021  133.4817  160.2325 H   0  0  0  0  0  0  0  0  0  0  0  0
  146.6905  133.6005  158.8740 H   0  0  0  0  0  0  0  0  0  0  0  0
  148.5061  130.1590  161.1672 H   0  0  0  0  0  0  0  0  0  0  0  0
  147.9254  131.5126  162.1488 H   0  0  0  0  0  0  0  0  0  0  0  0
  149.0712  131.8074  160.8184 H   0  0  0  0  0  0  0  0  0  0  0  0
  1  2  1  0  0  0  0
  1 29  1  0  0  0  0
  1 30  1  0  0  0  0
  1 31  1  0  0  0  0
  2  3  1  0  0  0  0
  2 32  1  0  0  0  0
  2 33  1  0  0  0  0
  3  4  1  0  0  0  0
  3 22  1  0  0  0  0
  4  9  1  0  0  0  0
  4  5  2  0  0  0  0
  5  6  1  0  0  0  0
  6  7  2  0  0  0  0
  6 34  1  0  0  0  0
  7  8  1  0  0  0  0
  8 12  1  0  0  0  0
  8  9  2  0  0  0  0
  9 10  1  0  0  0  0
 10 11  2  0  0  0  0
 11 12  1  0  0  0  0
 11 35  1  0  0  0  0
 12 13  1  0  0  0  0
 13 14  1  0  0  0  0
 13 36  1  0  0  0  0
 13 37  1  0  0  0  0
 14 15  1  0  0  0  0
 14 17  1  0  0  0  0
 14 38  1  0  0  0  0
 15 16  1  0  0  0  0
 15 39  1  0  0  0  0
 15 40  1  0  0  0  0
 16 41  1  0  0  0  0
 17 21  1  0  0  0  0
 17 18  1  0  0  0  0
 17 42  1  0  0  0  0
 18 19  1  0  0  0  0
 18 43  1  0  0  0  0
 18 44  1  0  0  0  0
 19 20  1  0  0  0  0
 19 45  1  0  0  0  0
 19 46  1  0  0  0  0
 20 21  1  0  0  0  0
 21 47  1  0  0  0  0
 21 48  1  0  0  0  0
 22 23  1  0  0  0  0
 22 24  1  0  0  0  0
 22 49  1  0  0  0  0
 23 50  1  0  0  0  0
 23 51  1  0  0  0  0
 23 52  1  0  0  0  0
 24 25  1  0  0  0  0
 24 53  1  0  0  0  0
 24 54  1  0  0  0  0
 25 26  1  0  0  0  0
 25 27  2  0  0  0  0
 25 28  2  0  0  0  0
 26 55  1  0  0  0  0
 26 56  1  0  0  0  0
 26 57  1  0  0  0  0
M  END
> <s_m_source_file>
AV-unprocessed.smi

> <i_m_source_file_index>
17

> <i_lp_mmshare_version>
43012

> <i_f3d_flags>
0

> <s_epik_input>
W0NIM11TKD1PKSg9TylbQ0gyXVtDQEBIXShbQ0gzXSlOKFtDSDJdW0NIM10pYyhuW2NIXW4xKWMoYzEyKW5bY0hdbjJbQ0gyXVtDQEhdKFtDSDJdW09IXSlbQ0BASF0zW0NIMl1bQ0gyXU9bQ0gyXTM=

> <s_epik_cmdline>
J2VwaWtfcHl0aG9uJywgJy1waCcsICc3LjAnLCAnLXRuJywgJzgnLCAnLW1hJywgJzIwMCcsICctbWV0YWxfYmluZGluZycsICctaW1hZScsICc8aW5maWxlLm1hZT4nLCAnLW9tYWUnLCAnPG91dGZpbGUubWFlPic=

> <r_lp_tautomer_probability>
1

> <r_epik_Ionization_Penalty>
0.00119955

> <r_epik_Ionization_Penalty_Charging>
0

> <r_epik_Ionization_Penalty_Neutral>
0.00119955

> <r_epik_State_Penalty>
0.000665399

> <r_epik_Charging_Adjusted_Penalty>
0.000665399

> <i_epik_Tot_Q>
0

> <i_epik_Tot_abs_Q>
0

> <r_epik_Metal_State_Penalty>
-0

> <b_epik_Metal_Only>
0

> <s_lp_Force_Field>
OPLS_2005

> <r_lp_Energy>
34.6832

> <b_lp_Chiralities_Consistent>
1

> <s_lp_Variant>
AV-unprocessed.smi:17-7

> <Gold.Version>
5.8.1

> <Gold.Id.Protein>
6NUR|6NUR_protein|mol2

> <Gold.PLP.Fitness>
47.2274

> <Gold.PLP.PLP>
-39.4562

> <Gold.PLP.part.hbond>
-4.0000

> <Gold.PLP.part.metal>
0.0000

> <Gold.PLP.part.buried>
-4.4912

> <Gold.PLP.part.nonpolar>
-32.2154

> <Gold.PLP.part.repulsive>
0.0495

> <Gold.PLP.ligand.clash>
0.0000

> <Gold.PLP.ligand.torsion>
1.8254

> <Gold.PLP.Chemscore.Hbond>
3.4352

> <Gold.PLP.Chemscore.CHOScore>
0.0000

> <Gold.PLP.Chemscore.Metal>
0.0000

> <Gold.Chemscore.Hbonds>
donor molecule, donor type, donor heavy atom, donor atom, acceptor molecule, acceptor atom, score
      L1  H    16    41       P1  8028  0.91
      P1  H  6896  6907       L1     5  1.00
      P1  H  6934  6947       L1    10  0.33
      P1  H  7997  8009       L1    20  1.00

> <Gold.PLP.Chemscore.Internal.Correction>
1.1163

> <Gold.Rescore>
     Score         DG    S(hbond)    S(metal)    S(lipo)     H(rot)  DE(clash)    DE(int)     intcor
     14.55     -16.50       3.08        0.00      83.02       3.51       0.13       1.82       ----

> <Gold.Chemscore.Fitness>
14.5543

> <Gold.Chemscore.DG>
-16.5017

> <Gold.Chemscore.ZeroCoef>
-5.4800

> <Gold.Chemscore.Hbond>
3.0788

> <Gold.Chemscore.Metal>
0.0000

> <Gold.Chemscore.Lipo>
83.0218

> <Gold.Chemscore.Internal_Hbond>
0.0000

> <Gold.Chemscore.DEClash>
0.1311

> <Gold.Chemscore.DEInternal>
1.8162

> <Gold.Chemscore.Rot>
3.5059

> <Gold.Chemscore.Internal.Correction>
   9.000000E+99

> <Gold.Chemscore.Hbonds>
donor molecule, donor type, donor heavy atom, donor atom, acceptor molecule, acceptor atom, score
      L1  H    16    41       P1  8028  0.88
      P1  H  6896  6907       L1     5  0.40
      P1  H  6934  6947       L1    10  0.28
      P1  H  7997  8009       L1    20  0.78

> <Gold.Chemscore.Hbond.Weighted>
-10.2831

> <Gold.Chemscore.Metal.Weighted>
-0.0000

> <Gold.Chemscore.Lipo.Weighted>
-9.7136

> <Gold.Chemscore.Internal_Hbond.Weighted>
0.0000

> <Gold.Chemscore.DEClash.Weighted>
0.1311

> <Gold.Chemscore.DEInternal.Weighted>
1.8162

> <Gold.Chemscore.Rot.Weighted>
8.9750

> <Gold.Chemscore.Internal.Correction.Weighted>
   9.000000E+99

> <Gold.Protein.RotatedTorsions>
[ 6907 6896 6895 6894 ] final  -73.09 input  -60.11 | X-H torsion
[ 7974 7965 7964 7962 ] final    0.01 input  175.53 | X-H torsion
[ 8008 7997 7996 7995 ] final -145.73 input   59.86 | X-H torsion
[ 10167 10162 10161 10158 ] final  115.12 input  -65.29 | X-H torsion
[ 10718 10713 10712 10709 ] final  -14.09 input   66.30 | X-H torsion
[ 10763 10752 10751 10750 ] final  -27.53 input  -60.55 | X-H torsion
[ 11005 11000 10999 10996 ] final -173.37 input  -57.11 | X-H torsion

> <Gold.Protein.ActiveResidues>
 VAL166  LYS551  ARG553  GLY616  TRP617  ASP618  TYR619  PRO620  LYS621  CYS622 
 ASP623  PHE694  ASN695  SER759  ASP760  ASP761  ALA762  ILE779  LEU786  VAL792 
 PHE793  MET794  SER795  GLU796  ALA797  LYS798  CYS799  TRP800  GLU811  SER814 

> <Gold.Protein.RotatedAtoms>
  150.7144  134.5067  159.5587 H   0  0  0  0  0  0  0  0  0  0  0  0  # atno 6907 bound_to 6896
  152.2652  134.7988  160.0433 H   0  0  0  0  0  0  0  0  0  0  0  0  # atno 6908 bound_to 6896
  151.8688  133.3436  159.3764 H   0  0  0  0  0  0  0  0  0  0  0  0  # atno 6909 bound_to 6896
  146.2431  140.1203  142.8341 H   0  0  0  0  0  0  0  0  0  0  0  0  # atno 7974 bound_to 7965
  155.5479  140.0614  157.2856 H   0  0  0  0  0  0  0  0  0  0  0  0  # atno 8008 bound_to 7997
  154.4430  140.1907  156.0701 H   0  0  0  0  0  0  0  0  0  0  0  0  # atno 8009 bound_to 7997
  156.0538  140.3281  155.7385 H   0  0  0  0  0  0  0  0  0  0  0  0  # atno 8010 bound_to 7997
  139.6340  144.7118  151.2374 H   0  0  0  0  0  0  0  0  0  0  0  0  # atno 10167 bound_to 10162
  156.6210  130.4875  149.6165 H   0  0  0  0  0  0  0  0  0  0  0  0  # atno 10718 bound_to 10713
  153.7336  135.6937  153.4983 H   0  0  0  0  0  0  0  0  0  0  0  0  # atno 10763 bound_to 10752
  153.2118  135.4400  155.0388 H   0  0  0  0  0  0  0  0  0  0  0  0  # atno 10764 bound_to 10752
  154.8244  135.3439  154.6865 H   0  0  0  0  0  0  0  0  0  0  0  0  # atno 10765 bound_to 10752
  140.4865  134.6025  157.4939 H   0  0  0  0  0  0  0  0  0  0  0  0  # atno 11005 bound_to 11000
  145.0412  140.8947  143.5051 LP  0  0  0  0  0  0  0  0  0  0  0  0  # atno 17320 bound_to 7965
  145.1284  139.2648  143.5552 LP  0  0  0  0  0  0  0  0  0  0  0  0  # atno 17321 bound_to 7965
  140.7455  143.6430  150.8318 LP  0  0  0  0  0  0  0  0  0  0  0  0  # atno 17342 bound_to 10162
  140.0058  143.5695  152.2858 LP  0  0  0  0  0  0  0  0  0  0  0  0  # atno 17343 bound_to 10162
  156.2312  130.6795  151.1465 LP  0  0  0  0  0  0  0  0  0  0  0  0  # atno 17370 bound_to 10713
  157.7228  131.0670  150.6064 LP  0  0  0  0  0  0  0  0  0  0  0  0  # atno 17371 bound_to 10713
  139.9795  134.7161  155.9887 LP  0  0  0  0  0  0  0  0  0  0  0  0  # atno 17394 bound_to 11000
  141.1505  133.6549  156.3999 LP  0  0  0  0  0  0  0  0  0  0  0  0  # atno 17395 bound_to 11000

$$$$
