AV-unprocessed.smi:61|AV-procd|sdf|596|dock3
  -GOLD-   2262016493D 1   1.00000     0.00000
 Structure written by MMmdl.
 29 30  0  0  0  0  0  0  0  0  2 V2000
  146.8551  138.1015  152.7939 N   0  0  0  0  0  0  0  0  0  0  0  0
  147.3358  139.2622  153.3512 C   0  0  0  0  0  0  0  0  0  0  0  0
  146.5244  140.3283  153.4133 N   0  3  0  0  0  0  0  0  0  0  0  0
  146.9776  141.4820  153.9625 C   0  0  0  0  0  0  0  0  0  0  0  0
  148.2896  141.5620  154.4639 C   0  0  0  0  0  0  0  0  0  0  0  0
  149.0824  140.4059  154.3618 C   0  0  0  0  0  0  0  0  0  0  0  0
  150.3991  140.4217  154.8463 N   0  0  0  0  0  0  0  0  0  0  0  0
  150.6520  141.4000  155.9005 C   0  0  0  0  0  0  0  0  0  0  0  0
  151.6006  140.7350  156.9095 C   0  0  0  0  0  0  0  0  0  0  0  0
  152.1317  139.5053  156.1768 C   0  0  0  0  0  0  0  0  0  0  0  0
  150.9462  139.1420  155.2826 C   0  0  2  0  0  0  0  0  0  0  0  0
  151.2457  138.1704  154.1225 C   0  0  0  0  0  0  0  0  0  0  0  0
  151.6859  136.9135  154.5946 O   0  0  0  0  0  0  0  0  0  0  0  0
  148.5933  139.2731  153.8072 N   0  0  0  0  0  0  0  0  0  0  0  0
  147.4428  137.2822  152.7339 H   0  0  0  0  0  0  0  0  0  0  0  0
  145.8974  138.0400  152.4799 H   0  0  0  0  0  0  0  0  0  0  0  0
  146.2753  142.3026  153.9831 H   0  0  0  0  0  0  0  0  0  0  0  0
  148.6705  142.4719  154.9050 H   0  0  0  0  0  0  0  0  0  0  0  0
  151.1316  142.2687  155.4489 H   0  0  0  0  0  0  0  0  0  0  0  0
  149.7391  141.7456  156.3877 H   0  0  0  0  0  0  0  0  0  0  0  0
  152.3949  141.4021  157.2454 H   0  0  0  0  0  0  0  0  0  0  0  0
  151.0356  140.4208  157.7883 H   0  0  0  0  0  0  0  0  0  0  0  0
  153.0041  139.7809  155.5827 H   0  0  0  0  0  0  0  0  0  0  0  0
  152.4194  138.6984  156.8512 H   0  0  0  0  0  0  0  0  0  0  0  0
  150.2011  138.6625  155.9196 H   0  0  0  0  0  0  0  0  0  0  0  0
  150.3417  138.0129  153.5338 H   0  0  0  0  0  0  0  0  0  0  0  0
  151.9939  138.5843  153.4458 H   0  0  0  0  0  0  0  0  0  0  0  0
  151.1280  136.6471  155.3095 H   0  0  0  0  0  0  0  0  0  0  0  0
  145.5704  140.2837  153.0545 H   0  0  0  0  0  0  0  0  0  0  0  0
  1  2  1  0  0  0  0
  1 15  1  0  0  0  0
  1 16  1  0  0  0  0
  2 14  1  0  0  0  0
  2  3  2  0  0  0  0
  3  4  1  0  0  0  0
  3 29  1  0  0  0  0
  4  5  2  0  0  0  0
  4 17  1  0  0  0  0
  5  6  1  0  0  0  0
  5 18  1  0  0  0  0
  6  7  1  0  0  0  0
  6 14  2  0  0  0  0
  7 11  1  0  0  0  0
  7  8  1  0  0  0  0
  8  9  1  0  0  0  0
  8 19  1  0  0  0  0
  8 20  1  0  0  0  0
  9 10  1  0  0  0  0
  9 21  1  0  0  0  0
  9 22  1  0  0  0  0
 10 11  1  0  0  0  0
 10 23  1  0  0  0  0
 10 24  1  0  0  0  0
 11 12  1  0  0  0  0
 11 25  1  0  0  0  0
 12 13  1  0  0  0  0
 12 26  1  0  0  0  0
 12 27  1  0  0  0  0
 13 28  1  0  0  0  0
M  CHG  1   3   1
M  END
> <s_m_source_file>
AV-unprocessed.smi

> <i_m_source_file_index>
61

> <i_lp_mmshare_version>
43012

> <i_f3d_flags>
0

> <s_epik_input>
W05IMl1jMW5bY0hdW2NIXWMobjEpTjJbQ0gyXVtDSDJdW0NIMl1bQ0BIXTJbQ0gyXVtPSF0=

> <s_epik_cmdline>
J2VwaWtfcHl0aG9uJywgJy1waCcsICc3LjAnLCAnLXRuJywgJzgnLCAnLW1hJywgJzIwMCcsICctbWV0YWxfYmluZGluZycsICctaW1hZScsICc8aW5maWxlLm1hZT4nLCAnLW9tYWUnLCAnPG91dGZpbGUubWFlPic=

> <r_lp_tautomer_probability>
0.575011

> <r_epik_Ionization_Penalty>
0.303659

> <r_epik_Ionization_Penalty_Charging>
0.303655

> <r_epik_Ionization_Penalty_Neutral>
4.42648e-06

> <r_epik_State_Penalty>
0.524608

> <r_epik_Charging_Adjusted_Penalty>
0.828263

> <i_epik_Tot_Q>
1

> <i_epik_Tot_abs_Q>
1

> <r_epik_Metal_State_Penalty>
0.785265

> <b_epik_Metal_Only>
0

> <s_lp_Force_Field>
OPLS_2005

> <r_lp_Energy>
35.3764

> <b_lp_Chiralities_Consistent>
1

> <s_lp_Variant>
AV-unprocessed.smi:61-2

> <Gold.Version>
5.8.1

> <Gold.Id.Protein>
6NUR|6NUR_protein|mol2

> <Gold.PLP.Fitness>
45.8401

> <Gold.PLP.PLP>
-29.2361

> <Gold.PLP.part.hbond>
-4.2475

> <Gold.PLP.part.metal>
0.0000

> <Gold.PLP.part.buried>
-5.2468

> <Gold.PLP.part.nonpolar>
-21.0369

> <Gold.PLP.part.repulsive>
1.6039

> <Gold.PLP.ligand.clash>
0.0000

> <Gold.PLP.ligand.torsion>
0.7263

> <Gold.PLP.Chemscore.Hbond>
6.0000

> <Gold.PLP.Chemscore.CHOScore>
0.0000

> <Gold.PLP.Chemscore.Metal>
0.0000

> <Gold.Chemscore.Hbonds>
donor molecule, donor type, donor heavy atom, donor atom, acceptor molecule, acceptor atom, score
      L1  H     1    15       P1  7948  2.00
      L1  H     3    29       P1 10175  2.00
      P1  H  7989  7998       L1     7  1.00
      P1  H 10752 10764       L1    13  1.00

> <Gold.PLP.Chemscore.Internal.Correction>
0.0566

> <Gold.Rescore>
     Score         DG    S(hbond)    S(metal)    S(lipo)     H(rot)  DE(clash)    DE(int)     intcor
     13.64     -15.77       2.94        0.00      47.56       1.98       0.08       2.06       ----

> <Gold.Chemscore.Fitness>
13.6360

> <Gold.Chemscore.DG>
-15.7727

> <Gold.Chemscore.ZeroCoef>
-5.4800

> <Gold.Chemscore.Hbond>
2.9362

> <Gold.Chemscore.Metal>
0.0000

> <Gold.Chemscore.Lipo>
47.5578

> <Gold.Chemscore.Internal_Hbond>
0.0000

> <Gold.Chemscore.DEClash>
0.0811

> <Gold.Chemscore.DEInternal>
2.0556

> <Gold.Chemscore.Rot>
1.9838

> <Gold.Chemscore.Internal.Correction>
   9.000000E+99

> <Gold.Chemscore.Hbonds>
donor molecule, donor type, donor heavy atom, donor atom, acceptor molecule, acceptor atom, score
      L1  H     1    15       P1  7948  0.88
      L1  H     3    29       P1 10175  0.94
      P1  H  7989  7998       L1     7  0.10
      P1  H 10752 10764       L1    13  0.84

> <Gold.Chemscore.Hbond.Weighted>
-9.8070

> <Gold.Chemscore.Metal.Weighted>
-0.0000

> <Gold.Chemscore.Lipo.Weighted>
-5.5643

> <Gold.Chemscore.Internal_Hbond.Weighted>
0.0000

> <Gold.Chemscore.DEClash.Weighted>
0.0811

> <Gold.Chemscore.DEInternal.Weighted>
2.0556

> <Gold.Chemscore.Rot.Weighted>
5.0786

> <Gold.Chemscore.Internal.Correction.Weighted>
   9.000000E+99

> <Gold.Protein.RotatedTorsions>
[ 6907 6896 6895 6894 ] final -112.95 input  -60.11 | X-H torsion
[ 7974 7965 7964 7962 ] final  146.88 input  175.53 | X-H torsion
[ 8008 7997 7996 7995 ] final   -5.97 input   59.86 | X-H torsion
[ 10167 10162 10161 10158 ] final  165.29 input  -65.29 | X-H torsion
[ 10718 10713 10712 10709 ] final -154.09 input   66.30 | X-H torsion
[ 10763 10752 10751 10750 ] final  -86.50 input  -60.55 | X-H torsion
[ 11005 11000 10999 10996 ] final   97.48 input  -57.11 | X-H torsion

> <Gold.Protein.ActiveResidues>
 VAL166  LYS551  ARG553  GLY616  TRP617  ASP618  TYR619  PRO620  LYS621  CYS622 
 ASP623  PHE694  ASN695  SER759  ASP760  ASP761  ALA762  ILE779  LEU786  VAL792 
 PHE793  MET794  SER795  GLU796  ALA797  LYS798  CYS799  TRP800  GLU811  SER814 

> <Gold.Protein.RotatedAtoms>
  150.7794  133.9015  159.3342 H   0  0  0  0  0  0  0  0  0  0  0  0  # atno 6907 bound_to 6896
  151.6881  135.0949  160.0238 H   0  0  0  0  0  0  0  0  0  0  0  0  # atno 6908 bound_to 6896
  152.3841  133.6548  159.6220 H   0  0  0  0  0  0  0  0  0  0  0  0  # atno 6909 bound_to 6896
  144.8636  139.5959  143.5919 H   0  0  0  0  0  0  0  0  0  0  0  0  # atno 7974 bound_to 7965
  154.5985  140.2445  155.7825 H   0  0  0  0  0  0  0  0  0  0  0  0  # atno 8008 bound_to 7997
  156.2295  140.2971  156.0104 H   0  0  0  0  0  0  0  0  0  0  0  0  # atno 8009 bound_to 7997
  155.2252  140.0401  157.2944 H   0  0  0  0  0  0  0  0  0  0  0  0  # atno 8010 bound_to 7997
  139.4903  144.4147  151.9258 H   0  0  0  0  0  0  0  0  0  0  0  0  # atno 10167 bound_to 10162
  156.4946  130.8363  151.2584 H   0  0  0  0  0  0  0  0  0  0  0  0  # atno 10718 bound_to 10713
  154.6232  135.5447  153.7598 H   0  0  0  0  0  0  0  0  0  0  0  0  # atno 10763 bound_to 10752
  153.0248  135.6418  154.1410 H   0  0  0  0  0  0  0  0  0  0  0  0  # atno 10764 bound_to 10752
  154.1344  135.2912  155.3157 H   0  0  0  0  0  0  0  0  0  0  0  0  # atno 10765 bound_to 10752
  139.8776  134.9003  156.4314 H   0  0  0  0  0  0  0  0  0  0  0  0  # atno 11005 bound_to 11000
  146.2879  139.7055  142.9182 LP  0  0  0  0  0  0  0  0  0  0  0  0  # atno 17320 bound_to 7965
  145.4265  141.0411  143.2934 LP  0  0  0  0  0  0  0  0  0  0  0  0  # atno 17321 bound_to 7965
  140.3589  144.2997  150.5936 LP  0  0  0  0  0  0  0  0  0  0  0  0  # atno 17342 bound_to 10162
  140.5420  143.2222  151.8069 LP  0  0  0  0  0  0  0  0  0  0  0  0  # atno 17343 bound_to 10162
  157.7470  131.0002  150.2917 LP  0  0  0  0  0  0  0  0  0  0  0  0  # atno 17370 bound_to 10713
  156.3392  130.3812  149.7423 LP  0  0  0  0  0  0  0  0  0  0  0  0  # atno 17371 bound_to 10713
  140.9064  133.7743  155.9740 LP  0  0  0  0  0  0  0  0  0  0  0  0  # atno 17394 bound_to 11000
  140.8594  134.2858  157.5241 LP  0  0  0  0  0  0  0  0  0  0  0  0  # atno 17395 bound_to 11000

$$$$
