AV-unprocessed.smi:1430|AV-procd|sdf|5824|dock7
  -GOLD-   22720 5483D 1   1.00000     0.00000
 Structure written by MMmdl.
 46 47  0  0  0  0  0  0  0  0  1 V2000
  145.1008  130.8596  151.4030 C   0  0  0  0  0  0  0  0  0  0  0  0
  144.7508  131.8731  150.4669 O   0  0  0  0  0  0  0  0  0  0  0  0
  144.9277  133.1917  150.8326 C   0  0  0  0  0  0  0  0  0  0  0  0
  145.7476  133.4794  151.9417 C   0  0  0  0  0  0  0  0  0  0  0  0
  145.9343  134.8223  152.3220 C   0  0  0  0  0  0  0  0  0  0  0  0
  145.2857  135.8399  151.5816 C   0  0  0  0  0  0  0  0  0  0  0  0
  145.4018  137.2318  151.8476 N   0  0  0  0  0  0  0  0  0  0  0  0
  146.2527  137.8674  152.6717 C   0  0  0  0  0  0  0  0  0  0  0  0
  147.1009  137.3261  153.3800 O   0  0  0  0  0  0  0  0  0  0  0  0
  146.0537  139.1928  152.6408 N   0  0  0  0  0  0  0  0  0  0  0  0
  146.8019  140.1713  153.4206 C   0  0  0  0  0  0  0  0  0  0  0  0
  147.0835  139.6549  154.8440 C   0  0  0  0  0  0  0  0  0  0  0  0
  148.4572  139.8422  155.3078 N   0  0  0  0  0  0  0  0  0  0  0  0
  148.9352  141.2093  155.1110 C   0  0  0  0  0  0  0  0  0  0  0  0
  150.3969  141.4026  155.5633 C   0  0  1  0  0  0  0  0  0  0  0  0
  150.5616  141.4400  157.0922 C   0  0  0  0  0  0  0  0  0  0  0  0
  151.2388  140.4164  154.9637 O   0  0  0  0  0  0  0  0  0  0  0  0
  150.8113  139.0666  155.1361 C   0  0  2  0  0  0  0  0  0  0  0  0
  151.7802  138.1587  154.3715 C   0  0  0  0  0  0  0  0  0  0  0  0
  149.3641  138.9224  154.6331 C   0  0  0  0  0  0  0  0  0  0  0  0
  144.4954  135.4462  150.4819 C   0  0  0  0  0  0  0  0  0  0  0  0
  144.3124  134.1612  150.1120 N   0  0  0  0  0  0  0  0  0  0  0  0
  144.9069  129.8812  150.9640 H   0  0  0  0  0  0  0  0  0  0  0  0
  144.5072  130.9364  152.3150 H   0  0  0  0  0  0  0  0  0  0  0  0
  146.1603  130.9027  151.6598 H   0  0  0  0  0  0  0  0  0  0  0  0
  146.2297  132.6831  152.4894 H   0  0  0  0  0  0  0  0  0  0  0  0
  146.5774  135.0379  153.1603 H   0  0  0  0  0  0  0  0  0  0  0  0
  144.7204  137.8149  151.3840 H   0  0  0  0  0  0  0  0  0  0  0  0
  145.3317  139.5520  152.0338 H   0  0  0  0  0  0  0  0  0  0  0  0
  147.7318  140.3643  152.8871 H   0  0  0  0  0  0  0  0  0  0  0  0
  146.2602  141.1180  153.4572 H   0  0  0  0  0  0  0  0  0  0  0  0
  146.4126  140.1784  155.5267 H   0  0  0  0  0  0  0  0  0  0  0  0
  146.8132  138.6000  154.9106 H   0  0  0  0  0  0  0  0  0  0  0  0
  148.8577  141.4699  154.0542 H   0  0  0  0  0  0  0  0  0  0  0  0
  148.3055  141.9166  155.6491 H   0  0  0  0  0  0  0  0  0  0  0  0
  150.7383  142.3664  155.1849 H   0  0  0  0  0  0  0  0  0  0  0  0
  149.9981  142.2681  157.5225 H   0  0  0  0  0  0  0  0  0  0  0  0
  151.6078  141.5752  157.3667 H   0  0  0  0  0  0  0  0  0  0  0  0
  150.2071  140.5249  157.5660 H   0  0  0  0  0  0  0  0  0  0  0  0
  150.8574  138.8031  156.1931 H   0  0  0  0  0  0  0  0  0  0  0  0
  151.5027  137.1098  154.4790 H   0  0  0  0  0  0  0  0  0  0  0  0
  152.7979  138.2727  154.7451 H   0  0  0  0  0  0  0  0  0  0  0  0
  151.7872  138.3961  153.3074 H   0  0  0  0  0  0  0  0  0  0  0  0
  149.0316  137.8957  154.7909 H   0  0  0  0  0  0  0  0  0  0  0  0
  149.3330  139.0972  153.5563 H   0  0  0  0  0  0  0  0  0  0  0  0
  143.9892  136.1855  149.8786 H   0  0  0  0  0  0  0  0  0  0  0  0
  1  2  1  0  0  0  0
  1 23  1  0  0  0  0
  1 24  1  0  0  0  0
  1 25  1  0  0  0  0
  2  3  1  0  0  0  0
  3 22  1  0  0  0  0
  3  4  2  0  0  0  0
  4  5  1  0  0  0  0
  4 26  1  0  0  0  0
  5  6  2  0  0  0  0
  5 27  1  0  0  0  0
  6  7  1  0  0  0  0
  6 21  1  0  0  0  0
  7  8  1  0  0  0  0
  7 28  1  0  0  0  0
  8  9  2  0  0  0  0
  8 10  1  0  0  0  0
 10 11  1  0  0  0  0
 10 29  1  0  0  0  0
 11 12  1  0  0  0  0
 11 30  1  0  0  0  0
 11 31  1  0  0  0  0
 12 13  1  0  0  0  0
 12 32  1  0  0  0  0
 12 33  1  0  0  0  0
 13 20  1  0  0  0  0
 13 14  1  0  0  0  0
 14 15  1  0  0  0  0
 14 34  1  0  0  0  0
 14 35  1  0  0  0  0
 15 16  1  0  0  0  0
 15 17  1  0  0  0  0
 15 36  1  0  0  0  0
 16 37  1  0  0  0  0
 16 38  1  0  0  0  0
 16 39  1  0  0  0  0
 17 18  1  0  0  0  0
 18 19  1  0  0  0  0
 18 20  1  0  0  0  0
 18 40  1  0  0  0  0
 19 41  1  0  0  0  0
 19 42  1  0  0  0  0
 19 43  1  0  0  0  0
 20 44  1  0  0  0  0
 20 45  1  0  0  0  0
 21 22  2  0  0  0  0
 21 46  1  0  0  0  0
M  END
> <s_m_source_file>
AV-unprocessed.smi

> <i_m_source_file_index>
1430

> <i_lp_mmshare_version>
43012

> <i_f3d_flags>
0

> <s_epik_input>
W0NIM11PYzFbY0hdW2NIXWMoW2NIXW4xKVtOSF1DKD1PKVtOSF1bQ0gyXVtDSDJdTjJbQ0gyXVtDQEBIXShbQ0gzXSlPW0NAQEhdKFtDSDNdKVtDSDJdMg==

> <s_epik_cmdline>
J2VwaWtfcHl0aG9uJywgJy1waCcsICc3LjAnLCAnLXRuJywgJzgnLCAnLW1hJywgJzIwMCcsICctbWV0YWxfYmluZGluZycsICctaW1hZScsICc8aW5maWxlLm1hZT4nLCAnLW9tYWUnLCAnPG91dGZpbGUubWFlPic=

> <r_lp_tautomer_probability>
1

> <r_epik_Ionization_Penalty>
0.266083

> <r_epik_Ionization_Penalty_Charging>
0

> <r_epik_Ionization_Penalty_Neutral>
0.266083

> <r_epik_State_Penalty>
0.257924

> <r_epik_Charging_Adjusted_Penalty>
0.257924

> <i_epik_Tot_Q>
0

> <i_epik_Tot_abs_Q>
0

> <r_epik_Metal_State_Penalty>
0.257922

> <b_epik_Metal_Only>
0

> <s_lp_Force_Field>
OPLS_2005

> <r_lp_Energy>
26.0225

> <b_lp_Chiralities_Consistent>
1

> <s_lp_Variant>
AV-unprocessed.smi:1430-3

> <Gold.Version>
5.8.1

> <Gold.Id.Protein>
6NUR|6NUR_protein|mol2

> <Gold.PLP.Fitness>
43.7985

> <Gold.PLP.PLP>
-34.3676

> <Gold.PLP.part.hbond>
-3.0000

> <Gold.PLP.part.metal>
0.0000

> <Gold.PLP.part.buried>
-7.0920

> <Gold.PLP.part.nonpolar>
-28.3225

> <Gold.PLP.part.repulsive>
3.6186

> <Gold.PLP.ligand.clash>
0.0000

> <Gold.PLP.ligand.torsion>
0.7802

> <Gold.PLP.Chemscore.Hbond>
2.6560

> <Gold.PLP.Chemscore.CHOScore>
1.0000

> <Gold.PLP.Chemscore.Metal>
0.0000

> <Gold.Chemscore.Hbonds>
donor molecule, donor type, donor heavy atom, donor atom, acceptor molecule, acceptor atom, score
      L1  H     7    28       P1 10171  1.00
      L1  H    10    29       P1 10175  0.62
      P1  H  7989  7998       L1    17  1.00
      L1  C    21    46       P1 10171  1.00

> <Gold.PLP.Chemscore.Internal.Correction>
0.0234

> <Gold.Rescore>
     Score         DG    S(hbond)    S(metal)    S(lipo)     H(rot)  DE(clash)    DE(int)     intcor
     13.19     -18.29       2.34        0.00      80.13       1.71       1.58       3.53       ----

> <Gold.Chemscore.Fitness>
13.1875

> <Gold.Chemscore.DG>
-18.2931

> <Gold.Chemscore.ZeroCoef>
-5.4800

> <Gold.Chemscore.Hbond>
2.3405

> <Gold.Chemscore.Metal>
0.0000

> <Gold.Chemscore.Lipo>
80.1295

> <Gold.Chemscore.Internal_Hbond>
0.0000

> <Gold.Chemscore.DEClash>
1.5804

> <Gold.Chemscore.DEInternal>
3.5252

> <Gold.Chemscore.Rot>
1.7107

> <Gold.Chemscore.Internal.Correction>
   9.000000E+99

> <Gold.Chemscore.Hbonds>
donor molecule, donor type, donor heavy atom, donor atom, acceptor molecule, acceptor atom, score
      L1  H     7    28       P1 10171  0.97
      L1  H    10    29       P1 10175  0.58
      P1  H  7989  7998       L1    17  0.67

> <Gold.Chemscore.Hbond.Weighted>
-7.8174

> <Gold.Chemscore.Metal.Weighted>
-0.0000

> <Gold.Chemscore.Lipo.Weighted>
-9.3752

> <Gold.Chemscore.Internal_Hbond.Weighted>
0.0000

> <Gold.Chemscore.DEClash.Weighted>
1.5804

> <Gold.Chemscore.DEInternal.Weighted>
3.5252

> <Gold.Chemscore.Rot.Weighted>
4.3794

> <Gold.Chemscore.Internal.Correction.Weighted>
   9.000000E+99

> <Gold.Protein.RotatedTorsions>
[ 6907 6896 6895 6894 ] final  -56.33 input  -60.11 | X-H torsion
[ 7974 7965 7964 7962 ] final   93.94 input  175.53 | X-H torsion
[ 8008 7997 7996 7995 ] final -100.02 input   59.86 | X-H torsion
[ 10167 10162 10161 10158 ] final   23.07 input  -65.29 | X-H torsion
[ 10718 10713 10712 10709 ] final  -76.82 input   66.30 | X-H torsion
[ 10763 10752 10751 10750 ] final  -45.14 input  -60.55 | X-H torsion
[ 11005 11000 10999 10996 ] final  126.41 input  -57.11 | X-H torsion

> <Gold.Protein.ActiveResidues>
 VAL166  LYS551  ARG553  GLY616  TRP617  ASP618  TYR619  PRO620  LYS621  CYS622 
 ASP623  PHE694  ASN695  SER759  ASP760  ASP761  ALA762  ILE779  LEU786  VAL792 
 PHE793  MET794  SER795  GLU796  ALA797  LYS798  CYS799  TRP800  GLU811  SER814 

> <Gold.Protein.RotatedAtoms>
  150.8177  134.7367  159.6743 H   0  0  0  0  0  0  0  0  0  0  0  0  # atno 6907 bound_to 6896
  152.4294  134.5803  159.9955 H   0  0  0  0  0  0  0  0  0  0  0  0  # atno 6908 bound_to 6896
  151.5995  133.3320  159.3080 H   0  0  0  0  0  0  0  0  0  0  0  0  # atno 6909 bound_to 6896
  145.4722  139.2281  143.2929 H   0  0  0  0  0  0  0  0  0  0  0  0  # atno 7974 bound_to 7965
  154.8228  140.0444  157.1423 H   0  0  0  0  0  0  0  0  0  0  0  0  # atno 8008 bound_to 7997
  154.9240  140.3030  155.5181 H   0  0  0  0  0  0  0  0  0  0  0  0  # atno 8009 bound_to 7997
  156.2981  140.2335  156.4293 H   0  0  0  0  0  0  0  0  0  0  0  0  # atno 8010 bound_to 7997
  140.5298  143.9861  150.6459 H   0  0  0  0  0  0  0  0  0  0  0  0  # atno 10167 bound_to 10162
  156.0163  130.4475  150.3251 H   0  0  0  0  0  0  0  0  0  0  0  0  # atno 10718 bound_to 10713
  154.0237  135.6666  153.4774 H   0  0  0  0  0  0  0  0  0  0  0  0  # atno 10763 bound_to 10752
  153.0569  135.5050  154.7999 H   0  0  0  0  0  0  0  0  0  0  0  0  # atno 10764 bound_to 10752
  154.6921  135.3063  154.9429 H   0  0  0  0  0  0  0  0  0  0  0  0  # atno 10765 bound_to 10752
  139.9455  134.9630  156.8703 H   0  0  0  0  0  0  0  0  0  0  0  0  # atno 11005 bound_to 11000
  146.2390  140.5501  142.8942 LP  0  0  0  0  0  0  0  0  0  0  0  0  # atno 17320 bound_to 7965
  144.7938  140.6084  143.6523 LP  0  0  0  0  0  0  0  0  0  0  0  0  # atno 17321 bound_to 7965
  140.3233  143.3123  152.0762 LP  0  0  0  0  0  0  0  0  0  0  0  0  # atno 17342 bound_to 10162
  139.4950  144.6559  151.6573 LP  0  0  0  0  0  0  0  0  0  0  0  0  # atno 17343 bound_to 10162
  157.1350  131.0282  151.2952 LP  0  0  0  0  0  0  0  0  0  0  0  0  # atno 17370 bound_to 10713
  157.4519  130.7603  149.7159 LP  0  0  0  0  0  0  0  0  0  0  0  0  # atno 17371 bound_to 10713
  140.5846  134.0320  155.7476 LP  0  0  0  0  0  0  0  0  0  0  0  0  # atno 17394 bound_to 11000
  141.1104  133.9626  157.2921 LP  0  0  0  0  0  0  0  0  0  0  0  0  # atno 17395 bound_to 11000

$$$$
