AV-unprocessed.smi:1707|AV-procd|sdf|6887|dock4
  -GOLD-   22720 8 93D 1   1.00000     0.00000
 Structure written by MMmdl.
 41 42  0  0  0  0  0  0  0  0  1 V2000
  146.3554  137.1456  154.0369 O   0  0  0  0  0  0  0  0  0  0  0  0
  145.7693  138.0650  153.4662 C   0  0  0  0  0  0  0  0  0  0  0  0
  144.5969  137.9071  152.8349 N   0  0  0  0  0  0  0  0  0  0  0  0
  143.8636  136.6507  152.7346 C   0  0  0  0  0  0  0  0  0  0  0  0
  144.0477  135.9995  151.3527 C   0  0  0  0  0  0  0  0  0  0  0  0
  144.6635  134.6128  151.4323 C   0  0  0  0  0  0  0  0  0  0  0  0
  145.9736  134.4269  151.6856 C   0  0  0  0  0  0  0  0  0  0  0  0
  146.6424  133.0657  151.7652 C   0  0  0  0  0  0  0  0  0  0  0  0
  145.7598  131.9445  151.1918 C   0  0  0  0  0  0  0  0  0  0  0  0
  144.3057  132.0936  151.6556 C   0  0  0  0  0  0  0  0  0  0  0  0
  143.7115  133.4424  151.2115 C   0  0  0  0  0  0  0  0  0  0  0  0
  146.1974  139.3373  153.3689 N   0  0  0  0  0  0  0  0  0  0  0  0
  147.3585  139.9372  153.8871 C   0  0  0  0  0  0  0  0  0  0  0  0
  148.4646  139.2689  154.3084 C   0  0  0  0  0  0  0  0  0  0  0  0
  149.6265  139.9590  154.8435 C   0  0  0  0  0  0  0  0  0  0  0  0
  150.8855  139.2032  155.2389 C   0  0  0  0  0  0  0  0  0  0  0  0
  151.8490  140.0365  155.6344 F   0  0  0  0  0  0  0  0  0  0  0  0
  150.6170  138.3711  156.2440 F   0  0  0  0  0  0  0  0  0  0  0  0
  151.3488  138.4827  154.2173 F   0  0  0  0  0  0  0  0  0  0  0  0
  149.5575  141.3021  154.8924 C   0  0  0  0  0  0  0  0  0  0  0  0
  148.4182  141.9954  154.4789 N   0  0  0  0  0  0  0  0  0  0  0  0
  147.3093  141.4061  153.9785 C   0  0  0  0  0  0  0  0  0  0  0  0
  146.3454  142.0893  153.6344 O   0  0  0  0  0  0  0  0  0  0  0  0
  148.4382  143.0018  154.5608 H   0  0  0  0  0  0  0  0  0  0  0  0
  144.1825  138.7126  152.3892 H   0  0  0  0  0  0  0  0  0  0  0  0
  144.1794  135.9758  153.5315 H   0  0  0  0  0  0  0  0  0  0  0  0
  142.8077  136.8616  152.9061 H   0  0  0  0  0  0  0  0  0  0  0  0
  143.0816  135.9382  150.8495 H   0  0  0  0  0  0  0  0  0  0  0  0
  144.6827  136.6214  150.7204 H   0  0  0  0  0  0  0  0  0  0  0  0
  146.6142  135.2797  151.8572 H   0  0  0  0  0  0  0  0  0  0  0  0
  147.5926  133.0996  151.2320 H   0  0  0  0  0  0  0  0  0  0  0  0
  146.8728  132.8649  152.8119 H   0  0  0  0  0  0  0  0  0  0  0  0
  145.7919  131.9761  150.1019 H   0  0  0  0  0  0  0  0  0  0  0  0
  146.1553  130.9717  151.4847 H   0  0  0  0  0  0  0  0  0  0  0  0
  143.6979  131.2749  151.2691 H   0  0  0  0  0  0  0  0  0  0  0  0
  144.2678  132.0195  152.7430 H   0  0  0  0  0  0  0  0  0  0  0  0
  142.7797  133.6233  151.7480 H   0  0  0  0  0  0  0  0  0  0  0  0
  143.4626  133.4007  150.1510 H   0  0  0  0  0  0  0  0  0  0  0  0
  145.6179  139.9594  152.8239 H   0  0  0  0  0  0  0  0  0  0  0  0
  148.5147  138.1935  154.2772 H   0  0  0  0  0  0  0  0  0  0  0  0
  150.3561  141.9409  155.2400 H   0  0  0  0  0  0  0  0  0  0  0  0
  1  2  2  0  0  0  0
  2  3  1  0  0  0  0
  2 12  1  0  0  0  0
  3  4  1  0  0  0  0
  3 25  1  0  0  0  0
  4  5  1  0  0  0  0
  4 26  1  0  0  0  0
  4 27  1  0  0  0  0
  5  6  1  0  0  0  0
  5 28  1  0  0  0  0
  5 29  1  0  0  0  0
  6 11  1  0  0  0  0
  6  7  2  0  0  0  0
  7  8  1  0  0  0  0
  7 30  1  0  0  0  0
  8  9  1  0  0  0  0
  8 31  1  0  0  0  0
  8 32  1  0  0  0  0
  9 10  1  0  0  0  0
  9 33  1  0  0  0  0
  9 34  1  0  0  0  0
 10 11  1  0  0  0  0
 10 35  1  0  0  0  0
 10 36  1  0  0  0  0
 11 37  1  0  0  0  0
 11 38  1  0  0  0  0
 12 13  1  0  0  0  0
 12 39  1  0  0  0  0
 13 22  1  0  0  0  0
 13 14  2  0  0  0  0
 14 15  1  0  0  0  0
 14 40  1  0  0  0  0
 15 16  1  0  0  0  0
 15 20  2  0  0  0  0
 16 17  1  0  0  0  0
 16 18  1  0  0  0  0
 16 19  1  0  0  0  0
 20 21  1  0  0  0  0
 20 41  1  0  0  0  0
 21 24  1  0  0  0  0
 21 22  1  0  0  0  0
 22 23  2  0  0  0  0
M  END
> <s_m_source_file>
AV-unprocessed.smi

> <i_m_source_file_index>
1707

> <i_lp_mmshare_version>
43012

> <i_f3d_flags>
0

> <s_epik_input>
Tz1jMVtuSF1bY0hdYyhDKEYpKEYpRilbY0hdYzFbTkhdQyg9TylbTkhdW0NIMl1bQ0gyXUMyPVtDSF1bQ0gyXVtDSDJdW0NIMl1bQ0gyXTI=

> <s_epik_cmdline>
J2VwaWtfcHl0aG9uJywgJy1waCcsICc3LjAnLCAnLXRuJywgJzgnLCAnLW1hJywgJzIwMCcsICctbWV0YWxfYmluZGluZycsICctaW1hZScsICc8aW5maWxlLm1hZT4nLCAnLW9tYWUnLCAnPG91dGZpbGUubWFlPic=

> <r_lp_tautomer_probability>
1

> <r_epik_Ionization_Penalty>
0.00382222

> <r_epik_Ionization_Penalty_Charging>
0.0038016

> <r_epik_Ionization_Penalty_Neutral>
2.06242e-05

> <r_epik_State_Penalty>
-0

> <r_epik_Charging_Adjusted_Penalty>
0.0038016

> <i_epik_Tot_Q>
0

> <i_epik_Tot_abs_Q>
0

> <r_epik_Metal_State_Penalty>
0.371215

> <b_epik_Metal_Only>
0

> <s_lp_Force_Field>
OPLS_2005

> <r_lp_Energy>
19.0753

> <b_lp_Chiralities_Consistent>
1

> <s_lp_Variant>
AV-unprocessed.smi:1707-1

> <Gold.Version>
5.8.1

> <Gold.Id.Protein>
6NUR|6NUR_protein|mol2

> <Gold.PLP.Fitness>
47.5117

> <Gold.PLP.PLP>
-41.4520

> <Gold.PLP.part.hbond>
-3.7210

> <Gold.PLP.part.metal>
0.0000

> <Gold.PLP.part.buried>
-4.9530

> <Gold.PLP.part.nonpolar>
-34.3893

> <Gold.PLP.part.repulsive>
0.5204

> <Gold.PLP.ligand.clash>
1.0552

> <Gold.PLP.ligand.torsion>
0.7895

> <Gold.PLP.Chemscore.Hbond>
2.8800

> <Gold.PLP.Chemscore.CHOScore>
0.0000

> <Gold.PLP.Chemscore.Metal>
0.0000

> <Gold.Chemscore.Hbonds>
donor molecule, donor type, donor heavy atom, donor atom, acceptor molecule, acceptor atom, score
      L1  H     3    25       P1 10175  1.00
      L1  H    12    39       P1 10175  0.86
      L1  H    21    24       P1  8028  0.93

> <Gold.PLP.Chemscore.Internal.Correction>
0.0538

> <Gold.Rescore>
     Score         DG    S(hbond)    S(metal)    S(lipo)     H(rot)  DE(clash)    DE(int)     intcor
     17.61     -19.41       2.63        0.00      78.45       1.57       0.14       1.67       ----

> <Gold.Chemscore.Fitness>
17.6109

> <Gold.Chemscore.DG>
-19.4144

> <Gold.Chemscore.ZeroCoef>
-5.4800

> <Gold.Chemscore.Hbond>
2.6285

> <Gold.Chemscore.Metal>
0.0000

> <Gold.Chemscore.Lipo>
78.4517

> <Gold.Chemscore.Internal_Hbond>
0.0000

> <Gold.Chemscore.DEClash>
0.1370

> <Gold.Chemscore.DEInternal>
1.6664

> <Gold.Chemscore.Rot>
1.5717

> <Gold.Chemscore.Internal.Correction>
   9.000000E+99

> <Gold.Chemscore.Hbonds>
donor molecule, donor type, donor heavy atom, donor atom, acceptor molecule, acceptor atom, score
      L1  H     3    25       P1 10175  0.95
      L1  H    12    39       P1 10175  0.78
      L1  H    21    24       P1  8028  0.85

> <Gold.Chemscore.Hbond.Weighted>
-8.7792

> <Gold.Chemscore.Metal.Weighted>
-0.0000

> <Gold.Chemscore.Lipo.Weighted>
-9.1788

> <Gold.Chemscore.Internal_Hbond.Weighted>
0.0000

> <Gold.Chemscore.DEClash.Weighted>
0.1370

> <Gold.Chemscore.DEInternal.Weighted>
1.6664

> <Gold.Chemscore.Rot.Weighted>
4.0237

> <Gold.Chemscore.Internal.Correction.Weighted>
   9.000000E+99

> <Gold.Protein.RotatedTorsions>
[ 6907 6896 6895 6894 ] final  -91.61 input  -60.11 | X-H torsion
[ 7974 7965 7964 7962 ] final  -70.51 input  175.53 | X-H torsion
[ 8008 7997 7996 7995 ] final  -20.12 input   59.86 | X-H torsion
[ 10167 10162 10161 10158 ] final  -70.33 input  -65.29 | X-H torsion
[ 10718 10713 10712 10709 ] final  -33.85 input   66.30 | X-H torsion
[ 10763 10752 10751 10750 ] final  -35.67 input  -60.55 | X-H torsion
[ 11005 11000 10999 10996 ] final   55.97 input  -57.11 | X-H torsion

> <Gold.Protein.ActiveResidues>
 VAL166  LYS551  ARG553  GLY616  TRP617  ASP618  TYR619  PRO620  LYS621  CYS622 
 ASP623  PHE694  ASN695  SER759  ASP760  ASP761  ALA762  ILE779  LEU786  VAL792 
 PHE793  MET794  SER795  GLU796  ALA797  LYS798  CYS799  TRP800  GLU811  SER814 

> <Gold.Protein.RotatedAtoms>
  150.6895  134.2250  159.4411 H   0  0  0  0  0  0  0  0  0  0  0  0  # atno 6907 bound_to 6896
  152.0204  134.9823  160.0579 H   0  0  0  0  0  0  0  0  0  0  0  0  # atno 6908 bound_to 6896
  152.1403  133.4425  159.4800 H   0  0  0  0  0  0  0  0  0  0  0  0  # atno 6909 bound_to 6896
  145.6900  140.9156  143.0786 H   0  0  0  0  0  0  0  0  0  0  0  0  # atno 7974 bound_to 7965
  154.4791  140.2070  155.9807 H   0  0  0  0  0  0  0  0  0  0  0  0  # atno 8008 bound_to 7997
  156.1136  140.3225  155.8078 H   0  0  0  0  0  0  0  0  0  0  0  0  # atno 8009 bound_to 7997
  155.4591  140.0522  157.2983 H   0  0  0  0  0  0  0  0  0  0  0  0  # atno 8010 bound_to 7997
  140.5361  143.2318  151.7175 H   0  0  0  0  0  0  0  0  0  0  0  0  # atno 10167 bound_to 10162
  156.3577  130.4318  149.7650 H   0  0  0  0  0  0  0  0  0  0  0  0  # atno 10718 bound_to 10713
  153.8671  135.6834  153.4777 H   0  0  0  0  0  0  0  0  0  0  0  0  # atno 10763 bound_to 10752
  153.1308  135.4699  154.9344 H   0  0  0  0  0  0  0  0  0  0  0  0  # atno 10764 bound_to 10752
  154.7731  135.3245  154.8098 H   0  0  0  0  0  0  0  0  0  0  0  0  # atno 10765 bound_to 10752
  140.0565  134.5662  155.9201 H   0  0  0  0  0  0  0  0  0  0  0  0  # atno 11005 bound_to 11000
  144.6999  139.8809  143.7447 LP  0  0  0  0  0  0  0  0  0  0  0  0  # atno 17320 bound_to 7965
  146.0890  139.3879  143.0417 LP  0  0  0  0  0  0  0  0  0  0  0  0  # atno 17321 bound_to 7965
  139.4971  144.4041  152.0150 LP  0  0  0  0  0  0  0  0  0  0  0  0  # atno 17342 bound_to 10162
  140.3146  144.3498  150.6025 LP  0  0  0  0  0  0  0  0  0  0  0  0  # atno 17343 bound_to 10162
  156.4826  130.8048  151.3061 LP  0  0  0  0  0  0  0  0  0  0  0  0  # atno 17370 bound_to 10713
  157.7469  131.0001  150.2913 LP  0  0  0  0  0  0  0  0  0  0  0  0  # atno 17371 bound_to 10713
  141.1954  133.6587  156.5643 LP  0  0  0  0  0  0  0  0  0  0  0  0  # atno 17394 bound_to 11000
  140.3836  134.7502  157.4677 LP  0  0  0  0  0  0  0  0  0  0  0  0  # atno 17395 bound_to 11000

$$$$
