AV-unprocessed.smi:2159|AV-procd|sdf|8796|dock7
  -GOLD-   2272011573D 1   1.00000     0.00000
 Structure written by MMmdl.
 48 50  0  0  0  0  0  0  0  0  2 V2000
  153.6238  135.5544  160.1234 O   0  0  0  0  0  0  0  0  0  0  0  0
  154.0400  136.6164  160.5879 C   0  0  0  0  0  0  0  0  0  0  0  0
  153.8129  137.9350  159.8431 C   0  0  0  0  0  0  0  0  0  0  0  0
  154.6683  139.0923  160.3965 C   0  0  0  0  0  0  0  0  0  0  0  0
  153.9219  140.3527  160.3994 N   0  0  0  0  0  0  0  0  0  0  0  0
  153.9514  141.2509  161.4024 C   0  0  0  0  0  0  0  0  0  0  0  0
  154.5027  141.1287  162.4958 O   0  0  0  0  0  0  0  0  0  0  0  0
  153.2631  142.5270  160.9407 C   0  0  2  0  0  0  0  0  0  0  0  0
  152.4413  143.4079  161.8829 C   0  0  0  0  0  0  0  0  0  0  0  0
  151.9266  144.6059  161.0410 C   0  0  0  0  0  0  0  0  0  0  0  0
  151.2258  144.1925  159.7128 C   0  0  0  0  0  0  0  0  0  0  0  0
  152.0159  143.1466  158.8821 C   0  0  0  0  0  0  0  0  0  0  0  0
  152.3695  142.0027  159.8337 C   0  0  1  0  0  0  0  0  0  0  0  0
  153.1423  140.7720  159.3843 C   0  0  0  0  0  0  0  0  0  0  0  0
  153.0038  140.2398  158.2835 O   0  0  0  0  0  0  0  0  0  0  0  0
  154.7161  136.6939  161.7447 N   0  0  0  0  0  0  0  0  0  0  0  0
  155.0428  135.5555  162.5956 C   0  0  0  0  0  0  0  0  0  0  0  0
  154.1541  135.5144  163.8506 C   0  0  0  0  0  0  0  0  0  0  0  0
  154.0737  134.1253  164.4524 C   0  0  0  0  0  0  0  0  0  0  0  0
  153.4667  133.0445  163.7765 C   0  0  0  0  0  0  0  0  0  0  0  0
  153.4305  131.7777  164.3963 C   0  0  0  0  0  0  0  0  0  0  0  0
  154.0011  131.6187  165.6764 C   0  0  0  0  0  0  0  0  0  0  0  0
  154.5956  132.7319  166.3051 C   0  0  0  0  0  0  0  0  0  0  0  0
  154.6110  133.9289  165.6784 N   0  3  0  0  0  0  0  0  0  0  0  0
  154.0298  137.7937  158.7830 H   0  0  0  0  0  0  0  0  0  0  0  0
  152.7539  138.1856  159.9151 H   0  0  0  0  0  0  0  0  0  0  0  0
  155.0034  138.8680  161.4111 H   0  0  0  0  0  0  0  0  0  0  0  0
  155.5780  139.2020  159.8032 H   0  0  0  0  0  0  0  0  0  0  0  0
  154.0613  143.1418  160.5183 H   0  0  0  0  0  0  0  0  0  0  0  0
  151.6073  142.8489  162.3096 H   0  0  0  0  0  0  0  0  0  0  0  0
  153.0510  143.7608  162.7153 H   0  0  0  0  0  0  0  0  0  0  0  0
  151.2512  145.2163  161.6410 H   0  0  0  0  0  0  0  0  0  0  0  0
  152.7733  145.2493  160.7975 H   0  0  0  0  0  0  0  0  0  0  0  0
  150.2463  143.7773  159.9540 H   0  0  0  0  0  0  0  0  0  0  0  0
  151.0334  145.0774  159.1055 H   0  0  0  0  0  0  0  0  0  0  0  0
  151.4116  142.7865  158.0489 H   0  0  0  0  0  0  0  0  0  0  0  0
  152.9168  143.5913  158.4571 H   0  0  0  0  0  0  0  0  0  0  0  0
  151.4384  141.6157  160.2546 H   0  0  0  0  0  0  0  0  0  0  0  0
  155.0228  137.6041  162.0563 H   0  0  0  0  0  0  0  0  0  0  0  0
  154.9066  134.6434  162.0137 H   0  0  0  0  0  0  0  0  0  0  0  0
  156.0983  135.5917  162.8715 H   0  0  0  0  0  0  0  0  0  0  0  0
  154.5366  136.1980  164.6099 H   0  0  0  0  0  0  0  0  0  0  0  0
  153.1483  135.8591  163.6066 H   0  0  0  0  0  0  0  0  0  0  0  0
  153.0340  133.1817  162.7961 H   0  0  0  0  0  0  0  0  0  0  0  0
  152.9703  130.9380  163.8963 H   0  0  0  0  0  0  0  0  0  0  0  0
  153.9829  130.6570  166.1682 H   0  0  0  0  0  0  0  0  0  0  0  0
  155.0549  132.7018  167.2826 H   0  0  0  0  0  0  0  0  0  0  0  0
  155.0459  134.7216  166.1520 H   0  0  0  0  0  0  0  0  0  0  0  0
  1  2  2  0  0  0  0
  2  3  1  0  0  0  0
  2 16  1  0  0  0  0
  3  4  1  0  0  0  0
  3 25  1  0  0  0  0
  3 26  1  0  0  0  0
  4  5  1  0  0  0  0
  4 27  1  0  0  0  0
  4 28  1  0  0  0  0
  5 14  1  0  0  0  0
  5  6  1  0  0  0  0
  6  7  2  0  0  0  0
  6  8  1  0  0  0  0
  8 13  1  0  0  0  0
  8  9  1  0  0  0  0
  8 29  1  0  0  0  0
  9 10  1  0  0  0  0
  9 30  1  0  0  0  0
  9 31  1  0  0  0  0
 10 11  1  0  0  0  0
 10 32  1  0  0  0  0
 10 33  1  0  0  0  0
 11 12  1  0  0  0  0
 11 34  1  0  0  0  0
 11 35  1  0  0  0  0
 12 13  1  0  0  0  0
 12 36  1  0  0  0  0
 12 37  1  0  0  0  0
 13 14  1  0  0  0  0
 13 38  1  0  0  0  0
 14 15  2  0  0  0  0
 16 17  1  0  0  0  0
 16 39  1  0  0  0  0
 17 18  1  0  0  0  0
 17 40  1  0  0  0  0
 17 41  1  0  0  0  0
 18 19  1  0  0  0  0
 18 42  1  0  0  0  0
 18 43  1  0  0  0  0
 19 24  1  0  0  0  0
 19 20  2  0  0  0  0
 20 21  1  0  0  0  0
 20 44  1  0  0  0  0
 21 22  2  0  0  0  0
 21 45  1  0  0  0  0
 22 23  1  0  0  0  0
 22 46  1  0  0  0  0
 23 24  2  0  0  0  0
 23 47  1  0  0  0  0
 24 48  1  0  0  0  0
M  CHG  1  24   1
M  END
> <s_m_source_file>
AV-unprocessed.smi

> <i_m_source_file_index>
2159

> <i_lp_mmshare_version>
43012

> <i_f3d_flags>
0

> <s_epik_input>
bjFbY0hdW2NIXVtjSF1bY0hdYzFbQ0gyXVtDSDJdW05IXUMoPU8pW0NIMl1bQ0gyXU4oQzI9TylDKD1PKVtDQEhdKFtDQEBIXTIzKVtDSDJdW0NIMl1bQ0gyXVtDSDJdMw==

> <s_epik_cmdline>
J2VwaWtfcHl0aG9uJywgJy1waCcsICc3LjAnLCAnLXRuJywgJzgnLCAnLW1hJywgJzIwMCcsICctbWV0YWxfYmluZGluZycsICctaW1hZScsICc8aW5maWxlLm1hZT4nLCAnLW9tYWUnLCAnPG91dGZpbGUubWFlPic=

> <r_lp_tautomer_probability>
1

> <r_epik_Ionization_Penalty>
1.85146

> <r_epik_Ionization_Penalty_Charging>
1.85146

> <r_epik_Ionization_Penalty_Neutral>
2.95922e-08

> <r_epik_State_Penalty>
1.96899

> <r_epik_Charging_Adjusted_Penalty>
3.82044

> <i_epik_Tot_Q>
1

> <i_epik_Tot_abs_Q>
1

> <r_epik_Metal_State_Penalty>
1.99467

> <b_epik_Metal_Only>
0

> <s_lp_Force_Field>
OPLS_2005

> <r_lp_Energy>
35.9889

> <b_lp_Chiralities_Consistent>
1

> <s_lp_Variant>
AV-unprocessed.smi:2159-6

> <Gold.Version>
5.8.1

> <Gold.Id.Protein>
6NUR|6NUR_protein|mol2

> <Gold.PLP.Fitness>
53.6307

> <Gold.PLP.PLP>
-49.4552

> <Gold.PLP.part.hbond>
-4.0000

> <Gold.PLP.part.metal>
0.0000

> <Gold.PLP.part.buried>
-4.8796

> <Gold.PLP.part.nonpolar>
-40.4574

> <Gold.PLP.part.repulsive>
0.0327

> <Gold.PLP.ligand.clash>
0.0000

> <Gold.PLP.ligand.torsion>
0.8890

> <Gold.PLP.Chemscore.Hbond>
1.9600

> <Gold.PLP.Chemscore.CHOScore>
0.0000

> <Gold.PLP.Chemscore.Metal>
0.0000

> <Gold.Chemscore.Hbonds>
donor molecule, donor type, donor heavy atom, donor atom, acceptor molecule, acceptor atom, score
      P1  H  6896  6909       L1     1  0.89
      P1  H  7997  8010       L1    15  0.94

> <Gold.PLP.Chemscore.Internal.Correction>
0.0736

> <Gold.Rescore>
     Score         DG    S(hbond)    S(metal)    S(lipo)     H(rot)  DE(clash)    DE(int)     intcor
     17.72     -20.24       1.87        0.00     118.58       2.10       0.59       1.94       ----

> <Gold.Chemscore.Fitness>
17.7160

> <Gold.Chemscore.DG>
-20.2423

> <Gold.Chemscore.ZeroCoef>
-5.4800

> <Gold.Chemscore.Hbond>
1.8725

> <Gold.Chemscore.Metal>
0.0000

> <Gold.Chemscore.Lipo>
118.5769

> <Gold.Chemscore.Internal_Hbond>
0.0000

> <Gold.Chemscore.DEClash>
0.5872

> <Gold.Chemscore.DEInternal>
1.9392

> <Gold.Chemscore.Rot>
2.0959

> <Gold.Chemscore.Internal.Correction>
   9.000000E+99

> <Gold.Chemscore.Hbonds>
donor molecule, donor type, donor heavy atom, donor atom, acceptor molecule, acceptor atom, score
      P1  H  6896  6909       L1     1  0.86
      P1  H  7997  8010       L1    15  0.83

> <Gold.Chemscore.Hbond.Weighted>
-6.2543

> <Gold.Chemscore.Metal.Weighted>
-0.0000

> <Gold.Chemscore.Lipo.Weighted>
-13.8735

> <Gold.Chemscore.Internal_Hbond.Weighted>
0.0000

> <Gold.Chemscore.DEClash.Weighted>
0.5872

> <Gold.Chemscore.DEInternal.Weighted>
1.9392

> <Gold.Chemscore.Rot.Weighted>
5.3655

> <Gold.Chemscore.Internal.Correction.Weighted>
   9.000000E+99

> <Gold.Protein.RotatedTorsions>
[ 6907 6896 6895 6894 ] final  167.01 input  -60.11 | X-H torsion
[ 7974 7965 7964 7962 ] final   43.04 input  175.53 | X-H torsion
[ 8008 7997 7996 7995 ] final   34.51 input   59.86 | X-H torsion
[ 10167 10162 10161 10158 ] final   87.99 input  -65.29 | X-H torsion
[ 10718 10713 10712 10709 ] final  121.78 input   66.30 | X-H torsion
[ 10763 10752 10751 10750 ] final   39.24 input  -60.55 | X-H torsion
[ 11005 11000 10999 10996 ] final   76.64 input  -57.11 | X-H torsion

> <Gold.Protein.ActiveResidues>
 VAL166  LYS551  ARG553  GLY616  TRP617  ASP618  TYR619  PRO620  LYS621  CYS622 
 ASP623  PHE694  ASN695  SER759  ASP760  ASP761  ALA762  ILE779  LEU786  VAL792 
 PHE793  MET794  SER795  GLU796  ALA797  LYS798  CYS799  TRP800  GLU811  SER814 

> <Gold.Protein.RotatedAtoms>
  151.8699  133.3473  159.3731 H   0  0  0  0  0  0  0  0  0  0  0  0  # atno 6907 bound_to 6896
  150.7155  134.5123  159.5622 H   0  0  0  0  0  0  0  0  0  0  0  0  # atno 6908 bound_to 6896
  152.2653  134.7991  160.0474 H   0  0  0  0  0  0  0  0  0  0  0  0  # atno 6909 bound_to 6896
  146.0689  139.5232  142.9610 H   0  0  0  0  0  0  0  0  0  0  0  0  # atno 7974 bound_to 7965
  155.1559  140.3279  155.4421 H   0  0  0  0  0  0  0  0  0  0  0  0  # atno 8008 bound_to 7997
  156.2559  140.1968  156.6619 H   0  0  0  0  0  0  0  0  0  0  0  0  # atno 8009 bound_to 7997
  154.6439  140.0567  156.9864 H   0  0  0  0  0  0  0  0  0  0  0  0  # atno 8010 bound_to 7997
  139.8718  144.6488  150.8941 H   0  0  0  0  0  0  0  0  0  0  0  0  # atno 10167 bound_to 10162
  157.5792  131.1076  150.8220 H   0  0  0  0  0  0  0  0  0  0  0  0  # atno 10718 bound_to 10713
  152.9974  135.6226  154.2434 H   0  0  0  0  0  0  0  0  0  0  0  0  # atno 10763 bound_to 10752
  154.2174  135.2797  155.2939 H   0  0  0  0  0  0  0  0  0  0  0  0  # atno 10764 bound_to 10752
  154.5557  135.5720  153.7020 H   0  0  0  0  0  0  0  0  0  0  0  0  # atno 10765 bound_to 10752
  139.9289  134.7618  156.1422 H   0  0  0  0  0  0  0  0  0  0  0  0  # atno 11005 bound_to 11000
  145.6427  141.0281  143.1803 LP  0  0  0  0  0  0  0  0  0  0  0  0  # atno 17320 bound_to 7965
  144.7219  139.8001  143.7379 LP  0  0  0  0  0  0  0  0  0  0  0  0  # atno 17321 bound_to 7965
  140.7759  143.3657  151.1743 LP  0  0  0  0  0  0  0  0  0  0  0  0  # atno 17342 bound_to 10162
  139.7277  143.9122  152.3008 LP  0  0  0  0  0  0  0  0  0  0  0  0  # atno 17343 bound_to 10162
  156.8670  130.5133  149.5299 LP  0  0  0  0  0  0  0  0  0  0  0  0  # atno 17370 bound_to 10713
  156.0838  130.5841  150.9610 LP  0  0  0  0  0  0  0  0  0  0  0  0  # atno 17371 bound_to 10713
  141.0865  133.6732  156.2447 LP  0  0  0  0  0  0  0  0  0  0  0  0  # atno 17394 bound_to 11000
  140.6257  134.5315  157.5553 LP  0  0  0  0  0  0  0  0  0  0  0  0  # atno 17395 bound_to 11000

$$$$
