AV-unprocessed.smi:427|AV-procd|sdf|2542|dock7
  -GOLD-   2262022503D 1   1.00000     0.00000
 Structure written by MMmdl.
 51 52  0  0  0  0  0  0  0  0  1 V2000
  153.4970  139.4418  160.1653 C   0  0  0  0  0  0  0  0  0  0  0  0
  152.4462  140.3577  159.5651 C   0  0  0  0  0  0  0  0  0  0  0  0
  152.5766  141.7549  159.7090 C   0  0  0  0  0  0  0  0  0  0  0  0
  151.6120  142.6388  159.1676 C   0  0  0  0  0  0  0  0  0  0  0  0
  151.7222  144.1694  159.3066 C   0  0  0  0  0  0  0  0  0  0  0  0
  152.0829  144.5289  160.7625 C   0  0  0  0  0  0  0  0  0  0  0  0
  150.4098  144.9046  158.9521 C   0  0  0  0  0  0  0  0  0  0  0  0
  152.8221  144.7004  158.3631 C   0  0  0  0  0  0  0  0  0  0  0  0
  150.5148  142.0795  158.4737 C   0  0  0  0  0  0  0  0  0  0  0  0
  150.3782  140.6869  158.3282 C   0  0  0  0  0  0  0  0  0  0  0  0
  151.3432  139.8081  158.8758 C   0  0  0  0  0  0  0  0  0  0  0  0
  151.2740  138.4348  158.7751 O   0  0  0  0  0  0  0  0  0  0  0  0
  150.1317  137.8543  158.1598 C   0  0  0  0  0  0  0  0  0  0  0  0
  149.9186  136.4567  158.7593 C   0  0  2  0  0  0  0  0  0  0  0  0
  150.6856  135.5500  157.9937 O   0  0  0  0  0  0  0  0  0  0  0  0
  148.4358  136.0231  158.7078 C   0  0  0  0  0  0  0  0  0  0  0  0
  148.0152  135.2936  159.8914 N   0  0  0  0  0  0  0  0  0  0  0  0
  147.9182  133.8830  159.8035 C   0  0  0  0  0  0  0  0  0  0  0  0
  148.1774  133.2694  158.7676 O   0  0  0  0  0  0  0  0  0  0  0  0
  147.5047  133.2218  161.0367 C   0  0  0  0  0  0  0  0  0  0  0  0
  147.2598  133.9337  162.1584 C   0  0  0  0  0  0  0  0  0  0  0  0
  147.3839  135.3081  162.2149 N   0  0  0  0  0  0  0  0  0  0  0  0
  147.1384  136.0554  163.4144 C   0  0  0  0  0  0  0  0  0  0  0  0
  147.7756  136.0374  161.0717 C   0  0  0  0  0  0  0  0  0  0  0  0
  147.9105  137.2638  161.1100 O   0  0  0  0  0  0  0  0  0  0  0  0
  154.3315  140.0066  160.5819 H   0  0  0  0  0  0  0  0  0  0  0  0
  153.8931  138.7660  159.4067 H   0  0  0  0  0  0  0  0  0  0  0  0
  153.0604  138.8426  160.9647 H   0  0  0  0  0  0  0  0  0  0  0  0
  153.4342  142.1279  160.2465 H   0  0  0  0  0  0  0  0  0  0  0  0
  152.1532  145.6086  160.8992 H   0  0  0  0  0  0  0  0  0  0  0  0
  153.0412  144.1058  161.0642 H   0  0  0  0  0  0  0  0  0  0  0  0
  151.3278  144.1594  161.4573 H   0  0  0  0  0  0  0  0  0  0  0  0
  149.5903  144.6085  159.6082 H   0  0  0  0  0  0  0  0  0  0  0  0
  150.1062  144.7126  157.9221 H   0  0  0  0  0  0  0  0  0  0  0  0
  150.5221  145.9846  159.0544 H   0  0  0  0  0  0  0  0  0  0  0  0
  152.9062  145.7862  158.4233 H   0  0  0  0  0  0  0  0  0  0  0  0
  152.6062  144.4465  157.3245 H   0  0  0  0  0  0  0  0  0  0  0  0
  153.8040  144.2926  158.6031 H   0  0  0  0  0  0  0  0  0  0  0  0
  149.7597  142.7186  158.0410 H   0  0  0  0  0  0  0  0  0  0  0  0
  149.5206  140.3173  157.7874 H   0  0  0  0  0  0  0  0  0  0  0  0
  149.2462  138.4712  158.3233 H   0  0  0  0  0  0  0  0  0  0  0  0
  150.2998  137.7759  157.0842 H   0  0  0  0  0  0  0  0  0  0  0  0
  150.2952  136.4508  159.7831 H   0  0  0  0  0  0  0  0  0  0  0  0
  150.9408  135.9773  157.1902 H   0  0  0  0  0  0  0  0  0  0  0  0
  147.7689  136.8837  158.6299 H   0  0  0  0  0  0  0  0  0  0  0  0
  148.1988  135.4304  157.8224 H   0  0  0  0  0  0  0  0  0  0  0  0
  147.3970  132.1470  161.0523 H   0  0  0  0  0  0  0  0  0  0  0  0
  146.9586  133.4004  163.0481 H   0  0  0  0  0  0  0  0  0  0  0  0
  146.3377  136.7663  163.2027 H   0  0  0  0  0  0  0  0  0  0  0  0
  148.0703  136.5538  163.6875 H   0  0  0  0  0  0  0  0  0  0  0  0
  146.8346  135.3537  164.1921 H   0  0  0  0  0  0  0  0  0  0  0  0
  1  2  1  0  0  0  0
  1 26  1  0  0  0  0
  1 27  1  0  0  0  0
  1 28  1  0  0  0  0
  2 11  1  0  0  0  0
  2  3  2  0  0  0  0
  3  4  1  0  0  0  0
  3 29  1  0  0  0  0
  4  5  1  0  0  0  0
  4  9  2  0  0  0  0
  5  6  1  0  0  0  0
  5  7  1  0  0  0  0
  5  8  1  0  0  0  0
  6 30  1  0  0  0  0
  6 31  1  0  0  0  0
  6 32  1  0  0  0  0
  7 33  1  0  0  0  0
  7 34  1  0  0  0  0
  7 35  1  0  0  0  0
  8 36  1  0  0  0  0
  8 37  1  0  0  0  0
  8 38  1  0  0  0  0
  9 10  1  0  0  0  0
  9 39  1  0  0  0  0
 10 11  2  0  0  0  0
 10 40  1  0  0  0  0
 11 12  1  0  0  0  0
 12 13  1  0  0  0  0
 13 14  1  0  0  0  0
 13 41  1  0  0  0  0
 13 42  1  0  0  0  0
 14 15  1  0  0  0  0
 14 16  1  0  0  0  0
 14 43  1  0  0  0  0
 15 44  1  0  0  0  0
 16 17  1  0  0  0  0
 16 45  1  0  0  0  0
 16 46  1  0  0  0  0
 17 24  1  0  0  0  0
 17 18  1  0  0  0  0
 18 19  2  0  0  0  0
 18 20  1  0  0  0  0
 20 21  2  0  0  0  0
 20 47  1  0  0  0  0
 21 22  1  0  0  0  0
 21 48  1  0  0  0  0
 22 23  1  0  0  0  0
 22 24  1  0  0  0  0
 23 49  1  0  0  0  0
 23 50  1  0  0  0  0
 23 51  1  0  0  0  0
 24 25  2  0  0  0  0
M  END
> <s_m_source_file>
AV-unprocessed.smi

> <i_m_source_file_index>
427

> <i_lp_mmshare_version>
43012

> <i_f3d_flags>
0

> <s_epik_input>
W0NIM11jMVtjSF1jKEMoW0NIM10pKFtDSDNdKVtDSDNdKVtjSF1bY0hdYzFPW0NIMl1bQ0BIXShbT0hdKVtDSDJdbjJjKD1PKVtjSF1bY0hdbihbQ0gzXSljMj1P

> <s_epik_cmdline>
J2VwaWtfcHl0aG9uJywgJy1waCcsICc3LjAnLCAnLXRuJywgJzgnLCAnLW1hJywgJzIwMCcsICctbWV0YWxfYmluZGluZycsICctaW1hZScsICc8aW5maWxlLm1hZT4nLCAnLW9tYWUnLCAnPG91dGZpbGUubWFlPic=

> <r_lp_tautomer_probability>
1

> <r_epik_Ionization_Penalty>
2.02112e-07

> <r_epik_Ionization_Penalty_Charging>
8.49383e-08

> <r_epik_Ionization_Penalty_Neutral>
1.17174e-07

> <r_epik_State_Penalty>
-0

> <r_epik_Charging_Adjusted_Penalty>
8.49383e-08

> <i_epik_Tot_Q>
0

> <i_epik_Tot_abs_Q>
0

> <r_epik_Metal_State_Penalty>
-0

> <b_epik_Metal_Only>
0

> <s_lp_Force_Field>
OPLS_2005

> <r_lp_Energy>
25.5029

> <b_lp_Chiralities_Consistent>
1

> <s_lp_Variant>
AV-unprocessed.smi:427-1

> <Gold.Version>
5.8.1

> <Gold.Id.Protein>
6NUR|6NUR_protein|mol2

> <Gold.PLP.Fitness>
51.8518

> <Gold.PLP.PLP>
-50.1644

> <Gold.PLP.part.hbond>
-3.0000

> <Gold.PLP.part.metal>
0.0000

> <Gold.PLP.part.buried>
-5.4848

> <Gold.PLP.part.nonpolar>
-42.0220

> <Gold.PLP.part.repulsive>
0.0000

> <Gold.PLP.ligand.clash>
0.0000

> <Gold.PLP.ligand.torsion>
1.8026

> <Gold.PLP.Chemscore.Hbond>
1.7428

> <Gold.PLP.Chemscore.CHOScore>
0.0000

> <Gold.PLP.Chemscore.Metal>
0.0000

> <Gold.Chemscore.Hbonds>
donor molecule, donor type, donor heavy atom, donor atom, acceptor molecule, acceptor atom, score
      P1  H  6896  6909       L1    15  0.08
      P1  H  6931  6943       L1    25  0.93
      P1  H  6934  6947       L1    25  0.75

> <Gold.PLP.Chemscore.Internal.Correction>
0.0643

> <Gold.Rescore>
     Score         DG    S(hbond)    S(metal)    S(lipo)     H(rot)  DE(clash)    DE(int)     intcor
     18.25     -19.85       1.68        0.00     129.21       2.49       0.01       1.58       ----

> <Gold.Chemscore.Fitness>
18.2536

> <Gold.Chemscore.DG>
-19.8452

> <Gold.Chemscore.ZeroCoef>
-5.4800

> <Gold.Chemscore.Hbond>
1.6827

> <Gold.Chemscore.Metal>
0.0000

> <Gold.Chemscore.Lipo>
129.2118

> <Gold.Chemscore.Internal_Hbond>
0.0000

> <Gold.Chemscore.DEClash>
0.0110

> <Gold.Chemscore.DEInternal>
1.5805

> <Gold.Chemscore.Rot>
2.4894

> <Gold.Chemscore.Internal.Correction>
   9.000000E+99

> <Gold.Chemscore.Hbonds>
donor molecule, donor type, donor heavy atom, donor atom, acceptor molecule, acceptor atom, score
      P1  H  6896  6909       L1    15  0.03
      P1  H  6931  6943       L1    25  0.91
      P1  H  6934  6947       L1    25  0.74

> <Gold.Chemscore.Hbond.Weighted>
-5.6202

> <Gold.Chemscore.Metal.Weighted>
-0.0000

> <Gold.Chemscore.Lipo.Weighted>
-15.1178

> <Gold.Chemscore.Internal_Hbond.Weighted>
0.0000

> <Gold.Chemscore.DEClash.Weighted>
0.0110

> <Gold.Chemscore.DEInternal.Weighted>
1.5805

> <Gold.Chemscore.Rot.Weighted>
6.3728

> <Gold.Chemscore.Internal.Correction.Weighted>
   9.000000E+99

> <Gold.Protein.RotatedTorsions>
[ 6907 6896 6895 6894 ] final    4.52 input  -60.11 | X-H torsion
[ 7974 7965 7964 7962 ] final   -7.14 input  175.53 | X-H torsion
[ 8008 7997 7996 7995 ] final -109.63 input   59.86 | X-H torsion
[ 10167 10162 10161 10158 ] final   81.52 input  -65.29 | X-H torsion
[ 10718 10713 10712 10709 ] final  177.74 input   66.30 | X-H torsion
[ 10763 10752 10751 10750 ] final -161.86 input  -60.55 | X-H torsion
[ 11005 11000 10999 10996 ] final -172.19 input  -57.11 | X-H torsion

> <Gold.Protein.ActiveResidues>
 VAL166  LYS551  ARG553  GLY616  TRP617  ASP618  TYR619  PRO620  LYS621  CYS622 
 ASP623  PHE694  ASN695  SER759  ASP760  ASP761  ALA762  ILE779  LEU786  VAL792 
 PHE793  MET794  SER795  GLU796  ALA797  LYS798  CYS799  TRP800  GLU811  SER814 

> <Gold.Protein.RotatedAtoms>
  151.6427  135.1011  160.0144 H   0  0  0  0  0  0  0  0  0  0  0  0  # atno 6907 bound_to 6896
  152.4045  133.6864  159.6353 H   0  0  0  0  0  0  0  0  0  0  0  0  # atno 6908 bound_to 6896
  150.7941  133.8650  159.3283 H   0  0  0  0  0  0  0  0  0  0  0  0  # atno 6909 bound_to 6896
  146.2314  140.2276  142.8339 H   0  0  0  0  0  0  0  0  0  0  0  0  # atno 7974 bound_to 7965
  154.9623  140.0399  157.2195 H   0  0  0  0  0  0  0  0  0  0  0  0  # atno 8008 bound_to 7997
  154.7878  140.2830  155.5992 H   0  0  0  0  0  0  0  0  0  0  0  0  # atno 8009 bound_to 7997
  156.2945  140.2579  156.2718 H   0  0  0  0  0  0  0  0  0  0  0  0  # atno 8010 bound_to 7997
  139.9384  144.6106  150.8276 H   0  0  0  0  0  0  0  0  0  0  0  0  # atno 10167 bound_to 10162
  156.9008  130.9878  151.3036 H   0  0  0  0  0  0  0  0  0  0  0  0  # atno 10718 bound_to 10713
  154.7266  135.3037  154.8960 H   0  0  0  0  0  0  0  0  0  0  0  0  # atno 10763 bound_to 10752
  153.9816  135.6729  153.4754 H   0  0  0  0  0  0  0  0  0  0  0  0  # atno 10764 bound_to 10752
  153.0881  135.4974  154.8555 H   0  0  0  0  0  0  0  0  0  0  0  0  # atno 10765 bound_to 10752
  140.4998  134.5905  157.4984 H   0  0  0  0  0  0  0  0  0  0  0  0  # atno 11005 bound_to 11000
  144.9583  140.8249  143.5529 LP  0  0  0  0  0  0  0  0  0  0  0  0  # atno 17320 bound_to 7965
  145.2244  139.2144  143.5076 LP  0  0  0  0  0  0  0  0  0  0  0  0  # atno 17321 bound_to 7965
  140.7618  143.3183  151.2682 LP  0  0  0  0  0  0  0  0  0  0  0  0  # atno 17342 bound_to 10162
  139.6725  143.9996  152.2761 LP  0  0  0  0  0  0  0  0  0  0  0  0  # atno 17343 bound_to 10162
  157.6027  130.8524  149.8827 LP  0  0  0  0  0  0  0  0  0  0  0  0  # atno 17370 bound_to 10713
  156.0583  130.3704  150.1041 LP  0  0  0  0  0  0  0  0  0  0  0  0  # atno 17371 bound_to 10713
  139.9720  134.7277  156.0023 LP  0  0  0  0  0  0  0  0  0  0  0  0  # atno 17394 bound_to 11000
  141.1441  133.6559  156.3817 LP  0  0  0  0  0  0  0  0  0  0  0  0  # atno 17395 bound_to 11000

$$$$
