AV-unprocessed.smi:2352|AV-procd|sdf|9379|dock5
  -GOLD-   2272013 03D 1   1.00000     0.00000
 Structure written by MMmdl.
 37 38  0  0  0  0  0  0  0  0  1 V2000
  152.8235  143.1053  161.4882 C   0  0  0  0  0  0  0  0  0  0  0  0
  152.5306  142.1322  160.3597 C   0  0  0  0  0  0  0  0  0  0  0  0
  151.2353  142.1864  159.8367 N   0  0  0  0  0  0  0  0  0  0  0  0
  150.8961  141.3964  158.8712 C   0  0  0  0  0  0  0  0  0  0  0  0
  151.8004  140.4733  158.3208 N   0  0  0  0  0  0  0  0  0  0  0  0
  151.2892  139.6334  157.2242 C   0  0  0  0  0  0  0  0  0  0  0  0
  150.9084  140.4630  155.9778 C   0  0  1  0  0  0  0  0  0  0  0  0
  151.3041  139.7509  154.8217 O   0  0  0  0  0  0  0  0  0  0  0  0
  149.4173  140.7654  155.9590 C   0  0  0  0  0  0  0  0  0  0  0  0
  148.8202  141.2845  154.7912 C   0  0  0  0  0  0  0  0  0  0  0  0
  147.4422  141.5735  154.7655 C   0  0  0  0  0  0  0  0  0  0  0  0
  146.6427  141.3459  155.9062 C   0  0  0  0  0  0  0  0  0  0  0  0
  145.1555  141.6667  155.8749 C   0  0  0  0  0  0  0  0  0  0  0  0
  144.8268  142.3184  154.7587 F   0  0  0  0  0  0  0  0  0  0  0  0
  144.4611  140.5309  155.9283 F   0  0  0  0  0  0  0  0  0  0  0  0
  144.8162  142.4272  156.9163 F   0  0  0  0  0  0  0  0  0  0  0  0
  147.2435  140.8387  157.0789 C   0  0  0  0  0  0  0  0  0  0  0  0
  148.6217  140.5498  157.1052 C   0  0  0  0  0  0  0  0  0  0  0  0
  153.0798  140.3479  158.7784 C   0  0  0  0  0  0  0  0  0  0  0  0
  153.8605  139.5235  158.2983 O   0  0  0  0  0  0  0  0  0  0  0  0
  153.4528  141.2563  159.8748 C   0  0  0  0  0  0  0  0  0  0  0  0
  154.8777  141.1522  160.4044 C   0  0  0  0  0  0  0  0  0  0  0  0
  153.6361  143.7777  161.2120 H   0  0  0  0  0  0  0  0  0  0  0  0
  153.1074  142.5671  162.3930 H   0  0  0  0  0  0  0  0  0  0  0  0
  151.9507  143.7155  161.7236 H   0  0  0  0  0  0  0  0  0  0  0  0
  149.8973  141.3951  158.4316 H   0  0  0  0  0  0  0  0  0  0  0  0
  151.9809  138.8322  156.9550 H   0  0  0  0  0  0  0  0  0  0  0  0
  150.4033  139.1101  157.5899 H   0  0  0  0  0  0  0  0  0  0  0  0
  151.4461  141.4120  155.9774 H   0  0  0  0  0  0  0  0  0  0  0  0
  152.2245  139.5499  154.8950 H   0  0  0  0  0  0  0  0  0  0  0  0
  149.4178  141.4667  153.9098 H   0  0  0  0  0  0  0  0  0  0  0  0
  147.0008  141.9741  153.8647 H   0  0  0  0  0  0  0  0  0  0  0  0
  146.6514  140.6707  157.9664 H   0  0  0  0  0  0  0  0  0  0  0  0
  149.0660  140.1647  158.0116 H   0  0  0  0  0  0  0  0  0  0  0  0
  155.0606  140.1514  160.7971 H   0  0  0  0  0  0  0  0  0  0  0  0
  155.0924  141.8618  161.2018 H   0  0  0  0  0  0  0  0  0  0  0  0
  155.5918  141.3365  159.6009 H   0  0  0  0  0  0  0  0  0  0  0  0
  1  2  1  0  0  0  0
  1 23  1  0  0  0  0
  1 24  1  0  0  0  0
  1 25  1  0  0  0  0
  2 21  2  0  0  0  0
  2  3  1  0  0  0  0
  3  4  2  0  0  0  0
  4  5  1  0  0  0  0
  4 26  1  0  0  0  0
  5  6  1  0  0  0  0
  5 19  1  0  0  0  0
  6  7  1  0  0  0  0
  6 27  1  0  0  0  0
  6 28  1  0  0  0  0
  7  8  1  0  0  0  0
  7  9  1  0  0  0  0
  7 29  1  0  0  0  0
  8 30  1  0  0  0  0
  9 18  1  0  0  0  0
  9 10  2  0  0  0  0
 10 11  1  0  0  0  0
 10 31  1  0  0  0  0
 11 12  2  0  0  0  0
 11 32  1  0  0  0  0
 12 13  1  0  0  0  0
 12 17  1  0  0  0  0
 13 14  1  0  0  0  0
 13 15  1  0  0  0  0
 13 16  1  0  0  0  0
 17 18  2  0  0  0  0
 17 33  1  0  0  0  0
 18 34  1  0  0  0  0
 19 20  2  0  0  0  0
 19 21  1  0  0  0  0
 21 22  1  0  0  0  0
 22 35  1  0  0  0  0
 22 36  1  0  0  0  0
 22 37  1  0  0  0  0
M  END
> <s_m_source_file>
AV-unprocessed.smi

> <i_m_source_file_index>
2352

> <i_lp_mmshare_version>
43012

> <i_f3d_flags>
0

> <s_epik_input>
W0NIM11jMW5bY0hdbihjKD1PKWMxW0NIM10pW0NIMl1bQ0BIXShbT0hdKWMyW2NIXVtjSF1jKEMoRikoRilGKVtjSF1bY0hdMg==

> <s_epik_cmdline>
J2VwaWtfcHl0aG9uJywgJy1waCcsICc3LjAnLCAnLXRuJywgJzgnLCAnLW1hJywgJzIwMCcsICctbWV0YWxfYmluZGluZycsICctaW1hZScsICc8aW5maWxlLm1hZT4nLCAnLW9tYWUnLCAnPG91dGZpbGUubWFlPic=

> <r_lp_tautomer_probability>
1

> <r_epik_Ionization_Penalty>
5.07001e-05

> <r_epik_Ionization_Penalty_Charging>
7.56727e-08

> <r_epik_Ionization_Penalty_Neutral>
5.06244e-05

> <r_epik_State_Penalty>
-0

> <r_epik_Charging_Adjusted_Penalty>
7.56727e-08

> <i_epik_Tot_Q>
0

> <i_epik_Tot_abs_Q>
0

> <r_epik_Metal_State_Penalty>
-0

> <b_epik_Metal_Only>
0

> <s_lp_Force_Field>
OPLS_2005

> <r_lp_Energy>
21.4472

> <b_lp_Chiralities_Consistent>
1

> <s_lp_Variant>
AV-unprocessed.smi:2352-2

> <Gold.Version>
5.8.1

> <Gold.Id.Protein>
6NUR|6NUR_protein|mol2

> <Gold.PLP.Fitness>
47.0609

> <Gold.PLP.PLP>
-43.2918

> <Gold.PLP.part.hbond>
-2.7933

> <Gold.PLP.part.metal>
0.0000

> <Gold.PLP.part.buried>
-3.2661

> <Gold.PLP.part.nonpolar>
-37.8886

> <Gold.PLP.part.repulsive>
0.0002

> <Gold.PLP.ligand.clash>
1.1074

> <Gold.PLP.ligand.torsion>
1.0837

> <Gold.PLP.Chemscore.Hbond>
2.0000

> <Gold.PLP.Chemscore.CHOScore>
0.0000

> <Gold.PLP.Chemscore.Metal>
0.0000

> <Gold.Chemscore.Hbonds>
donor molecule, donor type, donor heavy atom, donor atom, acceptor molecule, acceptor atom, score
      P1  H  7989  7998       L1     8  0.50
      P1  H  7997  8008       L1    20  1.00

> <Gold.PLP.Chemscore.Internal.Correction>
1.0440

> <Gold.Rescore>
     Score         DG    S(hbond)    S(metal)    S(lipo)     H(rot)  DE(clash)    DE(int)     intcor
     13.61     -14.69       1.32        0.00      87.76       2.13       0.19       0.88       ----

> <Gold.Chemscore.Fitness>
13.6127

> <Gold.Chemscore.DG>
-14.6875

> <Gold.Chemscore.ZeroCoef>
-5.4800

> <Gold.Chemscore.Hbond>
1.3186

> <Gold.Chemscore.Metal>
0.0000

> <Gold.Chemscore.Lipo>
87.7626

> <Gold.Chemscore.Internal_Hbond>
0.0000

> <Gold.Chemscore.DEClash>
0.1913

> <Gold.Chemscore.DEInternal>
0.8835

> <Gold.Chemscore.Rot>
2.1347

> <Gold.Chemscore.Internal.Correction>
   9.000000E+99

> <Gold.Chemscore.Hbonds>
donor molecule, donor type, donor heavy atom, donor atom, acceptor molecule, acceptor atom, score
      P1  H  7989  7998       L1     8  0.02
      P1  H  7997  8008       L1    20  0.92

> <Gold.Chemscore.Hbond.Weighted>
-4.4042

> <Gold.Chemscore.Metal.Weighted>
-0.0000

> <Gold.Chemscore.Lipo.Weighted>
-10.2682

> <Gold.Chemscore.Internal_Hbond.Weighted>
0.0000

> <Gold.Chemscore.DEClash.Weighted>
0.1913

> <Gold.Chemscore.DEInternal.Weighted>
0.8835

> <Gold.Chemscore.Rot.Weighted>
5.4649

> <Gold.Chemscore.Internal.Correction.Weighted>
   9.000000E+99

> <Gold.Protein.RotatedTorsions>
[ 6907 6896 6895 6894 ] final  153.85 input  -60.11 | X-H torsion
[ 7974 7965 7964 7962 ] final  -22.12 input  175.53 | X-H torsion
[ 8008 7997 7996 7995 ] final -110.75 input   59.86 | X-H torsion
[ 10167 10162 10161 10158 ] final   78.33 input  -65.29 | X-H torsion
[ 10718 10713 10712 10709 ] final  141.43 input   66.30 | X-H torsion
[ 10763 10752 10751 10750 ] final  -82.76 input  -60.55 | X-H torsion
[ 11005 11000 10999 10996 ] final  124.93 input  -57.11 | X-H torsion

> <Gold.Protein.ActiveResidues>
 VAL166  LYS551  ARG553  GLY616  TRP617  ASP618  TYR619  PRO620  LYS621  CYS622 
 ASP623  PHE694  ASN695  SER759  ASP760  ASP761  ALA762  ILE779  LEU786  VAL792 
 PHE793  MET794  SER795  GLU796  ALA797  LYS798  CYS799  TRP800  GLU811  SER814 

> <Gold.Protein.RotatedAtoms>
  152.0669  133.4088  159.4441 H   0  0  0  0  0  0  0  0  0  0  0  0  # atno 6907 bound_to 6896
  150.6864  134.3136  159.4766 H   0  0  0  0  0  0  0  0  0  0  0  0  # atno 6908 bound_to 6896
  152.0963  134.9372  160.0621 H   0  0  0  0  0  0  0  0  0  0  0  0  # atno 6909 bound_to 6896
  146.1694  140.4435  142.8538 H   0  0  0  0  0  0  0  0  0  0  0  0  # atno 7974 bound_to 7965
  154.9793  140.0396  157.2270 H   0  0  0  0  0  0  0  0  0  0  0  0  # atno 8008 bound_to 7997
  154.7729  140.2805  155.6101 H   0  0  0  0  0  0  0  0  0  0  0  0  # atno 8009 bound_to 7997
  156.2924  140.2606  156.2535 H   0  0  0  0  0  0  0  0  0  0  0  0  # atno 8010 bound_to 7997
  139.9720  144.5887  150.7976 H   0  0  0  0  0  0  0  0  0  0  0  0  # atno 10167 bound_to 10162
  157.3920  131.1006  151.0637 H   0  0  0  0  0  0  0  0  0  0  0  0  # atno 10718 bound_to 10713
  154.5796  135.5580  153.7172 H   0  0  0  0  0  0  0  0  0  0  0  0  # atno 10763 bound_to 10752
  153.0077  135.6317  154.2001 H   0  0  0  0  0  0  0  0  0  0  0  0  # atno 10764 bound_to 10752
  154.1941  135.2881  155.2992 H   0  0  0  0  0  0  0  0  0  0  0  0  # atno 10765 bound_to 10752
  139.9382  134.9638  156.8482 H   0  0  0  0  0  0  0  0  0  0  0  0  # atno 11005 bound_to 11000
  144.8140  140.6436  143.6396 LP  0  0  0  0  0  0  0  0  0  0  0  0  # atno 17320 bound_to 7965
  145.4381  139.1539  143.3985 LP  0  0  0  0  0  0  0  0  0  0  0  0  # atno 17321 bound_to 7965
  140.7518  143.2980  151.3155 LP  0  0  0  0  0  0  0  0  0  0  0  0  # atno 17342 bound_to 10162
  139.6474  144.0426  152.2601 LP  0  0  0  0  0  0  0  0  0  0  0  0  # atno 17343 bound_to 10162
  157.1667  130.6249  149.5627 LP  0  0  0  0  0  0  0  0  0  0  0  0  # atno 17370 bound_to 10713
  155.9801  130.4799  150.6752 LP  0  0  0  0  0  0  0  0  0  0  0  0  # atno 17371 bound_to 10713
  140.6020  134.0162  155.7541 LP  0  0  0  0  0  0  0  0  0  0  0  0  # atno 17394 bound_to 11000
  141.1005  133.9775  157.3087 LP  0  0  0  0  0  0  0  0  0  0  0  0  # atno 17395 bound_to 11000

$$$$
