AV-unprocessed.smi:2414|AV-procd|sdf|9540|dock8
  -GOLD-   2272013173D 1   1.00000     0.00000
 Structure written by MMmdl.
 43 44  0  0  0  0  0  0  0  0  1 V2000
  151.8187  138.5963  157.7671 C   0  0  0  0  0  0  0  0  0  0  0  0
  151.0861  139.0893  156.5655 C   0  0  0  0  0  0  0  0  0  0  0  0
  151.5391  139.9701  155.6150 C   0  0  0  0  0  0  0  0  0  0  0  0
  150.6109  140.2386  154.6069 N   0  0  0  0  0  0  0  0  0  0  0  0
  149.4646  139.5733  154.7758 C   0  0  0  0  0  0  0  0  0  0  0  0
  148.2923  139.6870  153.8488 C   0  0  2  0  0  0  0  0  0  0  0  0
  147.7572  141.1242  153.7712 C   0  0  0  0  0  0  0  0  0  0  0  0
  147.1900  138.6506  154.1420 C   0  0  0  0  0  0  0  0  0  0  0  0
  147.1439  137.6075  153.1236 N   0  0  0  0  0  0  0  0  0  0  0  0
  146.0245  137.1858  152.5231 C   0  0  0  0  0  0  0  0  0  0  0  0
  144.9053  137.6426  152.7564 O   0  0  0  0  0  0  0  0  0  0  0  0
  146.2746  136.2104  151.6398 N   0  0  0  0  0  0  0  0  0  0  0  0
  145.2790  135.5480  150.8022 C   0  0  0  0  0  0  0  0  0  0  0  0
  145.2269  134.0285  151.0700 C   0  0  2  0  0  0  0  0  0  0  0  0
  144.9847  133.6989  152.5559 C   0  0  0  0  0  0  0  0  0  0  0  0
  146.4874  133.3181  150.5440 C   0  0  0  0  0  0  0  0  0  0  0  0
  145.9416  132.0513  149.9227 C   0  0  0  0  0  0  0  0  0  0  0  0
  144.6224  132.5488  149.3528 C   0  0  0  0  0  0  0  0  0  0  0  0
  144.1416  133.4652  150.3276 O   0  0  0  0  0  0  0  0  0  0  0  0
  149.4614  138.5598  156.2148 S   0  0  0  0  0  0  0  0  0  0  0  0
  152.3039  139.4207  158.2900 H   0  0  0  0  0  0  0  0  0  0  0  0
  152.5873  137.8778  157.4823 H   0  0  0  0  0  0  0  0  0  0  0  0
  151.1425  138.1068  158.4682 H   0  0  0  0  0  0  0  0  0  0  0  0
  152.5042  140.4535  155.5791 H   0  0  0  0  0  0  0  0  0  0  0  0
  148.6728  139.4542  152.8531 H   0  0  0  0  0  0  0  0  0  0  0  0
  148.5397  141.8180  153.4622 H   0  0  0  0  0  0  0  0  0  0  0  0
  147.3772  141.4588  154.7370 H   0  0  0  0  0  0  0  0  0  0  0  0
  146.9433  141.2016  153.0500 H   0  0  0  0  0  0  0  0  0  0  0  0
  147.3714  138.1860  155.1127 H   0  0  0  0  0  0  0  0  0  0  0  0
  146.2179  139.1424  154.2013 H   0  0  0  0  0  0  0  0  0  0  0  0
  148.0192  137.1737  152.8688 H   0  0  0  0  0  0  0  0  0  0  0  0
  147.2308  135.9073  151.5245 H   0  0  0  0  0  0  0  0  0  0  0  0
  144.3094  136.0012  151.0113 H   0  0  0  0  0  0  0  0  0  0  0  0
  145.4795  135.7198  149.7433 H   0  0  0  0  0  0  0  0  0  0  0  0
  145.7746  134.1124  153.1834 H   0  0  0  0  0  0  0  0  0  0  0  0
  144.9597  132.6218  152.7224 H   0  0  0  0  0  0  0  0  0  0  0  0
  144.0354  134.1006  152.9108 H   0  0  0  0  0  0  0  0  0  0  0  0
  146.9716  133.9134  149.7685 H   0  0  0  0  0  0  0  0  0  0  0  0
  147.2308  133.1241  151.3181 H   0  0  0  0  0  0  0  0  0  0  0  0
  146.6005  131.6247  149.1661 H   0  0  0  0  0  0  0  0  0  0  0  0
  145.7633  131.2971  150.6902 H   0  0  0  0  0  0  0  0  0  0  0  0
  144.7857  133.0813  148.4147 H   0  0  0  0  0  0  0  0  0  0  0  0
  143.9095  131.7442  149.1713 H   0  0  0  0  0  0  0  0  0  0  0  0
  1  2  1  0  0  0  0
  1 21  1  0  0  0  0
  1 22  1  0  0  0  0
  1 23  1  0  0  0  0
  2 20  1  0  0  0  0
  2  3  2  0  0  0  0
  3  4  1  0  0  0  0
  3 24  1  0  0  0  0
  4  5  2  0  0  0  0
  5  6  1  0  0  0  0
  5 20  1  0  0  0  0
  6  7  1  0  0  0  0
  6  8  1  0  0  0  0
  6 25  1  0  0  0  0
  7 26  1  0  0  0  0
  7 27  1  0  0  0  0
  7 28  1  0  0  0  0
  8  9  1  0  0  0  0
  8 29  1  0  0  0  0
  8 30  1  0  0  0  0
  9 10  1  0  0  0  0
  9 31  1  0  0  0  0
 10 11  2  0  0  0  0
 10 12  1  0  0  0  0
 12 13  1  0  0  0  0
 12 32  1  0  0  0  0
 13 14  1  0  0  0  0
 13 33  1  0  0  0  0
 13 34  1  0  0  0  0
 14 19  1  0  0  0  0
 14 15  1  0  0  0  0
 14 16  1  0  0  0  0
 15 35  1  0  0  0  0
 15 36  1  0  0  0  0
 15 37  1  0  0  0  0
 16 17  1  0  0  0  0
 16 38  1  0  0  0  0
 16 39  1  0  0  0  0
 17 18  1  0  0  0  0
 17 40  1  0  0  0  0
 17 41  1  0  0  0  0
 18 19  1  0  0  0  0
 18 42  1  0  0  0  0
 18 43  1  0  0  0  0
M  END
> <s_m_source_file>
AV-unprocessed.smi

> <i_m_source_file_index>
2414

> <i_lp_mmshare_version>
43012

> <i_f3d_flags>
0

> <s_epik_input>
W0NIM11jMVtjSF1uYyhzMSlbQ0BIXShbQ0gzXSlbQ0gyXVtOSF1DKD1PKVtOSF1bQ0gyXVtDQEBdMihbQ0gzXSlbQ0gyXVtDSDJdW0NIMl1PMg==

> <s_epik_cmdline>
J2VwaWtfcHl0aG9uJywgJy1waCcsICc3LjAnLCAnLXRuJywgJzgnLCAnLW1hJywgJzIwMCcsICctbWV0YWxfYmluZGluZycsICctaW1hZScsICc8aW5maWxlLm1hZT4nLCAnLW9tYWUnLCAnPG91dGZpbGUubWFlPic=

> <r_epik_Ionization_Penalty>
0.000646956

> <r_epik_Ionization_Penalty_Charging>
0

> <r_epik_Ionization_Penalty_Neutral>
0.000646956

> <r_epik_State_Penalty>
0.000375727

> <r_epik_Charging_Adjusted_Penalty>
0.000375727

> <i_epik_Tot_Q>
0

> <i_epik_Tot_abs_Q>
0

> <r_epik_Metal_State_Penalty>
-0

> <b_epik_Metal_Only>
0

> <s_lp_Force_Field>
OPLS_2005

> <r_lp_Energy>
9.0626

> <b_lp_Chiralities_Consistent>
1

> <s_lp_Variant>
AV-unprocessed.smi:2414-3

> <Gold.Version>
5.8.1

> <Gold.Id.Protein>
6NUR|6NUR_protein|mol2

> <Gold.PLP.Fitness>
40.2889

> <Gold.PLP.PLP>
-33.1055

> <Gold.PLP.part.hbond>
-3.0000

> <Gold.PLP.part.metal>
0.0000

> <Gold.PLP.part.buried>
-3.3810

> <Gold.PLP.part.nonpolar>
-26.9155

> <Gold.PLP.part.repulsive>
0.9564

> <Gold.PLP.ligand.clash>
0.0000

> <Gold.PLP.ligand.torsion>
0.9059

> <Gold.PLP.Chemscore.Hbond>
2.9600

> <Gold.PLP.Chemscore.CHOScore>
0.0000

> <Gold.PLP.Chemscore.Metal>
0.0000

> <Gold.Chemscore.Hbonds>
donor molecule, donor type, donor heavy atom, donor atom, acceptor molecule, acceptor atom, score
      L1  H     9    31       P1  7948  1.00
      L1  H    12    32       P1  7948  0.98
      P1  H  7989  7998       L1     4  0.95

> <Gold.PLP.Chemscore.Internal.Correction>
0.1152

> <Gold.Rescore>
     Score         DG    S(hbond)    S(metal)    S(lipo)     H(rot)  DE(clash)    DE(int)     intcor
     19.80     -20.83       2.87        0.00      85.44       1.65       0.13       0.91       ----

> <Gold.Chemscore.Fitness>
19.7955

> <Gold.Chemscore.DG>
-20.8280

> <Gold.Chemscore.ZeroCoef>
-5.4800

> <Gold.Chemscore.Hbond>
2.8687

> <Gold.Chemscore.Metal>
0.0000

> <Gold.Chemscore.Lipo>
85.4352

> <Gold.Chemscore.Internal_Hbond>
0.0000

> <Gold.Chemscore.DEClash>
0.1255

> <Gold.Chemscore.DEInternal>
0.9069

> <Gold.Chemscore.Rot>
1.6522

> <Gold.Chemscore.Internal.Correction>
   9.000000E+99

> <Gold.Chemscore.Hbonds>
donor molecule, donor type, donor heavy atom, donor atom, acceptor molecule, acceptor atom, score
      L1  H     9    31       P1  7948  0.96
      L1  H    12    32       P1  7948  0.92
      P1  H  7989  7998       L1     4  0.21

> <Gold.Chemscore.Hbond.Weighted>
-9.5816

> <Gold.Chemscore.Metal.Weighted>
-0.0000

> <Gold.Chemscore.Lipo.Weighted>
-9.9959

> <Gold.Chemscore.Internal_Hbond.Weighted>
0.0000

> <Gold.Chemscore.DEClash.Weighted>
0.1255

> <Gold.Chemscore.DEInternal.Weighted>
0.9069

> <Gold.Chemscore.Rot.Weighted>
4.2295

> <Gold.Chemscore.Internal.Correction.Weighted>
   9.000000E+99

> <Gold.Protein.RotatedTorsions>
[ 6907 6896 6895 6894 ] final   79.66 input  -60.11 | X-H torsion
[ 7974 7965 7964 7962 ] final   13.10 input  175.53 | X-H torsion
[ 8008 7997 7996 7995 ] final  -38.34 input   59.86 | X-H torsion
[ 10167 10162 10161 10158 ] final  137.95 input  -65.29 | X-H torsion
[ 10718 10713 10712 10709 ] final  110.60 input   66.30 | X-H torsion
[ 10763 10752 10751 10750 ] final    0.66 input  -60.55 | X-H torsion
[ 11005 11000 10999 10996 ] final  -42.87 input  -57.11 | X-H torsion

> <Gold.Protein.ActiveResidues>
 VAL166  LYS551  ARG553  GLY616  TRP617  ASP618  TYR619  PRO620  LYS621  CYS622 
 ASP623  PHE694  ASN695  SER759  ASP760  ASP761  ALA762  ILE779  LEU786  VAL792 
 PHE793  MET794  SER795  GLU796  ALA797  LYS798  CYS799  TRP800  GLU811  SER814 

> <Gold.Protein.RotatedAtoms>
  152.5207  134.3476  159.9239 H   0  0  0  0  0  0  0  0  0  0  0  0  # atno 6907 bound_to 6896
  151.3427  133.3950  159.2680 H   0  0  0  0  0  0  0  0  0  0  0  0  # atno 6908 bound_to 6896
  150.9790  134.9167  159.7891 H   0  0  0  0  0  0  0  0  0  0  0  0  # atno 6909 bound_to 6896
  146.2337  139.9238  142.8506 H   0  0  0  0  0  0  0  0  0  0  0  0  # atno 7974 bound_to 7965
  154.4038  140.1580  156.2685 H   0  0  0  0  0  0  0  0  0  0  0  0  # atno 8008 bound_to 7997
  155.8974  140.3435  155.5979 H   0  0  0  0  0  0  0  0  0  0  0  0  # atno 8009 bound_to 7997
  155.7487  140.0802  157.2202 H   0  0  0  0  0  0  0  0  0  0  0  0  # atno 8010 bound_to 7997
  139.5127  144.6381  151.5643 H   0  0  0  0  0  0  0  0  0  0  0  0  # atno 10167 bound_to 10162
  157.6486  131.0935  150.6625 H   0  0  0  0  0  0  0  0  0  0  0  0  # atno 10718 bound_to 10713
  153.3178  135.6967  153.7057 H   0  0  0  0  0  0  0  0  0  0  0  0  # atno 10763 bound_to 10752
  153.5909  135.3480  155.2911 H   0  0  0  0  0  0  0  0  0  0  0  0  # atno 10764 bound_to 10752
  154.8590  135.4317  154.2334 H   0  0  0  0  0  0  0  0  0  0  0  0  # atno 10765 bound_to 10752
  141.0345  133.6805  156.2655 H   0  0  0  0  0  0  0  0  0  0  0  0  # atno 11005 bound_to 11000
  145.2111  140.9896  143.4100 LP  0  0  0  0  0  0  0  0  0  0  0  0  # atno 17320 bound_to 7965
  144.9690  139.3899  143.6318 LP  0  0  0  0  0  0  0  0  0  0  0  0  # atno 17321 bound_to 7965
  140.6137  143.9388  150.6472 LP  0  0  0  0  0  0  0  0  0  0  0  0  # atno 17342 bound_to 10162
  140.2639  143.3504  152.1298 LP  0  0  0  0  0  0  0  0  0  0  0  0  # atno 17343 bound_to 10162
  156.6939  130.4603  149.5592 LP  0  0  0  0  0  0  0  0  0  0  0  0  # atno 17370 bound_to 10713
  156.1842  130.6518  151.0987 LP  0  0  0  0  0  0  0  0  0  0  0  0  # atno 17371 bound_to 10713
  140.6346  134.5228  157.5563 LP  0  0  0  0  0  0  0  0  0  0  0  0  # atno 17394 bound_to 11000
  139.9231  134.8109  156.1150 LP  0  0  0  0  0  0  0  0  0  0  0  0  # atno 17395 bound_to 11000

$$$$
