AV-unprocessed.smi:244|AV-procd|sdf|1875|dock6
  -GOLD-   2262020513D 1   1.00000     0.00000
 Structure written by MMmdl.
 56 60  0  0  0  0  0  0  0  0  1 V2000
  146.6396  136.9977  158.6747 C   0  0  0  0  0  0  0  0  0  0  0  0
  147.7218  136.7162  159.6114 N   0  0  0  0  0  0  0  0  0  0  0  0
  147.2467  136.5596  160.9892 C   0  0  0  0  0  0  0  0  0  0  0  0
  146.4967  135.2300  161.2119 C   0  0  0  0  0  0  0  0  0  0  0  0
  147.3779  134.0470  160.7976 C   0  0  1  0  0  0  0  0  0  0  0  0
  146.6594  132.8256  160.9345 O   0  0  0  0  0  0  0  0  0  0  0  0
  147.4728  131.7012  160.6132 C   0  0  0  0  0  0  0  0  0  0  0  0
  147.9466  131.8080  159.1540 C   0  0  0  0  0  0  0  0  0  0  0  0
  148.6351  133.0769  158.9347 N   0  0  0  0  0  0  0  0  0  0  0  0
  149.1715  133.1689  157.6975 C   0  0  0  0  0  0  0  0  0  0  0  0
  150.5161  133.2965  157.5420 N   0  0  0  0  0  0  0  0  0  0  0  0
  151.0416  133.3501  156.3141 C   0  0  0  0  0  0  0  0  0  0  0  0
  150.4181  133.2847  155.1351 N   0  0  0  0  0  0  0  0  0  0  0  0
  149.0691  133.1555  155.2932 C   0  0  0  0  0  0  0  0  0  0  0  0
  148.3695  133.0988  156.5297 C   0  0  0  0  0  0  0  0  0  0  0  0
  147.0056  132.9707  156.3037 N   0  0  0  0  0  0  0  0  0  0  0  0
  146.9039  132.9512  155.0025 C   0  0  0  0  0  0  0  0  0  0  0  0
  148.0956  133.0343  154.3170 N   0  0  0  0  0  0  0  0  0  0  0  0
  148.2746  133.0158  152.8737 C   0  0  0  0  0  0  0  0  0  0  0  0
  146.9515  132.9992  152.0655 C   0  0  0  0  0  0  0  0  0  0  0  0
  147.3452  132.9781  150.7053 O   0  0  0  0  0  0  0  0  0  0  0  0
  146.0901  131.7479  152.3432 C   0  0  0  0  0  0  0  0  0  0  0  0
  144.7425  131.8019  151.6008 C   0  0  0  0  0  0  0  0  0  0  0  0
  144.0441  132.9933  151.9437 O   0  0  0  0  0  0  0  0  0  0  0  0
  144.7393  134.1737  151.5587 C   0  0  0  0  0  0  0  0  0  0  0  0
  146.0861  134.2568  152.2998 C   0  0  0  0  0  0  0  0  0  0  0  0
  147.8196  134.2263  159.3322 C   0  0  2  0  0  0  0  0  0  0  0  0
  148.5531  135.5860  159.1869 C   0  0  0  0  0  0  0  0  0  0  0  0
  146.1012  137.8957  158.9788 H   0  0  0  0  0  0  0  0  0  0  0  0
  145.9216  136.1812  158.6095 H   0  0  0  0  0  0  0  0  0  0  0  0
  147.0399  137.1758  157.6762 H   0  0  0  0  0  0  0  0  0  0  0  0
  148.1112  136.5988  161.6530 H   0  0  0  0  0  0  0  0  0  0  0  0
  146.6134  137.4052  161.2593 H   0  0  0  0  0  0  0  0  0  0  0  0
  146.2216  135.1352  162.2625 H   0  0  0  0  0  0  0  0  0  0  0  0
  145.5624  135.2184  160.6503 H   0  0  0  0  0  0  0  0  0  0  0  0
  148.2533  134.0194  161.4501 H   0  0  0  0  0  0  0  0  0  0  0  0
  148.3232  131.6458  161.2947 H   0  0  0  0  0  0  0  0  0  0  0  0
  146.8922  130.7898  160.7546 H   0  0  0  0  0  0  0  0  0  0  0  0
  148.6136  130.9779  158.9174 H   0  0  0  0  0  0  0  0  0  0  0  0
  147.0875  131.7315  158.4857 H   0  0  0  0  0  0  0  0  0  0  0  0
  152.1155  133.4543  156.2696 H   0  0  0  0  0  0  0  0  0  0  0  0
  145.9504  132.8598  154.5027 H   0  0  0  0  0  0  0  0  0  0  0  0
  148.8720  133.8863  152.5988 H   0  0  0  0  0  0  0  0  0  0  0  0
  148.8787  132.1431  152.6206 H   0  0  0  0  0  0  0  0  0  0  0  0
  148.0378  132.3432  150.6026 H   0  0  0  0  0  0  0  0  0  0  0  0
  146.6330  130.8409  152.0741 H   0  0  0  0  0  0  0  0  0  0  0  0
  145.8779  131.6731  153.4096 H   0  0  0  0  0  0  0  0  0  0  0  0
  144.8831  131.7476  150.5203 H   0  0  0  0  0  0  0  0  0  0  0  0
  144.1296  130.9450  151.8809 H   0  0  0  0  0  0  0  0  0  0  0  0
  144.8804  134.1907  150.4770 H   0  0  0  0  0  0  0  0  0  0  0  0
  144.1242  135.0383  151.8086 H   0  0  0  0  0  0  0  0  0  0  0  0
  145.8702  134.3668  153.3621 H   0  0  0  0  0  0  0  0  0  0  0  0
  146.6264  135.1559  152.0008 H   0  0  0  0  0  0  0  0  0  0  0  0
  146.9319  134.2278  158.6986 H   0  0  0  0  0  0  0  0  0  0  0  0
  148.8701  135.7560  158.1574 H   0  0  0  0  0  0  0  0  0  0  0  0
  149.4609  135.5777  159.7918 H   0  0  0  0  0  0  0  0  0  0  0  0
  1  2  1  0  0  0  0
  1 29  1  0  0  0  0
  1 30  1  0  0  0  0
  1 31  1  0  0  0  0
  2 28  1  0  0  0  0
  2  3  1  0  0  0  0
  3  4  1  0  0  0  0
  3 32  1  0  0  0  0
  3 33  1  0  0  0  0
  4  5  1  0  0  0  0
  4 34  1  0  0  0  0
  4 35  1  0  0  0  0
  5 27  1  0  0  0  0
  5  6  1  0  0  0  0
  5 36  1  0  0  0  0
  6  7  1  0  0  0  0
  7  8  1  0  0  0  0
  7 37  1  0  0  0  0
  7 38  1  0  0  0  0
  8  9  1  0  0  0  0
  8 39  1  0  0  0  0
  8 40  1  0  0  0  0
  9 10  1  0  0  0  0
  9 27  1  0  0  0  0
 10 15  1  0  0  0  0
 10 11  2  0  0  0  0
 11 12  1  0  0  0  0
 12 13  2  0  0  0  0
 12 41  1  0  0  0  0
 13 14  1  0  0  0  0
 14 18  1  0  0  0  0
 14 15  2  0  0  0  0
 15 16  1  0  0  0  0
 16 17  2  0  0  0  0
 17 18  1  0  0  0  0
 17 42  1  0  0  0  0
 18 19  1  0  0  0  0
 19 20  1  0  0  0  0
 19 43  1  0  0  0  0
 19 44  1  0  0  0  0
 20 26  1  0  0  0  0
 20 21  1  0  0  0  0
 20 22  1  0  0  0  0
 21 45  1  0  0  0  0
 22 23  1  0  0  0  0
 22 46  1  0  0  0  0
 22 47  1  0  0  0  0
 23 24  1  0  0  0  0
 23 48  1  0  0  0  0
 23 49  1  0  0  0  0
 24 25  1  0  0  0  0
 25 26  1  0  0  0  0
 25 50  1  0  0  0  0
 25 51  1  0  0  0  0
 26 52  1  0  0  0  0
 26 53  1  0  0  0  0
 27 28  1  0  0  0  0
 27 54  1  0  0  0  0
 28 55  1  0  0  0  0
 28 56  1  0  0  0  0
M  END
> <s_m_source_file>
AV-unprocessed.smi

> <i_m_source_file_index>
244

> <i_lp_mmshare_version>
43012

> <i_f3d_flags>
0

> <s_epik_input>
W0NIMl0xW0NIMl1OKFtDSDNdKVtDSDJdW0NAQEhdKFtDQEhdMTIpTihbQ0gyXVtDSDJdTzIpYyhuW2NIXW4zKWMoYzM0KW5bY0hdbjRbQ0gyXUM1KFtPSF0pW0NIMl1bQ0gyXU9bQ0gyXVtDSDJdNQ==

> <s_epik_cmdline>
J2VwaWtfcHl0aG9uJywgJy1waCcsICc3LjAnLCAnLXRuJywgJzgnLCAnLW1hJywgJzIwMCcsICctbWV0YWxfYmluZGluZycsICctaW1hZScsICc8aW5maWxlLm1hZT4nLCAnLW9tYWUnLCAnPG91dGZpbGUubWFlPic=

> <r_lp_tautomer_probability>
1

> <r_epik_Ionization_Penalty>
2.27765

> <r_epik_Ionization_Penalty_Charging>
0

> <r_epik_Ionization_Penalty_Neutral>
2.27765

> <r_epik_State_Penalty>
2.4114

> <r_epik_Charging_Adjusted_Penalty>
2.4114

> <i_epik_Tot_Q>
0

> <i_epik_Tot_abs_Q>
0

> <r_epik_Metal_State_Penalty>
2.39769

> <b_epik_Metal_Only>
0

> <s_lp_Force_Field>
OPLS_2005

> <r_lp_Energy>
45.6912

> <b_lp_Chiralities_Consistent>
1

> <s_lp_Variant>
AV-unprocessed.smi:244-12

> <Gold.Version>
5.8.1

> <Gold.Id.Protein>
6NUR|6NUR_protein|mol2

> <Gold.PLP.Fitness>
36.9997

> <Gold.PLP.PLP>
-31.0917

> <Gold.PLP.part.hbond>
-2.6221

> <Gold.PLP.part.metal>
0.0000

> <Gold.PLP.part.buried>
-3.6311

> <Gold.PLP.part.nonpolar>
-24.8489

> <Gold.PLP.part.repulsive>
0.2101

> <Gold.PLP.ligand.clash>
0.0000

> <Gold.PLP.ligand.torsion>
0.0990

> <Gold.PLP.Chemscore.Hbond>
2.0000

> <Gold.PLP.Chemscore.CHOScore>
0.0000

> <Gold.PLP.Chemscore.Metal>
0.0000

> <Gold.Chemscore.Hbonds>
donor molecule, donor type, donor heavy atom, donor atom, acceptor molecule, acceptor atom, score
      L1  H    21    45       P1 10747  1.00
      P1  H  6896  6907       L1    11  0.98

> <Gold.PLP.Chemscore.Internal.Correction>
0.1060

> <Gold.Rescore>
     Score         DG    S(hbond)    S(metal)    S(lipo)     H(rot)  DE(clash)    DE(int)     intcor
     13.93     -14.96       1.90        0.00      71.79       2.06       0.02       1.01       ----

> <Gold.Chemscore.Fitness>
13.9282

> <Gold.Chemscore.DG>
-14.9581

> <Gold.Chemscore.ZeroCoef>
-5.4800

> <Gold.Chemscore.Hbond>
1.9029

> <Gold.Chemscore.Metal>
0.0000

> <Gold.Chemscore.Lipo>
71.7860

> <Gold.Chemscore.Internal_Hbond>
0.0000

> <Gold.Chemscore.DEClash>
0.0236

> <Gold.Chemscore.DEInternal>
1.0064

> <Gold.Chemscore.Rot>
2.0611

> <Gold.Chemscore.Internal.Correction>
   9.000000E+99

> <Gold.Chemscore.Hbonds>
donor molecule, donor type, donor heavy atom, donor atom, acceptor molecule, acceptor atom, score
      L1  H    21    45       P1 10747  1.00
      P1  H  6896  6907       L1    11  0.42

> <Gold.Chemscore.Hbond.Weighted>
-6.3557

> <Gold.Chemscore.Metal.Weighted>
-0.0000

> <Gold.Chemscore.Lipo.Weighted>
-8.3990

> <Gold.Chemscore.Internal_Hbond.Weighted>
0.0000

> <Gold.Chemscore.DEClash.Weighted>
0.0236

> <Gold.Chemscore.DEInternal.Weighted>
1.0064

> <Gold.Chemscore.Rot.Weighted>
5.2765

> <Gold.Chemscore.Internal.Correction.Weighted>
   9.000000E+99

> <Gold.Protein.RotatedTorsions>
[ 6907 6896 6895 6894 ] final -146.16 input  -60.11 | X-H torsion
[ 7974 7965 7964 7962 ] final   77.21 input  175.53 | X-H torsion
[ 8008 7997 7996 7995 ] final   81.38 input   59.86 | X-H torsion
[ 10167 10162 10161 10158 ] final -174.84 input  -65.29 | X-H torsion
[ 10718 10713 10712 10709 ] final  -64.66 input   66.30 | X-H torsion
[ 10763 10752 10751 10750 ] final  174.97 input  -60.55 | X-H torsion
[ 11005 11000 10999 10996 ] final -142.60 input  -57.11 | X-H torsion

> <Gold.Protein.ActiveResidues>
 VAL166  LYS551  ARG553  GLY616  TRP617  ASP618  TYR619  PRO620  LYS621  CYS622 
 ASP623  PHE694  ASN695  SER759  ASP760  ASP761  ALA762  ILE779  LEU786  VAL792 
 PHE793  MET794  SER795  GLU796  ALA797  LYS798  CYS799  TRP800  GLU811  SER814 

> <Gold.Protein.RotatedAtoms>
  151.1378  133.4992  159.2597 H   0  0  0  0  0  0  0  0  0  0  0  0  # atno 6907 bound_to 6896
  151.1687  135.0307  159.8752 H   0  0  0  0  0  0  0  0  0  0  0  0  # atno 6908 bound_to 6896
  152.5461  134.1244  159.8466 H   0  0  0  0  0  0  0  0  0  0  0  0  # atno 6909 bound_to 6896
  145.6930  139.2558  143.1749 H   0  0  0  0  0  0  0  0  0  0  0  0  # atno 7974 bound_to 7965
  155.8963  140.3436  155.5993 H   0  0  0  0  0  0  0  0  0  0  0  0  # atno 8008 bound_to 7997
  155.7552  140.0825  157.2201 H   0  0  0  0  0  0  0  0  0  0  0  0  # atno 8009 bound_to 7997
  154.4038  140.1546  156.2756 H   0  0  0  0  0  0  0  0  0  0  0  0  # atno 8010 bound_to 7997
  139.5612  144.1864  152.1242 H   0  0  0  0  0  0  0  0  0  0  0  0  # atno 10167 bound_to 10162
  156.0716  130.4236  150.1452 H   0  0  0  0  0  0  0  0  0  0  0  0  # atno 10718 bound_to 10713
  154.4611  135.2768  155.1712 H   0  0  0  0  0  0  0  0  0  0  0  0  # atno 10763 bound_to 10752
  154.3499  135.6152  153.5641 H   0  0  0  0  0  0  0  0  0  0  0  0  # atno 10764 bound_to 10752
  152.9855  135.5809  154.4974 H   0  0  0  0  0  0  0  0  0  0  0  0  # atno 10765 bound_to 10752
  140.8209  134.2632  157.4901 H   0  0  0  0  0  0  0  0  0  0  0  0  # atno 11005 bound_to 11000
  146.0865  140.7705  142.9616 LP  0  0  0  0  0  0  0  0  0  0  0  0  # atno 17320 bound_to 7965
  144.6991  140.3570  143.7171 LP  0  0  0  0  0  0  0  0  0  0  0  0  # atno 17321 bound_to 7965
  140.1378  144.5229  150.6762 LP  0  0  0  0  0  0  0  0  0  0  0  0  # atno 17342 bound_to 10162
  140.6892  143.2366  151.5177 LP  0  0  0  0  0  0  0  0  0  0  0  0  # atno 17343 bound_to 10162
  156.9501  130.9772  151.3500 LP  0  0  0  0  0  0  0  0  0  0  0  0  # atno 17370 bound_to 10713
  157.5789  130.8363  149.8495 LP  0  0  0  0  0  0  0  0  0  0  0  0  # atno 17371 bound_to 10713
  139.8708  134.9534  156.4146 LP  0  0  0  0  0  0  0  0  0  0  0  0  # atno 17394 bound_to 11000
  140.9100  133.7718  155.9780 LP  0  0  0  0  0  0  0  0  0  0  0  0  # atno 17395 bound_to 11000

$$$$
