AV-unprocessed.smi:1434|AV-procd|sdf|5853|dock6
  -GOLD-   22720 5523D 1   1.00000     0.00000
 Structure written by MMmdl.
 43 44  0  0  0  0  0  0  0  0  2 V2000
  143.8137  141.0442  159.8058 C   0  0  0  0  0  0  0  0  0  0  0  0
  145.3747  141.1496  158.8437 S   0  0  0  0  0  0  0  0  0  0  0  0
  146.2885  141.9733  159.6515 O   0  0  0  0  0  0  0  0  0  0  0  0
  145.7769  139.7581  158.5825 O   0  0  0  0  0  0  0  0  0  0  0  0
  144.8520  141.9140  157.5122 N   0  5  0  0  0  0  0  0  0  0  0  0
  145.8004  142.3026  156.4787 C   0  0  2  0  0  0  0  0  0  0  0  0
  145.0794  142.9992  155.2933 C   0  0  0  0  0  0  0  0  0  0  0  0
  145.9871  143.2046  154.0504 C   0  0  0  0  0  0  0  0  0  0  0  0
  146.7159  141.9087  153.6280 C   0  0  0  0  0  0  0  0  0  0  0  0
  147.4392  141.4014  154.8157 N   0  0  0  0  0  0  0  0  0  0  0  0
  148.7881  141.2727  154.9268 C   0  0  0  0  0  0  0  0  0  0  0  0
  149.5430  141.1975  153.9562 O   0  0  0  0  0  0  0  0  0  0  0  0
  149.2425  141.1741  156.1878 N   0  0  0  0  0  0  0  0  0  0  0  0
  150.6335  140.9521  156.5652 C   0  0  0  0  0  0  0  0  0  0  0  0
  150.8228  141.0347  158.0892 C   0  0  0  0  0  0  0  0  0  0  0  0
  151.1943  142.4318  158.5479 C   0  0  0  0  0  0  0  0  0  0  0  0
  152.5348  142.7622  158.8404 C   0  0  0  0  0  0  0  0  0  0  0  0
  152.8247  144.0731  159.2662 C   0  0  0  0  0  0  0  0  0  0  0  0
  151.7688  144.9973  159.3842 C   0  0  0  0  0  0  0  0  0  0  0  0
  150.4639  144.5677  159.0699 C   0  0  0  0  0  0  0  0  0  0  0  0
  150.1753  143.3135  158.6605 N   0  0  0  0  0  0  0  0  0  0  0  0
  146.5274  141.0447  155.9274 C   0  0  0  0  0  0  0  0  0  0  0  0
  144.0076  140.5422  160.7531 H   0  0  0  0  0  0  0  0  0  0  0  0
  143.0756  140.4776  159.2389 H   0  0  0  0  0  0  0  0  0  0  0  0
  143.4356  142.0480  159.9965 H   0  0  0  0  0  0  0  0  0  0  0  0
  146.5610  142.9808  156.8679 H   0  0  0  0  0  0  0  0  0  0  0  0
  144.2205  142.3972  154.9921 H   0  0  0  0  0  0  0  0  0  0  0  0
  144.6783  143.9623  155.6089 H   0  0  0  0  0  0  0  0  0  0  0  0
  145.3862  143.5742  153.2192 H   0  0  0  0  0  0  0  0  0  0  0  0
  146.7249  143.9833  154.2546 H   0  0  0  0  0  0  0  0  0  0  0  0
  145.9893  141.1595  153.3099 H   0  0  0  0  0  0  0  0  0  0  0  0
  147.3431  142.0975  152.7571 H   0  0  0  0  0  0  0  0  0  0  0  0
  148.5677  141.2269  156.9367 H   0  0  0  0  0  0  0  0  0  0  0  0
  150.9738  139.9868  156.1863 H   0  0  0  0  0  0  0  0  0  0  0  0
  151.2429  141.7113  156.0744 H   0  0  0  0  0  0  0  0  0  0  0  0
  149.9086  140.7218  158.5956 H   0  0  0  0  0  0  0  0  0  0  0  0
  151.6022  140.3431  158.4125 H   0  0  0  0  0  0  0  0  0  0  0  0
  153.3232  142.0305  158.7420 H   0  0  0  0  0  0  0  0  0  0  0  0
  153.8386  144.3641  159.4981 H   0  0  0  0  0  0  0  0  0  0  0  0
  151.9537  146.0109  159.7075 H   0  0  0  0  0  0  0  0  0  0  0  0
  149.6300  145.2492  159.1494 H   0  0  0  0  0  0  0  0  0  0  0  0
  147.0466  140.5402  156.7440 H   0  0  0  0  0  0  0  0  0  0  0  0
  145.7989  140.3215  155.5568 H   0  0  0  0  0  0  0  0  0  0  0  0
  1  2  1  0  0  0  0
  1 23  1  0  0  0  0
  1 24  1  0  0  0  0
  1 25  1  0  0  0  0
  2  3  2  0  0  0  0
  2  4  2  0  0  0  0
  2  5  1  0  0  0  0
  5  6  1  0  0  0  0
  6 22  1  0  0  0  0
  6  7  1  0  0  0  0
  6 26  1  0  0  0  0
  7  8  1  0  0  0  0
  7 27  1  0  0  0  0
  7 28  1  0  0  0  0
  8  9  1  0  0  0  0
  8 29  1  0  0  0  0
  8 30  1  0  0  0  0
  9 10  1  0  0  0  0
  9 31  1  0  0  0  0
  9 32  1  0  0  0  0
 10 11  1  0  0  0  0
 10 22  1  0  0  0  0
 11 12  2  0  0  0  0
 11 13  1  0  0  0  0
 13 14  1  0  0  0  0
 13 33  1  0  0  0  0
 14 15  1  0  0  0  0
 14 34  1  0  0  0  0
 14 35  1  0  0  0  0
 15 16  1  0  0  0  0
 15 36  1  0  0  0  0
 15 37  1  0  0  0  0
 16 21  1  0  0  0  0
 16 17  2  0  0  0  0
 17 18  1  0  0  0  0
 17 38  1  0  0  0  0
 18 19  2  0  0  0  0
 18 39  1  0  0  0  0
 19 20  1  0  0  0  0
 19 40  1  0  0  0  0
 20 21  2  0  0  0  0
 20 41  1  0  0  0  0
 22 42  1  0  0  0  0
 22 43  1  0  0  0  0
M  CHG  1   5  -1
M  END
> <s_m_source_file>
AV-unprocessed.smi

> <i_m_source_file_index>
1434

> <i_lp_mmshare_version>
43012

> <i_f3d_flags>
0

> <s_epik_input>
W0NIM11TKD1PKSg9TylbTkhdW0NAQEhdMVtDSDJdW0NIMl1bQ0gyXU4oW0NIMl0xKUMoPU8pW05IXVtDSDJdW0NIMl1jMltjSF1bY0hdW2NIXVtjSF1uMg==

> <s_epik_cmdline>
J2VwaWtfcHl0aG9uJywgJy1waCcsICc3LjAnLCAnLXRuJywgJzgnLCAnLW1hJywgJzIwMCcsICctbWV0YWxfYmluZGluZycsICctaW1hZScsICc8aW5maWxlLm1hZT4nLCAnLW9tYWUnLCAnPG91dGZpbGUubWFlPic=

> <r_epik_Ionization_Penalty>
6.57847

> <r_epik_Ionization_Penalty_Charging>
6.53351

> <r_epik_Ionization_Penalty_Neutral>
0.0449527

> <r_epik_State_Penalty>
6.57157

> <r_epik_Charging_Adjusted_Penalty>
13.1051

> <i_epik_Tot_Q>
-1

> <i_epik_Tot_abs_Q>
1

> <r_epik_Metal_State_Penalty>
2.53928

> <b_epik_Metal_Only>
1

> <s_lp_Force_Field>
OPLS_2005

> <r_lp_Energy>
19.5099

> <b_lp_Chiralities_Consistent>
1

> <s_lp_Variant>
AV-unprocessed.smi:1434-5

> <Gold.Version>
5.8.1

> <Gold.Id.Protein>
6NUR|6NUR_protein|mol2

> <Gold.PLP.Fitness>
45.8136

> <Gold.PLP.PLP>
-38.8152

> <Gold.PLP.part.hbond>
-3.8124

> <Gold.PLP.part.metal>
0.0000

> <Gold.PLP.part.buried>
-6.9553

> <Gold.PLP.part.nonpolar>
-30.1890

> <Gold.PLP.part.repulsive>
1.3816

> <Gold.PLP.ligand.clash>
0.7031

> <Gold.PLP.ligand.torsion>
1.3211

> <Gold.PLP.Chemscore.Hbond>
2.1046

> <Gold.PLP.Chemscore.CHOScore>
1.0000

> <Gold.PLP.Chemscore.Metal>
0.0000

> <Gold.Chemscore.Hbonds>
donor molecule, donor type, donor heavy atom, donor atom, acceptor molecule, acceptor atom, score
      P1  H  6934  6946       L1     3  1.00
      P1  H  7989  7998       L1    12  0.25
      P1  H  8011  8017       L1    12  0.80
      L1  C    20    41       P1  8029  0.70

> <Gold.PLP.Chemscore.Internal.Correction>
1.0299

> <Gold.Rescore>
     Score         DG    S(hbond)    S(metal)    S(lipo)     H(rot)  DE(clash)    DE(int)     intcor
     15.70     -17.27       1.79        0.00      86.40       1.68       0.16       1.41       ----

> <Gold.Chemscore.Fitness>
15.6999

> <Gold.Chemscore.DG>
-17.2698

> <Gold.Chemscore.ZeroCoef>
-5.4800

> <Gold.Chemscore.Hbond>
1.7920

> <Gold.Chemscore.Metal>
0.0000

> <Gold.Chemscore.Lipo>
86.4011

> <Gold.Chemscore.Internal_Hbond>
0.0000

> <Gold.Chemscore.DEClash>
0.1559

> <Gold.Chemscore.DEInternal>
1.4140

> <Gold.Chemscore.Rot>
1.6813

> <Gold.Chemscore.Internal.Correction>
   9.000000E+99

> <Gold.Chemscore.Hbonds>
donor molecule, donor type, donor heavy atom, donor atom, acceptor molecule, acceptor atom, score
      P1  H  6934  6946       L1     3  0.34
      P1  H  7989  7998       L1    12  0.25
      P1  H  8011  8017       L1    12  0.74

> <Gold.Chemscore.Hbond.Weighted>
-5.9851

> <Gold.Chemscore.Metal.Weighted>
-0.0000

> <Gold.Chemscore.Lipo.Weighted>
-10.1089

> <Gold.Chemscore.Internal_Hbond.Weighted>
0.0000

> <Gold.Chemscore.DEClash.Weighted>
0.1559

> <Gold.Chemscore.DEInternal.Weighted>
1.4140

> <Gold.Chemscore.Rot.Weighted>
4.3042

> <Gold.Chemscore.Internal.Correction.Weighted>
   9.000000E+99

> <Gold.Protein.RotatedTorsions>
[ 6907 6896 6895 6894 ] final  -47.68 input  -60.11 | X-H torsion
[ 7974 7965 7964 7962 ] final  118.49 input  175.53 | X-H torsion
[ 8008 7997 7996 7995 ] final -118.59 input   59.86 | X-H torsion
[ 10167 10162 10161 10158 ] final   -2.14 input  -65.29 | X-H torsion
[ 10718 10713 10712 10709 ] final -145.25 input   66.30 | X-H torsion
[ 10763 10752 10751 10750 ] final  144.22 input  -60.55 | X-H torsion
[ 11005 11000 10999 10996 ] final  113.59 input  -57.11 | X-H torsion

> <Gold.Protein.ActiveResidues>
 VAL166  LYS551  ARG553  GLY616  TRP617  ASP618  TYR619  PRO620  LYS621  CYS622 
 ASP623  PHE694  ASN695  SER759  ASP760  ASP761  ALA762  ILE779  LEU786  VAL792 
 PHE793  MET794  SER795  GLU796  ALA797  LYS798  CYS799  TRP800  GLU811  SER814 

> <Gold.Protein.RotatedAtoms>
  150.8983  134.8393  159.7341 H   0  0  0  0  0  0  0  0  0  0  0  0  # atno 6907 bound_to 6896
  152.4878  134.4541  159.9594 H   0  0  0  0  0  0  0  0  0  0  0  0  # atno 6908 bound_to 6896
  151.4596  133.3557  159.2842 H   0  0  0  0  0  0  0  0  0  0  0  0  # atno 6909 bound_to 6896
  145.1546  139.3190  143.4549 H   0  0  0  0  0  0  0  0  0  0  0  0  # atno 7974 bound_to 7965
  155.1021  140.0396  157.2700 H   0  0  0  0  0  0  0  0  0  0  0  0  # atno 8008 bound_to 7997
  154.6750  140.2620  155.6942 H   0  0  0  0  0  0  0  0  0  0  0  0  # atno 8009 bound_to 7997
  156.2673  140.2790  156.1273 H   0  0  0  0  0  0  0  0  0  0  0  0  # atno 8010 bound_to 7997
  140.6839  143.6693  150.8199 H   0  0  0  0  0  0  0  0  0  0  0  0  # atno 10167 bound_to 10162
  156.3802  130.7833  151.2024 H   0  0  0  0  0  0  0  0  0  0  0  0  # atno 10718 bound_to 10713
  153.9853  135.2937  155.3417 H   0  0  0  0  0  0  0  0  0  0  0  0  # atno 10763 bound_to 10752
  154.7246  135.5094  153.8869 H   0  0  0  0  0  0  0  0  0  0  0  0  # atno 10764 bound_to 10752
  153.0835  135.6686  154.0111 H   0  0  0  0  0  0  0  0  0  0  0  0  # atno 10765 bound_to 10752
  139.8957  134.9552  156.6762 H   0  0  0  0  0  0  0  0  0  0  0  0  # atno 11005 bound_to 11000
  146.3490  140.1633  142.8590 LP  0  0  0  0  0  0  0  0  0  0  0  0  # atno 17320 bound_to 7965
  145.0395  140.8934  143.5061 LP  0  0  0  0  0  0  0  0  0  0  0  0  # atno 17321 bound_to 7965
  140.0397  143.5359  152.2723 LP  0  0  0  0  0  0  0  0  0  0  0  0  # atno 17342 bound_to 10162
  139.6181  144.7623  151.2800 LP  0  0  0  0  0  0  0  0  0  0  0  0  # atno 17343 bound_to 10162
  157.7491  131.0346  150.4326 LP  0  0  0  0  0  0  0  0  0  0  0  0  # atno 17370 bound_to 10713
  156.4569  130.4023  149.6601 LP  0  0  0  0  0  0  0  0  0  0  0  0  # atno 17371 bound_to 10713
  140.7334  133.9039  155.8227 LP  0  0  0  0  0  0  0  0  0  0  0  0  # atno 17394 bound_to 11000
  141.0135  134.0988  157.4197 LP  0  0  0  0  0  0  0  0  0  0  0  0  # atno 17395 bound_to 11000

$$$$
