AV-unprocessed.smi:2691|AV-procd|sdf|10392|dock5
  -GOLD-   2272014423D 1   1.00000     0.00000
 Structure written by MMmdl.
 50 52  0  0  0  0  0  0  0  0  2 V2000
  142.6253  145.9283  154.5921 C   0  0  0  0  0  0  0  0  0  0  0  0
  143.5887  144.7543  154.6324 C   0  0  0  0  0  0  0  0  0  0  0  0
  143.4204  143.7779  155.6406 C   0  0  0  0  0  0  0  0  0  0  0  0
  144.3162  142.7151  155.6504 C   0  0  0  0  0  0  0  0  0  0  0  0
  144.4160  141.6079  156.4965 N   0  3  0  0  0  0  0  0  0  0  0  0
  145.4640  140.8304  156.1056 C   0  0  0  0  0  0  0  0  0  0  0  0
  146.0347  141.4264  155.0238 N   0  0  0  0  0  0  0  0  0  0  0  0
  147.1849  141.0095  154.2110 C   0  0  0  0  0  0  0  0  0  0  0  0
  148.5350  141.3672  154.8634 C   0  0  2  0  0  0  0  0  0  0  0  0
  149.5259  141.3401  153.8541 O   0  0  0  0  0  0  0  0  0  0  0  0
  148.9207  140.3663  155.9747 C   0  0  0  0  0  0  0  0  0  0  0  0
  149.9225  140.9301  156.8941 N   0  0  0  0  0  0  0  0  0  0  0  0
  149.6252  142.1876  157.4554 C   0  0  0  0  0  0  0  0  0  0  0  0
  150.4428  142.7848  158.2626 N   0  0  0  0  0  0  0  0  0  0  0  0
  151.6589  142.1776  158.5954 C   0  0  0  0  0  0  0  0  0  0  0  0
  152.5744  142.9365  159.5473 C   0  0  0  0  0  0  0  0  0  0  0  0
  152.8952  142.1103  160.8031 C   0  0  0  0  0  0  0  0  0  0  0  0
  151.9964  144.3140  159.9075 C   0  0  0  0  0  0  0  0  0  0  0  0
  151.9914  140.9704  158.0770 C   0  0  0  0  0  0  0  0  0  0  0  0
  151.0901  140.2753  157.1585 C   0  0  0  0  0  0  0  0  0  0  0  0
  151.3665  139.1858  156.6564 O   0  0  0  0  0  0  0  0  0  0  0  0
  145.3524  142.6041  154.7035 C   0  0  0  0  0  0  0  0  0  0  0  0
  145.5334  143.5567  153.7041 C   0  0  0  0  0  0  0  0  0  0  0  0
  144.6325  144.6452  153.6769 C   0  0  0  0  0  0  0  0  0  0  0  0
  144.8054  145.7011  152.5986 C   0  0  0  0  0  0  0  0  0  0  0  0
  141.8741  145.8558  155.3791 H   0  0  0  0  0  0  0  0  0  0  0  0
  142.1022  145.9633  153.6359 H   0  0  0  0  0  0  0  0  0  0  0  0
  143.1614  146.8676  154.7290 H   0  0  0  0  0  0  0  0  0  0  0  0
  142.6287  143.8547  156.3717 H   0  0  0  0  0  0  0  0  0  0  0  0
  145.7820  139.9061  156.5662 H   0  0  0  0  0  0  0  0  0  0  0  0
  147.1066  139.9359  154.0352 H   0  0  0  0  0  0  0  0  0  0  0  0
  147.0926  141.4903  153.2361 H   0  0  0  0  0  0  0  0  0  0  0  0
  148.4773  142.3780  155.2691 H   0  0  0  0  0  0  0  0  0  0  0  0
  149.2839  140.6898  153.2117 H   0  0  0  0  0  0  0  0  0  0  0  0
  148.0299  140.0972  156.5461 H   0  0  0  0  0  0  0  0  0  0  0  0
  149.2538  139.4182  155.5477 H   0  0  0  0  0  0  0  0  0  0  0  0
  148.6681  142.6196  157.1576 H   0  0  0  0  0  0  0  0  0  0  0  0
  153.5182  143.1100  159.0275 H   0  0  0  0  0  0  0  0  0  0  0  0
  153.3265  141.1446  160.5374 H   0  0  0  0  0  0  0  0  0  0  0  0
  152.0033  141.9237  161.4022 H   0  0  0  0  0  0  0  0  0  0  0  0
  153.6153  142.6277  161.4376 H   0  0  0  0  0  0  0  0  0  0  0  0
  151.8017  144.9039  159.0111 H   0  0  0  0  0  0  0  0  0  0  0  0
  152.6924  144.8791  160.5277 H   0  0  0  0  0  0  0  0  0  0  0  0
  151.0600  144.2254  160.4588 H   0  0  0  0  0  0  0  0  0  0  0  0
  152.9327  140.5089  158.3379 H   0  0  0  0  0  0  0  0  0  0  0  0
  146.3274  143.4715  152.9769 H   0  0  0  0  0  0  0  0  0  0  0  0
  145.6665  145.4868  151.9649 H   0  0  0  0  0  0  0  0  0  0  0  0
  144.9579  146.6845  153.0441 H   0  0  0  0  0  0  0  0  0  0  0  0
  143.9232  145.7425  151.9593 H   0  0  0  0  0  0  0  0  0  0  0  0
  143.8133  141.3941  157.2810 H   0  0  0  0  0  0  0  0  0  0  0  0
  1  2  1  0  0  0  0
  1 26  1  0  0  0  0
  1 27  1  0  0  0  0
  1 28  1  0  0  0  0
  2 24  1  0  0  0  0
  2  3  2  0  0  0  0
  3  4  1  0  0  0  0
  3 29  1  0  0  0  0
  4 22  2  0  0  0  0
  4  5  1  0  0  0  0
  5  6  2  0  0  0  0
  5 50  1  0  0  0  0
  6  7  1  0  0  0  0
  6 30  1  0  0  0  0
  7  8  1  0  0  0  0
  7 22  1  0  0  0  0
  8  9  1  0  0  0  0
  8 31  1  0  0  0  0
  8 32  1  0  0  0  0
  9 10  1  0  0  0  0
  9 11  1  0  0  0  0
  9 33  1  0  0  0  0
 10 34  1  0  0  0  0
 11 12  1  0  0  0  0
 11 35  1  0  0  0  0
 11 36  1  0  0  0  0
 12 20  1  0  0  0  0
 12 13  1  0  0  0  0
 13 14  2  0  0  0  0
 13 37  1  0  0  0  0
 14 15  1  0  0  0  0
 15 16  1  0  0  0  0
 15 19  2  0  0  0  0
 16 17  1  0  0  0  0
 16 18  1  0  0  0  0
 16 38  1  0  0  0  0
 17 39  1  0  0  0  0
 17 40  1  0  0  0  0
 17 41  1  0  0  0  0
 18 42  1  0  0  0  0
 18 43  1  0  0  0  0
 18 44  1  0  0  0  0
 19 20  1  0  0  0  0
 19 45  1  0  0  0  0
 20 21  2  0  0  0  0
 22 23  1  0  0  0  0
 23 24  2  0  0  0  0
 23 46  1  0  0  0  0
 24 25  1  0  0  0  0
 25 47  1  0  0  0  0
 25 48  1  0  0  0  0
 25 49  1  0  0  0  0
M  CHG  1   5   1
M  END
> <s_m_source_file>
AV-unprocessed.smi

> <i_m_source_file_index>
2691

> <i_lp_mmshare_version>
43012

> <i_f3d_flags>
0

> <s_epik_input>
W0NIM11jKFtjSF0xKWMoW0NIM10pW2NIXWMoYzEyKW4oW2NIXW4yKVtDSDJdW0NASF0oW09IXSlbQ0gyXW4zW2NIXW5jKFtDSF0oW0NIM10pW0NIM10pW2NIXWMzPU8=

> <s_epik_cmdline>
J2VwaWtfcHl0aG9uJywgJy1waCcsICc3LjAnLCAnLXRuJywgJzgnLCAnLW1hJywgJzIwMCcsICctbWV0YWxfYmluZGluZycsICctaW1hZScsICc8aW5maWxlLm1hZT4nLCAnLW9tYWUnLCAnPG91dGZpbGUubWFlPic=

> <r_lp_tautomer_probability>
1

> <r_epik_Ionization_Penalty>
1.0357

> <r_epik_Ionization_Penalty_Charging>
1.03568

> <r_epik_Ionization_Penalty_Neutral>
1.29543e-05

> <r_epik_State_Penalty>
1.08724

> <r_epik_Charging_Adjusted_Penalty>
2.12292

> <i_epik_Tot_Q>
1

> <i_epik_Tot_abs_Q>
1

> <r_epik_Metal_State_Penalty>
1.18376

> <b_epik_Metal_Only>
0

> <s_lp_Force_Field>
OPLS_2005

> <r_lp_Energy>
24.5824

> <b_lp_Chiralities_Consistent>
1

> <s_lp_Variant>
AV-unprocessed.smi:2691-3

> <Gold.Version>
5.8.1

> <Gold.Id.Protein>
6NUR|6NUR_protein|mol2

> <Gold.PLP.Fitness>
57.7980

> <Gold.PLP.PLP>
-50.8464

> <Gold.PLP.part.hbond>
-3.0000

> <Gold.PLP.part.metal>
0.0000

> <Gold.PLP.part.buried>
-4.2376

> <Gold.PLP.part.nonpolar>
-42.9821

> <Gold.PLP.part.repulsive>
0.1087

> <Gold.PLP.ligand.clash>
0.0000

> <Gold.PLP.ligand.torsion>
0.7155

> <Gold.PLP.Chemscore.Hbond>
1.8780

> <Gold.PLP.Chemscore.CHOScore>
0.8894

> <Gold.PLP.Chemscore.Metal>
0.0000

> <Gold.Chemscore.Hbonds>
donor molecule, donor type, donor heavy atom, donor atom, acceptor molecule, acceptor atom, score
      L1  H    10    34       P1  7957  0.56
      P1  H  7989  7998       L1    10  0.08
      P1  H  8011  8017       L1    10  0.12
      L1  C    13    37       P1  8028  0.61

> <Gold.PLP.Chemscore.Internal.Correction>
0.0805

> <Gold.Rescore>
     Score         DG    S(hbond)    S(metal)    S(lipo)     H(rot)  DE(clash)    DE(int)     intcor
     16.70     -17.49       1.13        0.00     125.48       2.52       0.13       0.66       ----

> <Gold.Chemscore.Fitness>
16.7015

> <Gold.Chemscore.DG>
-17.4870

> <Gold.Chemscore.ZeroCoef>
-5.4800

> <Gold.Chemscore.Hbond>
1.1312

> <Gold.Chemscore.Metal>
0.0000

> <Gold.Chemscore.Lipo>
125.4757

> <Gold.Chemscore.Internal_Hbond>
0.0000

> <Gold.Chemscore.DEClash>
0.1287

> <Gold.Chemscore.DEInternal>
0.6568

> <Gold.Chemscore.Rot>
2.5202

> <Gold.Chemscore.Internal.Correction>
   9.000000E+99

> <Gold.Chemscore.Hbonds>
donor molecule, donor type, donor heavy atom, donor atom, acceptor molecule, acceptor atom, score
      L1  H    10    34       P1  7957  0.55

> <Gold.Chemscore.Hbond.Weighted>
-3.7781

> <Gold.Chemscore.Metal.Weighted>
-0.0000

> <Gold.Chemscore.Lipo.Weighted>
-14.6807

> <Gold.Chemscore.Internal_Hbond.Weighted>
0.0000

> <Gold.Chemscore.DEClash.Weighted>
0.1287

> <Gold.Chemscore.DEInternal.Weighted>
0.6568

> <Gold.Chemscore.Rot.Weighted>
6.4517

> <Gold.Chemscore.Internal.Correction.Weighted>
   9.000000E+99

> <Gold.Protein.RotatedTorsions>
[ 6907 6896 6895 6894 ] final -120.59 input  -60.11 | X-H torsion
[ 7974 7965 7964 7962 ] final  -88.43 input  175.53 | X-H torsion
[ 8008 7997 7996 7995 ] final -152.11 input   59.86 | X-H torsion
[ 10167 10162 10161 10158 ] final   51.98 input  -65.29 | X-H torsion
[ 10718 10713 10712 10709 ] final -153.83 input   66.30 | X-H torsion
[ 10763 10752 10751 10750 ] final  -59.05 input  -60.55 | X-H torsion
[ 11005 11000 10999 10996 ] final   31.75 input  -57.11 | X-H torsion

> <Gold.Protein.ActiveResidues>
 VAL166  LYS551  ARG553  GLY616  TRP617  ASP618  TYR619  PRO620  LYS621  CYS622 
 ASP623  PHE694  ASN695  SER759  ASP760  ASP761  ALA762  ILE779  LEU786  VAL792 
 PHE793  MET794  SER795  GLU796  ALA797  LYS798  CYS799  TRP800  GLU811  SER814 

> <Gold.Protein.RotatedAtoms>
  150.8406  133.7941  159.3061 H   0  0  0  0  0  0  0  0  0  0  0  0  # atno 6907 bound_to 6896
  151.5644  135.1063  159.9990 H   0  0  0  0  0  0  0  0  0  0  0  0  # atno 6908 bound_to 6896
  152.4471  133.7514  159.6752 H   0  0  0  0  0  0  0  0  0  0  0  0  # atno 6909 bound_to 6896
  145.4532  140.9561  143.2010 H   0  0  0  0  0  0  0  0  0  0  0  0  # atno 7974 bound_to 7965
  155.6500  140.0711  157.2590 H   0  0  0  0  0  0  0  0  0  0  0  0  # atno 8008 bound_to 7997
  154.4164  140.1735  156.1714 H   0  0  0  0  0  0  0  0  0  0  0  0  # atno 8009 bound_to 7997
  155.9785  140.3356  155.6644 H   0  0  0  0  0  0  0  0  0  0  0  0  # atno 8010 bound_to 7997
  140.2562  144.3424  150.6332 H   0  0  0  0  0  0  0  0  0  0  0  0  # atno 10167 bound_to 10162
  156.4910  130.8347  151.2570 H   0  0  0  0  0  0  0  0  0  0  0  0  # atno 10718 bound_to 10713
  154.2477  135.6332  153.5229 H   0  0  0  0  0  0  0  0  0  0  0  0  # atno 10763 bound_to 10752
  152.9918  135.5557  154.5842 H   0  0  0  0  0  0  0  0  0  0  0  0  # atno 10764 bound_to 10752
  154.5362  135.2891  155.1111 H   0  0  0  0  0  0  0  0  0  0  0  0  # atno 10765 bound_to 10752
  140.2806  134.2977  155.7802 H   0  0  0  0  0  0  0  0  0  0  0  0  # atno 11005 bound_to 11000
  144.8048  139.6072  143.7055 LP  0  0  0  0  0  0  0  0  0  0  0  0  # atno 17320 bound_to 7965
  146.2492  139.6164  142.9438 LP  0  0  0  0  0  0  0  0  0  0  0  0  # atno 17321 bound_to 7965
  140.6002  143.2167  151.7087 LP  0  0  0  0  0  0  0  0  0  0  0  0  # atno 17342 bound_to 10162
  139.5031  144.3805  152.0381 LP  0  0  0  0  0  0  0  0  0  0  0  0  # atno 17343 bound_to 10162
  157.7473  131.0013  150.2959 LP  0  0  0  0  0  0  0  0  0  0  0  0  # atno 17370 bound_to 10713
  156.3426  130.3818  149.7396 LP  0  0  0  0  0  0  0  0  0  0  0  0  # atno 17371 bound_to 10713
  141.2163  133.7523  156.9474 LP  0  0  0  0  0  0  0  0  0  0  0  0  # atno 17394 bound_to 11000
  140.1287  134.9370  157.2307 LP  0  0  0  0  0  0  0  0  0  0  0  0  # atno 17395 bound_to 11000

$$$$
