AV-unprocessed.smi:2823|AV-procd|sdf|10884|dock5
  -GOLD-   2272015323D 1   1.00000     0.00000
 Structure written by MMmdl.
 42 43  0  0  0  0  0  0  0  0  1 V2000
  144.0085  131.8691  150.5334 C   0  0  0  0  0  0  0  0  0  0  0  0
  144.2583  133.1735  151.2093 C   0  0  0  0  0  0  0  0  0  0  0  0
  143.3309  133.7349  151.9768 N   0  0  0  0  0  0  0  0  0  0  0  0
  143.9438  134.9184  152.4144 O   0  0  0  0  0  0  0  0  0  0  0  0
  145.1758  134.9186  151.8485 C   0  0  0  0  0  0  0  0  0  0  0  0
  146.1209  135.9542  152.0443 N   0  0  0  0  0  0  0  0  0  0  0  0
  145.8630  137.2252  152.3904 C   0  0  0  0  0  0  0  0  0  0  0  0
  144.7401  137.6885  152.5913 O   0  0  0  0  0  0  0  0  0  0  0  0
  146.9928  137.9390  152.4998 N   0  0  0  0  0  0  0  0  0  0  0  0
  147.0805  139.3464  152.8925 C   0  0  0  0  0  0  0  0  0  0  0  0
  147.9610  139.5802  154.1587 C   0  0  0  0  0  0  0  0  0  0  0  0
  147.1903  139.2173  155.4746 C   0  0  0  0  0  0  0  0  0  0  0  0
  147.6275  138.2884  156.1585 O   0  0  0  0  0  0  0  0  0  0  0  0
  146.0773  139.8857  155.8835 N   0  0  0  0  0  0  0  0  0  0  0  0
  145.3780  139.4464  157.0958 C   0  0  0  0  0  0  0  0  0  0  0  0
  145.4465  141.0562  155.2669 C   0  0  0  0  0  0  0  0  0  0  0  0
  149.3571  138.9097  154.0816 C   0  0  0  0  0  0  0  0  0  0  0  0
  150.2960  139.7314  154.9746 C   0  0  0  0  0  0  0  0  0  0  0  0
  149.6834  141.1317  155.0473 C   0  0  0  0  0  0  0  0  0  0  0  0
  148.4221  141.0649  154.1799 C   0  0  0  0  0  0  0  0  0  0  0  0
  145.4290  133.8593  151.0865 N   0  0  0  0  0  0  0  0  0  0  0  0
  143.1670  131.9556  149.8455 H   0  0  0  0  0  0  0  0  0  0  0  0
  143.7777  131.0997  151.2708 H   0  0  0  0  0  0  0  0  0  0  0  0
  144.8851  131.5523  149.9674 H   0  0  0  0  0  0  0  0  0  0  0  0
  147.0883  135.6984  151.9141 H   0  0  0  0  0  0  0  0  0  0  0  0
  147.8668  137.4693  152.3135 H   0  0  0  0  0  0  0  0  0  0  0  0
  147.4533  139.8876  152.0280 H   0  0  0  0  0  0  0  0  0  0  0  0
  146.0806  139.7534  153.0521 H   0  0  0  0  0  0  0  0  0  0  0  0
  145.1206  138.3875  157.0360 H   0  0  0  0  0  0  0  0  0  0  0  0
  144.4471  139.9911  157.2602 H   0  0  0  0  0  0  0  0  0  0  0  0
  146.0059  139.5969  157.9751 H   0  0  0  0  0  0  0  0  0  0  0  0
  146.0246  141.5456  154.4918 H   0  0  0  0  0  0  0  0  0  0  0  0
  145.2463  141.8165  156.0226 H   0  0  0  0  0  0  0  0  0  0  0  0
  144.4913  140.7683  154.8266 H   0  0  0  0  0  0  0  0  0  0  0  0
  149.3947  137.8624  154.3677 H   0  0  0  0  0  0  0  0  0  0  0  0
  149.7202  138.9546  153.0538 H   0  0  0  0  0  0  0  0  0  0  0  0
  150.3430  139.2968  155.9740 H   0  0  0  0  0  0  0  0  0  0  0  0
  151.3110  139.7478  154.5767 H   0  0  0  0  0  0  0  0  0  0  0  0
  149.4239  141.3727  156.0788 H   0  0  0  0  0  0  0  0  0  0  0  0
  150.3707  141.9008  154.6934 H   0  0  0  0  0  0  0  0  0  0  0  0
  148.6904  141.3784  153.1698 H   0  0  0  0  0  0  0  0  0  0  0  0
  147.6589  141.7699  154.5122 H   0  0  0  0  0  0  0  0  0  0  0  0
  1  2  1  0  0  0  0
  1 22  1  0  0  0  0
  1 23  1  0  0  0  0
  1 24  1  0  0  0  0
  2 21  1  0  0  0  0
  2  3  2  0  0  0  0
  3  4  1  0  0  0  0
  4  5  1  0  0  0  0
  5  6  1  0  0  0  0
  5 21  2  0  0  0  0
  6  7  1  0  0  0  0
  6 25  1  0  0  0  0
  7  8  2  0  0  0  0
  7  9  1  0  0  0  0
  9 10  1  0  0  0  0
  9 26  1  0  0  0  0
 10 11  1  0  0  0  0
 10 27  1  0  0  0  0
 10 28  1  0  0  0  0
 11 20  1  0  0  0  0
 11 12  1  0  0  0  0
 11 17  1  0  0  0  0
 12 13  2  0  0  0  0
 12 14  1  0  0  0  0
 14 15  1  0  0  0  0
 14 16  1  0  0  0  0
 15 29  1  0  0  0  0
 15 30  1  0  0  0  0
 15 31  1  0  0  0  0
 16 32  1  0  0  0  0
 16 33  1  0  0  0  0
 16 34  1  0  0  0  0
 17 18  1  0  0  0  0
 17 35  1  0  0  0  0
 17 36  1  0  0  0  0
 18 19  1  0  0  0  0
 18 37  1  0  0  0  0
 18 38  1  0  0  0  0
 19 20  1  0  0  0  0
 19 39  1  0  0  0  0
 19 40  1  0  0  0  0
 20 41  1  0  0  0  0
 20 42  1  0  0  0  0
M  END
> <s_m_source_file>
AV-unprocessed.smi

> <i_m_source_file_index>
2823

> <i_lp_mmshare_version>
43012

> <i_f3d_flags>
0

> <s_epik_input>
W0NIM11jMW5vYyhuMSlbTkhdQyg9TylbTkhdW0NIMl1DMihDKD1PKU4oW0NIM10pW0NIM10pW0NIMl1bQ0gyXVtDSDJdW0NIMl0y

> <s_epik_cmdline>
J2VwaWtfcHl0aG9uJywgJy1waCcsICc3LjAnLCAnLXRuJywgJzgnLCAnLW1hJywgJzIwMCcsICctbWV0YWxfYmluZGluZycsICctaW1hZScsICc8aW5maWxlLm1hZT4nLCAnLW9tYWUnLCAnPG91dGZpbGUubWFlPic=

> <r_lp_tautomer_probability>
1

> <r_epik_Ionization_Penalty>
4.1201e-05

> <r_epik_Ionization_Penalty_Charging>
0

> <r_epik_Ionization_Penalty_Neutral>
4.1201e-05

> <r_epik_State_Penalty>
-0

> <r_epik_Charging_Adjusted_Penalty>
0

> <i_epik_Tot_Q>
0

> <i_epik_Tot_abs_Q>
0

> <r_epik_Metal_State_Penalty>
0.0212056

> <b_epik_Metal_Only>
0

> <s_lp_Force_Field>
OPLS_2005

> <r_lp_Energy>
33.0432

> <b_lp_Chiralities_Consistent>
1

> <s_lp_Variant>
AV-unprocessed.smi:2823-1

> <Gold.Version>
5.8.1

> <Gold.Id.Protein>
6NUR|6NUR_protein|mol2

> <Gold.PLP.Fitness>
32.4339

> <Gold.PLP.PLP>
-27.2395

> <Gold.PLP.part.hbond>
-2.0000

> <Gold.PLP.part.metal>
0.0000

> <Gold.PLP.part.buried>
-3.4790

> <Gold.PLP.part.nonpolar>
-22.8374

> <Gold.PLP.part.repulsive>
1.6791

> <Gold.PLP.ligand.clash>
0.0000

> <Gold.PLP.ligand.torsion>
0.5054

> <Gold.PLP.Chemscore.Hbond>
2.0000

> <Gold.PLP.Chemscore.CHOScore>
0.0000

> <Gold.PLP.Chemscore.Metal>
0.0000

> <Gold.Chemscore.Hbonds>
donor molecule, donor type, donor heavy atom, donor atom, acceptor molecule, acceptor atom, score
      L1  H     6    25       P1  7948  0.99
      L1  H     9    26       P1  7948  1.00

> <Gold.PLP.Chemscore.Internal.Correction>
0.2052

> <Gold.Rescore>
     Score         DG    S(hbond)    S(metal)    S(lipo)     H(rot)  DE(clash)    DE(int)     intcor
     12.01     -13.81       1.94        0.00      53.87       1.74       0.06       1.73       ----

> <Gold.Chemscore.Fitness>
12.0134

> <Gold.Chemscore.DG>
-13.8075

> <Gold.Chemscore.ZeroCoef>
-5.4800

> <Gold.Chemscore.Hbond>
1.9368

> <Gold.Chemscore.Metal>
0.0000

> <Gold.Chemscore.Lipo>
53.8708

> <Gold.Chemscore.Internal_Hbond>
0.0000

> <Gold.Chemscore.DEClash>
0.0601

> <Gold.Chemscore.DEInternal>
1.7340

> <Gold.Chemscore.Rot>
1.7360

> <Gold.Chemscore.Internal.Correction>
   9.000000E+99

> <Gold.Chemscore.Hbonds>
donor molecule, donor type, donor heavy atom, donor atom, acceptor molecule, acceptor atom, score
      L1  H     6    25       P1  7948  0.94
      L1  H     9    26       P1  7948  1.00

> <Gold.Chemscore.Hbond.Weighted>
-6.4689

> <Gold.Chemscore.Metal.Weighted>
-0.0000

> <Gold.Chemscore.Lipo.Weighted>
-6.3029

> <Gold.Chemscore.Internal_Hbond.Weighted>
0.0000

> <Gold.Chemscore.DEClash.Weighted>
0.0601

> <Gold.Chemscore.DEInternal.Weighted>
1.7340

> <Gold.Chemscore.Rot.Weighted>
4.4443

> <Gold.Chemscore.Internal.Correction.Weighted>
   9.000000E+99

> <Gold.Protein.RotatedTorsions>
[ 6907 6896 6895 6894 ] final -152.67 input  -60.11 | X-H torsion
[ 7974 7965 7964 7962 ] final   -8.64 input  175.53 | X-H torsion
[ 8008 7997 7996 7995 ] final  103.10 input   59.86 | X-H torsion
[ 10167 10162 10161 10158 ] final  111.18 input  -65.29 | X-H torsion
[ 10718 10713 10712 10709 ] final -100.80 input   66.30 | X-H torsion
[ 10763 10752 10751 10750 ] final  134.79 input  -60.55 | X-H torsion
[ 11005 11000 10999 10996 ] final  -45.37 input  -57.11 | X-H torsion

> <Gold.Protein.ActiveResidues>
 VAL166  LYS551  ARG553  GLY616  TRP617  ASP618  TYR619  PRO620  LYS621  CYS622 
 ASP623  PHE694  ASN695  SER759  ASP760  ASP761  ALA762  ILE779  LEU786  VAL792 
 PHE793  MET794  SER795  GLU796  ALA797  LYS798  CYS799  TRP800  GLU811  SER814 

> <Gold.Protein.RotatedAtoms>
  151.2313  133.4449  159.2603 H   0  0  0  0  0  0  0  0  0  0  0  0  # atno 6907 bound_to 6896
  151.0792  134.9847  159.8358 H   0  0  0  0  0  0  0  0  0  0  0  0  # atno 6908 bound_to 6896
  152.5422  134.2253  159.8856 H   0  0  0  0  0  0  0  0  0  0  0  0  # atno 6909 bound_to 6896
  146.2275  140.2498  142.8347 H   0  0  0  0  0  0  0  0  0  0  0  0  # atno 7974 bound_to 7965
  156.1453  140.3170  155.8561 H   0  0  0  0  0  0  0  0  0  0  0  0  # atno 8008 bound_to 7997
  155.4076  140.0504  157.3050 H   0  0  0  0  0  0  0  0  0  0  0  0  # atno 8009 bound_to 7997
  154.5011  140.2129  155.9357 H   0  0  0  0  0  0  0  0  0  0  0  0  # atno 8010 bound_to 7997
  139.6631  144.7128  151.1828 H   0  0  0  0  0  0  0  0  0  0  0  0  # atno 10167 bound_to 10162
  156.0174  130.5344  150.6870 H   0  0  0  0  0  0  0  0  0  0  0  0  # atno 10718 bound_to 10713
  153.8294  135.3106  155.3417 H   0  0  0  0  0  0  0  0  0  0  0  0  # atno 10763 bound_to 10752
  154.7979  135.4744  154.0209 H   0  0  0  0  0  0  0  0  0  0  0  0  # atno 10764 bound_to 10752
  153.1644  135.6866  153.8787 H   0  0  0  0  0  0  0  0  0  0  0  0  # atno 10765 bound_to 10752
  141.0511  133.6742  156.3003 H   0  0  0  0  0  0  0  0  0  0  0  0  # atno 11005 bound_to 11000
  144.9420  140.8089  143.5624 LP  0  0  0  0  0  0  0  0  0  0  0  0  # atno 17320 bound_to 7965
  145.2450  139.2056  143.4972 LP  0  0  0  0  0  0  0  0  0  0  0  0  # atno 17321 bound_to 7965
  140.7588  143.5962  150.8745 LP  0  0  0  0  0  0  0  0  0  0  0  0  # atno 17342 bound_to 10162
  139.9622  143.6151  152.2999 LP  0  0  0  0  0  0  0  0  0  0  0  0  # atno 17343 bound_to 10162
  157.4560  131.0878  151.0796 LP  0  0  0  0  0  0  0  0  0  0  0  0  # atno 17370 bound_to 10713
  157.1298  130.6097  149.5526 LP  0  0  0  0  0  0  0  0  0  0  0  0  # atno 17371 bound_to 10713
  140.6054  134.5513  157.5524 LP  0  0  0  0  0  0  0  0  0  0  0  0  # atno 17394 bound_to 11000
  139.9351  134.7890  156.0825 LP  0  0  0  0  0  0  0  0  0  0  0  0  # atno 17395 bound_to 11000

$$$$
