AV-unprocessed.smi:356|AV-procd|sdf|2409|dock6
  -GOLD-   2262022343D 1   1.00000     0.00000
 Structure written by MMmdl.
 41 43  0  0  0  0  0  0  0  0  1 V2000
  150.7663  145.2685  158.4127 C   0  0  0  0  0  0  0  0  0  0  0  0
  151.4774  144.5567  159.5196 C   0  0  0  0  0  0  0  0  0  0  0  0
  151.5515  145.0579  160.7531 N   0  0  0  0  0  0  0  0  0  0  0  0
  152.2811  144.0973  161.4269 C   0  0  0  0  0  0  0  0  0  0  0  0
  152.7007  144.0399  162.7753 C   0  0  0  0  0  0  0  0  0  0  0  0
  153.4502  142.9406  163.2435 C   0  0  0  0  0  0  0  0  0  0  0  0
  153.7903  141.8854  162.3725 C   0  0  0  0  0  0  0  0  0  0  0  0
  153.3822  141.9224  161.0254 C   0  0  0  0  0  0  0  0  0  0  0  0
  152.6343  143.0219  160.5632 C   0  0  0  0  0  0  0  0  0  0  0  0
  152.0891  143.3613  159.3294 N   0  0  0  0  0  0  0  0  0  0  0  0
  152.1793  142.5748  158.1063 C   0  0  0  0  0  0  0  0  0  0  0  0
  151.1620  141.4177  158.0687 C   0  0  1  0  0  0  0  0  0  0  0  0
  149.9171  141.8706  158.5631 O   0  0  0  0  0  0  0  0  0  0  0  0
  150.9559  140.8955  156.6331 C   0  0  0  0  0  0  0  0  0  0  0  0
  151.8102  139.7736  156.2388 N   0  0  0  0  0  0  0  0  0  0  0  0
  151.2969  139.0482  155.0776 C   0  0  0  0  0  0  0  0  0  0  0  0
  152.1947  137.8556  154.7027 C   0  0  0  0  0  0  0  0  0  0  0  0
  152.3353  136.9886  155.8231 O   0  0  0  0  0  0  0  0  0  0  0  0
  152.8781  137.6485  156.9618 C   0  0  0  0  0  0  0  0  0  0  0  0
  151.9772  138.8352  157.3440 C   0  0  0  0  0  0  0  0  0  0  0  0
  150.2835  146.1720  158.7866 H   0  0  0  0  0  0  0  0  0  0  0  0
  149.9998  144.6272  157.9779 H   0  0  0  0  0  0  0  0  0  0  0  0
  151.4734  145.5539  157.6337 H   0  0  0  0  0  0  0  0  0  0  0  0
  152.4453  144.8434  163.4503 H   0  0  0  0  0  0  0  0  0  0  0  0
  153.7658  142.9074  164.2760 H   0  0  0  0  0  0  0  0  0  0  0  0
  154.3645  141.0470  162.7393 H   0  0  0  0  0  0  0  0  0  0  0  0
  153.6398  141.1157  160.3555 H   0  0  0  0  0  0  0  0  0  0  0  0
  152.0530  143.2255  157.2410 H   0  0  0  0  0  0  0  0  0  0  0  0
  153.1930  142.1778  158.0389 H   0  0  0  0  0  0  0  0  0  0  0  0
  151.5219  140.6226  158.7205 H   0  0  0  0  0  0  0  0  0  0  0  0
  149.9515  141.8586  159.5079 H   0  0  0  0  0  0  0  0  0  0  0  0
  149.9097  140.6025  156.5308 H   0  0  0  0  0  0  0  0  0  0  0  0
  151.1012  141.7166  155.9295 H   0  0  0  0  0  0  0  0  0  0  0  0
  150.2872  138.6885  155.2819 H   0  0  0  0  0  0  0  0  0  0  0  0
  151.2254  139.7083  154.2145 H   0  0  0  0  0  0  0  0  0  0  0  0
  151.7585  137.2984  153.8735 H   0  0  0  0  0  0  0  0  0  0  0  0
  153.1772  138.1997  154.3761 H   0  0  0  0  0  0  0  0  0  0  0  0
  152.9436  136.9398  157.7874 H   0  0  0  0  0  0  0  0  0  0  0  0
  153.8931  137.9868  156.7471 H   0  0  0  0  0  0  0  0  0  0  0  0
  152.4076  139.3490  158.2044 H   0  0  0  0  0  0  0  0  0  0  0  0
  151.0030  138.4596  157.6612 H   0  0  0  0  0  0  0  0  0  0  0  0
  1  2  1  0  0  0  0
  1 21  1  0  0  0  0
  1 22  1  0  0  0  0
  1 23  1  0  0  0  0
  2 10  1  0  0  0  0
  2  3  2  0  0  0  0
  3  4  1  0  0  0  0
  4  9  2  0  0  0  0
  4  5  1  0  0  0  0
  5  6  2  0  0  0  0
  5 24  1  0  0  0  0
  6  7  1  0  0  0  0
  6 25  1  0  0  0  0
  7  8  2  0  0  0  0
  7 26  1  0  0  0  0
  8  9  1  0  0  0  0
  8 27  1  0  0  0  0
  9 10  1  0  0  0  0
 10 11  1  0  0  0  0
 11 12  1  0  0  0  0
 11 28  1  0  0  0  0
 11 29  1  0  0  0  0
 12 13  1  0  0  0  0
 12 14  1  0  0  0  0
 12 30  1  0  0  0  0
 13 31  1  0  0  0  0
 14 15  1  0  0  0  0
 14 32  1  0  0  0  0
 14 33  1  0  0  0  0
 15 20  1  0  0  0  0
 15 16  1  0  0  0  0
 16 17  1  0  0  0  0
 16 34  1  0  0  0  0
 16 35  1  0  0  0  0
 17 18  1  0  0  0  0
 17 36  1  0  0  0  0
 17 37  1  0  0  0  0
 18 19  1  0  0  0  0
 19 20  1  0  0  0  0
 19 38  1  0  0  0  0
 19 39  1  0  0  0  0
 20 40  1  0  0  0  0
 20 41  1  0  0  0  0
M  END
> <s_m_source_file>
AV-unprocessed.smi

> <i_m_source_file_index>
356

> <i_lp_mmshare_version>
43012

> <i_f3d_flags>
0

> <s_epik_input>
W2NIXTFbY0hdW2NIXVtjSF1jKGMxMiluKGMobjIpW0NIM10pW0NIMl1bQ0BIXShbT0hdKVtDSDJdTjNbQ0gyXVtDSDJdT1tDSDJdW0NIMl0z

> <s_epik_cmdline>
J2VwaWtfcHl0aG9uJywgJy1waCcsICc3LjAnLCAnLXRuJywgJzgnLCAnLW1hJywgJzIwMCcsICctbWV0YWxfYmluZGluZycsICctaW1hZScsICc8aW5maWxlLm1hZT4nLCAnLW9tYWUnLCAnPG91dGZpbGUubWFlPic=

> <r_epik_Ionization_Penalty>
0.355661

> <r_epik_Ionization_Penalty_Charging>
0

> <r_epik_Ionization_Penalty_Neutral>
0.355661

> <r_epik_State_Penalty>
0.325123

> <r_epik_Charging_Adjusted_Penalty>
0.325123

> <i_epik_Tot_Q>
0

> <i_epik_Tot_abs_Q>
0

> <r_epik_Metal_State_Penalty>
0.239925

> <b_epik_Metal_Only>
0

> <s_lp_Force_Field>
OPLS_2005

> <r_lp_Energy>
29.7319

> <b_lp_Chiralities_Consistent>
1

> <s_lp_Variant>
AV-unprocessed.smi:356-2

> <Gold.Version>
5.8.1

> <Gold.Id.Protein>
6NUR|6NUR_protein|mol2

> <Gold.PLP.Fitness>
48.0602

> <Gold.PLP.PLP>
-47.3738

> <Gold.PLP.part.hbond>
-1.3617

> <Gold.PLP.part.metal>
0.0000

> <Gold.PLP.part.buried>
-5.5712

> <Gold.PLP.part.nonpolar>
-39.9812

> <Gold.PLP.part.repulsive>
0.4588

> <Gold.PLP.ligand.clash>
0.0000

> <Gold.PLP.ligand.torsion>
1.0575

> <Gold.PLP.Chemscore.Hbond>
0.9280

> <Gold.PLP.Chemscore.CHOScore>
0.0000

> <Gold.PLP.Chemscore.Metal>
0.0000

> <Gold.Chemscore.Hbonds>
donor molecule, donor type, donor heavy atom, donor atom, acceptor molecule, acceptor atom, score
      P1  H 10752 10763       L1    18  0.59

> <Gold.PLP.Chemscore.Internal.Correction>
0.0174

> <Gold.Rescore>
     Score         DG    S(hbond)    S(metal)    S(lipo)     H(rot)  DE(clash)    DE(int)     intcor
     15.81     -17.70       0.60        0.00     130.72       1.99       0.65       1.25       ----

> <Gold.Chemscore.Fitness>
15.8050

> <Gold.Chemscore.DG>
-17.7019

> <Gold.Chemscore.ZeroCoef>
-5.4800

> <Gold.Chemscore.Hbond>
0.6026

> <Gold.Chemscore.Metal>
0.0000

> <Gold.Chemscore.Lipo>
130.7188

> <Gold.Chemscore.Internal_Hbond>
0.0000

> <Gold.Chemscore.DEClash>
0.6499

> <Gold.Chemscore.DEInternal>
1.2470

> <Gold.Chemscore.Rot>
1.9863

> <Gold.Chemscore.Internal.Correction>
   9.000000E+99

> <Gold.Chemscore.Hbonds>
donor molecule, donor type, donor heavy atom, donor atom, acceptor molecule, acceptor atom, score
      P1  H 10752 10763       L1    18  0.06

> <Gold.Chemscore.Hbond.Weighted>
-2.0128

> <Gold.Chemscore.Metal.Weighted>
-0.0000

> <Gold.Chemscore.Lipo.Weighted>
-15.2941

> <Gold.Chemscore.Internal_Hbond.Weighted>
0.0000

> <Gold.Chemscore.DEClash.Weighted>
0.6499

> <Gold.Chemscore.DEInternal.Weighted>
1.2470

> <Gold.Chemscore.Rot.Weighted>
5.0850

> <Gold.Chemscore.Internal.Correction.Weighted>
   9.000000E+99

> <Gold.Protein.RotatedTorsions>
[ 6907 6896 6895 6894 ] final   84.30 input  -60.11 | X-H torsion
[ 7974 7965 7964 7962 ] final  -45.81 input  175.53 | X-H torsion
[ 8008 7997 7996 7995 ] final  104.39 input   59.86 | X-H torsion
[ 10167 10162 10161 10158 ] final  -86.45 input  -65.29 | X-H torsion
[ 10718 10713 10712 10709 ] final   43.98 input   66.30 | X-H torsion
[ 10763 10752 10751 10750 ] final   71.03 input  -60.55 | X-H torsion
[ 11005 11000 10999 10996 ] final   75.77 input  -57.11 | X-H torsion

> <Gold.Protein.ActiveResidues>
 VAL166  LYS551  ARG553  GLY616  TRP617  ASP618  TYR619  PRO620  LYS621  CYS622 
 ASP623  PHE694  ASN695  SER759  ASP760  ASP761  ALA762  ILE779  LEU786  VAL792 
 PHE793  MET794  SER795  GLU796  ALA797  LYS798  CYS799  TRP800  GLU811  SER814 

> <Gold.Protein.RotatedAtoms>
  152.5349  134.2762  159.8989 H   0  0  0  0  0  0  0  0  0  0  0  0  # atno 6907 bound_to 6896
  151.2718  133.4245  159.2629 H   0  0  0  0  0  0  0  0  0  0  0  0  # atno 6908 bound_to 6896
  151.0361  134.9589  159.8193 H   0  0  0  0  0  0  0  0  0  0  0  0  # atno 6909 bound_to 6896
  145.9783  140.7311  142.9376 H   0  0  0  0  0  0  0  0  0  0  0  0  # atno 7974 bound_to 7965
  156.1568  140.3148  155.8740 H   0  0  0  0  0  0  0  0  0  0  0  0  # atno 8008 bound_to 7997
  155.3862  140.0491  157.3059 H   0  0  0  0  0  0  0  0  0  0  0  0  # atno 8009 bound_to 7997
  154.5109  140.2164  155.9170 H   0  0  0  0  0  0  0  0  0  0  0  0  # atno 8010 bound_to 7997
  140.3940  143.2692  151.9228 H   0  0  0  0  0  0  0  0  0  0  0  0  # atno 10167 bound_to 10162
  157.4218  130.7973  149.7522 H   0  0  0  0  0  0  0  0  0  0  0  0  # atno 10718 bound_to 10713
  153.0375  135.5152  154.7532 H   0  0  0  0  0  0  0  0  0  0  0  0  # atno 10763 bound_to 10752
  154.6496  135.2923  155.0006 H   0  0  0  0  0  0  0  0  0  0  0  0  # atno 10764 bound_to 10752
  154.0895  135.6652  153.4903 H   0  0  0  0  0  0  0  0  0  0  0  0  # atno 10765 bound_to 10752
  139.9328  134.7546  156.1313 H   0  0  0  0  0  0  0  0  0  0  0  0  # atno 11005 bound_to 11000
  144.6854  140.2865  143.7284 LP  0  0  0  0  0  0  0  0  0  0  0  0  # atno 17320 bound_to 7965
  145.7807  139.1890  143.2159 LP  0  0  0  0  0  0  0  0  0  0  0  0  # atno 17321 bound_to 7965
  139.4787  144.5699  151.8105 LP  0  0  0  0  0  0  0  0  0  0  0  0  # atno 17342 bound_to 10162
  140.4810  144.1450  150.5932 LP  0  0  0  0  0  0  0  0  0  0  0  0  # atno 17343 bound_to 10162
  155.9883  130.3960  150.3124 LP  0  0  0  0  0  0  0  0  0  0  0  0  # atno 17370 bound_to 10713
  157.1273  131.0262  151.2984 LP  0  0  0  0  0  0  0  0  0  0  0  0  # atno 17371 bound_to 10713
  141.0926  133.6708  156.2575 LP  0  0  0  0  0  0  0  0  0  0  0  0  # atno 17394 bound_to 11000
  140.6155  134.5414  157.5540 LP  0  0  0  0  0  0  0  0  0  0  0  0  # atno 17395 bound_to 11000

$$$$
