AV-unprocessed.smi:2226|AV-procd|sdf|9019|dock2
  -GOLD-   2272012223D 1   1.00000     0.00000
 Structure written by MMmdl.
 39 41  0  0  0  0  0  0  0  0  3 V2000
  144.0897  132.6998  148.9784 C   0  0  0  0  0  0  0  0  0  0  0  0
  143.7976  133.6345  150.0910 N   0  3  2  0  0  0  0  0  0  0  0  0
  144.7986  134.7125  150.2789 C   0  0  2  0  0  0  0  0  0  0  0  0
  146.1340  134.1526  150.8312 C   0  0  0  0  0  0  0  0  0  0  0  0
  145.9734  133.2845  152.0932 C   0  0  0  0  0  0  0  0  0  0  0  0
  144.7641  132.3347  152.0025 C   0  0  0  0  0  0  0  0  0  0  0  0
  143.4976  132.9844  151.3897 C   0  0  1  0  0  0  0  0  0  0  0  0
  142.7881  134.0070  152.3051 C   0  0  0  0  0  0  0  0  0  0  0  0
  143.5311  135.3598  152.4580 C   0  0  2  0  0  0  0  0  0  0  0  0
  142.6079  136.3864  152.9361 N   0  0  0  0  0  0  0  0  0  0  0  0
  141.7414  136.2599  153.9519 C   0  0  0  0  0  0  0  0  0  0  0  0
  141.6770  135.1992  154.5776 O   0  0  0  0  0  0  0  0  0  0  0  0
  141.0030  137.3697  154.1751 N   0  5  0  0  0  0  0  0  0  0  0  0
  139.7520  137.2551  154.6493 C   0  0  0  0  0  0  0  0  0  0  0  0
  139.4031  136.8155  155.8596 N   0  0  0  0  0  0  0  0  0  0  0  0
  138.0182  136.8667  155.8964 C   0  0  0  0  0  0  0  0  0  0  0  0
  137.5832  137.3380  154.6880 C   0  0  0  0  0  0  0  0  0  0  0  0
  138.6674  137.5824  153.8912 O   0  0  0  0  0  0  0  0  0  0  0  0
  144.1654  135.8372  151.1293 C   0  0  0  0  0  0  0  0  0  0  0  0
  144.9974  132.1222  149.1504 H   0  0  0  0  0  0  0  0  0  0  0  0
  144.2114  133.2486  148.0441 H   0  0  0  0  0  0  0  0  0  0  0  0
  143.2644  132.0003  148.8437 H   0  0  0  0  0  0  0  0  0  0  0  0
  145.0092  135.1468  149.3004 H   0  0  0  0  0  0  0  0  0  0  0  0
  146.6095  133.5500  150.0569 H   0  0  0  0  0  0  0  0  0  0  0  0
  146.8296  134.9685  151.0302 H   0  0  0  0  0  0  0  0  0  0  0  0
  146.8816  132.7023  152.2520 H   0  0  0  0  0  0  0  0  0  0  0  0
  145.8960  133.9119  152.9772 H   0  0  0  0  0  0  0  0  0  0  0  0
  145.0470  131.4743  151.3957 H   0  0  0  0  0  0  0  0  0  0  0  0
  144.5384  131.9305  152.9899 H   0  0  0  0  0  0  0  0  0  0  0  0
  142.7790  132.1844  151.2053 H   0  0  0  0  0  0  0  0  0  0  0  0
  141.8028  134.2004  151.8772 H   0  0  0  0  0  0  0  0  0  0  0  0
  142.6006  133.5670  153.2852 H   0  0  0  0  0  0  0  0  0  0  0  0
  144.3178  135.2625  153.2024 H   0  0  0  0  0  0  0  0  0  0  0  0
  142.6239  137.2747  152.4564 H   0  0  0  0  0  0  0  0  0  0  0  0
  137.4585  136.5666  156.7696 H   0  0  0  0  0  0  0  0  0  0  0  0
  136.6114  137.5414  154.2640 H   0  0  0  0  0  0  0  0  0  0  0  0
  144.8970  136.6219  151.3254 H   0  0  0  0  0  0  0  0  0  0  0  0
  143.3884  136.3047  150.5218 H   0  0  0  0  0  0  0  0  0  0  0  0
  142.9440  134.1004  149.8179 H   0  0  0  0  0  0  0  0  0  0  0  0
  1  2  1  0  0  0  0
  1 20  1  0  0  0  0
  1 21  1  0  0  0  0
  1 22  1  0  0  0  0
  2  7  1  0  0  0  0
  2  3  1  0  0  0  0
  2 39  1  0  0  0  0
  3 19  1  0  0  0  0
  3  4  1  0  0  0  0
  3 23  1  0  0  0  0
  4  5  1  0  0  0  0
  4 24  1  0  0  0  0
  4 25  1  0  0  0  0
  5  6  1  0  0  0  0
  5 26  1  0  0  0  0
  5 27  1  0  0  0  0
  6  7  1  0  0  0  0
  6 28  1  0  0  0  0
  6 29  1  0  0  0  0
  7  8  1  0  0  0  0
  7 30  1  0  0  0  0
  8  9  1  0  0  0  0
  8 31  1  0  0  0  0
  8 32  1  0  0  0  0
  9 10  1  0  0  0  0
  9 19  1  0  0  0  0
  9 33  1  0  0  0  0
 10 34  1  0  0  0  0
 10 11  1  0  0  0  0
 11 13  1  0  0  0  0
 11 12  2  0  0  0  0
 13 14  1  0  0  0  0
 14 18  1  0  0  0  0
 14 15  2  0  0  0  0
 15 16  1  0  0  0  0
 16 35  1  0  0  0  0
 16 17  2  0  0  0  0
 17 36  1  0  0  0  0
 17 18  1  0  0  0  0
 19 37  1  0  0  0  0
 19 38  1  0  0  0  0
M  CHG  1   2   1
M  CHG  1  13  -1
M  END
> <s_m_source_file>
AV-unprocessed.smi

> <i_m_source_file_index>
2226

> <i_lp_mmshare_version>
43012

> <i_f3d_flags>
0

> <s_epik_input>
W0NIMl0xW0NIMl1bQ0gyXVtDQEhdKE4oW0NIM10pW0NIXTEyKVtDSDJdW0NASF0oW0NIMl0yKVtOSF1DKD1PKVtOSF1jM25bY0hdW2NIXW8z

> <s_epik_cmdline>
J2VwaWtfcHl0aG9uJywgJy1waCcsICc3LjAnLCAnLXRuJywgJzgnLCAnLW1hJywgJzIwMCcsICctbWV0YWxfYmluZGluZycsICctaW1hZScsICc8aW5maWxlLm1hZT4nLCAnLW9tYWUnLCAnPG91dGZpbGUubWFlPic=

> <r_lp_tautomer_probability>
0.107061

> <r_epik_Ionization_Penalty>
10.5612

> <r_epik_Ionization_Penalty_Charging>
7.48913

> <r_epik_Ionization_Penalty_Neutral>
3.07202

> <r_epik_State_Penalty>
5.6431

> <r_epik_Charging_Adjusted_Penalty>
13.1322

> <i_epik_Tot_Q>
0

> <i_epik_Tot_abs_Q>
2

> <r_epik_Metal_State_Penalty>
1.58163

> <b_epik_Metal_Only>
1

> <s_lp_Force_Field>
OPLS_2005

> <r_lp_Energy>
24.9808

> <b_lp_Chiralities_Consistent>
1

> <s_lp_Variant>
AV-unprocessed.smi:2226-19

> <Gold.Version>
5.8.1

> <Gold.Id.Protein>
6NUR|6NUR_protein|mol2

> <Gold.PLP.Fitness>
40.6147

> <Gold.PLP.PLP>
-33.5301

> <Gold.PLP.part.hbond>
-3.0000

> <Gold.PLP.part.metal>
0.0000

> <Gold.PLP.part.buried>
-3.3747

> <Gold.PLP.part.nonpolar>
-25.9640

> <Gold.PLP.part.repulsive>
0.3373

> <Gold.PLP.ligand.clash>
0.0000

> <Gold.PLP.ligand.torsion>
0.9617

> <Gold.PLP.Chemscore.Hbond>
3.0000

> <Gold.PLP.Chemscore.CHOScore>
0.0000

> <Gold.PLP.Chemscore.Metal>
0.0000

> <Gold.Chemscore.Hbonds>
donor molecule, donor type, donor heavy atom, donor atom, acceptor molecule, acceptor atom, score
      L1  H     2    39       P1 10186  2.00
      P1  H 11000 11005       L1    15  1.00

> <Gold.PLP.Chemscore.Internal.Correction>
0.0080

> <Gold.Rescore>
     Score         DG    S(hbond)    S(metal)    S(lipo)     H(rot)  DE(clash)    DE(int)     intcor
     15.06     -17.81       1.93        0.00      72.07       1.00       0.13       2.63       ----

> <Gold.Chemscore.Fitness>
15.0631

> <Gold.Chemscore.DG>
-17.8147

> <Gold.Chemscore.ZeroCoef>
-5.4800

> <Gold.Chemscore.Hbond>
1.9349

> <Gold.Chemscore.Metal>
0.0000

> <Gold.Chemscore.Lipo>
72.0698

> <Gold.Chemscore.Internal_Hbond>
0.0000

> <Gold.Chemscore.DEClash>
0.1263

> <Gold.Chemscore.DEInternal>
2.6252

> <Gold.Chemscore.Rot>
1.0000

> <Gold.Chemscore.Internal.Correction>
   9.000000E+99

> <Gold.Chemscore.Hbonds>
donor molecule, donor type, donor heavy atom, donor atom, acceptor molecule, acceptor atom, score
      L1  H     2    39       P1 10186  0.97
      P1  H 11000 11005       L1    15  0.46

> <Gold.Chemscore.Hbond.Weighted>
-6.4625

> <Gold.Chemscore.Metal.Weighted>
-0.0000

> <Gold.Chemscore.Lipo.Weighted>
-8.4322

> <Gold.Chemscore.Internal_Hbond.Weighted>
0.0000

> <Gold.Chemscore.DEClash.Weighted>
0.1263

> <Gold.Chemscore.DEInternal.Weighted>
2.6252

> <Gold.Chemscore.Rot.Weighted>
2.5600

> <Gold.Chemscore.Internal.Correction.Weighted>
   9.000000E+99

> <Gold.Protein.RotatedTorsions>
[ 6907 6896 6895 6894 ] final   66.09 input  -60.11 | X-H torsion
[ 7974 7965 7964 7962 ] final  144.06 input  175.53 | X-H torsion
[ 8008 7997 7996 7995 ] final   33.38 input   59.86 | X-H torsion
[ 10167 10162 10161 10158 ] final  132.78 input  -65.29 | X-H torsion
[ 10718 10713 10712 10709 ] final   68.10 input   66.30 | X-H torsion
[ 10763 10752 10751 10750 ] final  124.00 input  -60.55 | X-H torsion
[ 11005 11000 10999 10996 ] final  114.32 input  -57.11 | X-H torsion

> <Gold.Protein.ActiveResidues>
 VAL166  LYS551  ARG553  GLY616  TRP617  ASP618  TYR619  PRO620  LYS621  CYS622 
 ASP623  PHE694  ASN695  SER759  ASP760  ASP761  ALA762  ILE779  LEU786  VAL792 
 PHE793  MET794  SER795  GLU796  ALA797  LYS798  CYS799  TRP800  GLU811  SER814 

> <Gold.Protein.RotatedAtoms>
  152.4455  134.5503  159.9864 H   0  0  0  0  0  0  0  0  0  0  0  0  # atno 6907 bound_to 6896
  151.5589  133.3400  159.2975 H   0  0  0  0  0  0  0  0  0  0  0  0  # atno 6908 bound_to 6896
  150.8371  134.7681  159.6965 H   0  0  0  0  0  0  0  0  0  0  0  0  # atno 6909 bound_to 6896
  144.8868  139.5617  143.5817 H   0  0  0  0  0  0  0  0  0  0  0  0  # atno 7974 bound_to 7965
  155.1377  140.3263  155.4459 H   0  0  0  0  0  0  0  0  0  0  0  0  # atno 8008 bound_to 7997
  156.2614  140.1999  156.6443 H   0  0  0  0  0  0  0  0  0  0  0  0  # atno 8009 bound_to 7997
  154.6565  140.0552  157.0001 H   0  0  0  0  0  0  0  0  0  0  0  0  # atno 8010 bound_to 7997
  139.5325  144.6646  151.4901 H   0  0  0  0  0  0  0  0  0  0  0  0  # atno 10167 bound_to 10162
  157.6269  130.9356  150.0332 H   0  0  0  0  0  0  0  0  0  0  0  0  # atno 10718 bound_to 10713
  153.6545  135.3357  155.3109 H   0  0  0  0  0  0  0  0  0  0  0  0  # atno 10763 bound_to 10752
  154.8530  135.4349  154.1869 H   0  0  0  0  0  0  0  0  0  0  0  0  # atno 10764 bound_to 10752
  153.2820  135.7010  153.7451 H   0  0  0  0  0  0  0  0  0  0  0  0  # atno 10765 bound_to 10752
  139.8977  134.9566  156.6875 H   0  0  0  0  0  0  0  0  0  0  0  0  # atno 11005 bound_to 11000
  146.3029  139.7485  142.9078 LP  0  0  0  0  0  0  0  0  0  0  0  0  # atno 17320 bound_to 7965
  145.3855  141.0365  143.3153 LP  0  0  0  0  0  0  0  0  0  0  0  0  # atno 17321 bound_to 7965
  140.6512  143.8693  150.6787 LP  0  0  0  0  0  0  0  0  0  0  0  0  # atno 17342 bound_to 10162
  140.2058  143.3923  152.1756 LP  0  0  0  0  0  0  0  0  0  0  0  0  # atno 17343 bound_to 10162
  156.1447  130.3642  149.9528 LP  0  0  0  0  0  0  0  0  0  0  0  0  # atno 17370 bound_to 10713
  156.7561  130.9133  151.3639 LP  0  0  0  0  0  0  0  0  0  0  0  0  # atno 17371 bound_to 10713
  140.7251  133.9107  155.8173 LP  0  0  0  0  0  0  0  0  0  0  0  0  # atno 17394 bound_to 11000
  141.0197  134.0906  157.4134 LP  0  0  0  0  0  0  0  0  0  0  0  0  # atno 17395 bound_to 11000

$$$$
