AV-unprocessed.smi:1512|AV-procd|sdf|6102|dock8
  -GOLD-   22720 6233D 1   1.00000     0.00000
 Structure written by MMmdl.
 44 46  0  0  0  0  0  0  0  0  3 V2000
  151.8174  140.0528  158.9950 C   0  0  0  0  0  0  0  0  0  0  0  0
  152.7050  141.3000  159.1511 C   0  0  2  0  0  0  0  0  0  0  0  0
  153.8255  141.0006  160.0404 N   0  0  0  0  0  0  0  0  0  0  0  0
  154.7409  140.0384  159.8488 C   0  0  0  0  0  0  0  0  0  0  0  0
  154.7229  139.2721  158.8844 O   0  0  0  0  0  0  0  0  0  0  0  0
  155.8292  139.9307  160.9272 C   0  0  0  0  0  0  0  0  0  0  0  0
  155.6590  138.7749  161.8249 N   0  0  0  0  0  0  0  0  0  0  0  0
  155.5430  139.0516  163.1999 C   0  0  0  0  0  0  0  0  0  0  0  0
  155.3763  138.0788  164.1069 C   0  0  0  0  0  0  0  0  0  0  0  0
  155.3198  136.7146  163.6420 C   0  0  0  0  0  0  0  0  0  0  0  0
  155.4265  136.4237  162.3248 C   0  0  0  0  0  0  0  0  0  0  0  0
  155.3647  135.0354  161.9286 N   0  3  0  0  0  0  0  0  0  0  0  0
  155.1893  134.7637  160.7447 O   0  0  0  0  0  0  0  0  0  0  0  0
  155.5039  134.1730  162.7911 O   0  5  0  0  0  0  0  0  0  0  0  0
  155.5998  137.5003  161.3271 C   0  0  0  0  0  0  0  0  0  0  0  0
  155.6783  137.2845  160.1162 O   0  0  0  0  0  0  0  0  0  0  0  0
  151.9237  142.5131  159.7089 C   0  0  1  0  0  0  0  0  0  0  0  0
  152.7893  143.7588  160.0091 C   0  0  0  0  0  0  0  0  0  0  0  0
  152.0103  144.8967  159.3233 C   0  0  1  0  0  0  0  0  0  0  0  0
  152.1976  144.7873  157.7991 C   0  0  0  0  0  0  0  0  0  0  0  0
  151.3421  143.5586  157.4416 C   0  0  0  0  0  0  0  0  0  0  0  0
  150.8049  143.1032  158.8143 C   0  0  2  0  0  0  0  0  0  0  0  0
  150.5639  144.4472  159.4952 C   0  0  0  0  0  0  0  0  0  0  0  0
  150.9999  140.2329  158.2970 H   0  0  0  0  0  0  0  0  0  0  0  0
  151.3820  139.7538  159.9489 H   0  0  0  0  0  0  0  0  0  0  0  0
  152.3873  139.2066  158.6097 H   0  0  0  0  0  0  0  0  0  0  0  0
  153.1126  141.5616  158.1740 H   0  0  0  0  0  0  0  0  0  0  0  0
  153.9169  141.5807  160.8619 H   0  0  0  0  0  0  0  0  0  0  0  0
  156.8071  139.8921  160.4433 H   0  0  0  0  0  0  0  0  0  0  0  0
  155.8335  140.8593  161.4998 H   0  0  0  0  0  0  0  0  0  0  0  0
  155.5886  140.0980  163.4653 H   0  0  0  0  0  0  0  0  0  0  0  0
  155.2839  138.3103  165.1579 H   0  0  0  0  0  0  0  0  0  0  0  0
  155.1981  135.9233  164.3675 H   0  0  0  0  0  0  0  0  0  0  0  0
  151.4555  142.1992  160.6441 H   0  0  0  0  0  0  0  0  0  0  0  0
  152.8594  143.9244  161.0848 H   0  0  0  0  0  0  0  0  0  0  0  0
  153.8059  143.6773  159.6216 H   0  0  0  0  0  0  0  0  0  0  0  0
  152.2386  145.8857  159.7218 H   0  0  0  0  0  0  0  0  0  0  0  0
  151.8190  145.6772  157.2949 H   0  0  0  0  0  0  0  0  0  0  0  0
  153.2439  144.6628  157.5177 H   0  0  0  0  0  0  0  0  0  0  0  0
  150.5169  143.8522  156.7914 H   0  0  0  0  0  0  0  0  0  0  0  0
  151.9046  142.7880  156.9162 H   0  0  0  0  0  0  0  0  0  0  0  0
  149.9195  142.4705  158.7475 H   0  0  0  0  0  0  0  0  0  0  0  0
  150.2588  144.3588  160.5394 H   0  0  0  0  0  0  0  0  0  0  0  0
  149.8486  145.0803  158.9667 H   0  0  0  0  0  0  0  0  0  0  0  0
  1  2  1  0  0  0  0
  1 24  1  0  0  0  0
  1 25  1  0  0  0  0
  1 26  1  0  0  0  0
  2  3  1  0  0  0  0
  2 17  1  0  0  0  0
  2 27  1  0  0  0  0
  3  4  1  0  0  0  0
  3 28  1  0  0  0  0
  4  5  2  0  0  0  0
  4  6  1  0  0  0  0
  6  7  1  0  0  0  0
  6 29  1  0  0  0  0
  6 30  1  0  0  0  0
  7 15  1  0  0  0  0
  7  8  1  0  0  0  0
  8  9  2  0  0  0  0
  8 31  1  0  0  0  0
  9 10  1  0  0  0  0
  9 32  1  0  0  0  0
 10 11  2  0  0  0  0
 10 33  1  0  0  0  0
 11 12  1  0  0  0  0
 11 15  1  0  0  0  0
 12 13  2  0  0  0  0
 12 14  1  0  0  0  0
 15 16  2  0  0  0  0
 17 22  1  0  0  0  0
 17 18  1  0  0  0  0
 17 34  1  0  0  0  0
 18 19  1  0  0  0  0
 18 35  1  0  0  0  0
 18 36  1  0  0  0  0
 19 23  1  0  0  0  0
 19 20  1  0  0  0  0
 19 37  1  0  0  0  0
 20 21  1  0  0  0  0
 20 38  1  0  0  0  0
 20 39  1  0  0  0  0
 21 22  1  0  0  0  0
 21 40  1  0  0  0  0
 21 41  1  0  0  0  0
 22 23  1  0  0  0  0
 22 42  1  0  0  0  0
 23 43  1  0  0  0  0
 23 44  1  0  0  0  0
M  CHG  1  12   1
M  CHG  1  14  -1
M  END
> <s_m_source_file>
AV-unprocessed.smi

> <i_m_source_file_index>
1512

> <i_lp_mmshare_version>
43012

> <i_f3d_flags>
0

> <s_epik_input>
W0NIMl0xW0NIMl1bQ0BIXShbQ0gyXTIpW0NAQEhdKFtDSDJdW0NAQEhdMTIpW0NASF0oW0NIM10pW05IXUMoPU8pW0NIMl1uM1tjSF1bY0hdW2NIXWMoW04rXSg9TylbTy1dKWMzPU8=

> <s_epik_cmdline>
J2VwaWtfcHl0aG9uJywgJy1waCcsICc3LjAnLCAnLXRuJywgJzgnLCAnLW1hJywgJzIwMCcsICctbWV0YWxfYmluZGluZycsICctaW1hZScsICc8aW5maWxlLm1hZT4nLCAnLW9tYWUnLCAnPG91dGZpbGUubWFlPic=

> <r_lp_tautomer_probability>
1

> <r_epik_Ionization_Penalty>
2.17697e-08

> <r_epik_Ionization_Penalty_Charging>
1.42735e-10

> <r_epik_Ionization_Penalty_Neutral>
2.16269e-08

> <r_epik_State_Penalty>
-0

> <r_epik_Charging_Adjusted_Penalty>
1.42735e-10

> <i_epik_Tot_Q>
0

> <i_epik_Tot_abs_Q>
2

> <r_epik_Metal_State_Penalty>
-0

> <b_epik_Metal_Only>
0

> <s_lp_Force_Field>
OPLS_2005

> <r_lp_Energy>
64.3295

> <b_lp_Chiralities_Consistent>
1

> <s_lp_Variant>
AV-unprocessed.smi:1512-3

> <Gold.Version>
5.8.1

> <Gold.Id.Protein>
6NUR|6NUR_protein|mol2

> <Gold.PLP.Fitness>
47.6000

> <Gold.PLP.PLP>
-44.3771

> <Gold.PLP.part.hbond>
-2.0000

> <Gold.PLP.part.metal>
0.0000

> <Gold.PLP.part.buried>
-6.1562

> <Gold.PLP.part.nonpolar>
-36.8436

> <Gold.PLP.part.repulsive>
0.0636

> <Gold.PLP.ligand.clash>
0.0000

> <Gold.PLP.ligand.torsion>
0.3221

> <Gold.PLP.Chemscore.Hbond>
1.2808

> <Gold.PLP.Chemscore.CHOScore>
0.0000

> <Gold.PLP.Chemscore.Metal>
0.0000

> <Gold.Chemscore.Hbonds>
donor molecule, donor type, donor heavy atom, donor atom, acceptor molecule, acceptor atom, score
      P1  H  7997  8010       L1     5  1.00

> <Gold.PLP.Chemscore.Internal.Correction>
0.0247

> <Gold.Rescore>
     Score         DG    S(hbond)    S(metal)    S(lipo)     H(rot)  DE(clash)    DE(int)     intcor
     15.90     -19.48       0.98        0.00     129.98       1.75       0.16       3.42       ----

> <Gold.Chemscore.Fitness>
15.9035

> <Gold.Chemscore.DG>
-19.4788

> <Gold.Chemscore.ZeroCoef>
-5.4800

> <Gold.Chemscore.Hbond>
0.9774

> <Gold.Chemscore.Metal>
0.0000

> <Gold.Chemscore.Lipo>
129.9788

> <Gold.Chemscore.Internal_Hbond>
0.0000

> <Gold.Chemscore.DEClash>
0.1586

> <Gold.Chemscore.DEInternal>
3.4167

> <Gold.Chemscore.Rot>
1.7474

> <Gold.Chemscore.Internal.Correction>
   9.000000E+99

> <Gold.Chemscore.Hbonds>
donor molecule, donor type, donor heavy atom, donor atom, acceptor molecule, acceptor atom, score
      P1  H  7997  8010       L1     5  0.91

> <Gold.Chemscore.Hbond.Weighted>
-3.2646

> <Gold.Chemscore.Metal.Weighted>
-0.0000

> <Gold.Chemscore.Lipo.Weighted>
-15.2075

> <Gold.Chemscore.Internal_Hbond.Weighted>
0.0000

> <Gold.Chemscore.DEClash.Weighted>
0.1586

> <Gold.Chemscore.DEInternal.Weighted>
3.4167

> <Gold.Chemscore.Rot.Weighted>
4.4733

> <Gold.Chemscore.Internal.Correction.Weighted>
   9.000000E+99

> <Gold.Protein.RotatedTorsions>
[ 6907 6896 6895 6894 ] final  -72.76 input  -60.11 | X-H torsion
[ 7974 7965 7964 7962 ] final   52.48 input  175.53 | X-H torsion
[ 8008 7997 7996 7995 ] final   -1.34 input   59.86 | X-H torsion
[ 10167 10162 10161 10158 ] final   33.06 input  -65.29 | X-H torsion
[ 10718 10713 10712 10709 ] final  133.48 input   66.30 | X-H torsion
[ 10763 10752 10751 10750 ] final   31.40 input  -60.55 | X-H torsion
[ 11005 11000 10999 10996 ] final  -85.84 input  -57.11 | X-H torsion

> <Gold.Protein.ActiveResidues>
 VAL166  LYS551  ARG553  GLY616  TRP617  ASP618  TYR619  PRO620  LYS621  CYS622 
 ASP623  PHE694  ASN695  SER759  ASP760  ASP761  ALA762  ILE779  LEU786  VAL792 
 PHE793  MET794  SER795  GLU796  ALA797  LYS798  CYS799  TRP800  GLU811  SER814 

> <Gold.Protein.RotatedAtoms>
  150.7157  134.5115  159.5609 H   0  0  0  0  0  0  0  0  0  0  0  0  # atno 6907 bound_to 6896
  152.2691  134.7950  160.0426 H   0  0  0  0  0  0  0  0  0  0  0  0  # atno 6908 bound_to 6896
  151.8636  133.3426  159.3748 H   0  0  0  0  0  0  0  0  0  0  0  0  # atno 6909 bound_to 6896
  145.9808  139.4241  143.0133 H   0  0  0  0  0  0  0  0  0  0  0  0  # atno 7974 bound_to 7965
  154.6479  140.2562  155.7247 H   0  0  0  0  0  0  0  0  0  0  0  0  # atno 8008 bound_to 7997
  156.2561  140.2874  156.0821 H   0  0  0  0  0  0  0  0  0  0  0  0  # atno 8009 bound_to 7997
  155.1496  140.0382  157.2808 H   0  0  0  0  0  0  0  0  0  0  0  0  # atno 8010 bound_to 7997
  140.4441  144.1144  150.6179 H   0  0  0  0  0  0  0  0  0  0  0  0  # atno 10167 bound_to 10162
  157.4769  131.1083  150.9732 H   0  0  0  0  0  0  0  0  0  0  0  0  # atno 10718 bound_to 10713
  153.0318  135.6440  154.1194 H   0  0  0  0  0  0  0  0  0  0  0  0  # atno 10763 bound_to 10752
  154.0915  135.2866  155.3272 H   0  0  0  0  0  0  0  0  0  0  0  0  # atno 10764 bound_to 10752
  154.6461  135.5442  153.7910 H   0  0  0  0  0  0  0  0  0  0  0  0  # atno 10765 bound_to 10752
  141.1637  133.7421  156.9073 H   0  0  0  0  0  0  0  0  0  0  0  0  # atno 11005 bound_to 11000
  145.7772  140.9872  143.1118 LP  0  0  0  0  0  0  0  0  0  0  0  0  # atno 17320 bound_to 7965
  144.6861  139.9519  143.7478 LP  0  0  0  0  0  0  0  0  0  0  0  0  # atno 17321 bound_to 7965
  140.4284  143.2579  151.9627 LP  0  0  0  0  0  0  0  0  0  0  0  0  # atno 17342 bound_to 10162
  139.4791  144.5767  151.8000 LP  0  0  0  0  0  0  0  0  0  0  0  0  # atno 17343 bound_to 10162
  157.0478  130.5775  149.5365 LP  0  0  0  0  0  0  0  0  0  0  0  0  # atno 17370 bound_to 10713
  156.0101  130.5192  150.7961 LP  0  0  0  0  0  0  0  0  0  0  0  0  # atno 17371 bound_to 10713
  140.1541  134.9210  157.2630 LP  0  0  0  0  0  0  0  0  0  0  0  0  # atno 17394 bound_to 11000
  140.2688  134.3484  155.7380 LP  0  0  0  0  0  0  0  0  0  0  0  0  # atno 17395 bound_to 11000

$$$$
