AV-unprocessed.smi:2693|AV-procd|sdf|10400|dock1
  -GOLD-   2272014433D 1   1.00000     0.00000
 Structure written by MMmdl.
 45 47  0  0  0  0  0  0  0  0  1 V2000
  151.0669  129.5634  154.9906 C   0  0  0  0  0  0  0  0  0  0  0  0
  149.9607  130.2668  154.3474 N   0  0  0  0  0  0  0  0  0  0  0  0
  149.0116  129.4718  153.5733 C   0  0  0  0  0  0  0  0  0  0  0  0
  149.8225  131.6534  154.4582 C   0  0  0  0  0  0  0  0  0  0  0  0
  150.5249  132.2690  155.4185 N   0  0  0  0  0  0  0  0  0  0  0  0
  150.3947  133.6079  155.5347 C   0  0  0  0  0  0  0  0  0  0  0  0
  149.5448  134.3484  154.6785 C   0  0  0  0  0  0  0  0  0  0  0  0
  149.3578  135.7563  154.7169 N   0  0  0  0  0  0  0  0  0  0  0  0
  149.4460  136.5889  155.7677 C   0  0  0  0  0  0  0  0  0  0  0  0
  149.6936  136.2554  156.9258 O   0  0  0  0  0  0  0  0  0  0  0  0
  149.2201  137.8552  155.3959 N   0  0  0  0  0  0  0  0  0  0  0  0
  149.2413  139.0116  156.2934 C   0  0  1  0  0  0  0  0  0  0  0  0
  150.6627  139.3919  156.7705 C   0  0  1  0  0  0  0  0  0  0  0  0
  151.8688  138.5077  156.5626 C   0  0  0  0  0  0  0  0  0  0  0  0
  152.4992  139.0847  155.2918 C   0  0  0  0  0  0  0  0  0  0  0  0
  151.4459  139.8060  154.6560 O   0  0  0  0  0  0  0  0  0  0  0  0
  150.6798  140.4453  155.6744 C   0  0  1  0  0  0  0  0  0  0  0  0
  149.1455  140.3617  155.5347 C   0  0  0  0  0  0  0  0  0  0  0  0
  148.5881  140.3669  154.1046 C   0  0  0  0  0  0  0  0  0  0  0  0
  148.3897  141.4560  156.2945 C   0  0  0  0  0  0  0  0  0  0  0  0
  148.8621  133.6003  153.6986 C   0  0  0  0  0  0  0  0  0  0  0  0
  148.9999  132.2621  153.5941 N   0  0  0  0  0  0  0  0  0  0  0  0
  151.0400  129.7182  156.0696 H   0  0  0  0  0  0  0  0  0  0  0  0
  152.0217  129.9309  154.6136 H   0  0  0  0  0  0  0  0  0  0  0  0
  151.0288  128.4896  154.8085 H   0  0  0  0  0  0  0  0  0  0  0  0
  148.0034  129.5873  153.9724 H   0  0  0  0  0  0  0  0  0  0  0  0
  149.2567  128.4098  153.5933 H   0  0  0  0  0  0  0  0  0  0  0  0
  149.0078  129.7928  152.5311 H   0  0  0  0  0  0  0  0  0  0  0  0
  150.9922  134.0631  156.3082 H   0  0  0  0  0  0  0  0  0  0  0  0
  149.0947  136.1802  153.8390 H   0  0  0  0  0  0  0  0  0  0  0  0
  149.0259  138.0411  154.4227 H   0  0  0  0  0  0  0  0  0  0  0  0
  148.5257  138.9442  157.1151 H   0  0  0  0  0  0  0  0  0  0  0  0
  150.6262  139.8560  157.7574 H   0  0  0  0  0  0  0  0  0  0  0  0
  152.5639  138.5565  157.4012 H   0  0  0  0  0  0  0  0  0  0  0  0
  151.5967  137.4612  156.4302 H   0  0  0  0  0  0  0  0  0  0  0  0
  153.3011  139.7798  155.5447 H   0  0  0  0  0  0  0  0  0  0  0  0
  152.9084  138.3144  154.6379 H   0  0  0  0  0  0  0  0  0  0  0  0
  151.0852  141.4087  155.9873 H   0  0  0  0  0  0  0  0  0  0  0  0
  148.6556  141.3570  153.6527 H   0  0  0  0  0  0  0  0  0  0  0  0
  147.5397  140.0678  154.0854 H   0  0  0  0  0  0  0  0  0  0  0  0
  149.1299  139.6867  153.4472 H   0  0  0  0  0  0  0  0  0  0  0  0
  148.5437  142.4371  155.8439 H   0  0  0  0  0  0  0  0  0  0  0  0
  148.7174  141.5262  157.3322 H   0  0  0  0  0  0  0  0  0  0  0  0
  147.3163  141.2643  156.3089 H   0  0  0  0  0  0  0  0  0  0  0  0
  148.1979  134.0765  152.9923 H   0  0  0  0  0  0  0  0  0  0  0  0
  1  2  1  0  0  0  0
  1 23  1  0  0  0  0
  1 24  1  0  0  0  0
  1 25  1  0  0  0  0
  2  3  1  0  0  0  0
  2  4  1  0  0  0  0
  3 26  1  0  0  0  0
  3 27  1  0  0  0  0
  3 28  1  0  0  0  0
  4 22  1  0  0  0  0
  4  5  2  0  0  0  0
  5  6  1  0  0  0  0
  6  7  2  0  0  0  0
  6 29  1  0  0  0  0
  7  8  1  0  0  0  0
  7 21  1  0  0  0  0
  8  9  1  0  0  0  0
  8 30  1  0  0  0  0
  9 10  2  0  0  0  0
  9 11  1  0  0  0  0
 11 12  1  0  0  0  0
 11 31  1  0  0  0  0
 12 18  1  0  0  0  0
 12 13  1  0  0  0  0
 12 32  1  0  0  0  0
 13 17  1  0  0  0  0
 13 14  1  0  0  0  0
 13 33  1  0  0  0  0
 14 15  1  0  0  0  0
 14 34  1  0  0  0  0
 14 35  1  0  0  0  0
 15 16  1  0  0  0  0
 15 36  1  0  0  0  0
 15 37  1  0  0  0  0
 16 17  1  0  0  0  0
 17 18  1  0  0  0  0
 17 38  1  0  0  0  0
 18 19  1  0  0  0  0
 18 20  1  0  0  0  0
 19 39  1  0  0  0  0
 19 40  1  0  0  0  0
 19 41  1  0  0  0  0
 20 42  1  0  0  0  0
 20 43  1  0  0  0  0
 20 44  1  0  0  0  0
 21 22  2  0  0  0  0
 21 45  1  0  0  0  0
M  END
> <s_m_source_file>
AV-unprocessed.smi

> <i_m_source_file_index>
2693

> <i_lp_mmshare_version>
43012

> <i_f3d_flags>
0

> <s_epik_input>
W0NIM11OKFtDSDNdKWMxbltjSF1jKFtjSF1uMSlbTkhdQyg9TylbTkhdW0NASF0yQyhbQ0gzXSkoW0NIM10pW0NAQEhdKFtDQEhdMjMpT1tDSDJdW0NIMl0z

> <s_epik_cmdline>
J2VwaWtfcHl0aG9uJywgJy1waCcsICc3LjAnLCAnLXRuJywgJzgnLCAnLW1hJywgJzIwMCcsICctbWV0YWxfYmluZGluZycsICctaW1hZScsICc8aW5maWxlLm1hZT4nLCAnLW9tYWUnLCAnPG91dGZpbGUubWFlPic=

> <r_lp_tautomer_probability>
1

> <r_epik_Ionization_Penalty>
0.00031779

> <r_epik_Ionization_Penalty_Charging>
0

> <r_epik_Ionization_Penalty_Neutral>
0.00031779

> <r_epik_State_Penalty>
-0

> <r_epik_Charging_Adjusted_Penalty>
0

> <i_epik_Tot_Q>
0

> <i_epik_Tot_abs_Q>
0

> <r_epik_Metal_State_Penalty>
-0

> <b_epik_Metal_Only>
0

> <s_lp_Force_Field>
OPLS_2005

> <r_lp_Energy>
31.917

> <b_lp_Chiralities_Consistent>
1

> <s_lp_Variant>
AV-unprocessed.smi:2693-4

> <Gold.Version>
5.8.1

> <Gold.Id.Protein>
6NUR|6NUR_protein|mol2

> <Gold.PLP.Fitness>
39.4788

> <Gold.PLP.PLP>
-31.7286

> <Gold.PLP.part.hbond>
-2.0000

> <Gold.PLP.part.metal>
0.0000

> <Gold.PLP.part.buried>
-4.0326

> <Gold.PLP.part.nonpolar>
-26.2119

> <Gold.PLP.part.repulsive>
0.2190

> <Gold.PLP.ligand.clash>
0.0000

> <Gold.PLP.ligand.torsion>
0.3763

> <Gold.PLP.Chemscore.Hbond>
2.0000

> <Gold.PLP.Chemscore.CHOScore>
0.7696

> <Gold.PLP.Chemscore.Metal>
0.0000

> <Gold.Chemscore.Hbonds>
donor molecule, donor type, donor heavy atom, donor atom, acceptor molecule, acceptor atom, score
      L1  H     8    30       P1  7948  1.00
      P1  H  7989  7998       L1    16  1.00
      L1  C    21    45       P1  7948  0.77

> <Gold.PLP.Chemscore.Internal.Correction>
0.1939

> <Gold.Rescore>
     Score         DG    S(hbond)    S(metal)    S(lipo)     H(rot)  DE(clash)    DE(int)     intcor
     16.23     -16.70       1.78        0.00      66.86       1.00       0.00       0.46       ----

> <Gold.Chemscore.Fitness>
16.2318

> <Gold.Chemscore.DG>
-16.6959

> <Gold.Chemscore.ZeroCoef>
-5.4800

> <Gold.Chemscore.Hbond>
1.7824

> <Gold.Chemscore.Metal>
0.0000

> <Gold.Chemscore.Lipo>
66.8599

> <Gold.Chemscore.Internal_Hbond>
0.0000

> <Gold.Chemscore.DEClash>
0.0009

> <Gold.Chemscore.DEInternal>
0.4631

> <Gold.Chemscore.Rot>
1.0000

> <Gold.Chemscore.Internal.Correction>
   9.000000E+99

> <Gold.Chemscore.Hbonds>
donor molecule, donor type, donor heavy atom, donor atom, acceptor molecule, acceptor atom, score
      L1  H     8    30       P1  7948  0.92
      P1  H  7989  7998       L1    16  0.58

> <Gold.Chemscore.Hbond.Weighted>
-5.9533

> <Gold.Chemscore.Metal.Weighted>
-0.0000

> <Gold.Chemscore.Lipo.Weighted>
-7.8226

> <Gold.Chemscore.Internal_Hbond.Weighted>
0.0000

> <Gold.Chemscore.DEClash.Weighted>
0.0009

> <Gold.Chemscore.DEInternal.Weighted>
0.4631

> <Gold.Chemscore.Rot.Weighted>
2.5600

> <Gold.Chemscore.Internal.Correction.Weighted>
   9.000000E+99

> <Gold.Protein.RotatedTorsions>
[ 6907 6896 6895 6894 ] final   55.55 input  -60.11 | X-H torsion
[ 7974 7965 7964 7962 ] final   28.51 input  175.53 | X-H torsion
[ 8008 7997 7996 7995 ] final   20.65 input   59.86 | X-H torsion
[ 10167 10162 10161 10158 ] final   61.82 input  -65.29 | X-H torsion
[ 10718 10713 10712 10709 ] final    3.88 input   66.30 | X-H torsion
[ 10763 10752 10751 10750 ] final -138.65 input  -60.55 | X-H torsion
[ 11005 11000 10999 10996 ] final -122.81 input  -57.11 | X-H torsion

> <Gold.Protein.ActiveResidues>
 VAL166  LYS551  ARG553  GLY616  TRP617  ASP618  TYR619  PRO620  LYS621  CYS622 
 ASP623  PHE694  ASN695  SER759  ASP760  ASP761  ALA762  ILE779  LEU786  VAL792 
 PHE793  MET794  SER795  GLU796  ALA797  LYS798  CYS799  TRP800  GLU811  SER814 

> <Gold.Protein.RotatedAtoms>
  152.3549  134.6953  160.0224 H   0  0  0  0  0  0  0  0  0  0  0  0  # atno 6907 bound_to 6896
  151.7295  133.3312  159.3344 H   0  0  0  0  0  0  0  0  0  0  0  0  # atno 6908 bound_to 6896
  150.7565  134.6309  159.6230 H   0  0  0  0  0  0  0  0  0  0  0  0  # atno 6909 bound_to 6896
  146.1725  139.7047  142.8958 H   0  0  0  0  0  0  0  0  0  0  0  0  # atno 7974 bound_to 7965
  154.9388  140.3050  155.5131 H   0  0  0  0  0  0  0  0  0  0  0  0  # atno 8008 bound_to 7997
  156.2997  140.2340  156.4392 H   0  0  0  0  0  0  0  0  0  0  0  0  # atno 8009 bound_to 7997
  154.8166  140.0425  157.1369 H   0  0  0  0  0  0  0  0  0  0  0  0  # atno 8010 bound_to 7997
  140.1507  144.4466  150.6761 H   0  0  0  0  0  0  0  0  0  0  0  0  # atno 10167 bound_to 10162
  156.8844  130.5665  149.5652 H   0  0  0  0  0  0  0  0  0  0  0  0  # atno 10718 bound_to 10713
  154.8631  135.3606  154.5418 H   0  0  0  0  0  0  0  0  0  0  0  0  # atno 10763 bound_to 10752
  153.6040  135.7011  153.5378 H   0  0  0  0  0  0  0  0  0  0  0  0  # atno 10764 bound_to 10752
  153.3266  135.4136  155.1422 H   0  0  0  0  0  0  0  0  0  0  0  0  # atno 10765 bound_to 10752
  140.9967  134.0461  157.3588 H   0  0  0  0  0  0  0  0  0  0  0  0  # atno 11005 bound_to 11000
  145.4302  141.0414  143.2915 LP  0  0  0  0  0  0  0  0  0  0  0  0  # atno 17320 bound_to 7965
  144.8184  139.5834  143.6998 LP  0  0  0  0  0  0  0  0  0  0  0  0  # atno 17321 bound_to 7965
  140.6704  143.2284  151.5638 LP  0  0  0  0  0  0  0  0  0  0  0  0  # atno 17342 bound_to 10162
  139.5427  144.2603  152.1383 LP  0  0  0  0  0  0  0  0  0  0  0  0  # atno 17343 bound_to 10162
  156.0661  130.5704  150.9291 LP  0  0  0  0  0  0  0  0  0  0  0  0  # atno 17370 bound_to 10713
  157.6121  131.0935  150.8776 LP  0  0  0  0  0  0  0  0  0  0  0  0  # atno 17371 bound_to 10713
  139.9018  135.0167  156.7304 LP  0  0  0  0  0  0  0  0  0  0  0  0  # atno 17394 bound_to 11000
  140.6954  133.9353  155.7992 LP  0  0  0  0  0  0  0  0  0  0  0  0  # atno 17395 bound_to 11000

$$$$
