AV-unprocessed.smi:2827|AV-procd|sdf|10896|dock8
  -GOLD-   2272015343D 1   1.00000     0.00000
 Structure written by MMmdl.
 48 51  0  0  0  0  0  0  0  0  3 V2000
  151.0491  142.1030  156.1791 O   0  0  0  0  0  0  0  0  0  0  0  0
  150.7233  142.4533  157.3130 C   0  0  0  0  0  0  0  0  0  0  0  0
  151.5720  143.4733  158.0740 C   0  0  0  0  0  0  0  0  0  0  0  0
  151.9086  142.9446  159.3923 N   0  0  0  0  0  0  0  0  0  0  0  0
  151.5787  143.6362  160.5537 C   0  0  0  0  0  0  0  0  0  0  0  0
  152.1113  143.3777  161.7630 C   0  0  0  0  0  0  0  0  0  0  0  0
  153.1156  142.3034  161.8992 C   0  0  0  0  0  0  0  0  0  0  0  0
  153.6511  142.0790  162.9834 O   0  0  0  0  0  0  0  0  0  0  0  0
  153.4459  141.5302  160.6676 C   0  0  0  0  0  0  0  0  0  0  0  0
  154.3831  140.4285  160.6030 N   0  3  0  0  0  0  0  0  0  0  0  0
  154.4140  139.7309  159.5926 O   0  0  0  0  0  0  0  0  0  0  0  0
  155.1208  140.2253  161.5615 O   0  5  0  0  0  0  0  0  0  0  0  0
  152.8205  141.8966  159.5213 C   0  0  0  0  0  0  0  0  0  0  0  0
  149.6674  141.9555  157.9744 N   0  0  0  0  0  0  0  0  0  0  0  0
  148.8619  140.8160  157.5498 C   0  0  0  0  0  0  0  0  0  0  0  0
  147.8812  141.2196  156.4208 C   0  0  2  0  0  0  0  0  0  0  0  0
  146.7457  140.1949  156.1350 C   0  0  2  0  0  0  0  0  0  0  0  0
  147.3142  138.9077  155.4946 C   0  0  0  0  0  0  0  0  0  0  0  0
  148.0145  139.2610  154.1652 C   0  0  1  0  0  0  0  0  0  0  0  0
  146.9937  139.9003  153.1994 C   0  0  0  0  0  0  0  0  0  0  0  0
  146.4228  141.1842  153.8384 C   0  0  1  0  0  0  0  0  0  0  0  0
  145.7215  140.8282  155.1671 C   0  0  0  0  0  0  0  0  0  0  0  0
  147.5722  142.1804  154.1086 C   0  0  0  0  0  0  0  0  0  0  0  0
  148.5917  141.5417  155.0799 C   0  0  2  0  0  0  0  0  0  0  0  0
  149.1626  140.2577  154.4326 C   0  0  0  0  0  0  0  0  0  0  0  0
  152.4795  143.6870  157.5076 H   0  0  0  0  0  0  0  0  0  0  0  0
  151.0377  144.4199  158.1706 H   0  0  0  0  0  0  0  0  0  0  0  0
  150.8442  144.4160  160.4149 H   0  0  0  0  0  0  0  0  0  0  0  0
  151.8246  143.9436  162.6371 H   0  0  0  0  0  0  0  0  0  0  0  0
  153.0011  141.3801  158.5893 H   0  0  0  0  0  0  0  0  0  0  0  0
  149.4741  142.3242  158.8945 H   0  0  0  0  0  0  0  0  0  0  0  0
  149.5459  140.0512  157.1812 H   0  0  0  0  0  0  0  0  0  0  0  0
  148.3413  140.3680  158.3960 H   0  0  0  0  0  0  0  0  0  0  0  0
  147.4076  142.1412  156.7641 H   0  0  0  0  0  0  0  0  0  0  0  0
  146.2244  139.9373  157.0554 H   0  0  0  0  0  0  0  0  0  0  0  0
  148.0114  138.4136  156.1710 H   0  0  0  0  0  0  0  0  0  0  0  0
  146.5101  138.1927  155.3167 H   0  0  0  0  0  0  0  0  0  0  0  0
  148.4191  138.3535  153.7159 H   0  0  0  0  0  0  0  0  0  0  0  0
  147.4694  140.1322  152.2454 H   0  0  0  0  0  0  0  0  0  0  0  0
  146.1894  139.1972  152.9796 H   0  0  0  0  0  0  0  0  0  0  0  0
  145.7013  141.6377  153.1579 H   0  0  0  0  0  0  0  0  0  0  0  0
  144.8965  140.1378  154.9867 H   0  0  0  0  0  0  0  0  0  0  0  0
  145.2807  141.7208  155.6124 H   0  0  0  0  0  0  0  0  0  0  0  0
  148.0618  142.4532  153.1729 H   0  0  0  0  0  0  0  0  0  0  0  0
  147.1771  143.1063  154.5286 H   0  0  0  0  0  0  0  0  0  0  0  0
  149.4021  142.2495  155.2569 H   0  0  0  0  0  0  0  0  0  0  0  0
  149.9195  139.8026  155.0711 H   0  0  0  0  0  0  0  0  0  0  0  0
  149.6685  140.5039  153.4983 H   0  0  0  0  0  0  0  0  0  0  0  0
  1  2  2  0  0  0  0
  2  3  1  0  0  0  0
  2 14  1  0  0  0  0
  3  4  1  0  0  0  0
  3 26  1  0  0  0  0
  3 27  1  0  0  0  0
  4 13  1  0  0  0  0
  4  5  1  0  0  0  0
  5  6  2  0  0  0  0
  5 28  1  0  0  0  0
  6  7  1  0  0  0  0
  6 29  1  0  0  0  0
  7  8  2  0  0  0  0
  7  9  1  0  0  0  0
  9 10  1  0  0  0  0
  9 13  2  0  0  0  0
 10 11  2  0  0  0  0
 10 12  1  0  0  0  0
 13 30  1  0  0  0  0
 14 15  1  0  0  0  0
 14 31  1  0  0  0  0
 15 16  1  0  0  0  0
 15 32  1  0  0  0  0
 15 33  1  0  0  0  0
 16 24  1  0  0  0  0
 16 17  1  0  0  0  0
 16 34  1  0  0  0  0
 17 22  1  0  0  0  0
 17 18  1  0  0  0  0
 17 35  1  0  0  0  0
 18 19  1  0  0  0  0
 18 36  1  0  0  0  0
 18 37  1  0  0  0  0
 19 25  1  0  0  0  0
 19 20  1  0  0  0  0
 19 38  1  0  0  0  0
 20 21  1  0  0  0  0
 20 39  1  0  0  0  0
 20 40  1  0  0  0  0
 21 22  1  0  0  0  0
 21 23  1  0  0  0  0
 21 41  1  0  0  0  0
 22 42  1  0  0  0  0
 22 43  1  0  0  0  0
 23 24  1  0  0  0  0
 23 44  1  0  0  0  0
 23 45  1  0  0  0  0
 24 25  1  0  0  0  0
 24 46  1  0  0  0  0
 25 47  1  0  0  0  0
 25 48  1  0  0  0  0
M  CHG  1  10   1
M  CHG  1  12  -1
M  END
> <s_m_source_file>
AV-unprocessed.smi

> <i_m_source_file_index>
2827

> <i_lp_mmshare_version>
43012

> <i_f3d_flags>
0

> <s_epik_input>
Tz1bTitdKFtPLV0pYyhbY0hdMSljKD1PKVtjSF1bY0hdbjFbQ0gyXUMoPU8pW05IXVtDSDJdW0NASF0oW0NASF0yMylbQ0BASF00W0NIMl1bQ0BIXShbQ0gyXTMpW0NIMl1bQ0BIXShbQ0gyXTIpW0NIMl00

> <s_epik_cmdline>
J2VwaWtfcHl0aG9uJywgJy1waCcsICc3LjAnLCAnLXRuJywgJzgnLCAnLW1hJywgJzIwMCcsICctbWV0YWxfYmluZGluZycsICctaW1hZScsICc8aW5maWxlLm1hZT4nLCAnLW9tYWUnLCAnPG91dGZpbGUubWFlPic=

> <r_lp_tautomer_probability>
1

> <r_epik_Ionization_Penalty>
3.31423e-08

> <r_epik_Ionization_Penalty_Charging>
1.04538e-08

> <r_epik_Ionization_Penalty_Neutral>
2.26885e-08

> <r_epik_State_Penalty>
-0

> <r_epik_Charging_Adjusted_Penalty>
1.04538e-08

> <i_epik_Tot_Q>
0

> <i_epik_Tot_abs_Q>
2

> <r_epik_Metal_State_Penalty>
-0

> <b_epik_Metal_Only>
0

> <s_lp_Force_Field>
OPLS_2005

> <r_lp_Energy>
36.4142

> <b_lp_Chiralities_Consistent>
1

> <s_lp_Variant>
AV-unprocessed.smi:2827-1

> <Gold.Version>
5.8.1

> <Gold.Id.Protein>
6NUR|6NUR_protein|mol2

> <Gold.PLP.Fitness>
49.4365

> <Gold.PLP.PLP>
-47.1388

> <Gold.PLP.part.hbond>
-3.0000

> <Gold.PLP.part.metal>
0.0000

> <Gold.PLP.part.buried>
0.6700

> <Gold.PLP.part.nonpolar>
-43.1537

> <Gold.PLP.part.repulsive>
0.2314

> <Gold.PLP.ligand.clash>
0.0005

> <Gold.PLP.ligand.torsion>
0.3919

> <Gold.PLP.Chemscore.Hbond>
0.9833

> <Gold.PLP.Chemscore.CHOScore>
0.0000

> <Gold.PLP.Chemscore.Metal>
0.0000

> <Gold.Chemscore.Hbonds>
donor molecule, donor type, donor heavy atom, donor atom, acceptor molecule, acceptor atom, score
      P1  H  7997  8010       L1    11  0.11

> <Gold.PLP.Chemscore.Internal.Correction>
0.1319

> <Gold.Rescore>
     Score         DG    S(hbond)    S(metal)    S(lipo)     H(rot)  DE(clash)    DE(int)     intcor
      8.70     -12.28       0.00        0.00      96.53       1.75       0.20       3.39       ----

> <Gold.Chemscore.Fitness>
8.6973

> <Gold.Chemscore.DG>
-12.2834

> <Gold.Chemscore.ZeroCoef>
-5.4800

> <Gold.Chemscore.Hbond>
0.0000

> <Gold.Chemscore.Metal>
0.0000

> <Gold.Chemscore.Lipo>
96.5261

> <Gold.Chemscore.Internal_Hbond>
0.0000

> <Gold.Chemscore.DEClash>
0.1958

> <Gold.Chemscore.DEInternal>
3.3902

> <Gold.Chemscore.Rot>
1.7540

> <Gold.Chemscore.Internal.Correction>
   9.000000E+99

> <Gold.Chemscore.Hbonds>
donor molecule, donor type, donor heavy atom, donor atom, acceptor molecule, acceptor atom, score
      P1  H  7997  8010       L1    11  0.14

> <Gold.Chemscore.Hbond.Weighted>
-0.0000

> <Gold.Chemscore.Metal.Weighted>
-0.0000

> <Gold.Chemscore.Lipo.Weighted>
-11.2935

> <Gold.Chemscore.Internal_Hbond.Weighted>
0.0000

> <Gold.Chemscore.DEClash.Weighted>
0.1958

> <Gold.Chemscore.DEInternal.Weighted>
3.3902

> <Gold.Chemscore.Rot.Weighted>
4.4902

> <Gold.Chemscore.Internal.Correction.Weighted>
   9.000000E+99

> <Gold.Protein.RotatedTorsions>
[ 6907 6896 6895 6894 ] final  -43.06 input  -60.11 | X-H torsion
[ 7974 7965 7964 7962 ] final  138.29 input  175.53 | X-H torsion
[ 8008 7997 7996 7995 ] final   -5.80 input   59.86 | X-H torsion
[ 10167 10162 10161 10158 ] final  113.07 input  -65.29 | X-H torsion
[ 10718 10713 10712 10709 ] final  144.69 input   66.30 | X-H torsion
[ 10763 10752 10751 10750 ] final -126.48 input  -60.55 | X-H torsion
[ 11005 11000 10999 10996 ] final  112.47 input  -57.11 | X-H torsion

> <Gold.Protein.ActiveResidues>
 VAL166  LYS551  ARG553  GLY616  TRP617  ASP618  TYR619  PRO620  LYS621  CYS622 
 ASP623  PHE694  ASN695  SER759  ASP760  ASP761  ALA762  ILE779  LEU786  VAL792 
 PHE793  MET794  SER795  GLU796  ALA797  LYS798  CYS799  TRP800  GLU811  SER814 

> <Gold.Protein.RotatedAtoms>
  150.9482  134.8885  159.7655 H   0  0  0  0  0  0  0  0  0  0  0  0  # atno 6907 bound_to 6896
  152.5109  134.3844  159.9372 H   0  0  0  0  0  0  0  0  0  0  0  0  # atno 6908 bound_to 6896
  151.3861  133.3764  159.2750 H   0  0  0  0  0  0  0  0  0  0  0  0  # atno 6909 bound_to 6896
  144.9386  139.4958  143.5583 H   0  0  0  0  0  0  0  0  0  0  0  0  # atno 7974 bound_to 7965
  154.6002  140.2449  155.7802 H   0  0  0  0  0  0  0  0  0  0  0  0  # atno 8008 bound_to 7997
  156.2306  140.2968  156.0131 H   0  0  0  0  0  0  0  0  0  0  0  0  # atno 8009 bound_to 7997
  155.2223  140.0401  157.2940 H   0  0  0  0  0  0  0  0  0  0  0  0  # atno 8010 bound_to 7997
  139.6489  144.7127  151.2088 H   0  0  0  0  0  0  0  0  0  0  0  0  # atno 10167 bound_to 10162
  157.3542  131.0955  151.0973 H   0  0  0  0  0  0  0  0  0  0  0  0  # atno 10718 bound_to 10713
  154.8746  135.3994  154.3438 H   0  0  0  0  0  0  0  0  0  0  0  0  # atno 10763 bound_to 10752
  153.4233  135.7023  153.6284 H   0  0  0  0  0  0  0  0  0  0  0  0  # atno 10764 bound_to 10752
  153.4937  135.3742  155.2475 H   0  0  0  0  0  0  0  0  0  0  0  0  # atno 10765 bound_to 10752
  139.8928  134.9530  156.6590 H   0  0  0  0  0  0  0  0  0  0  0  0  # atno 11005 bound_to 11000
  146.3277  139.8389  142.8894 LP  0  0  0  0  0  0  0  0  0  0  0  0  # atno 17320 bound_to 7965
  145.3027  141.0198  143.3600 LP  0  0  0  0  0  0  0  0  0  0  0  0  # atno 17321 bound_to 7965
  140.7528  143.6184  150.8537 LP  0  0  0  0  0  0  0  0  0  0  0  0  # atno 17342 bound_to 10162
  139.9830  143.5930  152.2936 LP  0  0  0  0  0  0  0  0  0  0  0  0  # atno 17343 bound_to 10162
  157.2138  130.6450  149.5784 LP  0  0  0  0  0  0  0  0  0  0  0  0  # atno 17370 bound_to 10713
  155.9726  130.4651  150.6243 LP  0  0  0  0  0  0  0  0  0  0  0  0  # atno 17371 bound_to 10713
  140.7462  133.8936  155.8313 LP  0  0  0  0  0  0  0  0  0  0  0  0  # atno 17394 bound_to 11000
  141.0038  134.1114  157.4291 LP  0  0  0  0  0  0  0  0  0  0  0  0  # atno 17395 bound_to 11000

$$$$
