AV-unprocessed.smi:1934|AV-procd|sdf|7824|dock3
  -GOLD-   22720 9573D 1   1.00000     0.00000
 Structure written by MMmdl.
 46 47  0  0  0  0  0  0  0  0  2 V2000
  143.4940  131.8758  150.3125 C   0  0  0  0  0  0  0  0  0  0  0  0
  144.5913  132.7657  150.8179 C   0  0  0  0  0  0  0  0  0  0  0  0
  144.7233  134.1761  150.6579 C   0  0  0  0  0  0  0  0  0  0  0  0
  145.8932  134.4449  151.3144 C   0  0  0  0  0  0  0  0  0  0  0  0
  146.5174  135.6390  151.4962 N   0  0  0  0  0  0  0  0  0  0  0  0
  145.9718  136.8581  151.6498 C   0  0  0  0  0  0  0  0  0  0  0  0
  144.7665  137.1095  151.6435 O   0  0  0  0  0  0  0  0  0  0  0  0
  146.9172  137.7959  151.8070 N   0  0  0  0  0  0  0  0  0  0  0  0
  146.6600  139.2188  151.9962 C   0  0  0  0  0  0  0  0  0  0  0  0
  147.0796  139.6871  153.4032 C   0  0  0  0  0  0  0  0  0  0  0  0
  146.2468  140.8133  153.8954 N   0  3  2  0  0  0  0  0  0  0  0  0
  146.7682  142.1331  153.4543 C   0  0  0  0  0  0  0  0  0  0  0  0
  145.8061  143.2673  153.8417 C   0  0  0  0  0  0  0  0  0  0  0  0
  145.5275  143.2621  155.3511 C   0  0  0  0  0  0  0  0  0  0  0  0
  145.0445  141.8787  155.8250 C   0  0  1  0  0  0  0  0  0  0  0  0
  143.5941  141.5769  155.4083 C   0  0  0  0  0  0  0  0  0  0  0  0
  146.0231  140.7777  155.3665 C   0  0  0  0  0  0  0  0  0  0  0  0
  146.4011  133.2684  151.8187 N   0  0  0  0  0  0  0  0  0  0  0  0
  147.6092  133.0401  152.5870 C   0  0  0  0  0  0  0  0  0  0  0  0
  145.5921  132.2324  151.5093 N   0  0  0  0  0  0  0  0  0  0  0  0
  142.7422  132.4472  149.7678 H   0  0  0  0  0  0  0  0  0  0  0  0
  142.9916  131.3663  151.1349 H   0  0  0  0  0  0  0  0  0  0  0  0
  143.8857  131.1145  149.6373 H   0  0  0  0  0  0  0  0  0  0  0  0
  144.0582  134.8556  150.1468 H   0  0  0  0  0  0  0  0  0  0  0  0
  147.5258  135.5974  151.5101 H   0  0  0  0  0  0  0  0  0  0  0  0
  147.8837  137.5033  151.8017 H   0  0  0  0  0  0  0  0  0  0  0  0
  147.1797  139.7969  151.2299 H   0  0  0  0  0  0  0  0  0  0  0  0
  145.5947  139.3772  151.8339 H   0  0  0  0  0  0  0  0  0  0  0  0
  147.0449  138.8607  154.1149 H   0  0  0  0  0  0  0  0  0  0  0  0
  148.1208  140.0095  153.3593 H   0  0  0  0  0  0  0  0  0  0  0  0
  147.7514  142.3036  153.8959 H   0  0  0  0  0  0  0  0  0  0  0  0
  146.9011  142.1365  152.3717 H   0  0  0  0  0  0  0  0  0  0  0  0
  146.2290  144.2282  153.5469 H   0  0  0  0  0  0  0  0  0  0  0  0
  144.8720  143.1636  153.2889 H   0  0  0  0  0  0  0  0  0  0  0  0
  146.4440  143.5229  155.8820 H   0  0  0  0  0  0  0  0  0  0  0  0
  144.7982  144.0320  155.6056 H   0  0  0  0  0  0  0  0  0  0  0  0
  145.0533  141.8896  156.9158 H   0  0  0  0  0  0  0  0  0  0  0  0
  143.4851  141.5130  154.3256 H   0  0  0  0  0  0  0  0  0  0  0  0
  142.9152  142.3520  155.7648 H   0  0  0  0  0  0  0  0  0  0  0  0
  143.2569  140.6291  155.8287 H   0  0  0  0  0  0  0  0  0  0  0  0
  145.6377  139.8064  155.6744 H   0  0  0  0  0  0  0  0  0  0  0  0
  146.9813  140.9033  155.8737 H   0  0  0  0  0  0  0  0  0  0  0  0
  148.4519  133.5366  152.1052 H   0  0  0  0  0  0  0  0  0  0  0  0
  147.8237  131.9726  152.6560 H   0  0  0  0  0  0  0  0  0  0  0  0
  147.4838  133.4433  153.5919 H   0  0  0  0  0  0  0  0  0  0  0  0
  145.3429  140.7106  153.4566 H   0  0  0  0  0  0  0  0  0  0  0  0
  1  2  1  0  0  0  0
  1 21  1  0  0  0  0
  1 22  1  0  0  0  0
  1 23  1  0  0  0  0
  2 20  2  0  0  0  0
  2  3  1  0  0  0  0
  3  4  2  0  0  0  0
  3 24  1  0  0  0  0
  4  5  1  0  0  0  0
  4 18  1  0  0  0  0
  5  6  1  0  0  0  0
  5 25  1  0  0  0  0
  6  7  2  0  0  0  0
  6  8  1  0  0  0  0
  8  9  1  0  0  0  0
  8 26  1  0  0  0  0
  9 10  1  0  0  0  0
  9 27  1  0  0  0  0
  9 28  1  0  0  0  0
 10 11  1  0  0  0  0
 10 29  1  0  0  0  0
 10 30  1  0  0  0  0
 11 17  1  0  0  0  0
 11 12  1  0  0  0  0
 11 46  1  0  0  0  0
 12 13  1  0  0  0  0
 12 31  1  0  0  0  0
 12 32  1  0  0  0  0
 13 14  1  0  0  0  0
 13 33  1  0  0  0  0
 13 34  1  0  0  0  0
 14 15  1  0  0  0  0
 14 35  1  0  0  0  0
 14 36  1  0  0  0  0
 15 16  1  0  0  0  0
 15 17  1  0  0  0  0
 15 37  1  0  0  0  0
 16 38  1  0  0  0  0
 16 39  1  0  0  0  0
 16 40  1  0  0  0  0
 17 41  1  0  0  0  0
 17 42  1  0  0  0  0
 18 19  1  0  0  0  0
 18 20  1  0  0  0  0
 19 43  1  0  0  0  0
 19 44  1  0  0  0  0
 19 45  1  0  0  0  0
M  CHG  1  11   1
M  END
> <s_m_source_file>
AV-unprocessed.smi

> <i_m_source_file_index>
1934

> <i_lp_mmshare_version>
43012

> <i_f3d_flags>
0

> <s_epik_input>
W0NIM11jMVtjSF1jKG4objEpW0NIM10pW05IXUMoPU8pW05IXVtDSDJdW0NIMl1OMltDSDJdW0NIMl1bQ0gyXVtDQEBIXShbQ0gzXSlbQ0gyXTI=

> <s_epik_cmdline>
J2VwaWtfcHl0aG9uJywgJy1waCcsICc3LjAnLCAnLXRuJywgJzgnLCAnLW1hJywgJzIwMCcsICctbWV0YWxfYmluZGluZycsICctaW1hZScsICc8aW5maWxlLm1hZT4nLCAnLW9tYWUnLCAnPG91dGZpbGUubWFlPic=

> <r_lp_tautomer_probability>
1

> <r_epik_Ionization_Penalty>
0.00202955

> <r_epik_Ionization_Penalty_Charging>
0.00195276

> <r_epik_Ionization_Penalty_Neutral>
7.67968e-05

> <r_epik_State_Penalty>
0.00133177

> <r_epik_Charging_Adjusted_Penalty>
0.00328452

> <i_epik_Tot_Q>
1

> <i_epik_Tot_abs_Q>
1

> <r_epik_Metal_State_Penalty>
-0

> <b_epik_Metal_Only>
0

> <s_lp_Force_Field>
OPLS_2005

> <r_lp_Energy>
20.6023

> <b_lp_Chiralities_Consistent>
1

> <s_lp_Variant>
AV-unprocessed.smi:1934-2

> <Gold.Version>
5.8.1

> <Gold.Id.Protein>
6NUR|6NUR_protein|mol2

> <Gold.PLP.Fitness>
42.5039

> <Gold.PLP.PLP>
-32.2764

> <Gold.PLP.part.hbond>
-2.9039

> <Gold.PLP.part.metal>
0.0000

> <Gold.PLP.part.buried>
-3.8570

> <Gold.PLP.part.nonpolar>
-29.7701

> <Gold.PLP.part.repulsive>
3.5591

> <Gold.PLP.ligand.clash>
0.0000

> <Gold.PLP.ligand.torsion>
0.8234

> <Gold.PLP.Chemscore.Hbond>
3.9440

> <Gold.PLP.Chemscore.CHOScore>
0.0000

> <Gold.PLP.Chemscore.Metal>
0.0000

> <Gold.Chemscore.Hbonds>
donor molecule, donor type, donor heavy atom, donor atom, acceptor molecule, acceptor atom, score
      L1  H     5    25       P1  7948  1.00
      L1  H     8    26       P1  7948  0.96
      L1  H    11    46       P1 10175  2.00

> <Gold.PLP.Chemscore.Internal.Correction>
0.0423

> <Gold.Rescore>
     Score         DG    S(hbond)    S(metal)    S(lipo)     H(rot)  DE(clash)    DE(int)     intcor
     16.89     -19.23       2.85        0.00      68.48       1.48       1.52       0.82       ----

> <Gold.Chemscore.Fitness>
16.8855

> <Gold.Chemscore.DG>
-19.2279

> <Gold.Chemscore.ZeroCoef>
-5.4800

> <Gold.Chemscore.Hbond>
2.8546

> <Gold.Chemscore.Metal>
0.0000

> <Gold.Chemscore.Lipo>
68.4787

> <Gold.Chemscore.Internal_Hbond>
0.0000

> <Gold.Chemscore.DEClash>
1.5249

> <Gold.Chemscore.DEInternal>
0.8175

> <Gold.Chemscore.Rot>
1.4838

> <Gold.Chemscore.Internal.Correction>
   9.000000E+99

> <Gold.Chemscore.Hbonds>
donor molecule, donor type, donor heavy atom, donor atom, acceptor molecule, acceptor atom, score
      L1  H     5    25       P1  7948  0.88
      L1  H     8    26       P1  7948  0.92
      L1  H    11    46       P1 10175  0.90

> <Gold.Chemscore.Hbond.Weighted>
-9.5344

> <Gold.Chemscore.Metal.Weighted>
-0.0000

> <Gold.Chemscore.Lipo.Weighted>
-8.0120

> <Gold.Chemscore.Internal_Hbond.Weighted>
0.0000

> <Gold.Chemscore.DEClash.Weighted>
1.5249

> <Gold.Chemscore.DEInternal.Weighted>
0.8175

> <Gold.Chemscore.Rot.Weighted>
3.7985

> <Gold.Chemscore.Internal.Correction.Weighted>
   9.000000E+99

> <Gold.Protein.RotatedTorsions>
[ 6907 6896 6895 6894 ] final   78.07 input  -60.11 | X-H torsion
[ 7974 7965 7964 7962 ] final  134.45 input  175.53 | X-H torsion
[ 8008 7997 7996 7995 ] final  -56.28 input   59.86 | X-H torsion
[ 10167 10162 10161 10158 ] final  -31.05 input  -65.29 | X-H torsion
[ 10718 10713 10712 10709 ] final -179.95 input   66.30 | X-H torsion
[ 10763 10752 10751 10750 ] final  -92.12 input  -60.55 | X-H torsion
[ 11005 11000 10999 10996 ] final   49.92 input  -57.11 | X-H torsion

> <Gold.Protein.ActiveResidues>
 VAL166  LYS551  ARG553  GLY616  TRP617  ASP618  TYR619  PRO620  LYS621  CYS622 
 ASP623  PHE694  ASN695  SER759  ASP760  ASP761  ALA762  ILE779  LEU786  VAL792 
 PHE793  MET794  SER795  GLU796  ALA797  LYS798  CYS799  TRP800  GLU811  SER814 

> <Gold.Protein.RotatedAtoms>
  152.5144  134.3720  159.9321 H   0  0  0  0  0  0  0  0  0  0  0  0  # atno 6907 bound_to 6896
  151.3675  133.3861  159.2704 H   0  0  0  0  0  0  0  0  0  0  0  0  # atno 6908 bound_to 6896
  150.9604  134.9012  159.7785 H   0  0  0  0  0  0  0  0  0  0  0  0  # atno 6909 bound_to 6896
  144.9762  139.4552  143.5409 H   0  0  0  0  0  0  0  0  0  0  0  0  # atno 7974 bound_to 7965
  154.4224  140.1133  156.5613 H   0  0  0  0  0  0  0  0  0  0  0  0  # atno 8008 bound_to 7997
  155.6308  140.3495  155.4663 H   0  0  0  0  0  0  0  0  0  0  0  0  # atno 8009 bound_to 7997
  155.9949  140.1187  157.0593 H   0  0  0  0  0  0  0  0  0  0  0  0  # atno 8010 bound_to 7997
  140.7241  143.3800  151.1618 H   0  0  0  0  0  0  0  0  0  0  0  0  # atno 10167 bound_to 10162
  156.8667  130.9770  151.3078 H   0  0  0  0  0  0  0  0  0  0  0  0  # atno 10718 bound_to 10713
  154.6829  135.5243  153.8287 H   0  0  0  0  0  0  0  0  0  0  0  0  # atno 10763 bound_to 10752
  153.0577  135.6557  154.0547 H   0  0  0  0  0  0  0  0  0  0  0  0  # atno 10764 bound_to 10752
  154.0432  135.2975  155.3331 H   0  0  0  0  0  0  0  0  0  0  0  0  # atno 10765 bound_to 10752
  140.1061  134.5016  155.8718 H   0  0  0  0  0  0  0  0  0  0  0  0  # atno 11005 bound_to 11000
  146.3396  139.9006  142.8795 LP  0  0  0  0  0  0  0  0  0  0  0  0  # atno 17320 bound_to 7965
  145.2487  141.0036  143.3894 LP  0  0  0  0  0  0  0  0  0  0  0  0  # atno 17321 bound_to 7965
  139.7388  143.8957  152.3043 LP  0  0  0  0  0  0  0  0  0  0  0  0  # atno 17342 bound_to 10162
  139.8771  144.7037  150.8920 LP  0  0  0  0  0  0  0  0  0  0  0  0  # atno 17343 bound_to 10162
  157.6219  130.8662  149.9123 LP  0  0  0  0  0  0  0  0  0  0  0  0  # atno 17370 bound_to 10713
  156.0748  130.3680  150.0700 LP  0  0  0  0  0  0  0  0  0  0  0  0  # atno 17371 bound_to 10713
  141.2118  133.6712  156.6614 LP  0  0  0  0  0  0  0  0  0  0  0  0  # atno 17394 bound_to 11000
  140.3153  134.8052  157.4209 LP  0  0  0  0  0  0  0  0  0  0  0  0  # atno 17395 bound_to 11000

$$$$
