AV-unprocessed.smi:1111|AV-procd|sdf|4792|dock4
  -GOLD-   22720 3343D 1   1.00000     0.00000
 Structure written by MMmdl.
 32 33  0  0  0  0  0  0  0  0  1 V2000
  152.1512  138.5441  158.7917 C   0  0  0  0  0  0  0  0  0  0  0  0
  152.0592  138.8783  157.2883 C   0  0  1  0  0  0  0  0  0  0  0  0
  151.9271  140.3259  157.0845 N   0  0  0  0  0  0  0  0  0  0  0  0
  150.9202  141.1348  157.4578 C   0  0  0  0  0  0  0  0  0  0  0  0
  149.9618  140.7753  158.1402 O   0  0  0  0  0  0  0  0  0  0  0  0
  150.9973  142.5741  156.9504 C   0  0  0  0  0  0  0  0  0  0  0  0
  151.4845  143.4561  157.9947 N   0  0  0  0  0  0  0  0  0  0  0  0
  151.3127  144.8324  158.0802 C   0  0  0  0  0  0  0  0  0  0  0  0
  151.9247  145.2329  159.2463 C   0  0  0  0  0  0  0  0  0  0  0  0
  152.4771  144.1278  159.8896 N   0  0  0  0  0  0  0  0  0  0  0  0
  152.1749  143.1124  159.0912 C   0  0  0  0  0  0  0  0  0  0  0  0
  153.3520  138.4340  156.5626 C   0  0  0  0  0  0  0  0  0  0  0  0
  153.1168  138.4187  155.0457 C   0  0  0  0  0  0  0  0  0  0  0  0
  151.3481  138.0044  154.8203 S   0  0  0  0  0  0  0  0  0  0  0  0
  150.6966  139.0971  154.0822 O   0  0  0  0  0  0  0  0  0  0  0  0
  151.2177  136.6073  154.3796 O   0  0  0  0  0  0  0  0  0  0  0  0
  150.9042  138.1193  156.5956 C   0  0  0  0  0  0  0  0  0  0  0  0
  152.3418  137.4820  158.9486 H   0  0  0  0  0  0  0  0  0  0  0  0
  151.2287  138.7824  159.3210 H   0  0  0  0  0  0  0  0  0  0  0  0
  152.9610  139.0956  159.2707 H   0  0  0  0  0  0  0  0  0  0  0  0
  152.6580  140.7512  156.5325 H   0  0  0  0  0  0  0  0  0  0  0  0
  151.6650  142.6374  156.0900 H   0  0  0  0  0  0  0  0  0  0  0  0
  150.0127  142.9125  156.6245 H   0  0  0  0  0  0  0  0  0  0  0  0
  150.7796  145.3962  157.3291 H   0  0  0  0  0  0  0  0  0  0  0  0
  152.0071  146.2230  159.6695 H   0  0  0  0  0  0  0  0  0  0  0  0
  152.4583  142.0933  159.3110 H   0  0  0  0  0  0  0  0  0  0  0  0
  154.2079  139.0568  156.8262 H   0  0  0  0  0  0  0  0  0  0  0  0
  153.6030  137.4192  156.8751 H   0  0  0  0  0  0  0  0  0  0  0  0
  153.2898  139.4040  154.6122 H   0  0  0  0  0  0  0  0  0  0  0  0
  153.7435  137.6940  154.5259 H   0  0  0  0  0  0  0  0  0  0  0  0
  150.8352  137.0999  156.9766 H   0  0  0  0  0  0  0  0  0  0  0  0
  149.9226  138.5794  156.7065 H   0  0  0  0  0  0  0  0  0  0  0  0
  1  2  1  0  0  0  0
  1 18  1  0  0  0  0
  1 19  1  0  0  0  0
  1 20  1  0  0  0  0
  2 17  1  0  0  0  0
  2  3  1  0  0  0  0
  2 12  1  0  0  0  0
  3  4  1  0  0  0  0
  3 21  1  0  0  0  0
  4  5  2  0  0  0  0
  4  6  1  0  0  0  0
  6  7  1  0  0  0  0
  6 22  1  0  0  0  0
  6 23  1  0  0  0  0
  7 11  1  0  0  0  0
  7  8  1  0  0  0  0
  8  9  2  0  0  0  0
  8 24  1  0  0  0  0
  9 10  1  0  0  0  0
  9 25  1  0  0  0  0
 10 11  2  0  0  0  0
 11 26  1  0  0  0  0
 12 13  1  0  0  0  0
 12 27  1  0  0  0  0
 12 28  1  0  0  0  0
 13 14  1  0  0  0  0
 13 29  1  0  0  0  0
 13 30  1  0  0  0  0
 14 15  2  0  0  0  0
 14 16  2  0  0  0  0
 14 17  1  0  0  0  0
 17 31  1  0  0  0  0
 17 32  1  0  0  0  0
M  END
> <s_m_source_file>
AV-unprocessed.smi

> <i_m_source_file_index>
1111

> <i_lp_mmshare_version>
43012

> <i_f3d_flags>
0

> <s_epik_input>
Tz1TKD1PKShbQ0gyXTEpW0NIMl1bQ0gyXVtDQEBdMShbQ0gzXSlbTkhdQyg9TylbQ0gyXW4yW2NIXVtjSF1uW2NIXTI=

> <s_epik_cmdline>
J2VwaWtfcHl0aG9uJywgJy1waCcsICc3LjAnLCAnLXRuJywgJzgnLCAnLW1hJywgJzIwMCcsICctbWV0YWxfYmluZGluZycsICctaW1hZScsICc8aW5maWxlLm1hZT4nLCAnLW9tYWUnLCAnPG91dGZpbGUubWFlPic=

> <r_lp_tautomer_probability>
1

> <r_epik_Ionization_Penalty>
0.246342

> <r_epik_Ionization_Penalty_Charging>
0.246341

> <r_epik_Ionization_Penalty_Neutral>
5.91248e-07

> <r_epik_State_Penalty>
0.237514

> <r_epik_Charging_Adjusted_Penalty>
0.483856

> <i_epik_Tot_Q>
0

> <i_epik_Tot_abs_Q>
0

> <r_epik_Metal_State_Penalty>
0.166715

> <b_epik_Metal_Only>
0

> <s_lp_Force_Field>
OPLS_2005

> <r_lp_Energy>
5.37624

> <b_lp_Chiralities_Consistent>
1

> <s_lp_Variant>
AV-unprocessed.smi:1111-1

> <Gold.Version>
5.8.1

> <Gold.Id.Protein>
6NUR|6NUR_protein|mol2

> <Gold.PLP.Fitness>
35.2582

> <Gold.PLP.PLP>
-28.6029

> <Gold.PLP.part.hbond>
-1.9603

> <Gold.PLP.part.metal>
0.0000

> <Gold.PLP.part.buried>
-1.9488

> <Gold.PLP.part.nonpolar>
-25.8249

> <Gold.PLP.part.repulsive>
1.5251

> <Gold.PLP.ligand.clash>
0.0000

> <Gold.PLP.ligand.torsion>
0.5892

> <Gold.PLP.Chemscore.Hbond>
1.8775

> <Gold.PLP.Chemscore.CHOScore>
0.7267

> <Gold.PLP.Chemscore.Metal>
0.0000

> <Gold.Chemscore.Hbonds>
donor molecule, donor type, donor heavy atom, donor atom, acceptor molecule, acceptor atom, score
      P1  H  7989  7998       L1    15  0.89
      P1  H 10752 10765       L1    16  1.00
      L1  C     8    24       P1  8028  0.76

> <Gold.PLP.Chemscore.Internal.Correction>
0.0211

> <Gold.Rescore>
     Score         DG    S(hbond)    S(metal)    S(lipo)     H(rot)  DE(clash)    DE(int)     intcor
     12.86     -14.78       1.88        0.00      63.71       1.73       1.37       0.55       ----

> <Gold.Chemscore.Fitness>
12.8567

> <Gold.Chemscore.DG>
-14.7843

> <Gold.Chemscore.ZeroCoef>
-5.4800

> <Gold.Chemscore.Hbond>
1.8823

> <Gold.Chemscore.Metal>
0.0000

> <Gold.Chemscore.Lipo>
63.7051

> <Gold.Chemscore.Internal_Hbond>
0.0000

> <Gold.Chemscore.DEClash>
1.3733

> <Gold.Chemscore.DEInternal>
0.5542

> <Gold.Chemscore.Rot>
1.7328

> <Gold.Chemscore.Internal.Correction>
   9.000000E+99

> <Gold.Chemscore.Hbonds>
donor molecule, donor type, donor heavy atom, donor atom, acceptor molecule, acceptor atom, score
      P1  H  7989  7998       L1    15  0.85
      P1  H 10752 10765       L1    16  0.84

> <Gold.Chemscore.Hbond.Weighted>
-6.2868

> <Gold.Chemscore.Metal.Weighted>
-0.0000

> <Gold.Chemscore.Lipo.Weighted>
-7.4535

> <Gold.Chemscore.Internal_Hbond.Weighted>
0.0000

> <Gold.Chemscore.DEClash.Weighted>
1.3733

> <Gold.Chemscore.DEInternal.Weighted>
0.5542

> <Gold.Chemscore.Rot.Weighted>
4.4360

> <Gold.Chemscore.Internal.Correction.Weighted>
   9.000000E+99

> <Gold.Protein.RotatedTorsions>
[ 6907 6896 6895 6894 ] final  153.69 input  -60.11 | X-H torsion
[ 7974 7965 7964 7962 ] final -140.97 input  175.53 | X-H torsion
[ 8008 7997 7996 7995 ] final   37.76 input   59.86 | X-H torsion
[ 10167 10162 10161 10158 ] final  -85.74 input  -65.29 | X-H torsion
[ 10718 10713 10712 10709 ] final  -99.48 input   66.30 | X-H torsion
[ 10763 10752 10751 10750 ] final  165.10 input  -60.55 | X-H torsion
[ 11005 11000 10999 10996 ] final -113.20 input  -57.11 | X-H torsion

> <Gold.Protein.ActiveResidues>
 VAL166  LYS551  ARG553  GLY616  TRP617  ASP618  TYR619  PRO620  LYS621  CYS622 
 ASP623  PHE694  ASN695  SER759  ASP760  ASP761  ALA762  ILE779  LEU786  VAL792 
 PHE793  MET794  SER795  GLU796  ALA797  LYS798  CYS799  TRP800  GLU811  SER814 

> <Gold.Protein.RotatedAtoms>
  152.0691  133.4098  159.4451 H   0  0  0  0  0  0  0  0  0  0  0  0  # atno 6907 bound_to 6896
  150.6864  134.3112  159.4756 H   0  0  0  0  0  0  0  0  0  0  0  0  # atno 6908 bound_to 6896
  152.0942  134.9386  160.0622 H   0  0  0  0  0  0  0  0  0  0  0  0  # atno 6909 bound_to 6896
  144.8555  140.6136  143.5362 H   0  0  0  0  0  0  0  0  0  0  0  0  # atno 7974 bound_to 7965
  155.2091  140.3322  155.4331 H   0  0  0  0  0  0  0  0  0  0  0  0  # atno 8008 bound_to 7997
  156.2377  140.1880  156.7122 H   0  0  0  0  0  0  0  0  0  0  0  0  # atno 8009 bound_to 7997
  154.6090  140.0612  156.9455 H   0  0  0  0  0  0  0  0  0  0  0  0  # atno 8010 bound_to 7997
  140.4008  143.2663  151.9145 H   0  0  0  0  0  0  0  0  0  0  0  0  # atno 10167 bound_to 10162
  156.0135  130.5284  150.6677 H   0  0  0  0  0  0  0  0  0  0  0  0  # atno 10718 bound_to 10713
  154.3189  135.2756  155.2529 H   0  0  0  0  0  0  0  0  0  0  0  0  # atno 10763 bound_to 10752
  154.4891  135.5838  153.6450 H   0  0  0  0  0  0  0  0  0  0  0  0  # atno 10764 bound_to 10752
  152.9879  135.6130  154.3372 H   0  0  0  0  0  0  0  0  0  0  0  0  # atno 10765 bound_to 10752
  141.0629  133.9506  157.2634 H   0  0  0  0  0  0  0  0  0  0  0  0  # atno 11005 bound_to 11000
  145.4414  139.1535  143.3968 LP  0  0  0  0  0  0  0  0  0  0  0  0  # atno 17320 bound_to 7965
  146.2820  140.4535  142.8773 LP  0  0  0  0  0  0  0  0  0  0  0  0  # atno 17321 bound_to 7965
  139.4785  144.5635  151.8201 LP  0  0  0  0  0  0  0  0  0  0  0  0  # atno 17342 bound_to 10162
  140.4742  144.1543  150.5922 LP  0  0  0  0  0  0  0  0  0  0  0  0  # atno 17343 bound_to 10162
  157.4406  131.0860  151.0947 LP  0  0  0  0  0  0  0  0  0  0  0  0  # atno 17370 bound_to 10713
  157.1493  130.6177  149.5577 LP  0  0  0  0  0  0  0  0  0  0  0  0  # atno 17371 bound_to 10713
  139.9449  135.0185  156.8821 LP  0  0  0  0  0  0  0  0  0  0  0  0  # atno 17394 bound_to 11000
  140.5833  134.0331  155.7472 LP  0  0  0  0  0  0  0  0  0  0  0  0  # atno 17395 bound_to 11000

$$$$
