AV-unprocessed.smi:573|AV-procd|sdf|2967|dock8
  -GOLD-   2262023473D 1   1.00000     0.00000
 Structure written by MMmdl.
 45 47  0  0  0  0  0  0  0  0  2 V2000
  146.7923  141.6095  152.9955 C   0  0  0  0  0  0  0  0  0  0  0  0
  148.0346  141.2587  153.8277 C   0  0  2  0  0  0  0  0  0  0  0  0
  148.4950  139.9874  153.4231 O   0  0  0  0  0  0  0  0  0  0  0  0
  147.7513  141.2038  155.3401 C   0  0  0  0  0  0  0  0  0  0  0  0
  148.8315  140.5798  156.0908 N   0  0  0  0  0  0  0  0  0  0  0  0
  149.7934  141.3742  156.7260 C   0  0  0  0  0  0  0  0  0  0  0  0
  149.9513  142.7167  156.5761 N   0  3  0  0  0  0  0  0  0  0  0  0
  151.0286  143.1241  157.3678 C   0  0  0  0  0  0  0  0  0  0  0  0
  151.5877  144.3838  157.5598 C   0  0  0  0  0  0  0  0  0  0  0  0
  152.6932  144.4604  158.4321 C   0  0  0  0  0  0  0  0  0  0  0  0
  153.2040  143.3137  159.0742 C   0  0  0  0  0  0  0  0  0  0  0  0
  152.6296  142.0411  158.8760 C   0  0  0  0  0  0  0  0  0  0  0  0
  151.5342  141.9708  158.0153 C   0  0  0  0  0  0  0  0  0  0  0  0
  150.7289  140.9051  157.5910 N   0  0  0  0  0  0  0  0  0  0  0  0
  150.9822  139.5437  158.0855 C   0  0  0  0  0  0  0  0  0  0  0  0
  151.4153  138.5860  156.9631 C   0  0  2  0  0  0  0  0  0  0  0  0
  152.1645  139.3225  155.8363 C   0  0  0  0  0  0  0  0  0  0  0  0
  152.5254  138.3533  154.7049 C   0  0  0  0  0  0  0  0  0  0  0  0
  151.2697  137.6054  154.2442 C   0  0  0  0  0  0  0  0  0  0  0  0
  150.5619  136.9584  155.4451 C   0  0  0  0  0  0  0  0  0  0  0  0
  150.2591  137.9493  156.4220 O   0  0  0  0  0  0  0  0  0  0  0  0
  146.4172  142.6026  153.2450 H   0  0  0  0  0  0  0  0  0  0  0  0
  145.9848  140.8969  153.1671 H   0  0  0  0  0  0  0  0  0  0  0  0
  147.0195  141.6056  151.9289 H   0  0  0  0  0  0  0  0  0  0  0  0
  148.8280  141.9773  153.6192 H   0  0  0  0  0  0  0  0  0  0  0  0
  148.7509  140.0341  152.5143 H   0  0  0  0  0  0  0  0  0  0  0  0
  147.6026  142.2121  155.7277 H   0  0  0  0  0  0  0  0  0  0  0  0
  146.8224  140.6652  155.5321 H   0  0  0  0  0  0  0  0  0  0  0  0
  148.7787  139.5922  156.2956 H   0  0  0  0  0  0  0  0  0  0  0  0
  151.2014  145.2637  157.0665 H   0  0  0  0  0  0  0  0  0  0  0  0
  153.1607  145.4179  158.6103 H   0  0  0  0  0  0  0  0  0  0  0  0
  154.0553  143.4114  159.7325 H   0  0  0  0  0  0  0  0  0  0  0  0
  153.0339  141.1692  159.3688 H   0  0  0  0  0  0  0  0  0  0  0  0
  151.7275  139.5843  158.8800 H   0  0  0  0  0  0  0  0  0  0  0  0
  150.0617  139.1864  158.5484 H   0  0  0  0  0  0  0  0  0  0  0  0
  152.0678  137.8235  157.3928 H   0  0  0  0  0  0  0  0  0  0  0  0
  151.5394  140.1246  155.4416 H   0  0  0  0  0  0  0  0  0  0  0  0
  153.0680  139.7929  156.2256 H   0  0  0  0  0  0  0  0  0  0  0  0
  152.9757  138.8919  153.8705 H   0  0  0  0  0  0  0  0  0  0  0  0
  153.2705  137.6387  155.0570 H   0  0  0  0  0  0  0  0  0  0  0  0
  150.5888  138.3006  153.7515 H   0  0  0  0  0  0  0  0  0  0  0  0
  151.5317  136.8468  153.5061 H   0  0  0  0  0  0  0  0  0  0  0  0
  149.6330  136.4877  155.1227 H   0  0  0  0  0  0  0  0  0  0  0  0
  151.1791  136.1744  155.8864 H   0  0  0  0  0  0  0  0  0  0  0  0
  149.3764  143.2997  155.9817 H   0  0  0  0  0  0  0  0  0  0  0  0
  1  2  1  0  0  0  0
  1 22  1  0  0  0  0
  1 23  1  0  0  0  0
  1 24  1  0  0  0  0
  2  3  1  0  0  0  0
  2  4  1  0  0  0  0
  2 25  1  0  0  0  0
  3 26  1  0  0  0  0
  4  5  1  0  0  0  0
  4 27  1  0  0  0  0
  4 28  1  0  0  0  0
  5  6  1  0  0  0  0
  5 29  1  0  0  0  0
  6 14  1  0  0  0  0
  6  7  2  0  0  0  0
  7  8  1  0  0  0  0
  7 45  1  0  0  0  0
  8 13  2  0  0  0  0
  8  9  1  0  0  0  0
  9 10  2  0  0  0  0
  9 30  1  0  0  0  0
 10 11  1  0  0  0  0
 10 31  1  0  0  0  0
 11 12  2  0  0  0  0
 11 32  1  0  0  0  0
 12 13  1  0  0  0  0
 12 33  1  0  0  0  0
 13 14  1  0  0  0  0
 14 15  1  0  0  0  0
 15 16  1  0  0  0  0
 15 34  1  0  0  0  0
 15 35  1  0  0  0  0
 16 21  1  0  0  0  0
 16 17  1  0  0  0  0
 16 36  1  0  0  0  0
 17 18  1  0  0  0  0
 17 37  1  0  0  0  0
 17 38  1  0  0  0  0
 18 19  1  0  0  0  0
 18 39  1  0  0  0  0
 18 40  1  0  0  0  0
 19 20  1  0  0  0  0
 19 41  1  0  0  0  0
 19 42  1  0  0  0  0
 20 21  1  0  0  0  0
 20 43  1  0  0  0  0
 20 44  1  0  0  0  0
M  CHG  1   7   1
M  END
> <s_m_source_file>
AV-unprocessed.smi

> <i_m_source_file_index>
573

> <i_lp_mmshare_version>
43012

> <i_f3d_flags>
0

> <s_epik_input>
W0NIM11bQ0BIXShbT0hdKVtDSDJdW05IXWMobjEpbihjKGMxMilbY0hdW2NIXVtjSF1bY0hdMilbQ0gyXVtDQEBIXTNbQ0gyXVtDSDJdW0NIMl1bQ0gyXU8z

> <s_epik_cmdline>
J2VwaWtfcHl0aG9uJywgJy1waCcsICc3LjAnLCAnLXRuJywgJzgnLCAnLW1hJywgJzIwMCcsICctbWV0YWxfYmluZGluZycsICctaW1hZScsICc8aW5maWxlLm1hZT4nLCAnLW9tYWUnLCAnPG91dGZpbGUubWFlPic=

> <r_epik_Ionization_Penalty>
0.0692245

> <r_epik_Ionization_Penalty_Charging>
0.0692223

> <r_epik_Ionization_Penalty_Neutral>
2.1869e-06

> <r_epik_State_Penalty>
0.0606215

> <r_epik_Charging_Adjusted_Penalty>
0.129844

> <i_epik_Tot_Q>
1

> <i_epik_Tot_abs_Q>
1

> <r_epik_Metal_State_Penalty>
2.77811

> <b_epik_Metal_Only>
0

> <s_lp_Force_Field>
OPLS_2005

> <r_lp_Energy>
19.8097

> <b_lp_Chiralities_Consistent>
1

> <s_lp_Variant>
AV-unprocessed.smi:573-1

> <Gold.Version>
5.8.1

> <Gold.Id.Protein>
6NUR|6NUR_protein|mol2

> <Gold.PLP.Fitness>
53.3780

> <Gold.PLP.PLP>
-45.6889

> <Gold.PLP.part.hbond>
-1.9892

> <Gold.PLP.part.metal>
0.0000

> <Gold.PLP.part.buried>
-6.7178

> <Gold.PLP.part.nonpolar>
-36.7517

> <Gold.PLP.part.repulsive>
0.0258

> <Gold.PLP.ligand.clash>
0.0000

> <Gold.PLP.ligand.torsion>
0.6587

> <Gold.PLP.Chemscore.Hbond>
3.0000

> <Gold.PLP.Chemscore.CHOScore>
0.0000

> <Gold.PLP.Chemscore.Metal>
0.0000

> <Gold.Chemscore.Hbonds>
donor molecule, donor type, donor heavy atom, donor atom, acceptor molecule, acceptor atom, score
      L1  H     3    26       P1  7957  1.00
      L1  H     7    45       P1  8028  1.89

> <Gold.PLP.Chemscore.Internal.Correction>
0.0066

> <Gold.Rescore>
     Score         DG    S(hbond)    S(metal)    S(lipo)     H(rot)  DE(clash)    DE(int)     intcor
     19.96     -20.79       1.91        0.00     121.76       2.07       0.09       0.75       ----

> <Gold.Chemscore.Fitness>
19.9572

> <Gold.Chemscore.DG>
-20.7925

> <Gold.Chemscore.ZeroCoef>
-5.4800

> <Gold.Chemscore.Hbond>
1.9059

> <Gold.Chemscore.Metal>
0.0000

> <Gold.Chemscore.Lipo>
121.7592

> <Gold.Chemscore.Internal_Hbond>
0.0000

> <Gold.Chemscore.DEClash>
0.0862

> <Gold.Chemscore.DEInternal>
0.7491

> <Gold.Chemscore.Rot>
2.0699

> <Gold.Chemscore.Internal.Correction>
   9.000000E+99

> <Gold.Chemscore.Hbonds>
donor molecule, donor type, donor heavy atom, donor atom, acceptor molecule, acceptor atom, score
      L1  H     3    26       P1  7957  0.99
      L1  H     7    45       P1  8028  0.85

> <Gold.Chemscore.Hbond.Weighted>
-6.3657

> <Gold.Chemscore.Metal.Weighted>
-0.0000

> <Gold.Chemscore.Lipo.Weighted>
-14.2458

> <Gold.Chemscore.Internal_Hbond.Weighted>
0.0000

> <Gold.Chemscore.DEClash.Weighted>
0.0862

> <Gold.Chemscore.DEInternal.Weighted>
0.7491

> <Gold.Chemscore.Rot.Weighted>
5.2991

> <Gold.Chemscore.Internal.Correction.Weighted>
   9.000000E+99

> <Gold.Protein.RotatedTorsions>
[ 6907 6896 6895 6894 ] final   58.01 input  -60.11 | X-H torsion
[ 7974 7965 7964 7962 ] final  158.76 input  175.53 | X-H torsion
[ 8008 7997 7996 7995 ] final   15.46 input   59.86 | X-H torsion
[ 10167 10162 10161 10158 ] final -127.61 input  -65.29 | X-H torsion
[ 10718 10713 10712 10709 ] final  -80.50 input   66.30 | X-H torsion
[ 10763 10752 10751 10750 ] final -103.81 input  -60.55 | X-H torsion
[ 11005 11000 10999 10996 ] final    0.75 input  -57.11 | X-H torsion

> <Gold.Protein.ActiveResidues>
 VAL166  LYS551  ARG553  GLY616  TRP617  ASP618  TYR619  PRO620  LYS621  CYS622 
 ASP623  PHE694  ASN695  SER759  ASP760  ASP761  ALA762  ILE779  LEU786  VAL792 
 PHE793  MET794  SER795  GLU796  ALA797  LYS798  CYS799  TRP800  GLU811  SER814 

> <Gold.Protein.RotatedAtoms>
  152.3785  134.6627  160.0151 H   0  0  0  0  0  0  0  0  0  0  0  0  # atno 6907 bound_to 6896
  151.6897  133.3305  159.3248 H   0  0  0  0  0  0  0  0  0  0  0  0  # atno 6908 bound_to 6896
  150.7728  134.6645  159.6402 H   0  0  0  0  0  0  0  0  0  0  0  0  # atno 6909 bound_to 6896
  144.7828  139.7523  143.6253 H   0  0  0  0  0  0  0  0  0  0  0  0  # atno 7974 bound_to 7965
  154.8630  140.2947  155.5527 H   0  0  0  0  0  0  0  0  0  0  0  0  # atno 8008 bound_to 7997
  156.3020  140.2474  156.3539 H   0  0  0  0  0  0  0  0  0  0  0  0  # atno 8009 bound_to 7997
  154.8898  140.0395  157.1821 H   0  0  0  0  0  0  0  0  0  0  0  0  # atno 8010 bound_to 7997
  139.9590  143.5971  152.2451 H   0  0  0  0  0  0  0  0  0  0  0  0  # atno 10167 bound_to 10162
  156.0069  130.4576  150.3809 H   0  0  0  0  0  0  0  0  0  0  0  0  # atno 10718 bound_to 10713
  154.7834  135.4809  153.9893 H   0  0  0  0  0  0  0  0  0  0  0  0  # atno 10763 bound_to 10752
  153.1526  135.6794  153.8867 H   0  0  0  0  0  0  0  0  0  0  0  0  # atno 10764 bound_to 10752
  153.8507  135.3167  155.3410 H   0  0  0  0  0  0  0  0  0  0  0  0  # atno 10765 bound_to 10752
  140.6230  133.9644  155.8235 H   0  0  0  0  0  0  0  0  0  0  0  0  # atno 11005 bound_to 11000
  146.2044  139.5360  142.9722 LP  0  0  0  0  0  0  0  0  0  0  0  0  # atno 17320 bound_to 7965
  145.6004  141.0356  143.2021 LP  0  0  0  0  0  0  0  0  0  0  0  0  # atno 17321 bound_to 7965
  139.6569  144.7662  151.2039 LP  0  0  0  0  0  0  0  0  0  0  0  0  # atno 17342 bound_to 10162
  140.7559  143.6072  150.8641 LP  0  0  0  0  0  0  0  0  0  0  0  0  # atno 17343 bound_to 10162
  157.1889  131.0410  151.2710 LP  0  0  0  0  0  0  0  0  0  0  0  0  # atno 17370 bound_to 10713
  157.4079  130.7369  149.6816 LP  0  0  0  0  0  0  0  0  0  0  0  0  # atno 17371 bound_to 10713
  141.0729  134.0179  157.3500 LP  0  0  0  0  0  0  0  0  0  0  0  0  # atno 17394 bound_to 11000
  139.9146  135.0195  156.7828 LP  0  0  0  0  0  0  0  0  0  0  0  0  # atno 17395 bound_to 11000

$$$$
