AV-unprocessed.smi:107|AV-procd|sdf|1024|dock1
  -GOLD-   2262018 23D 1   1.00000     0.00000
 Structure written by MMmdl.
 30 31  0  0  0  0  0  0  0  0  2 V2000
  150.8666  143.4547  158.2071 C   0  0  0  0  0  0  0  0  0  0  0  0
  151.1898  142.1625  157.4777 C   0  0  0  0  0  0  0  0  0  0  0  0
  150.5773  141.8124  156.3250 C   0  0  0  0  0  0  0  0  0  0  0  0
  150.8741  140.6334  155.6630 N   0  0  0  0  0  0  0  0  0  0  0  0
  150.1681  140.2561  154.3770 C   0  0  1  0  0  0  0  0  0  0  0  0
  149.2170  139.0810  154.6172 C   0  0  0  0  0  0  0  0  0  0  0  0
  147.8960  139.7916  154.8257 C   0  0  2  0  0  0  0  0  0  0  0  0
  146.8111  138.9416  154.5146 O   0  0  0  0  0  0  0  0  0  0  0  0
  148.0179  140.9671  153.8528 C   0  0  1  0  0  0  0  0  0  0  0  0
  147.1241  142.1633  154.2154 C   0  0  0  0  0  0  0  0  0  0  0  0
  145.7776  141.7500  154.3052 O   0  0  0  0  0  0  0  0  0  0  0  0
  149.3947  141.3362  153.9354 O   0  0  0  0  0  0  0  0  0  0  0  0
  151.8344  139.7444  156.2139 C   0  0  0  0  0  0  0  0  0  0  0  0
  152.0533  138.6879  155.6207 O   0  0  0  0  0  0  0  0  0  0  0  0
  152.4627  140.0921  157.3730 N   0  5  0  0  0  0  0  0  0  0  0  0
  152.1989  141.2545  158.0360 C   0  0  0  0  0  0  0  0  0  0  0  0
  152.7768  141.5581  159.0792 O   0  0  0  0  0  0  0  0  0  0  0  0
  150.0963  144.0231  157.6853 H   0  0  0  0  0  0  0  0  0  0  0  0
  151.7559  144.0813  158.2827 H   0  0  0  0  0  0  0  0  0  0  0  0
  150.5067  143.2439  159.2146 H   0  0  0  0  0  0  0  0  0  0  0  0
  149.8318  142.4774  155.9187 H   0  0  0  0  0  0  0  0  0  0  0  0
  150.9529  140.0495  153.6480 H   0  0  0  0  0  0  0  0  0  0  0  0
  149.1961  138.4713  153.7126 H   0  0  0  0  0  0  0  0  0  0  0  0
  149.5256  138.4560  155.4562 H   0  0  0  0  0  0  0  0  0  0  0  0
  147.8160  140.1447  155.8549 H   0  0  0  0  0  0  0  0  0  0  0  0
  147.0091  138.0748  154.8354 H   0  0  0  0  0  0  0  0  0  0  0  0
  147.8136  140.6177  152.8385 H   0  0  0  0  0  0  0  0  0  0  0  0
  147.4089  142.5620  155.1893 H   0  0  0  0  0  0  0  0  0  0  0  0
  147.2241  142.9734  153.4933 H   0  0  0  0  0  0  0  0  0  0  0  0
  145.2431  142.5128  154.4665 H   0  0  0  0  0  0  0  0  0  0  0  0
  1  2  1  0  0  0  0
  1 18  1  0  0  0  0
  1 19  1  0  0  0  0
  1 20  1  0  0  0  0
  2 16  1  0  0  0  0
  2  3  2  0  0  0  0
  3  4  1  0  0  0  0
  3 21  1  0  0  0  0
  4  5  1  0  0  0  0
  4 13  1  0  0  0  0
  5 12  1  0  0  0  0
  5  6  1  0  0  0  0
  5 22  1  0  0  0  0
  6  7  1  0  0  0  0
  6 23  1  0  0  0  0
  6 24  1  0  0  0  0
  7  8  1  0  0  0  0
  7  9  1  0  0  0  0
  7 25  1  0  0  0  0
  8 26  1  0  0  0  0
  9 10  1  0  0  0  0
  9 12  1  0  0  0  0
  9 27  1  0  0  0  0
 10 11  1  0  0  0  0
 10 28  1  0  0  0  0
 10 29  1  0  0  0  0
 11 30  1  0  0  0  0
 13 14  2  0  0  0  0
 13 15  1  0  0  0  0
 15 16  1  0  0  0  0
 16 17  2  0  0  0  0
M  CHG  1  15  -1
M  END
> <s_m_source_file>
AV-unprocessed.smi

> <i_m_source_file_index>
107

> <i_lp_mmshare_version>
43012

> <i_f3d_flags>
0

> <s_epik_input>
Tz1jMVtuSF1jKD1PKW4oW2NIXWMxW0NIM10pW0NAQEhdMltDSDJdW0NAQEhdKFtPSF0pW0NASF0oTzIpW0NIMl1bT0hd

> <s_epik_cmdline>
J2VwaWtfcHl0aG9uJywgJy1waCcsICc3LjAnLCAnLXRuJywgJzgnLCAnLW1hJywgJzIwMCcsICctbWV0YWxfYmluZGluZycsICctaW1hZScsICc8aW5maWxlLm1hZT4nLCAnLW9tYWUnLCAnPG91dGZpbGUubWFlPic=

> <r_lp_tautomer_probability>
0.999537

> <r_epik_Ionization_Penalty>
3.66603

> <r_epik_Ionization_Penalty_Charging>
1.09773e-07

> <r_epik_Ionization_Penalty_Neutral>
3.66603

> <r_epik_State_Penalty>
3.66562

> <r_epik_Charging_Adjusted_Penalty>
3.66562

> <i_epik_Tot_Q>
-1

> <i_epik_Tot_abs_Q>
1

> <r_epik_Metal_State_Penalty>
0.234536

> <b_epik_Metal_Only>
1

> <s_epik_Chemistry_Notes>
This compound contains an acetal/aminal-like group ( X-CH(R)-Y where X, Y are N, S, or O) that may be acid/base labile, releasing an aldehyde.

> <s_lp_Force_Field>
OPLS_2005

> <r_lp_Energy>
34.1834

> <b_lp_Chiralities_Consistent>
1

> <s_lp_Variant>
AV-unprocessed.smi:107-12

> <Gold.Version>
5.8.1

> <Gold.Id.Protein>
6NUR|6NUR_protein|mol2

> <Gold.PLP.Fitness>
39.1535

> <Gold.PLP.PLP>
-28.1329

> <Gold.PLP.part.hbond>
-4.0000

> <Gold.PLP.part.metal>
0.0000

> <Gold.PLP.part.buried>
-0.4709

> <Gold.PLP.part.nonpolar>
-24.0797

> <Gold.PLP.part.repulsive>
0.5024

> <Gold.PLP.ligand.clash>
0.0000

> <Gold.PLP.ligand.torsion>
0.1712

> <Gold.PLP.Chemscore.Hbond>
2.7840

> <Gold.PLP.Chemscore.CHOScore>
1.0000

> <Gold.PLP.Chemscore.Metal>
0.0000

> <Gold.Chemscore.Hbonds>
donor molecule, donor type, donor heavy atom, donor atom, acceptor molecule, acceptor atom, score
      P1  H  7997  8008       L1    15  1.85
      P1  H  8011  8017       L1    12  0.78
      L1  C     3    21       P1  8028  1.00

> <Gold.PLP.Chemscore.Internal.Correction>
0.0110

> <Gold.Rescore>
     Score         DG    S(hbond)    S(metal)    S(lipo)     H(rot)  DE(clash)    DE(int)     intcor
      3.96      -6.25       0.62        0.00      47.64       2.69       1.20       1.09       ----

> <Gold.Chemscore.Fitness>
3.9572

> <Gold.Chemscore.DG>
-6.2483

> <Gold.Chemscore.ZeroCoef>
-5.4800

> <Gold.Chemscore.Hbond>
0.6208

> <Gold.Chemscore.Metal>
0.0000

> <Gold.Chemscore.Lipo>
47.6402

> <Gold.Chemscore.Internal_Hbond>
0.0000

> <Gold.Chemscore.DEClash>
1.2021

> <Gold.Chemscore.DEInternal>
1.0889

> <Gold.Chemscore.Rot>
2.6871

> <Gold.Chemscore.Internal.Correction>
   9.000000E+99

> <Gold.Chemscore.Hbonds>
donor molecule, donor type, donor heavy atom, donor atom, acceptor molecule, acceptor atom, score
      P1  H  7997  8008       L1    15  0.23
      P1  H  8011  8017       L1    12  0.46

> <Gold.Chemscore.Hbond.Weighted>
-2.0734

> <Gold.Chemscore.Metal.Weighted>
-0.0000

> <Gold.Chemscore.Lipo.Weighted>
-5.5739

> <Gold.Chemscore.Internal_Hbond.Weighted>
0.0000

> <Gold.Chemscore.DEClash.Weighted>
1.2021

> <Gold.Chemscore.DEInternal.Weighted>
1.0889

> <Gold.Chemscore.Rot.Weighted>
6.8791

> <Gold.Chemscore.Internal.Correction.Weighted>
   9.000000E+99

> <Gold.Protein.RotatedTorsions>
[ 6907 6896 6895 6894 ] final    0.80 input  -60.11 | X-H torsion
[ 7974 7965 7964 7962 ] final  170.94 input  175.53 | X-H torsion
[ 8008 7997 7996 7995 ] final  -72.96 input   59.86 | X-H torsion
[ 10167 10162 10161 10158 ] final   78.36 input  -65.29 | X-H torsion
[ 10718 10713 10712 10709 ] final  117.80 input   66.30 | X-H torsion
[ 10763 10752 10751 10750 ] final  -79.47 input  -60.55 | X-H torsion
[ 11005 11000 10999 10996 ] final -144.89 input  -57.11 | X-H torsion

> <Gold.Protein.ActiveResidues>
 VAL166  LYS551  ARG553  GLY616  TRP617  ASP618  TYR619  PRO620  LYS621  CYS622 
 ASP623  PHE694  ASN695  SER759  ASP760  ASP761  ALA762  ILE779  LEU786  VAL792 
 PHE793  MET794  SER795  GLU796  ALA797  LYS798  CYS799  TRP800  GLU811  SER814 

> <Gold.Protein.RotatedAtoms>
  151.5822  135.1058  160.0019 H   0  0  0  0  0  0  0  0  0  0  0  0  # atno 6907 bound_to 6896
  152.4348  133.7337  159.6612 H   0  0  0  0  0  0  0  0  0  0  0  0  # atno 6908 bound_to 6896
  150.8244  133.8126  159.3148 H   0  0  0  0  0  0  0  0  0  0  0  0  # atno 6909 bound_to 6896
  144.7309  139.9276  143.6423 H   0  0  0  0  0  0  0  0  0  0  0  0  # atno 7974 bound_to 7965
  154.5208  140.0788  156.8168 H   0  0  0  0  0  0  0  0  0  0  0  0  # atno 8008 bound_to 7997
  155.3580  140.3416  155.4222 H   0  0  0  0  0  0  0  0  0  0  0  0  # atno 8009 bound_to 7997
  156.1679  140.1610  156.8487 H   0  0  0  0  0  0  0  0  0  0  0  0  # atno 8010 bound_to 7997
  139.9717  144.5889  150.7979 H   0  0  0  0  0  0  0  0  0  0  0  0  # atno 10167 bound_to 10162
  157.6072  131.1041  150.7666 H   0  0  0  0  0  0  0  0  0  0  0  0  # atno 10718 bound_to 10713
  154.5390  135.5694  153.6823 H   0  0  0  0  0  0  0  0  0  0  0  0  # atno 10763 bound_to 10752
  152.9958  135.6223  154.2527 H   0  0  0  0  0  0  0  0  0  0  0  0  # atno 10764 bound_to 10752
  154.2457  135.2861  155.2816 H   0  0  0  0  0  0  0  0  0  0  0  0  # atno 10765 bound_to 10752
  140.7978  134.2893  157.4990 H   0  0  0  0  0  0  0  0  0  0  0  0  # atno 11005 bound_to 11000
  146.0882  139.3871  143.0422 LP  0  0  0  0  0  0  0  0  0  0  0  0  # atno 17320 bound_to 7965
  145.7747  140.9882  143.1131 LP  0  0  0  0  0  0  0  0  0  0  0  0  # atno 17321 bound_to 7965
  140.7519  143.2981  151.3151 LP  0  0  0  0  0  0  0  0  0  0  0  0  # atno 17342 bound_to 10162
  139.6476  144.0423  152.2602 LP  0  0  0  0  0  0  0  0  0  0  0  0  # atno 17343 bound_to 10162
  156.8052  130.4934  149.5364 LP  0  0  0  0  0  0  0  0  0  0  0  0  # atno 17370 bound_to 10713
  156.1163  130.6077  151.0125 LP  0  0  0  0  0  0  0  0  0  0  0  0  # atno 17371 bound_to 10713
  139.8724  134.9412  156.3790 LP  0  0  0  0  0  0  0  0  0  0  0  0  # atno 17394 bound_to 11000
  140.9325  133.7569  156.0043 LP  0  0  0  0  0  0  0  0  0  0  0  0  # atno 17395 bound_to 11000

$$$$
