AV-unprocessed.smi:157|AV-procd|sdf|1300|dock5
  -GOLD-   2262018583D 1   1.00000     0.00000
 Structure written by MMmdl.
 35 37  0  0  0  0  0  0  0  0  1 V2000
  148.3916  138.3576  153.1250 O   0  0  0  0  0  0  0  0  0  0  0  0
  148.7591  138.2271  154.4821 C   0  0  0  0  0  0  0  0  0  0  0  0
  149.5944  139.4343  154.9365 C   0  0  2  0  0  0  0  0  0  0  0  0
  149.6009  139.4917  156.3619 O   0  0  0  0  0  0  0  0  0  0  0  0
  149.5252  140.8175  156.7965 C   0  0  1  0  0  0  0  0  0  0  0  0
  150.6700  141.0837  157.7240 N   0  0  0  0  0  0  0  0  0  0  0  0
  151.6527  140.2274  158.0337 C   0  0  0  0  0  0  0  0  0  0  0  0
  152.5550  140.7066  158.8729 N   0  0  0  0  0  0  0  0  0  0  0  0
  152.1152  142.0029  159.1350 C   0  0  0  0  0  0  0  0  0  0  0  0
  150.9474  142.2582  158.4301 C   0  0  0  0  0  0  0  0  0  0  0  0
  150.0912  143.3324  158.2801 N   0  0  0  0  0  0  0  0  0  0  0  0
  150.1261  144.2671  159.1769 C   0  0  0  0  0  0  0  0  0  0  0  0
  150.9732  144.4345  160.2630 N   0  0  0  0  0  0  0  0  0  0  0  0
  152.4194  144.3303  160.1675 C   0  0  0  0  0  0  0  0  0  0  0  0
  152.9233  142.8873  160.0406 C   0  0  1  0  0  0  0  0  0  0  0  0
  152.9242  142.2810  161.3169 O   0  0  0  0  0  0  0  0  0  0  0  0
  149.6272  141.7068  155.5595 C   0  0  0  0  0  0  0  0  0  0  0  0
  149.0435  140.7972  154.5012 C   0  0  1  0  0  0  0  0  0  0  0  0
  149.4899  141.1769  153.2158 O   0  0  0  0  0  0  0  0  0  0  0  0
  150.6324  139.3258  154.6162 H   0  0  0  0  0  0  0  0  0  0  0  0
  148.6129  140.9646  157.3751 H   0  0  0  0  0  0  0  0  0  0  0  0
  153.9599  142.9130  159.7034 H   0  0  0  0  0  0  0  0  0  0  0  0
  147.9535  140.8131  154.5476 H   0  0  0  0  0  0  0  0  0  0  0  0
  148.5610  137.5369  152.6882 H   0  0  0  0  0  0  0  0  0  0  0  0
  147.8649  138.1163  155.0962 H   0  0  0  0  0  0  0  0  0  0  0  0
  149.3396  137.3106  154.5912 H   0  0  0  0  0  0  0  0  0  0  0  0
  151.7106  139.2275  157.6292 H   0  0  0  0  0  0  0  0  0  0  0  0
  149.3996  145.0780  159.1083 H   0  0  0  0  0  0  0  0  0  0  0  0
  150.7014  145.0813  160.9894 H   0  0  0  0  0  0  0  0  0  0  0  0
  152.7252  144.8882  159.2813 H   0  0  0  0  0  0  0  0  0  0  0  0
  152.8851  144.8306  161.0171 H   0  0  0  0  0  0  0  0  0  0  0  0
  152.8198  141.3488  161.2003 H   0  0  0  0  0  0  0  0  0  0  0  0
  149.0825  142.6416  155.6949 H   0  0  0  0  0  0  0  0  0  0  0  0
  150.6755  141.9280  155.3484 H   0  0  0  0  0  0  0  0  0  0  0  0
  149.1697  140.5446  152.5902 H   0  0  0  0  0  0  0  0  0  0  0  0
  1  2  1  0  0  0  0
  1 24  1  0  0  0  0
  2  3  1  0  0  0  0
  2 25  1  0  0  0  0
  2 26  1  0  0  0  0
  3 20  1  0  0  0  0
  3 18  1  0  0  0  0
  3  4  1  0  0  0  0
  4  5  1  0  0  0  0
  5 21  1  0  0  0  0
  5  6  1  0  0  0  0
  5 17  1  0  0  0  0
  6 10  1  0  0  0  0
  6  7  1  0  0  0  0
  7  8  2  0  0  0  0
  7 27  1  0  0  0  0
  8  9  1  0  0  0  0
  9 15  1  0  0  0  0
  9 10  2  0  0  0  0
 10 11  1  0  0  0  0
 11 12  2  0  0  0  0
 12 13  1  0  0  0  0
 12 28  1  0  0  0  0
 13 14  1  0  0  0  0
 13 29  1  0  0  0  0
 14 15  1  0  0  0  0
 14 30  1  0  0  0  0
 14 31  1  0  0  0  0
 15 22  1  0  0  0  0
 15 16  1  0  0  0  0
 16 32  1  0  0  0  0
 17 18  1  0  0  0  0
 17 33  1  0  0  0  0
 17 34  1  0  0  0  0
 18 23  1  0  0  0  0
 18 19  1  0  0  0  0
 19 35  1  0  0  0  0
M  END
> <s_m_source_file>
AV-unprocessed.smi

> <i_m_source_file_index>
157

> <i_lp_mmshare_version>
43012

> <i_f3d_flags>
0

> <s_epik_input>
W09IXVtDSDJdW0NASF0xT1tDQEhdKFtDSDJdW0NAQEhdMVtPSF0pbihbY0hdbjIpYyhjMjMpTj1bQ0hdW05IXVtDSDJdW0NASF0zW09IXQ==

> <s_epik_cmdline>
J2VwaWtfcHl0aG9uJywgJy1waCcsICc3LjAnLCAnLXRuJywgJzgnLCAnLW1hJywgJzIwMCcsICctbWV0YWxfYmluZGluZycsICctaW1hZScsICc8aW5maWxlLm1hZT4nLCAnLW9tYWUnLCAnPG91dGZpbGUubWFlPic=

> <r_lp_tautomer_probability>
1

> <r_epik_Ionization_Penalty>
0.0357149

> <r_epik_Ionization_Penalty_Charging>
0.0355056

> <r_epik_Ionization_Penalty_Neutral>
0.000209255

> <r_epik_State_Penalty>
0.0296046

> <r_epik_Charging_Adjusted_Penalty>
0.0651102

> <i_epik_Tot_Q>
0

> <i_epik_Tot_abs_Q>
0

> <r_epik_Metal_State_Penalty>
3.03559e-05

> <b_epik_Metal_Only>
0

> <s_epik_Chemistry_Notes>
This compound has an imine and may undergo hydrolysis. This compound contains an acetal/aminal-like group ( X-CH(R)-Y where X, Y are N, S, or O) that may be acid/base labile, releasing an aldehyde.

> <s_lp_Force_Field>
OPLS_2005

> <r_lp_Energy>
44.6585

> <b_lp_Chiralities_Consistent>
1

> <s_lp_Variant>
AV-unprocessed.smi:157-10

> <Gold.Version>
5.8.1

> <Gold.Id.Protein>
6NUR|6NUR_protein|mol2

> <Gold.PLP.Fitness>
43.0120

> <Gold.PLP.PLP>
-31.9123

> <Gold.PLP.part.hbond>
-4.2628

> <Gold.PLP.part.metal>
0.0000

> <Gold.PLP.part.buried>
-4.8739

> <Gold.PLP.part.nonpolar>
-23.1692

> <Gold.PLP.part.repulsive>
0.3082

> <Gold.PLP.ligand.clash>
0.0000

> <Gold.PLP.ligand.torsion>
0.1693

> <Gold.PLP.Chemscore.Hbond>
2.8093

> <Gold.PLP.Chemscore.CHOScore>
1.0000

> <Gold.PLP.Chemscore.Metal>
0.0000

> <Gold.Chemscore.Hbonds>
donor molecule, donor type, donor heavy atom, donor atom, acceptor molecule, acceptor atom, score
      L1  H     1    24       P1  7948  1.00
      L1  H    19    35       P1  7957  0.70
      P1  H  7989  7998       L1    19  0.07
      P1  H  8011  8017       L1    19  1.00
      L1  C    12    28       P1  8029  1.00

> <Gold.PLP.Chemscore.Internal.Correction>
0.0102

> <Gold.Rescore>
     Score         DG    S(hbond)    S(metal)    S(lipo)     H(rot)  DE(clash)    DE(int)     intcor
     10.41     -10.72       2.39        0.00      56.07       3.64       0.08       0.23       ----

> <Gold.Chemscore.Fitness>
10.4087

> <Gold.Chemscore.DG>
-10.7187

> <Gold.Chemscore.ZeroCoef>
-5.4800

> <Gold.Chemscore.Hbond>
2.3915

> <Gold.Chemscore.Metal>
0.0000

> <Gold.Chemscore.Lipo>
56.0673

> <Gold.Chemscore.Internal_Hbond>
0.0000

> <Gold.Chemscore.DEClash>
0.0796

> <Gold.Chemscore.DEInternal>
0.2304

> <Gold.Chemscore.Rot>
3.6362

> <Gold.Chemscore.Internal.Correction>
   9.000000E+99

> <Gold.Chemscore.Hbonds>
donor molecule, donor type, donor heavy atom, donor atom, acceptor molecule, acceptor atom, score
      L1  H     1    24       P1  7948  0.97
      L1  H    19    35       P1  7957  0.70
      P1  H  7989  7998       L1    19  0.02
      P1  H  8011  8017       L1    19  0.37

> <Gold.Chemscore.Hbond.Weighted>
-7.9876

> <Gold.Chemscore.Metal.Weighted>
-0.0000

> <Gold.Chemscore.Lipo.Weighted>
-6.5599

> <Gold.Chemscore.Internal_Hbond.Weighted>
0.0000

> <Gold.Chemscore.DEClash.Weighted>
0.0796

> <Gold.Chemscore.DEInternal.Weighted>
0.2304

> <Gold.Chemscore.Rot.Weighted>
9.3087

> <Gold.Chemscore.Internal.Correction.Weighted>
   9.000000E+99

> <Gold.Protein.RotatedTorsions>
[ 6907 6896 6895 6894 ] final  133.91 input  -60.11 | X-H torsion
[ 7974 7965 7964 7962 ] final -119.33 input  175.53 | X-H torsion
[ 8008 7997 7996 7995 ] final   -9.16 input   59.86 | X-H torsion
[ 10167 10162 10161 10158 ] final  -52.40 input  -65.29 | X-H torsion
[ 10718 10713 10712 10709 ] final -139.35 input   66.30 | X-H torsion
[ 10763 10752 10751 10750 ] final   45.37 input  -60.55 | X-H torsion
[ 11005 11000 10999 10996 ] final   31.16 input  -57.11 | X-H torsion

> <Gold.Protein.ActiveResidues>
 VAL166  LYS551  ARG553  GLY616  TRP617  ASP618  TYR619  PRO620  LYS621  CYS622 
 ASP623  PHE694  ASN695  SER759  ASP760  ASP761  ALA762  ILE779  LEU786  VAL792 
 PHE793  MET794  SER795  GLU796  ALA797  LYS798  CYS799  TRP800  GLU811  SER814 

> <Gold.Protein.RotatedAtoms>
  152.3169  133.5812  159.5718 H   0  0  0  0  0  0  0  0  0  0  0  0  # atno 6907 bound_to 6896
  150.7351  134.0069  159.3665 H   0  0  0  0  0  0  0  0  0  0  0  0  # atno 6908 bound_to 6896
  151.7957  135.0724  160.0444 H   0  0  0  0  0  0  0  0  0  0  0  0  # atno 6909 bound_to 6896
  145.0637  140.8309  143.4137 H   0  0  0  0  0  0  0  0  0  0  0  0  # atno 7974 bound_to 7965
  154.5673  140.2362  155.8245 H   0  0  0  0  0  0  0  0  0  0  0  0  # atno 8008 bound_to 7997
  156.2078  140.3034  155.9624 H   0  0  0  0  0  0  0  0  0  0  0  0  # atno 8009 bound_to 7997
  155.2778  140.0421  157.3003 H   0  0  0  0  0  0  0  0  0  0  0  0  # atno 8010 bound_to 7997
  140.6539  143.2585  151.4642 H   0  0  0  0  0  0  0  0  0  0  0  0  # atno 10167 bound_to 10162
  156.3098  130.7475  151.1548 H   0  0  0  0  0  0  0  0  0  0  0  0  # atno 10718 bound_to 10713
  152.9825  135.6042  154.3425 H   0  0  0  0  0  0  0  0  0  0  0  0  # atno 10763 bound_to 10752
  154.3121  135.2771  155.2563 H   0  0  0  0  0  0  0  0  0  0  0  0  # atno 10764 bound_to 10752
  154.4767  135.5927  153.6416 H   0  0  0  0  0  0  0  0  0  0  0  0  # atno 10765 bound_to 10752
  140.2868  134.2910  155.7786 H   0  0  0  0  0  0  0  0  0  0  0  0  # atno 11005 bound_to 11000
  145.1377  139.2591  143.5506 LP  0  0  0  0  0  0  0  0  0  0  0  0  # atno 17320 bound_to 7965
  146.3525  140.1046  142.8606 LP  0  0  0  0  0  0  0  0  0  0  0  0  # atno 17321 bound_to 7965
  139.5758  144.1821  152.1901 LP  0  0  0  0  0  0  0  0  0  0  0  0  # atno 17342 bound_to 10162
  140.1132  144.5439  150.6911 LP  0  0  0  0  0  0  0  0  0  0  0  0  # atno 17343 bound_to 10162
  157.7388  131.0536  150.5271 LP  0  0  0  0  0  0  0  0  0  0  0  0  # atno 17370 bound_to 10713
  156.5409  130.4208  149.6154 LP  0  0  0  0  0  0  0  0  0  0  0  0  # atno 17371 bound_to 10713
  141.2153  133.7560  156.9564 LP  0  0  0  0  0  0  0  0  0  0  0  0  # atno 17394 bound_to 11000
  140.1232  134.9403  157.2233 LP  0  0  0  0  0  0  0  0  0  0  0  0  # atno 17395 bound_to 11000

$$$$
