AV-unprocessed.smi:1423|AV-procd|sdf|5798|dock7
  -GOLD-   22720 5453D 1   1.00000     0.00000
 Structure written by MMmdl.
 43 44  0  0  0  0  0  0  0  0  3 V2000
  154.2725  140.7113  161.0485 C   0  0  0  0  0  0  0  0  0  0  0  0
  154.1002  142.0322  160.5473 O   0  0  0  0  0  0  0  0  0  0  0  0
  153.1429  142.2459  159.5767 C   0  0  0  0  0  0  0  0  0  0  0  0
  152.9501  143.5568  159.0982 C   0  0  0  0  0  0  0  0  0  0  0  0
  151.9758  143.7852  158.1080 C   0  0  0  0  0  0  0  0  0  0  0  0
  151.2263  142.6882  157.6188 C   0  0  0  0  0  0  0  0  0  0  0  0
  150.2032  142.7866  156.6360 N   0  0  0  0  0  0  0  0  0  0  0  0
  149.6637  141.8122  155.8831 C   0  0  0  0  0  0  0  0  0  0  0  0
  149.9467  140.6167  155.9536 O   0  0  0  0  0  0  0  0  0  0  0  0
  148.7477  142.3035  155.0358 N   0  0  0  0  0  0  0  0  0  0  0  0
  147.9714  141.5116  154.0814 C   0  0  2  0  0  0  0  0  0  0  0  0
  146.9986  142.3887  153.2685 C   0  0  0  0  0  0  0  0  0  0  0  0
  145.8300  142.9032  154.1272 C   0  0  0  0  0  0  0  0  0  0  0  0
  145.1056  141.7780  154.7767 N   0  3  2  0  0  0  0  0  0  0  0  0
  143.8890  142.2115  155.5082 C   0  0  0  0  0  0  0  0  0  0  0  0
  143.0743  140.9919  155.9523 C   0  0  0  0  0  0  0  0  0  0  0  0
  142.6921  140.2234  154.9150 N   0  5  0  0  0  0  0  0  0  0  0  0
  142.8569  140.8096  157.1484 O   0  0  0  0  0  0  0  0  0  0  0  0
  146.0114  140.9617  155.6240 C   0  0  0  0  0  0  0  0  0  0  0  0
  147.1897  140.4023  154.8060 C   0  0  0  0  0  0  0  0  0  0  0  0
  151.4888  141.4177  158.1727 C   0  0  0  0  0  0  0  0  0  0  0  0
  152.4208  141.1920  159.1224 N   0  0  0  0  0  0  0  0  0  0  0  0
  155.0660  140.7104  161.7954 H   0  0  0  0  0  0  0  0  0  0  0  0
  154.5627  140.0186  160.2571 H   0  0  0  0  0  0  0  0  0  0  0  0
  153.3645  140.3455  161.5301 H   0  0  0  0  0  0  0  0  0  0  0  0
  153.5372  144.3755  159.4874 H   0  0  0  0  0  0  0  0  0  0  0  0
  151.8186  144.7936  157.7595 H   0  0  0  0  0  0  0  0  0  0  0  0
  149.8088  143.7082  156.5177 H   0  0  0  0  0  0  0  0  0  0  0  0
  148.5719  143.2974  155.0536 H   0  0  0  0  0  0  0  0  0  0  0  0
  148.6717  141.0339  153.3935 H   0  0  0  0  0  0  0  0  0  0  0  0
  147.5251  143.2280  152.8128 H   0  0  0  0  0  0  0  0  0  0  0  0
  146.5969  141.8027  152.4407 H   0  0  0  0  0  0  0  0  0  0  0  0
  146.1954  143.5923  154.8903 H   0  0  0  0  0  0  0  0  0  0  0  0
  145.1503  143.4728  153.4929 H   0  0  0  0  0  0  0  0  0  0  0  0
  144.1705  142.7481  156.4152 H   0  0  0  0  0  0  0  0  0  0  0  0
  143.3093  142.9113  154.9021 H   0  0  0  0  0  0  0  0  0  0  0  0
  143.2434  140.2549  154.0487 H   0  0  0  0  0  0  0  0  0  0  0  0
  146.3768  141.5665  156.4554 H   0  0  0  0  0  0  0  0  0  0  0  0
  145.4559  140.1303  156.0592 H   0  0  0  0  0  0  0  0  0  0  0  0
  146.8037  139.6979  154.0676 H   0  0  0  0  0  0  0  0  0  0  0  0
  147.8556  139.8281  155.4515 H   0  0  0  0  0  0  0  0  0  0  0  0
  150.9344  140.5513  157.8424 H   0  0  0  0  0  0  0  0  0  0  0  0
  144.7794  141.1711  154.0379 H   0  0  0  0  0  0  0  0  0  0  0  0
  1  2  1  0  0  0  0
  1 23  1  0  0  0  0
  1 24  1  0  0  0  0
  1 25  1  0  0  0  0
  2  3  1  0  0  0  0
  3 22  1  0  0  0  0
  3  4  2  0  0  0  0
  4  5  1  0  0  0  0
  4 26  1  0  0  0  0
  5  6  2  0  0  0  0
  5 27  1  0  0  0  0
  6  7  1  0  0  0  0
  6 21  1  0  0  0  0
  7  8  1  0  0  0  0
  7 28  1  0  0  0  0
  8  9  2  0  0  0  0
  8 10  1  0  0  0  0
 10 11  1  0  0  0  0
 10 29  1  0  0  0  0
 11 20  1  0  0  0  0
 11 12  1  0  0  0  0
 11 30  1  0  0  0  0
 12 13  1  0  0  0  0
 12 31  1  0  0  0  0
 12 32  1  0  0  0  0
 13 14  1  0  0  0  0
 13 33  1  0  0  0  0
 13 34  1  0  0  0  0
 14 15  1  0  0  0  0
 14 19  1  0  0  0  0
 14 43  1  0  0  0  0
 15 16  1  0  0  0  0
 15 35  1  0  0  0  0
 15 36  1  0  0  0  0
 16 17  1  0  0  0  0
 16 18  2  0  0  0  0
 17 37  1  0  0  0  0
 19 20  1  0  0  0  0
 19 38  1  0  0  0  0
 19 39  1  0  0  0  0
 20 40  1  0  0  0  0
 20 41  1  0  0  0  0
 21 22  2  0  0  0  0
 21 42  1  0  0  0  0
M  CHG  1  14   1
M  CHG  1  17  -1
M  END
> <s_m_source_file>
AV-unprocessed.smi

> <i_m_source_file_index>
1423

> <i_lp_mmshare_version>
43012

> <i_f3d_flags>
0

> <s_epik_input>
W0NIM11PYzFbY0hdW2NIXWMoW2NIXW4xKVtOSF1DKD1PKVtOSF1bQ0hdMltDSDJdW0NIMl1OKFtDSDJdW0NIMl0yKVtDSDJdQyg9TylbTkgyXQ==

> <s_epik_cmdline>
J2VwaWtfcHl0aG9uJywgJy1waCcsICc3LjAnLCAnLXRuJywgJzgnLCAnLW1hJywgJzIwMCcsICctbWV0YWxfYmluZGluZycsICctaW1hZScsICc8aW5maWxlLm1hZT4nLCAnLW9tYWUnLCAnPG91dGZpbGUubWFlPic=

> <r_lp_tautomer_probability>
1

> <r_epik_Ionization_Penalty>
5.72888

> <r_epik_Ionization_Penalty_Charging>
5.7288

> <r_epik_Ionization_Penalty_Neutral>
7.8452e-05

> <r_epik_State_Penalty>
6.54882

> <r_epik_Charging_Adjusted_Penalty>
12.2776

> <i_epik_Tot_Q>
0

> <i_epik_Tot_abs_Q>
2

> <r_epik_Metal_State_Penalty>
2.51301

> <b_epik_Metal_Only>
1

> <s_lp_Force_Field>
OPLS_2005

> <r_lp_Energy>
11.3515

> <b_lp_Chiralities_Consistent>
1

> <s_lp_Variant>
AV-unprocessed.smi:1423-5

> <Gold.Version>
5.8.1

> <Gold.Id.Protein>
6NUR|6NUR_protein|mol2

> <Gold.PLP.Fitness>
50.9622

> <Gold.PLP.PLP>
-36.1206

> <Gold.PLP.part.hbond>
-3.9713

> <Gold.PLP.part.metal>
0.0000

> <Gold.PLP.part.buried>
-5.2862

> <Gold.PLP.part.nonpolar>
-27.3729

> <Gold.PLP.part.repulsive>
0.2959

> <Gold.PLP.ligand.clash>
0.0000

> <Gold.PLP.ligand.torsion>
0.1040

> <Gold.PLP.Chemscore.Hbond>
5.0000

> <Gold.PLP.Chemscore.CHOScore>
0.0000

> <Gold.PLP.Chemscore.Metal>
0.0000

> <Gold.Chemscore.Hbonds>
donor molecule, donor type, donor heavy atom, donor atom, acceptor molecule, acceptor atom, score
      L1  H     7    28       P1  8028  1.00
      L1  H    10    29       P1  8028  1.00
      L1  H    14    43       P1 10175  2.00
      L1  H    17    37       P1 10175  1.00

> <Gold.PLP.Chemscore.Internal.Correction>
0.0496

> <Gold.Rescore>
     Score         DG    S(hbond)    S(metal)    S(lipo)     H(rot)  DE(clash)    DE(int)     intcor
     17.79     -21.55       3.81        0.00      78.70       2.29       1.29       2.46       ----

> <Gold.Chemscore.Fitness>
17.7942

> <Gold.Chemscore.DG>
-21.5506

> <Gold.Chemscore.ZeroCoef>
-5.4800

> <Gold.Chemscore.Hbond>
3.8094

> <Gold.Chemscore.Metal>
0.0000

> <Gold.Chemscore.Lipo>
78.7004

> <Gold.Chemscore.Internal_Hbond>
0.0000

> <Gold.Chemscore.DEClash>
1.2949

> <Gold.Chemscore.DEInternal>
2.4615

> <Gold.Chemscore.Rot>
2.2894

> <Gold.Chemscore.Internal.Correction>
   9.000000E+99

> <Gold.Chemscore.Hbonds>
donor molecule, donor type, donor heavy atom, donor atom, acceptor molecule, acceptor atom, score
      L1  H     7    28       P1  8028  0.93
      L1  H    10    29       P1  8028  0.92
      L1  H    14    43       P1 10175  0.66
      L1  H    17    37       P1 10175  0.98

> <Gold.Chemscore.Hbond.Weighted>
-12.7235

> <Gold.Chemscore.Metal.Weighted>
-0.0000

> <Gold.Chemscore.Lipo.Weighted>
-9.2079

> <Gold.Chemscore.Internal_Hbond.Weighted>
0.0000

> <Gold.Chemscore.DEClash.Weighted>
1.2949

> <Gold.Chemscore.DEInternal.Weighted>
2.4615

> <Gold.Chemscore.Rot.Weighted>
5.8608

> <Gold.Chemscore.Internal.Correction.Weighted>
   9.000000E+99

> <Gold.Protein.RotatedTorsions>
[ 6907 6896 6895 6894 ] final   13.45 input  -60.11 | X-H torsion
[ 7974 7965 7964 7962 ] final  -82.66 input  175.53 | X-H torsion
[ 8008 7997 7996 7995 ] final  -77.75 input   59.86 | X-H torsion
[ 10167 10162 10161 10158 ] final -128.83 input  -65.29 | X-H torsion
[ 10718 10713 10712 10709 ] final  -22.03 input   66.30 | X-H torsion
[ 10763 10752 10751 10750 ] final   29.13 input  -60.55 | X-H torsion
[ 11005 11000 10999 10996 ] final  153.73 input  -57.11 | X-H torsion

> <Gold.Protein.ActiveResidues>
 VAL166  LYS551  ARG553  GLY616  TRP617  ASP618  TYR619  PRO620  LYS621  CYS622 
 ASP623  PHE694  ASN695  SER759  ASP760  ASP761  ALA762  ILE779  LEU786  VAL792 
 PHE793  MET794  SER795  GLU796  ALA797  LYS798  CYS799  TRP800  GLU811  SER814 

> <Gold.Protein.RotatedAtoms>
  151.7865  135.0747  160.0380 H   0  0  0  0  0  0  0  0  0  0  0  0  # atno 6907 bound_to 6896
  152.3186  133.5825  159.5737 H   0  0  0  0  0  0  0  0  0  0  0  0  # atno 6908 bound_to 6896
  150.7357  133.9961  159.3665 H   0  0  0  0  0  0  0  0  0  0  0  0  # atno 6909 bound_to 6896
  145.5303  140.9522  143.1606 H   0  0  0  0  0  0  0  0  0  0  0  0  # atno 7974 bound_to 7965
  154.5625  140.0705  156.8841 H   0  0  0  0  0  0  0  0  0  0  0  0  # atno 8008 bound_to 7997
  155.2785  140.3370  155.4242 H   0  0  0  0  0  0  0  0  0  0  0  0  # atno 8009 bound_to 7997
  156.2054  140.1738  156.7797 H   0  0  0  0  0  0  0  0  0  0  0  0  # atno 8010 bound_to 7997
  139.9462  143.6108  152.2489 H   0  0  0  0  0  0  0  0  0  0  0  0  # atno 10167 bound_to 10162
  156.5101  130.4608  149.6653 H   0  0  0  0  0  0  0  0  0  0  0  0  # atno 10718 bound_to 10713
  153.0449  135.6496  154.0843 H   0  0  0  0  0  0  0  0  0  0  0  0  # atno 10763 bound_to 10752
  154.0542  135.2893  155.3337 H   0  0  0  0  0  0  0  0  0  0  0  0  # atno 10764 bound_to 10752
  154.6700  135.5360  153.8191 H   0  0  0  0  0  0  0  0  0  0  0  0  # atno 10765 bound_to 10752
  140.1425  134.8730  157.2349 H   0  0  0  0  0  0  0  0  0  0  0  0  # atno 11005 bound_to 11000
  144.7629  139.6914  143.7227 LP  0  0  0  0  0  0  0  0  0  0  0  0  # atno 17320 bound_to 7965
  146.2048  139.5365  142.9719 LP  0  0  0  0  0  0  0  0  0  0  0  0  # atno 17321 bound_to 7965
  139.6665  144.7662  151.1863 LP  0  0  0  0  0  0  0  0  0  0  0  0  # atno 17342 bound_to 10162
  140.7596  143.5930  150.8777 LP  0  0  0  0  0  0  0  0  0  0  0  0  # atno 17343 bound_to 10162
  156.3249  130.7300  151.2219 LP  0  0  0  0  0  0  0  0  0  0  0  0  # atno 17370 bound_to 10713
  157.7451  131.0446  150.4800 LP  0  0  0  0  0  0  0  0  0  0  0  0  # atno 17371 bound_to 10713
  140.2705  134.3466  155.7375 LP  0  0  0  0  0  0  0  0  0  0  0  0  # atno 17394 bound_to 11000
  141.2188  133.7420  156.9215 LP  0  0  0  0  0  0  0  0  0  0  0  0  # atno 17395 bound_to 11000

$$$$
