AV-unprocessed.smi:249|AV-procd|sdf|1924|dock9
  -GOLD-   2262021 33D 1   1.00000     0.00000
 Structure written by MMmdl.
 64 67  0  0  0  0  0  0  0  0  2 V2000
  144.0363  132.5430  149.5109 C   0  0  0  0  0  0  0  0  0  0  0  0
  143.8053  132.9584  150.9719 C   0  0  0  0  0  0  0  0  0  0  0  0
  143.4633  134.4035  151.1257 N   0  3  2  0  0  0  0  0  0  0  0  0
  144.5352  135.3352  150.6730 C   0  0  0  0  0  0  0  0  0  0  0  0
  145.7239  135.3662  151.6528 C   0  0  0  0  0  0  0  0  0  0  0  0
  145.2513  135.7289  153.0744 C   0  0  2  0  0  0  0  0  0  0  0  0
  146.3558  135.7717  154.0399 N   0  0  0  0  0  0  0  0  0  0  0  0
  147.3829  134.7305  154.0176 C   0  0  0  0  0  0  0  0  0  0  0  0
  146.7579  137.0157  154.4095 C   0  0  0  0  0  0  0  0  0  0  0  0
  146.1340  138.1066  153.8896 N   0  0  0  0  0  0  0  0  0  0  0  0
  146.5040  139.3365  154.2583 C   0  0  0  0  0  0  0  0  0  0  0  0
  147.4547  139.6974  155.1218 N   0  0  0  0  0  0  0  0  0  0  0  0
  148.0882  138.6089  155.6440 C   0  0  0  0  0  0  0  0  0  0  0  0
  147.8110  137.2462  155.3400 C   0  0  0  0  0  0  0  0  0  0  0  0
  148.6764  136.4191  156.0473 N   0  0  0  0  0  0  0  0  0  0  0  0
  149.4130  137.2446  156.7393 C   0  0  0  0  0  0  0  0  0  0  0  0
  149.1098  138.5778  156.5776 N   0  0  0  0  0  0  0  0  0  0  0  0
  149.7678  139.7007  157.2228 C   0  0  0  0  0  0  0  0  0  0  0  0
  150.8887  140.3753  156.3821 C   0  0  2  0  0  0  0  0  0  0  0  0
  151.7537  139.2768  155.7180 C   0  0  0  0  0  0  0  0  0  0  0  0
  152.8234  139.8360  154.9836 O   0  0  0  0  0  0  0  0  0  0  0  0
  151.7662  141.3652  157.2064 C   0  0  1  0  0  0  0  0  0  0  0  0
  151.0404  142.6077  157.7019 C   0  0  0  0  0  0  0  0  0  0  0  0
  151.9634  143.1099  158.8027 C   0  0  0  0  0  0  0  0  0  0  0  0
  152.4487  141.9321  159.4270 O   0  0  0  0  0  0  0  0  0  0  0  0
  152.3166  140.8267  158.5384 C   0  0  0  0  0  0  0  0  0  0  0  0
  144.1090  134.7939  153.5185 C   0  0  0  0  0  0  0  0  0  0  0  0
  142.9673  134.7984  152.4804 C   0  0  2  0  0  0  0  0  0  0  0  0
  141.7420  133.9928  152.9485 C   0  0  0  0  0  0  0  0  0  0  0  0
  144.1245  131.4591  149.4341 H   0  0  0  0  0  0  0  0  0  0  0  0
  144.9546  132.9635  149.1027 H   0  0  0  0  0  0  0  0  0  0  0  0
  143.2062  132.8511  148.8746 H   0  0  0  0  0  0  0  0  0  0  0  0
  142.9831  132.3463  151.3374 H   0  0  0  0  0  0  0  0  0  0  0  0
  144.6726  132.6945  151.5766 H   0  0  0  0  0  0  0  0  0  0  0  0
  144.8750  135.0938  149.6674 H   0  0  0  0  0  0  0  0  0  0  0  0
  144.1085  136.3367  150.5983 H   0  0  0  0  0  0  0  0  0  0  0  0
  146.2321  134.4022  151.6494 H   0  0  0  0  0  0  0  0  0  0  0  0
  146.4574  136.0966  151.3087 H   0  0  0  0  0  0  0  0  0  0  0  0
  144.8139  136.7238  153.0035 H   0  0  0  0  0  0  0  0  0  0  0  0
  148.0223  134.7995  154.8988 H   0  0  0  0  0  0  0  0  0  0  0  0
  148.0125  134.8215  153.1322 H   0  0  0  0  0  0  0  0  0  0  0  0
  146.9406  133.7354  154.0211 H   0  0  0  0  0  0  0  0  0  0  0  0
  145.9573  140.1471  153.7995 H   0  0  0  0  0  0  0  0  0  0  0  0
  150.1939  136.8996  157.4017 H   0  0  0  0  0  0  0  0  0  0  0  0
  149.0107  140.4397  157.4888 H   0  0  0  0  0  0  0  0  0  0  0  0
  150.1680  139.3262  158.1650 H   0  0  0  0  0  0  0  0  0  0  0  0
  150.4253  140.9431  155.5745 H   0  0  0  0  0  0  0  0  0  0  0  0
  152.2034  138.6186  156.4598 H   0  0  0  0  0  0  0  0  0  0  0  0
  151.1497  138.6523  155.0592 H   0  0  0  0  0  0  0  0  0  0  0  0
  152.4663  140.3739  154.2936 H   0  0  0  0  0  0  0  0  0  0  0  0
  152.6059  141.6932  156.5913 H   0  0  0  0  0  0  0  0  0  0  0  0
  150.8867  143.3586  156.9266 H   0  0  0  0  0  0  0  0  0  0  0  0
  150.0692  142.3417  158.1225 H   0  0  0  0  0  0  0  0  0  0  0  0
  152.8051  143.6568  158.3758 H   0  0  0  0  0  0  0  0  0  0  0  0
  151.4563  143.7624  159.5137 H   0  0  0  0  0  0  0  0  0  0  0  0
  151.6262  140.1149  158.9922 H   0  0  0  0  0  0  0  0  0  0  0  0
  153.2807  140.3345  158.4177 H   0  0  0  0  0  0  0  0  0  0  0  0
  144.4676  133.7752  153.6617 H   0  0  0  0  0  0  0  0  0  0  0  0
  143.7281  135.1243  154.4858 H   0  0  0  0  0  0  0  0  0  0  0  0
  142.6207  135.8288  152.3831 H   0  0  0  0  0  0  0  0  0  0  0  0
  141.2967  134.4537  153.8307 H   0  0  0  0  0  0  0  0  0  0  0  0
  142.0003  132.9703  153.2237 H   0  0  0  0  0  0  0  0  0  0  0  0
  140.9728  133.9557  152.1766 H   0  0  0  0  0  0  0  0  0  0  0  0
  142.6849  134.5555  150.5003 H   0  0  0  0  0  0  0  0  0  0  0  0
  1  2  1  0  0  0  0
  1 30  1  0  0  0  0
  1 31  1  0  0  0  0
  1 32  1  0  0  0  0
  2  3  1  0  0  0  0
  2 33  1  0  0  0  0
  2 34  1  0  0  0  0
  3 28  1  0  0  0  0
  3  4  1  0  0  0  0
  3 64  1  0  0  0  0
  4  5  1  0  0  0  0
  4 35  1  0  0  0  0
  4 36  1  0  0  0  0
  5  6  1  0  0  0  0
  5 37  1  0  0  0  0
  5 38  1  0  0  0  0
  6  7  1  0  0  0  0
  6 27  1  0  0  0  0
  6 39  1  0  0  0  0
  7  8  1  0  0  0  0
  7  9  1  0  0  0  0
  8 40  1  0  0  0  0
  8 41  1  0  0  0  0
  8 42  1  0  0  0  0
  9 14  1  0  0  0  0
  9 10  2  0  0  0  0
 10 11  1  0  0  0  0
 11 12  2  0  0  0  0
 11 43  1  0  0  0  0
 12 13  1  0  0  0  0
 13 17  1  0  0  0  0
 13 14  2  0  0  0  0
 14 15  1  0  0  0  0
 15 16  2  0  0  0  0
 16 17  1  0  0  0  0
 16 44  1  0  0  0  0
 17 18  1  0  0  0  0
 18 19  1  0  0  0  0
 18 45  1  0  0  0  0
 18 46  1  0  0  0  0
 19 20  1  0  0  0  0
 19 22  1  0  0  0  0
 19 47  1  0  0  0  0
 20 21  1  0  0  0  0
 20 48  1  0  0  0  0
 20 49  1  0  0  0  0
 21 50  1  0  0  0  0
 22 26  1  0  0  0  0
 22 23  1  0  0  0  0
 22 51  1  0  0  0  0
 23 24  1  0  0  0  0
 23 52  1  0  0  0  0
 23 53  1  0  0  0  0
 24 25  1  0  0  0  0
 24 54  1  0  0  0  0
 24 55  1  0  0  0  0
 25 26  1  0  0  0  0
 26 56  1  0  0  0  0
 26 57  1  0  0  0  0
 27 28  1  0  0  0  0
 27 58  1  0  0  0  0
 27 59  1  0  0  0  0
 28 29  1  0  0  0  0
 28 60  1  0  0  0  0
 29 61  1  0  0  0  0
 29 62  1  0  0  0  0
 29 63  1  0  0  0  0
M  CHG  1   3   1
M  END
> <s_m_source_file>
AV-unprocessed.smi

> <i_m_source_file_index>
249

> <i_lp_mmshare_version>
43012

> <i_f3d_flags>
0

> <s_epik_input>
W0NIM11bQ0gyXU4xW0NIMl1bQ0gyXVtDQEhdKFtDSDJdW0NASF0xW0NIM10pTihbQ0gzXSljKG5bY0hdbjIpYyhjMjMpbltjSF1uM1tDSDJdW0NASF0oW0NIMl1bT0hdKVtDQEBIXTRbQ0gyXVtDSDJdT1tDSDJdNA==

> <s_epik_cmdline>
J2VwaWtfcHl0aG9uJywgJy1waCcsICc3LjAnLCAnLXRuJywgJzgnLCAnLW1hJywgJzIwMCcsICctbWV0YWxfYmluZGluZycsICctaW1hZScsICc8aW5maWxlLm1hZT4nLCAnLW9tYWUnLCAnPG91dGZpbGUubWFlPic=

> <r_lp_tautomer_probability>
1

> <r_epik_Ionization_Penalty>
0.00294688

> <r_epik_Ionization_Penalty_Charging>
0.00169971

> <r_epik_Ionization_Penalty_Neutral>
0.00124717

> <r_epik_State_Penalty>
-0

> <r_epik_Charging_Adjusted_Penalty>
0.00169971

> <i_epik_Tot_Q>
1

> <i_epik_Tot_abs_Q>
1

> <r_epik_Metal_State_Penalty>
-0

> <b_epik_Metal_Only>
0

> <s_lp_Force_Field>
OPLS_2005

> <r_lp_Energy>
54.5526

> <b_lp_Chiralities_Consistent>
1

> <s_lp_Variant>
AV-unprocessed.smi:249-27

> <Gold.Version>
5.8.1

> <Gold.Id.Protein>
6NUR|6NUR_protein|mol2

> <Gold.PLP.Fitness>
49.3354

> <Gold.PLP.PLP>
-38.6452

> <Gold.PLP.part.hbond>
-3.0000

> <Gold.PLP.part.metal>
0.0000

> <Gold.PLP.part.buried>
-5.5108

> <Gold.PLP.part.nonpolar>
-30.9238

> <Gold.PLP.part.repulsive>
0.2631

> <Gold.PLP.ligand.clash>
0.0000

> <Gold.PLP.ligand.torsion>
1.2117

> <Gold.PLP.Chemscore.Hbond>
3.0000

> <Gold.PLP.Chemscore.CHOScore>
0.9990

> <Gold.PLP.Chemscore.Metal>
0.0000

> <Gold.Chemscore.Hbonds>
donor molecule, donor type, donor heavy atom, donor atom, acceptor molecule, acceptor atom, score
      L1  H     3    64       P1 10186  2.00
      P1  H  7997  8009       L1    21  1.00
      L1  C    11    43       P1 10175  0.70

> <Gold.PLP.Chemscore.Internal.Correction>
1.1166

> <Gold.Rescore>
     Score         DG    S(hbond)    S(metal)    S(lipo)     H(rot)  DE(clash)    DE(int)     intcor
     14.12     -16.69       1.83        0.00     101.48       2.65       0.16       2.41       ----

> <Gold.Chemscore.Fitness>
14.1204

> <Gold.Chemscore.DG>
-16.6875

> <Gold.Chemscore.ZeroCoef>
-5.4800

> <Gold.Chemscore.Hbond>
1.8330

> <Gold.Chemscore.Metal>
0.0000

> <Gold.Chemscore.Lipo>
101.4810

> <Gold.Chemscore.Internal_Hbond>
0.0000

> <Gold.Chemscore.DEClash>
0.1567

> <Gold.Chemscore.DEInternal>
2.4104

> <Gold.Chemscore.Rot>
2.6515

> <Gold.Chemscore.Internal.Correction>
   9.000000E+99

> <Gold.Chemscore.Hbonds>
donor molecule, donor type, donor heavy atom, donor atom, acceptor molecule, acceptor atom, score
      L1  H     3    64       P1 10186  0.35
      P1  H  7997  8009       L1    21  0.95

> <Gold.Chemscore.Hbond.Weighted>
-6.1222

> <Gold.Chemscore.Metal.Weighted>
-0.0000

> <Gold.Chemscore.Lipo.Weighted>
-11.8733

> <Gold.Chemscore.Internal_Hbond.Weighted>
0.0000

> <Gold.Chemscore.DEClash.Weighted>
0.1567

> <Gold.Chemscore.DEInternal.Weighted>
2.4104

> <Gold.Chemscore.Rot.Weighted>
6.7880

> <Gold.Chemscore.Internal.Correction.Weighted>
   9.000000E+99

> <Gold.Protein.RotatedTorsions>
[ 6907 6896 6895 6894 ] final   72.25 input  -60.11 | X-H torsion
[ 7974 7965 7964 7962 ] final  167.17 input  175.53 | X-H torsion
[ 8008 7997 7996 7995 ] final -136.09 input   59.86 | X-H torsion
[ 10167 10162 10161 10158 ] final  160.25 input  -65.29 | X-H torsion
[ 10718 10713 10712 10709 ] final   92.08 input   66.30 | X-H torsion
[ 10763 10752 10751 10750 ] final  -96.68 input  -60.55 | X-H torsion
[ 11005 11000 10999 10996 ] final -122.15 input  -57.11 | X-H torsion

> <Gold.Protein.ActiveResidues>
 VAL166  LYS551  ARG553  GLY616  TRP617  ASP618  TYR619  PRO620  LYS621  CYS622 
 ASP623  PHE694  ASN695  SER759  ASP760  ASP761  ALA762  ILE779  LEU786  VAL792 
 PHE793  MET794  SER795  GLU796  ALA797  LYS798  CYS799  TRP800  GLU811  SER814 

> <Gold.Protein.RotatedAtoms>
  152.4857  134.4599  159.9601 H   0  0  0  0  0  0  0  0  0  0  0  0  # atno 6907 bound_to 6896
  151.4596  133.3590  159.2815 H   0  0  0  0  0  0  0  0  0  0  0  0  # atno 6908 bound_to 6896
  150.8966  134.8399  159.7391 H   0  0  0  0  0  0  0  0  0  0  0  0  # atno 6909 bound_to 6896
  144.7434  139.8722  143.6390 H   0  0  0  0  0  0  0  0  0  0  0  0  # atno 7974 bound_to 7965
  155.3894  140.0499  157.3041 H   0  0  0  0  0  0  0  0  0  0  0  0  # atno 8008 bound_to 7997
  154.5043  140.2168  155.9243 H   0  0  0  0  0  0  0  0  0  0  0  0  # atno 8009 bound_to 7997
  156.1507  140.3136  155.8648 H   0  0  0  0  0  0  0  0  0  0  0  0  # atno 8010 bound_to 7997
  139.4838  144.4652  151.8652 H   0  0  0  0  0  0  0  0  0  0  0  0  # atno 10167 bound_to 10162
  157.6959  131.0430  150.3827 H   0  0  0  0  0  0  0  0  0  0  0  0  # atno 10718 bound_to 10713
  154.7261  135.5074  153.8889 H   0  0  0  0  0  0  0  0  0  0  0  0  # atno 10763 bound_to 10752
  153.0906  135.6658  153.9870 H   0  0  0  0  0  0  0  0  0  0  0  0  # atno 10764 bound_to 10752
  153.9682  135.3041  155.3408 H   0  0  0  0  0  0  0  0  0  0  0  0  # atno 10765 bound_to 10752
  141.0017  134.0393  157.3529 H   0  0  0  0  0  0  0  0  0  0  0  0  # atno 11005 bound_to 11000
  146.1272  139.4300  143.0191 LP  0  0  0  0  0  0  0  0  0  0  0  0  # atno 17320 bound_to 7965
  145.7217  141.0072  143.1399 LP  0  0  0  0  0  0  0  0  0  0  0  0  # atno 17321 bound_to 7965
  140.4116  144.2361  150.5889 LP  0  0  0  0  0  0  0  0  0  0  0  0  # atno 17342 bound_to 10162
  140.4960  143.2332  151.8748 LP  0  0  0  0  0  0  0  0  0  0  0  0  # atno 17343 bound_to 10162
  156.4239  130.3958  149.6806 LP  0  0  0  0  0  0  0  0  0  0  0  0  # atno 17370 bound_to 10713
  156.4047  130.7692  151.2702 LP  0  0  0  0  0  0  0  0  0  0  0  0  # atno 17371 bound_to 10713
  139.9042  135.0174  156.7410 LP  0  0  0  0  0  0  0  0  0  0  0  0  # atno 17394 bound_to 11000
  140.6878  133.9417  155.7948 LP  0  0  0  0  0  0  0  0  0  0  0  0  # atno 17395 bound_to 11000

$$$$
