AV-unprocessed.smi:2341|AV-procd|sdf|9353|dock7
  -GOLD-   2272012573D 1   1.00000     0.00000
 Structure written by MMmdl.
 52 54  0  0  0  0  0  0  0  0  2 V2000
  144.2107  132.3579  150.0448 C   0  0  0  0  0  0  0  0  0  0  0  0
  144.4905  133.5212  150.9732 C   0  0  0  0  0  0  0  0  0  0  0  0
  143.7525  133.7049  152.1579 C   0  0  0  0  0  0  0  0  0  0  0  0
  144.0557  134.8059  152.9820 C   0  0  0  0  0  0  0  0  0  0  0  0
  145.0864  135.6954  152.6036 C   0  0  0  0  0  0  0  0  0  0  0  0
  145.3118  136.7722  153.5023 N   0  0  0  0  0  0  0  0  0  0  0  0
  145.8991  137.9555  153.2505 C   0  0  0  0  0  0  0  0  0  0  0  0
  146.3599  138.3067  152.1638 O   0  0  0  0  0  0  0  0  0  0  0  0
  145.9272  138.7280  154.3468 N   0  0  0  0  0  0  0  0  0  0  0  0
  146.4827  140.0769  154.4072 C   0  0  2  0  0  0  0  0  0  0  0  0
  147.9057  140.1144  153.8152 C   0  0  0  0  0  0  0  0  0  0  0  0
  148.5653  141.4943  154.0167 C   0  0  0  0  0  0  0  0  0  0  0  0
  148.5767  141.9140  155.4487 N   0  3  2  0  0  0  0  0  0  0  0  0
  149.5871  141.2000  156.3025 C   0  0  0  0  0  0  0  0  0  0  0  0
  149.9363  141.9650  157.6084 C   0  0  0  0  0  0  0  0  0  0  0  0
  151.0110  141.2510  158.4434 C   0  0  0  0  0  0  0  0  0  0  0  0
  152.2861  141.0134  157.6277 C   0  0  0  0  0  0  0  0  0  0  0  0
  151.9661  140.2282  156.3514 C   0  0  0  0  0  0  0  0  0  0  0  0
  150.8956  140.9410  155.5101 C   0  0  0  0  0  0  0  0  0  0  0  0
  147.1777  141.9488  155.9641 C   0  0  0  0  0  0  0  0  0  0  0  0
  146.4998  140.5698  155.8639 C   0  0  0  0  0  0  0  0  0  0  0  0
  145.7919  135.5095  151.4602 N   0  0  0  0  0  0  0  0  0  0  0  0
  145.5010  134.4541  150.6710 C   0  0  0  0  0  0  0  0  0  0  0  0
  143.4711  131.6796  150.4710 H   0  0  0  0  0  0  0  0  0  0  0  0
  145.1247  131.7930  149.8595 H   0  0  0  0  0  0  0  0  0  0  0  0
  143.8313  132.7217  149.0897 H   0  0  0  0  0  0  0  0  0  0  0  0
  142.9666  133.0173  152.4343 H   0  0  0  0  0  0  0  0  0  0  0  0
  143.4991  134.9613  153.8950 H   0  0  0  0  0  0  0  0  0  0  0  0
  144.9843  136.6244  154.4452 H   0  0  0  0  0  0  0  0  0  0  0  0
  145.5266  138.3599  155.1973 H   0  0  0  0  0  0  0  0  0  0  0  0
  145.8444  140.7504  153.8316 H   0  0  0  0  0  0  0  0  0  0  0  0
  148.5203  139.3352  154.2663 H   0  0  0  0  0  0  0  0  0  0  0  0
  147.8695  139.8861  152.7493 H   0  0  0  0  0  0  0  0  0  0  0  0
  149.5602  141.5036  153.5777 H   0  0  0  0  0  0  0  0  0  0  0  0
  148.0016  142.2387  153.4526 H   0  0  0  0  0  0  0  0  0  0  0  0
  149.1705  140.2380  156.6001 H   0  0  0  0  0  0  0  0  0  0  0  0
  150.2750  142.9740  157.3684 H   0  0  0  0  0  0  0  0  0  0  0  0
  149.0592  142.0687  158.2466 H   0  0  0  0  0  0  0  0  0  0  0  0
  151.2437  141.8408  159.3307 H   0  0  0  0  0  0  0  0  0  0  0  0
  150.6219  140.2966  158.8009 H   0  0  0  0  0  0  0  0  0  0  0  0
  152.7432  141.9694  157.3691 H   0  0  0  0  0  0  0  0  0  0  0  0
  153.0178  140.4706  158.2270 H   0  0  0  0  0  0  0  0  0  0  0  0
  152.8739  140.0954  155.7621 H   0  0  0  0  0  0  0  0  0  0  0  0
  151.6196  139.2274  156.6136 H   0  0  0  0  0  0  0  0  0  0  0  0
  150.7148  140.3260  154.6305 H   0  0  0  0  0  0  0  0  0  0  0  0
  151.2962  141.8877  155.1444 H   0  0  0  0  0  0  0  0  0  0  0  0
  147.1198  142.3487  156.9749 H   0  0  0  0  0  0  0  0  0  0  0  0
  146.6141  142.6611  155.3597 H   0  0  0  0  0  0  0  0  0  0  0  0
  145.4795  140.6352  156.2439 H   0  0  0  0  0  0  0  0  0  0  0  0
  147.0185  139.8514  156.5001 H   0  0  0  0  0  0  0  0  0  0  0  0
  146.0922  134.3531  149.7726 H   0  0  0  0  0  0  0  0  0  0  0  0
  148.8794  142.8778  155.4518 H   0  0  0  0  0  0  0  0  0  0  0  0
  1  2  1  0  0  0  0
  1 24  1  0  0  0  0
  1 25  1  0  0  0  0
  1 26  1  0  0  0  0
  2 23  1  0  0  0  0
  2  3  2  0  0  0  0
  3  4  1  0  0  0  0
  3 27  1  0  0  0  0
  4  5  2  0  0  0  0
  4 28  1  0  0  0  0
  5  6  1  0  0  0  0
  5 22  1  0  0  0  0
  6  7  1  0  0  0  0
  6 29  1  0  0  0  0
  7  8  2  0  0  0  0
  7  9  1  0  0  0  0
  9 10  1  0  0  0  0
  9 30  1  0  0  0  0
 10 21  1  0  0  0  0
 10 11  1  0  0  0  0
 10 31  1  0  0  0  0
 11 12  1  0  0  0  0
 11 32  1  0  0  0  0
 11 33  1  0  0  0  0
 12 13  1  0  0  0  0
 12 34  1  0  0  0  0
 12 35  1  0  0  0  0
 13 14  1  0  0  0  0
 13 20  1  0  0  0  0
 13 52  1  0  0  0  0
 14 19  1  0  0  0  0
 14 15  1  0  0  0  0
 14 36  1  0  0  0  0
 15 16  1  0  0  0  0
 15 37  1  0  0  0  0
 15 38  1  0  0  0  0
 16 17  1  0  0  0  0
 16 39  1  0  0  0  0
 16 40  1  0  0  0  0
 17 18  1  0  0  0  0
 17 41  1  0  0  0  0
 17 42  1  0  0  0  0
 18 19  1  0  0  0  0
 18 43  1  0  0  0  0
 18 44  1  0  0  0  0
 19 45  1  0  0  0  0
 19 46  1  0  0  0  0
 20 21  1  0  0  0  0
 20 47  1  0  0  0  0
 20 48  1  0  0  0  0
 21 49  1  0  0  0  0
 21 50  1  0  0  0  0
 22 23  2  0  0  0  0
 23 51  1  0  0  0  0
M  CHG  1  13   1
M  END
> <s_m_source_file>
AV-unprocessed.smi

> <i_m_source_file_index>
2341

> <i_lp_mmshare_version>
43012

> <i_f3d_flags>
0

> <s_epik_input>
W0NIM11jMVtjSF1bY0hdYyhuW2NIXTEpW05IXUMoPU8pW05IXVtDSF0yW0NIMl1bQ0gyXU4oW0NIMl1bQ0gyXTIpW0NIXTNbQ0gyXVtDSDJdW0NIMl1bQ0gyXVtDSDJdMw==

> <s_epik_cmdline>
J2VwaWtfcHl0aG9uJywgJy1waCcsICc3LjAnLCAnLXRuJywgJzgnLCAnLW1hJywgJzIwMCcsICctbWV0YWxfYmluZGluZycsICctaW1hZScsICc8aW5maWxlLm1hZT4nLCAnLW9tYWUnLCAnPG91dGZpbGUubWFlPic=

> <r_epik_Ionization_Penalty>
0.00176486

> <r_epik_Ionization_Penalty_Charging>
0.00171891

> <r_epik_Ionization_Penalty_Neutral>
4.59494e-05

> <r_epik_State_Penalty>
0.00116222

> <r_epik_Charging_Adjusted_Penalty>
0.00288114

> <i_epik_Tot_Q>
1

> <i_epik_Tot_abs_Q>
1

> <r_epik_Metal_State_Penalty>
-0

> <b_epik_Metal_Only>
0

> <s_lp_Force_Field>
OPLS_2005

> <r_lp_Energy>
32.471

> <b_lp_Chiralities_Consistent>
1

> <s_lp_Variant>
AV-unprocessed.smi:2341-2

> <Gold.Version>
5.8.1

> <Gold.Id.Protein>
6NUR|6NUR_protein|mol2

> <Gold.PLP.Fitness>
42.1533

> <Gold.PLP.PLP>
-34.0358

> <Gold.PLP.part.hbond>
-1.4947

> <Gold.PLP.part.metal>
0.0000

> <Gold.PLP.part.buried>
-2.2367

> <Gold.PLP.part.nonpolar>
-30.1866

> <Gold.PLP.part.repulsive>
0.6445

> <Gold.PLP.ligand.clash>
0.0000

> <Gold.PLP.ligand.torsion>
0.4688

> <Gold.PLP.Chemscore.Hbond>
2.0000

> <Gold.PLP.Chemscore.CHOScore>
1.0000

> <Gold.PLP.Chemscore.Metal>
0.0000

> <Gold.Chemscore.Hbonds>
donor molecule, donor type, donor heavy atom, donor atom, acceptor molecule, acceptor atom, score
      L1  H    13    52       P1  8028  2.00
      L1  C    23    51       P1  7921  1.00

> <Gold.PLP.Chemscore.Internal.Correction>
0.0550

> <Gold.Rescore>
     Score         DG    S(hbond)    S(metal)    S(lipo)     H(rot)  DE(clash)    DE(int)     intcor
     13.43     -16.54       1.00        0.00      92.21       1.19       0.11       3.00       ----

> <Gold.Chemscore.Fitness>
13.4316

> <Gold.Chemscore.DG>
-16.5414

> <Gold.Chemscore.ZeroCoef>
-5.4800

> <Gold.Chemscore.Hbond>
0.9953

> <Gold.Chemscore.Metal>
0.0000

> <Gold.Chemscore.Lipo>
92.2062

> <Gold.Chemscore.Internal_Hbond>
0.0000

> <Gold.Chemscore.DEClash>
0.1096

> <Gold.Chemscore.DEInternal>
3.0002

> <Gold.Chemscore.Rot>
1.1918

> <Gold.Chemscore.Internal.Correction>
   9.000000E+99

> <Gold.Chemscore.Hbonds>
donor molecule, donor type, donor heavy atom, donor atom, acceptor molecule, acceptor atom, score
      L1  H    13    52       P1  8028  1.00

> <Gold.Chemscore.Hbond.Weighted>
-3.3244

> <Gold.Chemscore.Metal.Weighted>
-0.0000

> <Gold.Chemscore.Lipo.Weighted>
-10.7881

> <Gold.Chemscore.Internal_Hbond.Weighted>
0.0000

> <Gold.Chemscore.DEClash.Weighted>
0.1096

> <Gold.Chemscore.DEInternal.Weighted>
3.0002

> <Gold.Chemscore.Rot.Weighted>
3.0511

> <Gold.Chemscore.Internal.Correction.Weighted>
   9.000000E+99

> <Gold.Protein.RotatedTorsions>
[ 6907 6896 6895 6894 ] final  167.23 input  -60.11 | X-H torsion
[ 7974 7965 7964 7962 ] final -118.32 input  175.53 | X-H torsion
[ 8008 7997 7996 7995 ] final -176.76 input   59.86 | X-H torsion
[ 10167 10162 10161 10158 ] final -103.85 input  -65.29 | X-H torsion
[ 10718 10713 10712 10709 ] final  169.97 input   66.30 | X-H torsion
[ 10763 10752 10751 10750 ] final  156.83 input  -60.55 | X-H torsion
[ 11005 11000 10999 10996 ] final -168.08 input  -57.11 | X-H torsion

> <Gold.Protein.ActiveResidues>
 VAL166  LYS551  ARG553  GLY616  TRP617  ASP618  TYR619  PRO620  LYS621  CYS622 
 ASP623  PHE694  ASN695  SER759  ASP760  ASP761  ALA762  ILE779  LEU786  VAL792 
 PHE793  MET794  SER795  GLU796  ALA797  LYS798  CYS799  TRP800  GLU811  SER814 

> <Gold.Protein.RotatedAtoms>
  151.8665  133.3467  159.3720 H   0  0  0  0  0  0  0  0  0  0  0  0  # atno 6907 bound_to 6896
  150.7164  134.5154  159.5637 H   0  0  0  0  0  0  0  0  0  0  0  0  # atno 6908 bound_to 6896
  152.2679  134.7965  160.0470 H   0  0  0  0  0  0  0  0  0  0  0  0  # atno 6909 bound_to 6896
  145.0752  140.8387  143.4072 H   0  0  0  0  0  0  0  0  0  0  0  0  # atno 7974 bound_to 7965
  155.9988  140.1216  157.0568 H   0  0  0  0  0  0  0  0  0  0  0  0  # atno 8008 bound_to 7997
  154.4235  140.1111  156.5736 H   0  0  0  0  0  0  0  0  0  0  0  0  # atno 8009 bound_to 7997
  155.6241  140.3472  155.4664 H   0  0  0  0  0  0  0  0  0  0  0  0  # atno 8010 bound_to 7997
  140.2156  143.3714  152.1013 H   0  0  0  0  0  0  0  0  0  0  0  0  # atno 10167 bound_to 10162
  157.0149  131.0215  151.2792 H   0  0  0  0  0  0  0  0  0  0  0  0  # atno 10718 bound_to 10713
  154.1906  135.2795  155.3023 H   0  0  0  0  0  0  0  0  0  0  0  0  # atno 10763 bound_to 10752
  154.5932  135.5553  153.7303 H   0  0  0  0  0  0  0  0  0  0  0  0  # atno 10764 bound_to 10752
  153.0113  135.6373  154.2044 H   0  0  0  0  0  0  0  0  0  0  0  0  # atno 10765 bound_to 10752
  140.5460  134.5475  157.5111 H   0  0  0  0  0  0  0  0  0  0  0  0  # atno 11005 bound_to 11000
  145.1244  139.2672  143.5571 LP  0  0  0  0  0  0  0  0  0  0  0  0  # atno 17320 bound_to 7965
  146.3530  140.0877  142.8614 LP  0  0  0  0  0  0  0  0  0  0  0  0  # atno 17321 bound_to 7965
  139.5163  144.6976  151.5587 LP  0  0  0  0  0  0  0  0  0  0  0  0  # atno 17342 bound_to 10162
  140.6292  143.9109  150.6591 LP  0  0  0  0  0  0  0  0  0  0  0  0  # atno 17343 bound_to 10162
  157.5293  130.8048  149.7898 LP  0  0  0  0  0  0  0  0  0  0  0  0  # atno 17370 bound_to 10713
  156.0123  130.3828  150.2225 LP  0  0  0  0  0  0  0  0  0  0  0  0  # atno 17371 bound_to 10713
  139.9479  134.7669  156.0517 LP  0  0  0  0  0  0  0  0  0  0  0  0  # atno 17394 bound_to 11000
  141.1199  133.6616  156.3189 LP  0  0  0  0  0  0  0  0  0  0  0  0  # atno 17395 bound_to 11000

$$$$
