AV-unprocessed.smi:3324|AV-procd|sdf|12781|dock9
  -GOLD-   2272019123D 1   1.00000     0.00000
 Structure written by MMmdl.
 31 31  0  0  0  0  0  0  0  0  2 V2000
  144.7620  136.9425  153.2798 O   0  0  0  0  0  0  0  0  0  0  0  0
  145.8277  137.0869  152.6798 C   0  0  0  0  0  0  0  0  0  0  0  0
  146.4949  138.4610  152.5897 C   0  0  0  0  0  0  0  0  0  0  0  0
  147.9450  138.4010  152.8677 N   0  3  0  0  0  0  0  0  0  0  0  0
  148.3179  138.8535  154.2213 C   0  0  0  0  0  0  0  0  0  0  0  0
  148.5843  140.3657  154.2427 C   0  0  0  0  0  0  0  0  0  0  0  0
  149.5512  140.7269  155.2612 N   0  0  0  0  0  0  0  0  0  0  0  0
  149.4289  141.6578  156.2713 C   0  0  0  0  0  0  0  0  0  0  0  0
  150.5986  141.6474  156.9760 C   0  0  0  0  0  0  0  0  0  0  0  0
  151.3859  140.6664  156.3109 C   0  0  0  0  0  0  0  0  0  0  0  0
  150.7558  140.1172  155.2846 N   0  0  0  0  0  0  0  0  0  0  0  0
  146.4733  136.0796  152.0734 N   0  0  0  0  0  0  0  0  0  0  0  0
  146.0090  134.6966  152.0151 C   0  0  0  0  0  0  0  0  0  0  0  0
  144.6495  134.5749  151.3059 C   0  0  0  0  0  0  0  0  0  0  0  0
  144.6670  135.3145  150.1979 F   0  0  0  0  0  0  0  0  0  0  0  0
  144.3999  133.3094  150.9694 F   0  0  0  0  0  0  0  0  0  0  0  0
  143.6750  135.0177  152.1007 F   0  0  0  0  0  0  0  0  0  0  0  0
  146.3332  138.8697  151.5914 H   0  0  0  0  0  0  0  0  0  0  0  0
  146.0177  139.1353  153.3024 H   0  0  0  0  0  0  0  0  0  0  0  0
  148.2511  137.4453  152.7511 H   0  0  0  0  0  0  0  0  0  0  0  0
  147.5160  138.6062  154.9182 H   0  0  0  0  0  0  0  0  0  0  0  0
  149.2066  138.3098  154.5449 H   0  0  0  0  0  0  0  0  0  0  0  0
  148.9596  140.7028  153.2750 H   0  0  0  0  0  0  0  0  0  0  0  0
  147.6595  140.9125  154.4323 H   0  0  0  0  0  0  0  0  0  0  0  0
  148.5311  142.2436  156.4042 H   0  0  0  0  0  0  0  0  0  0  0  0
  150.8542  142.2499  157.8352 H   0  0  0  0  0  0  0  0  0  0  0  0
  152.3891  140.3391  156.5413 H   0  0  0  0  0  0  0  0  0  0  0  0
  147.3427  136.2845  151.6019 H   0  0  0  0  0  0  0  0  0  0  0  0
  146.7569  134.1169  151.4731 H   0  0  0  0  0  0  0  0  0  0  0  0
  145.9559  134.2657  153.0164 H   0  0  0  0  0  0  0  0  0  0  0  0
  148.4235  138.9749  152.1880 H   0  0  0  0  0  0  0  0  0  0  0  0
  1  2  2  0  0  0  0
  2  3  1  0  0  0  0
  2 12  1  0  0  0  0
  3  4  1  0  0  0  0
  3 18  1  0  0  0  0
  3 19  1  0  0  0  0
  4  5  1  0  0  0  0
  4 20  1  0  0  0  0
  4 31  1  0  0  0  0
  5  6  1  0  0  0  0
  5 21  1  0  0  0  0
  5 22  1  0  0  0  0
  6  7  1  0  0  0  0
  6 23  1  0  0  0  0
  6 24  1  0  0  0  0
  7 11  1  0  0  0  0
  7  8  1  0  0  0  0
  8  9  2  0  0  0  0
  8 25  1  0  0  0  0
  9 10  1  0  0  0  0
  9 26  1  0  0  0  0
 10 11  2  0  0  0  0
 10 27  1  0  0  0  0
 12 13  1  0  0  0  0
 12 28  1  0  0  0  0
 13 14  1  0  0  0  0
 13 29  1  0  0  0  0
 13 30  1  0  0  0  0
 14 15  1  0  0  0  0
 14 16  1  0  0  0  0
 14 17  1  0  0  0  0
M  CHG  1   4   1
M  END
> <s_m_source_file>
AV-unprocessed.smi

> <i_m_source_file_index>
3324

> <i_lp_mmshare_version>
43012

> <i_f3d_flags>
0

> <s_epik_input>
RkMoRikoRilbQ0gyXVtOSF1DKD1PKVtDSDJdW05IXVtDSDJdW0NIMl1uMVtjSF1bY0hdW2NIXW4x

> <s_epik_cmdline>
J2VwaWtfcHl0aG9uJywgJy1waCcsICc3LjAnLCAnLXRuJywgJzgnLCAnLW1hJywgJzIwMCcsICctbWV0YWxfYmluZGluZycsICctaW1hZScsICc8aW5maWxlLm1hZT4nLCAnLW9tYWUnLCAnPG91dGZpbGUubWFlPic=

> <r_lp_tautomer_probability>
1

> <r_epik_Ionization_Penalty>
0.310414

> <r_epik_Ionization_Penalty_Charging>
0.310394

> <r_epik_Ionization_Penalty_Neutral>
2.02819e-05

> <r_epik_State_Penalty>
0.304907

> <r_epik_Charging_Adjusted_Penalty>
0.6153

> <i_epik_Tot_Q>
1

> <i_epik_Tot_abs_Q>
1

> <r_epik_Metal_State_Penalty>
0.315528

> <b_epik_Metal_Only>
0

> <s_lp_Force_Field>
OPLS_2005

> <r_lp_Energy>
1.82642

> <b_lp_Chiralities_Consistent>
1

> <s_lp_Variant>
AV-unprocessed.smi:3324-1

> <Gold.Version>
5.8.1

> <Gold.Id.Protein>
6NUR|6NUR_protein|mol2

> <Gold.PLP.Fitness>
47.8622

> <Gold.PLP.PLP>
-33.1620

> <Gold.PLP.part.hbond>
-4.0000

> <Gold.PLP.part.metal>
0.0000

> <Gold.PLP.part.buried>
-2.1793

> <Gold.PLP.part.nonpolar>
-26.3057

> <Gold.PLP.part.repulsive>
0.3039

> <Gold.PLP.ligand.clash>
0.0000

> <Gold.PLP.ligand.torsion>
1.0383

> <Gold.PLP.Chemscore.Hbond>
4.7520

> <Gold.PLP.Chemscore.CHOScore>
0.8109

> <Gold.PLP.Chemscore.Metal>
0.0000

> <Gold.Chemscore.Hbonds>
donor molecule, donor type, donor heavy atom, donor atom, acceptor molecule, acceptor atom, score
      L1  H     4    20       P1  7948  2.00
      L1  H     4    31       P1  7957  1.00
      L1  H    12    28       P1  7948  0.83
      P1  H  7989  7998       L1    11  0.76
      L1  C     8    25       P1  8028  0.53

> <Gold.PLP.Chemscore.Internal.Correction>
0.0880

> <Gold.Rescore>
     Score         DG    S(hbond)    S(metal)    S(lipo)     H(rot)  DE(clash)    DE(int)     intcor
     13.02     -16.04       3.81        0.00      45.11       2.91       0.19       2.82       ----

> <Gold.Chemscore.Fitness>
13.0212

> <Gold.Chemscore.DG>
-16.0356

> <Gold.Chemscore.ZeroCoef>
-5.4800

> <Gold.Chemscore.Hbond>
3.8099

> <Gold.Chemscore.Metal>
0.0000

> <Gold.Chemscore.Lipo>
45.1102

> <Gold.Chemscore.Internal_Hbond>
0.0000

> <Gold.Chemscore.DEClash>
0.1897

> <Gold.Chemscore.DEInternal>
2.8247

> <Gold.Chemscore.Rot>
2.9091

> <Gold.Chemscore.Internal.Correction>
   9.000000E+99

> <Gold.Chemscore.Hbonds>
donor molecule, donor type, donor heavy atom, donor atom, acceptor molecule, acceptor atom, score
      L1  H     4    20       P1  7948  0.95
      L1  H     4    31       P1  7957  0.99
      L1  H    12    28       P1  7948  0.82
      P1  H  7989  7998       L1    11  0.15

> <Gold.Chemscore.Hbond.Weighted>
-12.7249

> <Gold.Chemscore.Metal.Weighted>
-0.0000

> <Gold.Chemscore.Lipo.Weighted>
-5.2779

> <Gold.Chemscore.Internal_Hbond.Weighted>
0.0000

> <Gold.Chemscore.DEClash.Weighted>
0.1897

> <Gold.Chemscore.DEInternal.Weighted>
2.8247

> <Gold.Chemscore.Rot.Weighted>
7.4472

> <Gold.Chemscore.Internal.Correction.Weighted>
   9.000000E+99

> <Gold.Protein.RotatedTorsions>
[ 6907 6896 6895 6894 ] final -166.89 input  -60.11 | X-H torsion
[ 7974 7965 7964 7962 ] final   53.30 input  175.53 | X-H torsion
[ 8008 7997 7996 7995 ] final   33.38 input   59.86 | X-H torsion
[ 10167 10162 10161 10158 ] final  116.34 input  -65.29 | X-H torsion
[ 10718 10713 10712 10709 ] final  -81.85 input   66.30 | X-H torsion
[ 10763 10752 10751 10750 ] final    5.63 input  -60.55 | X-H torsion
[ 11005 11000 10999 10996 ] final -121.02 input  -57.11 | X-H torsion

> <Gold.Protein.ActiveResidues>
 VAL166  LYS551  ARG553  GLY616  TRP617  ASP618  TYR619  PRO620  LYS621  CYS622 
 ASP623  PHE694  ASN695  SER759  ASP760  ASP761  ALA762  ILE779  LEU786  VAL792 
 PHE793  MET794  SER795  GLU796  ALA797  LYS798  CYS799  TRP800  GLU811  SER814 

> <Gold.Protein.RotatedAtoms>
  151.4509  133.3618  159.2794 H   0  0  0  0  0  0  0  0  0  0  0  0  # atno 6907 bound_to 6896
  150.9092  134.8509  159.7424 H   0  0  0  0  0  0  0  0  0  0  0  0  # atno 6908 bound_to 6896
  152.4923  134.4437  159.9604 H   0  0  0  0  0  0  0  0  0  0  0  0  # atno 6909 bound_to 6896
  145.9725  139.4163  143.0181 H   0  0  0  0  0  0  0  0  0  0  0  0  # atno 7974 bound_to 7965
  155.1376  140.3263  155.4459 H   0  0  0  0  0  0  0  0  0  0  0  0  # atno 8008 bound_to 7997
  156.2615  140.1999  156.6443 H   0  0  0  0  0  0  0  0  0  0  0  0  # atno 8009 bound_to 7997
  154.6566  140.0552  157.0002 H   0  0  0  0  0  0  0  0  0  0  0  0  # atno 8010 bound_to 7997
  139.6254  144.7107  151.2545 H   0  0  0  0  0  0  0  0  0  0  0  0  # atno 10167 bound_to 10162
  156.0043  130.4616  150.4015 H   0  0  0  0  0  0  0  0  0  0  0  0  # atno 10718 bound_to 10713
  153.2572  135.6919  153.7617 H   0  0  0  0  0  0  0  0  0  0  0  0  # atno 10763 bound_to 10752
  153.6689  135.3347  155.3149 H   0  0  0  0  0  0  0  0  0  0  0  0  # atno 10764 bound_to 10752
  154.8417  135.4495  154.1549 H   0  0  0  0  0  0  0  0  0  0  0  0  # atno 10765 bound_to 10752
  141.0101  134.0277  157.3425 H   0  0  0  0  0  0  0  0  0  0  0  0  # atno 11005 bound_to 11000
  145.7885  140.9825  143.1061 LP  0  0  0  0  0  0  0  0  0  0  0  0  # atno 17320 bound_to 7965
  144.6840  139.9653  143.7481 LP  0  0  0  0  0  0  0  0  0  0  0  0  # atno 17321 bound_to 7965
  140.7407  143.6578  150.8191 LP  0  0  0  0  0  0  0  0  0  0  0  0  # atno 17342 bound_to 10162
  140.0195  143.5557  152.2806 LP  0  0  0  0  0  0  0  0  0  0  0  0  # atno 17343 bound_to 10162
  157.2084  131.0454  151.2613 LP  0  0  0  0  0  0  0  0  0  0  0  0  # atno 17370 bound_to 10713
  157.3912  130.7283  149.6698 LP  0  0  0  0  0  0  0  0  0  0  0  0  # atno 17371 bound_to 10713
  139.9085  135.0185  156.7590 LP  0  0  0  0  0  0  0  0  0  0  0  0  # atno 17394 bound_to 11000
  140.6748  133.9527  155.7877 LP  0  0  0  0  0  0  0  0  0  0  0  0  # atno 17395 bound_to 11000

$$$$
