AV-unprocessed.smi:1005|AV-procd|sdf|4368|dock2
  -GOLD-   22720 2273D 1   1.00000     0.00000
 Structure written by MMmdl.
 57 59  0  0  0  0  0  0  0  0  3 V2000
  152.9894  142.8725  161.6933 C   0  0  0  0  0  0  0  0  0  0  0  0
  152.4400  142.6037  160.3033 C   0  0  0  0  0  0  0  0  0  0  0  0
  152.7725  141.3929  159.6552 C   0  0  0  0  0  0  0  0  0  0  0  0
  152.2830  141.1054  158.3624 C   0  0  0  0  0  0  0  0  0  0  0  0
  152.4799  140.0010  157.5512 N   0  0  0  0  0  0  0  0  0  0  0  0
  151.7660  140.3254  156.4777 C   0  0  0  0  0  0  0  0  0  0  0  0
  151.1315  141.5133  156.4949 N   0  0  0  0  0  0  0  0  0  0  0  0
  150.3040  142.0766  155.4427 C   0  0  0  0  0  0  0  0  0  0  0  0
  149.4024  141.0212  154.7741 C   0  0  2  0  0  0  0  0  0  0  0  0
  149.9086  140.7183  153.4884 O   0  0  0  0  0  0  0  0  0  0  0  0
  147.9532  141.5242  154.6233 C   0  0  0  0  0  0  0  0  0  0  0  0
  147.4264  142.1228  155.8798 N   0  3  2  0  0  0  0  0  0  0  0  0
  147.8021  141.3717  157.1020 C   0  0  0  0  0  0  0  0  0  0  0  0
  146.9183  140.1260  157.2813 C   0  0  0  0  0  0  0  0  0  0  0  0
  145.5524  140.5217  157.3213 O   0  0  0  0  0  0  0  0  0  0  0  0
  145.1242  141.1384  156.1111 C   0  0  1  0  0  0  0  0  0  0  0  0
  143.6269  141.4728  156.2532 C   0  0  0  0  0  0  0  0  0  0  0  0
  143.0289  141.9992  154.9992 N   0  3  0  0  0  0  0  0  0  0  0  0
  143.3384  143.4267  154.7509 C   0  0  0  0  0  0  0  0  0  0  0  0
  141.5732  141.7418  154.9278 C   0  0  0  0  0  0  0  0  0  0  0  0
  145.9687  142.4120  155.8728 C   0  0  0  0  0  0  0  0  0  0  0  0
  151.4439  142.0695  157.7309 C   0  0  0  0  0  0  0  0  0  0  0  0
  151.1062  143.2781  158.3652 C   0  0  0  0  0  0  0  0  0  0  0  0
  151.6041  143.5496  159.6569 C   0  0  0  0  0  0  0  0  0  0  0  0
  151.2339  144.8576  160.3335 C   0  0  0  0  0  0  0  0  0  0  0  0
  153.6095  142.0466  162.0432 H   0  0  0  0  0  0  0  0  0  0  0  0
  152.1758  143.0048  162.4067 H   0  0  0  0  0  0  0  0  0  0  0  0
  153.6020  143.7740  161.6945 H   0  0  0  0  0  0  0  0  0  0  0  0
  153.4093  140.6723  160.1474 H   0  0  0  0  0  0  0  0  0  0  0  0
  151.7026  139.6624  155.6272 H   0  0  0  0  0  0  0  0  0  0  0  0
  149.6953  142.8702  155.8782 H   0  0  0  0  0  0  0  0  0  0  0  0
  150.9520  142.5521  154.7050 H   0  0  0  0  0  0  0  0  0  0  0  0
  149.4311  140.1118  155.3736 H   0  0  0  0  0  0  0  0  0  0  0  0
  149.2849  140.1654  153.0413 H   0  0  0  0  0  0  0  0  0  0  0  0
  147.8841  142.2439  153.8079 H   0  0  0  0  0  0  0  0  0  0  0  0
  147.3287  140.6792  154.3287 H   0  0  0  0  0  0  0  0  0  0  0  0
  148.8585  141.1011  157.0816 H   0  0  0  0  0  0  0  0  0  0  0  0
  147.6736  142.0301  157.9623 H   0  0  0  0  0  0  0  0  0  0  0  0
  147.0822  139.4034  156.4805 H   0  0  0  0  0  0  0  0  0  0  0  0
  147.1659  139.6239  158.2167 H   0  0  0  0  0  0  0  0  0  0  0  0
  145.2684  140.4480  155.2808 H   0  0  0  0  0  0  0  0  0  0  0  0
  143.1019  140.5635  156.5503 H   0  0  0  0  0  0  0  0  0  0  0  0
  143.4691  142.1932  157.0574 H   0  0  0  0  0  0  0  0  0  0  0  0
  142.9451  144.0569  155.5497 H   0  0  0  0  0  0  0  0  0  0  0  0
  142.8938  143.7567  153.8113 H   0  0  0  0  0  0  0  0  0  0  0  0
  144.4111  143.6000  154.6755 H   0  0  0  0  0  0  0  0  0  0  0  0
  141.0445  142.2585  155.7301 H   0  0  0  0  0  0  0  0  0  0  0  0
  141.3624  140.6749  155.0101 H   0  0  0  0  0  0  0  0  0  0  0  0
  141.1662  142.0831  153.9753 H   0  0  0  0  0  0  0  0  0  0  0  0
  145.7700  143.1310  156.6689 H   0  0  0  0  0  0  0  0  0  0  0  0
  145.6732  142.9005  154.9449 H   0  0  0  0  0  0  0  0  0  0  0  0
  150.4703  143.9910  157.8616 H   0  0  0  0  0  0  0  0  0  0  0  0
  150.5817  145.4617  159.7019 H   0  0  0  0  0  0  0  0  0  0  0  0
  152.1283  145.4429  160.5475 H   0  0  0  0  0  0  0  0  0  0  0  0
  150.7100  144.6686  161.2707 H   0  0  0  0  0  0  0  0  0  0  0  0
  143.4394  141.4723  154.2408 H   0  0  0  0  0  0  0  0  0  0  0  0
  147.8991  143.0134  155.9522 H   0  0  0  0  0  0  0  0  0  0  0  0
  1  2  1  0  0  0  0
  1 26  1  0  0  0  0
  1 27  1  0  0  0  0
  1 28  1  0  0  0  0
  2 24  1  0  0  0  0
  2  3  2  0  0  0  0
  3  4  1  0  0  0  0
  3 29  1  0  0  0  0
  4 22  2  0  0  0  0
  4  5  1  0  0  0  0
  5  6  2  0  0  0  0
  6  7  1  0  0  0  0
  6 30  1  0  0  0  0
  7  8  1  0  0  0  0
  7 22  1  0  0  0  0
  8  9  1  0  0  0  0
  8 31  1  0  0  0  0
  8 32  1  0  0  0  0
  9 10  1  0  0  0  0
  9 11  1  0  0  0  0
  9 33  1  0  0  0  0
 10 34  1  0  0  0  0
 11 12  1  0  0  0  0
 11 35  1  0  0  0  0
 11 36  1  0  0  0  0
 12 21  1  0  0  0  0
 12 13  1  0  0  0  0
 12 57  1  0  0  0  0
 13 14  1  0  0  0  0
 13 37  1  0  0  0  0
 13 38  1  0  0  0  0
 14 15  1  0  0  0  0
 14 39  1  0  0  0  0
 14 40  1  0  0  0  0
 15 16  1  0  0  0  0
 16 17  1  0  0  0  0
 16 21  1  0  0  0  0
 16 41  1  0  0  0  0
 17 18  1  0  0  0  0
 17 42  1  0  0  0  0
 17 43  1  0  0  0  0
 18 19  1  0  0  0  0
 18 20  1  0  0  0  0
 18 56  1  0  0  0  0
 19 44  1  0  0  0  0
 19 45  1  0  0  0  0
 19 46  1  0  0  0  0
 20 47  1  0  0  0  0
 20 48  1  0  0  0  0
 20 49  1  0  0  0  0
 21 50  1  0  0  0  0
 21 51  1  0  0  0  0
 22 23  1  0  0  0  0
 23 24  2  0  0  0  0
 23 52  1  0  0  0  0
 24 25  1  0  0  0  0
 25 53  1  0  0  0  0
 25 54  1  0  0  0  0
 25 55  1  0  0  0  0
M  CHG  1  12   1
M  CHG  1  18   1
M  END
> <s_m_source_file>
AV-unprocessed.smi

> <i_m_source_file_index>
1005

> <i_lp_mmshare_version>
43012

> <i_f3d_flags>
0

> <s_epik_input>
W0NIM11jKFtjSF0xKWMoW0NIM10pW2NIXWMoYzEyKW4oW2NIXW4yKVtDSDJdW0NASF0oW09IXSlbQ0gyXU4zW0NIMl1bQ0gyXU9bQ0BIXShbQ0gyXTMpW0NIMl1OKFtDSDNdKVtDSDNd

> <s_epik_cmdline>
J2VwaWtfcHl0aG9uJywgJy1waCcsICc3LjAnLCAnLXRuJywgJzgnLCAnLW1hJywgJzIwMCcsICctbWV0YWxfYmluZGluZycsICctaW1hZScsICc8aW5maWxlLm1hZT4nLCAnLW9tYWUnLCAnPG91dGZpbGUubWFlPic=

> <r_epik_Ionization_Penalty>
1.0968

> <r_epik_Ionization_Penalty_Charging>
1.0096

> <r_epik_Ionization_Penalty_Neutral>
0.0871956

> <r_epik_State_Penalty>
1.31185

> <r_epik_Charging_Adjusted_Penalty>
2.32145

> <i_epik_Tot_Q>
2

> <i_epik_Tot_abs_Q>
2

> <r_epik_Metal_State_Penalty>
1.22442

> <b_epik_Metal_Only>
0

> <s_lp_Force_Field>
OPLS_2005

> <r_lp_Energy>
35.7023

> <b_lp_Chiralities_Consistent>
1

> <s_lp_Variant>
AV-unprocessed.smi:1005-7

> <Gold.Version>
5.8.1

> <Gold.Id.Protein>
6NUR|6NUR_protein|mol2

> <Gold.PLP.Fitness>
58.7111

> <Gold.PLP.PLP>
-41.1562

> <Gold.PLP.part.hbond>
-6.0433

> <Gold.PLP.part.metal>
0.0000

> <Gold.PLP.part.buried>
0.4658

> <Gold.PLP.part.nonpolar>
-33.6858

> <Gold.PLP.part.repulsive>
0.0233

> <Gold.PLP.ligand.clash>
0.0000

> <Gold.PLP.ligand.torsion>
1.3632

> <Gold.PLP.Chemscore.Hbond>
6.6298

> <Gold.PLP.Chemscore.CHOScore>
0.0000

> <Gold.PLP.Chemscore.Metal>
0.0000

> <Gold.Chemscore.Hbonds>
donor molecule, donor type, donor heavy atom, donor atom, acceptor molecule, acceptor atom, score
      L1  H    10    34       P1  7957  0.26
      L1  H    12    57       P1  8028  2.00
      L1  H    18    56       P1 10175  1.70
      P1  H  7989  7998       L1    10  0.38
      P1  H  7997  8008       L1     5  0.81
      P1  H  8011  8017       L1    10  0.96

> <Gold.PLP.Chemscore.Internal.Correction>
0.3921

> <Gold.Rescore>
     Score         DG    S(hbond)    S(metal)    S(lipo)     H(rot)  DE(clash)    DE(int)     intcor
     16.99     -20.54       2.35        0.00     115.93       2.48       2.13       1.42       ----

> <Gold.Chemscore.Fitness>
16.9921

> <Gold.Chemscore.DG>
-20.5429

> <Gold.Chemscore.ZeroCoef>
-5.4800

> <Gold.Chemscore.Hbond>
2.3508

> <Gold.Chemscore.Metal>
0.0000

> <Gold.Chemscore.Lipo>
115.9290

> <Gold.Chemscore.Internal_Hbond>
0.0000

> <Gold.Chemscore.DEClash>
2.1316

> <Gold.Chemscore.DEInternal>
1.4191

> <Gold.Chemscore.Rot>
2.4814

> <Gold.Chemscore.Internal.Correction>
   9.000000E+99

> <Gold.Chemscore.Hbonds>
donor molecule, donor type, donor heavy atom, donor atom, acceptor molecule, acceptor atom, score
      L1  H    10    34       P1  7957  0.26
      L1  H    12    57       P1  8028  0.49
      L1  H    18    56       P1 10175  0.14
      P1  H  7989  7998       L1    10  0.30
      P1  H  7997  8008       L1     5  0.19
      P1  H  8011  8017       L1    10  0.18

> <Gold.Chemscore.Hbond.Weighted>
-7.8515

> <Gold.Chemscore.Metal.Weighted>
-0.0000

> <Gold.Chemscore.Lipo.Weighted>
-13.5637

> <Gold.Chemscore.Internal_Hbond.Weighted>
0.0000

> <Gold.Chemscore.DEClash.Weighted>
2.1316

> <Gold.Chemscore.DEInternal.Weighted>
1.4191

> <Gold.Chemscore.Rot.Weighted>
6.3524

> <Gold.Chemscore.Internal.Correction.Weighted>
   9.000000E+99

> <Gold.Protein.RotatedTorsions>
[ 6907 6896 6895 6894 ] final  -18.71 input  -60.11 | X-H torsion
[ 7974 7965 7964 7962 ] final  -44.00 input  175.53 | X-H torsion
[ 8008 7997 7996 7995 ] final  -74.10 input   59.86 | X-H torsion
[ 10167 10162 10161 10158 ] final -149.79 input  -65.29 | X-H torsion
[ 10718 10713 10712 10709 ] final  -78.20 input   66.30 | X-H torsion
[ 10763 10752 10751 10750 ] final   20.28 input  -60.55 | X-H torsion
[ 11005 11000 10999 10996 ] final -127.71 input  -57.11 | X-H torsion

> <Gold.Protein.ActiveResidues>
 VAL166  LYS551  ARG553  GLY616  TRP617  ASP618  TYR619  PRO620  LYS621  CYS622 
 ASP623  PHE694  ASN695  SER759  ASP760  ASP761  ALA762  ILE779  LEU786  VAL792 
 PHE793  MET794  SER795  GLU796  ALA797  LYS798  CYS799  TRP800  GLU811  SER814 

> <Gold.Protein.RotatedAtoms>
  151.2741  135.0694  159.9144 H   0  0  0  0  0  0  0  0  0  0  0  0  # atno 6907 bound_to 6896
  152.5345  134.0099  159.7944 H   0  0  0  0  0  0  0  0  0  0  0  0  # atno 6908 bound_to 6896
  151.0342  133.5713  159.2688 H   0  0  0  0  0  0  0  0  0  0  0  0  # atno 6909 bound_to 6896
  145.9964  140.7124  142.9292 H   0  0  0  0  0  0  0  0  0  0  0  0  # atno 7974 bound_to 7965
  154.5302  140.0767  156.8331 H   0  0  0  0  0  0  0  0  0  0  0  0  # atno 8008 bound_to 7997
  155.3390  140.3406  155.4221 H   0  0  0  0  0  0  0  0  0  0  0  0  # atno 8009 bound_to 7997
  156.1773  140.1640  156.8325 H   0  0  0  0  0  0  0  0  0  0  0  0  # atno 8010 bound_to 7997
  139.7412  143.8660  152.2562 H   0  0  0  0  0  0  0  0  0  0  0  0  # atno 10167 bound_to 10162
  156.0124  130.4512  150.3461 H   0  0  0  0  0  0  0  0  0  0  0  0  # atno 10718 bound_to 10713
  153.1090  135.6692  153.9534 H   0  0  0  0  0  0  0  0  0  0  0  0  # atno 10763 bound_to 10752
  153.9083  135.3028  155.3450 H   0  0  0  0  0  0  0  0  0  0  0  0  # atno 10764 bound_to 10752
  154.7510  135.5034  153.9367 H   0  0  0  0  0  0  0  0  0  0  0  0  # atno 10765 bound_to 10752
  140.9576  134.0980  157.4000 H   0  0  0  0  0  0  0  0  0  0  0  0  # atno 11005 bound_to 11000
  144.6905  140.3157  143.7240 LP  0  0  0  0  0  0  0  0  0  0  0  0  # atno 17320 bound_to 7965
  145.7554  139.1807  143.2298 LP  0  0  0  0  0  0  0  0  0  0  0  0  # atno 17321 bound_to 7965
  139.8611  144.7117  150.9099 LP  0  0  0  0  0  0  0  0  0  0  0  0  # atno 17342 bound_to 10162
  140.7786  143.3817  151.1465 LP  0  0  0  0  0  0  0  0  0  0  0  0  # atno 17343 bound_to 10162
  157.1555  131.0331  151.2865 LP  0  0  0  0  0  0  0  0  0  0  0  0  # atno 17370 bound_to 10713
  157.4356  130.7515  149.7026 LP  0  0  0  0  0  0  0  0  0  0  0  0  # atno 17371 bound_to 10713
  139.8867  135.0084  156.6517 LP  0  0  0  0  0  0  0  0  0  0  0  0  # atno 17394 bound_to 11000
  140.7513  133.8895  155.8349 LP  0  0  0  0  0  0  0  0  0  0  0  0  # atno 17395 bound_to 11000

$$$$
