AV-unprocessed.smi:3278|AV-procd|sdf|12546|dock2
  -GOLD-   2272018463D 1   1.00000     0.00000
 Structure written by MMmdl.
 38 39  0  0  0  0  0  0  0  0  1 V2000
  146.1309  143.3440  154.0406 C   0  0  0  0  0  0  0  0  0  0  0  0
  147.0571  142.2324  154.0616 N   0  0  0  0  0  0  0  0  0  0  0  0
  148.1412  142.0311  154.8881 C   0  0  0  0  0  0  0  0  0  0  0  0
  148.7142  140.8395  154.5375 C   0  0  0  0  0  0  0  0  0  0  0  0
  149.9252  140.1481  155.1277 C   0  0  1  0  0  0  0  0  0  0  0  0
  149.4690  139.0239  156.0730 C   0  0  0  0  0  0  0  0  0  0  0  0
  150.7165  139.5148  154.1389 O   0  0  0  0  0  0  0  0  0  0  0  0
  150.8410  141.1356  155.8851 C   0  0  0  0  0  0  0  0  0  0  0  0
  150.1911  141.6864  157.0781 N   0  0  0  0  0  0  0  0  0  0  0  0
  150.9337  142.7303  157.7905 C   0  0  1  0  0  0  0  0  0  0  0  0
  150.0321  143.5126  158.7745 C   0  0  0  0  0  0  0  0  0  0  0  0
  150.7802  144.6402  159.5050 C   0  0  0  0  0  0  0  0  0  0  0  0
  151.9547  144.1237  160.3453 C   0  0  0  0  0  0  0  0  0  0  0  0
  153.1948  143.3181  159.2998 S   0  0  0  0  0  0  0  0  0  0  0  0
  152.1201  142.0799  158.5256 C   0  0  0  0  0  0  0  0  0  0  0  0
  147.8884  140.3873  153.4666 C   0  0  0  0  0  0  0  0  0  0  0  0
  146.9000  141.2202  153.1852 N   0  0  0  0  0  0  0  0  0  0  0  0
  146.4706  144.1264  154.7198 H   0  0  0  0  0  0  0  0  0  0  0  0
  145.1428  143.0057  154.3539 H   0  0  0  0  0  0  0  0  0  0  0  0
  146.0667  143.7545  153.0324 H   0  0  0  0  0  0  0  0  0  0  0  0
  148.4133  142.7442  155.6522 H   0  0  0  0  0  0  0  0  0  0  0  0
  148.8736  139.4166  156.8980 H   0  0  0  0  0  0  0  0  0  0  0  0
  150.3190  138.4962  156.5071 H   0  0  0  0  0  0  0  0  0  0  0  0
  148.8571  138.2886  155.5487 H   0  0  0  0  0  0  0  0  0  0  0  0
  150.1421  139.0656  153.5380 H   0  0  0  0  0  0  0  0  0  0  0  0
  151.7540  140.6194  156.1848 H   0  0  0  0  0  0  0  0  0  0  0  0
  151.1467  141.9300  155.2050 H   0  0  0  0  0  0  0  0  0  0  0  0
  149.2653  142.0237  156.8343 H   0  0  0  0  0  0  0  0  0  0  0  0
  151.3368  143.4313  157.0583 H   0  0  0  0  0  0  0  0  0  0  0  0
  149.1946  143.9665  158.2469 H   0  0  0  0  0  0  0  0  0  0  0  0
  149.5986  142.8282  159.5051 H   0  0  0  0  0  0  0  0  0  0  0  0
  151.1397  145.3726  158.7814 H   0  0  0  0  0  0  0  0  0  0  0  0
  150.0827  145.1706  160.1535 H   0  0  0  0  0  0  0  0  0  0  0  0
  152.4292  144.9473  160.8791 H   0  0  0  0  0  0  0  0  0  0  0  0
  151.6042  143.4143  161.0954 H   0  0  0  0  0  0  0  0  0  0  0  0
  151.7667  141.3901  159.2932 H   0  0  0  0  0  0  0  0  0  0  0  0
  152.7246  141.4980  157.8293 H   0  0  0  0  0  0  0  0  0  0  0  0
  147.9790  139.4790  152.8893 H   0  0  0  0  0  0  0  0  0  0  0  0
  1  2  1  0  0  0  0
  1 18  1  0  0  0  0
  1 19  1  0  0  0  0
  1 20  1  0  0  0  0
  2 17  1  0  0  0  0
  2  3  1  0  0  0  0
  3  4  2  0  0  0  0
  3 21  1  0  0  0  0
  4  5  1  0  0  0  0
  4 16  1  0  0  0  0
  5  6  1  0  0  0  0
  5  7  1  0  0  0  0
  5  8  1  0  0  0  0
  6 22  1  0  0  0  0
  6 23  1  0  0  0  0
  6 24  1  0  0  0  0
  7 25  1  0  0  0  0
  8  9  1  0  0  0  0
  8 26  1  0  0  0  0
  8 27  1  0  0  0  0
  9 10  1  0  0  0  0
  9 28  1  0  0  0  0
 10 15  1  0  0  0  0
 10 11  1  0  0  0  0
 10 29  1  0  0  0  0
 11 12  1  0  0  0  0
 11 30  1  0  0  0  0
 11 31  1  0  0  0  0
 12 13  1  0  0  0  0
 12 32  1  0  0  0  0
 12 33  1  0  0  0  0
 13 14  1  0  0  0  0
 13 34  1  0  0  0  0
 13 35  1  0  0  0  0
 14 15  1  0  0  0  0
 15 36  1  0  0  0  0
 15 37  1  0  0  0  0
 16 17  2  0  0  0  0
 16 38  1  0  0  0  0
M  END
> <s_m_source_file>
AV-unprocessed.smi

> <i_m_source_file_index>
3278

> <i_lp_mmshare_version>
43012

> <i_f3d_flags>
0

> <s_epik_input>
W0NIM11uMVtjSF1jKFtjSF1uMSlbQ0BAXShbQ0gzXSkoW09IXSlbQ0gyXVtOSF1bQ0BASF0yW0NIMl1bQ0gyXVtDSDJdU1tDSDJdMg==

> <s_epik_cmdline>
J2VwaWtfcHl0aG9uJywgJy1waCcsICc3LjAnLCAnLXRuJywgJzgnLCAnLW1hJywgJzIwMCcsICctbWV0YWxfYmluZGluZycsICctaW1hZScsICc8aW5maWxlLm1hZT4nLCAnLW9tYWUnLCAnPG91dGZpbGUubWFlPic=

> <r_lp_tautomer_probability>
1

> <r_epik_Ionization_Penalty>
2.06123

> <r_epik_Ionization_Penalty_Charging>
0

> <r_epik_Ionization_Penalty_Neutral>
2.06123

> <r_epik_State_Penalty>
2.1944

> <r_epik_Charging_Adjusted_Penalty>
2.1944

> <i_epik_Tot_Q>
0

> <i_epik_Tot_abs_Q>
0

> <r_epik_Metal_State_Penalty>
2.19434

> <b_epik_Metal_Only>
0

> <s_lp_Force_Field>
OPLS_2005

> <r_lp_Energy>
12.2085

> <b_lp_Chiralities_Consistent>
1

> <s_lp_Variant>
AV-unprocessed.smi:3278-7

> <Gold.Version>
5.8.1

> <Gold.Id.Protein>
6NUR|6NUR_protein|mol2

> <Gold.PLP.Fitness>
41.7090

> <Gold.PLP.PLP>
-36.2934

> <Gold.PLP.part.hbond>
-1.4097

> <Gold.PLP.part.metal>
0.0000

> <Gold.PLP.part.buried>
-1.0440

> <Gold.PLP.part.nonpolar>
-33.7540

> <Gold.PLP.part.repulsive>
0.1987

> <Gold.PLP.ligand.clash>
0.0000

> <Gold.PLP.ligand.torsion>
1.0045

> <Gold.PLP.Chemscore.Hbond>
1.0000

> <Gold.PLP.Chemscore.CHOScore>
1.4604

> <Gold.PLP.Chemscore.Metal>
0.0000

> <Gold.Chemscore.Hbonds>
donor molecule, donor type, donor heavy atom, donor atom, acceptor molecule, acceptor atom, score
      P1  H  7989  7998       L1     7  1.00
      L1  C     3    21       P1  8028  0.97
      L1  C    16    38       P1  7957  0.49

> <Gold.PLP.Chemscore.Internal.Correction>
0.0436

> <Gold.Rescore>
     Score         DG    S(hbond)    S(metal)    S(lipo)     H(rot)  DE(clash)    DE(int)     intcor
     13.32     -15.41       0.93        0.00     100.61       1.93       0.19       1.90       ----

> <Gold.Chemscore.Fitness>
13.3242

> <Gold.Chemscore.DG>
-15.4127

> <Gold.Chemscore.ZeroCoef>
-5.4800

> <Gold.Chemscore.Hbond>
0.9311

> <Gold.Chemscore.Metal>
0.0000

> <Gold.Chemscore.Lipo>
100.6073

> <Gold.Chemscore.Internal_Hbond>
0.0000

> <Gold.Chemscore.DEClash>
0.1930

> <Gold.Chemscore.DEInternal>
1.8955

> <Gold.Chemscore.Rot>
1.9329

> <Gold.Chemscore.Internal.Correction>
   9.000000E+99

> <Gold.Chemscore.Hbonds>
donor molecule, donor type, donor heavy atom, donor atom, acceptor molecule, acceptor atom, score
      P1  H  7989  7998       L1     7  0.32

> <Gold.Chemscore.Hbond.Weighted>
-3.1100

> <Gold.Chemscore.Metal.Weighted>
-0.0000

> <Gold.Chemscore.Lipo.Weighted>
-11.7711

> <Gold.Chemscore.Internal_Hbond.Weighted>
0.0000

> <Gold.Chemscore.DEClash.Weighted>
0.1930

> <Gold.Chemscore.DEInternal.Weighted>
1.8955

> <Gold.Chemscore.Rot.Weighted>
4.9483

> <Gold.Chemscore.Internal.Correction.Weighted>
   9.000000E+99

> <Gold.Protein.RotatedTorsions>
[ 6907 6896 6895 6894 ] final   69.20 input  -60.11 | X-H torsion
[ 7974 7965 7964 7962 ] final   71.08 input  175.53 | X-H torsion
[ 8008 7997 7996 7995 ] final -113.08 input   59.86 | X-H torsion
[ 10167 10162 10161 10158 ] final   76.69 input  -65.29 | X-H torsion
[ 10718 10713 10712 10709 ] final  -67.02 input   66.30 | X-H torsion
[ 10763 10752 10751 10750 ] final   87.85 input  -60.55 | X-H torsion
[ 11005 11000 10999 10996 ] final   49.71 input  -57.11 | X-H torsion

> <Gold.Protein.ActiveResidues>
 VAL166  LYS551  ARG553  GLY616  TRP617  ASP618  TYR619  PRO620  LYS621  CYS622 
 ASP623  PHE694  ASN695  SER759  ASP760  ASP761  ALA762  ILE779  LEU786  VAL792 
 PHE793  MET794  SER795  GLU796  ALA797  LYS798  CYS799  TRP800  GLU811  SER814 

> <Gold.Protein.RotatedAtoms>
  152.4671  134.5050  159.9736 H   0  0  0  0  0  0  0  0  0  0  0  0  # atno 6907 bound_to 6896
  151.5085  133.3484  159.2889 H   0  0  0  0  0  0  0  0  0  0  0  0  # atno 6908 bound_to 6896
  150.8660  134.8052  159.7181 H   0  0  0  0  0  0  0  0  0  0  0  0  # atno 6909 bound_to 6896
  145.7702  139.2840  143.1325 H   0  0  0  0  0  0  0  0  0  0  0  0  # atno 7974 bound_to 7965
  155.0151  140.0393  157.2415 H   0  0  0  0  0  0  0  0  0  0  0  0  # atno 8008 bound_to 7997
  154.7426  140.2752  155.6337 H   0  0  0  0  0  0  0  0  0  0  0  0  # atno 8009 bound_to 7997
  156.2867  140.2662  156.2158 H   0  0  0  0  0  0  0  0  0  0  0  0  # atno 8010 bound_to 7997
  139.9895  144.5767  150.7830 H   0  0  0  0  0  0  0  0  0  0  0  0  # atno 10167 bound_to 10162
  156.0580  130.4271  150.1794 H   0  0  0  0  0  0  0  0  0  0  0  0  # atno 10718 bound_to 10713
  153.1709  135.4528  154.9901 H   0  0  0  0  0  0  0  0  0  0  0  0  # atno 10763 bound_to 10752
  154.7965  135.3239  154.7656 H   0  0  0  0  0  0  0  0  0  0  0  0  # atno 10764 bound_to 10752
  153.8132  135.6953  153.4892 H   0  0  0  0  0  0  0  0  0  0  0  0  # atno 10765 bound_to 10752
  140.1080  134.4992  155.8703 H   0  0  0  0  0  0  0  0  0  0  0  0  # atno 11005 bound_to 11000
  146.0177  140.8377  142.9939 LP  0  0  0  0  0  0  0  0  0  0  0  0  # atno 17320 bound_to 7965
  144.6814  140.2583  143.7322 LP  0  0  0  0  0  0  0  0  0  0  0  0  # atno 17321 bound_to 7965
  140.7460  143.2884  151.3400 LP  0  0  0  0  0  0  0  0  0  0  0  0  # atno 17342 bound_to 10162
  139.6350  144.0647  152.2508 LP  0  0  0  0  0  0  0  0  0  0  0  0  # atno 17343 bound_to 10162
  156.9867  130.9881  151.3424 LP  0  0  0  0  0  0  0  0  0  0  0  0  # atno 17370 bound_to 10713
  157.5566  130.8218  149.8212 LP  0  0  0  0  0  0  0  0  0  0  0  0  # atno 17371 bound_to 10713
  141.2123  133.6718  156.6649 LP  0  0  0  0  0  0  0  0  0  0  0  0  # atno 17394 bound_to 11000
  140.3129  134.8071  157.4191 LP  0  0  0  0  0  0  0  0  0  0  0  0  # atno 17395 bound_to 11000

$$$$
