AV-unprocessed.smi:2598|AV-procd|sdf|10178|dock5
  -GOLD-   2272014193D 1   1.00000     0.00000
 Structure written by MMmdl.
 27 28  0  0  0  0  0  0  0  0  1 V2000
  147.4521  132.7521  154.3879 O   0  0  0  0  0  0  0  0  0  0  0  0
  147.9330  133.6639  153.7177 C   0  0  0  0  0  0  0  0  0  0  0  0
  149.0809  134.2692  154.0873 N   0  0  0  0  0  0  0  0  0  0  0  0
  149.9124  134.0477  155.1425 C   0  0  0  0  0  0  0  0  0  0  0  0
  150.7598  134.9655  155.7033 C   0  0  0  0  0  0  0  0  0  0  0  0
  151.4853  134.4841  156.8047 N   0  0  0  0  0  0  0  0  0  0  0  0
  151.2201  133.2508  157.1197 N   0  0  0  0  0  0  0  0  0  0  0  0
  150.0630  132.6037  156.0982 S   0  0  0  0  0  0  0  0  0  0  0  0
  147.3496  134.1338  152.6022 N   0  0  0  0  0  0  0  0  0  0  0  0
  146.1075  133.6406  152.0152 C   0  0  0  0  0  0  0  0  0  0  0  0
  146.2668  132.1687  151.5814 C   0  0  0  0  0  0  0  0  0  0  0  0
  144.9677  131.5820  151.0102 C   0  0  0  0  0  0  0  0  0  0  0  0
  144.4461  132.4659  149.5149 S   0  0  0  0  0  0  0  0  0  0  0  0
  144.3692  134.1404  150.2071 C   0  0  0  0  0  0  0  0  0  0  0  0
  145.7112  134.5458  150.8336 C   0  0  0  0  0  0  0  0  0  0  0  0
  149.3348  135.0643  153.5188 H   0  0  0  0  0  0  0  0  0  0  0  0
  150.9170  135.9856  155.3850 H   0  0  0  0  0  0  0  0  0  0  0  0
  147.8071  134.8926  152.1180 H   0  0  0  0  0  0  0  0  0  0  0  0
  145.3189  133.7034  152.7678 H   0  0  0  0  0  0  0  0  0  0  0  0
  147.0652  132.0810  150.8431 H   0  0  0  0  0  0  0  0  0  0  0  0
  146.5752  131.5655  152.4361 H   0  0  0  0  0  0  0  0  0  0  0  0
  145.1064  130.5296  150.7625 H   0  0  0  0  0  0  0  0  0  0  0  0
  144.1695  131.6335  151.7512 H   0  0  0  0  0  0  0  0  0  0  0  0
  144.1002  134.8344  149.4107 H   0  0  0  0  0  0  0  0  0  0  0  0
  143.5729  134.1827  150.9508 H   0  0  0  0  0  0  0  0  0  0  0  0
  145.6412  135.5792  151.1756 H   0  0  0  0  0  0  0  0  0  0  0  0
  146.4910  134.5292  150.0708 H   0  0  0  0  0  0  0  0  0  0  0  0
  1  2  2  0  0  0  0
  2  3  1  0  0  0  0
  2  9  1  0  0  0  0
  3  4  1  0  0  0  0
  3 16  1  0  0  0  0
  4  8  1  0  0  0  0
  4  5  2  0  0  0  0
  5  6  1  0  0  0  0
  5 17  1  0  0  0  0
  6  7  2  0  0  0  0
  7  8  1  0  0  0  0
  9 10  1  0  0  0  0
  9 18  1  0  0  0  0
 10 15  1  0  0  0  0
 10 11  1  0  0  0  0
 10 19  1  0  0  0  0
 11 12  1  0  0  0  0
 11 20  1  0  0  0  0
 11 21  1  0  0  0  0
 12 13  1  0  0  0  0
 12 22  1  0  0  0  0
 12 23  1  0  0  0  0
 13 14  1  0  0  0  0
 14 15  1  0  0  0  0
 14 24  1  0  0  0  0
 14 25  1  0  0  0  0
 15 26  1  0  0  0  0
 15 27  1  0  0  0  0
M  END
> <s_m_source_file>
AV-unprocessed.smi

> <i_m_source_file_index>
2598

> <i_lp_mmshare_version>
43012

> <i_f3d_flags>
0

> <s_epik_input>
czFubltjSF1jMVtOSF1DKD1PKVtOSF1bQ0hdMltDSDJdW0NIMl1TW0NIMl1bQ0gyXTI=

> <s_epik_cmdline>
J2VwaWtfcHl0aG9uJywgJy1waCcsICc3LjAnLCAnLXRuJywgJzgnLCAnLW1hJywgJzIwMCcsICctbWV0YWxfYmluZGluZycsICctaW1hZScsICc8aW5maWxlLm1hZT4nLCAnLW9tYWUnLCAnPG91dGZpbGUubWFlPic=

> <r_lp_tautomer_probability>
1

> <r_epik_Ionization_Penalty>
2.3088e-05

> <r_epik_Ionization_Penalty_Charging>
0

> <r_epik_Ionization_Penalty_Neutral>
2.3088e-05

> <r_epik_State_Penalty>
-0

> <r_epik_Charging_Adjusted_Penalty>
0

> <i_epik_Tot_Q>
0

> <i_epik_Tot_abs_Q>
0

> <r_epik_Metal_State_Penalty>
-0

> <b_epik_Metal_Only>
0

> <s_lp_Force_Field>
OPLS_2005

> <r_lp_Energy>
8.93438

> <b_lp_Chiralities_Consistent>
1

> <s_lp_Variant>
AV-unprocessed.smi:2598-1

> <Gold.Version>
5.8.1

> <Gold.Id.Protein>
6NUR|6NUR_protein|mol2

> <Gold.PLP.Fitness>
35.0642

> <Gold.PLP.PLP>
-27.5993

> <Gold.PLP.part.hbond>
-3.7897

> <Gold.PLP.part.metal>
0.0000

> <Gold.PLP.part.buried>
-3.5214

> <Gold.PLP.part.nonpolar>
-19.8478

> <Gold.PLP.part.repulsive>
0.0458

> <Gold.PLP.ligand.clash>
0.0000

> <Gold.PLP.ligand.torsion>
0.1376

> <Gold.PLP.Chemscore.Hbond>
2.5776

> <Gold.PLP.Chemscore.CHOScore>
0.0000

> <Gold.PLP.Chemscore.Metal>
0.0000

> <Gold.Chemscore.Hbonds>
donor molecule, donor type, donor heavy atom, donor atom, acceptor molecule, acceptor atom, score
      L1  H     3    16       P1  7948  0.78
      L1  H     9    18       P1  7948  1.00
      P1  H  6896  6907       L1     7  0.65

> <Gold.PLP.Chemscore.Internal.Correction>
0.0072

> <Gold.Rescore>
     Score         DG    S(hbond)    S(metal)    S(lipo)     H(rot)  DE(clash)    DE(int)     intcor
     17.34     -17.45       2.28        0.00      59.15       1.00       0.00       0.11       ----

> <Gold.Chemscore.Fitness>
17.3372

> <Gold.Chemscore.DG>
-17.4487

> <Gold.Chemscore.ZeroCoef>
-5.4800

> <Gold.Chemscore.Hbond>
2.2780

> <Gold.Chemscore.Metal>
0.0000

> <Gold.Chemscore.Lipo>
59.1477

> <Gold.Chemscore.Internal_Hbond>
0.0000

> <Gold.Chemscore.DEClash>
0.0029

> <Gold.Chemscore.DEInternal>
0.1086

> <Gold.Chemscore.Rot>
1.0000

> <Gold.Chemscore.Internal.Correction>
   9.000000E+99

> <Gold.Chemscore.Hbonds>
donor molecule, donor type, donor heavy atom, donor atom, acceptor molecule, acceptor atom, score
      L1  H     3    16       P1  7948  0.10
      L1  H     9    18       P1  7948  0.70
      P1  H  6896  6907       L1     7  0.14

> <Gold.Chemscore.Hbond.Weighted>
-7.6084

> <Gold.Chemscore.Metal.Weighted>
-0.0000

> <Gold.Chemscore.Lipo.Weighted>
-6.9203

> <Gold.Chemscore.Internal_Hbond.Weighted>
0.0000

> <Gold.Chemscore.DEClash.Weighted>
0.0029

> <Gold.Chemscore.DEInternal.Weighted>
0.1086

> <Gold.Chemscore.Rot.Weighted>
2.5600

> <Gold.Chemscore.Internal.Correction.Weighted>
   9.000000E+99

> <Gold.Protein.RotatedTorsions>
[ 6907 6896 6895 6894 ] final -151.31 input  -60.11 | X-H torsion
[ 7974 7965 7964 7962 ] final  -37.85 input  175.53 | X-H torsion
[ 8008 7997 7996 7995 ] final  -11.38 input   59.86 | X-H torsion
[ 10167 10162 10161 10158 ] final -157.05 input  -65.29 | X-H torsion
[ 10718 10713 10712 10709 ] final  -23.07 input   66.30 | X-H torsion
[ 10763 10752 10751 10750 ] final   94.99 input  -60.55 | X-H torsion
[ 11005 11000 10999 10996 ] final  127.94 input  -57.11 | X-H torsion

> <Gold.Protein.ActiveResidues>
 VAL166  LYS551  ARG553  GLY616  TRP617  ASP618  TYR619  PRO620  LYS621  CYS622 
 ASP623  PHE694  ASN695  SER759  ASP760  ASP761  ALA762  ILE779  LEU786  VAL792 
 PHE793  MET794  SER795  GLU796  ALA797  LYS798  CYS799  TRP800  GLU811  SER814 

> <Gold.Protein.RotatedAtoms>
  151.2113  133.4554  159.2598 H   0  0  0  0  0  0  0  0  0  0  0  0  # atno 6907 bound_to 6896
  151.0974  134.9952  159.8442 H   0  0  0  0  0  0  0  0  0  0  0  0  # atno 6908 bound_to 6896
  152.5440  134.2042  159.8777 H   0  0  0  0  0  0  0  0  0  0  0  0  # atno 6909 bound_to 6896
  146.0539  140.6443  142.9029 H   0  0  0  0  0  0  0  0  0  0  0  0  # atno 7974 bound_to 7965
  154.5470  140.2304  155.8547 H   0  0  0  0  0  0  0  0  0  0  0  0  # atno 8008 bound_to 7997
  156.1912  140.3076  155.9297 H   0  0  0  0  0  0  0  0  0  0  0  0  # atno 8009 bound_to 7997
  155.3145  140.0437  157.3027 H   0  0  0  0  0  0  0  0  0  0  0  0  # atno 8010 bound_to 7997
  139.6802  143.9595  152.2332 H   0  0  0  0  0  0  0  0  0  0  0  0  # atno 10167 bound_to 10162
  156.4961  130.4577  149.6728 H   0  0  0  0  0  0  0  0  0  0  0  0  # atno 10718 bound_to 10713
  153.2479  135.4270  155.0767 H   0  0  0  0  0  0  0  0  0  0  0  0  # atno 10763 bound_to 10752
  154.8369  135.3419  154.6554 H   0  0  0  0  0  0  0  0  0  0  0  0  # atno 10764 bound_to 10752
  153.6976  135.7030  153.5129 H   0  0  0  0  0  0  0  0  0  0  0  0  # atno 10765 bound_to 10752
  139.9534  134.9618  156.8928 H   0  0  0  0  0  0  0  0  0  0  0  0  # atno 11005 bound_to 11000
  144.7137  140.4133  143.7061 LP  0  0  0  0  0  0  0  0  0  0  0  0  # atno 17320 bound_to 7965
  145.6678  139.1593  143.2772 LP  0  0  0  0  0  0  0  0  0  0  0  0  # atno 17321 bound_to 7965
  139.9383  144.6698  150.8292 LP  0  0  0  0  0  0  0  0  0  0  0  0  # atno 17342 bound_to 10162
  140.7649  143.3262  151.2511 LP  0  0  0  0  0  0  0  0  0  0  0  0  # atno 17343 bound_to 10162
  156.3379  130.7366  151.2307 LP  0  0  0  0  0  0  0  0  0  0  0  0  # atno 17370 bound_to 10713
  157.7468  131.0412  150.4633 LP  0  0  0  0  0  0  0  0  0  0  0  0  # atno 17371 bound_to 10713
  140.5666  134.0483  155.7416 LP  0  0  0  0  0  0  0  0  0  0  0  0  # atno 17394 bound_to 11000
  141.1201  133.9475  157.2746 LP  0  0  0  0  0  0  0  0  0  0  0  0  # atno 17395 bound_to 11000

$$$$
