AV-unprocessed.smi:2076|AV-procd|sdf|8457|dock3
  -GOLD-   2272011153D 1   1.00000     0.00000
 Structure written by MMmdl.
 44 45  0  0  0  0  0  0  0  0  1 V2000
  153.1397  141.2309  162.0894 C   0  0  0  0  0  0  0  0  0  0  0  0
  152.7672  142.3457  161.1574 C   0  0  0  0  0  0  0  0  0  0  0  0
  152.5654  143.7207  161.4629 C   0  0  0  0  0  0  0  0  0  0  0  0
  152.2395  144.2888  160.2636 C   0  0  0  0  0  0  0  0  0  0  0  0
  151.9018  145.7044  159.9289 C   0  0  0  0  0  0  0  0  0  0  0  0
  152.2609  143.2761  159.3208 N   0  0  0  0  0  0  0  0  0  0  0  0
  151.9631  143.3402  157.8976 C   0  0  0  0  0  0  0  0  0  0  0  0
  151.1266  142.1363  157.4630 C   0  0  0  0  0  0  0  0  0  0  0  0
  150.5444  141.4525  158.3046 O   0  0  0  0  0  0  0  0  0  0  0  0
  151.0992  141.8750  156.1472 N   0  0  0  0  0  0  0  0  0  0  0  0
  150.4907  140.6982  155.5365 C   0  0  0  0  0  0  0  0  0  0  0  0
  151.0638  139.3603  156.0904 C   0  0  2  0  0  0  0  0  0  0  0  0
  150.7404  138.2205  155.0893 C   0  0  0  0  0  0  0  0  0  0  0  0
  150.6142  139.0586  157.4694 N   0  0  0  0  0  0  0  0  0  0  0  0
  151.3450  137.9369  158.0709 C   0  0  0  0  0  0  0  0  0  0  0  0
  150.8579  137.5978  159.4905 C   0  0  0  0  0  0  0  0  0  0  0  0
  149.4652  137.3178  159.4668 O   0  0  0  0  0  0  0  0  0  0  0  0
  148.7106  138.4113  158.9639 C   0  0  0  0  0  0  0  0  0  0  0  0
  149.1804  138.7530  157.5395 C   0  0  0  0  0  0  0  0  0  0  0  0
  152.5866  142.0866  159.8729 N   0  0  0  0  0  0  0  0  0  0  0  0
  153.1200  141.5625  163.1277 H   0  0  0  0  0  0  0  0  0  0  0  0
  154.1434  140.8625  161.8774 H   0  0  0  0  0  0  0  0  0  0  0  0
  152.4491  140.3922  161.9970 H   0  0  0  0  0  0  0  0  0  0  0  0
  152.6434  144.2153  162.4199 H   0  0  0  0  0  0  0  0  0  0  0  0
  151.9813  146.3422  160.8093 H   0  0  0  0  0  0  0  0  0  0  0  0
  150.8820  145.7817  159.5515 H   0  0  0  0  0  0  0  0  0  0  0  0
  152.5772  146.0973  159.1688 H   0  0  0  0  0  0  0  0  0  0  0  0
  151.4306  144.2680  157.6859 H   0  0  0  0  0  0  0  0  0  0  0  0
  152.8939  143.3695  157.3287 H   0  0  0  0  0  0  0  0  0  0  0  0
  151.6060  142.4964  155.5329 H   0  0  0  0  0  0  0  0  0  0  0  0
  149.4158  140.7808  155.6920 H   0  0  0  0  0  0  0  0  0  0  0  0
  150.6530  140.7537  154.4599 H   0  0  0  0  0  0  0  0  0  0  0  0
  152.1502  139.4615  156.1107 H   0  0  0  0  0  0  0  0  0  0  0  0
  151.0413  138.4605  154.0699 H   0  0  0  0  0  0  0  0  0  0  0  0
  149.6721  138.0026  155.0723 H   0  0  0  0  0  0  0  0  0  0  0  0
  151.2694  137.2986  155.3256 H   0  0  0  0  0  0  0  0  0  0  0  0
  151.2558  137.0536  157.4369 H   0  0  0  0  0  0  0  0  0  0  0  0
  152.4057  138.1653  158.1500 H   0  0  0  0  0  0  0  0  0  0  0  0
  151.3884  136.7261  159.8735 H   0  0  0  0  0  0  0  0  0  0  0  0
  151.0600  138.4225  160.1762 H   0  0  0  0  0  0  0  0  0  0  0  0
  147.6544  138.1423  158.9595 H   0  0  0  0  0  0  0  0  0  0  0  0
  148.8182  139.2735  159.6240 H   0  0  0  0  0  0  0  0  0  0  0  0
  148.5893  139.6041  157.2065 H   0  0  0  0  0  0  0  0  0  0  0  0
  148.9457  137.9223  156.8721 H   0  0  0  0  0  0  0  0  0  0  0  0
  1  2  1  0  0  0  0
  1 21  1  0  0  0  0
  1 22  1  0  0  0  0
  1 23  1  0  0  0  0
  2 20  2  0  0  0  0
  2  3  1  0  0  0  0
  3  4  2  0  0  0  0
  3 24  1  0  0  0  0
  4  5  1  0  0  0  0
  4  6  1  0  0  0  0
  5 25  1  0  0  0  0
  5 26  1  0  0  0  0
  5 27  1  0  0  0  0
  6  7  1  0  0  0  0
  6 20  1  0  0  0  0
  7  8  1  0  0  0  0
  7 28  1  0  0  0  0
  7 29  1  0  0  0  0
  8  9  2  0  0  0  0
  8 10  1  0  0  0  0
 10 11  1  0  0  0  0
 10 30  1  0  0  0  0
 11 12  1  0  0  0  0
 11 31  1  0  0  0  0
 11 32  1  0  0  0  0
 12 13  1  0  0  0  0
 12 14  1  0  0  0  0
 12 33  1  0  0  0  0
 13 34  1  0  0  0  0
 13 35  1  0  0  0  0
 13 36  1  0  0  0  0
 14 19  1  0  0  0  0
 14 15  1  0  0  0  0
 15 16  1  0  0  0  0
 15 37  1  0  0  0  0
 15 38  1  0  0  0  0
 16 17  1  0  0  0  0
 16 39  1  0  0  0  0
 16 40  1  0  0  0  0
 17 18  1  0  0  0  0
 18 19  1  0  0  0  0
 18 41  1  0  0  0  0
 18 42  1  0  0  0  0
 19 43  1  0  0  0  0
 19 44  1  0  0  0  0
M  END
> <s_m_source_file>
AV-unprocessed.smi

> <i_m_source_file_index>
2076

> <i_lp_mmshare_version>
43012

> <i_f3d_flags>
0

> <s_epik_input>
W0NIM11jMVtjSF1jKFtDSDNdKW4objEpW0NIMl1DKD1PKVtOSF1bQ0gyXVtDQEhdKFtDSDNdKU4yW0NIMl1bQ0gyXU9bQ0gyXVtDSDJdMg==

> <s_epik_cmdline>
J2VwaWtfcHl0aG9uJywgJy1waCcsICc3LjAnLCAnLXRuJywgJzgnLCAnLW1hJywgJzIwMCcsICctbWV0YWxfYmluZGluZycsICctaW1hZScsICc8aW5maWxlLm1hZT4nLCAnLW9tYWUnLCAnPG91dGZpbGUubWFlPic=

> <r_lp_tautomer_probability>
1

> <r_epik_Ionization_Penalty>
0.197284

> <r_epik_Ionization_Penalty_Charging>
0

> <r_epik_Ionization_Penalty_Neutral>
0.197284

> <r_epik_State_Penalty>
0.186684

> <r_epik_Charging_Adjusted_Penalty>
0.186684

> <i_epik_Tot_Q>
0

> <i_epik_Tot_abs_Q>
0

> <r_epik_Metal_State_Penalty>
0.186636

> <b_epik_Metal_Only>
0

> <s_lp_Force_Field>
OPLS_2005

> <r_lp_Energy>
25.7273

> <b_lp_Chiralities_Consistent>
1

> <s_lp_Variant>
AV-unprocessed.smi:2076-1

> <Gold.Version>
5.8.1

> <Gold.Id.Protein>
6NUR|6NUR_protein|mol2

> <Gold.PLP.Fitness>
44.1150

> <Gold.PLP.PLP>
-42.4369

> <Gold.PLP.part.hbond>
-1.0000

> <Gold.PLP.part.metal>
0.0000

> <Gold.PLP.part.buried>
-5.2953

> <Gold.PLP.part.nonpolar>
-36.1605

> <Gold.PLP.part.repulsive>
0.1445

> <Gold.PLP.ligand.clash>
0.0000

> <Gold.PLP.ligand.torsion>
0.6758

> <Gold.PLP.Chemscore.Hbond>
1.0000

> <Gold.PLP.Chemscore.CHOScore>
0.0000

> <Gold.PLP.Chemscore.Metal>
0.0000

> <Gold.PLP.Chemscore.Internal.Correction>
0.0298

> <Gold.Rescore>
     Score         DG    S(hbond)    S(metal)    S(lipo)     H(rot)  DE(clash)    DE(int)     intcor
     12.46     -16.32       1.15        0.00      96.97       1.70       0.03       3.83       ----

> <Gold.Chemscore.Fitness>
12.4599

> <Gold.Chemscore.DG>
-16.3228

> <Gold.Chemscore.ZeroCoef>
-5.4800

> <Gold.Chemscore.Hbond>
1.1519

> <Gold.Chemscore.Metal>
0.0000

> <Gold.Chemscore.Lipo>
96.9702

> <Gold.Chemscore.Internal_Hbond>
0.0000

> <Gold.Chemscore.DEClash>
0.0299

> <Gold.Chemscore.DEInternal>
3.8330

> <Gold.Chemscore.Rot>
1.6993

> <Gold.Chemscore.Internal.Correction>
   9.000000E+99

> <Gold.Chemscore.Hbond.Weighted>
-3.8475

> <Gold.Chemscore.Metal.Weighted>
-0.0000

> <Gold.Chemscore.Lipo.Weighted>
-11.3455

> <Gold.Chemscore.Internal_Hbond.Weighted>
0.0000

> <Gold.Chemscore.DEClash.Weighted>
0.0299

> <Gold.Chemscore.DEInternal.Weighted>
3.8330

> <Gold.Chemscore.Rot.Weighted>
4.3502

> <Gold.Chemscore.Internal.Correction.Weighted>
   9.000000E+99

> <Gold.Protein.RotatedTorsions>
[ 6907 6896 6895 6894 ] final -159.94 input  -60.11 | X-H torsion
[ 7974 7965 7964 7962 ] final -111.60 input  175.53 | X-H torsion
[ 8008 7997 7996 7995 ] final -122.10 input   59.86 | X-H torsion
[ 10167 10162 10161 10158 ] final  108.64 input  -65.29 | X-H torsion
[ 10718 10713 10712 10709 ] final  112.79 input   66.30 | X-H torsion
[ 10763 10752 10751 10750 ] final -153.32 input  -60.55 | X-H torsion
[ 11005 11000 10999 10996 ] final  -76.86 input  -57.11 | X-H torsion

> <Gold.Protein.ActiveResidues>
 VAL166  LYS551  ARG553  GLY616  TRP617  ASP618  TYR619  PRO620  LYS621  CYS622 
 ASP623  PHE694  ASN695  SER759  ASP760  ASP761  ALA762  ILE779  LEU786  VAL792 
 PHE793  MET794  SER795  GLU796  ALA797  LYS798  CYS799  TRP800  GLU811  SER814 

> <Gold.Protein.RotatedAtoms>
  151.3413  133.3961  159.2671 H   0  0  0  0  0  0  0  0  0  0  0  0  # atno 6907 bound_to 6896
  150.9875  134.9218  159.7891 H   0  0  0  0  0  0  0  0  0  0  0  0  # atno 6908 bound_to 6896
  152.5237  134.3378  159.9258 H   0  0  0  0  0  0  0  0  0  0  0  0  # atno 6909 bound_to 6896
  145.1541  140.8845  143.3629 H   0  0  0  0  0  0  0  0  0  0  0  0  # atno 7974 bound_to 7965
  155.1588  140.0405  157.2838 H   0  0  0  0  0  0  0  0  0  0  0  0  # atno 8008 bound_to 7997
  154.6351  140.2533  155.7361 H   0  0  0  0  0  0  0  0  0  0  0  0  # atno 8009 bound_to 7997
  156.2504  140.2867  156.0720 H   0  0  0  0  0  0  0  0  0  0  0  0  # atno 8010 bound_to 7997
  139.6830  144.7116  151.1482 H   0  0  0  0  0  0  0  0  0  0  0  0  # atno 10167 bound_to 10162
  157.6373  131.0973  150.6946 H   0  0  0  0  0  0  0  0  0  0  0  0  # atno 10718 bound_to 10713
  154.7935  135.3215  154.7721 H   0  0  0  0  0  0  0  0  0  0  0  0  # atno 10763 bound_to 10752
  153.8405  135.6871  153.4808 H   0  0  0  0  0  0  0  0  0  0  0  0  # atno 10764 bound_to 10752
  153.1616  135.4658  154.9721 H   0  0  0  0  0  0  0  0  0  0  0  0  # atno 10765 bound_to 10752
  141.1657  133.7000  156.7733 H   0  0  0  0  0  0  0  0  0  0  0  0  # atno 11005 bound_to 11000
  145.0399  139.3269  143.5982 LP  0  0  0  0  0  0  0  0  0  0  0  0  # atno 17320 bound_to 7965
  146.3491  139.9769  142.8700 LP  0  0  0  0  0  0  0  0  0  0  0  0  # atno 17321 bound_to 7965
  140.7658  143.5671  150.9036 LP  0  0  0  0  0  0  0  0  0  0  0  0  # atno 17342 bound_to 10162
  139.9344  143.6455  152.3069 LP  0  0  0  0  0  0  0  0  0  0  0  0  # atno 17343 bound_to 10162
  156.7276  130.4699  149.5507 LP  0  0  0  0  0  0  0  0  0  0  0  0  # atno 17370 bound_to 10713
  156.1624  130.6383  151.0735 LP  0  0  0  0  0  0  0  0  0  0  0  0  # atno 17371 bound_to 10713
  140.2448  134.8586  157.3609 LP  0  0  0  0  0  0  0  0  0  0  0  0  # atno 17394 bound_to 11000
  140.1760  134.4549  155.7801 LP  0  0  0  0  0  0  0  0  0  0  0  0  # atno 17395 bound_to 11000

$$$$
