AV-unprocessed.smi:1762|AV-procd|sdf|7113|dock6
  -GOLD-   22720 8343D 1   1.00000     0.00000
 Structure written by MMmdl.
 53 54  0  0  0  0  0  0  0  0  2 V2000
  145.8829  131.5967  150.9984 C   0  0  0  0  0  0  0  0  0  0  0  0
  146.1641  133.0443  151.4161 C   0  0  2  0  0  0  0  0  0  0  0  0
  146.9170  133.1230  152.7553 C   0  0  0  0  0  0  0  0  0  0  0  0
  147.1218  134.5395  153.1711 N   0  3  2  0  0  0  0  0  0  0  0  0
  147.9886  134.6742  154.3926 C   0  0  1  0  0  0  0  0  0  0  0  0
  147.1822  134.3804  155.6763 C   0  0  0  0  0  0  0  0  0  0  0  0
  146.5529  133.3270  155.7840 O   0  0  0  0  0  0  0  0  0  0  0  0
  147.2115  135.3178  156.6359 N   0  0  0  0  0  0  0  0  0  0  0  0
  146.5305  135.2162  157.9200 C   0  0  0  0  0  0  0  0  0  0  0  0
  146.8348  136.4443  158.7890 C   0  0  0  0  0  0  0  0  0  0  0  0
  147.0320  136.0801  160.2486 C   0  0  0  0  0  0  0  0  0  0  0  0
  147.0723  134.7294  160.6552 C   0  0  0  0  0  0  0  0  0  0  0  0
  147.2656  134.4456  162.0212 C   0  0  0  0  0  0  0  0  0  0  0  0
  147.4126  135.5176  162.9224 C   0  0  0  0  0  0  0  0  0  0  0  0
  147.3585  136.8314  162.4157 C   0  0  0  0  0  0  0  0  0  0  0  0
  147.1725  137.1143  161.1082 N   0  0  0  0  0  0  0  0  0  0  0  0
  149.2964  133.8119  154.3550 C   0  0  0  0  0  0  0  0  0  0  0  0
  149.0744  132.3195  154.6791 C   0  0  0  0  0  0  0  0  0  0  0  0
  150.4278  134.3802  155.2345 C   0  0  0  0  0  0  0  0  0  0  0  0
  145.7943  135.2111  153.2506 C   0  0  0  0  0  0  0  0  0  0  0  0
  145.0117  135.0800  151.9287 C   0  0  1  0  0  0  0  0  0  0  0  0
  145.5646  135.9700  150.8005 C   0  0  0  0  0  0  0  0  0  0  0  0
  144.9141  133.7124  151.5398 O   0  0  0  0  0  0  0  0  0  0  0  0
  146.8094  131.0341  150.8814 H   0  0  0  0  0  0  0  0  0  0  0  0
  145.3522  131.5623  150.0466 H   0  0  0  0  0  0  0  0  0  0  0  0
  145.2701  131.0827  151.7398 H   0  0  0  0  0  0  0  0  0  0  0  0
  146.7605  133.5106  150.6318 H   0  0  0  0  0  0  0  0  0  0  0  0
  146.3615  132.5943  153.5320 H   0  0  0  0  0  0  0  0  0  0  0  0
  147.8662  132.6003  152.6408 H   0  0  0  0  0  0  0  0  0  0  0  0
  148.2999  135.7201  154.4300 H   0  0  0  0  0  0  0  0  0  0  0  0
  147.7520  136.1548  156.4707 H   0  0  0  0  0  0  0  0  0  0  0  0
  145.4570  135.1343  157.7446 H   0  0  0  0  0  0  0  0  0  0  0  0
  146.8415  134.3106  158.4440 H   0  0  0  0  0  0  0  0  0  0  0  0
  147.7337  136.9452  158.4260 H   0  0  0  0  0  0  0  0  0  0  0  0
  146.0250  137.1705  158.7072 H   0  0  0  0  0  0  0  0  0  0  0  0
  146.9597  133.9283  159.9395 H   0  0  0  0  0  0  0  0  0  0  0  0
  147.3016  133.4243  162.3705 H   0  0  0  0  0  0  0  0  0  0  0  0
  147.5634  135.3375  163.9766 H   0  0  0  0  0  0  0  0  0  0  0  0
  147.4678  137.6778  163.0775 H   0  0  0  0  0  0  0  0  0  0  0  0
  149.7043  133.8702  153.3471 H   0  0  0  0  0  0  0  0  0  0  0  0
  148.7864  132.1714  155.7201 H   0  0  0  0  0  0  0  0  0  0  0  0
  149.9881  131.7481  154.5133 H   0  0  0  0  0  0  0  0  0  0  0  0
  148.2984  131.8748  154.0568 H   0  0  0  0  0  0  0  0  0  0  0  0
  150.2093  134.2860  156.2985 H   0  0  0  0  0  0  0  0  0  0  0  0
  150.6030  135.4347  155.0192 H   0  0  0  0  0  0  0  0  0  0  0  0
  151.3636  133.8514  155.0514 H   0  0  0  0  0  0  0  0  0  0  0  0
  145.2212  134.7689  154.0670 H   0  0  0  0  0  0  0  0  0  0  0  0
  145.8853  136.2737  153.4655 H   0  0  0  0  0  0  0  0  0  0  0  0
  143.9898  135.4113  152.1158 H   0  0  0  0  0  0  0  0  0  0  0  0
  145.4973  137.0238  151.0718 H   0  0  0  0  0  0  0  0  0  0  0  0
  144.9956  135.8305  149.8811 H   0  0  0  0  0  0  0  0  0  0  0  0
  146.6116  135.7610  150.5818 H   0  0  0  0  0  0  0  0  0  0  0  0
  147.6270  134.9932  152.4231 H   0  0  0  0  0  0  0  0  0  0  0  0
  1  2  1  0  0  0  0
  1 24  1  0  0  0  0
  1 25  1  0  0  0  0
  1 26  1  0  0  0  0
  2 23  1  0  0  0  0
  2  3  1  0  0  0  0
  2 27  1  0  0  0  0
  3  4  1  0  0  0  0
  3 28  1  0  0  0  0
  3 29  1  0  0  0  0
  4  5  1  0  0  0  0
  4 20  1  0  0  0  0
  4 53  1  0  0  0  0
  5  6  1  0  0  0  0
  5 17  1  0  0  0  0
  5 30  1  0  0  0  0
  6  7  2  0  0  0  0
  6  8  1  0  0  0  0
  8  9  1  0  0  0  0
  8 31  1  0  0  0  0
  9 10  1  0  0  0  0
  9 32  1  0  0  0  0
  9 33  1  0  0  0  0
 10 11  1  0  0  0  0
 10 34  1  0  0  0  0
 10 35  1  0  0  0  0
 11 16  1  0  0  0  0
 11 12  2  0  0  0  0
 12 13  1  0  0  0  0
 12 36  1  0  0  0  0
 13 14  2  0  0  0  0
 13 37  1  0  0  0  0
 14 15  1  0  0  0  0
 14 38  1  0  0  0  0
 15 16  2  0  0  0  0
 15 39  1  0  0  0  0
 17 18  1  0  0  0  0
 17 19  1  0  0  0  0
 17 40  1  0  0  0  0
 18 41  1  0  0  0  0
 18 42  1  0  0  0  0
 18 43  1  0  0  0  0
 19 44  1  0  0  0  0
 19 45  1  0  0  0  0
 19 46  1  0  0  0  0
 20 21  1  0  0  0  0
 20 47  1  0  0  0  0
 20 48  1  0  0  0  0
 21 22  1  0  0  0  0
 21 23  1  0  0  0  0
 21 49  1  0  0  0  0
 22 50  1  0  0  0  0
 22 51  1  0  0  0  0
 22 52  1  0  0  0  0
M  CHG  1   4   1
M  END
> <s_m_source_file>
AV-unprocessed.smi

> <i_m_source_file_index>
1762

> <i_lp_mmshare_version>
43012

> <i_f3d_flags>
0

> <s_epik_input>
W0NIM11bQ0BASF0xW0NIMl1OKFtDSDJdW0NASF0oTzEpW0NIM10pW0NAQEhdKFtDSF0oW0NIM10pW0NIM10pQyg9TylbTkhdW0NIMl1bQ0gyXWMyW2NIXVtjSF1bY0hdW2NIXW4y

> <s_epik_cmdline>
J2VwaWtfcHl0aG9uJywgJy1waCcsICc3LjAnLCAnLXRuJywgJzgnLCAnLW1hJywgJzIwMCcsICctbWV0YWxfYmluZGluZycsICctaW1hZScsICc8aW5maWxlLm1hZT4nLCAnLW9tYWUnLCAnPG91dGZpbGUubWFlPic=

> <r_epik_Ionization_Penalty>
2.27005

> <r_epik_Ionization_Penalty_Charging>
2.24983

> <r_epik_Ionization_Penalty_Neutral>
0.0202209

> <r_epik_State_Penalty>
2.40228

> <r_epik_Charging_Adjusted_Penalty>
4.65211

> <i_epik_Tot_Q>
1

> <i_epik_Tot_abs_Q>
1

> <r_epik_Metal_State_Penalty>
2.40762

> <b_epik_Metal_Only>
0

> <s_lp_Force_Field>
OPLS_2005

> <r_lp_Energy>
25.3597

> <b_lp_Chiralities_Consistent>
1

> <s_lp_Variant>
AV-unprocessed.smi:1762-15

> <Gold.Version>
5.8.1

> <Gold.Id.Protein>
6NUR|6NUR_protein|mol2

> <Gold.PLP.Fitness>
44.4997

> <Gold.PLP.PLP>
-37.4290

> <Gold.PLP.part.hbond>
-2.4123

> <Gold.PLP.part.metal>
0.0000

> <Gold.PLP.part.buried>
-3.8989

> <Gold.PLP.part.nonpolar>
-31.1798

> <Gold.PLP.part.repulsive>
0.1474

> <Gold.PLP.ligand.clash>
0.0000

> <Gold.PLP.ligand.torsion>
1.0731

> <Gold.PLP.Chemscore.Hbond>
3.0000

> <Gold.PLP.Chemscore.CHOScore>
0.0000

> <Gold.PLP.Chemscore.Metal>
0.0000

> <Gold.Chemscore.Hbonds>
donor molecule, donor type, donor heavy atom, donor atom, acceptor molecule, acceptor atom, score
      L1  H     4    53       P1  7948  2.00
      P1  H  6934  6947       L1    16  1.00

> <Gold.PLP.Chemscore.Internal.Correction>
0.2169

> <Gold.Rescore>
     Score         DG    S(hbond)    S(metal)    S(lipo)     H(rot)  DE(clash)    DE(int)     intcor
     15.41     -18.76       1.88        0.00      96.13       1.66       0.01       3.34       ----

> <Gold.Chemscore.Fitness>
15.4149

> <Gold.Chemscore.DG>
-18.7631

> <Gold.Chemscore.ZeroCoef>
-5.4800

> <Gold.Chemscore.Hbond>
1.8847

> <Gold.Chemscore.Metal>
0.0000

> <Gold.Chemscore.Lipo>
96.1262

> <Gold.Chemscore.Internal_Hbond>
0.0000

> <Gold.Chemscore.DEClash>
0.0131

> <Gold.Chemscore.DEInternal>
3.3352

> <Gold.Chemscore.Rot>
1.6635

> <Gold.Chemscore.Internal.Correction>
   9.000000E+99

> <Gold.Chemscore.Hbonds>
donor molecule, donor type, donor heavy atom, donor atom, acceptor molecule, acceptor atom, score
      L1  H     4    53       P1  7948  0.92
      P1  H  6934  6947       L1    16  0.59

> <Gold.Chemscore.Hbond.Weighted>
-6.2950

> <Gold.Chemscore.Metal.Weighted>
-0.0000

> <Gold.Chemscore.Lipo.Weighted>
-11.2468

> <Gold.Chemscore.Internal_Hbond.Weighted>
0.0000

> <Gold.Chemscore.DEClash.Weighted>
0.0131

> <Gold.Chemscore.DEInternal.Weighted>
3.3352

> <Gold.Chemscore.Rot.Weighted>
4.2586

> <Gold.Chemscore.Internal.Correction.Weighted>
   9.000000E+99

> <Gold.Protein.RotatedTorsions>
[ 6907 6896 6895 6894 ] final -103.73 input  -60.11 | X-H torsion
[ 7974 7965 7964 7962 ] final  -64.45 input  175.53 | X-H torsion
[ 8008 7997 7996 7995 ] final   10.74 input   59.86 | X-H torsion
[ 10167 10162 10161 10158 ] final -173.47 input  -65.29 | X-H torsion
[ 10718 10713 10712 10709 ] final  166.52 input   66.30 | X-H torsion
[ 10763 10752 10751 10750 ] final   -1.53 input  -60.55 | X-H torsion
[ 11005 11000 10999 10996 ] final  177.53 input  -57.11 | X-H torsion

> <Gold.Protein.ActiveResidues>
 VAL166  LYS551  ARG553  GLY616  TRP617  ASP618  TYR619  PRO620  LYS621  CYS622 
 ASP623  PHE694  ASN695  SER759  ASP760  ASP761  ALA762  ILE779  LEU786  VAL792 
 PHE793  MET794  SER795  GLU796  ALA797  LYS798  CYS799  TRP800  GLU811  SER814 

> <Gold.Protein.RotatedAtoms>
  150.7254  134.0385  159.3757 H   0  0  0  0  0  0  0  0  0  0  0  0  # atno 6907 bound_to 6896
  151.8358  135.0604  160.0451 H   0  0  0  0  0  0  0  0  0  0  0  0  # atno 6908 bound_to 6896
  152.2900  133.5516  159.5588 H   0  0  0  0  0  0  0  0  0  0  0  0  # atno 6909 bound_to 6896
  145.7666  140.8834  143.0402 H   0  0  0  0  0  0  0  0  0  0  0  0  # atno 7974 bound_to 7965
  154.7975  140.2846  155.5946 H   0  0  0  0  0  0  0  0  0  0  0  0  # atno 8008 bound_to 7997
  156.2973  140.2593  156.2764 H   0  0  0  0  0  0  0  0  0  0  0  0  # atno 8009 bound_to 7997
  154.9598  140.0378  157.2174 H   0  0  0  0  0  0  0  0  0  0  0  0  # atno 8010 bound_to 7997
  139.5686  144.1695  152.1350 H   0  0  0  0  0  0  0  0  0  0  0  0  # atno 10167 bound_to 10162
  157.0647  131.0350  151.2634 H   0  0  0  0  0  0  0  0  0  0  0  0  # atno 10718 bound_to 10713
  153.3460  135.6983  153.6827 H   0  0  0  0  0  0  0  0  0  0  0  0  # atno 10763 bound_to 10752
  153.5573  135.3542  155.2785 H   0  0  0  0  0  0  0  0  0  0  0  0  # atno 10764 bound_to 10752
  154.8645  135.4241  154.2685 H   0  0  0  0  0  0  0  0  0  0  0  0  # atno 10765 bound_to 10752
  140.3851  134.6912  157.4474 H   0  0  0  0  0  0  0  0  0  0  0  0  # atno 11005 bound_to 11000
  144.6820  139.9796  143.7483 LP  0  0  0  0  0  0  0  0  0  0  0  0  # atno 17320 bound_to 7965
  146.0212  139.3252  143.0812 LP  0  0  0  0  0  0  0  0  0  0  0  0  # atno 17321 bound_to 7965
  140.1223  144.5362  150.6855 LP  0  0  0  0  0  0  0  0  0  0  0  0  # atno 17342 bound_to 10162
  140.6970  143.2410  151.4971 LP  0  0  0  0  0  0  0  0  0  0  0  0  # atno 17343 bound_to 10162
  157.4926  130.7831  149.7523 LP  0  0  0  0  0  0  0  0  0  0  0  0  # atno 17370 bound_to 10713
  155.9968  130.3904  150.2765 LP  0  0  0  0  0  0  0  0  0  0  0  0  # atno 17371 bound_to 10713
  140.0449  134.6214  155.8934 LP  0  0  0  0  0  0  0  0  0  0  0  0  # atno 17394 bound_to 11000
  141.1910  133.6570  156.5437 LP  0  0  0  0  0  0  0  0  0  0  0  0  # atno 17395 bound_to 11000

$$$$
