AV-unprocessed.smi:1048|AV-procd|sdf|4607|dock4
  -GOLD-   22720 3103D 1   1.00000     0.00000
 Structure written by MMmdl.
 46 47  0  0  0  0  0  0  0  0  2 V2000
  144.1971  132.3354  149.8019 C   0  0  0  0  0  0  0  0  0  0  0  0
  145.6139  131.8304  150.1260 C   0  0  2  0  0  0  0  0  0  0  0  0
  145.6485  130.8927  151.3471 C   0  0  0  0  0  0  0  0  0  0  0  0
  145.4741  131.6543  152.6732 C   0  0  0  0  0  0  0  0  0  0  0  0
  146.4894  132.7315  152.8101 N   0  3  2  0  0  0  0  0  0  0  0  0
  146.4529  133.4074  154.1325 C   0  0  0  0  0  0  0  0  0  0  0  0
  147.5385  132.8796  155.0927 C   0  0  1  0  0  0  0  0  0  0  0  0
  147.3615  131.4792  155.1821 O   0  0  0  0  0  0  0  0  0  0  0  0
  148.9552  133.1601  154.5508 C   0  0  0  0  0  0  0  0  0  0  0  0
  149.1771  134.5811  154.2997 N   0  0  0  0  0  0  0  0  0  0  0  0
  149.9666  135.3774  155.0346 C   0  0  0  0  0  0  0  0  0  0  0  0
  150.5705  134.9927  156.0351 O   0  0  0  0  0  0  0  0  0  0  0  0
  149.9860  136.6301  154.5481 N   0  0  0  0  0  0  0  0  0  0  0  0
  150.7247  137.7497  155.0185 C   0  0  0  0  0  0  0  0  0  0  0  0
  151.5240  137.5791  156.1677 C   0  0  0  0  0  0  0  0  0  0  0  0
  152.2518  138.6757  156.6676 C   0  0  0  0  0  0  0  0  0  0  0  0
  152.1442  139.9108  155.9998 C   0  0  0  0  0  0  0  0  0  0  0  0
  151.3721  140.0966  154.9086 N   0  0  0  0  0  0  0  0  0  0  0  0
  150.6778  139.0401  154.4335 C   0  0  0  0  0  0  0  0  0  0  0  0
  146.4259  133.6918  151.6791 C   0  0  0  0  0  0  0  0  0  0  0  0
  146.6215  132.9763  150.3304 C   0  0  0  0  0  0  0  0  0  0  0  0
  143.7755  132.9307  150.6114 H   0  0  0  0  0  0  0  0  0  0  0  0
  143.5190  131.5017  149.6183 H   0  0  0  0  0  0  0  0  0  0  0  0
  144.2004  132.9556  148.9052 H   0  0  0  0  0  0  0  0  0  0  0  0
  145.9413  131.2545  149.2592 H   0  0  0  0  0  0  0  0  0  0  0  0
  144.8824  130.1220  151.2536 H   0  0  0  0  0  0  0  0  0  0  0  0
  146.6040  130.3666  151.3659 H   0  0  0  0  0  0  0  0  0  0  0  0
  144.4732  132.0835  152.7366 H   0  0  0  0  0  0  0  0  0  0  0  0
  145.5614  130.9488  153.4987 H   0  0  0  0  0  0  0  0  0  0  0  0
  146.5990  134.4816  154.0059 H   0  0  0  0  0  0  0  0  0  0  0  0
  145.4597  133.2893  154.5685 H   0  0  0  0  0  0  0  0  0  0  0  0
  147.4267  133.3258  156.0811 H   0  0  0  0  0  0  0  0  0  0  0  0
  146.5796  131.3062  155.6863 H   0  0  0  0  0  0  0  0  0  0  0  0
  149.7256  132.7434  155.2026 H   0  0  0  0  0  0  0  0  0  0  0  0
  149.0784  132.6647  153.5872 H   0  0  0  0  0  0  0  0  0  0  0  0
  148.7125  134.9808  153.4974 H   0  0  0  0  0  0  0  0  0  0  0  0
  149.3697  136.8157  153.7705 H   0  0  0  0  0  0  0  0  0  0  0  0
  151.5842  136.6195  156.6604 H   0  0  0  0  0  0  0  0  0  0  0  0
  152.8770  138.5733  157.5422 H   0  0  0  0  0  0  0  0  0  0  0  0
  152.6879  140.7737  156.3549 H   0  0  0  0  0  0  0  0  0  0  0  0
  150.0597  139.2586  153.5772 H   0  0  0  0  0  0  0  0  0  0  0  0
  145.4735  134.2233  151.7002 H   0  0  0  0  0  0  0  0  0  0  0  0
  147.2075  134.4439  151.7940 H   0  0  0  0  0  0  0  0  0  0  0  0
  147.6340  132.5720  150.2899 H   0  0  0  0  0  0  0  0  0  0  0  0
  146.5510  133.6934  149.5118 H   0  0  0  0  0  0  0  0  0  0  0  0
  147.3973  132.2923  152.7492 H   0  0  0  0  0  0  0  0  0  0  0  0
  1  2  1  0  0  0  0
  1 22  1  0  0  0  0
  1 23  1  0  0  0  0
  1 24  1  0  0  0  0
  2 21  1  0  0  0  0
  2  3  1  0  0  0  0
  2 25  1  0  0  0  0
  3  4  1  0  0  0  0
  3 26  1  0  0  0  0
  3 27  1  0  0  0  0
  4  5  1  0  0  0  0
  4 28  1  0  0  0  0
  4 29  1  0  0  0  0
  5  6  1  0  0  0  0
  5 20  1  0  0  0  0
  5 46  1  0  0  0  0
  6  7  1  0  0  0  0
  6 30  1  0  0  0  0
  6 31  1  0  0  0  0
  7  8  1  0  0  0  0
  7  9  1  0  0  0  0
  7 32  1  0  0  0  0
  8 33  1  0  0  0  0
  9 10  1  0  0  0  0
  9 34  1  0  0  0  0
  9 35  1  0  0  0  0
 10 11  1  0  0  0  0
 10 36  1  0  0  0  0
 11 12  2  0  0  0  0
 11 13  1  0  0  0  0
 13 14  1  0  0  0  0
 13 37  1  0  0  0  0
 14 19  1  0  0  0  0
 14 15  2  0  0  0  0
 15 16  1  0  0  0  0
 15 38  1  0  0  0  0
 16 17  2  0  0  0  0
 16 39  1  0  0  0  0
 17 18  1  0  0  0  0
 17 40  1  0  0  0  0
 18 19  2  0  0  0  0
 19 41  1  0  0  0  0
 20 21  1  0  0  0  0
 20 42  1  0  0  0  0
 20 43  1  0  0  0  0
 21 44  1  0  0  0  0
 21 45  1  0  0  0  0
M  CHG  1   5   1
M  END
> <s_m_source_file>
AV-unprocessed.smi

> <i_m_source_file_index>
1048

> <i_lp_mmshare_version>
43012

> <i_f3d_flags>
0

> <s_epik_input>
W0NIM11bQ0hdMVtDSDJdW0NIMl1OKFtDSDJdW0NIMl0xKVtDSDJdW0NASF0oW09IXSlbQ0gyXVtOSF1DKD1PKVtOSF1jMltjSF1bY0hdW2NIXW5bY0hdMg==

> <s_epik_cmdline>
J2VwaWtfcHl0aG9uJywgJy1waCcsICc3LjAnLCAnLXRuJywgJzgnLCAnLW1hJywgJzIwMCcsICctbWV0YWxfYmluZGluZycsICctaW1hZScsICc8aW5maWxlLm1hZT4nLCAnLW9tYWUnLCAnPG91dGZpbGUubWFlPic=

> <r_lp_tautomer_probability>
1

> <r_epik_Ionization_Penalty>
0.00581049

> <r_epik_Ionization_Penalty_Charging>
0.00147689

> <r_epik_Ionization_Penalty_Neutral>
0.0043336

> <r_epik_State_Penalty>
-0

> <r_epik_Charging_Adjusted_Penalty>
0.00147689

> <i_epik_Tot_Q>
1

> <i_epik_Tot_abs_Q>
1

> <r_epik_Metal_State_Penalty>
-0

> <b_epik_Metal_Only>
0

> <s_lp_Force_Field>
OPLS_2005

> <r_lp_Energy>
24.6749

> <b_lp_Chiralities_Consistent>
1

> <s_lp_Variant>
AV-unprocessed.smi:1048-4

> <Gold.Version>
5.8.1

> <Gold.Id.Protein>
6NUR|6NUR_protein|mol2

> <Gold.PLP.Fitness>
48.1313

> <Gold.PLP.PLP>
-37.2588

> <Gold.PLP.part.hbond>
-4.7582

> <Gold.PLP.part.metal>
0.0000

> <Gold.PLP.part.buried>
-0.5514

> <Gold.PLP.part.nonpolar>
-30.4696

> <Gold.PLP.part.repulsive>
0.2205

> <Gold.PLP.ligand.clash>
0.0000

> <Gold.PLP.ligand.torsion>
0.6913

> <Gold.PLP.Chemscore.Hbond>
3.1479

> <Gold.PLP.Chemscore.CHOScore>
0.8883

> <Gold.PLP.Chemscore.Metal>
0.0000

> <Gold.Chemscore.Hbonds>
donor molecule, donor type, donor heavy atom, donor atom, acceptor molecule, acceptor atom, score
      L1  H    10    36       P1  7948  0.86
      L1  H    13    37       P1  7948  0.83
      P1  H  7989  7998       L1    18  0.95
      L1  C    19    41       P1  7957  0.90

> <Gold.PLP.Chemscore.Internal.Correction>
0.1467

> <Gold.Rescore>
     Score         DG    S(hbond)    S(metal)    S(lipo)     H(rot)  DE(clash)    DE(int)     intcor
     14.61     -16.87       1.74        0.00      97.76       2.29       0.14       2.12       ----

> <Gold.Chemscore.Fitness>
14.6073

> <Gold.Chemscore.DG>
-16.8668

> <Gold.Chemscore.ZeroCoef>
-5.4800

> <Gold.Chemscore.Hbond>
1.7372

> <Gold.Chemscore.Metal>
0.0000

> <Gold.Chemscore.Lipo>
97.7608

> <Gold.Chemscore.Internal_Hbond>
0.0000

> <Gold.Chemscore.DEClash>
0.1358

> <Gold.Chemscore.DEInternal>
2.1236

> <Gold.Chemscore.Rot>
2.2865

> <Gold.Chemscore.Internal.Correction>
   9.000000E+99

> <Gold.Chemscore.Hbonds>
donor molecule, donor type, donor heavy atom, donor atom, acceptor molecule, acceptor atom, score
      L1  H    10    36       P1  7948  0.52
      L1  H    13    37       P1  7948  0.73
      P1  H  7989  7998       L1    18  0.21

> <Gold.Chemscore.Hbond.Weighted>
-5.8023

> <Gold.Chemscore.Metal.Weighted>
-0.0000

> <Gold.Chemscore.Lipo.Weighted>
-11.4380

> <Gold.Chemscore.Internal_Hbond.Weighted>
0.0000

> <Gold.Chemscore.DEClash.Weighted>
0.1358

> <Gold.Chemscore.DEInternal.Weighted>
2.1236

> <Gold.Chemscore.Rot.Weighted>
5.8536

> <Gold.Chemscore.Internal.Correction.Weighted>
   9.000000E+99

> <Gold.Protein.RotatedTorsions>
[ 6907 6896 6895 6894 ] final -156.00 input  -60.11 | X-H torsion
[ 7974 7965 7964 7962 ] final   80.50 input  175.53 | X-H torsion
[ 8008 7997 7996 7995 ] final   15.98 input   59.86 | X-H torsion
[ 10167 10162 10161 10158 ] final -127.24 input  -65.29 | X-H torsion
[ 10718 10713 10712 10709 ] final   49.27 input   66.30 | X-H torsion
[ 10763 10752 10751 10750 ] final -169.86 input  -60.55 | X-H torsion
[ 11005 11000 10999 10996 ] final  163.93 input  -57.11 | X-H torsion

> <Gold.Protein.ActiveResidues>
 VAL166  LYS551  ARG553  GLY616  TRP617  ASP618  TYR619  PRO620  LYS621  CYS622 
 ASP623  PHE694  ASN695  SER759  ASP760  ASP761  ALA762  ILE779  LEU786  VAL792 
 PHE793  MET794  SER795  GLU796  ALA797  LYS798  CYS799  TRP800  GLU811  SER814 

> <Gold.Protein.RotatedAtoms>
  151.2810  133.4210  159.2626 H   0  0  0  0  0  0  0  0  0  0  0  0  # atno 6907 bound_to 6896
  151.0361  134.9574  159.8147 H   0  0  0  0  0  0  0  0  0  0  0  0  # atno 6908 bound_to 6896
  152.5356  134.2769  159.9045 H   0  0  0  0  0  0  0  0  0  0  0  0  # atno 6909 bound_to 6896
  145.6504  139.2446  143.1980 H   0  0  0  0  0  0  0  0  0  0  0  0  # atno 7974 bound_to 7965
  154.8704  140.2958  155.5485 H   0  0  0  0  0  0  0  0  0  0  0  0  # atno 8008 bound_to 7997
  156.3021  140.2461  156.3625 H   0  0  0  0  0  0  0  0  0  0  0  0  # atno 8009 bound_to 7997
  154.8823  140.0397  157.1779 H   0  0  0  0  0  0  0  0  0  0  0  0  # atno 8010 bound_to 7997
  139.9630  143.5929  152.2439 H   0  0  0  0  0  0  0  0  0  0  0  0  # atno 10167 bound_to 10162
  157.4770  130.8291  149.8051 H   0  0  0  0  0  0  0  0  0  0  0  0  # atno 10718 bound_to 10713
  154.6478  135.2907  155.0024 H   0  0  0  0  0  0  0  0  0  0  0  0  # atno 10763 bound_to 10752
  154.1128  135.6560  153.4892 H   0  0  0  0  0  0  0  0  0  0  0  0  # atno 10764 bound_to 10752
  153.0360  135.5269  154.7373 H   0  0  0  0  0  0  0  0  0  0  0  0  # atno 10765 bound_to 10752
  140.2408  134.8052  157.3409 H   0  0  0  0  0  0  0  0  0  0  0  0  # atno 11005 bound_to 11000
  146.1209  140.7310  142.9458 LP  0  0  0  0  0  0  0  0  0  0  0  0  # atno 17320 bound_to 7965
  144.7125  140.4090  143.7070 LP  0  0  0  0  0  0  0  0  0  0  0  0  # atno 17321 bound_to 7965
  139.6539  144.7661  151.2093 LP  0  0  0  0  0  0  0  0  0  0  0  0  # atno 17342 bound_to 10162
  140.7547  143.6116  150.8600 LP  0  0  0  0  0  0  0  0  0  0  0  0  # atno 17343 bound_to 10162
  156.0102  130.3837  150.2291 LP  0  0  0  0  0  0  0  0  0  0  0  0  # atno 17370 bound_to 10713
  157.0476  131.0053  151.3264 LP  0  0  0  0  0  0  0  0  0  0  0  0  # atno 17371 bound_to 10713
  140.1655  134.4674  155.7866 LP  0  0  0  0  0  0  0  0  0  0  0  0  # atno 17394 bound_to 11000
  141.2210  133.6919  156.7618 LP  0  0  0  0  0  0  0  0  0  0  0  0  # atno 17395 bound_to 11000

$$$$
