AV-unprocessed.smi:155|AV-procd|sdf|1278|dock10
  -GOLD-   2262018543D 1   1.00000     0.00000
 Structure written by MMmdl.
 63 66  0  0  0  0  0  0  0  0  2 V2000
  144.3361  132.6712  150.1361 C   0  0  0  0  0  0  0  0  0  0  0  0
  145.2216  133.8522  150.0078 N   0  3  0  0  0  0  0  0  0  0  0  0
  146.4924  133.6559  150.7402 C   0  0  0  0  0  0  0  0  0  0  0  0
  144.5540  135.1266  150.3740 C   0  0  0  0  0  0  0  0  0  0  0  0
  144.3034  135.2404  151.8926 C   0  0  0  0  0  0  0  0  0  0  0  0
  144.3389  136.6301  152.3496 N   0  0  0  0  0  0  0  0  0  0  0  0
  143.2748  136.9339  153.3183 C   0  0  0  0  0  0  0  0  0  0  0  0
  143.6273  136.6357  154.7909 C   0  0  0  0  0  0  0  0  0  0  0  0
  144.2981  137.8323  155.4928 C   0  0  0  0  0  0  0  0  0  0  0  0
  145.6375  138.1261  154.9804 N   0  0  0  0  0  0  0  0  0  0  0  0
  146.4695  138.8612  155.7617 C   0  0  0  0  0  0  0  0  0  0  0  0
  146.2083  138.9908  157.0900 N   0  0  0  0  0  0  0  0  0  0  0  0
  147.0097  139.7251  157.8672 C   0  0  0  0  0  0  0  0  0  0  0  0
  148.1097  140.4005  157.5297 N   0  0  0  0  0  0  0  0  0  0  0  0
  148.3859  140.2641  156.2013 C   0  0  0  0  0  0  0  0  0  0  0  0
  147.6259  139.5197  155.2549 C   0  0  0  0  0  0  0  0  0  0  0  0
  148.2193  139.6049  154.0006 N   0  0  0  0  0  0  0  0  0  0  0  0
  149.2619  140.3662  154.1920 C   0  0  0  0  0  0  0  0  0  0  0  0
  149.4468  140.7944  155.4873 N   0  0  0  0  0  0  0  0  0  0  0  0
  150.5124  141.6549  155.9732 C   0  0  0  0  0  0  0  0  0  0  0  0
  150.5518  141.7914  157.5124 C   0  0  1  0  0  0  0  0  0  0  0  0
  150.8001  140.4913  158.0070 O   0  0  0  0  0  0  0  0  0  0  0  0
  151.6689  142.7041  158.0668 C   0  0  1  0  0  0  0  0  0  0  0  0
  151.5784  144.1857  157.6901 C   0  0  0  0  0  0  0  0  0  0  0  0
  152.2909  144.9018  158.8265 C   0  0  0  0  0  0  0  0  0  0  0  0
  152.3898  143.8420  159.9239 C   0  0  0  0  0  0  0  0  0  0  0  0
  151.5518  142.7854  159.4803 O   0  0  0  0  0  0  0  0  0  0  0  0
  145.8024  138.2964  153.5374 C   0  0  0  0  0  0  0  0  0  0  0  0
  145.6927  136.9423  152.8180 C   0  0  0  0  0  0  0  0  0  0  0  0
  144.0300  132.5232  151.1725 H   0  0  0  0  0  0  0  0  0  0  0  0
  144.8519  131.7693  149.8043 H   0  0  0  0  0  0  0  0  0  0  0  0
  143.4375  132.7716  149.5286 H   0  0  0  0  0  0  0  0  0  0  0  0
  146.3180  133.5917  151.8152 H   0  0  0  0  0  0  0  0  0  0  0  0
  147.1802  134.4814  150.5531 H   0  0  0  0  0  0  0  0  0  0  0  0
  146.9866  132.7384  150.4185 H   0  0  0  0  0  0  0  0  0  0  0  0
  145.1588  135.9610  150.0143 H   0  0  0  0  0  0  0  0  0  0  0  0
  143.5984  135.1919  149.8531 H   0  0  0  0  0  0  0  0  0  0  0  0
  143.3637  134.7623  152.1728 H   0  0  0  0  0  0  0  0  0  0  0  0
  145.0894  134.6988  152.4183 H   0  0  0  0  0  0  0  0  0  0  0  0
  143.0165  137.9890  153.2234 H   0  0  0  0  0  0  0  0  0  0  0  0
  142.3626  136.4033  153.0510 H   0  0  0  0  0  0  0  0  0  0  0  0
  142.6963  136.4310  155.3203 H   0  0  0  0  0  0  0  0  0  0  0  0
  144.2245  135.7287  154.8913 H   0  0  0  0  0  0  0  0  0  0  0  0
  143.6728  138.7212  155.3978 H   0  0  0  0  0  0  0  0  0  0  0  0
  144.3667  137.6089  156.5584 H   0  0  0  0  0  0  0  0  0  0  0  0
  146.7283  139.7802  158.9084 H   0  0  0  0  0  0  0  0  0  0  0  0
  149.9320  140.6337  153.3879 H   0  0  0  0  0  0  0  0  0  0  0  0
  151.4498  141.2269  155.6145 H   0  0  0  0  0  0  0  0  0  0  0  0
  150.4259  142.6371  155.5069 H   0  0  0  0  0  0  0  0  0  0  0  0
  149.5799  142.1165  157.8854 H   0  0  0  0  0  0  0  0  0  0  0  0
  150.1716  140.3086  158.6892 H   0  0  0  0  0  0  0  0  0  0  0  0
  152.6553  142.3171  157.8017 H   0  0  0  0  0  0  0  0  0  0  0  0
  152.0285  144.4018  156.7216 H   0  0  0  0  0  0  0  0  0  0  0  0
  150.5364  144.5061  157.6603 H   0  0  0  0  0  0  0  0  0  0  0  0
  153.2833  145.2418  158.5281 H   0  0  0  0  0  0  0  0  0  0  0  0
  151.7208  145.7717  159.1551 H   0  0  0  0  0  0  0  0  0  0  0  0
  153.4136  143.4756  160.0137 H   0  0  0  0  0  0  0  0  0  0  0  0
  152.0730  144.2144  160.8984 H   0  0  0  0  0  0  0  0  0  0  0  0
  145.0748  139.0132  153.1549 H   0  0  0  0  0  0  0  0  0  0  0  0
  146.7766  138.7292  153.3118 H   0  0  0  0  0  0  0  0  0  0  0  0
  146.0801  136.1480  153.4588 H   0  0  0  0  0  0  0  0  0  0  0  0
  146.3392  136.9619  151.9399 H   0  0  0  0  0  0  0  0  0  0  0  0
  145.4715  133.9291  149.0321 H   0  0  0  0  0  0  0  0  0  0  0  0
  1  2  1  0  0  0  0
  1 30  1  0  0  0  0
  1 31  1  0  0  0  0
  1 32  1  0  0  0  0
  2  3  1  0  0  0  0
  2  4  1  0  0  0  0
  2 63  1  0  0  0  0
  3 33  1  0  0  0  0
  3 34  1  0  0  0  0
  3 35  1  0  0  0  0
  4  5  1  0  0  0  0
  4 36  1  0  0  0  0
  4 37  1  0  0  0  0
  5  6  1  0  0  0  0
  5 38  1  0  0  0  0
  5 39  1  0  0  0  0
  6 29  1  0  0  0  0
  6  7  1  0  0  0  0
  7  8  1  0  0  0  0
  7 40  1  0  0  0  0
  7 41  1  0  0  0  0
  8  9  1  0  0  0  0
  8 42  1  0  0  0  0
  8 43  1  0  0  0  0
  9 10  1  0  0  0  0
  9 44  1  0  0  0  0
  9 45  1  0  0  0  0
 10 11  1  0  0  0  0
 10 28  1  0  0  0  0
 11 16  1  0  0  0  0
 11 12  2  0  0  0  0
 12 13  1  0  0  0  0
 13 14  2  0  0  0  0
 13 46  1  0  0  0  0
 14 15  1  0  0  0  0
 15 19  1  0  0  0  0
 15 16  2  0  0  0  0
 16 17  1  0  0  0  0
 17 18  2  0  0  0  0
 18 19  1  0  0  0  0
 18 47  1  0  0  0  0
 19 20  1  0  0  0  0
 20 21  1  0  0  0  0
 20 48  1  0  0  0  0
 20 49  1  0  0  0  0
 21 22  1  0  0  0  0
 21 23  1  0  0  0  0
 21 50  1  0  0  0  0
 22 51  1  0  0  0  0
 23 27  1  0  0  0  0
 23 24  1  0  0  0  0
 23 52  1  0  0  0  0
 24 25  1  0  0  0  0
 24 53  1  0  0  0  0
 24 54  1  0  0  0  0
 25 26  1  0  0  0  0
 25 55  1  0  0  0  0
 25 56  1  0  0  0  0
 26 27  1  0  0  0  0
 26 57  1  0  0  0  0
 26 58  1  0  0  0  0
 28 29  1  0  0  0  0
 28 59  1  0  0  0  0
 28 60  1  0  0  0  0
 29 61  1  0  0  0  0
 29 62  1  0  0  0  0
M  CHG  1   2   1
M  END
> <s_m_source_file>
AV-unprocessed.smi

> <i_m_source_file_index>
155

> <i_lp_mmshare_version>
43012

> <i_f3d_flags>
0

> <s_epik_input>
W0NIM11OKFtDSDNdKVtDSDJdW0NIMl1OMVtDSDJdW0NIMl1bQ0gyXU4oW0NIMl1bQ0gyXTEpYyhuW2NIXW4yKWMoYzIzKW5bY0hdbjNbQ0gyXVtDQEhdKFtPSF0pW0NAQEhdNFtDSDJdW0NIMl1bQ0gyXU80

> <s_epik_cmdline>
J2VwaWtfcHl0aG9uJywgJy1waCcsICc3LjAnLCAnLXRuJywgJzgnLCAnLW1hJywgJzIwMCcsICctbWV0YWxfYmluZGluZycsICctaW1hZScsICc8aW5maWxlLm1hZT4nLCAnLW9tYWUnLCAnPG91dGZpbGUubWFlPic=

> <r_lp_tautomer_probability>
1

> <r_epik_Ionization_Penalty>
0.0599493

> <r_epik_Ionization_Penalty_Charging>
0.00816363

> <r_epik_Ionization_Penalty_Neutral>
0.0517857

> <r_epik_State_Penalty>
0.460607

> <r_epik_Charging_Adjusted_Penalty>
0.468771

> <i_epik_Tot_Q>
1

> <i_epik_Tot_abs_Q>
1

> <r_epik_Metal_State_Penalty>
0.45965

> <b_epik_Metal_Only>
0

> <s_lp_Force_Field>
OPLS_2005

> <r_lp_Energy>
60.0635

> <b_lp_Chiralities_Consistent>
1

> <s_lp_Variant>
AV-unprocessed.smi:155-12

> <Gold.Version>
5.8.1

> <Gold.Id.Protein>
6NUR|6NUR_protein|mol2

> <Gold.PLP.Fitness>
45.6094

> <Gold.PLP.PLP>
-41.5393

> <Gold.PLP.part.hbond>
-1.0000

> <Gold.PLP.part.metal>
0.0000

> <Gold.PLP.part.buried>
-4.4533

> <Gold.PLP.part.nonpolar>
-38.0092

> <Gold.PLP.part.repulsive>
1.3053

> <Gold.PLP.ligand.clash>
0.0000

> <Gold.PLP.ligand.torsion>
0.9596

> <Gold.PLP.Chemscore.Hbond>
0.9920

> <Gold.PLP.Chemscore.CHOScore>
0.8822

> <Gold.PLP.Chemscore.Metal>
0.0000

> <Gold.Chemscore.Hbonds>
donor molecule, donor type, donor heavy atom, donor atom, acceptor molecule, acceptor atom, score
      L1  H     2    63       P1  7921  1.00
      L1  C    18    47       P1  7957  0.90

> <Gold.PLP.Chemscore.Internal.Correction>
0.3667

> <Gold.Rescore>
     Score         DG    S(hbond)    S(metal)    S(lipo)     H(rot)  DE(clash)    DE(int)     intcor
      9.61     -14.13       0.98        0.00     105.35       2.71       0.71       3.81       ----

> <Gold.Chemscore.Fitness>
9.6127

> <Gold.Chemscore.DG>
-14.1310

> <Gold.Chemscore.ZeroCoef>
-5.4800

> <Gold.Chemscore.Hbond>
0.9753

> <Gold.Chemscore.Metal>
0.0000

> <Gold.Chemscore.Lipo>
105.3506

> <Gold.Chemscore.Internal_Hbond>
0.0000

> <Gold.Chemscore.DEClash>
0.7104

> <Gold.Chemscore.DEInternal>
3.8078

> <Gold.Chemscore.Rot>
2.7080

> <Gold.Chemscore.Internal.Correction>
   9.000000E+99

> <Gold.Chemscore.Hbonds>
donor molecule, donor type, donor heavy atom, donor atom, acceptor molecule, acceptor atom, score
      L1  H     2    63       P1  7921  0.68

> <Gold.Chemscore.Hbond.Weighted>
-3.2575

> <Gold.Chemscore.Metal.Weighted>
-0.0000

> <Gold.Chemscore.Lipo.Weighted>
-12.3260

> <Gold.Chemscore.Internal_Hbond.Weighted>
0.0000

> <Gold.Chemscore.DEClash.Weighted>
0.7104

> <Gold.Chemscore.DEInternal.Weighted>
3.8078

> <Gold.Chemscore.Rot.Weighted>
6.9326

> <Gold.Chemscore.Internal.Correction.Weighted>
   9.000000E+99

> <Gold.Protein.RotatedTorsions>
[ 6907 6896 6895 6894 ] final  -82.82 input  -60.11 | X-H torsion
[ 7974 7965 7964 7962 ] final  -15.54 input  175.53 | X-H torsion
[ 8008 7997 7996 7995 ] final  139.86 input   59.86 | X-H torsion
[ 10167 10162 10161 10158 ] final -117.46 input  -65.29 | X-H torsion
[ 10718 10713 10712 10709 ] final  -88.47 input   66.30 | X-H torsion
[ 10763 10752 10751 10750 ] final  160.81 input  -60.55 | X-H torsion
[ 11005 11000 10999 10996 ] final   39.93 input  -57.11 | X-H torsion

> <Gold.Protein.ActiveResidues>
 VAL166  LYS551  ARG553  GLY616  TRP617  ASP618  TYR619  PRO620  LYS621  CYS622 
 ASP623  PHE694  ASN695  SER759  ASP760  ASP761  ALA762  ILE779  LEU786  VAL792 
 PHE793  MET794  SER795  GLU796  ALA797  LYS798  CYS799  TRP800  GLU811  SER814 

> <Gold.Protein.RotatedAtoms>
  150.6892  134.3606  159.4948 H   0  0  0  0  0  0  0  0  0  0  0  0  # atno 6907 bound_to 6896
  152.1435  134.9041  160.0561 H   0  0  0  0  0  0  0  0  0  0  0  0  # atno 6908 bound_to 6896
  152.0166  133.3847  159.4278 H   0  0  0  0  0  0  0  0  0  0  0  0  # atno 6909 bound_to 6896
  146.2027  140.3508  142.8417 H   0  0  0  0  0  0  0  0  0  0  0  0  # atno 7974 bound_to 7965
  156.2985  140.2356  156.4307 H   0  0  0  0  0  0  0  0  0  0  0  0  # atno 8008 bound_to 7997
  154.8272  140.0435  157.1472 H   0  0  0  0  0  0  0  0  0  0  0  0  # atno 8009 bound_to 7997
  154.9248  140.3008  155.5201 H   0  0  0  0  0  0  0  0  0  0  0  0  # atno 8010 bound_to 7997
  140.0681  143.4904  152.1995 H   0  0  0  0  0  0  0  0  0  0  0  0  # atno 10167 bound_to 10162
  155.9983  130.4837  150.5024 H   0  0  0  0  0  0  0  0  0  0  0  0  # atno 10718 bound_to 10713
  154.2532  135.2771  155.2808 H   0  0  0  0  0  0  0  0  0  0  0  0  # atno 10763 bound_to 10752
  154.5447  135.5692  153.6873 H   0  0  0  0  0  0  0  0  0  0  0  0  # atno 10764 bound_to 10752
  152.9976  135.6260  154.2680 H   0  0  0  0  0  0  0  0  0  0  0  0  # atno 10765 bound_to 10752
  140.1979  134.3906  155.8111 H   0  0  0  0  0  0  0  0  0  0  0  0  # atno 11005 bound_to 11000
  144.8721  140.7286  143.6040 LP  0  0  0  0  0  0  0  0  0  0  0  0  # atno 17320 bound_to 7965
  145.3427  139.1727  143.4477 LP  0  0  0  0  0  0  0  0  0  0  0  0  # atno 17321 bound_to 7965
  139.5853  144.7528  151.3537 LP  0  0  0  0  0  0  0  0  0  0  0  0  # atno 17342 bound_to 10162
  140.7139  143.7318  150.7618 LP  0  0  0  0  0  0  0  0  0  0  0  0  # atno 17343 bound_to 10162
  157.3007  131.0644  151.2070 LP  0  0  0  0  0  0  0  0  0  0  0  0  # atno 17370 bound_to 10713
  157.3050  130.6861  149.6184 LP  0  0  0  0  0  0  0  0  0  0  0  0  # atno 17371 bound_to 10713
  141.2227  133.7079  156.8208 LP  0  0  0  0  0  0  0  0  0  0  0  0  # atno 17394 bound_to 11000
  140.2086  134.8844  157.3249 LP  0  0  0  0  0  0  0  0  0  0  0  0  # atno 17395 bound_to 11000

$$$$
