AV-unprocessed.smi:1630|AV-procd|sdf|6525|dock3
  -GOLD-   22720 7203D 1   1.00000     0.00000
 Structure written by MMmdl.
 36 37  0  0  0  0  0  0  0  0  1 V2000
  154.5832  130.9397  160.0523 C   0  0  0  0  0  0  0  0  0  0  0  0
  154.6460  131.9345  158.5067 S   0  0  0  0  0  0  0  0  0  0  0  0
  154.0105  133.2352  158.7690 O   0  0  0  0  0  0  0  0  0  0  0  0
  156.0256  131.8904  157.9974 O   0  0  0  0  0  0  0  0  0  0  0  0
  153.5981  131.0286  157.3734 C   0  0  0  0  0  0  0  0  0  0  0  0
  152.2885  131.4727  157.1008 C   0  0  0  0  0  0  0  0  0  0  0  0
  151.5183  130.7419  156.1759 C   0  0  0  0  0  0  0  0  0  0  0  0
  152.0939  129.6098  155.5475 C   0  0  0  0  0  0  0  0  0  0  0  0
  151.4217  128.7768  154.6120 N   0  0  0  0  0  0  0  0  0  0  0  0
  150.1016  128.6672  154.3620 C   0  0  0  0  0  0  0  0  0  0  0  0
  149.2247  129.3271  154.9146 O   0  0  0  0  0  0  0  0  0  0  0  0
  149.7946  127.7547  153.4218 N   0  0  0  0  0  0  0  0  0  0  0  0
  148.4706  127.3861  152.9137 C   0  0  0  0  0  0  0  0  0  0  0  0
  148.5846  126.7376  151.5209 C   0  0  0  0  0  0  0  0  0  0  0  0
  147.5064  127.3956  150.6591 C   0  0  0  0  0  0  0  0  0  0  0  0
  147.3820  128.8045  151.2281 C   0  0  0  0  0  0  0  0  0  0  0  0
  147.5575  128.6178  152.7358 C   0  0  0  0  0  0  0  0  0  0  0  0
  153.4171  129.2642  155.8971 C   0  0  0  0  0  0  0  0  0  0  0  0
  154.1655  129.9565  156.7813 N   0  0  0  0  0  0  0  0  0  0  0  0
  155.1953  131.4180  160.8165 H   0  0  0  0  0  0  0  0  0  0  0  0
  154.9638  129.9377  159.8560 H   0  0  0  0  0  0  0  0  0  0  0  0
  153.5527  130.8748  160.4010 H   0  0  0  0  0  0  0  0  0  0  0  0
  151.8769  132.3436  157.5890 H   0  0  0  0  0  0  0  0  0  0  0  0
  150.5067  131.0596  155.9805 H   0  0  0  0  0  0  0  0  0  0  0  0
  152.0233  128.2117  154.0305 H   0  0  0  0  0  0  0  0  0  0  0  0
  150.5699  127.2402  153.0288 H   0  0  0  0  0  0  0  0  0  0  0  0
  147.9977  126.6759  153.5943 H   0  0  0  0  0  0  0  0  0  0  0  0
  149.5614  126.9445  151.0800 H   0  0  0  0  0  0  0  0  0  0  0  0
  148.4727  125.6537  151.5589 H   0  0  0  0  0  0  0  0  0  0  0  0
  147.7560  127.3910  149.5976 H   0  0  0  0  0  0  0  0  0  0  0  0
  146.5613  126.8654  150.7825 H   0  0  0  0  0  0  0  0  0  0  0  0
  148.1863  129.4298  150.8383 H   0  0  0  0  0  0  0  0  0  0  0  0
  146.4352  129.2803  150.9712 H   0  0  0  0  0  0  0  0  0  0  0  0
  146.5869  128.4114  153.1884 H   0  0  0  0  0  0  0  0  0  0  0  0
  147.9446  129.5200  153.2110 H   0  0  0  0  0  0  0  0  0  0  0  0
  153.8945  128.4050  155.4488 H   0  0  0  0  0  0  0  0  0  0  0  0
  1  2  1  0  0  0  0
  1 20  1  0  0  0  0
  1 21  1  0  0  0  0
  1 22  1  0  0  0  0
  2  3  2  0  0  0  0
  2  4  2  0  0  0  0
  2  5  1  0  0  0  0
  5 19  1  0  0  0  0
  5  6  2  0  0  0  0
  6  7  1  0  0  0  0
  6 23  1  0  0  0  0
  7  8  2  0  0  0  0
  7 24  1  0  0  0  0
  8  9  1  0  0  0  0
  8 18  1  0  0  0  0
  9 10  1  0  0  0  0
  9 25  1  0  0  0  0
 10 11  2  0  0  0  0
 10 12  1  0  0  0  0
 12 13  1  0  0  0  0
 12 26  1  0  0  0  0
 13 17  1  0  0  0  0
 13 14  1  0  0  0  0
 13 27  1  0  0  0  0
 14 15  1  0  0  0  0
 14 28  1  0  0  0  0
 14 29  1  0  0  0  0
 15 16  1  0  0  0  0
 15 30  1  0  0  0  0
 15 31  1  0  0  0  0
 16 17  1  0  0  0  0
 16 32  1  0  0  0  0
 16 33  1  0  0  0  0
 17 34  1  0  0  0  0
 17 35  1  0  0  0  0
 18 19  2  0  0  0  0
 18 36  1  0  0  0  0
M  END
> <s_m_source_file>
AV-unprocessed.smi

> <i_m_source_file_index>
1630

> <i_lp_mmshare_version>
43012

> <i_f3d_flags>
0

> <s_epik_input>
W0NIM11TKD1PKSg9TyljMVtjSF1bY0hdYyhbY0hdbjEpW05IXUMoPU8pW05IXVtDSF0yW0NIMl1bQ0gyXVtDSDJdW0NIMl0y

> <s_epik_cmdline>
J2VwaWtfcHl0aG9uJywgJy1waCcsICc3LjAnLCAnLXRuJywgJzgnLCAnLW1hJywgJzIwMCcsICctbWV0YWxfYmluZGluZycsICctaW1hZScsICc8aW5maWxlLm1hZT4nLCAnLW9tYWUnLCAnPG91dGZpbGUubWFlPic=

> <r_lp_tautomer_probability>
1

> <r_epik_Ionization_Penalty>
4.04514e-05

> <r_epik_Ionization_Penalty_Charging>
0

> <r_epik_Ionization_Penalty_Neutral>
4.04514e-05

> <r_epik_State_Penalty>
-0

> <r_epik_Charging_Adjusted_Penalty>
0

> <i_epik_Tot_Q>
0

> <i_epik_Tot_abs_Q>
0

> <r_epik_Metal_State_Penalty>
-0

> <b_epik_Metal_Only>
0

> <s_lp_Force_Field>
OPLS_2005

> <r_lp_Energy>
32.1208

> <b_lp_Chiralities_Consistent>
1

> <s_lp_Variant>
AV-unprocessed.smi:1630-1

> <Gold.Version>
5.8.1

> <Gold.Id.Protein>
6NUR|6NUR_protein|mol2

> <Gold.PLP.Fitness>
37.1656

> <Gold.PLP.PLP>
-29.0259

> <Gold.PLP.part.hbond>
-3.0000

> <Gold.PLP.part.metal>
0.0000

> <Gold.PLP.part.buried>
-3.9765

> <Gold.PLP.part.nonpolar>
-21.9281

> <Gold.PLP.part.repulsive>
0.1684

> <Gold.PLP.ligand.clash>
0.0000

> <Gold.PLP.ligand.torsion>
1.3823

> <Gold.PLP.Chemscore.Hbond>
2.9600

> <Gold.PLP.Chemscore.CHOScore>
0.0000

> <Gold.PLP.Chemscore.Metal>
0.0000

> <Gold.Chemscore.Hbonds>
donor molecule, donor type, donor heavy atom, donor atom, acceptor molecule, acceptor atom, score
      L1  H     9    25       P1 10737  0.16
      L1  H    12    26       P1 10737  0.67
      P1  H  6896  6908       L1     3  1.00

> <Gold.PLP.Chemscore.Internal.Correction>
2.0244

> <Gold.Rescore>
     Score         DG    S(hbond)    S(metal)    S(lipo)     H(rot)  DE(clash)    DE(int)     intcor
     16.28     -18.89       2.55        0.00      63.57       1.00       0.36       2.25       ----

> <Gold.Chemscore.Fitness>
16.2782

> <Gold.Chemscore.DG>
-18.8869

> <Gold.Chemscore.ZeroCoef>
-5.4800

> <Gold.Chemscore.Hbond>
2.5536

> <Gold.Chemscore.Metal>
0.0000

> <Gold.Chemscore.Lipo>
63.5727

> <Gold.Chemscore.Internal_Hbond>
0.0000

> <Gold.Chemscore.DEClash>
0.3584

> <Gold.Chemscore.DEInternal>
2.2503

> <Gold.Chemscore.Rot>
1.0000

> <Gold.Chemscore.Internal.Correction>
   9.000000E+99

> <Gold.Chemscore.Hbonds>
donor molecule, donor type, donor heavy atom, donor atom, acceptor molecule, acceptor atom, score
      L1  H     9    25       P1 10737  0.15
      L1  H    12    26       P1 10737  0.64
      P1  H  6896  6908       L1     3  1.00

> <Gold.Chemscore.Hbond.Weighted>
-8.5289

> <Gold.Chemscore.Metal.Weighted>
-0.0000

> <Gold.Chemscore.Lipo.Weighted>
-7.4380

> <Gold.Chemscore.Internal_Hbond.Weighted>
0.0000

> <Gold.Chemscore.DEClash.Weighted>
0.3584

> <Gold.Chemscore.DEInternal.Weighted>
2.2503

> <Gold.Chemscore.Rot.Weighted>
2.5600

> <Gold.Chemscore.Internal.Correction.Weighted>
   9.000000E+99

> <Gold.Protein.RotatedTorsions>
[ 6907 6896 6895 6894 ] final    2.27 input  -60.11 | X-H torsion
[ 7974 7965 7964 7962 ] final  -14.54 input  175.53 | X-H torsion
[ 8008 7997 7996 7995 ] final   47.71 input   59.86 | X-H torsion
[ 10167 10162 10161 10158 ] final   89.87 input  -65.29 | X-H torsion
[ 10718 10713 10712 10709 ] final   29.21 input   66.30 | X-H torsion
[ 10763 10752 10751 10750 ] final   84.37 input  -60.55 | X-H torsion
[ 11005 11000 10999 10996 ] final  -51.23 input  -57.11 | X-H torsion

> <Gold.Protein.ActiveResidues>
 VAL166  LYS551  ARG553  GLY616  TRP617  ASP618  TYR619  PRO620  LYS621  CYS622 
 ASP623  PHE694  ASN695  SER759  ASP760  ASP761  ALA762  ILE779  LEU786  VAL792 
 PHE793  MET794  SER795  GLU796  ALA797  LYS798  CYS799  TRP800  GLU811  SER814 

> <Gold.Protein.RotatedAtoms>
  151.6062  135.1044  160.0070 H   0  0  0  0  0  0  0  0  0  0  0  0  # atno 6907 bound_to 6896
  152.4232  133.7147  159.6510 H   0  0  0  0  0  0  0  0  0  0  0  0  # atno 6908 bound_to 6896
  150.8120  133.8332  159.3200 H   0  0  0  0  0  0  0  0  0  0  0  0  # atno 6909 bound_to 6896
  146.2070  140.3363  142.8404 H   0  0  0  0  0  0  0  0  0  0  0  0  # atno 7974 bound_to 7965
  155.3735  140.3425  155.4244 H   0  0  0  0  0  0  0  0  0  0  0  0  # atno 8008 bound_to 7997
  156.1649  140.1613  156.8582 H   0  0  0  0  0  0  0  0  0  0  0  0  # atno 8009 bound_to 7997
  154.5176  140.0775  156.8092 H   0  0  0  0  0  0  0  0  0  0  0  0  # atno 8010 bound_to 7997
  139.8530  144.6584  150.9147 H   0  0  0  0  0  0  0  0  0  0  0  0  # atno 10167 bound_to 10162
  157.2436  130.7081  149.6371 H   0  0  0  0  0  0  0  0  0  0  0  0  # atno 10718 bound_to 10713
  153.1376  135.4656  154.9445 H   0  0  0  0  0  0  0  0  0  0  0  0  # atno 10763 bound_to 10752
  154.7719  135.3161  154.8174 H   0  0  0  0  0  0  0  0  0  0  0  0  # atno 10764 bound_to 10752
  153.8704  135.6904  153.4829 H   0  0  0  0  0  0  0  0  0  0  0  0  # atno 10765 bound_to 10752
  141.0859  133.6642  156.3847 H   0  0  0  0  0  0  0  0  0  0  0  0  # atno 11005 bound_to 11000
  144.8816  140.7408  143.5983 LP  0  0  0  0  0  0  0  0  0  0  0  0  # atno 17320 bound_to 7965
  145.3284  139.1767  143.4550 LP  0  0  0  0  0  0  0  0  0  0  0  0  # atno 17321 bound_to 7965
  140.7785  143.3811  151.1476 LP  0  0  0  0  0  0  0  0  0  0  0  0  # atno 17342 bound_to 10162
  139.7447  143.8870  152.3060 LP  0  0  0  0  0  0  0  0  0  0  0  0  # atno 17343 bound_to 10162
  155.9669  130.4450  150.5484 LP  0  0  0  0  0  0  0  0  0  0  0  0  # atno 17370 bound_to 10713
  157.3352  131.0707  151.1830 LP  0  0  0  0  0  0  0  0  0  0  0  0  # atno 17371 bound_to 10713
  140.5363  134.6164  157.5366 LP  0  0  0  0  0  0  0  0  0  0  0  0  # atno 17394 bound_to 11000
  139.9678  134.7344  156.0103 LP  0  0  0  0  0  0  0  0  0  0  0  0  # atno 17395 bound_to 11000

$$$$
