AV-unprocessed.smi:3068|AV-procd|sdf|11700|dock6
  -GOLD-   2272017103D 1   1.00000     0.00000
 Structure written by MMmdl.
 40 42  0  0  0  0  0  0  0  0  2 V2000
  152.1861  137.5426  154.2506 N   0  0  0  0  0  0  0  0  0  0  0  0
  151.3296  138.3114  154.3703 C   0  0  0  0  0  0  0  0  0  0  0  0
  150.2514  139.2806  154.5197 C   0  0  0  0  0  0  0  0  0  0  0  0
  150.6155  140.5647  154.7420 N   0  0  0  0  0  0  0  0  0  0  0  0
  149.6270  141.4734  154.8799 C   0  0  0  0  0  0  0  0  0  0  0  0
  148.2704  141.1052  154.7960 C   0  0  0  0  0  0  0  0  0  0  0  0
  147.8976  139.8269  154.5733 N   0  0  0  0  0  0  0  0  0  0  0  0
  148.8814  138.9030  154.4327 C   0  0  0  0  0  0  0  0  0  0  0  0
  148.5086  137.5658  154.2004 N   0  0  0  0  0  0  0  0  0  0  0  0
  147.4246  136.9262  154.9370 C   0  0  0  0  0  0  0  0  0  0  0  0
  146.5683  136.0099  154.0466 C   0  0  2  0  0  0  0  0  0  0  0  0
  145.7918  136.8209  152.9862 C   0  0  0  0  0  0  0  0  0  0  0  0
  144.8709  135.9588  152.2064 N   0  3  1  0  0  0  0  0  0  0  0  0
  145.5592  135.1431  151.1688 C   0  0  0  0  0  0  0  0  0  0  0  0
  144.5548  134.3234  150.3461 C   0  0  0  0  0  0  0  0  0  0  0  0
  143.7120  133.4268  151.2597 C   0  0  0  0  0  0  0  0  0  0  0  0
  143.0071  134.2815  152.3216 C   0  0  0  0  0  0  0  0  0  0  0  0
  143.9889  135.1720  153.1127 C   0  0  1  0  0  0  0  0  0  0  0  0
  144.8259  134.4055  154.1583 C   0  0  0  0  0  0  0  0  0  0  0  0
  145.6332  135.3294  154.8790 O   0  0  0  0  0  0  0  0  0  0  0  0
  149.9198  142.4977  155.0576 H   0  0  0  0  0  0  0  0  0  0  0  0
  147.4832  141.8361  154.9073 H   0  0  0  0  0  0  0  0  0  0  0  0
  148.9305  137.0604  153.4337 H   0  0  0  0  0  0  0  0  0  0  0  0
  147.8565  136.3495  155.7554 H   0  0  0  0  0  0  0  0  0  0  0  0
  146.8030  137.6914  155.4033 H   0  0  0  0  0  0  0  0  0  0  0  0
  147.2134  135.2817  153.5536 H   0  0  0  0  0  0  0  0  0  0  0  0
  145.1997  137.5933  153.4792 H   0  0  0  0  0  0  0  0  0  0  0  0
  146.4780  137.3398  152.3156 H   0  0  0  0  0  0  0  0  0  0  0  0
  146.1176  135.8035  150.5044 H   0  0  0  0  0  0  0  0  0  0  0  0
  146.2869  134.4727  151.6262 H   0  0  0  0  0  0  0  0  0  0  0  0
  143.9039  134.9940  149.7836 H   0  0  0  0  0  0  0  0  0  0  0  0
  145.0829  133.7154  149.6110 H   0  0  0  0  0  0  0  0  0  0  0  0
  142.9754  132.8788  150.6712 H   0  0  0  0  0  0  0  0  0  0  0  0
  144.3464  132.6794  151.7373 H   0  0  0  0  0  0  0  0  0  0  0  0
  142.2728  134.9185  151.8264 H   0  0  0  0  0  0  0  0  0  0  0  0
  142.4416  133.6442  153.0024 H   0  0  0  0  0  0  0  0  0  0  0  0
  143.3834  135.8932  153.6642 H   0  0  0  0  0  0  0  0  0  0  0  0
  144.1696  133.8973  154.8651 H   0  0  0  0  0  0  0  0  0  0  0  0
  145.4501  133.6372  153.7007 H   0  0  0  0  0  0  0  0  0  0  0  0
  144.2640  136.5825  151.6937 H   0  0  0  0  0  0  0  0  0  0  0  0
  1  2  3  0  0  0  0
  2  3  1  0  0  0  0
  3  8  1  0  0  0  0
  3  4  2  0  0  0  0
  4  5  1  0  0  0  0
  5  6  2  0  0  0  0
  5 21  1  0  0  0  0
  6  7  1  0  0  0  0
  6 22  1  0  0  0  0
  7  8  2  0  0  0  0
  8  9  1  0  0  0  0
  9 10  1  0  0  0  0
  9 23  1  0  0  0  0
 10 11  1  0  0  0  0
 10 24  1  0  0  0  0
 10 25  1  0  0  0  0
 11 20  1  0  0  0  0
 11 12  1  0  0  0  0
 11 26  1  0  0  0  0
 12 13  1  0  0  0  0
 12 27  1  0  0  0  0
 12 28  1  0  0  0  0
 13 18  1  0  0  0  0
 13 14  1  0  0  0  0
 13 40  1  0  0  0  0
 14 15  1  0  0  0  0
 14 29  1  0  0  0  0
 14 30  1  0  0  0  0
 15 16  1  0  0  0  0
 15 31  1  0  0  0  0
 15 32  1  0  0  0  0
 16 17  1  0  0  0  0
 16 33  1  0  0  0  0
 16 34  1  0  0  0  0
 17 18  1  0  0  0  0
 17 35  1  0  0  0  0
 17 36  1  0  0  0  0
 18 19  1  0  0  0  0
 18 37  1  0  0  0  0
 19 20  1  0  0  0  0
 19 38  1  0  0  0  0
 19 39  1  0  0  0  0
M  CHG  1  13   1
M  END
> <s_m_source_file>
AV-unprocessed.smi

> <i_m_source_file_index>
3068

> <i_lp_mmshare_version>
43012

> <i_f3d_flags>
0

> <s_epik_input>
TiNDYzFuW2NIXVtjSF1uYzFbTkhdW0NIMl1bQ0BIXShbQ0gyXTIpT1tDSDJdW0NAQEhdKE4yMylbQ0gyXVtDSDJdW0NIMl1bQ0gyXTM=

> <s_epik_cmdline>
J2VwaWtfcHl0aG9uJywgJy1waCcsICc3LjAnLCAnLXRuJywgJzgnLCAnLW1hJywgJzIwMCcsICctbWV0YWxfYmluZGluZycsICctaW1hZScsICc8aW5maWxlLm1hZT4nLCAnLW9tYWUnLCAnPG91dGZpbGUubWFlPic=

> <r_epik_Ionization_Penalty>
0.0804321

> <r_epik_Ionization_Penalty_Charging>
0.0803403

> <r_epik_Ionization_Penalty_Neutral>
9.17277e-05

> <r_epik_State_Penalty>
0.0711481

> <r_epik_Charging_Adjusted_Penalty>
0.151488

> <i_epik_Tot_Q>
1

> <i_epik_Tot_abs_Q>
1

> <r_epik_Metal_State_Penalty>
0.0711481

> <b_epik_Metal_Only>
0

> <s_lp_Force_Field>
OPLS_2005

> <r_lp_Energy>
39.785

> <b_lp_Chiralities_Consistent>
1

> <s_lp_Variant>
AV-unprocessed.smi:3068-3

> <Gold.Version>
5.8.1

> <Gold.Id.Protein>
6NUR|6NUR_protein|mol2

> <Gold.PLP.Fitness>
39.8943

> <Gold.PLP.PLP>
-29.5326

> <Gold.PLP.part.hbond>
-3.0000

> <Gold.PLP.part.metal>
0.0000

> <Gold.PLP.part.buried>
-3.4135

> <Gold.PLP.part.nonpolar>
-23.3506

> <Gold.PLP.part.repulsive>
0.3607

> <Gold.PLP.ligand.clash>
0.0000

> <Gold.PLP.ligand.torsion>
0.5195

> <Gold.PLP.Chemscore.Hbond>
2.8000

> <Gold.PLP.Chemscore.CHOScore>
1.0000

> <Gold.PLP.Chemscore.Metal>
0.0000

> <Gold.Chemscore.Hbonds>
donor molecule, donor type, donor heavy atom, donor atom, acceptor molecule, acceptor atom, score
      L1  H     9    23       P1  7948  1.00
      P1  H  7989  7998       L1     4  0.99
      P1  H 10752 10764       L1     1  0.80
      L1  C     5    21       P1  8028  1.00

> <Gold.PLP.Chemscore.Internal.Correction>
0.0006

> <Gold.Rescore>
     Score         DG    S(hbond)    S(metal)    S(lipo)     H(rot)  DE(clash)    DE(int)     intcor
     17.14     -17.75       2.56        0.00      60.75       1.32       0.11       0.50       ----

> <Gold.Chemscore.Fitness>
17.1445

> <Gold.Chemscore.DG>
-17.7511

> <Gold.Chemscore.ZeroCoef>
-5.4800

> <Gold.Chemscore.Hbond>
2.5571

> <Gold.Chemscore.Metal>
0.0000

> <Gold.Chemscore.Lipo>
60.7492

> <Gold.Chemscore.Internal_Hbond>
0.0000

> <Gold.Chemscore.DEClash>
0.1078

> <Gold.Chemscore.DEInternal>
0.4989

> <Gold.Chemscore.Rot>
1.3193

> <Gold.Chemscore.Internal.Correction>
   9.000000E+99

> <Gold.Chemscore.Hbonds>
donor molecule, donor type, donor heavy atom, donor atom, acceptor molecule, acceptor atom, score
      L1  H     9    23       P1  7948  0.99
      P1  H  7989  7998       L1     4  0.32
      P1  H 10752 10764       L1     1  0.75

> <Gold.Chemscore.Hbond.Weighted>
-8.5408

> <Gold.Chemscore.Metal.Weighted>
-0.0000

> <Gold.Chemscore.Lipo.Weighted>
-7.1077

> <Gold.Chemscore.Internal_Hbond.Weighted>
0.0000

> <Gold.Chemscore.DEClash.Weighted>
0.1078

> <Gold.Chemscore.DEInternal.Weighted>
0.4989

> <Gold.Chemscore.Rot.Weighted>
3.3774

> <Gold.Chemscore.Internal.Correction.Weighted>
   9.000000E+99

> <Gold.Protein.RotatedTorsions>
[ 6907 6896 6895 6894 ] final   -7.60 input  -60.11 | X-H torsion
[ 7974 7965 7964 7962 ] final  135.59 input  175.53 | X-H torsion
[ 8008 7997 7996 7995 ] final -130.28 input   59.86 | X-H torsion
[ 10167 10162 10161 10158 ] final  126.37 input  -65.29 | X-H torsion
[ 10718 10713 10712 10709 ] final   -0.02 input   66.30 | X-H torsion
[ 10763 10752 10751 10750 ] final  -79.66 input  -60.55 | X-H torsion
[ 11005 11000 10999 10996 ] final  -76.39 input  -57.11 | X-H torsion

> <Gold.Protein.ActiveResidues>
 VAL166  LYS551  ARG553  GLY616  TRP617  ASP618  TYR619  PRO620  LYS621  CYS622 
 ASP623  PHE694  ASN695  SER759  ASP760  ASP761  ALA762  ILE779  LEU786  VAL792 
 PHE793  MET794  SER795  GLU796  ALA797  LYS798  CYS799  TRP800  GLU811  SER814 

> <Gold.Protein.RotatedAtoms>
  151.4470  135.1026  159.9686 H   0  0  0  0  0  0  0  0  0  0  0  0  # atno 6907 bound_to 6896
  152.4902  133.8475  159.7195 H   0  0  0  0  0  0  0  0  0  0  0  0  # atno 6908 bound_to 6896
  150.9048  133.7013  159.2897 H   0  0  0  0  0  0  0  0  0  0  0  0  # atno 6909 bound_to 6896
  144.9648  139.4670  143.5461 H   0  0  0  0  0  0  0  0  0  0  0  0  # atno 7974 bound_to 7965
  155.2932  140.0449  157.3024 H   0  0  0  0  0  0  0  0  0  0  0  0  # atno 8008 bound_to 7997
  154.5529  140.2323  155.8424 H   0  0  0  0  0  0  0  0  0  0  0  0  # atno 8009 bound_to 7997
  156.1982  140.3032  155.9479 H   0  0  0  0  0  0  0  0  0  0  0  0  # atno 8010 bound_to 7997
  139.5635  144.6897  151.3976 H   0  0  0  0  0  0  0  0  0  0  0  0  # atno 10167 bound_to 10162
  156.8266  130.5474  149.5691 H   0  0  0  0  0  0  0  0  0  0  0  0  # atno 10718 bound_to 10713
  154.5414  135.5688  153.6843 H   0  0  0  0  0  0  0  0  0  0  0  0  # atno 10763 bound_to 10752
  152.9964  135.6229  154.2496 H   0  0  0  0  0  0  0  0  0  0  0  0  # atno 10764 bound_to 10752
  154.2427  135.2862  155.2827 H   0  0  0  0  0  0  0  0  0  0  0  0  # atno 10765 bound_to 10752
  141.1653  133.6982  156.7661 H   0  0  0  0  0  0  0  0  0  0  0  0  # atno 11005 bound_to 11000
  146.3364  139.8822  142.8822 LP  0  0  0  0  0  0  0  0  0  0  0  0  # atno 17320 bound_to 7965
  145.2645  141.0088  143.3807 LP  0  0  0  0  0  0  0  0  0  0  0  0  # atno 17321 bound_to 7965
  140.6917  143.7847  150.7265 LP  0  0  0  0  0  0  0  0  0  0  0  0  # atno 17342 bound_to 10162
  140.1331  143.4508  152.2242 LP  0  0  0  0  0  0  0  0  0  0  0  0  # atno 17343 bound_to 10162
  156.0958  130.5931  150.9811 LP  0  0  0  0  0  0  0  0  0  0  0  0  # atno 17370 bound_to 10713
  157.6429  131.0908  150.8214 LP  0  0  0  0  0  0  0  0  0  0  0  0  # atno 17371 bound_to 10713
  140.2498  134.8549  157.3656 LP  0  0  0  0  0  0  0  0  0  0  0  0  # atno 17394 bound_to 11000
  140.1714  134.4604  155.7829 LP  0  0  0  0  0  0  0  0  0  0  0  0  # atno 17395 bound_to 11000

$$$$
