AV-unprocessed.smi:1279|AV-procd|sdf|5355|dock4
  -GOLD-   22720 4493D 1   1.00000     0.00000
 Structure written by MMmdl.
 46 47  0  0  0  0  0  0  0  0  2 V2000
  151.8898  141.4234  157.8944 C   0  0  0  0  0  0  0  0  0  0  0  0
  151.5069  140.6474  156.6690 C   0  0  0  0  0  0  0  0  0  0  0  0
  150.3667  140.8313  155.8335 C   0  0  0  0  0  0  0  0  0  0  0  0
  150.5280  139.8577  154.8860 C   0  0  0  0  0  0  0  0  0  0  0  0
  149.7362  139.5610  153.8213 N   0  0  0  0  0  0  0  0  0  0  0  0
  148.4113  139.3337  153.7970 C   0  0  0  0  0  0  0  0  0  0  0  0
  147.6617  139.3603  154.7734 O   0  0  0  0  0  0  0  0  0  0  0  0
  147.9888  139.0621  152.5538 N   0  0  0  0  0  0  0  0  0  0  0  0
  146.6067  138.7783  152.1844 C   0  0  0  0  0  0  0  0  0  0  0  0
  146.0183  137.6290  153.0260 C   0  0  0  0  0  0  0  0  0  0  0  0
  145.8816  136.3701  152.2509 N   0  3  2  0  0  0  0  0  0  0  0  0
  144.8313  136.4676  151.2042 C   0  0  0  0  0  0  0  0  0  0  0  0
  144.7987  135.2050  150.3266 C   0  0  0  0  0  0  0  0  0  0  0  0
  144.5896  133.9401  151.1752 C   0  0  1  0  0  0  0  0  0  0  0  0
  144.5861  132.6697  150.3132 C   0  0  0  0  0  0  0  0  0  0  0  0
  145.6686  133.8827  152.2691 C   0  0  0  0  0  0  0  0  0  0  0  0
  145.6835  135.1711  153.1085 C   0  0  0  0  0  0  0  0  0  0  0  0
  151.6848  139.1609  155.1560 N   0  0  0  0  0  0  0  0  0  0  0  0
  152.2801  138.0491  154.4405 C   0  0  0  0  0  0  0  0  0  0  0  0
  152.2871  139.6534  156.2599 N   0  0  0  0  0  0  0  0  0  0  0  0
  151.1551  142.1978  158.1158 H   0  0  0  0  0  0  0  0  0  0  0  0
  152.8567  141.9106  157.7646 H   0  0  0  0  0  0  0  0  0  0  0  0
  151.9577  140.7723  158.7662 H   0  0  0  0  0  0  0  0  0  0  0  0
  149.5780  141.5619  155.9313 H   0  0  0  0  0  0  0  0  0  0  0  0
  150.2165  139.4941  152.9360 H   0  0  0  0  0  0  0  0  0  0  0  0
  148.6700  139.0625  151.8083 H   0  0  0  0  0  0  0  0  0  0  0  0
  146.0009  139.6799  152.2909 H   0  0  0  0  0  0  0  0  0  0  0  0
  146.6044  138.5267  151.1246 H   0  0  0  0  0  0  0  0  0  0  0  0
  146.6212  137.4514  153.9181 H   0  0  0  0  0  0  0  0  0  0  0  0
  145.0319  137.9334  153.3789 H   0  0  0  0  0  0  0  0  0  0  0  0
  143.8595  136.6247  151.6752 H   0  0  0  0  0  0  0  0  0  0  0  0
  145.0205  137.3347  150.5704 H   0  0  0  0  0  0  0  0  0  0  0  0
  144.0023  135.2943  149.5868 H   0  0  0  0  0  0  0  0  0  0  0  0
  145.7320  135.1265  149.7671 H   0  0  0  0  0  0  0  0  0  0  0  0
  143.6155  134.0135  151.6613 H   0  0  0  0  0  0  0  0  0  0  0  0
  145.5390  132.5342  149.8005 H   0  0  0  0  0  0  0  0  0  0  0  0
  143.8035  132.7118  149.5552 H   0  0  0  0  0  0  0  0  0  0  0  0
  144.4066  131.7830  150.9221 H   0  0  0  0  0  0  0  0  0  0  0  0
  145.4953  133.0243  152.9193 H   0  0  0  0  0  0  0  0  0  0  0  0
  146.6495  133.7327  151.8155 H   0  0  0  0  0  0  0  0  0  0  0  0
  146.4793  135.0960  153.8483 H   0  0  0  0  0  0  0  0  0  0  0  0
  144.7477  135.2682  153.6614 H   0  0  0  0  0  0  0  0  0  0  0  0
  151.5226  137.2902  154.2427 H   0  0  0  0  0  0  0  0  0  0  0  0
  153.0814  137.5994  155.0290 H   0  0  0  0  0  0  0  0  0  0  0  0
  152.6890  138.4017  153.4936 H   0  0  0  0  0  0  0  0  0  0  0  0
  146.7547  136.2415  151.7593 H   0  0  0  0  0  0  0  0  0  0  0  0
  1  2  1  0  0  0  0
  1 21  1  0  0  0  0
  1 22  1  0  0  0  0
  1 23  1  0  0  0  0
  2 20  2  0  0  0  0
  2  3  1  0  0  0  0
  3  4  2  0  0  0  0
  3 24  1  0  0  0  0
  4  5  1  0  0  0  0
  4 18  1  0  0  0  0
  5  6  1  0  0  0  0
  5 25  1  0  0  0  0
  6  7  2  0  0  0  0
  6  8  1  0  0  0  0
  8  9  1  0  0  0  0
  8 26  1  0  0  0  0
  9 10  1  0  0  0  0
  9 27  1  0  0  0  0
  9 28  1  0  0  0  0
 10 11  1  0  0  0  0
 10 29  1  0  0  0  0
 10 30  1  0  0  0  0
 11 17  1  0  0  0  0
 11 12  1  0  0  0  0
 11 46  1  0  0  0  0
 12 13  1  0  0  0  0
 12 31  1  0  0  0  0
 12 32  1  0  0  0  0
 13 14  1  0  0  0  0
 13 33  1  0  0  0  0
 13 34  1  0  0  0  0
 14 15  1  0  0  0  0
 14 16  1  0  0  0  0
 14 35  1  0  0  0  0
 15 36  1  0  0  0  0
 15 37  1  0  0  0  0
 15 38  1  0  0  0  0
 16 17  1  0  0  0  0
 16 39  1  0  0  0  0
 16 40  1  0  0  0  0
 17 41  1  0  0  0  0
 17 42  1  0  0  0  0
 18 19  1  0  0  0  0
 18 20  1  0  0  0  0
 19 43  1  0  0  0  0
 19 44  1  0  0  0  0
 19 45  1  0  0  0  0
M  CHG  1  11   1
M  END
> <s_m_source_file>
AV-unprocessed.smi

> <i_m_source_file_index>
1279

> <i_lp_mmshare_version>
43012

> <i_f3d_flags>
0

> <s_epik_input>
W0NIM11jMVtjSF1jKG4objEpW0NIM10pW05IXUMoPU8pW05IXVtDSDJdW0NIMl1OMltDSDJdW0NIMl1bQ0hdKFtDSDNdKVtDSDJdW0NIMl0y

> <s_epik_cmdline>
J2VwaWtfcHl0aG9uJywgJy1waCcsICc3LjAnLCAnLXRuJywgJzgnLCAnLW1hJywgJzIwMCcsICctbWV0YWxfYmluZGluZycsICctaW1hZScsICc8aW5maWxlLm1hZT4nLCAnLW9tYWUnLCAnPG91dGZpbGUubWFlPic=

> <r_lp_tautomer_probability>
1

> <r_epik_Ionization_Penalty>
0.00166091

> <r_epik_Ionization_Penalty_Charging>
0.0015841

> <r_epik_Ionization_Penalty_Neutral>
7.68112e-05

> <r_epik_State_Penalty>
0.00106518

> <r_epik_Charging_Adjusted_Penalty>
0.00264928

> <i_epik_Tot_Q>
1

> <i_epik_Tot_abs_Q>
1

> <r_epik_Metal_State_Penalty>
-0

> <b_epik_Metal_Only>
0

> <s_lp_Force_Field>
OPLS_2005

> <r_lp_Energy>
17.7032

> <b_lp_Chiralities_Consistent>
1

> <s_lp_Variant>
AV-unprocessed.smi:1279-1

> <Gold.Version>
5.8.1

> <Gold.Id.Protein>
6NUR|6NUR_protein|mol2

> <Gold.PLP.Fitness>
50.4332

> <Gold.PLP.PLP>
-38.0104

> <Gold.PLP.part.hbond>
-4.7305

> <Gold.PLP.part.metal>
0.0000

> <Gold.PLP.part.buried>
-0.8367

> <Gold.PLP.part.nonpolar>
-30.6929

> <Gold.PLP.part.repulsive>
0.2916

> <Gold.PLP.ligand.clash>
0.0000

> <Gold.PLP.ligand.torsion>
0.8889

> <Gold.PLP.Chemscore.Hbond>
4.7210

> <Gold.PLP.Chemscore.CHOScore>
0.0000

> <Gold.PLP.Chemscore.Metal>
0.0000

> <Gold.Chemscore.Hbonds>
donor molecule, donor type, donor heavy atom, donor atom, acceptor molecule, acceptor atom, score
      L1  H     5    25       P1  7957  0.61
      L1  H     8    26       P1  7957  0.68
      L1  H    11    46       P1  7948  1.27
      P1  H  7997  8009       L1    20  0.75

> <Gold.PLP.Chemscore.Internal.Correction>
0.0377

> <Gold.Rescore>
     Score         DG    S(hbond)    S(metal)    S(lipo)     H(rot)  DE(clash)    DE(int)     intcor
     19.04     -22.42       3.55        0.00      76.03       1.48       1.39       1.99       ----

> <Gold.Chemscore.Fitness>
19.0408

> <Gold.Chemscore.DG>
-22.4191

> <Gold.Chemscore.ZeroCoef>
-5.4800

> <Gold.Chemscore.Hbond>
3.5457

> <Gold.Chemscore.Metal>
0.0000

> <Gold.Chemscore.Lipo>
76.0256

> <Gold.Chemscore.Internal_Hbond>
0.0000

> <Gold.Chemscore.DEClash>
1.3892

> <Gold.Chemscore.DEInternal>
1.9891

> <Gold.Chemscore.Rot>
1.4838

> <Gold.Chemscore.Internal.Correction>
   9.000000E+99

> <Gold.Chemscore.Hbonds>
donor molecule, donor type, donor heavy atom, donor atom, acceptor molecule, acceptor atom, score
      L1  H     5    25       P1  7957  0.56
      L1  H     8    26       P1  7957  0.59
      L1  H    11    46       P1  7948  0.60
      P1  H  7997  8009       L1    20  0.64

> <Gold.Chemscore.Hbond.Weighted>
-11.8425

> <Gold.Chemscore.Metal.Weighted>
-0.0000

> <Gold.Chemscore.Lipo.Weighted>
-8.8950

> <Gold.Chemscore.Internal_Hbond.Weighted>
0.0000

> <Gold.Chemscore.DEClash.Weighted>
1.3892

> <Gold.Chemscore.DEInternal.Weighted>
1.9891

> <Gold.Chemscore.Rot.Weighted>
3.7985

> <Gold.Chemscore.Internal.Correction.Weighted>
   9.000000E+99

> <Gold.Protein.RotatedTorsions>
[ 6907 6896 6895 6894 ] final  122.02 input  -60.11 | X-H torsion
[ 7974 7965 7964 7962 ] final  -68.11 input  175.53 | X-H torsion
[ 8008 7997 7996 7995 ] final -150.65 input   59.86 | X-H torsion
[ 10167 10162 10161 10158 ] final  121.65 input  -65.29 | X-H torsion
[ 10718 10713 10712 10709 ] final -174.73 input   66.30 | X-H torsion
[ 10763 10752 10751 10750 ] final   22.70 input  -60.55 | X-H torsion
[ 11005 11000 10999 10996 ] final    7.75 input  -57.11 | X-H torsion

> <Gold.Protein.ActiveResidues>
 VAL166  LYS551  ARG553  GLY616  TRP617  ASP618  TYR619  PRO620  LYS621  CYS622 
 ASP623  PHE694  ASN695  SER759  ASP760  ASP761  ALA762  ILE779  LEU786  VAL792 
 PHE793  MET794  SER795  GLU796  ALA797  LYS798  CYS799  TRP800  GLU811  SER814 

> <Gold.Protein.RotatedAtoms>
  152.4276  133.7222  159.6539 H   0  0  0  0  0  0  0  0  0  0  0  0  # atno 6907 bound_to 6896
  150.8153  133.8337  159.3169 H   0  0  0  0  0  0  0  0  0  0  0  0  # atno 6908 bound_to 6896
  151.6035  135.1048  160.0117 H   0  0  0  0  0  0  0  0  0  0  0  0  # atno 6909 bound_to 6896
  145.7207  140.9040  143.0632 H   0  0  0  0  0  0  0  0  0  0  0  0  # atno 7974 bound_to 7965
  155.6269  140.0687  157.2661 H   0  0  0  0  0  0  0  0  0  0  0  0  # atno 8008 bound_to 7997
  154.4215  140.1774  156.1479 H   0  0  0  0  0  0  0  0  0  0  0  0  # atno 8009 bound_to 7997
  155.9964  140.3340  155.6806 H   0  0  0  0  0  0  0  0  0  0  0  0  # atno 8010 bound_to 7997
  139.5907  144.7024  151.3298 H   0  0  0  0  0  0  0  0  0  0  0  0  # atno 10167 bound_to 10162
  156.7894  130.9512  151.3120 H   0  0  0  0  0  0  0  0  0  0  0  0  # atno 10718 bound_to 10713
  153.0895  135.6642  153.9882 H   0  0  0  0  0  0  0  0  0  0  0  0  # atno 10763 bound_to 10752
  153.9483  135.2986  155.3441 H   0  0  0  0  0  0  0  0  0  0  0  0  # atno 10764 bound_to 10752
  154.7308  135.5124  153.9033 H   0  0  0  0  0  0  0  0  0  0  0  0  # atno 10765 bound_to 10752
  140.5447  134.0340  155.7916 H   0  0  0  0  0  0  0  0  0  0  0  0  # atno 11005 bound_to 11000
  144.6917  139.9198  143.7467 LP  0  0  0  0  0  0  0  0  0  0  0  0  # atno 17320 bound_to 7965
  146.0629  139.3621  143.0570 LP  0  0  0  0  0  0  0  0  0  0  0  0  # atno 17321 bound_to 7965
  140.7170  143.7239  150.7675 LP  0  0  0  0  0  0  0  0  0  0  0  0  # atno 17342 bound_to 10162
  140.0794  143.4983  152.2538 LP  0  0  0  0  0  0  0  0  0  0  0  0  # atno 17343 bound_to 10162
  157.6608  130.8964  149.9825 LP  0  0  0  0  0  0  0  0  0  0  0  0  # atno 17370 bound_to 10713
  156.1168  130.3647  149.9954 LP  0  0  0  0  0  0  0  0  0  0  0  0  # atno 17371 bound_to 10713
  141.1206  133.9467  157.2736 LP  0  0  0  0  0  0  0  0  0  0  0  0  # atno 17394 bound_to 11000
  139.9486  135.0180  156.8926 LP  0  0  0  0  0  0  0  0  0  0  0  0  # atno 17395 bound_to 11000

$$$$
