AV-unprocessed.smi:1929|AV-procd|sdf|7805|dock8
  -GOLD-   22720 9543D 1   1.00000     0.00000
 Structure written by MMmdl.
 42 43  0  0  0  0  0  0  0  0  3 V2000
  145.4647  136.0280  150.8613 C   0  0  0  0  0  0  0  0  0  0  0  0
  145.2377  136.0844  152.3002 N   0  5  0  0  0  0  0  0  0  0  0  0
  145.7568  137.0502  153.1049 C   0  0  0  0  0  0  0  0  0  0  0  0
  145.8606  137.1054  154.3349 O   0  0  0  0  0  0  0  0  0  0  0  0
  146.2515  138.2462  152.2835 C   0  0  0  0  0  0  0  0  0  0  0  0
  146.8854  139.2509  153.1735 N   0  3  2  0  0  0  0  0  0  0  0  0
  147.2159  140.5262  152.4809 C   0  0  0  0  0  0  0  0  0  0  0  0
  147.7449  141.5760  153.4719 C   0  0  0  0  0  0  0  0  0  0  0  0
  148.9647  141.0487  154.2436 C   0  0  1  0  0  0  0  0  0  0  0  0
  149.3858  142.0316  155.2376 N   0  0  0  0  0  0  0  0  0  0  0  0
  150.2207  141.7876  156.2583 C   0  0  0  0  0  0  0  0  0  0  0  0
  150.7231  140.6846  156.4730 O   0  0  0  0  0  0  0  0  0  0  0  0
  150.4060  142.8875  157.0088 N   0  0  0  0  0  0  0  0  0  0  0  0
  151.2362  143.0527  158.1508 C   0  0  0  0  0  0  0  0  0  0  0  0
  151.7472  141.8910  158.7657 C   0  0  0  0  0  0  0  0  0  0  0  0
  152.5563  142.0289  159.9113 C   0  0  0  0  0  0  0  0  0  0  0  0
  152.8637  143.2213  160.4633 N   0  0  0  0  0  0  0  0  0  0  0  0
  152.3620  144.3314  159.8822 C   0  0  0  0  0  0  0  0  0  0  0  0
  151.5447  144.3053  158.7343 C   0  0  0  0  0  0  0  0  0  0  0  0
  148.6098  139.7104  154.9159 C   0  0  0  0  0  0  0  0  0  0  0  0
  148.0623  138.7017  153.8929 C   0  0  0  0  0  0  0  0  0  0  0  0
  144.9274  135.2004  150.3990 H   0  0  0  0  0  0  0  0  0  0  0  0
  146.5173  135.8898  150.6127 H   0  0  0  0  0  0  0  0  0  0  0  0
  145.1358  136.9338  150.3510 H   0  0  0  0  0  0  0  0  0  0  0  0
  146.9863  137.8599  151.5758 H   0  0  0  0  0  0  0  0  0  0  0  0
  145.4620  138.7062  151.6848 H   0  0  0  0  0  0  0  0  0  0  0  0
  147.9565  140.3369  151.7023 H   0  0  0  0  0  0  0  0  0  0  0  0
  146.3333  140.9278  151.9829 H   0  0  0  0  0  0  0  0  0  0  0  0
  148.0075  142.4881  152.9348 H   0  0  0  0  0  0  0  0  0  0  0  0
  146.9503  141.8452  154.1695 H   0  0  0  0  0  0  0  0  0  0  0  0
  149.7758  140.8861  153.5306 H   0  0  0  0  0  0  0  0  0  0  0  0
  149.0147  142.9654  155.1402 H   0  0  0  0  0  0  0  0  0  0  0  0
  149.8521  143.6937  156.7600 H   0  0  0  0  0  0  0  0  0  0  0  0
  151.5304  140.9101  158.3682 H   0  0  0  0  0  0  0  0  0  0  0  0
  152.9651  141.1563  160.3992 H   0  0  0  0  0  0  0  0  0  0  0  0
  152.6134  145.2713  160.3506 H   0  0  0  0  0  0  0  0  0  0  0  0
  151.1653  145.2349  158.3391 H   0  0  0  0  0  0  0  0  0  0  0  0
  149.4878  139.2909  155.4087 H   0  0  0  0  0  0  0  0  0  0  0  0
  147.8651  139.8728  155.6967 H   0  0  0  0  0  0  0  0  0  0  0  0
  147.7827  137.7842  154.4122 H   0  0  0  0  0  0  0  0  0  0  0  0
  148.8379  138.4357  153.1730 H   0  0  0  0  0  0  0  0  0  0  0  0
  146.1947  139.4680  153.8777 H   0  0  0  0  0  0  0  0  0  0  0  0
  1  2  1  0  0  0  0
  1 22  1  0  0  0  0
  1 23  1  0  0  0  0
  1 24  1  0  0  0  0
  2  3  1  0  0  0  0
  3  4  2  0  0  0  0
  3  5  1  0  0  0  0
  5  6  1  0  0  0  0
  5 25  1  0  0  0  0
  5 26  1  0  0  0  0
  6 21  1  0  0  0  0
  6  7  1  0  0  0  0
  6 42  1  0  0  0  0
  7  8  1  0  0  0  0
  7 27  1  0  0  0  0
  7 28  1  0  0  0  0
  8  9  1  0  0  0  0
  8 29  1  0  0  0  0
  8 30  1  0  0  0  0
  9 10  1  0  0  0  0
  9 20  1  0  0  0  0
  9 31  1  0  0  0  0
 10 11  1  0  0  0  0
 10 32  1  0  0  0  0
 11 12  2  0  0  0  0
 11 13  1  0  0  0  0
 13 14  1  0  0  0  0
 13 33  1  0  0  0  0
 14 19  1  0  0  0  0
 14 15  2  0  0  0  0
 15 16  1  0  0  0  0
 15 34  1  0  0  0  0
 16 17  2  0  0  0  0
 16 35  1  0  0  0  0
 17 18  1  0  0  0  0
 18 19  2  0  0  0  0
 18 36  1  0  0  0  0
 19 37  1  0  0  0  0
 20 21  1  0  0  0  0
 20 38  1  0  0  0  0
 20 39  1  0  0  0  0
 21 40  1  0  0  0  0
 21 41  1  0  0  0  0
M  CHG  1   2  -1
M  CHG  1   6   1
M  END
> <s_m_source_file>
AV-unprocessed.smi

> <i_m_source_file_index>
1929

> <i_lp_mmshare_version>
43012

> <i_f3d_flags>
0

> <s_epik_input>
W0NIM11bTkhdQyg9TylbQ0gyXU4xW0NIMl1bQ0gyXVtDSF0oW0NIMl1bQ0gyXTEpW05IXUMoPU8pW05IXWMyW2NIXVtjSF1uW2NIXVtjSF0y

> <s_epik_cmdline>
J2VwaWtfcHl0aG9uJywgJy1waCcsICc3LjAnLCAnLXRuJywgJzgnLCAnLW1hJywgJzIwMCcsICctbWV0YWxfYmluZGluZycsICctaW1hZScsICc8aW5maWxlLm1hZT4nLCAnLW9tYWUnLCAnPG91dGZpbGUubWFlPic=

> <r_epik_Ionization_Penalty>
6.23856

> <r_epik_Ionization_Penalty_Charging>
6.13946

> <r_epik_Ionization_Penalty_Neutral>
0.0990993

> <r_epik_State_Penalty>
7.04382

> <r_epik_Charging_Adjusted_Penalty>
13.1833

> <i_epik_Tot_Q>
0

> <i_epik_Tot_abs_Q>
2

> <r_epik_Metal_State_Penalty>
3.07449

> <b_epik_Metal_Only>
1

> <s_lp_Force_Field>
OPLS_2005

> <r_lp_Energy>
14.2578

> <b_lp_Chiralities_Consistent>
1

> <s_lp_Variant>
AV-unprocessed.smi:1929-7

> <Gold.Version>
5.8.1

> <Gold.Id.Protein>
6NUR|6NUR_protein|mol2

> <Gold.PLP.Fitness>
43.8411

> <Gold.PLP.PLP>
-38.4345

> <Gold.PLP.part.hbond>
-2.0000

> <Gold.PLP.part.metal>
0.0000

> <Gold.PLP.part.buried>
-4.7743

> <Gold.PLP.part.nonpolar>
-32.5320

> <Gold.PLP.part.repulsive>
0.4560

> <Gold.PLP.ligand.clash>
0.0009

> <Gold.PLP.ligand.torsion>
0.3209

> <Gold.PLP.Chemscore.Hbond>
2.0000

> <Gold.PLP.Chemscore.CHOScore>
0.0000

> <Gold.PLP.Chemscore.Metal>
0.0000

> <Gold.Chemscore.Hbonds>
donor molecule, donor type, donor heavy atom, donor atom, acceptor molecule, acceptor atom, score
      L1  H    10    32       P1  8028  1.00
      L1  H    13    33       P1  8028  1.00

> <Gold.PLP.Chemscore.Internal.Correction>
0.0494

> <Gold.Rescore>
     Score         DG    S(hbond)    S(metal)    S(lipo)     H(rot)  DE(clash)    DE(int)     intcor
     15.24     -19.71       1.91        0.00     102.85       1.63       0.13       4.34       ----

> <Gold.Chemscore.Fitness>
15.2443

> <Gold.Chemscore.DG>
-19.7129

> <Gold.Chemscore.ZeroCoef>
-5.4800

> <Gold.Chemscore.Hbond>
1.9095

> <Gold.Chemscore.Metal>
0.0000

> <Gold.Chemscore.Lipo>
102.8521

> <Gold.Chemscore.Internal_Hbond>
0.0000

> <Gold.Chemscore.DEClash>
0.1282

> <Gold.Chemscore.DEInternal>
4.3404

> <Gold.Chemscore.Rot>
1.6323

> <Gold.Chemscore.Internal.Correction>
   9.000000E+99

> <Gold.Chemscore.Hbonds>
donor molecule, donor type, donor heavy atom, donor atom, acceptor molecule, acceptor atom, score
      L1  H    10    32       P1  8028  0.97
      L1  H    13    33       P1  8028  0.98

> <Gold.Chemscore.Hbond.Weighted>
-6.3778

> <Gold.Chemscore.Metal.Weighted>
-0.0000

> <Gold.Chemscore.Lipo.Weighted>
-12.0337

> <Gold.Chemscore.Internal_Hbond.Weighted>
0.0000

> <Gold.Chemscore.DEClash.Weighted>
0.1282

> <Gold.Chemscore.DEInternal.Weighted>
4.3404

> <Gold.Chemscore.Rot.Weighted>
4.1786

> <Gold.Chemscore.Internal.Correction.Weighted>
   9.000000E+99

> <Gold.Protein.RotatedTorsions>
[ 6907 6896 6895 6894 ] final -149.69 input  -60.11 | X-H torsion
[ 7974 7965 7964 7962 ] final -151.82 input  175.53 | X-H torsion
[ 8008 7997 7996 7995 ] final  119.18 input   59.86 | X-H torsion
[ 10167 10162 10161 10158 ] final   83.58 input  -65.29 | X-H torsion
[ 10718 10713 10712 10709 ] final  -41.31 input   66.30 | X-H torsion
[ 10763 10752 10751 10750 ] final  170.32 input  -60.55 | X-H torsion
[ 11005 11000 10999 10996 ] final  -73.49 input  -57.11 | X-H torsion

> <Gold.Protein.ActiveResidues>
 VAL166  LYS551  ARG553  GLY616  TRP617  ASP618  TYR619  PRO620  LYS621  CYS622 
 ASP623  PHE694  ASN695  SER759  ASP760  ASP761  ALA762  ILE779  LEU786  VAL792 
 PHE793  MET794  SER795  GLU796  ALA797  LYS798  CYS799  TRP800  GLU811  SER814 

> <Gold.Protein.RotatedAtoms>
  151.1878  133.4686  159.2594 H   0  0  0  0  0  0  0  0  0  0  0  0  # atno 6907 bound_to 6896
  151.1194  135.0071  159.8541 H   0  0  0  0  0  0  0  0  0  0  0  0  # atno 6908 bound_to 6896
  152.5455  134.1790  159.8681 H   0  0  0  0  0  0  0  0  0  0  0  0  # atno 6909 bound_to 6896
  144.7828  140.4746  143.5827 H   0  0  0  0  0  0  0  0  0  0  0  0  # atno 7974 bound_to 7965
  156.2583  140.2858  156.0951 H   0  0  0  0  0  0  0  0  0  0  0  0  # atno 8008 bound_to 7997
  155.1421  140.0396  157.2818 H   0  0  0  0  0  0  0  0  0  0  0  0  # atno 8009 bound_to 7997
  154.6522  140.2547  155.7207 H   0  0  0  0  0  0  0  0  0  0  0  0  # atno 8010 bound_to 7997
  139.9169  144.6237  150.8480 H   0  0  0  0  0  0  0  0  0  0  0  0  # atno 10167 bound_to 10162
  156.2718  130.4207  149.8430 H   0  0  0  0  0  0  0  0  0  0  0  0  # atno 10718 bound_to 10713
  154.3959  135.2754  155.2126 H   0  0  0  0  0  0  0  0  0  0  0  0  # atno 10763 bound_to 10752
  154.4173  135.6008  153.5992 H   0  0  0  0  0  0  0  0  0  0  0  0  # atno 10764 bound_to 10752
  152.9831  135.5964  154.4220 H   0  0  0  0  0  0  0  0  0  0  0  0  # atno 10765 bound_to 10752
  141.1623  133.6880  156.7219 H   0  0  0  0  0  0  0  0  0  0  0  0  # atno 11005 bound_to 11000
  145.6002  139.1503  143.3133 LP  0  0  0  0  0  0  0  0  0  0  0  0  # atno 17320 bound_to 7965
  146.2045  140.6124  142.9087 LP  0  0  0  0  0  0  0  0  0  0  0  0  # atno 17321 bound_to 7965
  140.7672  143.3325  151.2380 LP  0  0  0  0  0  0  0  0  0  0  0  0  # atno 17342 bound_to 10162
  139.6895  143.9717  152.2851 LP  0  0  0  0  0  0  0  0  0  0  0  0  # atno 17343 bound_to 10162
  156.5909  130.8506  151.3408 LP  0  0  0  0  0  0  0  0  0  0  0  0  # atno 17370 bound_to 10713
  157.7286  130.9659  150.1750 LP  0  0  0  0  0  0  0  0  0  0  0  0  # atno 17371 bound_to 10713
  140.2809  134.8317  157.3932 LP  0  0  0  0  0  0  0  0  0  0  0  0  # atno 17394 bound_to 11000
  140.1434  134.4943  155.8014 LP  0  0  0  0  0  0  0  0  0  0  0  0  # atno 17395 bound_to 11000

$$$$
