AV-unprocessed.smi:110|AV-procd|sdf|1069|dock1
  -GOLD-   2262018153D 1   1.00000     0.00000
 Structure written by MMmdl.
 46 50  0  0  0  0  0  0  0  0  1 V2000
  147.6338  136.2832  156.8895 O   0  0  0  0  0  0  0  0  0  0  0  0
  148.1132  136.5749  155.5942 C   0  0  0  0  0  0  0  0  0  0  0  0
  149.2726  137.5797  155.6739 C   0  0  1  0  0  0  0  0  0  0  0  0
  150.3387  137.0204  156.4265 O   0  0  0  0  0  0  0  0  0  0  0  0
  151.5337  137.6439  156.0835 C   0  0  2  0  0  0  0  0  0  0  0  0
  151.7853  138.7618  157.0603 N   0  0  0  0  0  0  0  0  0  0  0  0
  150.9796  139.8647  157.2367 C   0  0  0  0  0  0  0  0  0  0  0  0
  151.3904  140.7318  158.1189 N   0  0  0  0  0  0  0  0  0  0  0  0
  152.5959  140.2130  158.5708 C   0  0  0  0  0  0  0  0  0  0  0  0
  153.5670  140.6409  159.5216 C   0  0  0  0  0  0  0  0  0  0  0  0
  153.4800  141.7753  160.2545 N   0  0  0  0  0  0  0  0  0  0  0  0
  153.7499  141.6937  161.6978 C   0  0  0  0  0  0  0  0  0  0  0  0
  153.0475  142.8859  162.3750 C   0  0  0  0  0  0  0  0  0  0  0  0
  152.4963  143.6042  161.1864 C   0  0  0  0  0  0  0  0  0  0  0  0
  151.7868  144.8178  161.1764 C   0  0  0  0  0  0  0  0  0  0  0  0
  151.3690  145.3335  159.9307 C   0  0  0  0  0  0  0  0  0  0  0  0
  151.6692  144.6421  158.7339 C   0  0  0  0  0  0  0  0  0  0  0  0
  152.3846  143.4249  158.7684 C   0  0  0  0  0  0  0  0  0  0  0  0
  152.7820  142.9060  160.0178 C   0  0  0  0  0  0  0  0  0  0  0  0
  154.6297  139.8290  159.7468 N   0  0  0  0  0  0  0  0  0  0  0  0
  154.7594  138.6920  159.0608 C   0  0  0  0  0  0  0  0  0  0  0  0
  153.9460  138.1808  158.1362 N   0  0  0  0  0  0  0  0  0  0  0  0
  152.8546  138.9717  157.9184 C   0  0  0  0  0  0  0  0  0  0  0  0
  151.4035  138.1096  154.6233 C   0  0  1  0  0  0  0  0  0  0  0  0
  152.2161  137.3311  153.7676 O   0  0  0  0  0  0  0  0  0  0  0  0
  149.9223  137.8704  154.3108 C   0  0  2  0  0  0  0  0  0  0  0  0
  149.3406  139.0215  153.7321 O   0  0  0  0  0  0  0  0  0  0  0  0
  148.9430  138.5038  156.1493 H   0  0  0  0  0  0  0  0  0  0  0  0
  152.3717  136.9647  156.2461 H   0  0  0  0  0  0  0  0  0  0  0  0
  151.7097  139.1500  154.5186 H   0  0  0  0  0  0  0  0  0  0  0  0
  149.7987  137.0164  153.6424 H   0  0  0  0  0  0  0  0  0  0  0  0
  148.2024  136.6974  157.5206 H   0  0  0  0  0  0  0  0  0  0  0  0
  148.4150  135.6592  155.0848 H   0  0  0  0  0  0  0  0  0  0  0  0
  147.2851  137.0035  155.0288 H   0  0  0  0  0  0  0  0  0  0  0  0
  150.0611  140.0065  156.6860 H   0  0  0  0  0  0  0  0  0  0  0  0
  153.3908  140.7481  162.1069 H   0  0  0  0  0  0  0  0  0  0  0  0
  154.8268  141.7394  161.8641 H   0  0  0  0  0  0  0  0  0  0  0  0
  152.2409  142.5645  163.0344 H   0  0  0  0  0  0  0  0  0  0  0  0
  153.7426  143.5159  162.9303 H   0  0  0  0  0  0  0  0  0  0  0  0
  151.5698  145.3430  162.0947 H   0  0  0  0  0  0  0  0  0  0  0  0
  150.8220  146.2640  159.8906 H   0  0  0  0  0  0  0  0  0  0  0  0
  151.3520  145.0491  157.7851 H   0  0  0  0  0  0  0  0  0  0  0  0
  152.6213  142.9072  157.8506 H   0  0  0  0  0  0  0  0  0  0  0  0
  155.6390  138.1072  159.2859 H   0  0  0  0  0  0  0  0  0  0  0  0
  151.7633  137.2178  152.9458 H   0  0  0  0  0  0  0  0  0  0  0  0
  149.2239  138.8625  152.8073 H   0  0  0  0  0  0  0  0  0  0  0  0
  1  2  1  0  0  0  0
  1 32  1  0  0  0  0
  2  3  1  0  0  0  0
  2 33  1  0  0  0  0
  2 34  1  0  0  0  0
  3 28  1  0  0  0  0
  3 26  1  0  0  0  0
  3  4  1  0  0  0  0
  4  5  1  0  0  0  0
  5 29  1  0  0  0  0
  5  6  1  0  0  0  0
  5 24  1  0  0  0  0
  6 23  1  0  0  0  0
  6  7  1  0  0  0  0
  7  8  2  0  0  0  0
  7 35  1  0  0  0  0
  8  9  1  0  0  0  0
  9 23  2  0  0  0  0
  9 10  1  0  0  0  0
 10 11  1  0  0  0  0
 10 20  2  0  0  0  0
 11 19  1  0  0  0  0
 11 12  1  0  0  0  0
 12 13  1  0  0  0  0
 12 36  1  0  0  0  0
 12 37  1  0  0  0  0
 13 14  1  0  0  0  0
 13 38  1  0  0  0  0
 13 39  1  0  0  0  0
 14 19  2  0  0  0  0
 14 15  1  0  0  0  0
 15 16  2  0  0  0  0
 15 40  1  0  0  0  0
 16 17  1  0  0  0  0
 16 41  1  0  0  0  0
 17 18  2  0  0  0  0
 17 42  1  0  0  0  0
 18 19  1  0  0  0  0
 18 43  1  0  0  0  0
 20 21  1  0  0  0  0
 21 22  2  0  0  0  0
 21 44  1  0  0  0  0
 22 23  1  0  0  0  0
 24 30  1  0  0  0  0
 24 25  1  0  0  0  0
 24 26  1  0  0  0  0
 25 45  1  0  0  0  0
 26 31  1  0  0  0  0
 26 27  1  0  0  0  0
 27 46  1  0  0  0  0
M  END
> <s_m_source_file>
AV-unprocessed.smi

> <i_m_source_file_index>
110

> <i_lp_mmshare_version>
43012

> <i_f3d_flags>
0

> <s_epik_input>
W09IXVtDSDJdW0NASF0xT1tDQEhdKFtDQEhdKFtPSF0pW0NAQEhdMVtPSF0pbihbY0hdbjIpYyhjMjMpbltjSF1uYzNOKFtDSDJdW0NIMl00KWMoYzQ1KVtjSF1bY0hdW2NIXVtjSF01

> <s_epik_cmdline>
J2VwaWtfcHl0aG9uJywgJy1waCcsICc3LjAnLCAnLXRuJywgJzgnLCAnLW1hJywgJzIwMCcsICctbWV0YWxfYmluZGluZycsICctaW1hZScsICc8aW5maWxlLm1hZT4nLCAnLW9tYWUnLCAnPG91dGZpbGUubWFlPic=

> <r_lp_tautomer_probability>
1

> <r_epik_Ionization_Penalty>
0.00068475

> <r_epik_Ionization_Penalty_Charging>
0

> <r_epik_Ionization_Penalty_Neutral>
0.00068475

> <r_epik_State_Penalty>
0.000417442

> <r_epik_Charging_Adjusted_Penalty>
0.000417442

> <i_epik_Tot_Q>
0

> <i_epik_Tot_abs_Q>
0

> <r_epik_Metal_State_Penalty>
-0

> <b_epik_Metal_Only>
0

> <s_epik_Chemistry_Notes>
This compound contains an acetal/aminal-like group ( X-CH(R)-Y where X, Y are N, S, or O) that may be acid/base labile, releasing an aldehyde.

> <s_lp_Force_Field>
OPLS_2005

> <r_lp_Energy>
55.3724

> <b_lp_Chiralities_Consistent>
1

> <s_lp_Variant>
AV-unprocessed.smi:110-7

> <Gold.Version>
5.8.1

> <Gold.Id.Protein>
6NUR|6NUR_protein|mol2

> <Gold.PLP.Fitness>
61.4515

> <Gold.PLP.PLP>
-54.4278

> <Gold.PLP.part.hbond>
-3.0003

> <Gold.PLP.part.metal>
0.0000

> <Gold.PLP.part.buried>
-5.0845

> <Gold.PLP.part.nonpolar>
-46.2067

> <Gold.PLP.part.repulsive>
0.0109

> <Gold.PLP.ligand.clash>
0.0000

> <Gold.PLP.ligand.torsion>
0.4980

> <Gold.PLP.Chemscore.Hbond>
2.6160

> <Gold.PLP.Chemscore.CHOScore>
0.0000

> <Gold.PLP.Chemscore.Metal>
0.0000

> <Gold.Chemscore.Hbonds>
donor molecule, donor type, donor heavy atom, donor atom, acceptor molecule, acceptor atom, score
      L1  H    25    45       P1  7949  0.96
      L1  H    27    46       P1  7957  0.63
      P1  H 10752 10764       L1    25  0.94

> <Gold.PLP.Chemscore.Internal.Correction>
0.1717

> <Gold.Rescore>
     Score         DG    S(hbond)    S(metal)    S(lipo)     H(rot)  DE(clash)    DE(int)     intcor
     16.43     -18.56       2.17        0.00     123.96       3.38       0.42       1.71       ----

> <Gold.Chemscore.Fitness>
16.4336

> <Gold.Chemscore.DG>
-18.5596

> <Gold.Chemscore.ZeroCoef>
-5.4800

> <Gold.Chemscore.Hbond>
2.1672

> <Gold.Chemscore.Metal>
0.0000

> <Gold.Chemscore.Lipo>
123.9593

> <Gold.Chemscore.Internal_Hbond>
0.0000

> <Gold.Chemscore.DEClash>
0.4158

> <Gold.Chemscore.DEInternal>
1.7102

> <Gold.Chemscore.Rot>
3.3837

> <Gold.Chemscore.Internal.Correction>
   9.000000E+99

> <Gold.Chemscore.Hbonds>
donor molecule, donor type, donor heavy atom, donor atom, acceptor molecule, acceptor atom, score
      L1  H    25    45       P1  7949  0.88
      L1  H    27    46       P1  7957  0.56
      P1  H 10752 10764       L1    25  0.27

> <Gold.Chemscore.Hbond.Weighted>
-7.2385

> <Gold.Chemscore.Metal.Weighted>
-0.0000

> <Gold.Chemscore.Lipo.Weighted>
-14.5032

> <Gold.Chemscore.Internal_Hbond.Weighted>
0.0000

> <Gold.Chemscore.DEClash.Weighted>
0.4158

> <Gold.Chemscore.DEInternal.Weighted>
1.7102

> <Gold.Chemscore.Rot.Weighted>
8.6622

> <Gold.Chemscore.Internal.Correction.Weighted>
   9.000000E+99

> <Gold.Protein.RotatedTorsions>
[ 6907 6896 6895 6894 ] final  -18.39 input  -60.11 | X-H torsion
[ 7974 7965 7964 7962 ] final  -24.95 input  175.53 | X-H torsion
[ 8008 7997 7996 7995 ] final  116.97 input   59.86 | X-H torsion
[ 10167 10162 10161 10158 ] final   -9.42 input  -65.29 | X-H torsion
[ 10718 10713 10712 10709 ] final  -32.25 input   66.30 | X-H torsion
[ 10763 10752 10751 10750 ] final -100.67 input  -60.55 | X-H torsion
[ 11005 11000 10999 10996 ] final  -42.18 input  -57.11 | X-H torsion

> <Gold.Protein.ActiveResidues>
 VAL166  LYS551  ARG553  GLY616  TRP617  ASP618  TYR619  PRO620  LYS621  CYS622 
 ASP623  PHE694  ASN695  SER759  ASP760  ASP761  ALA762  ILE779  LEU786  VAL792 
 PHE793  MET794  SER795  GLU796  ALA797  LYS798  CYS799  TRP800  GLU811  SER814 

> <Gold.Protein.RotatedAtoms>
  151.2790  135.0708  159.9161 H   0  0  0  0  0  0  0  0  0  0  0  0  # atno 6907 bound_to 6896
  152.5337  134.0051  159.7923 H   0  0  0  0  0  0  0  0  0  0  0  0  # atno 6908 bound_to 6896
  151.0302  133.5747  159.2692 H   0  0  0  0  0  0  0  0  0  0  0  0  # atno 6909 bound_to 6896
  146.1522  140.4821  142.8606 H   0  0  0  0  0  0  0  0  0  0  0  0  # atno 7974 bound_to 7965
  156.2469  140.2906  156.0606 H   0  0  0  0  0  0  0  0  0  0  0  0  # atno 8008 bound_to 7997
  155.1780  140.0403  157.2893 H   0  0  0  0  0  0  0  0  0  0  0  0  # atno 8009 bound_to 7997
  154.6280  140.2492  155.7475 H   0  0  0  0  0  0  0  0  0  0  0  0  # atno 8010 bound_to 7997
  140.7087  143.5860  150.8943 H   0  0  0  0  0  0  0  0  0  0  0  0  # atno 10167 bound_to 10162
  156.3773  130.4350  149.7497 H   0  0  0  0  0  0  0  0  0  0  0  0  # atno 10718 bound_to 10713
  154.7598  135.4926  153.9442 H   0  0  0  0  0  0  0  0  0  0  0  0  # atno 10763 bound_to 10752
  153.1237  135.6737  153.9300 H   0  0  0  0  0  0  0  0  0  0  0  0  # atno 10764 bound_to 10752
  153.9024  135.3108  155.3427 H   0  0  0  0  0  0  0  0  0  0  0  0  # atno 10765 bound_to 10752
  141.0298  133.6825  156.2559 H   0  0  0  0  0  0  0  0  0  0  0  0  # atno 11005 bound_to 11000
  144.7918  140.6046  143.6536 LP  0  0  0  0  0  0  0  0  0  0  0  0  # atno 17320 bound_to 7965
  145.4796  139.1496  143.3769 LP  0  0  0  0  0  0  0  0  0  0  0  0  # atno 17321 bound_to 7965
  139.9585  143.6190  152.3009 LP  0  0  0  0  0  0  0  0  0  0  0  0  # atno 17342 bound_to 10162
  139.6734  144.7660  151.1740 LP  0  0  0  0  0  0  0  0  0  0  0  0  # atno 17343 bound_to 10162
  156.4601  130.7948  151.2968 LP  0  0  0  0  0  0  0  0  0  0  0  0  # atno 17370 bound_to 10713
  157.7489  131.0068  150.3166 LP  0  0  0  0  0  0  0  0  0  0  0  0  # atno 17371 bound_to 10713
  140.6427  134.5149  157.5571 LP  0  0  0  0  0  0  0  0  0  0  0  0  # atno 17394 bound_to 11000
  139.9200  134.8168  156.1242 LP  0  0  0  0  0  0  0  0  0  0  0  0  # atno 17395 bound_to 11000

$$$$
