AV-unprocessed.smi:1096|AV-procd|sdf|4749|dock9
  -GOLD-   22720 3283D 1   1.00000     0.00000
 Structure written by MMmdl.
 48 50  0  0  0  0  0  0  0  0  1 V2000
  150.1267  134.0720  155.6945 O   0  0  0  0  0  0  0  0  0  0  0  0
  149.7285  134.7898  154.7766 C   0  0  0  0  0  0  0  0  0  0  0  0
  148.8745  134.4135  153.8083 N   0  0  0  0  0  0  0  0  0  0  0  0
  148.2774  133.1402  153.6099 C   0  0  0  0  0  0  0  0  0  0  0  0
  148.9497  132.0612  154.2277 C   0  0  0  0  0  0  0  0  0  0  0  0
  148.4358  130.7569  154.0940 C   0  0  0  0  0  0  0  0  0  0  0  0
  147.2606  130.5647  153.3458 C   0  0  0  0  0  0  0  0  0  0  0  0
  146.6533  131.6925  152.7638 C   0  0  0  0  0  0  0  0  0  0  0  0
  147.1443  132.9434  152.8901 N   0  0  0  0  0  0  0  0  0  0  0  0
  150.1018  136.0688  154.6226 N   0  0  0  0  0  0  0  0  0  0  0  0
  151.0084  136.7960  155.5062 C   0  0  2  0  0  0  0  0  0  0  0  0
  150.3553  136.9570  156.8914 C   0  0  0  0  0  0  0  0  0  0  0  0
  151.2443  137.7761  157.8407 C   0  0  0  0  0  0  0  0  0  0  0  0
  151.5724  139.1630  157.2430 C   0  0  1  0  0  0  0  0  0  0  0  0
  152.4558  140.0055  158.1887 C   0  0  0  0  0  0  0  0  0  0  0  0
  153.5568  139.5570  158.5126 O   0  0  0  0  0  0  0  0  0  0  0  0
  151.9966  141.1889  158.6691 N   0  0  0  0  0  0  0  0  0  0  0  0
  150.7825  141.8282  158.1474 C   0  0  0  0  0  0  0  0  0  0  0  0
  151.1898  142.9510  157.1775 C   0  0  0  0  0  0  0  0  0  0  0  0
  152.1574  144.2387  158.0282 S   0  0  0  0  0  0  0  0  0  0  0  0
  153.3796  143.1956  158.8845 C   0  0  0  0  0  0  0  0  0  0  0  0
  152.6858  142.0497  159.6383 C   0  0  0  0  0  0  0  0  0  0  0  0
  152.2515  138.9881  155.8691 C   0  0  0  0  0  0  0  0  0  0  0  0
  151.3699  138.1722  154.9098 C   0  0  0  0  0  0  0  0  0  0  0  0
  148.6263  135.1191  153.1308 H   0  0  0  0  0  0  0  0  0  0  0  0
  149.8514  132.2266  154.7994 H   0  0  0  0  0  0  0  0  0  0  0  0
  148.9353  129.9192  154.5581 H   0  0  0  0  0  0  0  0  0  0  0  0
  146.8360  129.5795  153.2212 H   0  0  0  0  0  0  0  0  0  0  0  0
  145.7492  131.5885  152.1824 H   0  0  0  0  0  0  0  0  0  0  0  0
  149.7252  136.5822  153.8393 H   0  0  0  0  0  0  0  0  0  0  0  0
  151.9237  136.2138  155.6291 H   0  0  0  0  0  0  0  0  0  0  0  0
  149.3866  137.4487  156.7904 H   0  0  0  0  0  0  0  0  0  0  0  0
  150.1600  135.9768  157.3282 H   0  0  0  0  0  0  0  0  0  0  0  0
  150.7417  137.8906  158.8021 H   0  0  0  0  0  0  0  0  0  0  0  0
  152.1610  137.2166  158.0347 H   0  0  0  0  0  0  0  0  0  0  0  0
  150.6121  139.6591  157.1080 H   0  0  0  0  0  0  0  0  0  0  0  0
  150.1271  141.1209  157.6375 H   0  0  0  0  0  0  0  0  0  0  0  0
  150.1865  142.2341  158.9659 H   0  0  0  0  0  0  0  0  0  0  0  0
  151.7830  142.5462  156.3565 H   0  0  0  0  0  0  0  0  0  0  0  0
  150.3060  143.4117  156.7358 H   0  0  0  0  0  0  0  0  0  0  0  0
  154.0865  142.8001  158.1543 H   0  0  0  0  0  0  0  0  0  0  0  0
  153.9479  143.8177  159.5762 H   0  0  0  0  0  0  0  0  0  0  0  0
  151.9660  142.4587  160.3487 H   0  0  0  0  0  0  0  0  0  0  0  0
  153.3981  141.5062  160.2569 H   0  0  0  0  0  0  0  0  0  0  0  0
  152.4661  139.9599  155.4229 H   0  0  0  0  0  0  0  0  0  0  0  0
  153.2138  138.4881  155.9897 H   0  0  0  0  0  0  0  0  0  0  0  0
  151.8881  138.0478  153.9584 H   0  0  0  0  0  0  0  0  0  0  0  0
  150.4591  138.7324  154.6932 H   0  0  0  0  0  0  0  0  0  0  0  0
  1  2  2  0  0  0  0
  2  3  1  0  0  0  0
  2 10  1  0  0  0  0
  3  4  1  0  0  0  0
  3 25  1  0  0  0  0
  4  9  1  0  0  0  0
  4  5  2  0  0  0  0
  5  6  1  0  0  0  0
  5 26  1  0  0  0  0
  6  7  2  0  0  0  0
  6 27  1  0  0  0  0
  7  8  1  0  0  0  0
  7 28  1  0  0  0  0
  8  9  2  0  0  0  0
  8 29  1  0  0  0  0
 10 11  1  0  0  0  0
 10 30  1  0  0  0  0
 11 24  1  0  0  0  0
 11 12  1  0  0  0  0
 11 31  1  0  0  0  0
 12 13  1  0  0  0  0
 12 32  1  0  0  0  0
 12 33  1  0  0  0  0
 13 14  1  0  0  0  0
 13 34  1  0  0  0  0
 13 35  1  0  0  0  0
 14 15  1  0  0  0  0
 14 23  1  0  0  0  0
 14 36  1  0  0  0  0
 15 16  2  0  0  0  0
 15 17  1  0  0  0  0
 17 22  1  0  0  0  0
 17 18  1  0  0  0  0
 18 19  1  0  0  0  0
 18 37  1  0  0  0  0
 18 38  1  0  0  0  0
 19 20  1  0  0  0  0
 19 39  1  0  0  0  0
 19 40  1  0  0  0  0
 20 21  1  0  0  0  0
 21 22  1  0  0  0  0
 21 41  1  0  0  0  0
 21 42  1  0  0  0  0
 22 43  1  0  0  0  0
 22 44  1  0  0  0  0
 23 24  1  0  0  0  0
 23 45  1  0  0  0  0
 23 46  1  0  0  0  0
 24 47  1  0  0  0  0
 24 48  1  0  0  0  0
M  END
> <s_m_source_file>
AV-unprocessed.smi

> <i_m_source_file_index>
1096

> <i_lp_mmshare_version>
43012

> <i_f3d_flags>
0

> <s_epik_input>
bjFbY0hdW2NIXVtjSF1bY0hdYzFbTkhdQyg9TylbTkhdW0NAQEhdMltDSDJdW0NIMl1bQ0BIXShbQ0gyXVtDSDJdMilDKD1PKU4zW0NIMl1bQ0gyXVNbQ0gyXVtDSDJdMw==

> <s_epik_cmdline>
J2VwaWtfcHl0aG9uJywgJy1waCcsICc3LjAnLCAnLXRuJywgJzgnLCAnLW1hJywgJzIwMCcsICctbWV0YWxfYmluZGluZycsICctaW1hZScsICc8aW5maWxlLm1hZT4nLCAnLW9tYWUnLCAnPG91dGZpbGUubWFlPic=

> <r_lp_tautomer_probability>
1

> <r_epik_Ionization_Penalty>
5.08504e-05

> <r_epik_Ionization_Penalty_Charging>
0

> <r_epik_Ionization_Penalty_Neutral>
5.08504e-05

> <r_epik_State_Penalty>
-0

> <r_epik_Charging_Adjusted_Penalty>
0

> <i_epik_Tot_Q>
0

> <i_epik_Tot_abs_Q>
0

> <r_epik_Metal_State_Penalty>
-0

> <b_epik_Metal_Only>
0

> <s_lp_Force_Field>
OPLS_2005

> <r_lp_Energy>
29.3602

> <b_lp_Chiralities_Consistent>
1

> <s_lp_Variant>
AV-unprocessed.smi:1096-1

> <Gold.Version>
5.8.1

> <Gold.Id.Protein>
6NUR|6NUR_protein|mol2

> <Gold.PLP.Fitness>
51.7718

> <Gold.PLP.PLP>
-44.0410

> <Gold.PLP.part.hbond>
-3.3223

> <Gold.PLP.part.metal>
0.0000

> <Gold.PLP.part.buried>
-4.0274

> <Gold.PLP.part.nonpolar>
-36.9232

> <Gold.PLP.part.repulsive>
0.2368

> <Gold.PLP.ligand.clash>
0.0000

> <Gold.PLP.ligand.torsion>
0.1807

> <Gold.PLP.Chemscore.Hbond>
2.6752

> <Gold.PLP.Chemscore.CHOScore>
0.0000

> <Gold.PLP.Chemscore.Metal>
0.0000

> <Gold.Chemscore.Hbonds>
donor molecule, donor type, donor heavy atom, donor atom, acceptor molecule, acceptor atom, score
      L1  H     3    25       P1  7948  1.00
      L1  H    10    30       P1  7948  0.61
      P1  H  7997  8008       L1    16  1.00

> <Gold.PLP.Chemscore.Internal.Correction>
0.0664

> <Gold.Rescore>
     Score         DG    S(hbond)    S(metal)    S(lipo)     H(rot)  DE(clash)    DE(int)     intcor
     19.71     -21.44       2.18        0.00     101.69       1.26       0.06       1.67       ----

> <Gold.Chemscore.Fitness>
19.7076

> <Gold.Chemscore.DG>
-21.4422

> <Gold.Chemscore.ZeroCoef>
-5.4800

> <Gold.Chemscore.Hbond>
2.1811

> <Gold.Chemscore.Metal>
0.0000

> <Gold.Chemscore.Lipo>
101.6879

> <Gold.Chemscore.Internal_Hbond>
0.0000

> <Gold.Chemscore.DEClash>
0.0603

> <Gold.Chemscore.DEInternal>
1.6743

> <Gold.Chemscore.Rot>
1.2578

> <Gold.Chemscore.Internal.Correction>
   9.000000E+99

> <Gold.Chemscore.Hbonds>
donor molecule, donor type, donor heavy atom, donor atom, acceptor molecule, acceptor atom, score
      L1  H     3    25       P1  7948  0.68
      L1  H    10    30       P1  7948  0.36
      P1  H  7997  8008       L1    16  0.45

> <Gold.Chemscore.Hbond.Weighted>
-7.2847

> <Gold.Chemscore.Metal.Weighted>
-0.0000

> <Gold.Chemscore.Lipo.Weighted>
-11.8975

> <Gold.Chemscore.Internal_Hbond.Weighted>
0.0000

> <Gold.Chemscore.DEClash.Weighted>
0.0603

> <Gold.Chemscore.DEInternal.Weighted>
1.6743

> <Gold.Chemscore.Rot.Weighted>
3.2200

> <Gold.Chemscore.Internal.Correction.Weighted>
   9.000000E+99

> <Gold.Protein.RotatedTorsions>
[ 6907 6896 6895 6894 ] final  136.91 input  -60.11 | X-H torsion
[ 7974 7965 7964 7962 ] final   41.27 input  175.53 | X-H torsion
[ 8008 7997 7996 7995 ] final  -92.20 input   59.86 | X-H torsion
[ 10167 10162 10161 10158 ] final  118.39 input  -65.29 | X-H torsion
[ 10718 10713 10712 10709 ] final  129.19 input   66.30 | X-H torsion
[ 10763 10752 10751 10750 ] final  115.31 input  -60.55 | X-H torsion
[ 11005 11000 10999 10996 ] final -135.94 input  -57.11 | X-H torsion

> <Gold.Protein.ActiveResidues>
 VAL166  LYS551  ARG553  GLY616  TRP617  ASP618  TYR619  PRO620  LYS621  CYS622 
 ASP623  PHE694  ASN695  SER759  ASP760  ASP761  ALA762  ILE779  LEU786  VAL792 
 PHE793  MET794  SER795  GLU796  ALA797  LYS798  CYS799  TRP800  GLU811  SER814 

> <Gold.Protein.RotatedAtoms>
  152.2840  133.5498  159.5515 H   0  0  0  0  0  0  0  0  0  0  0  0  # atno 6907 bound_to 6896
  150.7208  134.0523  159.3811 H   0  0  0  0  0  0  0  0  0  0  0  0  # atno 6908 bound_to 6896
  151.8432  135.0583  160.0501 H   0  0  0  0  0  0  0  0  0  0  0  0  # atno 6909 bound_to 6896
  146.0837  139.5436  142.9520 H   0  0  0  0  0  0  0  0  0  0  0  0  # atno 7974 bound_to 7965
  154.7202  140.0511  157.0632 H   0  0  0  0  0  0  0  0  0  0  0  0  # atno 8008 bound_to 7997
  155.0438  140.3171  155.4696 H   0  0  0  0  0  0  0  0  0  0  0  0  # atno 8009 bound_to 7997
  156.2814  140.2128  156.5562 H   0  0  0  0  0  0  0  0  0  0  0  0  # atno 8010 bound_to 7997
  139.6115  144.7083  151.2834 H   0  0  0  0  0  0  0  0  0  0  0  0  # atno 10167 bound_to 10162
  157.5176  131.1098  150.9201 H   0  0  0  0  0  0  0  0  0  0  0  0  # atno 10718 bound_to 10713
  153.5203  135.3599  155.2628 H   0  0  0  0  0  0  0  0  0  0  0  0  # atno 10763 bound_to 10752
  154.8735  135.4044  154.3268 H   0  0  0  0  0  0  0  0  0  0  0  0  # atno 10764 bound_to 10752
  153.3937  135.7072  153.6543 H   0  0  0  0  0  0  0  0  0  0  0  0  # atno 10765 bound_to 10752
  140.8852  134.1882  157.4565 H   0  0  0  0  0  0  0  0  0  0  0  0  # atno 11005 bound_to 11000
  145.6169  141.0329  143.1936 LP  0  0  0  0  0  0  0  0  0  0  0  0  # atno 17320 bound_to 7965
  144.7311  139.7723  143.7347 LP  0  0  0  0  0  0  0  0  0  0  0  0  # atno 17321 bound_to 7965
  140.7322  143.6830  150.7985 LP  0  0  0  0  0  0  0  0  0  0  0  0  # atno 17342 bound_to 10162
  140.0426  143.5331  152.2711 LP  0  0  0  0  0  0  0  0  0  0  0  0  # atno 17343 bound_to 10162
  156.9821  130.5531  149.5297 LP  0  0  0  0  0  0  0  0  0  0  0  0  # atno 17370 bound_to 10713
  156.0331  130.5421  150.8585 LP  0  0  0  0  0  0  0  0  0  0  0  0  # atno 17371 bound_to 10713
  139.8723  134.9834  156.5198 LP  0  0  0  0  0  0  0  0  0  0  0  0  # atno 17394 bound_to 11000
  140.8414  133.8202  155.9078 LP  0  0  0  0  0  0  0  0  0  0  0  0  # atno 17395 bound_to 11000

$$$$
