AV-unprocessed.smi:1726|AV-procd|sdf|6963|dock5
  -GOLD-   22720 8173D 1   1.00000     0.00000
 Structure written by MMmdl.
 42 43  0  0  0  0  0  0  0  0  3 V2000
  144.2477  132.3327  149.2368 C   0  0  0  0  0  0  0  0  0  0  0  0
  143.5817  132.0822  150.5977 C   0  0  0  0  0  0  0  0  0  0  0  0
  144.5741  131.8896  151.6841 N   0  3  1  0  0  0  0  0  0  0  0  0
  145.3969  130.6666  151.4938 C   0  0  0  0  0  0  0  0  0  0  0  0
  146.3066  130.4105  152.7091 C   0  0  0  0  0  0  0  0  0  0  0  0
  147.1707  131.6406  153.0372 C   0  0  0  0  0  0  0  0  0  0  0  0
  146.3000  132.9018  153.1820 C   0  0  2  0  0  0  0  0  0  0  0  0
  145.4766  132.8001  154.3872 N   0  0  0  0  0  0  0  0  0  0  0  0
  145.8755  133.0987  155.6316 C   0  0  0  0  0  0  0  0  0  0  0  0
  147.0156  133.4767  155.9000 O   0  0  0  0  0  0  0  0  0  0  0  0
  144.8599  132.9633  156.5024 N   0  0  0  0  0  0  0  0  0  0  0  0
  144.8365  133.2046  157.8859 C   0  0  0  0  0  0  0  0  0  0  0  0
  145.9096  133.6022  158.6241 C   0  0  0  0  0  0  0  0  0  0  0  0
  145.8253  133.8304  160.0611 C   0  0  0  0  0  0  0  0  0  0  0  0
  147.0159  134.2013  160.9274 C   0  0  0  0  0  0  0  0  0  0  0  0
  147.9284  133.2316  160.8831 F   0  0  0  0  0  0  0  0  0  0  0  0
  147.5861  135.3287  160.5012 F   0  0  0  0  0  0  0  0  0  0  0  0
  146.6492  134.3700  162.1980 F   0  0  0  0  0  0  0  0  0  0  0  0
  144.5646  133.5672  160.5611 C   0  0  0  0  0  0  0  0  0  0  0  0
  143.4515  133.1793  159.9006 N   0  5  0  0  0  0  0  0  0  0  0  0
  143.5394  132.9778  158.5557 C   0  0  0  0  0  0  0  0  0  0  0  0
  142.5663  132.6163  157.8926 O   0  0  0  0  0  0  0  0  0  0  0  0
  145.4347  133.0801  151.9148 C   0  0  0  0  0  0  0  0  0  0  0  0
  143.4979  132.5628  148.4797 H   0  0  0  0  0  0  0  0  0  0  0  0
  144.8048  131.4651  148.8847 H   0  0  0  0  0  0  0  0  0  0  0  0
  144.9365  133.1769  149.2854 H   0  0  0  0  0  0  0  0  0  0  0  0
  142.9629  132.9508  150.8272 H   0  0  0  0  0  0  0  0  0  0  0  0
  142.9070  131.2263  150.5480 H   0  0  0  0  0  0  0  0  0  0  0  0
  144.7478  129.8024  151.3472 H   0  0  0  0  0  0  0  0  0  0  0  0
  145.9976  130.7694  150.5886 H   0  0  0  0  0  0  0  0  0  0  0  0
  145.6941  130.1492  153.5729 H   0  0  0  0  0  0  0  0  0  0  0  0
  146.9463  129.5484  152.5185 H   0  0  0  0  0  0  0  0  0  0  0  0
  147.7485  131.4668  153.9459 H   0  0  0  0  0  0  0  0  0  0  0  0
  147.8969  131.7934  152.2377 H   0  0  0  0  0  0  0  0  0  0  0  0
  146.9578  133.7657  153.2913 H   0  0  0  0  0  0  0  0  0  0  0  0
  144.5241  132.4893  154.2616 H   0  0  0  0  0  0  0  0  0  0  0  0
  143.9641  132.7057  156.1143 H   0  0  0  0  0  0  0  0  0  0  0  0
  146.8733  133.7476  158.1643 H   0  0  0  0  0  0  0  0  0  0  0  0
  144.4312  133.6828  161.6578 H   0  0  0  0  0  0  0  0  0  0  0  0
  146.0743  133.2380  151.0449 H   0  0  0  0  0  0  0  0  0  0  0  0
  144.8272  133.9791  152.0087 H   0  0  0  0  0  0  0  0  0  0  0  0
  144.0423  131.7446  152.5306 H   0  0  0  0  0  0  0  0  0  0  0  0
  1  2  1  0  0  0  0
  1 24  1  0  0  0  0
  1 25  1  0  0  0  0
  1 26  1  0  0  0  0
  2  3  1  0  0  0  0
  2 27  1  0  0  0  0
  2 28  1  0  0  0  0
  3 23  1  0  0  0  0
  3  4  1  0  0  0  0
  3 42  1  0  0  0  0
  4  5  1  0  0  0  0
  4 29  1  0  0  0  0
  4 30  1  0  0  0  0
  5  6  1  0  0  0  0
  5 31  1  0  0  0  0
  5 32  1  0  0  0  0
  6  7  1  0  0  0  0
  6 33  1  0  0  0  0
  6 34  1  0  0  0  0
  7  8  1  0  0  0  0
  7 23  1  0  0  0  0
  7 35  1  0  0  0  0
  8  9  1  0  0  0  0
  8 36  1  0  0  0  0
  9 10  2  0  0  0  0
  9 11  1  0  0  0  0
 11 12  1  0  0  0  0
 11 37  1  0  0  0  0
 12 21  1  0  0  0  0
 12 13  2  0  0  0  0
 13 14  1  0  0  0  0
 13 38  1  0  0  0  0
 14 15  1  0  0  0  0
 14 19  2  0  0  0  0
 15 16  1  0  0  0  0
 15 17  1  0  0  0  0
 15 18  1  0  0  0  0
 19 20  1  0  0  0  0
 19 39  1  0  0  0  0
 20 21  1  0  0  0  0
 21 22  2  0  0  0  0
 23 40  1  0  0  0  0
 23 41  1  0  0  0  0
M  CHG  1   3   1
M  CHG  1  20  -1
M  END
> <s_m_source_file>
AV-unprocessed.smi

> <i_m_source_file_index>
1726

> <i_lp_mmshare_version>
43012

> <i_f3d_flags>
0

> <s_epik_input>
W0NIM11bQ0gyXU4xW0NIMl1bQ0gyXVtDSDJdW0NASF0oW0NIMl0xKVtOSF1DKD1PKVtOSF1jMltjSF1jKEMoRikoRilGKVtjSF1bbkhdYzI9Tw==

> <s_epik_cmdline>
J2VwaWtfcHl0aG9uJywgJy1waCcsICc3LjAnLCAnLXRuJywgJzgnLCAnLW1hJywgJzIwMCcsICctbWV0YWxfYmluZGluZycsICctaW1hZScsICc8aW5maWxlLm1hZT4nLCAnLW9tYWUnLCAnPG91dGZpbGUubWFlPic=

> <r_lp_tautomer_probability>
1

> <r_epik_Ionization_Penalty>
3.01007

> <r_epik_Ionization_Penalty_Charging>
0.14897

> <r_epik_Ionization_Penalty_Neutral>
2.8611

> <r_epik_State_Penalty>
2.85632

> <r_epik_Charging_Adjusted_Penalty>
3.00529

> <i_epik_Tot_Q>
0

> <i_epik_Tot_abs_Q>
2

> <r_epik_Metal_State_Penalty>
0.443826

> <b_epik_Metal_Only>
1

> <s_lp_Force_Field>
OPLS_2005

> <r_lp_Energy>
34.1377

> <b_lp_Chiralities_Consistent>
1

> <s_lp_Variant>
AV-unprocessed.smi:1726-7

> <Gold.Version>
5.8.1

> <Gold.Id.Protein>
6NUR|6NUR_protein|mol2

> <Gold.PLP.Fitness>
39.6592

> <Gold.PLP.PLP>
-31.4326

> <Gold.PLP.part.hbond>
-3.0000

> <Gold.PLP.part.metal>
0.0000

> <Gold.PLP.part.buried>
-5.3941

> <Gold.PLP.part.nonpolar>
-23.6499

> <Gold.PLP.part.repulsive>
0.2093

> <Gold.PLP.ligand.clash>
0.0000

> <Gold.PLP.ligand.torsion>
0.4127

> <Gold.PLP.Chemscore.Hbond>
2.9913

> <Gold.PLP.Chemscore.CHOScore>
0.0000

> <Gold.PLP.Chemscore.Metal>
0.0000

> <Gold.Chemscore.Hbonds>
donor molecule, donor type, donor heavy atom, donor atom, acceptor molecule, acceptor atom, score
      L1  H     8    36       P1 10957  0.96
      L1  H    11    37       P1 10957  0.96
      P1  H 11000 11005       L1    22  1.00

> <Gold.PLP.Chemscore.Internal.Correction>
0.0783

> <Gold.Rescore>
     Score         DG    S(hbond)    S(metal)    S(lipo)     H(rot)  DE(clash)    DE(int)     intcor
     17.70     -19.16       2.77        0.00      65.89       1.28       0.02       1.45       ----

> <Gold.Chemscore.Fitness>
17.6976

> <Gold.Chemscore.DG>
-19.1650

> <Gold.Chemscore.ZeroCoef>
-5.4800

> <Gold.Chemscore.Hbond>
2.7699

> <Gold.Chemscore.Metal>
0.0000

> <Gold.Chemscore.Lipo>
65.8915

> <Gold.Chemscore.Internal_Hbond>
0.0000

> <Gold.Chemscore.DEClash>
0.0223

> <Gold.Chemscore.DEInternal>
1.4451

> <Gold.Chemscore.Rot>
1.2796

> <Gold.Chemscore.Internal.Correction>
   9.000000E+99

> <Gold.Chemscore.Hbonds>
donor molecule, donor type, donor heavy atom, donor atom, acceptor molecule, acceptor atom, score
      L1  H     8    36       P1 10957  0.59
      L1  H    11    37       P1 10957  0.89
      P1  H 11000 11005       L1    22  0.98

> <Gold.Chemscore.Hbond.Weighted>
-9.2515

> <Gold.Chemscore.Metal.Weighted>
-0.0000

> <Gold.Chemscore.Lipo.Weighted>
-7.7093

> <Gold.Chemscore.Internal_Hbond.Weighted>
0.0000

> <Gold.Chemscore.DEClash.Weighted>
0.0223

> <Gold.Chemscore.DEInternal.Weighted>
1.4451

> <Gold.Chemscore.Rot.Weighted>
3.2759

> <Gold.Chemscore.Internal.Correction.Weighted>
   9.000000E+99

> <Gold.Protein.RotatedTorsions>
[ 6907 6896 6895 6894 ] final  100.37 input  -60.11 | X-H torsion
[ 7974 7965 7964 7962 ] final -131.29 input  175.53 | X-H torsion
[ 8008 7997 7996 7995 ] final  167.96 input   59.86 | X-H torsion
[ 10167 10162 10161 10158 ] final   89.81 input  -65.29 | X-H torsion
[ 10718 10713 10712 10709 ] final   55.76 input   66.30 | X-H torsion
[ 10763 10752 10751 10750 ] final  102.74 input  -60.55 | X-H torsion
[ 11005 11000 10999 10996 ] final  -92.54 input  -57.11 | X-H torsion

> <Gold.Protein.ActiveResidues>
 VAL166  LYS551  ARG553  GLY616  TRP617  ASP618  TYR619  PRO620  LYS621  CYS622 
 ASP623  PHE694  ASN695  SER759  ASP760  ASP761  ALA762  ILE779  LEU786  VAL792 
 PHE793  MET794  SER795  GLU796  ALA797  LYS798  CYS799  TRP800  GLU811  SER814 

> <Gold.Protein.RotatedAtoms>
  152.5373  134.0286  159.8014 H   0  0  0  0  0  0  0  0  0  0  0  0  # atno 6907 bound_to 6896
  151.0461  133.5656  159.2654 H   0  0  0  0  0  0  0  0  0  0  0  0  # atno 6908 bound_to 6896
  151.2608  135.0661  159.9151 H   0  0  0  0  0  0  0  0  0  0  0  0  # atno 6909 bound_to 6896
  144.9394  140.7221  143.4856 H   0  0  0  0  0  0  0  0  0  0  0  0  # atno 7974 bound_to 7965
  156.1589  140.1603  156.8646 H   0  0  0  0  0  0  0  0  0  0  0  0  # atno 8008 bound_to 7997
  154.5141  140.0794  156.8083 H   0  0  0  0  0  0  0  0  0  0  0  0  # atno 8009 bound_to 7997
  155.3748  140.3402  155.4247 H   0  0  0  0  0  0  0  0  0  0  0  0  # atno 8010 bound_to 7997
  139.8536  144.6581  150.9141 H   0  0  0  0  0  0  0  0  0  0  0  0  # atno 10167 bound_to 10162
  157.5373  130.8672  149.8772 H   0  0  0  0  0  0  0  0  0  0  0  0  # atno 10718 bound_to 10713
  153.3436  135.4000  155.1591 H   0  0  0  0  0  0  0  0  0  0  0  0  # atno 10763 bound_to 10752
  154.8648  135.3639  154.5314 H   0  0  0  0  0  0  0  0  0  0  0  0  # atno 10764 bound_to 10752
  153.5760  135.7078  153.5543 H   0  0  0  0  0  0  0  0  0  0  0  0  # atno 10765 bound_to 10752
  141.1519  133.7828  157.0035 H   0  0  0  0  0  0  0  0  0  0  0  0  # atno 11005 bound_to 11000
  145.3016  139.1848  143.4687 LP  0  0  0  0  0  0  0  0  0  0  0  0  # atno 17320 bound_to 7965
  146.3279  140.3007  142.8620 LP  0  0  0  0  0  0  0  0  0  0  0  0  # atno 17321 bound_to 7965
  140.7784  143.3806  151.1484 LP  0  0  0  0  0  0  0  0  0  0  0  0  # atno 17342 bound_to 10162
  139.7442  143.8878  152.3058 LP  0  0  0  0  0  0  0  0  0  0  0  0  # atno 17343 bound_to 10162
  156.0469  130.3726  150.1296 LP  0  0  0  0  0  0  0  0  0  0  0  0  # atno 17370 bound_to 10713
  156.9478  130.9765  151.3504 LP  0  0  0  0  0  0  0  0  0  0  0  0  # atno 17371 bound_to 10713
  140.0924  134.9584  157.1797 LP  0  0  0  0  0  0  0  0  0  0  0  0  # atno 17394 bound_to 11000
  140.3427  134.2686  155.7209 LP  0  0  0  0  0  0  0  0  0  0  0  0  # atno 17395 bound_to 11000

$$$$
