AV-unprocessed.smi:1563|AV-procd|sdf|6290|dock5
  -GOLD-   22720 6493D 1   1.00000     0.00000
 Structure written by MMmdl.
 43 44  0  0  0  0  0  0  0  0  1 V2000
  143.9623  140.4491  158.7276 C   0  0  0  0  0  0  0  0  0  0  0  0
  144.8581  139.9612  157.5940 C   0  0  0  0  0  0  0  0  0  0  0  0
  144.5957  138.9097  157.0110 O   0  0  0  0  0  0  0  0  0  0  0  0
  145.9084  140.7380  157.2878 N   0  0  0  0  0  0  0  0  0  0  0  0
  146.8793  140.4605  156.2345 C   0  0  1  0  0  0  0  0  0  0  0  0
  146.1895  140.4191  154.8510 C   0  0  0  0  0  0  0  0  0  0  0  0
  147.2088  140.3389  153.6980 C   0  0  0  0  0  0  0  0  0  0  0  0
  148.3030  141.4106  153.8512 C   0  0  0  0  0  0  0  0  0  0  0  0
  148.9379  141.2440  155.1693 N   0  0  0  0  0  0  0  0  0  0  0  0
  150.1400  140.6625  155.4116 C   0  0  0  0  0  0  0  0  0  0  0  0
  150.7389  139.9801  154.5789 O   0  0  0  0  0  0  0  0  0  0  0  0
  150.6296  140.8739  156.6451 N   0  0  0  0  0  0  0  0  0  0  0  0
  151.9137  140.3855  157.1342 C   0  0  0  0  0  0  0  0  0  0  0  0
  152.1559  140.8056  158.5937 C   0  0  0  0  0  0  0  0  0  0  0  0
  152.0831  142.3091  158.7790 C   0  0  0  0  0  0  0  0  0  0  0  0
  152.5125  142.9065  159.9833 C   0  0  0  0  0  0  0  0  0  0  0  0
  152.4195  144.3061  160.1082 C   0  0  0  0  0  0  0  0  0  0  0  0
  151.9023  145.0504  159.0305 C   0  0  0  0  0  0  0  0  0  0  0  0
  151.4986  144.3586  157.8710 C   0  0  0  0  0  0  0  0  0  0  0  0
  151.5835  143.0168  157.7407 N   0  0  0  0  0  0  0  0  0  0  0  0
  147.9884  141.5321  156.2514 C   0  0  0  0  0  0  0  0  0  0  0  0
  144.5544  140.8910  159.5298 H   0  0  0  0  0  0  0  0  0  0  0  0
  143.3869  139.6227  159.1459 H   0  0  0  0  0  0  0  0  0  0  0  0
  143.2641  141.2005  158.3581 H   0  0  0  0  0  0  0  0  0  0  0  0
  146.0441  141.5838  157.8222 H   0  0  0  0  0  0  0  0  0  0  0  0
  147.3447  139.4914  156.4264 H   0  0  0  0  0  0  0  0  0  0  0  0
  145.4985  139.5773  154.7945 H   0  0  0  0  0  0  0  0  0  0  0  0
  145.5874  141.3196  154.7224 H   0  0  0  0  0  0  0  0  0  0  0  0
  147.6685  139.3497  153.6864 H   0  0  0  0  0  0  0  0  0  0  0  0
  146.6993  140.4553  152.7413 H   0  0  0  0  0  0  0  0  0  0  0  0
  148.9989  141.3554  153.0144 H   0  0  0  0  0  0  0  0  0  0  0  0
  147.8592  142.4053  153.7884 H   0  0  0  0  0  0  0  0  0  0  0  0
  150.0811  141.4329  157.2824 H   0  0  0  0  0  0  0  0  0  0  0  0
  151.9151  139.2983  157.0534 H   0  0  0  0  0  0  0  0  0  0  0  0
  152.7201  140.7462  156.4932 H   0  0  0  0  0  0  0  0  0  0  0  0
  151.4229  140.3332  159.2490 H   0  0  0  0  0  0  0  0  0  0  0  0
  153.1336  140.4544  158.9272 H   0  0  0  0  0  0  0  0  0  0  0  0
  152.9025  142.3080  160.7936 H   0  0  0  0  0  0  0  0  0  0  0  0
  152.7384  144.7994  161.0144 H   0  0  0  0  0  0  0  0  0  0  0  0
  151.8164  146.1252  159.0911 H   0  0  0  0  0  0  0  0  0  0  0  0
  151.0963  144.8975  157.0261 H   0  0  0  0  0  0  0  0  0  0  0  0
  147.5608  142.5249  156.1018 H   0  0  0  0  0  0  0  0  0  0  0  0
  148.4700  141.5648  157.2301 H   0  0  0  0  0  0  0  0  0  0  0  0
  1  2  1  0  0  0  0
  1 22  1  0  0  0  0
  1 23  1  0  0  0  0
  1 24  1  0  0  0  0
  2  3  2  0  0  0  0
  2  4  1  0  0  0  0
  4  5  1  0  0  0  0
  4 25  1  0  0  0  0
  5 21  1  0  0  0  0
  5  6  1  0  0  0  0
  5 26  1  0  0  0  0
  6  7  1  0  0  0  0
  6 27  1  0  0  0  0
  6 28  1  0  0  0  0
  7  8  1  0  0  0  0
  7 29  1  0  0  0  0
  7 30  1  0  0  0  0
  8  9  1  0  0  0  0
  8 31  1  0  0  0  0
  8 32  1  0  0  0  0
  9 10  1  0  0  0  0
  9 21  1  0  0  0  0
 10 11  2  0  0  0  0
 10 12  1  0  0  0  0
 12 13  1  0  0  0  0
 12 33  1  0  0  0  0
 13 14  1  0  0  0  0
 13 34  1  0  0  0  0
 13 35  1  0  0  0  0
 14 15  1  0  0  0  0
 14 36  1  0  0  0  0
 14 37  1  0  0  0  0
 15 20  1  0  0  0  0
 15 16  2  0  0  0  0
 16 17  1  0  0  0  0
 16 38  1  0  0  0  0
 17 18  2  0  0  0  0
 17 39  1  0  0  0  0
 18 19  1  0  0  0  0
 18 40  1  0  0  0  0
 19 20  2  0  0  0  0
 19 41  1  0  0  0  0
 21 42  1  0  0  0  0
 21 43  1  0  0  0  0
M  END
> <s_m_source_file>
AV-unprocessed.smi

> <i_m_source_file_index>
1563

> <i_lp_mmshare_version>
43012

> <i_f3d_flags>
0

> <s_epik_input>
W0NIM11DKD1PKVtOSF1bQ0BASF0xW0NIMl1bQ0gyXVtDSDJdTihbQ0gyXTEpQyg9TylbTkhdW0NIMl1bQ0gyXWMyW2NIXVtjSF1bY0hdW2NIXW4y

> <s_epik_cmdline>
J2VwaWtfcHl0aG9uJywgJy1waCcsICc3LjAnLCAnLXRuJywgJzgnLCAnLW1hJywgJzIwMCcsICctbWV0YWxfYmluZGluZycsICctaW1hZScsICc8aW5maWxlLm1hZT4nLCAnLW9tYWUnLCAnPG91dGZpbGUubWFlPic=

> <r_epik_Ionization_Penalty>
0.0442074

> <r_epik_Ionization_Penalty_Charging>
0

> <r_epik_Ionization_Penalty_Neutral>
0.0442074

> <r_epik_State_Penalty>
0.0374027

> <r_epik_Charging_Adjusted_Penalty>
0.0374027

> <i_epik_Tot_Q>
0

> <i_epik_Tot_abs_Q>
0

> <r_epik_Metal_State_Penalty>
0.0347963

> <b_epik_Metal_Only>
0

> <s_lp_Force_Field>
OPLS_2005

> <r_lp_Energy>
22.675

> <b_lp_Chiralities_Consistent>
1

> <s_lp_Variant>
AV-unprocessed.smi:1563-2

> <Gold.Version>
5.8.1

> <Gold.Id.Protein>
6NUR|6NUR_protein|mol2

> <Gold.PLP.Fitness>
41.7797

> <Gold.PLP.PLP>
-36.3848

> <Gold.PLP.part.hbond>
-1.0000

> <Gold.PLP.part.metal>
0.0000

> <Gold.PLP.part.buried>
-4.3452

> <Gold.PLP.part.nonpolar>
-30.8665

> <Gold.PLP.part.repulsive>
0.2769

> <Gold.PLP.ligand.clash>
0.0000

> <Gold.PLP.ligand.torsion>
0.3290

> <Gold.PLP.Chemscore.Hbond>
1.0000

> <Gold.PLP.Chemscore.CHOScore>
1.0000

> <Gold.PLP.Chemscore.Metal>
0.0000

> <Gold.Chemscore.Hbonds>
donor molecule, donor type, donor heavy atom, donor atom, acceptor molecule, acceptor atom, score
      P1  H  7989  7998       L1    11  1.00
      L1  C    19    41       P1  8028  0.93

> <Gold.PLP.Chemscore.Internal.Correction>
0.0529

> <Gold.Rescore>
     Score         DG    S(hbond)    S(metal)    S(lipo)     H(rot)  DE(clash)    DE(int)     intcor
     13.64     -15.66       0.96        0.00      96.51       1.68       0.03       1.99       ----

> <Gold.Chemscore.Fitness>
13.6379

> <Gold.Chemscore.DG>
-15.6601

> <Gold.Chemscore.ZeroCoef>
-5.4800

> <Gold.Chemscore.Hbond>
0.9561

> <Gold.Chemscore.Metal>
0.0000

> <Gold.Chemscore.Lipo>
96.5054

> <Gold.Chemscore.Internal_Hbond>
0.0000

> <Gold.Chemscore.DEClash>
0.0300

> <Gold.Chemscore.DEInternal>
1.9922

> <Gold.Chemscore.Rot>
1.6813

> <Gold.Chemscore.Internal.Correction>
   9.000000E+99

> <Gold.Chemscore.Hbonds>
donor molecule, donor type, donor heavy atom, donor atom, acceptor molecule, acceptor atom, score
      P1  H  7989  7998       L1    11  0.88

> <Gold.Chemscore.Hbond.Weighted>
-3.1932

> <Gold.Chemscore.Metal.Weighted>
-0.0000

> <Gold.Chemscore.Lipo.Weighted>
-11.2911

> <Gold.Chemscore.Internal_Hbond.Weighted>
0.0000

> <Gold.Chemscore.DEClash.Weighted>
0.0300

> <Gold.Chemscore.DEInternal.Weighted>
1.9922

> <Gold.Chemscore.Rot.Weighted>
4.3042

> <Gold.Chemscore.Internal.Correction.Weighted>
   9.000000E+99

> <Gold.Protein.RotatedTorsions>
[ 6907 6896 6895 6894 ] final  -49.29 input  -60.11 | X-H torsion
[ 7974 7965 7964 7962 ] final   -0.86 input  175.53 | X-H torsion
[ 8008 7997 7996 7995 ] final -147.40 input   59.86 | X-H torsion
[ 10167 10162 10161 10158 ] final  -69.18 input  -65.29 | X-H torsion
[ 10718 10713 10712 10709 ] final   54.50 input   66.30 | X-H torsion
[ 10763 10752 10751 10750 ] final    2.36 input  -60.55 | X-H torsion
[ 11005 11000 10999 10996 ] final  -64.85 input  -57.11 | X-H torsion

> <Gold.Protein.ActiveResidues>
 VAL166  LYS551  ARG553  GLY616  TRP617  ASP618  TYR619  PRO620  LYS621  CYS622 
 ASP623  PHE694  ASN695  SER759  ASP760  ASP761  ALA762  ILE779  LEU786  VAL792 
 PHE793  MET794  SER795  GLU796  ALA797  LYS798  CYS799  TRP800  GLU811  SER814 

> <Gold.Protein.RotatedAtoms>
  150.8820  134.8212  159.7231 H   0  0  0  0  0  0  0  0  0  0  0  0  # atno 6907 bound_to 6896
  152.4784  134.4781  159.9667 H   0  0  0  0  0  0  0  0  0  0  0  0  # atno 6908 bound_to 6896
  151.4855  133.3498  159.2880 H   0  0  0  0  0  0  0  0  0  0  0  0  # atno 6909 bound_to 6896
  146.2423  140.1333  142.8337 H   0  0  0  0  0  0  0  0  0  0  0  0  # atno 7974 bound_to 7965
  155.5749  140.0638  157.2797 H   0  0  0  0  0  0  0  0  0  0  0  0  # atno 8008 bound_to 7997
  154.4350  140.1862  156.0963 H   0  0  0  0  0  0  0  0  0  0  0  0  # atno 8009 bound_to 7997
  156.0348  140.3302  155.7183 H   0  0  0  0  0  0  0  0  0  0  0  0  # atno 8010 bound_to 7997
  140.5451  143.2313  151.7018 H   0  0  0  0  0  0  0  0  0  0  0  0  # atno 10167 bound_to 10162
  157.5262  130.8599  149.8625 H   0  0  0  0  0  0  0  0  0  0  0  0  # atno 10718 bound_to 10713
  153.2965  135.6952  153.7243 H   0  0  0  0  0  0  0  0  0  0  0  0  # atno 10763 bound_to 10752
  153.6173  135.3433  155.3000 H   0  0  0  0  0  0  0  0  0  0  0  0  # atno 10764 bound_to 10752
  154.8539  135.4378  154.2064 H   0  0  0  0  0  0  0  0  0  0  0  0  # atno 10765 bound_to 10752
  141.1437  133.6672  156.5897 H   0  0  0  0  0  0  0  0  0  0  0  0  # atno 11005 bound_to 11000
  145.0308  140.8869  143.5111 LP  0  0  0  0  0  0  0  0  0  0  0  0  # atno 17320 bound_to 7965
  145.1397  139.2580  143.5496 LP  0  0  0  0  0  0  0  0  0  0  0  0  # atno 17321 bound_to 7965
  139.5004  144.3908  152.0281 LP  0  0  0  0  0  0  0  0  0  0  0  0  # atno 17342 bound_to 10162
  140.3020  144.3635  150.6057 LP  0  0  0  0  0  0  0  0  0  0  0  0  # atno 17343 bound_to 10162
  156.0389  130.3744  150.1488 LP  0  0  0  0  0  0  0  0  0  0  0  0  # atno 17370 bound_to 10713
  156.9674  130.9824  151.3466 LP  0  0  0  0  0  0  0  0  0  0  0  0  # atno 17371 bound_to 10713
  140.3773  134.7554  157.4638 LP  0  0  0  0  0  0  0  0  0  0  0  0  # atno 17394 bound_to 11000
  140.0665  134.5923  155.8690 LP  0  0  0  0  0  0  0  0  0  0  0  0  # atno 17395 bound_to 11000

$$$$
