AV-unprocessed.smi:158|AV-procd|sdf|1327|dock6
  -GOLD-   2262019 23D 1   1.00000     0.00000
 Structure written by MMmdl.
 31 33  0  0  0  0  0  0  0  0  1 V2000
  153.4480  144.0548  160.4176 N   0  0  0  0  0  0  0  0  0  0  0  0
  153.4141  142.9025  159.7332 C   0  0  0  0  0  0  0  0  0  0  0  0
  154.2804  141.9229  160.0799 N   0  0  0  0  0  0  0  0  0  0  0  0
  154.2757  140.7565  159.4243 C   0  0  0  0  0  0  0  0  0  0  0  0
  155.4207  139.5763  159.9433 Cl  0  0  0  0  0  0  0  0  0  0  0  0
  153.4826  140.4016  158.4093 N   0  0  0  0  0  0  0  0  0  0  0  0
  152.6100  141.3868  158.0474 C   0  0  0  0  0  0  0  0  0  0  0  0
  152.5141  142.6634  158.6658 C   0  0  0  0  0  0  0  0  0  0  0  0
  151.5174  143.4126  158.0585 N   0  0  0  0  0  0  0  0  0  0  0  0
  151.0535  142.6196  157.1311 C   0  0  0  0  0  0  0  0  0  0  0  0
  151.6564  141.3828  157.0440 N   0  0  0  0  0  0  0  0  0  0  0  0
  151.3138  140.2896  156.0698 C   0  0  2  0  0  0  0  0  0  0  0  0
  150.5252  140.8175  155.0422 O   0  0  0  0  0  0  0  0  0  0  0  0
  149.2559  140.1622  154.9950 C   0  0  2  0  0  0  0  0  0  0  0  0
  148.1462  141.0986  154.4833 C   0  0  0  0  0  0  0  0  0  0  0  0
  148.7130  142.2434  153.8815 O   0  0  0  0  0  0  0  0  0  0  0  0
  149.0597  139.5390  156.3854 C   0  0  2  0  0  0  0  0  0  0  0  0
  148.5027  140.4583  157.3072 O   0  0  0  0  0  0  0  0  0  0  0  0
  150.4908  139.1756  156.7358 C   0  0  2  0  0  0  0  0  0  0  0  0
  150.7257  139.0524  158.0445 F   0  0  0  0  0  0  0  0  0  0  0  0
  152.2818  139.9526  155.6974 H   0  0  0  0  0  0  0  0  0  0  0  0
  149.3768  139.3480  154.2780 H   0  0  0  0  0  0  0  0  0  0  0  0
  148.4156  138.6598  156.3476 H   0  0  0  0  0  0  0  0  0  0  0  0
  150.7602  138.2296  156.2645 H   0  0  0  0  0  0  0  0  0  0  0  0
  152.8105  144.8005  160.1773 H   0  0  0  0  0  0  0  0  0  0  0  0
  154.1107  144.1761  161.1697 H   0  0  0  0  0  0  0  0  0  0  0  0
  150.2528  142.9198  156.4708 H   0  0  0  0  0  0  0  0  0  0  0  0
  147.4856  140.6010  153.7739 H   0  0  0  0  0  0  0  0  0  0  0  0
  147.5249  141.4253  155.3174 H   0  0  0  0  0  0  0  0  0  0  0  0
  148.9154  142.8695  154.5601 H   0  0  0  0  0  0  0  0  0  0  0  0
  147.7457  140.0591  157.7079 H   0  0  0  0  0  0  0  0  0  0  0  0
  1  2  1  0  0  0  0
  1 25  1  0  0  0  0
  1 26  1  0  0  0  0
  2  8  1  0  0  0  0
  2  3  2  0  0  0  0
  3  4  1  0  0  0  0
  4  5  1  0  0  0  0
  4  6  2  0  0  0  0
  6  7  1  0  0  0  0
  7 11  1  0  0  0  0
  7  8  2  0  0  0  0
  8  9  1  0  0  0  0
  9 10  2  0  0  0  0
 10 11  1  0  0  0  0
 10 27  1  0  0  0  0
 11 12  1  0  0  0  0
 12 21  1  0  0  0  0
 12 19  1  0  0  0  0
 12 13  1  0  0  0  0
 13 14  1  0  0  0  0
 14 22  1  0  0  0  0
 14 15  1  0  0  0  0
 14 17  1  0  0  0  0
 15 16  1  0  0  0  0
 15 28  1  0  0  0  0
 15 29  1  0  0  0  0
 16 30  1  0  0  0  0
 17 23  1  0  0  0  0
 17 18  1  0  0  0  0
 17 19  1  0  0  0  0
 18 31  1  0  0  0  0
 19 24  1  0  0  0  0
 19 20  1  0  0  0  0
M  END
> <s_m_source_file>
AV-unprocessed.smi

> <i_m_source_file_index>
158

> <i_lp_mmshare_version>
43012

> <i_f3d_flags>
0

> <s_epik_input>
Q2xjKG4xKW5jKFtOSDJdKWMoYzEyKW5bY0hdbjJbQ0BASF0zT1tDQEhdKFtDSDJdW09IXSlbQ0BASF0oW09IXSlbQ0BASF0zRg==

> <s_epik_cmdline>
J2VwaWtfcHl0aG9uJywgJy1waCcsICc3LjAnLCAnLXRuJywgJzgnLCAnLW1hJywgJzIwMCcsICctbWV0YWxfYmluZGluZycsICctaW1hZScsICc8aW5maWxlLm1hZT4nLCAnLW9tYWUnLCAnPG91dGZpbGUubWFlPic=

> <r_lp_tautomer_probability>
1

> <r_epik_Ionization_Penalty>
6.51543e-05

> <r_epik_Ionization_Penalty_Charging>
0

> <r_epik_Ionization_Penalty_Neutral>
6.51543e-05

> <r_epik_State_Penalty>
-0

> <r_epik_Charging_Adjusted_Penalty>
0

> <i_epik_Tot_Q>
0

> <i_epik_Tot_abs_Q>
0

> <r_epik_Metal_State_Penalty>
-0

> <b_epik_Metal_Only>
0

> <s_epik_Chemistry_Notes>
This compound contains an acetal/aminal-like group ( X-CH(R)-Y where X, Y are N, S, or O) that may be acid/base labile, releasing an aldehyde.

> <s_lp_Force_Field>
OPLS_2005

> <r_lp_Energy>
41.2985

> <b_lp_Chiralities_Consistent>
1

> <s_lp_Variant>
AV-unprocessed.smi:158-5

> <Gold.Version>
5.8.1

> <Gold.Id.Protein>
6NUR|6NUR_protein|mol2

> <Gold.PLP.Fitness>
40.6024

> <Gold.PLP.PLP>
-30.0906

> <Gold.PLP.part.hbond>
-4.0000

> <Gold.PLP.part.metal>
0.0000

> <Gold.PLP.part.buried>
-4.1317

> <Gold.PLP.part.nonpolar>
-21.6212

> <Gold.PLP.part.repulsive>
0.2201

> <Gold.PLP.ligand.clash>
0.0000

> <Gold.PLP.ligand.torsion>
1.0216

> <Gold.PLP.Chemscore.Hbond>
2.9100

> <Gold.PLP.Chemscore.CHOScore>
1.0000

> <Gold.PLP.Chemscore.Metal>
0.0000

> <Gold.Chemscore.Hbonds>
donor molecule, donor type, donor heavy atom, donor atom, acceptor molecule, acceptor atom, score
      L1  H    16    30       P1  8028  0.75
      P1  H  7989  7998       L1    13  0.83
      P1  H  7997  8008       L1     6  0.82
      P1  H  8011  8017       L1    16  0.29
      L1  C    10    27       P1  8028  1.00

> <Gold.PLP.Chemscore.Internal.Correction>
0.8248

> <Gold.Rescore>
     Score         DG    S(hbond)    S(metal)    S(lipo)     H(rot)  DE(clash)    DE(int)     intcor
      5.98      -7.78       1.90        0.00      33.89       3.12       0.08       1.72       ----

> <Gold.Chemscore.Fitness>
5.9821

> <Gold.Chemscore.DG>
-7.7806

> <Gold.Chemscore.ZeroCoef>
-5.4800

> <Gold.Chemscore.Hbond>
1.8953

> <Gold.Chemscore.Metal>
0.0000

> <Gold.Chemscore.Lipo>
33.8916

> <Gold.Chemscore.Internal_Hbond>
0.0000

> <Gold.Chemscore.DEClash>
0.0812

> <Gold.Chemscore.DEInternal>
1.7173

> <Gold.Chemscore.Rot>
3.1230

> <Gold.Chemscore.Internal.Correction>
   9.000000E+99

> <Gold.Chemscore.Hbonds>
donor molecule, donor type, donor heavy atom, donor atom, acceptor molecule, acceptor atom, score
      L1  H    16    30       P1  8028  0.74
      P1  H  7989  7998       L1    13  0.48
      P1  H  7997  8008       L1     6  0.27
      P1  H  8011  8017       L1    16  0.26

> <Gold.Chemscore.Hbond.Weighted>
-6.3302

> <Gold.Chemscore.Metal.Weighted>
-0.0000

> <Gold.Chemscore.Lipo.Weighted>
-3.9653

> <Gold.Chemscore.Internal_Hbond.Weighted>
0.0000

> <Gold.Chemscore.DEClash.Weighted>
0.0812

> <Gold.Chemscore.DEInternal.Weighted>
1.7173

> <Gold.Chemscore.Rot.Weighted>
7.9950

> <Gold.Chemscore.Internal.Correction.Weighted>
   9.000000E+99

> <Gold.Protein.RotatedTorsions>
[ 6907 6896 6895 6894 ] final   51.24 input  -60.11 | X-H torsion
[ 7974 7965 7964 7962 ] final  -33.18 input  175.53 | X-H torsion
[ 8008 7997 7996 7995 ] final  -86.70 input   59.86 | X-H torsion
[ 10167 10162 10161 10158 ] final -153.08 input  -65.29 | X-H torsion
[ 10718 10713 10712 10709 ] final   23.87 input   66.30 | X-H torsion
[ 10763 10752 10751 10750 ] final  120.51 input  -60.55 | X-H torsion
[ 11005 11000 10999 10996 ] final   -9.21 input  -57.11 | X-H torsion

> <Gold.Protein.ActiveResidues>
 VAL166  LYS551  ARG553  GLY616  TRP617  ASP618  TYR619  PRO620  LYS621  CYS622 
 ASP623  PHE694  ASN695  SER759  ASP760  ASP761  ALA762  ILE779  LEU786  VAL792 
 PHE793  MET794  SER795  GLU796  ALA797  LYS798  CYS799  TRP800  GLU811  SER814 

> <Gold.Protein.RotatedAtoms>
  152.3106  134.7502  160.0337 H   0  0  0  0  0  0  0  0  0  0  0  0  # atno 6907 bound_to 6896
  151.7985  133.3362  159.3528 H   0  0  0  0  0  0  0  0  0  0  0  0  # atno 6908 bound_to 6896
  150.7318  134.5706  159.5933 H   0  0  0  0  0  0  0  0  0  0  0  0  # atno 6909 bound_to 6896
  146.0931  140.5884  142.8855 H   0  0  0  0  0  0  0  0  0  0  0  0  # atno 7974 bound_to 7965
  154.6549  140.0575  156.9997 H   0  0  0  0  0  0  0  0  0  0  0  0  # atno 8008 bound_to 7997
  155.1315  140.3257  155.4454 H   0  0  0  0  0  0  0  0  0  0  0  0  # atno 8009 bound_to 7997
  156.2593  140.1980  156.6434 H   0  0  0  0  0  0  0  0  0  0  0  0  # atno 8010 bound_to 7997
  139.7127  143.9083  152.2474 H   0  0  0  0  0  0  0  0  0  0  0  0  # atno 10167 bound_to 10162
  157.1720  130.6764  149.6081 H   0  0  0  0  0  0  0  0  0  0  0  0  # atno 10718 bound_to 10713
  153.5996  135.3450  155.2940 H   0  0  0  0  0  0  0  0  0  0  0  0  # atno 10763 bound_to 10752
  154.8638  135.4224  154.2427 H   0  0  0  0  0  0  0  0  0  0  0  0  # atno 10764 bound_to 10752
  153.3253  135.7041  153.7066 H   0  0  0  0  0  0  0  0  0  0  0  0  # atno 10765 bound_to 10752
  140.7318  133.8743  155.8898 H   0  0  0  0  0  0  0  0  0  0  0  0  # atno 11005 bound_to 11000
  144.7375  140.4850  143.6893 LP  0  0  0  0  0  0  0  0  0  0  0  0  # atno 17320 bound_to 7965
  145.6000  139.1503  143.3134 LP  0  0  0  0  0  0  0  0  0  0  0  0  # atno 17321 bound_to 7965
  139.8956  144.6941  150.8721 LP  0  0  0  0  0  0  0  0  0  0  0  0  # atno 17342 bound_to 10162
  140.7737  143.3552  151.1935 LP  0  0  0  0  0  0  0  0  0  0  0  0  # atno 17343 bound_to 10162
  155.9737  130.4676  150.6330 LP  0  0  0  0  0  0  0  0  0  0  0  0  # atno 17370 bound_to 10713
  157.4034  131.0813  151.1287 LP  0  0  0  0  0  0  0  0  0  0  0  0  # atno 17371 bound_to 10713
  140.9914  134.1273  157.4404 LP  0  0  0  0  0  0  0  0  0  0  0  0  # atno 17394 bound_to 11000
  139.8825  135.0041  156.6231 LP  0  0  0  0  0  0  0  0  0  0  0  0  # atno 17395 bound_to 11000

$$$$
