AV-unprocessed.smi:3284|AV-procd|sdf|12575|dock2
  -GOLD-   2272018493D 1   1.00000     0.00000
 Structure written by MMmdl.
 44 45  0  0  0  0  0  0  0  0  2 V2000
  153.9983  140.4703  159.8183 C   0  0  0  0  0  0  0  0  0  0  0  0
  153.3212  141.7481  160.2837 C   0  0  0  0  0  0  0  0  0  0  0  0
  153.2647  142.0749  161.5898 C   0  0  0  0  0  0  0  0  0  0  0  0
  152.6470  143.3494  162.1357 C   0  0  0  0  0  0  0  0  0  0  0  0
  151.8988  144.1611  161.0659 C   0  0  0  0  0  0  0  0  0  0  0  0
  152.6242  144.1129  159.7089 C   0  0  2  0  0  0  0  0  0  0  0  0
  152.0305  145.1178  158.7076 C   0  0  0  0  0  0  0  0  0  0  0  0
  152.7517  142.6495  159.1856 C   0  0  2  0  0  0  0  0  0  0  0  0
  151.4377  142.0404  158.6320 C   0  0  0  0  0  0  0  0  0  0  0  0
  151.6051  141.4741  157.2792 N   0  3  0  0  0  0  0  0  0  0  0  0
  150.3769  140.8818  156.7120 C   0  0  0  0  0  0  0  0  0  0  0  0
  150.1523  141.3306  155.2601 C   0  0  0  0  0  0  0  0  0  0  0  0
  149.0458  140.5837  154.5771 C   0  0  0  0  0  0  0  0  0  0  0  0
  147.8885  141.1390  154.2293 N   0  0  0  0  0  0  0  0  0  0  0  0
  147.1752  140.1170  153.6118 C   0  0  0  0  0  0  0  0  0  0  0  0
  147.9365  138.9733  153.6005 C   0  0  0  0  0  0  0  0  0  0  0  0
  149.1387  139.2883  154.2200 N   0  0  0  0  0  0  0  0  0  0  0  0
  150.2525  138.3829  154.4260 C   0  0  0  0  0  0  0  0  0  0  0  0
  154.8082  140.7027  159.1264 H   0  0  0  0  0  0  0  0  0  0  0  0
  153.2955  139.8088  159.3135 H   0  0  0  0  0  0  0  0  0  0  0  0
  154.4253  139.9204  160.6578 H   0  0  0  0  0  0  0  0  0  0  0  0
  153.7041  141.4163  162.3249 H   0  0  0  0  0  0  0  0  0  0  0  0
  151.9752  143.1045  162.9590 H   0  0  0  0  0  0  0  0  0  0  0  0
  153.4540  143.9502  162.5559 H   0  0  0  0  0  0  0  0  0  0  0  0
  150.8843  143.7777  160.9580 H   0  0  0  0  0  0  0  0  0  0  0  0
  151.7939  145.1918  161.4070 H   0  0  0  0  0  0  0  0  0  0  0  0
  153.6430  144.4591  159.8920 H   0  0  0  0  0  0  0  0  0  0  0  0
  150.9641  144.9541  158.5522 H   0  0  0  0  0  0  0  0  0  0  0  0
  152.5325  145.0575  157.7416 H   0  0  0  0  0  0  0  0  0  0  0  0
  152.1474  146.1392  159.0710 H   0  0  0  0  0  0  0  0  0  0  0  0
  153.4882  142.6549  158.3804 H   0  0  0  0  0  0  0  0  0  0  0  0
  151.0914  141.2287  159.2707 H   0  0  0  0  0  0  0  0  0  0  0  0
  150.6407  142.7838  158.6253 H   0  0  0  0  0  0  0  0  0  0  0  0
  151.9178  142.2103  156.6624 H   0  0  0  0  0  0  0  0  0  0  0  0
  150.4382  139.7937  156.7619 H   0  0  0  0  0  0  0  0  0  0  0  0
  149.5256  141.1839  157.3232 H   0  0  0  0  0  0  0  0  0  0  0  0
  149.9408  142.3996  155.2331 H   0  0  0  0  0  0  0  0  0  0  0  0
  151.0691  141.1949  154.6847 H   0  0  0  0  0  0  0  0  0  0  0  0
  146.1801  140.2822  153.2255 H   0  0  0  0  0  0  0  0  0  0  0  0
  147.7272  137.9875  153.2112 H   0  0  0  0  0  0  0  0  0  0  0  0
  150.0442  137.4181  153.9623 H   0  0  0  0  0  0  0  0  0  0  0  0
  150.4125  138.2317  155.4939 H   0  0  0  0  0  0  0  0  0  0  0  0
  151.1565  138.7996  153.9808 H   0  0  0  0  0  0  0  0  0  0  0  0
  152.3203  140.7609  157.3140 H   0  0  0  0  0  0  0  0  0  0  0  0
  1  2  1  0  0  0  0
  1 19  1  0  0  0  0
  1 20  1  0  0  0  0
  1 21  1  0  0  0  0
  2  8  1  0  0  0  0
  2  3  2  0  0  0  0
  3  4  1  0  0  0  0
  3 22  1  0  0  0  0
  4  5  1  0  0  0  0
  4 23  1  0  0  0  0
  4 24  1  0  0  0  0
  5  6  1  0  0  0  0
  5 25  1  0  0  0  0
  5 26  1  0  0  0  0
  6  7  1  0  0  0  0
  6  8  1  0  0  0  0
  6 27  1  0  0  0  0
  7 28  1  0  0  0  0
  7 29  1  0  0  0  0
  7 30  1  0  0  0  0
  8  9  1  0  0  0  0
  8 31  1  0  0  0  0
  9 10  1  0  0  0  0
  9 32  1  0  0  0  0
  9 33  1  0  0  0  0
 10 11  1  0  0  0  0
 10 34  1  0  0  0  0
 10 44  1  0  0  0  0
 11 12  1  0  0  0  0
 11 35  1  0  0  0  0
 11 36  1  0  0  0  0
 12 13  1  0  0  0  0
 12 37  1  0  0  0  0
 12 38  1  0  0  0  0
 13 17  1  0  0  0  0
 13 14  2  0  0  0  0
 14 15  1  0  0  0  0
 15 16  2  0  0  0  0
 15 39  1  0  0  0  0
 16 17  1  0  0  0  0
 16 40  1  0  0  0  0
 17 18  1  0  0  0  0
 18 41  1  0  0  0  0
 18 42  1  0  0  0  0
 18 43  1  0  0  0  0
M  CHG  1  10   1
M  END
> <s_m_source_file>
AV-unprocessed.smi

> <i_m_source_file_index>
3284

> <i_lp_mmshare_version>
43012

> <i_f3d_flags>
0

> <s_epik_input>
W0NIM11DMT1bQ0hdW0NIMl1bQ0gyXVtDQEBIXShbQ0gzXSlbQ0BIXTFbQ0gyXVtOSF1bQ0gyXVtDSDJdYzJuW2NIXVtjSF1uMltDSDNd

> <s_epik_cmdline>
J2VwaWtfcHl0aG9uJywgJy1waCcsICc3LjAnLCAnLXRuJywgJzgnLCAnLW1hJywgJzIwMCcsICctbWV0YWxfYmluZGluZycsICctaW1hZScsICc8aW5maWxlLm1hZT4nLCAnLW9tYWUnLCAnPG91dGZpbGUubWFlPic=

> <r_lp_tautomer_probability>
1

> <r_epik_Ionization_Penalty>
0.150779

> <r_epik_Ionization_Penalty_Charging>
0.150779

> <r_epik_Ionization_Penalty_Neutral>
1.39452e-13

> <r_epik_State_Penalty>
0.349447

> <r_epik_Charging_Adjusted_Penalty>
0.500226

> <i_epik_Tot_Q>
1

> <i_epik_Tot_abs_Q>
1

> <r_epik_Metal_State_Penalty>
0.000470967

> <b_epik_Metal_Only>
0

> <s_lp_Force_Field>
OPLS_2005

> <r_lp_Energy>
16.0755

> <b_lp_Chiralities_Consistent>
1

> <s_lp_Variant>
AV-unprocessed.smi:3284-4

> <Gold.Version>
5.8.1

> <Gold.Id.Protein>
6NUR|6NUR_protein|mol2

> <Gold.PLP.Fitness>
50.9410

> <Gold.PLP.PLP>
-47.3900

> <Gold.PLP.part.hbond>
0.0000

> <Gold.PLP.part.metal>
0.0000

> <Gold.PLP.part.buried>
-2.2581

> <Gold.PLP.part.nonpolar>
-44.0086

> <Gold.PLP.part.repulsive>
0.2247

> <Gold.PLP.ligand.clash>
0.0000

> <Gold.PLP.ligand.torsion>
1.1324

> <Gold.PLP.Chemscore.Hbond>
0.0000

> <Gold.PLP.Chemscore.CHOScore>
1.8977

> <Gold.PLP.Chemscore.Metal>
0.0000

> <Gold.Chemscore.Hbonds>
donor molecule, donor type, donor heavy atom, donor atom, acceptor molecule, acceptor atom, score
      L1  C    15    39       P1 10175  0.80
      L1  C    16    40       P1  7948  1.00

> <Gold.PLP.Chemscore.Internal.Correction>
0.1227

> <Gold.Rescore>
     Score         DG    S(hbond)    S(metal)    S(lipo)     H(rot)  DE(clash)    DE(int)     intcor
     15.98     -17.43       0.00        0.00     137.41       1.61       0.36       1.10       ----

> <Gold.Chemscore.Fitness>
15.9809

> <Gold.Chemscore.DG>
-17.4344

> <Gold.Chemscore.ZeroCoef>
-5.4800

> <Gold.Chemscore.Hbond>
0.0000

> <Gold.Chemscore.Metal>
0.0000

> <Gold.Chemscore.Lipo>
137.4136

> <Gold.Chemscore.Internal_Hbond>
0.0000

> <Gold.Chemscore.DEClash>
0.3564

> <Gold.Chemscore.DEInternal>
1.0970

> <Gold.Chemscore.Rot>
1.6105

> <Gold.Chemscore.Internal.Correction>
   9.000000E+99

> <Gold.Chemscore.Hbond.Weighted>
-0.0000

> <Gold.Chemscore.Metal.Weighted>
-0.0000

> <Gold.Chemscore.Lipo.Weighted>
-16.0774

> <Gold.Chemscore.Internal_Hbond.Weighted>
0.0000

> <Gold.Chemscore.DEClash.Weighted>
0.3564

> <Gold.Chemscore.DEInternal.Weighted>
1.0970

> <Gold.Chemscore.Rot.Weighted>
4.1230

> <Gold.Chemscore.Internal.Correction.Weighted>
   9.000000E+99

> <Gold.Protein.RotatedTorsions>
[ 6907 6896 6895 6894 ] final   48.99 input  -60.11 | X-H torsion
[ 7974 7965 7964 7962 ] final  148.74 input  175.53 | X-H torsion
[ 8008 7997 7996 7995 ] final   74.32 input   59.86 | X-H torsion
[ 10167 10162 10161 10158 ] final -144.25 input  -65.29 | X-H torsion
[ 10718 10713 10712 10709 ] final -155.27 input   66.30 | X-H torsion
[ 10763 10752 10751 10750 ] final  132.07 input  -60.55 | X-H torsion
[ 11005 11000 10999 10996 ] final   90.02 input  -57.11 | X-H torsion

> <Gold.Protein.ActiveResidues>
 VAL166  LYS551  ARG553  GLY616  TRP617  ASP618  TYR619  PRO620  LYS621  CYS622 
 ASP623  PHE694  ASN695  SER759  ASP760  ASP761  ALA762  ILE779  LEU786  VAL792 
 PHE793  MET794  SER795  GLU796  ALA797  LYS798  CYS799  TRP800  GLU811  SER814 

> <Gold.Protein.RotatedAtoms>
  152.2857  134.7778  160.0387 H   0  0  0  0  0  0  0  0  0  0  0  0  # atno 6907 bound_to 6896
  151.8342  133.3408  159.3631 H   0  0  0  0  0  0  0  0  0  0  0  0  # atno 6908 bound_to 6896
  150.7208  134.5382  159.5778 H   0  0  0  0  0  0  0  0  0  0  0  0  # atno 6909 bound_to 6896
  144.8491  139.6191  143.5982 H   0  0  0  0  0  0  0  0  0  0  0  0  # atno 7974 bound_to 7965
  155.7967  140.3477  155.5379 H   0  0  0  0  0  0  0  0  0  0  0  0  # atno 8008 bound_to 7997
  155.8579  140.0966  157.1653 H   0  0  0  0  0  0  0  0  0  0  0  0  # atno 8009 bound_to 7997
  154.4010  140.1364  156.3912 H   0  0  0  0  0  0  0  0  0  0  0  0  # atno 8010 bound_to 7997
  139.7916  143.7958  152.2650 H   0  0  0  0  0  0  0  0  0  0  0  0  # atno 10167 bound_to 10162
  156.5105  130.8433  151.2644 H   0  0  0  0  0  0  0  0  0  0  0  0  # atno 10718 bound_to 10713
  153.7848  135.3163  155.3370 H   0  0  0  0  0  0  0  0  0  0  0  0  # atno 10763 bound_to 10752
  154.8148  135.4643  154.0616 H   0  0  0  0  0  0  0  0  0  0  0  0  # atno 10764 bound_to 10752
  153.1916  135.6909  153.8431 H   0  0  0  0  0  0  0  0  0  0  0  0  # atno 10765 bound_to 10752
  139.8864  134.8588  156.3226 H   0  0  0  0  0  0  0  0  0  0  0  0  # atno 11005 bound_to 11000
  146.2769  139.6777  142.9256 LP  0  0  0  0  0  0  0  0  0  0  0  0  # atno 17320 bound_to 7965
  145.4536  141.0429  143.2790 LP  0  0  0  0  0  0  0  0  0  0  0  0  # atno 17321 bound_to 7965
  139.8051  144.7358  150.9773 LP  0  0  0  0  0  0  0  0  0  0  0  0  # atno 17342 bound_to 10162
  140.7820  143.4306  151.0700 LP  0  0  0  0  0  0  0  0  0  0  0  0  # atno 17343 bound_to 10162
  157.7451  130.9951  150.2732 LP  0  0  0  0  0  0  0  0  0  0  0  0  # atno 17370 bound_to 10713
  156.3245  130.3791  149.7546 LP  0  0  0  0  0  0  0  0  0  0  0  0  # atno 17371 bound_to 10713
  140.9777  133.7287  156.0626 LP  0  0  0  0  0  0  0  0  0  0  0  0  # atno 17394 bound_to 11000
  140.7790  134.3747  157.5491 LP  0  0  0  0  0  0  0  0  0  0  0  0  # atno 17395 bound_to 11000

$$$$
