AV-unprocessed.smi:160|AV-procd|sdf|1356|dock8
  -GOLD-   2262019 63D 1   1.00000     0.00000
 Structure written by MMmdl.
 29 30  0  0  0  0  0  0  0  0  1 V2000
  153.8610  137.9055  160.9348 N   0  0  0  0  0  0  0  0  0  0  0  0
  153.3540  137.1000  159.9957 C   0  0  0  0  0  0  0  0  0  0  0  0
  153.7283  135.9368  159.8547 O   0  0  0  0  0  0  0  0  0  0  0  0
  152.2931  137.6955  159.1112 C   0  0  0  0  0  0  0  0  0  0  0  0
  151.7164  138.8965  159.4126 N   0  0  0  0  0  0  0  0  0  0  0  0
  150.8794  138.9895  158.3872 C   0  0  0  0  0  0  0  0  0  0  0  0
  150.9437  137.9608  157.5331 N   0  0  0  0  0  0  0  0  0  0  0  0
  150.1711  137.6597  156.2868 C   0  0  1  0  0  0  0  0  0  0  0  0
  149.3134  138.7335  156.0408 O   0  0  0  0  0  0  0  0  0  0  0  0
  149.9379  139.6393  155.1376 C   0  0  2  0  0  0  0  0  0  0  0  0
  148.9167  140.6128  154.5231 C   0  0  0  0  0  0  0  0  0  0  0  0
  149.3925  141.0950  153.2845 O   0  0  0  0  0  0  0  0  0  0  0  0
  150.6147  138.6759  154.1547 C   0  0  2  0  0  0  0  0  0  0  0  0
  149.6786  138.2027  153.1990 O   0  0  0  0  0  0  0  0  0  0  0  0
  151.1250  137.5687  155.0786 C   0  0  2  0  0  0  0  0  0  0  0  0
  151.1284  136.2951  154.4609 O   0  0  0  0  0  0  0  0  0  0  0  0
  151.8663  137.0855  158.0035 N   0  0  0  0  0  0  0  0  0  0  0  0
  149.6182  136.7468  156.5120 H   0  0  0  0  0  0  0  0  0  0  0  0
  150.7159  140.1963  155.6638 H   0  0  0  0  0  0  0  0  0  0  0  0
  151.4328  139.1568  153.6174 H   0  0  0  0  0  0  0  0  0  0  0  0
  152.1417  137.8077  155.3952 H   0  0  0  0  0  0  0  0  0  0  0  0
  154.5779  137.5638  161.5578 H   0  0  0  0  0  0  0  0  0  0  0  0
  153.5229  138.8538  161.0124 H   0  0  0  0  0  0  0  0  0  0  0  0
  150.2078  139.8258  158.2580 H   0  0  0  0  0  0  0  0  0  0  0  0
  147.9747  140.0977  154.3327 H   0  0  0  0  0  0  0  0  0  0  0  0
  148.7039  141.4449  155.1951 H   0  0  0  0  0  0  0  0  0  0  0  0
  149.2474  140.4305  152.6283 H   0  0  0  0  0  0  0  0  0  0  0  0
  149.8148  138.6751  152.3916 H   0  0  0  0  0  0  0  0  0  0  0  0
  150.9296  136.4073  153.5437 H   0  0  0  0  0  0  0  0  0  0  0  0
  1  2  1  0  0  0  0
  1 22  1  0  0  0  0
  1 23  1  0  0  0  0
  2  3  2  0  0  0  0
  2  4  1  0  0  0  0
  4 17  2  0  0  0  0
  4  5  1  0  0  0  0
  5  6  2  0  0  0  0
  6  7  1  0  0  0  0
  6 24  1  0  0  0  0
  7  8  1  0  0  0  0
  7 17  1  0  0  0  0
  8 18  1  0  0  0  0
  8 15  1  0  0  0  0
  8  9  1  0  0  0  0
  9 10  1  0  0  0  0
 10 19  1  0  0  0  0
 10 11  1  0  0  0  0
 10 13  1  0  0  0  0
 11 12  1  0  0  0  0
 11 25  1  0  0  0  0
 11 26  1  0  0  0  0
 12 27  1  0  0  0  0
 13 20  1  0  0  0  0
 13 14  1  0  0  0  0
 13 15  1  0  0  0  0
 14 28  1  0  0  0  0
 15 21  1  0  0  0  0
 15 16  1  0  0  0  0
 16 29  1  0  0  0  0
M  END
> <s_m_source_file>
AV-unprocessed.smi

> <i_m_source_file_index>
160

> <i_lp_mmshare_version>
43012

> <i_f3d_flags>
0

> <s_epik_input>
W05IMl1DKD1PKWMxbltjSF1uKG4xKVtDQEBIXTJPW0NASF0oW0NIMl1bT0hdKVtDQEBIXShbT0hdKVtDQEhdMltPSF0=

> <s_epik_cmdline>
J2VwaWtfcHl0aG9uJywgJy1waCcsICc3LjAnLCAnLXRuJywgJzgnLCAnLW1hJywgJzIwMCcsICctbWV0YWxfYmluZGluZycsICctaW1hZScsICc8aW5maWxlLm1hZT4nLCAnLW9tYWUnLCAnPG91dGZpbGUubWFlPic=

> <r_lp_tautomer_probability>
1

> <r_epik_Ionization_Penalty>
1.06932e-05

> <r_epik_Ionization_Penalty_Charging>
0

> <r_epik_Ionization_Penalty_Neutral>
1.06932e-05

> <r_epik_State_Penalty>
-0

> <r_epik_Charging_Adjusted_Penalty>
0

> <i_epik_Tot_Q>
0

> <i_epik_Tot_abs_Q>
0

> <r_epik_Metal_State_Penalty>
0.0142097

> <b_epik_Metal_Only>
0

> <s_epik_Chemistry_Notes>
This compound contains an acetal/aminal-like group ( X-CH(R)-Y where X, Y are N, S, or O) that may be acid/base labile, releasing an aldehyde.

> <s_lp_Force_Field>
OPLS_2005

> <r_lp_Energy>
42.1222

> <b_lp_Chiralities_Consistent>
1

> <s_lp_Variant>
AV-unprocessed.smi:160-14

> <Gold.Version>
5.8.1

> <Gold.Id.Protein>
6NUR|6NUR_protein|mol2

> <Gold.PLP.Fitness>
39.7879

> <Gold.PLP.PLP>
-22.7020

> <Gold.PLP.part.hbond>
-8.0498

> <Gold.PLP.part.metal>
0.0000

> <Gold.PLP.part.buried>
-3.6607

> <Gold.PLP.part.nonpolar>
-11.7786

> <Gold.PLP.part.repulsive>
0.0539

> <Gold.PLP.ligand.clash>
0.0000

> <Gold.PLP.ligand.torsion>
0.2940

> <Gold.PLP.Chemscore.Hbond>
5.8817

> <Gold.PLP.Chemscore.CHOScore>
0.0000

> <Gold.PLP.Chemscore.Metal>
0.0000

> <Gold.Chemscore.Hbonds>
donor molecule, donor type, donor heavy atom, donor atom, acceptor molecule, acceptor atom, score
      L1  H    12    27       P1  7957  0.83
      L1  H    14    28       P1  7957  1.00
      L1  H    16    29       P1  7949  0.73
      P1  H  6896  6908       L1     3  1.00
      P1  H  7989  7998       L1    12  0.08
      P1  H  8011  8017       L1    12  1.00
      P1  H 10752 10763       L1    16  1.00

> <Gold.PLP.Chemscore.Internal.Correction>
0.0290

> <Gold.Rescore>
     Score         DG    S(hbond)    S(metal)    S(lipo)     H(rot)  DE(clash)    DE(int)     intcor
     12.34     -12.72       4.30        0.00      27.94       4.06       0.00       0.38       ----

> <Gold.Chemscore.Fitness>
12.3399

> <Gold.Chemscore.DG>
-12.7218

> <Gold.Chemscore.ZeroCoef>
-5.4800

> <Gold.Chemscore.Hbond>
4.3014

> <Gold.Chemscore.Metal>
0.0000

> <Gold.Chemscore.Lipo>
27.9367

> <Gold.Chemscore.Internal_Hbond>
0.0000

> <Gold.Chemscore.DEClash>
0.0048

> <Gold.Chemscore.DEInternal>
0.3772

> <Gold.Chemscore.Rot>
4.0600

> <Gold.Chemscore.Internal.Correction>
   9.000000E+99

> <Gold.Chemscore.Hbonds>
donor molecule, donor type, donor heavy atom, donor atom, acceptor molecule, acceptor atom, score
      L1  H    12    27       P1  7957  0.80
      L1  H    14    28       P1  7957  0.30
      L1  H    16    29       P1  7949  0.14
      P1  H  6896  6908       L1     3  0.95
      P1  H  7989  7998       L1    12  0.01
      P1  H  8011  8017       L1    12  0.30
      P1  H 10752 10763       L1    16  0.39

> <Gold.Chemscore.Hbond.Weighted>
-14.3668

> <Gold.Chemscore.Metal.Weighted>
-0.0000

> <Gold.Chemscore.Lipo.Weighted>
-3.2686

> <Gold.Chemscore.Internal_Hbond.Weighted>
0.0000

> <Gold.Chemscore.DEClash.Weighted>
0.0048

> <Gold.Chemscore.DEInternal.Weighted>
0.3772

> <Gold.Chemscore.Rot.Weighted>
10.3936

> <Gold.Chemscore.Internal.Correction.Weighted>
   9.000000E+99

> <Gold.Protein.RotatedTorsions>
[ 6907 6896 6895 6894 ] final  -55.80 input  -60.11 | X-H torsion
[ 7974 7965 7964 7962 ] final -110.08 input  175.53 | X-H torsion
[ 8008 7997 7996 7995 ] final    6.88 input   59.86 | X-H torsion
[ 10167 10162 10161 10158 ] final  145.86 input  -65.29 | X-H torsion
[ 10718 10713 10712 10709 ] final  153.09 input   66.30 | X-H torsion
[ 10763 10752 10751 10750 ] final   60.49 input  -60.55 | X-H torsion
[ 11005 11000 10999 10996 ] final  -51.01 input  -57.11 | X-H torsion

> <Gold.Protein.ActiveResidues>
 VAL166  LYS551  ARG553  GLY616  TRP617  ASP618  TYR619  PRO620  LYS621  CYS622 
 ASP623  PHE694  ASN695  SER759  ASP760  ASP761  ALA762  ILE779  LEU786  VAL792 
 PHE793  MET794  SER795  GLU796  ALA797  LYS798  CYS799  TRP800  GLU811  SER814 

> <Gold.Protein.RotatedAtoms>
  150.8221  134.7434  159.6780 H   0  0  0  0  0  0  0  0  0  0  0  0  # atno 6907 bound_to 6896
  152.4335  134.5728  159.9935 H   0  0  0  0  0  0  0  0  0  0  0  0  # atno 6908 bound_to 6896
  151.5909  133.3329  159.3063 H   0  0  0  0  0  0  0  0  0  0  0  0  # atno 6909 bound_to 6896
  145.1726  140.8933  143.3526 H   0  0  0  0  0  0  0  0  0  0  0  0  # atno 7974 bound_to 7965
  154.7467  140.2759  155.6327 H   0  0  0  0  0  0  0  0  0  0  0  0  # atno 8008 bound_to 7997
  156.2886  140.2686  156.2136 H   0  0  0  0  0  0  0  0  0  0  0  0  # atno 8009 bound_to 7997
  155.0189  140.0371  157.2419 H   0  0  0  0  0  0  0  0  0  0  0  0  # atno 8010 bound_to 7997
  139.4918  144.5871  151.6756 H   0  0  0  0  0  0  0  0  0  0  0  0  # atno 10167 bound_to 10162
  157.2493  131.0775  151.1740 H   0  0  0  0  0  0  0  0  0  0  0  0  # atno 10718 bound_to 10713
  152.9922  135.5534  154.5882 H   0  0  0  0  0  0  0  0  0  0  0  0  # atno 10763 bound_to 10752
  154.5249  135.2810  155.1233 H   0  0  0  0  0  0  0  0  0  0  0  0  # atno 10764 bound_to 10752
  154.2571  135.6388  153.5314 H   0  0  0  0  0  0  0  0  0  0  0  0  # atno 10765 bound_to 10752
  141.0848  133.6645  156.3815 H   0  0  0  0  0  0  0  0  0  0  0  0  # atno 11005 bound_to 11000
  145.0217  139.3418  143.6069 LP  0  0  0  0  0  0  0  0  0  0  0  0  # atno 17320 bound_to 7965
  146.3466  139.9520  142.8728 LP  0  0  0  0  0  0  0  0  0  0  0  0  # atno 17321 bound_to 7965
  140.5489  144.0457  150.6119 LP  0  0  0  0  0  0  0  0  0  0  0  0  # atno 17342 bound_to 10162
  140.3505  143.2966  152.0492 LP  0  0  0  0  0  0  0  0  0  0  0  0  # atno 17343 bound_to 10162
  157.3295  130.6978  149.6316 LP  0  0  0  0  0  0  0  0  0  0  0  0  # atno 17370 bound_to 10713
  155.9667  130.4312  150.4908 LP  0  0  0  0  0  0  0  0  0  0  0  0  # atno 17371 bound_to 10713
  140.5388  134.6141  157.5373 LP  0  0  0  0  0  0  0  0  0  0  0  0  # atno 17394 bound_to 11000
  139.9665  134.7364  156.0128 LP  0  0  0  0  0  0  0  0  0  0  0  0  # atno 17395 bound_to 11000

$$$$
