AV-unprocessed.smi:35|AV-procd|sdf|269|dock7
  -GOLD-   2262016 33D 1   1.00000     0.00000
 Structure written by MMmdl.
 28 29  0  0  0  0  0  0  0  0  2 V2000
  151.6626  136.9314  159.5349 O   0  0  0  0  0  0  0  0  0  0  0  0
  151.3929  137.4820  158.4690 C   0  0  0  0  0  0  0  0  0  0  0  0
  152.3440  138.0037  157.6425 N   0  5  0  0  0  0  0  0  0  0  0  0
  152.0411  138.5955  156.4498 C   0  0  0  0  0  0  0  0  0  0  0  0
  152.8924  139.1165  155.7298 O   0  0  0  0  0  0  0  0  0  0  0  0
  150.6845  138.6269  156.0162 N   0  0  0  0  0  0  0  0  0  0  0  0
  150.3383  139.3025  154.6975 C   0  0  2  0  0  0  0  0  0  0  0  0
  150.6497  140.6676  154.7763 O   0  0  0  0  0  0  0  0  0  0  0  0
  149.4767  141.4716  154.9013 C   0  0  2  0  0  0  0  0  0  0  0  0
  149.0895  141.6613  156.3868 C   0  0  0  0  0  0  0  0  0  0  0  0
  149.9683  142.5794  157.0016 O   0  0  0  0  0  0  0  0  0  0  0  0
  148.4724  140.6706  154.0659 C   0  0  2  0  0  0  0  0  0  0  0  0
  147.1244  140.9559  154.3849 O   0  0  0  0  0  0  0  0  0  0  0  0
  148.8292  139.2211  154.3673 C   0  0  1  0  0  0  0  0  0  0  0  0
  148.5817  138.4317  153.2214 O   0  0  0  0  0  0  0  0  0  0  0  0
  149.6938  138.1666  156.8714 C   0  0  0  0  0  0  0  0  0  0  0  0
  149.9983  137.5993  158.0555 C   0  0  0  0  0  0  0  0  0  0  0  0
  148.4766  136.9703  159.1577 Br  0  0  0  0  0  0  0  0  0  0  0  0
  150.9858  138.8192  153.9637 H   0  0  0  0  0  0  0  0  0  0  0  0
  149.6440  142.4480  154.4447 H   0  0  0  0  0  0  0  0  0  0  0  0
  148.0926  142.0933  156.4700 H   0  0  0  0  0  0  0  0  0  0  0  0
  149.0664  140.7226  156.9377 H   0  0  0  0  0  0  0  0  0  0  0  0
  149.7321  143.4516  156.7246 H   0  0  0  0  0  0  0  0  0  0  0  0
  148.6454  140.8908  153.0109 H   0  0  0  0  0  0  0  0  0  0  0  0
  146.7687  141.5025  153.7007 H   0  0  0  0  0  0  0  0  0  0  0  0
  148.2723  138.8530  155.2308 H   0  0  0  0  0  0  0  0  0  0  0  0
  148.9071  138.9024  152.4679 H   0  0  0  0  0  0  0  0  0  0  0  0
  148.6523  138.2540  156.6036 H   0  0  0  0  0  0  0  0  0  0  0  0
  1  2  2  0  0  0  0
  2 17  1  0  0  0  0
  2  3  1  0  0  0  0
  3  4  1  0  0  0  0
  4  5  2  0  0  0  0
  4  6  1  0  0  0  0
  6  7  1  0  0  0  0
  6 16  1  0  0  0  0
  7 14  1  0  0  0  0
  7  8  1  0  0  0  0
  7 19  1  0  0  0  0
  8  9  1  0  0  0  0
  9 10  1  0  0  0  0
  9 12  1  0  0  0  0
  9 20  1  0  0  0  0
 10 11  1  0  0  0  0
 10 21  1  0  0  0  0
 10 22  1  0  0  0  0
 11 23  1  0  0  0  0
 12 13  1  0  0  0  0
 12 14  1  0  0  0  0
 12 24  1  0  0  0  0
 13 25  1  0  0  0  0
 14 15  1  0  0  0  0
 14 26  1  0  0  0  0
 15 27  1  0  0  0  0
 16 17  2  0  0  0  0
 16 28  1  0  0  0  0
 17 18  1  0  0  0  0
M  CHG  1   3  -1
M  END
> <s_m_source_file>
AV-unprocessed.smi

> <i_m_source_file_index>
35

> <i_lp_mmshare_version>
43012

> <i_f3d_flags>
0

> <s_epik_input>
Tz1jMVtuSF1jKD1PKW4oW2NIXWMxQnIpW0NAQEhdMk9bQ0BASF0oW0NIMl1bT0hdKVtDQEBIXShbT0hdKVtDQEhdMltPSF0=

> <s_epik_cmdline>
J2VwaWtfcHl0aG9uJywgJy1waCcsICc3LjAnLCAnLXRuJywgJzgnLCAnLW1hJywgJzIwMCcsICctbWV0YWxfYmluZGluZycsICctaW1hZScsICc8aW5maWxlLm1hZT4nLCAnLW9tYWUnLCAnPG91dGZpbGUubWFlPic=

> <r_epik_Ionization_Penalty>
1.06112

> <r_epik_Ionization_Penalty_Charging>
2.1796e-09

> <r_epik_Ionization_Penalty_Neutral>
1.06112

> <r_epik_State_Penalty>
1.11484

> <r_epik_Charging_Adjusted_Penalty>
1.11484

> <i_epik_Tot_Q>
-1

> <i_epik_Tot_abs_Q>
1

> <r_epik_Metal_State_Penalty>
0.0032876

> <b_epik_Metal_Only>
0

> <s_epik_Chemistry_Notes>
This compound contains an acetal/aminal-like group ( X-CH(R)-Y where X, Y are N, S, or O) that may be acid/base labile, releasing an aldehyde.

> <s_lp_Force_Field>
OPLS_2005

> <r_lp_Energy>
39.1741

> <b_lp_Chiralities_Consistent>
1

> <s_lp_Variant>
AV-unprocessed.smi:35-23

> <Gold.Version>
5.8.1

> <Gold.Id.Protein>
6NUR|6NUR_protein|mol2

> <Gold.PLP.Fitness>
40.1641

> <Gold.PLP.PLP>
-25.6326

> <Gold.PLP.part.hbond>
-5.8083

> <Gold.PLP.part.metal>
0.0000

> <Gold.PLP.part.buried>
-2.9354

> <Gold.PLP.part.nonpolar>
-16.6553

> <Gold.PLP.part.repulsive>
0.0980

> <Gold.PLP.ligand.clash>
0.0000

> <Gold.PLP.ligand.torsion>
0.1568

> <Gold.PLP.Chemscore.Hbond>
4.9280

> <Gold.PLP.Chemscore.CHOScore>
0.0000

> <Gold.PLP.Chemscore.Metal>
0.0000

> <Gold.Chemscore.Hbonds>
donor molecule, donor type, donor heavy atom, donor atom, acceptor molecule, acceptor atom, score
      L1  H    11    23       P1  8028  1.00
      L1  H    15    27       P1  7957  1.00
      P1  H  6896  6907       L1     1  1.00
      P1  H  7989  7998       L1     8  0.93
      P1  H  7997  8008       L1     5  1.00

> <Gold.PLP.Chemscore.Internal.Correction>
0.0612

> <Gold.Rescore>
     Score         DG    S(hbond)    S(metal)    S(lipo)     H(rot)  DE(clash)    DE(int)     intcor
     13.56     -15.03       4.44        0.00      34.29       3.63       0.01       1.46       ----

> <Gold.Chemscore.Fitness>
13.5600

> <Gold.Chemscore.DG>
-15.0255

> <Gold.Chemscore.ZeroCoef>
-5.4800

> <Gold.Chemscore.Hbond>
4.4361

> <Gold.Chemscore.Metal>
0.0000

> <Gold.Chemscore.Lipo>
34.2893

> <Gold.Chemscore.Internal_Hbond>
0.0000

> <Gold.Chemscore.DEClash>
0.0078

> <Gold.Chemscore.DEInternal>
1.4577

> <Gold.Chemscore.Rot>
3.6261

> <Gold.Chemscore.Internal.Correction>
   9.000000E+99

> <Gold.Chemscore.Hbonds>
donor molecule, donor type, donor heavy atom, donor atom, acceptor molecule, acceptor atom, score
      L1  H    11    23       P1  8028  0.98
      L1  H    15    27       P1  7957  0.98
      P1  H  6896  6907       L1     1  1.00
      P1  H  7989  7998       L1     8  0.35
      P1  H  7997  8008       L1     5  1.00

> <Gold.Chemscore.Hbond.Weighted>
-14.8164

> <Gold.Chemscore.Metal.Weighted>
-0.0000

> <Gold.Chemscore.Lipo.Weighted>
-4.0119

> <Gold.Chemscore.Internal_Hbond.Weighted>
0.0000

> <Gold.Chemscore.DEClash.Weighted>
0.0078

> <Gold.Chemscore.DEInternal.Weighted>
1.4577

> <Gold.Chemscore.Rot.Weighted>
9.2828

> <Gold.Chemscore.Internal.Correction.Weighted>
   9.000000E+99

> <Gold.Protein.RotatedTorsions>
[ 6907 6896 6895 6894 ] final    5.28 input  -60.11 | X-H torsion
[ 7974 7965 7964 7962 ] final  -96.14 input  175.53 | X-H torsion
[ 8008 7997 7996 7995 ] final  -42.07 input   59.86 | X-H torsion
[ 10167 10162 10161 10158 ] final  177.53 input  -65.29 | X-H torsion
[ 10718 10713 10712 10709 ] final   -5.01 input   66.30 | X-H torsion
[ 10763 10752 10751 10750 ] final  171.77 input  -60.55 | X-H torsion
[ 11005 11000 10999 10996 ] final   79.71 input  -57.11 | X-H torsion

> <Gold.Protein.ActiveResidues>
 VAL166  LYS551  ARG553  GLY616  TRP617  ASP618  TYR619  PRO620  LYS621  CYS622 
 ASP623  PHE694  ASN695  SER759  ASP760  ASP761  ALA762  ILE779  LEU786  VAL792 
 PHE793  MET794  SER795  GLU796  ALA797  LYS798  CYS799  TRP800  GLU811  SER814 

> <Gold.Protein.RotatedAtoms>
  151.6549  135.0997  160.0167 H   0  0  0  0  0  0  0  0  0  0  0  0  # atno 6907 bound_to 6896
  152.3979  133.6770  159.6300 H   0  0  0  0  0  0  0  0  0  0  0  0  # atno 6908 bound_to 6896
  150.7884  133.8758  159.3313 H   0  0  0  0  0  0  0  0  0  0  0  0  # atno 6909 bound_to 6896
  145.3508  140.9476  143.2555 H   0  0  0  0  0  0  0  0  0  0  0  0  # atno 7974 bound_to 7965
  154.4000  140.1483  156.3295 H   0  0  0  0  0  0  0  0  0  0  0  0  # atno 8008 bound_to 7997
  155.8456  140.3460  155.5639 H   0  0  0  0  0  0  0  0  0  0  0  0  # atno 8009 bound_to 7997
  155.8039  140.0874  157.1932 H   0  0  0  0  0  0  0  0  0  0  0  0  # atno 8010 bound_to 7997
  139.5257  144.2787  152.0566 H   0  0  0  0  0  0  0  0  0  0  0  0  # atno 10167 bound_to 10162
  156.7529  130.5245  149.5800 H   0  0  0  0  0  0  0  0  0  0  0  0  # atno 10718 bound_to 10713
  154.4166  135.2757  155.2002 H   0  0  0  0  0  0  0  0  0  0  0  0  # atno 10763 bound_to 10752
  154.3965  135.6054  153.5876 H   0  0  0  0  0  0  0  0  0  0  0  0  # atno 10764 bound_to 10752
  152.9832  135.5916  154.4456 H   0  0  0  0  0  0  0  0  0  0  0  0  # atno 10765 bound_to 10752
  139.9162  134.7864  156.1814 H   0  0  0  0  0  0  0  0  0  0  0  0  # atno 11005 bound_to 11000
  144.8719  139.5026  143.6764 LP  0  0  0  0  0  0  0  0  0  0  0  0  # atno 17320 bound_to 7965
  146.2968  139.7304  142.9120 LP  0  0  0  0  0  0  0  0  0  0  0  0  # atno 17321 bound_to 7965
  140.2243  144.4434  150.6328 LP  0  0  0  0  0  0  0  0  0  0  0  0  # atno 17342 bound_to 10162
  140.6398  143.2201  151.6316 LP  0  0  0  0  0  0  0  0  0  0  0  0  # atno 17343 bound_to 10162
  156.1389  130.6231  151.0440 LP  0  0  0  0  0  0  0  0  0  0  0  0  # atno 17370 bound_to 10713
  157.6769  131.0848  150.7471 LP  0  0  0  0  0  0  0  0  0  0  0  0  # atno 17371 bound_to 10713
  141.0640  133.6828  156.2007 LP  0  0  0  0  0  0  0  0  0  0  0  0  # atno 17394 bound_to 11000
  140.6616  134.4962  157.5583 LP  0  0  0  0  0  0  0  0  0  0  0  0  # atno 17395 bound_to 11000

$$$$
