AV-unprocessed.smi:72|AV-procd|sdf|707|dock7
  -GOLD-   2262017 23D 1   1.00000     0.00000
 Structure written by MMmdl.
 30 31  0  0  0  0  0  0  0  0  2 V2000
  145.9041  138.9898  151.9983 N   0  0  0  0  0  0  0  0  0  0  0  0
  146.9292  139.2852  152.8725 C   0  0  0  0  0  0  0  0  0  0  0  0
  148.0452  138.4678  152.8538 N   0  3  0  0  0  0  0  0  0  0  0  0
  149.1214  138.6193  153.6369 C   0  0  0  0  0  0  0  0  0  0  0  0
  149.1506  139.6100  154.5018 N   0  0  0  0  0  0  0  0  0  0  0  0
  150.3522  139.7894  155.3907 C   0  0  2  0  0  0  0  0  0  0  0  0
  151.4825  139.7598  154.5772 O   0  0  0  0  0  0  0  0  0  0  0  0
  152.5359  139.1296  155.2936 C   0  0  2  0  0  0  0  0  0  0  0  0
  153.6892  138.7232  154.3590 C   0  0  0  0  0  0  0  0  0  0  0  0
  154.7716  138.2216  155.1135 O   0  0  0  0  0  0  0  0  0  0  0  0
  151.8204  138.0048  156.0572 C   0  0  2  0  0  0  0  0  0  0  0  0
  151.6510  136.8584  155.2401 O   0  0  0  0  0  0  0  0  0  0  0  0
  150.4917  138.6611  156.4345 C   0  0  2  0  0  0  0  0  0  0  0  0
  149.4076  137.7480  156.4937 O   0  0  0  0  0  0  0  0  0  0  0  0
  148.0515  140.5018  154.5975 C   0  0  0  0  0  0  0  0  0  0  0  0
  148.0575  141.4250  155.4106 O   0  0  0  0  0  0  0  0  0  0  0  0
  146.9726  140.2649  153.7329 N   0  0  0  0  0  0  0  0  0  0  0  0
  150.2883  140.7767  155.8489 H   0  0  0  0  0  0  0  0  0  0  0  0
  152.9082  139.8601  156.0149 H   0  0  0  0  0  0  0  0  0  0  0  0
  152.3823  137.7035  156.9420 H   0  0  0  0  0  0  0  0  0  0  0  0
  150.5916  139.1387  157.4103 H   0  0  0  0  0  0  0  0  0  0  0  0
  145.0528  139.5312  151.9422 H   0  0  0  0  0  0  0  0  0  0  0  0
  145.9182  138.2142  151.3517 H   0  0  0  0  0  0  0  0  0  0  0  0
  149.9533  137.9321  153.5539 H   0  0  0  0  0  0  0  0  0  0  0  0
  153.3753  137.9819  153.6241 H   0  0  0  0  0  0  0  0  0  0  0  0
  154.0374  139.5928  153.8009 H   0  0  0  0  0  0  0  0  0  0  0  0
  154.4705  137.4810  155.6180 H   0  0  0  0  0  0  0  0  0  0  0  0
  151.2110  136.1919  155.7433 H   0  0  0  0  0  0  0  0  0  0  0  0
  149.7529  136.8852  156.6693 H   0  0  0  0  0  0  0  0  0  0  0  0
  148.0444  137.6992  152.1985 H   0  0  0  0  0  0  0  0  0  0  0  0
  1  2  1  0  0  0  0
  1 22  1  0  0  0  0
  1 23  1  0  0  0  0
  2 17  2  0  0  0  0
  2  3  1  0  0  0  0
  3  4  2  0  0  0  0
  3 30  1  0  0  0  0
  4  5  1  0  0  0  0
  4 24  1  0  0  0  0
  5  6  1  0  0  0  0
  5 15  1  0  0  0  0
  6 18  1  0  0  0  0
  6 13  1  0  0  0  0
  6  7  1  0  0  0  0
  7  8  1  0  0  0  0
  8 19  1  0  0  0  0
  8  9  1  0  0  0  0
  8 11  1  0  0  0  0
  9 10  1  0  0  0  0
  9 25  1  0  0  0  0
  9 26  1  0  0  0  0
 10 27  1  0  0  0  0
 11 20  1  0  0  0  0
 11 12  1  0  0  0  0
 11 13  1  0  0  0  0
 12 28  1  0  0  0  0
 13 21  1  0  0  0  0
 13 14  1  0  0  0  0
 14 29  1  0  0  0  0
 15 16  2  0  0  0  0
 15 17  1  0  0  0  0
M  CHG  1   3   1
M  END
> <s_m_source_file>
AV-unprocessed.smi

> <i_m_source_file_index>
72

> <i_lp_mmshare_version>
43012

> <i_f3d_flags>
0

> <s_epik_input>
W05IMl1jMW5bY0hdbihjKD1PKW4xKVtDQEBIXTJPW0NASF0oW0NIMl1bT0hdKVtDQEBIXShbT0hdKVtDQEhdMltPSF0=

> <s_epik_cmdline>
J2VwaWtfcHl0aG9uJywgJy1waCcsICc3LjAnLCAnLXRuJywgJzgnLCAnLW1hJywgJzIwMCcsICctbWV0YWxfYmluZGluZycsICctaW1hZScsICc8aW5maWxlLm1hZT4nLCAnLW9tYWUnLCAnPG91dGZpbGUubWFlPic=

> <r_lp_tautomer_probability>
4.77166e-05

> <r_epik_Ionization_Penalty>
0.104979

> <r_epik_Ionization_Penalty_Charging>
0.0999619

> <r_epik_Ionization_Penalty_Neutral>
0.00501745

> <r_epik_State_Penalty>
2.51541

> <r_epik_Charging_Adjusted_Penalty>
2.61537

> <i_epik_Tot_Q>
1

> <i_epik_Tot_abs_Q>
1

> <r_epik_Metal_State_Penalty>
3.53763

> <b_epik_Metal_Only>
0

> <s_epik_Chemistry_Notes>
This compound contains an acetal/aminal-like group ( X-CH(R)-Y where X, Y are N, S, or O) that may be acid/base labile, releasing an aldehyde.

> <s_lp_Force_Field>
OPLS_2005

> <r_lp_Energy>
39.1051

> <b_lp_Chiralities_Consistent>
1

> <s_lp_Variant>
AV-unprocessed.smi:72-45

> <Gold.Version>
5.8.1

> <Gold.Id.Protein>
6NUR|6NUR_protein|mol2

> <Gold.PLP.Fitness>
38.5652

> <Gold.PLP.PLP>
-23.7269

> <Gold.PLP.part.hbond>
-7.8830

> <Gold.PLP.part.metal>
0.0000

> <Gold.PLP.part.buried>
0.0682

> <Gold.PLP.part.nonpolar>
-16.7297

> <Gold.PLP.part.repulsive>
0.4610

> <Gold.PLP.ligand.clash>
0.0000

> <Gold.PLP.ligand.torsion>
0.1826

> <Gold.PLP.Chemscore.Hbond>
4.6285

> <Gold.PLP.Chemscore.CHOScore>
0.3872

> <Gold.PLP.Chemscore.Metal>
0.0000

> <Gold.Chemscore.Hbonds>
donor molecule, donor type, donor heavy atom, donor atom, acceptor molecule, acceptor atom, score
      L1  H     1    22       P1 10175  1.00
      L1  H     3    30       P1  7948  1.60
      P1  H  7989  7998       L1     7  1.00
      P1  H  7997  8008       L1    10  0.01
      P1  H 10752 10764       L1    12  0.60
      L1  C     4    24       P1  7948  0.38

> <Gold.PLP.Chemscore.Internal.Correction>
0.1563

> <Gold.Rescore>
     Score         DG    S(hbond)    S(metal)    S(lipo)     H(rot)  DE(clash)    DE(int)     intcor
      8.00      -9.52       3.43        0.00      25.81       4.08       0.50       1.03       ----

> <Gold.Chemscore.Fitness>
7.9978

> <Gold.Chemscore.DG>
-9.5241

> <Gold.Chemscore.ZeroCoef>
-5.4800

> <Gold.Chemscore.Hbond>
3.4326

> <Gold.Chemscore.Metal>
0.0000

> <Gold.Chemscore.Lipo>
25.8084

> <Gold.Chemscore.Internal_Hbond>
0.0000

> <Gold.Chemscore.DEClash>
0.4990

> <Gold.Chemscore.DEInternal>
1.0273

> <Gold.Chemscore.Rot>
4.0783

> <Gold.Chemscore.Internal.Correction>
   9.000000E+99

> <Gold.Chemscore.Hbonds>
donor molecule, donor type, donor heavy atom, donor atom, acceptor molecule, acceptor atom, score
      L1  H     1    22       P1 10175  0.94
      L1  H     3    30       P1  7948  0.80
      P1  H  7989  7998       L1     7  0.92
      P1  H 10752 10764       L1    12  0.04

> <Gold.Chemscore.Hbond.Weighted>
-11.4650

> <Gold.Chemscore.Metal.Weighted>
-0.0000

> <Gold.Chemscore.Lipo.Weighted>
-3.0196

> <Gold.Chemscore.Internal_Hbond.Weighted>
0.0000

> <Gold.Chemscore.DEClash.Weighted>
0.4990

> <Gold.Chemscore.DEInternal.Weighted>
1.0273

> <Gold.Chemscore.Rot.Weighted>
10.4404

> <Gold.Chemscore.Internal.Correction.Weighted>
   9.000000E+99

> <Gold.Protein.RotatedTorsions>
[ 6907 6896 6895 6894 ] final   -8.50 input  -60.11 | X-H torsion
[ 7974 7965 7964 7962 ] final  -87.77 input  175.53 | X-H torsion
[ 8008 7997 7996 7995 ] final   29.82 input   59.86 | X-H torsion
[ 10167 10162 10161 10158 ] final -101.05 input  -65.29 | X-H torsion
[ 10718 10713 10712 10709 ] final   68.88 input   66.30 | X-H torsion
[ 10763 10752 10751 10750 ] final  -61.78 input  -60.55 | X-H torsion
[ 11005 11000 10999 10996 ] final -105.56 input  -57.11 | X-H torsion

> <Gold.Protein.ActiveResidues>
 VAL166  LYS551  ARG553  GLY616  TRP617  ASP618  TYR619  PRO620  LYS621  CYS622 
 ASP623  PHE694  ASN695  SER759  ASP760  ASP761  ALA762  ILE779  LEU786  VAL792 
 PHE793  MET794  SER795  GLU796  ALA797  LYS798  CYS799  TRP800  GLU811  SER814 

> <Gold.Protein.RotatedAtoms>
  151.4326  135.1011  159.9646 H   0  0  0  0  0  0  0  0  0  0  0  0  # atno 6907 bound_to 6896
  152.4951  133.8603  159.7257 H   0  0  0  0  0  0  0  0  0  0  0  0  # atno 6908 bound_to 6896
  150.9144  133.6899  159.2874 H   0  0  0  0  0  0  0  0  0  0  0  0  # atno 6909 bound_to 6896
  145.4621  140.9561  143.1963 H   0  0  0  0  0  0  0  0  0  0  0  0  # atno 7974 bound_to 7965
  155.0805  140.3210  155.4603 H   0  0  0  0  0  0  0  0  0  0  0  0  # atno 8008 bound_to 7997
  156.2768  140.2095  156.5878 H   0  0  0  0  0  0  0  0  0  0  0  0  # atno 8009 bound_to 7997
  154.6982  140.0509  157.0419 H   0  0  0  0  0  0  0  0  0  0  0  0  # atno 8010 bound_to 7997
  140.2454  143.3509  152.0763 H   0  0  0  0  0  0  0  0  0  0  0  0  # atno 10167 bound_to 10162
  157.6314  130.9396  150.0437 H   0  0  0  0  0  0  0  0  0  0  0  0  # atno 10718 bound_to 10713
  154.2898  135.6255  153.5381 H   0  0  0  0  0  0  0  0  0  0  0  0  # atno 10763 bound_to 10752
  152.9854  135.5653  154.5402 H   0  0  0  0  0  0  0  0  0  0  0  0  # atno 10764 bound_to 10752
  154.5011  135.2872  155.1396 H   0  0  0  0  0  0  0  0  0  0  0  0  # atno 10765 bound_to 10752
  141.1047  133.8819  157.1750 H   0  0  0  0  0  0  0  0  0  0  0  0  # atno 11005 bound_to 11000
  144.7996  139.6166  143.7077 LP  0  0  0  0  0  0  0  0  0  0  0  0  # atno 17320 bound_to 7965
  146.2445  139.6069  142.9469 LP  0  0  0  0  0  0  0  0  0  0  0  0  # atno 17321 bound_to 7965
  139.5063  144.6812  151.6004 LP  0  0  0  0  0  0  0  0  0  0  0  0  # atno 17342 bound_to 10162
  140.6081  143.9486  150.6433 LP  0  0  0  0  0  0  0  0  0  0  0  0  # atno 17343 bound_to 10162
  156.1521  130.3642  149.9423 LP  0  0  0  0  0  0  0  0  0  0  0  0  # atno 17370 bound_to 10713
  156.7440  130.9090  151.3634 LP  0  0  0  0  0  0  0  0  0  0  0  0  # atno 17371 bound_to 10713
  139.9912  135.0064  156.9980 LP  0  0  0  0  0  0  0  0  0  0  0  0  # atno 17394 bound_to 11000
  140.4932  134.1172  155.7236 LP  0  0  0  0  0  0  0  0  0  0  0  0  # atno 17395 bound_to 11000

$$$$
