AV-unprocessed.smi:1225|AV-procd|sdf|5136|dock6
  -GOLD-   22720 4203D 1   1.00000     0.00000
 Structure written by MMmdl.
 48 50  0  0  0  0  0  0  0  0  1 V2000
  146.0826  129.8015  152.8530 C   0  0  0  0  0  0  0  0  0  0  0  0
  146.9314  131.0061  153.0758 C   0  0  0  0  0  0  0  0  0  0  0  0
  146.7344  132.1729  152.4577 N   0  0  0  0  0  0  0  0  0  0  0  0
  147.6631  133.1426  152.8423 C   0  0  0  0  0  0  0  0  0  0  0  0
  148.5764  132.7004  153.7677 C   0  0  0  0  0  0  0  0  0  0  0  0
  149.6962  133.4762  154.3831 C   0  0  0  0  0  0  0  0  0  0  0  0
  149.3074  134.8279  154.7974 N   0  0  0  0  0  0  0  0  0  0  0  0
  148.0000  134.7993  155.4479 C   0  0  0  0  0  0  0  0  0  0  0  0
  150.3067  135.4444  155.6776 C   0  0  0  0  0  0  0  0  0  0  0  0
  150.7387  136.8835  155.3107 C   0  0  2  0  0  0  0  0  0  0  0  0
  151.7567  136.8204  154.3307 O   0  0  0  0  0  0  0  0  0  0  0  0
  151.1744  137.7863  156.4820 C   0  0  0  0  0  0  0  0  0  0  0  0
  150.8733  139.1862  156.2439 N   0  0  0  0  0  0  0  0  0  0  0  0
  150.2251  139.7102  155.1857 C   0  0  0  0  0  0  0  0  0  0  0  0
  150.0576  141.0294  155.1671 N   0  0  0  0  0  0  0  0  0  0  0  0
  150.6736  141.4054  156.3487 C   0  0  0  0  0  0  0  0  0  0  0  0
  150.8478  142.6821  156.9260 C   0  0  0  0  0  0  0  0  0  0  0  0
  151.5220  142.8342  158.1587 C   0  0  0  0  0  0  0  0  0  0  0  0
  151.6911  144.2267  158.7405 C   0  0  0  0  0  0  0  0  0  0  0  0
  152.0324  141.6967  158.8348 C   0  0  0  0  0  0  0  0  0  0  0  0
  152.7613  141.8361  160.1594 C   0  0  0  0  0  0  0  0  0  0  0  0
  151.8651  140.4137  158.2729 C   0  0  0  0  0  0  0  0  0  0  0  0
  151.1946  140.2758  157.0450 C   0  0  0  0  0  0  0  0  0  0  0  0
  148.2941  131.0312  154.1883 S   0  0  0  0  0  0  0  0  0  0  0  0
  145.5182  129.8962  151.9247 H   0  0  0  0  0  0  0  0  0  0  0  0
  145.3814  129.6833  153.6792 H   0  0  0  0  0  0  0  0  0  0  0  0
  146.7069  128.9100  152.7915 H   0  0  0  0  0  0  0  0  0  0  0  0
  147.6012  134.1293  152.4074 H   0  0  0  0  0  0  0  0  0  0  0  0
  150.0967  132.9307  155.2389 H   0  0  0  0  0  0  0  0  0  0  0  0
  150.5102  133.5121  153.6638 H   0  0  0  0  0  0  0  0  0  0  0  0
  147.6820  135.8063  155.7200 H   0  0  0  0  0  0  0  0  0  0  0  0
  148.0235  134.1938  156.3549 H   0  0  0  0  0  0  0  0  0  0  0  0
  147.2369  134.3902  154.7853 H   0  0  0  0  0  0  0  0  0  0  0  0
  149.9203  135.4863  156.6976 H   0  0  0  0  0  0  0  0  0  0  0  0
  151.1860  134.8014  155.7389 H   0  0  0  0  0  0  0  0  0  0  0  0
  149.8836  137.3554  154.8254 H   0  0  0  0  0  0  0  0  0  0  0  0
  151.3637  136.5780  153.5062 H   0  0  0  0  0  0  0  0  0  0  0  0
  150.6700  137.4848  157.4005 H   0  0  0  0  0  0  0  0  0  0  0  0
  152.2473  137.6969  156.6577 H   0  0  0  0  0  0  0  0  0  0  0  0
  149.8527  139.0873  154.3854 H   0  0  0  0  0  0  0  0  0  0  0  0
  150.4588  143.5481  156.4105 H   0  0  0  0  0  0  0  0  0  0  0  0
  152.7487  144.4742  158.8356 H   0  0  0  0  0  0  0  0  0  0  0  0
  151.2303  144.2887  159.7266 H   0  0  0  0  0  0  0  0  0  0  0  0
  151.2266  144.9824  158.1064 H   0  0  0  0  0  0  0  0  0  0  0  0
  153.0905  140.8673  160.5365 H   0  0  0  0  0  0  0  0  0  0  0  0
  152.1085  142.2829  160.9094 H   0  0  0  0  0  0  0  0  0  0  0  0
  153.6425  142.4677  160.0454 H   0  0  0  0  0  0  0  0  0  0  0  0
  152.2479  139.5385  158.7767 H   0  0  0  0  0  0  0  0  0  0  0  0
  1  2  1  0  0  0  0
  1 25  1  0  0  0  0
  1 26  1  0  0  0  0
  1 27  1  0  0  0  0
  2 24  1  0  0  0  0
  2  3  2  0  0  0  0
  3  4  1  0  0  0  0
  4  5  2  0  0  0  0
  4 28  1  0  0  0  0
  5  6  1  0  0  0  0
  5 24  1  0  0  0  0
  6  7  1  0  0  0  0
  6 29  1  0  0  0  0
  6 30  1  0  0  0  0
  7  8  1  0  0  0  0
  7  9  1  0  0  0  0
  8 31  1  0  0  0  0
  8 32  1  0  0  0  0
  8 33  1  0  0  0  0
  9 10  1  0  0  0  0
  9 34  1  0  0  0  0
  9 35  1  0  0  0  0
 10 11  1  0  0  0  0
 10 12  1  0  0  0  0
 10 36  1  0  0  0  0
 11 37  1  0  0  0  0
 12 13  1  0  0  0  0
 12 38  1  0  0  0  0
 12 39  1  0  0  0  0
 13 23  1  0  0  0  0
 13 14  1  0  0  0  0
 14 15  2  0  0  0  0
 14 40  1  0  0  0  0
 15 16  1  0  0  0  0
 16 23  2  0  0  0  0
 16 17  1  0  0  0  0
 17 18  2  0  0  0  0
 17 41  1  0  0  0  0
 18 19  1  0  0  0  0
 18 20  1  0  0  0  0
 19 42  1  0  0  0  0
 19 43  1  0  0  0  0
 19 44  1  0  0  0  0
 20 21  1  0  0  0  0
 20 22  2  0  0  0  0
 21 45  1  0  0  0  0
 21 46  1  0  0  0  0
 21 47  1  0  0  0  0
 22 23  1  0  0  0  0
 22 48  1  0  0  0  0
M  END
> <s_m_source_file>
AV-unprocessed.smi

> <i_m_source_file_index>
1225

> <i_lp_mmshare_version>
43012

> <i_f3d_flags>
0

> <s_epik_input>
W0NIM11jMW5bY0hdYyhzMSlbQ0gyXU4oW0NIM10pW0NIMl1bQ0BIXShbT0hdKVtDSDJdbihbY0hdbjIpYyhjMjMpW2NIXWMoW0NIM10pYyhbY0hdMylbQ0gzXQ==

> <s_epik_cmdline>
J2VwaWtfcHl0aG9uJywgJy1waCcsICc3LjAnLCAnLXRuJywgJzgnLCAnLW1hJywgJzIwMCcsICctbWV0YWxfYmluZGluZycsICctaW1hZScsICc8aW5maWxlLm1hZT4nLCAnLW9tYWUnLCAnPG91dGZpbGUubWFlPic=

> <r_epik_Ionization_Penalty>
0.12717

> <r_epik_Ionization_Penalty_Charging>
0

> <r_epik_Ionization_Penalty_Neutral>
0.12717

> <r_epik_State_Penalty>
0.11216

> <r_epik_Charging_Adjusted_Penalty>
0.11216

> <i_epik_Tot_Q>
0

> <i_epik_Tot_abs_Q>
0

> <r_epik_Metal_State_Penalty>
0.099641

> <b_epik_Metal_Only>
0

> <s_lp_Force_Field>
OPLS_2005

> <r_lp_Energy>
23.0021

> <b_lp_Chiralities_Consistent>
1

> <s_lp_Variant>
AV-unprocessed.smi:1225-1

> <Gold.Version>
5.8.1

> <Gold.Id.Protein>
6NUR|6NUR_protein|mol2

> <Gold.PLP.Fitness>
52.6908

> <Gold.PLP.PLP>
-46.8364

> <Gold.PLP.part.hbond>
-3.0000

> <Gold.PLP.part.metal>
0.0000

> <Gold.PLP.part.buried>
-4.6857

> <Gold.PLP.part.nonpolar>
-39.1282

> <Gold.PLP.part.repulsive>
1.0052

> <Gold.PLP.ligand.clash>
0.0135

> <Gold.PLP.ligand.torsion>
1.6669

> <Gold.PLP.Chemscore.Hbond>
2.0000

> <Gold.PLP.Chemscore.CHOScore>
1.0000

> <Gold.PLP.Chemscore.Metal>
0.0000

> <Gold.Chemscore.Hbonds>
donor molecule, donor type, donor heavy atom, donor atom, acceptor molecule, acceptor atom, score
      L1  H    11    37       P1  7949  0.81
      P1  H  7989  7998       L1    15  0.04
      P1  H 10752 10765       L1    11  0.85
      L1  C     4    28       P1  7948  1.00

> <Gold.PLP.Chemscore.Internal.Correction>
0.2017

> <Gold.Rescore>
     Score         DG    S(hbond)    S(metal)    S(lipo)     H(rot)  DE(clash)    DE(int)     intcor
     17.22     -18.95       1.45        0.00     123.70       2.28       0.14       1.59       ----

> <Gold.Chemscore.Fitness>
17.2223

> <Gold.Chemscore.DG>
-18.9513

> <Gold.Chemscore.ZeroCoef>
-5.4800

> <Gold.Chemscore.Hbond>
1.4511

> <Gold.Chemscore.Metal>
0.0000

> <Gold.Chemscore.Lipo>
123.6989

> <Gold.Chemscore.Internal_Hbond>
0.0000

> <Gold.Chemscore.DEClash>
0.1413

> <Gold.Chemscore.DEInternal>
1.5877

> <Gold.Chemscore.Rot>
2.2844

> <Gold.Chemscore.Internal.Correction>
   9.000000E+99

> <Gold.Chemscore.Hbonds>
donor molecule, donor type, donor heavy atom, donor atom, acceptor molecule, acceptor atom, score
      L1  H    11    37       P1  7949  0.60
      P1  H 10752 10765       L1    11  0.14

> <Gold.Chemscore.Hbond.Weighted>
-4.8466

> <Gold.Chemscore.Metal.Weighted>
-0.0000

> <Gold.Chemscore.Lipo.Weighted>
-14.4728

> <Gold.Chemscore.Internal_Hbond.Weighted>
0.0000

> <Gold.Chemscore.DEClash.Weighted>
0.1413

> <Gold.Chemscore.DEInternal.Weighted>
1.5877

> <Gold.Chemscore.Rot.Weighted>
5.8480

> <Gold.Chemscore.Internal.Correction.Weighted>
   9.000000E+99

> <Gold.Protein.RotatedTorsions>
[ 6907 6896 6895 6894 ] final -101.90 input  -60.11 | X-H torsion
[ 7974 7965 7964 7962 ] final   75.20 input  175.53 | X-H torsion
[ 8008 7997 7996 7995 ] final  -49.86 input   59.86 | X-H torsion
[ 10167 10162 10161 10158 ] final  104.81 input  -65.29 | X-H torsion
[ 10718 10713 10712 10709 ] final   24.16 input   66.30 | X-H torsion
[ 10763 10752 10751 10750 ] final  164.46 input  -60.55 | X-H torsion
[ 11005 11000 10999 10996 ] final   82.03 input  -57.11 | X-H torsion

> <Gold.Protein.ActiveResidues>
 VAL166  LYS551  ARG553  GLY616  TRP617  ASP618  TYR619  PRO620  LYS621  CYS622 
 ASP623  PHE694  ASN695  SER759  ASP760  ASP761  ALA762  ILE779  LEU786  VAL792 
 PHE793  MET794  SER795  GLU796  ALA797  LYS798  CYS799  TRP800  GLU811  SER814 

> <Gold.Protein.RotatedAtoms>
  150.7173  134.0663  159.3848 H   0  0  0  0  0  0  0  0  0  0  0  0  # atno 6907 bound_to 6896
  151.8644  135.0510  160.0482 H   0  0  0  0  0  0  0  0  0  0  0  0  # atno 6908 bound_to 6896
  152.2692  133.5331  159.5465 H   0  0  0  0  0  0  0  0  0  0  0  0  # atno 6909 bound_to 6896
  145.7187  139.2640  143.1609 H   0  0  0  0  0  0  0  0  0  0  0  0  # atno 7974 bound_to 7965
  154.4051  140.1286  156.4572 H   0  0  0  0  0  0  0  0  0  0  0  0  # atno 8008 bound_to 7997
  155.7308  140.3491  155.5039 H   0  0  0  0  0  0  0  0  0  0  0  0  # atno 8009 bound_to 7997
  155.9129  140.1039  157.1256 H   0  0  0  0  0  0  0  0  0  0  0  0  # atno 8010 bound_to 7997
  139.7145  144.7071  151.0972 H   0  0  0  0  0  0  0  0  0  0  0  0  # atno 10167 bound_to 10162
  157.1759  130.6781  149.6095 H   0  0  0  0  0  0  0  0  0  0  0  0  # atno 10718 bound_to 10713
  154.3093  135.2757  155.2574 H   0  0  0  0  0  0  0  0  0  0  0  0  # atno 10763 bound_to 10752
  154.4976  135.5817  153.6510 H   0  0  0  0  0  0  0  0  0  0  0  0  # atno 10764 bound_to 10752
  152.9890  135.6150  154.3269 H   0  0  0  0  0  0  0  0  0  0  0  0  # atno 10765 bound_to 10752
  139.9077  134.8041  156.2120 H   0  0  0  0  0  0  0  0  0  0  0  0  # atno 11005 bound_to 11000
  146.0646  140.7934  142.9718 LP  0  0  0  0  0  0  0  0  0  0  0  0  # atno 17320 bound_to 7965
  144.6922  140.3249  143.7226 LP  0  0  0  0  0  0  0  0  0  0  0  0  # atno 17321 bound_to 7965
  140.7741  143.5248  150.9493 LP  0  0  0  0  0  0  0  0  0  0  0  0  # atno 17342 bound_to 10162
  139.8934  143.6925  152.3142 LP  0  0  0  0  0  0  0  0  0  0  0  0  # atno 17343 bound_to 10162
  155.9731  130.4663  150.6284 LP  0  0  0  0  0  0  0  0  0  0  0  0  # atno 17370 bound_to 10713
  157.3999  131.0808  151.1318 LP  0  0  0  0  0  0  0  0  0  0  0  0  # atno 17371 bound_to 10713
  141.0459  133.6913  156.1683 LP  0  0  0  0  0  0  0  0  0  0  0  0  # atno 17394 bound_to 11000
  140.6884  134.4692  157.5589 LP  0  0  0  0  0  0  0  0  0  0  0  0  # atno 17395 bound_to 11000

$$$$
