AV-unprocessed.smi:202|AV-procd|sdf|1581|dock9
  -GOLD-   2262019473D 1   1.00000     0.00000
 Structure written by MMmdl.
 49 52  0  0  0  0  0  0  0  0  1 V2000
  153.0006  141.6582  159.9966 C   0  0  0  0  0  0  0  0  0  0  0  0
  151.8488  141.5596  158.9859 C   0  0  0  0  0  0  0  0  0  0  0  0
  150.8716  142.7253  159.2384 C   0  0  0  0  0  0  0  0  0  0  0  0
  151.4832  144.1425  159.2758 C   0  0  0  0  0  0  0  0  0  0  0  0
  151.8825  144.3951  160.5217 F   0  0  0  0  0  0  0  0  0  0  0  0
  152.5430  144.2315  158.4733 F   0  0  0  0  0  0  0  0  0  0  0  0
  150.5942  145.0738  158.9341 F   0  0  0  0  0  0  0  0  0  0  0  0
  152.2898  141.3880  157.5221 C   0  0  0  0  0  0  0  0  0  0  0  0
  152.1311  139.9538  157.7017 N   0  0  0  0  0  0  0  0  0  0  0  0
  151.5934  139.2858  156.5679 C   0  0  0  0  0  0  0  0  0  0  0  0
  151.1500  139.9742  155.4804 N   0  0  0  0  0  0  0  0  0  0  0  0
  150.6524  139.3324  154.4192 C   0  0  0  0  0  0  0  0  0  0  0  0
  150.5101  138.0201  154.2306 N   0  0  0  0  0  0  0  0  0  0  0  0
  150.9582  137.3185  155.3096 C   0  0  0  0  0  0  0  0  0  0  0  0
  151.5058  137.8689  156.5028 C   0  0  0  0  0  0  0  0  0  0  0  0
  151.8502  136.8493  157.3806 N   0  0  0  0  0  0  0  0  0  0  0  0
  151.5262  135.7577  156.7425 C   0  0  0  0  0  0  0  0  0  0  0  0
  150.9910  135.9462  155.4878 N   0  0  0  0  0  0  0  0  0  0  0  0
  150.5454  134.9111  154.5665 C   0  0  0  0  0  0  0  0  0  0  0  0
  149.0685  134.4737  154.7680 C   0  0  0  0  0  0  0  0  0  0  0  0
  148.2461  135.5695  154.4104 O   0  0  0  0  0  0  0  0  0  0  0  0
  148.6910  133.2989  153.8436 C   0  0  0  0  0  0  0  0  0  0  0  0
  149.2895  131.9705  154.3411 C   0  0  0  0  0  0  0  0  0  0  0  0
  148.8768  131.7219  155.6804 O   0  0  0  0  0  0  0  0  0  0  0  0
  149.3225  132.7173  156.5952 C   0  0  0  0  0  0  0  0  0  0  0  0
  148.7189  134.0825  156.2202 C   0  0  0  0  0  0  0  0  0  0  0  0
  151.2244  140.1631  158.8225 C   0  0  0  0  0  0  0  0  0  0  0  0
  153.3837  142.6756  160.0829 H   0  0  0  0  0  0  0  0  0  0  0  0
  153.8408  141.0265  159.7063 H   0  0  0  0  0  0  0  0  0  0  0  0
  152.6970  141.3279  160.9895 H   0  0  0  0  0  0  0  0  0  0  0  0
  150.0710  142.7055  158.4978 H   0  0  0  0  0  0  0  0  0  0  0  0
  150.3712  142.5626  160.1940 H   0  0  0  0  0  0  0  0  0  0  0  0
  151.5907  141.8165  156.8015 H   0  0  0  0  0  0  0  0  0  0  0  0
  153.3175  141.6910  157.3201 H   0  0  0  0  0  0  0  0  0  0  0  0
  150.3229  139.9601  153.6044 H   0  0  0  0  0  0  0  0  0  0  0  0
  151.6738  134.7769  157.1709 H   0  0  0  0  0  0  0  0  0  0  0  0
  150.6894  135.2830  153.5512 H   0  0  0  0  0  0  0  0  0  0  0  0
  151.2186  134.0602  154.6675 H   0  0  0  0  0  0  0  0  0  0  0  0
  148.2618  135.6625  153.4701 H   0  0  0  0  0  0  0  0  0  0  0  0
  147.6055  133.1913  153.8110 H   0  0  0  0  0  0  0  0  0  0  0  0
  149.0090  133.4961  152.8191 H   0  0  0  0  0  0  0  0  0  0  0  0
  148.9445  131.1494  153.7126 H   0  0  0  0  0  0  0  0  0  0  0  0
  150.3783  131.9744  154.2784 H   0  0  0  0  0  0  0  0  0  0  0  0
  149.0067  132.4347  157.5996 H   0  0  0  0  0  0  0  0  0  0  0  0
  150.4120  132.7519  156.6070 H   0  0  0  0  0  0  0  0  0  0  0  0
  149.0379  134.8473  156.9284 H   0  0  0  0  0  0  0  0  0  0  0  0
  147.6353  134.0127  156.3273 H   0  0  0  0  0  0  0  0  0  0  0  0
  151.4072  139.4902  159.6607 H   0  0  0  0  0  0  0  0  0  0  0  0
  150.1679  140.1958  158.5538 H   0  0  0  0  0  0  0  0  0  0  0  0
  1  2  1  0  0  0  0
  1 28  1  0  0  0  0
  1 29  1  0  0  0  0
  1 30  1  0  0  0  0
  2 27  1  0  0  0  0
  2  3  1  0  0  0  0
  2  8  1  0  0  0  0
  3  4  1  0  0  0  0
  3 31  1  0  0  0  0
  3 32  1  0  0  0  0
  4  5  1  0  0  0  0
  4  6  1  0  0  0  0
  4  7  1  0  0  0  0
  8  9  1  0  0  0  0
  8 33  1  0  0  0  0
  8 34  1  0  0  0  0
  9 10  1  0  0  0  0
  9 27  1  0  0  0  0
 10 15  1  0  0  0  0
 10 11  2  0  0  0  0
 11 12  1  0  0  0  0
 12 13  2  0  0  0  0
 12 35  1  0  0  0  0
 13 14  1  0  0  0  0
 14 18  1  0  0  0  0
 14 15  2  0  0  0  0
 15 16  1  0  0  0  0
 16 17  2  0  0  0  0
 17 18  1  0  0  0  0
 17 36  1  0  0  0  0
 18 19  1  0  0  0  0
 19 20  1  0  0  0  0
 19 37  1  0  0  0  0
 19 38  1  0  0  0  0
 20 26  1  0  0  0  0
 20 21  1  0  0  0  0
 20 22  1  0  0  0  0
 21 39  1  0  0  0  0
 22 23  1  0  0  0  0
 22 40  1  0  0  0  0
 22 41  1  0  0  0  0
 23 24  1  0  0  0  0
 23 42  1  0  0  0  0
 23 43  1  0  0  0  0
 24 25  1  0  0  0  0
 25 26  1  0  0  0  0
 25 44  1  0  0  0  0
 25 45  1  0  0  0  0
 26 46  1  0  0  0  0
 26 47  1  0  0  0  0
 27 48  1  0  0  0  0
 27 49  1  0  0  0  0
M  END
> <s_m_source_file>
AV-unprocessed.smi

> <i_m_source_file_index>
202

> <i_lp_mmshare_version>
43012

> <i_f3d_flags>
0

> <s_epik_input>
RkMoRikoRilbQ0gyXUMxKFtDSDNdKVtDSDJdTihbQ0gyXTEpYyhuW2NIXW4yKWMoYzIzKW5bY0hdbjNbQ0gyXUM0KFtPSF0pW0NIMl1bQ0gyXU9bQ0gyXVtDSDJdNA==

> <s_epik_cmdline>
J2VwaWtfcHl0aG9uJywgJy1waCcsICc3LjAnLCAnLXRuJywgJzgnLCAnLW1hJywgJzIwMCcsICctbWV0YWxfYmluZGluZycsICctaW1hZScsICc8aW5maWxlLm1hZT4nLCAnLW9tYWUnLCAnPG91dGZpbGUubWFlPic=

> <r_lp_tautomer_probability>
1

> <r_epik_Ionization_Penalty>
0.00132063

> <r_epik_Ionization_Penalty_Charging>
0

> <r_epik_Ionization_Penalty_Neutral>
0.00132063

> <r_epik_State_Penalty>
0.000845314

> <r_epik_Charging_Adjusted_Penalty>
0.000845314

> <i_epik_Tot_Q>
0

> <i_epik_Tot_abs_Q>
0

> <r_epik_Metal_State_Penalty>
-0

> <b_epik_Metal_Only>
0

> <s_lp_Force_Field>
OPLS_2005

> <r_lp_Energy>
42.0456

> <b_lp_Chiralities_Consistent>
1

> <s_lp_Variant>
AV-unprocessed.smi:202-1

> <Gold.Version>
5.8.1

> <Gold.Id.Protein>
6NUR|6NUR_protein|mol2

> <Gold.PLP.Fitness>
44.2020

> <Gold.PLP.PLP>
-39.7413

> <Gold.PLP.part.hbond>
-1.4982

> <Gold.PLP.part.metal>
0.0000

> <Gold.PLP.part.buried>
-5.5772

> <Gold.PLP.part.nonpolar>
-33.9011

> <Gold.PLP.part.repulsive>
0.2557

> <Gold.PLP.ligand.clash>
0.0000

> <Gold.PLP.ligand.torsion>
1.3557

> <Gold.PLP.Chemscore.Hbond>
1.0000

> <Gold.PLP.Chemscore.CHOScore>
1.0000

> <Gold.PLP.Chemscore.Metal>
0.0000

> <Gold.Chemscore.Hbonds>
donor molecule, donor type, donor heavy atom, donor atom, acceptor molecule, acceptor atom, score
      L1  H    21    39       P1  7948  1.00
      L1  C    12    35       P1  7957  0.98

> <Gold.PLP.Chemscore.Internal.Correction>
1.1721

> <Gold.Rescore>
     Score         DG    S(hbond)    S(metal)    S(lipo)     H(rot)  DE(clash)    DE(int)     intcor
      8.26     -11.27       0.99        0.00      77.80       2.58       0.21       2.80       ----

> <Gold.Chemscore.Fitness>
8.2650

> <Gold.Chemscore.DG>
-11.2739

> <Gold.Chemscore.ZeroCoef>
-5.4800

> <Gold.Chemscore.Hbond>
0.9902

> <Gold.Chemscore.Metal>
0.0000

> <Gold.Chemscore.Lipo>
77.8021

> <Gold.Chemscore.Internal_Hbond>
0.0000

> <Gold.Chemscore.DEClash>
0.2111

> <Gold.Chemscore.DEInternal>
2.7978

> <Gold.Chemscore.Rot>
2.5845

> <Gold.Chemscore.Internal.Correction>
   9.000000E+99

> <Gold.Chemscore.Hbonds>
donor molecule, donor type, donor heavy atom, donor atom, acceptor molecule, acceptor atom, score
      L1  H    21    39       P1  7948  0.98

> <Gold.Chemscore.Hbond.Weighted>
-3.3073

> <Gold.Chemscore.Metal.Weighted>
-0.0000

> <Gold.Chemscore.Lipo.Weighted>
-9.1028

> <Gold.Chemscore.Internal_Hbond.Weighted>
0.0000

> <Gold.Chemscore.DEClash.Weighted>
0.2111

> <Gold.Chemscore.DEInternal.Weighted>
2.7978

> <Gold.Chemscore.Rot.Weighted>
6.6163

> <Gold.Chemscore.Internal.Correction.Weighted>
   9.000000E+99

> <Gold.Protein.RotatedTorsions>
[ 6907 6896 6895 6894 ] final  174.14 input  -60.11 | X-H torsion
[ 7974 7965 7964 7962 ] final  103.90 input  175.53 | X-H torsion
[ 8008 7997 7996 7995 ] final  146.68 input   59.86 | X-H torsion
[ 10167 10162 10161 10158 ] final  -90.43 input  -65.29 | X-H torsion
[ 10718 10713 10712 10709 ] final -144.60 input   66.30 | X-H torsion
[ 10763 10752 10751 10750 ] final -125.29 input  -60.55 | X-H torsion
[ 11005 11000 10999 10996 ] final   53.47 input  -57.11 | X-H torsion

> <Gold.Protein.ActiveResidues>
 VAL166  LYS551  ARG553  GLY616  TRP617  ASP618  TYR619  PRO620  LYS621  CYS622 
 ASP623  PHE694  ASN695  SER759  ASP760  ASP761  ALA762  ILE779  LEU786  VAL792 
 PHE793  MET794  SER795  GLU796  ALA797  LYS798  CYS799  TRP800  GLU811  SER814 

> <Gold.Protein.RotatedAtoms>
  151.7571  133.3331  159.3407 H   0  0  0  0  0  0  0  0  0  0  0  0  # atno 6907 bound_to 6896
  150.7512  134.6140  159.6110 H   0  0  0  0  0  0  0  0  0  0  0  0  # atno 6908 bound_to 6896
  152.3430  134.7111  160.0310 H   0  0  0  0  0  0  0  0  0  0  0  0  # atno 6909 bound_to 6896
  145.3398  139.2465  143.3615 H   0  0  0  0  0  0  0  0  0  0  0  0  # atno 7974 bound_to 7965
  156.2848  140.2176  156.5415 H   0  0  0  0  0  0  0  0  0  0  0  0  # atno 8008 bound_to 7997
  154.7365  140.0491  157.0796 H   0  0  0  0  0  0  0  0  0  0  0  0  # atno 8009 bound_to 7997
  155.0285  140.3132  155.4770 H   0  0  0  0  0  0  0  0  0  0  0  0  # atno 8010 bound_to 7997
  140.3549  143.2872  151.9683 H   0  0  0  0  0  0  0  0  0  0  0  0  # atno 10167 bound_to 10162
  156.3721  130.7793  151.1975 H   0  0  0  0  0  0  0  0  0  0  0  0  # atno 10718 bound_to 10713
  154.8734  135.4034  154.3244 H   0  0  0  0  0  0  0  0  0  0  0  0  # atno 10763 bound_to 10752
  153.4067  135.7019  153.6393 H   0  0  0  0  0  0  0  0  0  0  0  0  # atno 10764 bound_to 10752
  153.5113  135.3707  155.2558 H   0  0  0  0  0  0  0  0  0  0  0  0  # atno 10765 bound_to 10752
  140.0765  134.5398  155.8991 H   0  0  0  0  0  0  0  0  0  0  0  0  # atno 11005 bound_to 11000
  146.3012  140.3993  142.8703 LP  0  0  0  0  0  0  0  0  0  0  0  0  # atno 17320 bound_to 7965
  144.8799  140.7386  143.5993 LP  0  0  0  0  0  0  0  0  0  0  0  0  # atno 17321 bound_to 7965
  139.4821  144.6043  151.7549 LP  0  0  0  0  0  0  0  0  0  0  0  0  # atno 17342 bound_to 10162
  140.5183  144.0918  150.6015 LP  0  0  0  0  0  0  0  0  0  0  0  0  # atno 17343 bound_to 10162
  157.7485  131.0369  150.4432 LP  0  0  0  0  0  0  0  0  0  0  0  0  # atno 17370 bound_to 10713
  156.4660  130.4042  149.6547 LP  0  0  0  0  0  0  0  0  0  0  0  0  # atno 17371 bound_to 10713
  141.2031  133.6630  156.6045 LP  0  0  0  0  0  0  0  0  0  0  0  0  # atno 17394 bound_to 11000
  140.3550  134.7736  157.4494 LP  0  0  0  0  0  0  0  0  0  0  0  0  # atno 17395 bound_to 11000

$$$$
