AV-unprocessed.smi:1867|AV-procd|sdf|7564|dock3
  -GOLD-   22720 9283D 1   1.00000     0.00000
 Structure written by MMmdl.
 52 55  0  0  0  0  0  0  0  0  2 V2000
  147.4273  135.9895  156.0826 O   0  0  0  0  0  0  0  0  0  0  0  0
  147.8781  136.0548  154.9417 C   0  0  0  0  0  0  0  0  0  0  0  0
  148.7451  136.9908  154.5086 N   0  0  0  0  0  0  0  0  0  0  0  0
  149.3529  138.0479  155.2373 C   0  0  0  0  0  0  0  0  0  0  0  0
  149.3999  138.1250  156.6489 C   0  0  0  0  0  0  0  0  0  0  0  0
  150.0500  139.2196  157.2505 C   0  0  0  0  0  0  0  0  0  0  0  0
  150.6470  140.2056  156.4294 C   0  0  0  0  0  0  0  0  0  0  0  0
  151.3014  141.3191  156.9925 N   0  0  0  0  0  0  0  0  0  0  0  0
  151.7875  141.3105  158.3635 C   0  0  0  0  0  0  0  0  0  0  0  0
  152.2928  142.7323  158.6028 C   0  0  0  0  0  0  0  0  0  0  0  0
  151.3597  143.5812  157.7398 C   0  0  0  0  0  0  0  0  0  0  0  0
  151.0264  142.6781  156.5463 C   0  0  0  0  0  0  0  0  0  0  0  0
  150.6066  140.1251  155.0780 N   0  0  0  0  0  0  0  0  0  0  0  0
  149.9833  139.0743  154.5065 C   0  0  0  0  0  0  0  0  0  0  0  0
  147.5077  135.1696  153.9987 N   0  0  0  0  0  0  0  0  0  0  0  0
  146.5883  134.0369  154.1320 C   0  0  2  0  0  0  0  0  0  0  0  0
  147.2670  132.6898  153.9176 C   0  0  0  0  0  0  0  0  0  0  0  0
  146.0919  131.7508  153.6282 C   0  0  0  0  0  0  0  0  0  0  0  0
  145.0106  132.5835  153.0465 N   0  3  2  0  0  0  0  0  0  0  0  0
  144.5349  132.1137  151.7176 C   0  0  0  0  0  0  0  0  0  0  0  0
  143.7213  133.2058  151.0080 C   0  0  0  0  0  0  0  0  0  0  0  0
  144.5738  134.4606  150.7405 C   0  0  0  0  0  0  0  0  0  0  0  0
  145.7702  134.5775  151.7042 C   0  0  0  0  0  0  0  0  0  0  0  0
  145.4370  134.0111  153.1063 C   0  0  2  0  0  0  0  0  0  0  0  0
  148.9584  136.9718  153.5224 H   0  0  0  0  0  0  0  0  0  0  0  0
  148.9647  137.3675  157.2817 H   0  0  0  0  0  0  0  0  0  0  0  0
  150.0785  139.2881  158.3278 H   0  0  0  0  0  0  0  0  0  0  0  0
  150.9648  141.0758  159.0401 H   0  0  0  0  0  0  0  0  0  0  0  0
  152.5767  140.5722  158.5082 H   0  0  0  0  0  0  0  0  0  0  0  0
  152.2788  143.0162  159.6553 H   0  0  0  0  0  0  0  0  0  0  0  0
  153.3172  142.8268  158.2399 H   0  0  0  0  0  0  0  0  0  0  0  0
  150.4483  143.7994  158.2981 H   0  0  0  0  0  0  0  0  0  0  0  0
  151.8042  144.5305  157.4405 H   0  0  0  0  0  0  0  0  0  0  0  0
  151.6702  142.9068  155.6963 H   0  0  0  0  0  0  0  0  0  0  0  0
  149.9888  142.8094  156.2374 H   0  0  0  0  0  0  0  0  0  0  0  0
  149.9854  139.0563  153.4263 H   0  0  0  0  0  0  0  0  0  0  0  0
  147.9039  135.3068  153.0797 H   0  0  0  0  0  0  0  0  0  0  0  0
  146.1674  134.0301  155.1398 H   0  0  0  0  0  0  0  0  0  0  0  0
  147.9278  132.7318  153.0501 H   0  0  0  0  0  0  0  0  0  0  0  0
  147.8595  132.3706  154.7757 H   0  0  0  0  0  0  0  0  0  0  0  0
  146.3899  130.9210  152.9856 H   0  0  0  0  0  0  0  0  0  0  0  0
  145.7189  131.3215  154.5586 H   0  0  0  0  0  0  0  0  0  0  0  0
  145.3835  131.8350  151.0901 H   0  0  0  0  0  0  0  0  0  0  0  0
  143.9345  131.2136  151.8534 H   0  0  0  0  0  0  0  0  0  0  0  0
  143.3092  132.8287  150.0714 H   0  0  0  0  0  0  0  0  0  0  0  0
  142.8663  133.4713  151.6315 H   0  0  0  0  0  0  0  0  0  0  0  0
  144.9456  134.4494  149.7152 H   0  0  0  0  0  0  0  0  0  0  0  0
  143.9399  135.3442  150.8228 H   0  0  0  0  0  0  0  0  0  0  0  0
  146.6219  134.0359  151.2899 H   0  0  0  0  0  0  0  0  0  0  0  0
  146.0757  135.6224  151.7622 H   0  0  0  0  0  0  0  0  0  0  0  0
  144.6020  134.5916  153.5015 H   0  0  0  0  0  0  0  0  0  0  0  0
  144.2251  132.5053  153.6765 H   0  0  0  0  0  0  0  0  0  0  0  0
  1  2  2  0  0  0  0
  2  3  1  0  0  0  0
  2 15  1  0  0  0  0
  3  4  1  0  0  0  0
  3 25  1  0  0  0  0
  4 14  1  0  0  0  0
  4  5  2  0  0  0  0
  5  6  1  0  0  0  0
  5 26  1  0  0  0  0
  6  7  2  0  0  0  0
  6 27  1  0  0  0  0
  7  8  1  0  0  0  0
  7 13  1  0  0  0  0
  8 12  1  0  0  0  0
  8  9  1  0  0  0  0
  9 10  1  0  0  0  0
  9 28  1  0  0  0  0
  9 29  1  0  0  0  0
 10 11  1  0  0  0  0
 10 30  1  0  0  0  0
 10 31  1  0  0  0  0
 11 12  1  0  0  0  0
 11 32  1  0  0  0  0
 11 33  1  0  0  0  0
 12 34  1  0  0  0  0
 12 35  1  0  0  0  0
 13 14  2  0  0  0  0
 14 36  1  0  0  0  0
 15 16  1  0  0  0  0
 15 37  1  0  0  0  0
 16 24  1  0  0  0  0
 16 17  1  0  0  0  0
 16 38  1  0  0  0  0
 17 18  1  0  0  0  0
 17 39  1  0  0  0  0
 17 40  1  0  0  0  0
 18 19  1  0  0  0  0
 18 41  1  0  0  0  0
 18 42  1  0  0  0  0
 19 24  1  0  0  0  0
 19 20  1  0  0  0  0
 19 52  1  0  0  0  0
 20 21  1  0  0  0  0
 20 43  1  0  0  0  0
 20 44  1  0  0  0  0
 21 22  1  0  0  0  0
 21 45  1  0  0  0  0
 21 46  1  0  0  0  0
 22 23  1  0  0  0  0
 22 47  1  0  0  0  0
 22 48  1  0  0  0  0
 23 24  1  0  0  0  0
 23 49  1  0  0  0  0
 23 50  1  0  0  0  0
 24 51  1  0  0  0  0
M  CHG  1  19   1
M  END
> <s_m_source_file>
AV-unprocessed.smi

> <i_m_source_file_index>
1867

> <i_lp_mmshare_version>
43012

> <i_f3d_flags>
0

> <s_epik_input>
W0NIMl0xW0NIMl1bQ0gyXVtDSDJdW0NASF0oTjEyKVtDQEBIXShbQ0gyXVtDSDJdMilbTkhdQyg9TylbTkhdYzNbY0hdW2NIXWMobltjSF0zKU40W0NIMl1bQ0gyXVtDSDJdW0NIMl00

> <s_epik_cmdline>
J2VwaWtfcHl0aG9uJywgJy1waCcsICc3LjAnLCAnLXRuJywgJzgnLCAnLW1hJywgJzIwMCcsICctbWV0YWxfYmluZGluZycsICctaW1hZScsICc8aW5maWxlLm1hZT4nLCAnLW9tYWUnLCAnPG91dGZpbGUubWFlPic=

> <r_lp_tautomer_probability>
1

> <r_epik_Ionization_Penalty>
0.0751123

> <r_epik_Ionization_Penalty_Charging>
0.000974069

> <r_epik_Ionization_Penalty_Neutral>
0.0741382

> <r_epik_State_Penalty>
0.0647261

> <r_epik_Charging_Adjusted_Penalty>
0.0657002

> <i_epik_Tot_Q>
1

> <i_epik_Tot_abs_Q>
1

> <r_epik_Metal_State_Penalty>
0.0580571

> <b_epik_Metal_Only>
0

> <s_lp_Force_Field>
OPLS_2005

> <r_lp_Energy>
76.8202

> <b_lp_Chiralities_Consistent>
1

> <s_lp_Variant>
AV-unprocessed.smi:1867-5

> <Gold.Version>
5.8.1

> <Gold.Id.Protein>
6NUR|6NUR_protein|mol2

> <Gold.PLP.Fitness>
50.2227

> <Gold.PLP.PLP>
-33.8639

> <Gold.PLP.part.hbond>
-3.9061

> <Gold.PLP.part.metal>
0.0000

> <Gold.PLP.part.buried>
-5.1628

> <Gold.PLP.part.nonpolar>
-26.6623

> <Gold.PLP.part.repulsive>
0.0756

> <Gold.PLP.ligand.clash>
0.0000

> <Gold.PLP.ligand.torsion>
0.5952

> <Gold.PLP.Chemscore.Hbond>
4.7875

> <Gold.PLP.Chemscore.CHOScore>
1.0000

> <Gold.PLP.Chemscore.Metal>
0.0000

> <Gold.Chemscore.Hbonds>
donor molecule, donor type, donor heavy atom, donor atom, acceptor molecule, acceptor atom, score
      L1  H     3    25       P1  7948  1.00
      L1  H    15    37       P1  7948  1.00
      L1  H    19    52       P1 10957  1.98
      P1  H  7989  7998       L1    13  1.00
      L1  C    14    36       P1  7957  1.00

> <Gold.PLP.Chemscore.Internal.Correction>
0.1867

> <Gold.Rescore>
     Score         DG    S(hbond)    S(metal)    S(lipo)     H(rot)  DE(clash)    DE(int)     intcor
     21.68     -23.85       3.12        0.00      89.77       1.00       0.39       1.78       ----

> <Gold.Chemscore.Fitness>
21.6779

> <Gold.Chemscore.DG>
-23.8458

> <Gold.Chemscore.ZeroCoef>
-5.4800

> <Gold.Chemscore.Hbond>
3.1205

> <Gold.Chemscore.Metal>
0.0000

> <Gold.Chemscore.Lipo>
89.7725

> <Gold.Chemscore.Internal_Hbond>
0.0000

> <Gold.Chemscore.DEClash>
0.3914

> <Gold.Chemscore.DEInternal>
1.7766

> <Gold.Chemscore.Rot>
1.0000

> <Gold.Chemscore.Internal.Correction>
   9.000000E+99

> <Gold.Chemscore.Hbonds>
donor molecule, donor type, donor heavy atom, donor atom, acceptor molecule, acceptor atom, score
      L1  H     3    25       P1  7948  0.98
      L1  H    15    37       P1  7948  0.98
      L1  H    19    52       P1 10957  0.37
      P1  H  7989  7998       L1    13  0.28

> <Gold.Chemscore.Hbond.Weighted>
-10.4225

> <Gold.Chemscore.Metal.Weighted>
-0.0000

> <Gold.Chemscore.Lipo.Weighted>
-10.5034

> <Gold.Chemscore.Internal_Hbond.Weighted>
0.0000

> <Gold.Chemscore.DEClash.Weighted>
0.3914

> <Gold.Chemscore.DEInternal.Weighted>
1.7766

> <Gold.Chemscore.Rot.Weighted>
2.5600

> <Gold.Chemscore.Internal.Correction.Weighted>
   9.000000E+99

> <Gold.Protein.RotatedTorsions>
[ 6907 6896 6895 6894 ] final  150.52 input  -60.11 | X-H torsion
[ 7974 7965 7964 7962 ] final  -16.62 input  175.53 | X-H torsion
[ 8008 7997 7996 7995 ] final -176.96 input   59.86 | X-H torsion
[ 10167 10162 10161 10158 ] final  -52.65 input  -65.29 | X-H torsion
[ 10718 10713 10712 10709 ] final   92.02 input   66.30 | X-H torsion
[ 10763 10752 10751 10750 ] final   12.12 input  -60.55 | X-H torsion
[ 11005 11000 10999 10996 ] final  160.77 input  -57.11 | X-H torsion

> <Gold.Protein.ActiveResidues>
 VAL166  LYS551  ARG553  GLY616  TRP617  ASP618  TYR619  PRO620  LYS621  CYS622 
 ASP623  PHE694  ASN695  SER759  ASP760  ASP761  ALA762  ILE779  LEU786  VAL792 
 PHE793  MET794  SER795  GLU796  ALA797  LYS798  CYS799  TRP800  GLU811  SER814 

> <Gold.Protein.RotatedAtoms>
  152.1133  133.4313  159.4640 H   0  0  0  0  0  0  0  0  0  0  0  0  # atno 6907 bound_to 6896
  150.6868  134.2622  159.4563 H   0  0  0  0  0  0  0  0  0  0  0  0  # atno 6908 bound_to 6896
  152.0493  134.9663  160.0625 H   0  0  0  0  0  0  0  0  0  0  0  0  # atno 6909 bound_to 6896
  146.1979  140.3663  142.8434 H   0  0  0  0  0  0  0  0  0  0  0  0  # atno 7974 bound_to 7965
  156.0012  140.1221  157.0546 H   0  0  0  0  0  0  0  0  0  0  0  0  # atno 8008 bound_to 7997
  154.4243  140.1106  156.5768 H   0  0  0  0  0  0  0  0  0  0  0  0  # atno 8009 bound_to 7997
  155.6210  140.3472  155.4654 H   0  0  0  0  0  0  0  0  0  0  0  0  # atno 8010 bound_to 7997
  140.6526  143.2576  151.4678 H   0  0  0  0  0  0  0  0  0  0  0  0  # atno 10167 bound_to 10162
  157.6959  131.0428  150.3817 H   0  0  0  0  0  0  0  0  0  0  0  0  # atno 10718 bound_to 10713
  153.1855  135.6834  153.8421 H   0  0  0  0  0  0  0  0  0  0  0  0  # atno 10763 bound_to 10752
  153.7739  135.3192  155.3357 H   0  0  0  0  0  0  0  0  0  0  0  0  # atno 10764 bound_to 10752
  154.8086  135.4732  154.0552 H   0  0  0  0  0  0  0  0  0  0  0  0  # atno 10765 bound_to 10752
  140.2092  134.8280  157.3102 H   0  0  0  0  0  0  0  0  0  0  0  0  # atno 11005 bound_to 11000
  144.8619  140.7151  143.6102 LP  0  0  0  0  0  0  0  0  0  0  0  0  # atno 17320 bound_to 7965
  145.3583  139.1688  143.4397 LP  0  0  0  0  0  0  0  0  0  0  0  0  # atno 17321 bound_to 7965
  139.5743  144.1854  152.1882 LP  0  0  0  0  0  0  0  0  0  0  0  0  # atno 17342 bound_to 10162
  140.1160  144.5415  150.6894 LP  0  0  0  0  0  0  0  0  0  0  0  0  # atno 17343 bound_to 10162
  156.4231  130.3957  149.6812 LP  0  0  0  0  0  0  0  0  0  0  0  0  # atno 17370 bound_to 10713
  156.4056  130.7696  151.2706 LP  0  0  0  0  0  0  0  0  0  0  0  0  # atno 17371 bound_to 10713
  140.1969  134.4302  155.7684 LP  0  0  0  0  0  0  0  0  0  0  0  0  # atno 17394 bound_to 11000
  141.2226  133.7053  156.8120 LP  0  0  0  0  0  0  0  0  0  0  0  0  # atno 17395 bound_to 11000

$$$$
