AV-unprocessed.smi:1715|AV-procd|sdf|6913|dock4
  -GOLD-   22720 8113D 1   1.00000     0.00000
 Structure written by MMmdl.
 41 42  0  0  0  0  0  0  0  0  2 V2000
  150.9827  137.5155  154.7899 C   0  0  0  0  0  0  0  0  0  0  0  0
  150.4682  138.9081  154.4092 C   0  0  1  0  0  0  0  0  0  0  0  0
  148.9912  138.8843  153.9731 C   0  0  0  0  0  0  0  0  0  0  0  0
  148.5103  140.2564  153.6846 N   0  3  1  0  0  0  0  0  0  0  0  0
  147.1069  140.2708  153.2018 C   0  0  0  0  0  0  0  0  0  0  0  0
  146.7787  139.0648  152.2998 C   0  0  0  0  0  0  0  0  0  0  0  0
  145.3864  138.6536  152.4409 N   0  0  0  0  0  0  0  0  0  0  0  0
  144.9824  137.4613  152.9021 C   0  0  0  0  0  0  0  0  0  0  0  0
  145.7584  136.5725  153.2540 O   0  0  0  0  0  0  0  0  0  0  0  0
  143.6424  137.3724  152.9246 N   0  0  0  0  0  0  0  0  0  0  0  0
  142.8609  136.2643  153.3397 C   0  0  0  0  0  0  0  0  0  0  0  0
  141.4691  136.3163  153.6233 C   0  0  0  0  0  0  0  0  0  0  0  0
  141.0046  135.1293  153.9861 N   0  0  0  0  0  0  0  0  0  0  0  0
  142.0864  134.3198  153.9363 N   0  0  0  0  0  0  0  0  0  0  0  0
  143.2385  134.9675  153.5485 C   0  0  0  0  0  0  0  0  0  0  0  0
  148.7458  141.1393  154.8538 C   0  0  0  0  0  0  0  0  0  0  0  0
  150.2290  141.1015  155.2694 C   0  0  1  0  0  0  0  0  0  0  0  0
  150.4998  141.9363  156.5256 C   0  0  0  0  0  0  0  0  0  0  0  0
  150.6020  139.7559  155.5444 O   0  0  0  0  0  0  0  0  0  0  0  0
  142.0227  133.3383  154.1668 H   0  0  0  0  0  0  0  0  0  0  0  0
  150.9126  136.8266  153.9479 H   0  0  0  0  0  0  0  0  0  0  0  0
  150.4096  137.0942  155.6162 H   0  0  0  0  0  0  0  0  0  0  0  0
  152.0277  137.5575  155.0976 H   0  0  0  0  0  0  0  0  0  0  0  0
  151.0861  139.2953  153.5970 H   0  0  0  0  0  0  0  0  0  0  0  0
  148.8817  138.2607  153.0848 H   0  0  0  0  0  0  0  0  0  0  0  0
  148.3729  138.4402  154.7554 H   0  0  0  0  0  0  0  0  0  0  0  0
  146.4348  140.2427  154.0608 H   0  0  0  0  0  0  0  0  0  0  0  0
  146.9092  141.2128  152.6875 H   0  0  0  0  0  0  0  0  0  0  0  0
  146.9783  139.2831  151.2502 H   0  0  0  0  0  0  0  0  0  0  0  0
  147.4109  138.2176  152.5668 H   0  0  0  0  0  0  0  0  0  0  0  0
  144.6812  139.3257  152.1752 H   0  0  0  0  0  0  0  0  0  0  0  0
  143.1251  138.1811  152.6120 H   0  0  0  0  0  0  0  0  0  0  0  0
  140.7941  137.1582  153.5789 H   0  0  0  0  0  0  0  0  0  0  0  0
  144.1864  134.4578  153.4606 H   0  0  0  0  0  0  0  0  0  0  0  0
  148.4663  142.1655  154.6175 H   0  0  0  0  0  0  0  0  0  0  0  0
  148.1136  140.8201  155.6843 H   0  0  0  0  0  0  0  0  0  0  0  0
  150.8485  141.4868  154.4574 H   0  0  0  0  0  0  0  0  0  0  0  0
  150.2432  142.9836  156.3645 H   0  0  0  0  0  0  0  0  0  0  0  0
  151.5531  141.8916  156.8029 H   0  0  0  0  0  0  0  0  0  0  0  0
  149.9170  141.5749  157.3734 H   0  0  0  0  0  0  0  0  0  0  0  0
  149.0824  140.6045  152.9284 H   0  0  0  0  0  0  0  0  0  0  0  0
  1  2  1  0  0  0  0
  1 21  1  0  0  0  0
  1 22  1  0  0  0  0
  1 23  1  0  0  0  0
  2 19  1  0  0  0  0
  2  3  1  0  0  0  0
  2 24  1  0  0  0  0
  3  4  1  0  0  0  0
  3 25  1  0  0  0  0
  3 26  1  0  0  0  0
  4  5  1  0  0  0  0
  4 16  1  0  0  0  0
  4 41  1  0  0  0  0
  5  6  1  0  0  0  0
  5 27  1  0  0  0  0
  5 28  1  0  0  0  0
  6  7  1  0  0  0  0
  6 29  1  0  0  0  0
  6 30  1  0  0  0  0
  7  8  1  0  0  0  0
  7 31  1  0  0  0  0
  8  9  2  0  0  0  0
  8 10  1  0  0  0  0
 10 11  1  0  0  0  0
 10 32  1  0  0  0  0
 11 15  2  0  0  0  0
 11 12  1  0  0  0  0
 12 13  2  0  0  0  0
 12 33  1  0  0  0  0
 13 14  1  0  0  0  0
 14 20  1  0  0  0  0
 14 15  1  0  0  0  0
 15 34  1  0  0  0  0
 16 17  1  0  0  0  0
 16 35  1  0  0  0  0
 16 36  1  0  0  0  0
 17 18  1  0  0  0  0
 17 19  1  0  0  0  0
 17 37  1  0  0  0  0
 18 38  1  0  0  0  0
 18 39  1  0  0  0  0
 18 40  1  0  0  0  0
M  CHG  1   4   1
M  END
> <s_m_source_file>
AV-unprocessed.smi

> <i_m_source_file_index>
1715

> <i_lp_mmshare_version>
43012

> <i_f3d_flags>
0

> <s_epik_input>
W0NIM11bQ0BASF0xW0NIMl1OKFtDSDJdW0NASF0oTzEpW0NIM10pW0NIMl1bQ0gyXVtOSF1DKD1PKVtOSF1jMltjSF1uW25IXVtjSF0y

> <s_epik_cmdline>
J2VwaWtfcHl0aG9uJywgJy1waCcsICc3LjAnLCAnLXRuJywgJzgnLCAnLW1hJywgJzIwMCcsICctbWV0YWxfYmluZGluZycsICctaW1hZScsICc8aW5maWxlLm1hZT4nLCAnLW9tYWUnLCAnPG91dGZpbGUubWFlPic=

> <r_lp_tautomer_probability>
0.5

> <r_epik_Ionization_Penalty>
0.646007

> <r_epik_Ionization_Penalty_Charging>
0.645968

> <r_epik_Ionization_Penalty_Neutral>
3.91671e-05

> <r_epik_State_Penalty>
0.664063

> <r_epik_Charging_Adjusted_Penalty>
1.31003

> <i_epik_Tot_Q>
1

> <i_epik_Tot_abs_Q>
1

> <r_epik_Metal_State_Penalty>
0.664064

> <b_epik_Metal_Only>
0

> <s_lp_Force_Field>
OPLS_2005

> <r_lp_Energy>
16.9027

> <b_lp_Chiralities_Consistent>
1

> <s_lp_Variant>
AV-unprocessed.smi:1715-5

> <Gold.Version>
5.8.1

> <Gold.Id.Protein>
6NUR|6NUR_protein|mol2

> <Gold.PLP.Fitness>
45.9422

> <Gold.PLP.PLP>
-35.6778

> <Gold.PLP.part.hbond>
-5.9872

> <Gold.PLP.part.metal>
0.0000

> <Gold.PLP.part.buried>
-3.8575

> <Gold.PLP.part.nonpolar>
-25.9265

> <Gold.PLP.part.repulsive>
0.5212

> <Gold.PLP.ligand.clash>
0.0000

> <Gold.PLP.ligand.torsion>
0.4587

> <Gold.PLP.Chemscore.Hbond>
3.7192

> <Gold.PLP.Chemscore.CHOScore>
0.0000

> <Gold.PLP.Chemscore.Metal>
0.0000

> <Gold.Chemscore.Hbonds>
donor molecule, donor type, donor heavy atom, donor atom, acceptor molecule, acceptor atom, score
      L1  H     4    41       P1  7957  0.77
      L1  H     7    31       P1 10175  1.00
      L1  H    10    32       P1 10175  0.21
      L1  H    14    20       P1 10957  1.00
      P1  H 11000 11005       L1    13  0.68

> <Gold.PLP.Chemscore.Internal.Correction>
0.0242

> <Gold.Rescore>
     Score         DG    S(hbond)    S(metal)    S(lipo)     H(rot)  DE(clash)    DE(int)     intcor
     18.62     -20.32       3.21        0.00      71.75       1.67       0.21       1.49       ----

> <Gold.Chemscore.Fitness>
18.6170

> <Gold.Chemscore.DG>
-20.3232

> <Gold.Chemscore.ZeroCoef>
-5.4800

> <Gold.Chemscore.Hbond>
3.2085

> <Gold.Chemscore.Metal>
0.0000

> <Gold.Chemscore.Lipo>
71.7477

> <Gold.Chemscore.Internal_Hbond>
0.0000

> <Gold.Chemscore.DEClash>
0.2142

> <Gold.Chemscore.DEInternal>
1.4920

> <Gold.Chemscore.Rot>
1.6671

> <Gold.Chemscore.Internal.Correction>
   9.000000E+99

> <Gold.Chemscore.Hbonds>
donor molecule, donor type, donor heavy atom, donor atom, acceptor molecule, acceptor atom, score
      L1  H     4    41       P1  7957  0.75
      L1  H     7    31       P1 10175  0.92
      L1  H    10    32       P1 10175  0.21
      L1  H    14    20       P1 10957  0.99
      P1  H 11000 11005       L1    13  0.07

> <Gold.Chemscore.Hbond.Weighted>
-10.7164

> <Gold.Chemscore.Metal.Weighted>
-0.0000

> <Gold.Chemscore.Lipo.Weighted>
-8.3945

> <Gold.Chemscore.Internal_Hbond.Weighted>
0.0000

> <Gold.Chemscore.DEClash.Weighted>
0.2142

> <Gold.Chemscore.DEInternal.Weighted>
1.4920

> <Gold.Chemscore.Rot.Weighted>
4.2677

> <Gold.Chemscore.Internal.Correction.Weighted>
   9.000000E+99

> <Gold.Protein.RotatedTorsions>
[ 6907 6896 6895 6894 ] final  140.29 input  -60.11 | X-H torsion
[ 7974 7965 7964 7962 ] final  140.58 input  175.53 | X-H torsion
[ 8008 7997 7996 7995 ] final  -10.31 input   59.86 | X-H torsion
[ 10167 10162 10161 10158 ] final   19.16 input  -65.29 | X-H torsion
[ 10718 10713 10712 10709 ] final  164.70 input   66.30 | X-H torsion
[ 10763 10752 10751 10750 ] final  -45.22 input  -60.55 | X-H torsion
[ 11005 11000 10999 10996 ] final   32.79 input  -57.11 | X-H torsion

> <Gold.Protein.ActiveResidues>
 VAL166  LYS551  ARG553  GLY616  TRP617  ASP618  TYR619  PRO620  LYS621  CYS622 
 ASP623  PHE694  ASN695  SER759  ASP760  ASP761  ALA762  ILE779  LEU786  VAL792 
 PHE793  MET794  SER795  GLU796  ALA797  LYS798  CYS799  TRP800  GLU811  SER814 

> <Gold.Protein.RotatedAtoms>
  152.2447  133.5165  159.5290 H   0  0  0  0  0  0  0  0  0  0  0  0  # atno 6907 bound_to 6896
  150.7075  134.1041  159.3985 H   0  0  0  0  0  0  0  0  0  0  0  0  # atno 6908 bound_to 6896
  151.8961  135.0397  160.0553 H   0  0  0  0  0  0  0  0  0  0  0  0  # atno 6909 bound_to 6896
  144.9174  139.5212  143.5679 H   0  0  0  0  0  0  0  0  0  0  0  0  # atno 7974 bound_to 7965
  154.5566  140.2332  155.8400 H   0  0  0  0  0  0  0  0  0  0  0  0  # atno 8008 bound_to 7997
  156.1994  140.3056  155.9454 H   0  0  0  0  0  0  0  0  0  0  0  0  # atno 8009 bound_to 7997
  155.2968  140.0429  157.3017 H   0  0  0  0  0  0  0  0  0  0  0  0  # atno 8010 bound_to 7997
  140.5600  143.9355  150.6636 H   0  0  0  0  0  0  0  0  0  0  0  0  # atno 10167 bound_to 10162
  157.0906  131.0416  151.2539 H   0  0  0  0  0  0  0  0  0  0  0  0  # atno 10718 bound_to 10713
  154.0249  135.6664  153.4775 H   0  0  0  0  0  0  0  0  0  0  0  0  # atno 10763 bound_to 10752
  153.0564  135.5053  154.7988 H   0  0  0  0  0  0  0  0  0  0  0  0  # atno 10764 bound_to 10752
  154.6914  135.3062  154.9438 H   0  0  0  0  0  0  0  0  0  0  0  0  # atno 10765 bound_to 10752
  140.2698  134.3095  155.7831 H   0  0  0  0  0  0  0  0  0  0  0  0  # atno 11005 bound_to 11000
  146.3188  139.8027  142.8962 LP  0  0  0  0  0  0  0  0  0  0  0  0  # atno 17320 bound_to 7965
  145.3353  141.0275  143.3423 LP  0  0  0  0  0  0  0  0  0  0  0  0  # atno 17321 bound_to 7965
  140.2803  143.3394  152.1157 LP  0  0  0  0  0  0  0  0  0  0  0  0  # atno 17342 bound_to 10162
  139.5066  144.6816  151.5994 LP  0  0  0  0  0  0  0  0  0  0  0  0  # atno 17343 bound_to 10162
  157.4724  130.7717  149.7336 LP  0  0  0  0  0  0  0  0  0  0  0  0  # atno 17370 bound_to 10713
  155.9899  130.3948  150.3052 LP  0  0  0  0  0  0  0  0  0  0  0  0  # atno 17371 bound_to 10713
  141.2179  133.7460  156.9317 LP  0  0  0  0  0  0  0  0  0  0  0  0  # atno 17394 bound_to 11000
  140.1384  134.9310  157.2433 LP  0  0  0  0  0  0  0  0  0  0  0  0  # atno 17395 bound_to 11000

$$$$
