AV-unprocessed.smi:498|AV-procd|sdf|2729|dock9
  -GOLD-   2262023183D 1   1.00000     0.00000
 Structure written by MMmdl.
 43 45  0  0  0  0  0  0  0  0  2 V2000
  151.8217  138.1844  154.4946 C   0  0  0  0  0  0  0  0  0  0  0  0
  152.3747  137.7994  155.8681 C   0  0  0  0  0  0  0  0  0  0  0  0
  152.8649  138.9653  156.5084 O   0  0  0  0  0  0  0  0  0  0  0  0
  152.3237  139.1467  157.8048 C   0  0  0  0  0  0  0  0  0  0  0  0
  150.8741  139.6338  157.6713 C   0  0  0  0  0  0  0  0  0  0  0  0
  150.8013  141.0916  157.5111 N   0  0  0  0  0  0  0  0  0  0  0  0
  150.1531  141.8502  156.5780 C   0  0  0  0  0  0  0  0  0  0  0  0
  149.3152  141.3654  155.4364 C   0  0  0  0  0  0  0  0  0  0  0  0
  148.1159  142.1762  155.2563 N   0  0  0  0  0  0  0  0  0  0  0  0
  147.0720  141.8650  154.4711 C   0  0  0  0  0  0  0  0  0  0  0  0
  146.9631  140.7941  153.8752 O   0  0  0  0  0  0  0  0  0  0  0  0
  146.0587  142.9235  154.3060 C   0  0  0  0  0  0  0  0  0  0  0  0
  145.7525  143.7275  153.2395 C   0  0  0  0  0  0  0  0  0  0  0  0
  144.6738  144.5575  153.6524 C   0  0  0  0  0  0  0  0  0  0  0  0
  144.4022  144.2062  154.9432 C   0  0  0  0  0  0  0  0  0  0  0  0
  145.2384  143.2158  155.3567 O   0  0  0  0  0  0  0  0  0  0  0  0
  150.4158  143.1554  156.8716 N   0  3  0  0  0  0  0  0  0  0  0  0
  151.2410  143.2325  157.9947 C   0  0  0  0  0  0  0  0  0  0  0  0
  151.7741  144.3314  158.6614 C   0  0  0  0  0  0  0  0  0  0  0  0
  152.5890  144.0588  159.7800 C   0  0  0  0  0  0  0  0  0  0  0  0
  152.8462  142.7364  160.1965 C   0  0  0  0  0  0  0  0  0  0  0  0
  152.2996  141.6301  159.5130 C   0  0  0  0  0  0  0  0  0  0  0  0
  151.4943  141.9092  158.4094 C   0  0  0  0  0  0  0  0  0  0  0  0
  151.4400  137.3090  153.9692 H   0  0  0  0  0  0  0  0  0  0  0  0
  152.5973  138.6344  153.8740 H   0  0  0  0  0  0  0  0  0  0  0  0
  151.0065  138.9021  154.5874 H   0  0  0  0  0  0  0  0  0  0  0  0
  151.5932  137.3388  156.4742 H   0  0  0  0  0  0  0  0  0  0  0  0
  153.1746  137.0674  155.7484 H   0  0  0  0  0  0  0  0  0  0  0  0
  152.3657  138.2155  158.3714 H   0  0  0  0  0  0  0  0  0  0  0  0
  152.9176  139.8834  158.3476 H   0  0  0  0  0  0  0  0  0  0  0  0
  150.4043  139.1875  156.7951 H   0  0  0  0  0  0  0  0  0  0  0  0
  150.2705  139.3307  158.5273 H   0  0  0  0  0  0  0  0  0  0  0  0
  149.9313  141.3376  154.5364 H   0  0  0  0  0  0  0  0  0  0  0  0
  149.0059  140.3379  155.6298 H   0  0  0  0  0  0  0  0  0  0  0  0
  148.1098  143.0811  155.7037 H   0  0  0  0  0  0  0  0  0  0  0  0
  146.2400  143.7179  152.2757 H   0  0  0  0  0  0  0  0  0  0  0  0
  144.1621  145.3155  153.0782 H   0  0  0  0  0  0  0  0  0  0  0  0
  143.6844  144.5408  155.6777 H   0  0  0  0  0  0  0  0  0  0  0  0
  151.5795  145.3456  158.3440 H   0  0  0  0  0  0  0  0  0  0  0  0
  153.0265  144.8805  160.3288 H   0  0  0  0  0  0  0  0  0  0  0  0
  153.4761  142.5660  161.0578 H   0  0  0  0  0  0  0  0  0  0  0  0
  152.5036  140.6206  159.8383 H   0  0  0  0  0  0  0  0  0  0  0  0
  150.0572  143.9364  156.3375 H   0  0  0  0  0  0  0  0  0  0  0  0
  1  2  1  0  0  0  0
  1 24  1  0  0  0  0
  1 25  1  0  0  0  0
  1 26  1  0  0  0  0
  2  3  1  0  0  0  0
  2 27  1  0  0  0  0
  2 28  1  0  0  0  0
  3  4  1  0  0  0  0
  4  5  1  0  0  0  0
  4 29  1  0  0  0  0
  4 30  1  0  0  0  0
  5  6  1  0  0  0  0
  5 31  1  0  0  0  0
  5 32  1  0  0  0  0
  6 23  1  0  0  0  0
  6  7  1  0  0  0  0
  7  8  1  0  0  0  0
  7 17  2  0  0  0  0
  8  9  1  0  0  0  0
  8 33  1  0  0  0  0
  8 34  1  0  0  0  0
  9 10  1  0  0  0  0
  9 35  1  0  0  0  0
 10 11  2  0  0  0  0
 10 12  1  0  0  0  0
 12 16  1  0  0  0  0
 12 13  2  0  0  0  0
 13 14  1  0  0  0  0
 13 36  1  0  0  0  0
 14 15  2  0  0  0  0
 14 37  1  0  0  0  0
 15 16  1  0  0  0  0
 15 38  1  0  0  0  0
 17 18  1  0  0  0  0
 17 43  1  0  0  0  0
 18 23  2  0  0  0  0
 18 19  1  0  0  0  0
 19 20  2  0  0  0  0
 19 39  1  0  0  0  0
 20 21  1  0  0  0  0
 20 40  1  0  0  0  0
 21 22  2  0  0  0  0
 21 41  1  0  0  0  0
 22 23  1  0  0  0  0
 22 42  1  0  0  0  0
M  CHG  1  17   1
M  END
> <s_m_source_file>
AV-unprocessed.smi

> <i_m_source_file_index>
498

> <i_lp_mmshare_version>
43012

> <i_f3d_flags>
0

> <s_epik_input>
W0NIM11bQ0gyXU9bQ0gyXVtDSDJdbihjKGMxMilbY0hdW2NIXVtjSF1bY0hdMiljKG4xKVtDSDJdW05IXUMoPU8pYzNbY0hdW2NIXVtjSF1vMw==

> <s_epik_cmdline>
J2VwaWtfcHl0aG9uJywgJy1waCcsICc3LjAnLCAnLXRuJywgJzgnLCAnLW1hJywgJzIwMCcsICctbWV0YWxfYmluZGluZycsICctaW1hZScsICc8aW5maWxlLm1hZT4nLCAnLW9tYWUnLCAnPG91dGZpbGUubWFlPic=

> <r_epik_Ionization_Penalty>
1.29911

> <r_epik_Ionization_Penalty_Charging>
1.29908

> <r_epik_Ionization_Penalty_Neutral>
2.77772e-05

> <r_epik_State_Penalty>
1.37286

> <r_epik_Charging_Adjusted_Penalty>
2.67194

> <i_epik_Tot_Q>
1

> <i_epik_Tot_abs_Q>
1

> <r_epik_Metal_State_Penalty>
1.47523

> <b_epik_Metal_Only>
0

> <s_lp_Force_Field>
OPLS_2005

> <r_lp_Energy>
10.1123

> <b_lp_Chiralities_Consistent>
1

> <s_lp_Variant>
AV-unprocessed.smi:498-2

> <Gold.Version>
5.8.1

> <Gold.Id.Protein>
6NUR|6NUR_protein|mol2

> <Gold.PLP.Fitness>
57.7799

> <Gold.PLP.PLP>
-50.7367

> <Gold.PLP.part.hbond>
-2.8036

> <Gold.PLP.part.metal>
0.0000

> <Gold.PLP.part.buried>
-8.3036

> <Gold.PLP.part.nonpolar>
-41.6691

> <Gold.PLP.part.repulsive>
0.4958

> <Gold.PLP.ligand.clash>
0.0000

> <Gold.PLP.ligand.torsion>
2.2992

> <Gold.PLP.Chemscore.Hbond>
3.8480

> <Gold.PLP.Chemscore.CHOScore>
0.0000

> <Gold.PLP.Chemscore.Metal>
0.0000

> <Gold.Chemscore.Hbonds>
donor molecule, donor type, donor heavy atom, donor atom, acceptor molecule, acceptor atom, score
      L1  H     9    35       P1  8028  0.86
      L1  H    17    43       P1  8028  2.00
      P1  H  7997  8010       L1     3  1.00

> <Gold.PLP.Chemscore.Internal.Correction>
0.0976

> <Gold.Rescore>
     Score         DG    S(hbond)    S(metal)    S(lipo)     H(rot)  DE(clash)    DE(int)     intcor
     20.47     -24.02       2.72        0.00     125.50       2.04       0.16       3.39       ----

> <Gold.Chemscore.Fitness>
20.4712

> <Gold.Chemscore.DG>
-24.0214

> <Gold.Chemscore.ZeroCoef>
-5.4800

> <Gold.Chemscore.Hbond>
2.7211

> <Gold.Chemscore.Metal>
0.0000

> <Gold.Chemscore.Lipo>
125.5018

> <Gold.Chemscore.Internal_Hbond>
0.0000

> <Gold.Chemscore.DEClash>
0.1563

> <Gold.Chemscore.DEInternal>
3.3939

> <Gold.Chemscore.Rot>
2.0432

> <Gold.Chemscore.Internal.Correction>
   9.000000E+99

> <Gold.Chemscore.Hbonds>
donor molecule, donor type, donor heavy atom, donor atom, acceptor molecule, acceptor atom, score
      L1  H     9    35       P1  8028  0.70
      L1  H    17    43       P1  8028  0.92
      P1  H  7997  8010       L1     3  0.76

> <Gold.Chemscore.Hbond.Weighted>
-9.0883

> <Gold.Chemscore.Metal.Weighted>
-0.0000

> <Gold.Chemscore.Lipo.Weighted>
-14.6837

> <Gold.Chemscore.Internal_Hbond.Weighted>
0.0000

> <Gold.Chemscore.DEClash.Weighted>
0.1563

> <Gold.Chemscore.DEInternal.Weighted>
3.3939

> <Gold.Chemscore.Rot.Weighted>
5.2306

> <Gold.Chemscore.Internal.Correction.Weighted>
   9.000000E+99

> <Gold.Protein.RotatedTorsions>
[ 6907 6896 6895 6894 ] final -104.58 input  -60.11 | X-H torsion
[ 7974 7965 7964 7962 ] final  169.94 input  175.53 | X-H torsion
[ 8008 7997 7996 7995 ] final   86.34 input   59.86 | X-H torsion
[ 10167 10162 10161 10158 ] final -102.96 input  -65.29 | X-H torsion
[ 10718 10713 10712 10709 ] final  159.54 input   66.30 | X-H torsion
[ 10763 10752 10751 10750 ] final   22.76 input  -60.55 | X-H torsion
[ 11005 11000 10999 10996 ] final -169.03 input  -57.11 | X-H torsion

> <Gold.Protein.ActiveResidues>
 VAL166  LYS551  ARG553  GLY616  TRP617  ASP618  TYR619  PRO620  LYS621  CYS622 
 ASP623  PHE694  ASN695  SER759  ASP760  ASP761  ALA762  ILE779  LEU786  VAL792 
 PHE793  MET794  SER795  GLU796  ALA797  LYS798  CYS799  TRP800  GLU811  SER814 

> <Gold.Protein.RotatedAtoms>
  150.7294  134.0256  159.3715 H   0  0  0  0  0  0  0  0  0  0  0  0  # atno 6907 bound_to 6896
  151.8223  135.0645  160.0436 H   0  0  0  0  0  0  0  0  0  0  0  0  # atno 6908 bound_to 6896
  152.2994  133.5604  159.5645 H   0  0  0  0  0  0  0  0  0  0  0  0  # atno 6909 bound_to 6896
  144.7339  139.9129  143.6416 H   0  0  0  0  0  0  0  0  0  0  0  0  # atno 7974 bound_to 7965
  155.9615  140.3393  155.6495 H   0  0  0  0  0  0  0  0  0  0  0  0  # atno 8008 bound_to 7997
  155.6792  140.0736  157.2509 H   0  0  0  0  0  0  0  0  0  0  0  0  # atno 8009 bound_to 7997
  154.4144  140.1677  156.1951 H   0  0  0  0  0  0  0  0  0  0  0  0  # atno 8010 bound_to 7997
  140.2251  143.3647  152.0936 H   0  0  0  0  0  0  0  0  0  0  0  0  # atno 10167 bound_to 10162
  157.1628  131.0591  151.2223 H   0  0  0  0  0  0  0  0  0  0  0  0  # atno 10718 bound_to 10713
  153.0890  135.6641  153.9891 H   0  0  0  0  0  0  0  0  0  0  0  0  # atno 10763 bound_to 10752
  153.9493  135.2985  155.3440 H   0  0  0  0  0  0  0  0  0  0  0  0  # atno 10764 bound_to 10752
  154.7302  135.5126  153.9025 H   0  0  0  0  0  0  0  0  0  0  0  0  # atno 10765 bound_to 10752
  140.5353  134.5576  157.5085 H   0  0  0  0  0  0  0  0  0  0  0  0  # atno 11005 bound_to 11000
  146.0987  139.3981  143.0360 LP  0  0  0  0  0  0  0  0  0  0  0  0  # atno 17320 bound_to 7965
  145.7609  140.9936  143.1200 LP  0  0  0  0  0  0  0  0  0  0  0  0  # atno 17321 bound_to 7965
  139.5130  144.6925  151.5719 LP  0  0  0  0  0  0  0  0  0  0  0  0  # atno 17342 bound_to 10162
  140.6226  143.9229  150.6539 LP  0  0  0  0  0  0  0  0  0  0  0  0  # atno 17343 bound_to 10162
  157.4117  130.7388  149.6844 LP  0  0  0  0  0  0  0  0  0  0  0  0  # atno 17370 bound_to 10713
  155.9751  130.4094  150.3874 LP  0  0  0  0  0  0  0  0  0  0  0  0  # atno 17371 bound_to 10713
  139.9532  134.7580  156.0400 LP  0  0  0  0  0  0  0  0  0  0  0  0  # atno 17394 bound_to 11000
  141.1258  133.6599  156.3333 LP  0  0  0  0  0  0  0  0  0  0  0  0  # atno 17395 bound_to 11000

$$$$
