AV-unprocessed.smi:604|AV-procd|sdf|3037|dock2
  -GOLD-   2262023553D 1   1.00000     0.00000
 Structure written by MMmdl.
 49 51  0  0  0  0  0  0  0  0  2 V2000
  149.7588  134.6299  155.7364 O   0  0  0  0  0  0  0  0  0  0  0  0
  149.4554  135.0755  154.6301 C   0  0  0  0  0  0  0  0  0  0  0  0
  149.7769  136.2957  154.1672 N   0  0  0  0  0  0  0  0  0  0  0  0
  150.5184  137.3189  154.8175 C   0  0  0  0  0  0  0  0  0  0  0  0
  151.0698  137.0330  156.0834 C   0  0  0  0  0  0  0  0  0  0  0  0
  151.7961  138.0325  156.7578 C   0  0  0  0  0  0  0  0  0  0  0  0
  151.9354  139.2903  156.1402 C   0  0  0  0  0  0  0  0  0  0  0  0
  151.4005  139.5872  154.9371 N   0  0  0  0  0  0  0  0  0  0  0  0
  150.7063  138.6228  154.2949 C   0  0  0  0  0  0  0  0  0  0  0  0
  148.7311  134.3909  153.7330 N   0  0  0  0  0  0  0  0  0  0  0  0
  148.1874  133.0516  153.9397 C   0  0  2  0  0  0  0  0  0  0  0  0
  149.3104  131.9997  153.9961 C   0  0  0  0  0  0  0  0  0  0  0  0
  148.7351  130.5778  154.1149 C   0  0  0  0  0  0  0  0  0  0  0  0
  147.7929  130.2833  153.0040 N   0  3  1  0  0  0  0  0  0  0  0  0
  147.3218  128.8740  153.0025 C   0  0  0  0  0  0  0  0  0  0  0  0
  148.2971  127.9425  152.2579 C   0  0  0  0  0  0  0  0  0  0  0  0
  148.0092  127.7541  150.7652 C   0  0  0  0  0  0  0  0  0  0  0  0
  148.7403  126.4649  150.3776 C   0  0  0  0  0  0  0  0  0  0  0  0
  148.8992  125.6563  151.6734 C   0  0  0  0  0  0  0  0  0  0  0  0
  148.2800  126.5061  152.7883 C   0  0  0  0  0  0  0  0  0  0  0  0
  146.6799  131.2676  152.9573 C   0  0  0  0  0  0  0  0  0  0  0  0
  147.2137  132.7012  152.8035 C   0  0  0  0  0  0  0  0  0  0  0  0
  149.3875  136.5484  153.2709 H   0  0  0  0  0  0  0  0  0  0  0  0
  150.9442  136.0583  156.5326 H   0  0  0  0  0  0  0  0  0  0  0  0
  152.2351  137.8402  157.7255 H   0  0  0  0  0  0  0  0  0  0  0  0
  152.4861  140.0809  156.6283 H   0  0  0  0  0  0  0  0  0  0  0  0
  150.2815  138.9272  153.3512 H   0  0  0  0  0  0  0  0  0  0  0  0
  148.5266  134.8356  152.8500 H   0  0  0  0  0  0  0  0  0  0  0  0
  147.6345  133.0339  154.8813 H   0  0  0  0  0  0  0  0  0  0  0  0
  149.9277  132.0667  153.0988 H   0  0  0  0  0  0  0  0  0  0  0  0
  149.9716  132.1968  154.8407 H   0  0  0  0  0  0  0  0  0  0  0  0
  149.5564  129.8601  154.0999 H   0  0  0  0  0  0  0  0  0  0  0  0
  148.2225  130.4563  155.0707 H   0  0  0  0  0  0  0  0  0  0  0  0
  147.2428  128.5150  154.0298 H   0  0  0  0  0  0  0  0  0  0  0  0
  146.3142  128.8012  152.5896 H   0  0  0  0  0  0  0  0  0  0  0  0
  149.3125  128.3272  152.3693 H   0  0  0  0  0  0  0  0  0  0  0  0
  146.9379  127.6216  150.6062 H   0  0  0  0  0  0  0  0  0  0  0  0
  148.3324  128.6045  150.1641 H   0  0  0  0  0  0  0  0  0  0  0  0
  148.1945  125.9110  149.6132 H   0  0  0  0  0  0  0  0  0  0  0  0
  149.7240  126.7002  149.9694 H   0  0  0  0  0  0  0  0  0  0  0  0
  148.4186  124.6798  151.6059 H   0  0  0  0  0  0  0  0  0  0  0  0
  149.9576  125.4848  151.8737 H   0  0  0  0  0  0  0  0  0  0  0  0
  148.8150  126.4028  153.7329 H   0  0  0  0  0  0  0  0  0  0  0  0
  147.2509  126.1847  152.9574 H   0  0  0  0  0  0  0  0  0  0  0  0
  146.0128  131.0425  152.1260 H   0  0  0  0  0  0  0  0  0  0  0  0
  146.0834  131.1876  153.8677 H   0  0  0  0  0  0  0  0  0  0  0  0
  146.3803  133.4046  152.7946 H   0  0  0  0  0  0  0  0  0  0  0  0
  147.7136  132.8003  151.8385 H   0  0  0  0  0  0  0  0  0  0  0  0
  148.3242  130.4005  152.1529 H   0  0  0  0  0  0  0  0  0  0  0  0
  1  2  2  0  0  0  0
  2  3  1  0  0  0  0
  2 10  1  0  0  0  0
  3  4  1  0  0  0  0
  3 23  1  0  0  0  0
  4  9  1  0  0  0  0
  4  5  2  0  0  0  0
  5  6  1  0  0  0  0
  5 24  1  0  0  0  0
  6  7  2  0  0  0  0
  6 25  1  0  0  0  0
  7  8  1  0  0  0  0
  7 26  1  0  0  0  0
  8  9  2  0  0  0  0
  9 27  1  0  0  0  0
 10 11  1  0  0  0  0
 10 28  1  0  0  0  0
 11 22  1  0  0  0  0
 11 12  1  0  0  0  0
 11 29  1  0  0  0  0
 12 13  1  0  0  0  0
 12 30  1  0  0  0  0
 12 31  1  0  0  0  0
 13 14  1  0  0  0  0
 13 32  1  0  0  0  0
 13 33  1  0  0  0  0
 14 15  1  0  0  0  0
 14 21  1  0  0  0  0
 14 49  1  0  0  0  0
 15 16  1  0  0  0  0
 15 34  1  0  0  0  0
 15 35  1  0  0  0  0
 16 20  1  0  0  0  0
 16 17  1  0  0  0  0
 16 36  1  0  0  0  0
 17 18  1  0  0  0  0
 17 37  1  0  0  0  0
 17 38  1  0  0  0  0
 18 19  1  0  0  0  0
 18 39  1  0  0  0  0
 18 40  1  0  0  0  0
 19 20  1  0  0  0  0
 19 41  1  0  0  0  0
 19 42  1  0  0  0  0
 20 43  1  0  0  0  0
 20 44  1  0  0  0  0
 21 22  1  0  0  0  0
 21 45  1  0  0  0  0
 21 46  1  0  0  0  0
 22 47  1  0  0  0  0
 22 48  1  0  0  0  0
M  CHG  1  14   1
M  END
> <s_m_source_file>
AV-unprocessed.smi

> <i_m_source_file_index>
604

> <i_lp_mmshare_version>
43012

> <i_f3d_flags>
0

> <s_epik_input>
W2NIXTFuW2NIXVtjSF1bY0hdYzFbTkhdQyg9TylbTkhdW0NIXTJbQ0gyXVtDSDJdTihbQ0gyXVtDSDJdMilbQ0gyXVtDSF0zW0NIMl1bQ0gyXVtDSDJdW0NIMl0z

> <s_epik_cmdline>
J2VwaWtfcHl0aG9uJywgJy1waCcsICc3LjAnLCAnLXRuJywgJzgnLCAnLW1hJywgJzIwMCcsICctbWV0YWxfYmluZGluZycsICctaW1hZScsICc8aW5maWxlLm1hZT4nLCAnLW9tYWUnLCAnPG91dGZpbGUubWFlPic=

> <r_lp_tautomer_probability>
1

> <r_epik_Ionization_Penalty>
0.00608112

> <r_epik_Ionization_Penalty_Charging>
0.00207989

> <r_epik_Ionization_Penalty_Neutral>
0.00400122

> <r_epik_State_Penalty>
-0

> <r_epik_Charging_Adjusted_Penalty>
0.00207989

> <i_epik_Tot_Q>
1

> <i_epik_Tot_abs_Q>
1

> <r_epik_Metal_State_Penalty>
-0

> <b_epik_Metal_Only>
0

> <s_lp_Force_Field>
OPLS_2005

> <r_lp_Energy>
41.6956

> <b_lp_Chiralities_Consistent>
1

> <s_lp_Variant>
AV-unprocessed.smi:604-1

> <Gold.Version>
5.8.1

> <Gold.Id.Protein>
6NUR|6NUR_protein|mol2

> <Gold.PLP.Fitness>
53.0360

> <Gold.PLP.PLP>
-40.1024

> <Gold.PLP.part.hbond>
-4.7739

> <Gold.PLP.part.metal>
0.0000

> <Gold.PLP.part.buried>
-2.6270

> <Gold.PLP.part.nonpolar>
-32.8540

> <Gold.PLP.part.repulsive>
0.1554

> <Gold.PLP.ligand.clash>
0.0000

> <Gold.PLP.ligand.torsion>
0.8336

> <Gold.PLP.Chemscore.Hbond>
3.8640

> <Gold.PLP.Chemscore.CHOScore>
0.9857

> <Gold.PLP.Chemscore.Metal>
0.0000

> <Gold.Chemscore.Hbonds>
donor molecule, donor type, donor heavy atom, donor atom, acceptor molecule, acceptor atom, score
      L1  H     3    23       P1  7948  0.88
      L1  H    10    28       P1  7948  0.85
      L1  H    14    49       P1 10747  1.00
      P1  H  7989  7998       L1     8  1.00
      L1  C     9    27       P1  7957  0.99

> <Gold.PLP.Chemscore.Internal.Correction>
0.0517

> <Gold.Rescore>
     Score         DG    S(hbond)    S(metal)    S(lipo)     H(rot)  DE(clash)    DE(int)     intcor
     19.86     -22.14       2.53        0.00      99.76       1.35       0.01       2.27       ----

> <Gold.Chemscore.Fitness>
19.8607

> <Gold.Chemscore.DG>
-22.1449

> <Gold.Chemscore.ZeroCoef>
-5.4800

> <Gold.Chemscore.Hbond>
2.5261

> <Gold.Chemscore.Metal>
0.0000

> <Gold.Chemscore.Lipo>
99.7619

> <Gold.Chemscore.Internal_Hbond>
0.0000

> <Gold.Chemscore.DEClash>
0.0147

> <Gold.Chemscore.DEInternal>
2.2695

> <Gold.Chemscore.Rot>
1.3455

> <Gold.Chemscore.Internal.Correction>
   9.000000E+99

> <Gold.Chemscore.Hbonds>
donor molecule, donor type, donor heavy atom, donor atom, acceptor molecule, acceptor atom, score
      L1  H     3    23       P1  7948  0.68
      L1  H    10    28       P1  7948  0.34
      L1  H    14    49       P1 10747  0.86
      P1  H  7989  7998       L1     8  0.30

> <Gold.Chemscore.Hbond.Weighted>
-8.4372

> <Gold.Chemscore.Metal.Weighted>
-0.0000

> <Gold.Chemscore.Lipo.Weighted>
-11.6721

> <Gold.Chemscore.Internal_Hbond.Weighted>
0.0000

> <Gold.Chemscore.DEClash.Weighted>
0.0147

> <Gold.Chemscore.DEInternal.Weighted>
2.2695

> <Gold.Chemscore.Rot.Weighted>
3.4445

> <Gold.Chemscore.Internal.Correction.Weighted>
   9.000000E+99

> <Gold.Protein.RotatedTorsions>
[ 6907 6896 6895 6894 ] final -100.27 input  -60.11 | X-H torsion
[ 7974 7965 7964 7962 ] final  -95.63 input  175.53 | X-H torsion
[ 8008 7997 7996 7995 ] final  -74.25 input   59.86 | X-H torsion
[ 10167 10162 10161 10158 ] final   30.79 input  -65.29 | X-H torsion
[ 10718 10713 10712 10709 ] final  167.54 input   66.30 | X-H torsion
[ 10763 10752 10751 10750 ] final   98.89 input  -60.55 | X-H torsion
[ 11005 11000 10999 10996 ] final -179.37 input  -57.11 | X-H torsion

> <Gold.Protein.ActiveResidues>
 VAL166  LYS551  ARG553  GLY616  TRP617  ASP618  TYR619  PRO620  LYS621  CYS622 
 ASP623  PHE694  ASN695  SER759  ASP760  ASP761  ALA762  ILE779  LEU786  VAL792 
 PHE793  MET794  SER795  GLU796  ALA797  LYS798  CYS799  TRP800  GLU811  SER814 

> <Gold.Protein.RotatedAtoms>
  150.7110  134.0912  159.3932 H   0  0  0  0  0  0  0  0  0  0  0  0  # atno 6907 bound_to 6896
  151.8898  135.0419  160.0506 H   0  0  0  0  0  0  0  0  0  0  0  0  # atno 6908 bound_to 6896
  152.2501  133.5172  159.5357 H   0  0  0  0  0  0  0  0  0  0  0  0  # atno 6909 bound_to 6896
  145.3576  140.9486  143.2519 H   0  0  0  0  0  0  0  0  0  0  0  0  # atno 7974 bound_to 7965
  154.5315  140.0765  156.8353 H   0  0  0  0  0  0  0  0  0  0  0  0  # atno 8008 bound_to 7997
  155.3365  140.3405  155.4221 H   0  0  0  0  0  0  0  0  0  0  0  0  # atno 8009 bound_to 7997
  156.1786  140.1644  156.8304 H   0  0  0  0  0  0  0  0  0  0  0  0  # atno 8010 bound_to 7997
  140.4646  144.0855  150.6221 H   0  0  0  0  0  0  0  0  0  0  0  0  # atno 10167 bound_to 10162
  157.0500  131.0311  151.2684 H   0  0  0  0  0  0  0  0  0  0  0  0  # atno 10718 bound_to 10713
  153.2947  135.4132  155.1198 H   0  0  0  0  0  0  0  0  0  0  0  0  # atno 10763 bound_to 10752
  154.8531  135.3527  154.5934 H   0  0  0  0  0  0  0  0  0  0  0  0  # atno 10764 bound_to 10752
  153.6357  135.7059  153.5317 H   0  0  0  0  0  0  0  0  0  0  0  0  # atno 10765 bound_to 10752
  140.4194  134.6619  157.4656 H   0  0  0  0  0  0  0  0  0  0  0  0  # atno 11005 bound_to 11000
  144.8671  139.5092  143.6785 LP  0  0  0  0  0  0  0  0  0  0  0  0  # atno 17320 bound_to 7965
  146.2941  139.7226  142.9139 LP  0  0  0  0  0  0  0  0  0  0  0  0  # atno 17321 bound_to 7965
  140.4052  143.2684  151.9900 LP  0  0  0  0  0  0  0  0  0  0  0  0  # atno 17342 bound_to 10162
  139.4810  144.5964  151.7683 LP  0  0  0  0  0  0  0  0  0  0  0  0  # atno 17343 bound_to 10162
  157.5037  130.7896  149.7632 LP  0  0  0  0  0  0  0  0  0  0  0  0  # atno 17370 bound_to 10713
  156.0010  130.3880  150.2604 LP  0  0  0  0  0  0  0  0  0  0  0  0  # atno 17371 bound_to 10713
  140.0211  134.6546  155.9239 LP  0  0  0  0  0  0  0  0  0  0  0  0  # atno 17394 bound_to 11000
  141.1790  133.6544  156.4942 LP  0  0  0  0  0  0  0  0  0  0  0  0  # atno 17395 bound_to 11000

$$$$
