AV-unprocessed.smi:2336|AV-procd|sdf|9332|dock8
  -GOLD-   2272012553D 1   1.00000     0.00000
 Structure written by MMmdl.
 49 50  0  0  0  0  0  0  0  0  1 V2000
  147.0367  142.2209  154.1026 C   0  0  0  0  0  0  0  0  0  0  0  0
  146.5205  140.8587  154.6003 C   0  0  0  0  0  0  0  0  0  0  0  0
  146.3888  140.8585  156.1352 C   0  0  0  0  0  0  0  0  0  0  0  0
  147.3023  139.6354  154.0085 C   0  0  1  0  0  0  0  0  0  0  0  0
  146.7972  139.2659  152.5824 C   0  0  0  0  0  0  0  0  0  0  0  0
  146.9565  137.8441  152.2916 N   0  0  0  0  0  0  0  0  0  0  0  0
  145.9679  136.9425  152.2308 C   0  0  0  0  0  0  0  0  0  0  0  0
  144.7871  137.2095  152.4529 O   0  0  0  0  0  0  0  0  0  0  0  0
  146.4466  135.7285  151.9109 N   0  0  0  0  0  0  0  0  0  0  0  0
  145.7360  134.5182  151.6862 C   0  0  0  0  0  0  0  0  0  0  0  0
  144.3910  134.4543  151.2476 C   0  0  0  0  0  0  0  0  0  0  0  0
  143.8094  133.1877  151.0383 C   0  0  0  0  0  0  0  0  0  0  0  0
  144.4692  132.0253  151.2271 N   0  0  0  0  0  0  0  0  0  0  0  0
  145.7545  132.0905  151.6336 C   0  0  0  0  0  0  0  0  0  0  0  0
  146.4304  133.3040  151.8710 C   0  0  0  0  0  0  0  0  0  0  0  0
  147.7248  133.2984  152.2726 F   0  0  0  0  0  0  0  0  0  0  0  0
  148.7818  139.7510  154.0918 N   0  0  0  0  0  0  0  0  0  0  0  0
  149.4540  138.4442  153.9972 C   0  0  0  0  0  0  0  0  0  0  0  0
  150.9876  138.5655  154.0580 C   0  0  0  0  0  0  0  0  0  0  0  0
  151.4221  139.2028  155.2955 N   0  0  0  0  0  0  0  0  0  0  0  0
  152.8715  139.3093  155.3624 C   0  0  0  0  0  0  0  0  0  0  0  0
  150.7829  140.5100  155.3905 C   0  0  0  0  0  0  0  0  0  0  0  0
  149.2484  140.3946  155.3307 C   0  0  0  0  0  0  0  0  0  0  0  0
  147.9857  142.4954  154.5628 H   0  0  0  0  0  0  0  0  0  0  0  0
  146.3276  143.0130  154.3446 H   0  0  0  0  0  0  0  0  0  0  0  0
  147.1699  142.2226  153.0205 H   0  0  0  0  0  0  0  0  0  0  0  0
  145.5084  140.8184  154.2016 H   0  0  0  0  0  0  0  0  0  0  0  0
  147.3374  141.0726  156.6254 H   0  0  0  0  0  0  0  0  0  0  0  0
  146.0244  139.9023  156.5103 H   0  0  0  0  0  0  0  0  0  0  0  0
  145.6833  141.6236  156.4602 H   0  0  0  0  0  0  0  0  0  0  0  0
  147.0192  138.7911  154.6393 H   0  0  0  0  0  0  0  0  0  0  0  0
  145.7407  139.5109  152.4782 H   0  0  0  0  0  0  0  0  0  0  0  0
  147.2805  139.8795  151.8241 H   0  0  0  0  0  0  0  0  0  0  0  0
  147.8966  137.5321  152.0947 H   0  0  0  0  0  0  0  0  0  0  0  0
  147.4515  135.6514  151.8493 H   0  0  0  0  0  0  0  0  0  0  0  0
  143.8032  135.3384  151.0558 H   0  0  0  0  0  0  0  0  0  0  0  0
  142.7861  133.1067  150.7025 H   0  0  0  0  0  0  0  0  0  0  0  0
  146.2614  131.1469  151.7712 H   0  0  0  0  0  0  0  0  0  0  0  0
  149.1055  137.7863  154.7951 H   0  0  0  0  0  0  0  0  0  0  0  0
  149.2116  137.9528  153.0569 H   0  0  0  0  0  0  0  0  0  0  0  0
  151.4308  137.5722  153.9811 H   0  0  0  0  0  0  0  0  0  0  0  0
  151.3444  139.1338  153.1972 H   0  0  0  0  0  0  0  0  0  0  0  0
  153.1815  139.7732  156.2992 H   0  0  0  0  0  0  0  0  0  0  0  0
  153.2617  139.9103  154.5399 H   0  0  0  0  0  0  0  0  0  0  0  0
  153.3335  138.3229  155.3115 H   0  0  0  0  0  0  0  0  0  0  0  0
  151.0711  140.9931  156.3247 H   0  0  0  0  0  0  0  0  0  0  0  0
  151.1319  141.1575  154.5843 H   0  0  0  0  0  0  0  0  0  0  0  0
  148.8599  141.4081  155.4072 H   0  0  0  0  0  0  0  0  0  0  0  0
  148.8830  139.8457  156.2000 H   0  0  0  0  0  0  0  0  0  0  0  0
  1  2  1  0  0  0  0
  1 24  1  0  0  0  0
  1 25  1  0  0  0  0
  1 26  1  0  0  0  0
  2  3  1  0  0  0  0
  2  4  1  0  0  0  0
  2 27  1  0  0  0  0
  3 28  1  0  0  0  0
  3 29  1  0  0  0  0
  3 30  1  0  0  0  0
  4  5  1  0  0  0  0
  4 17  1  0  0  0  0
  4 31  1  0  0  0  0
  5  6  1  0  0  0  0
  5 32  1  0  0  0  0
  5 33  1  0  0  0  0
  6  7  1  0  0  0  0
  6 34  1  0  0  0  0
  7  8  2  0  0  0  0
  7  9  1  0  0  0  0
  9 10  1  0  0  0  0
  9 35  1  0  0  0  0
 10 15  1  0  0  0  0
 10 11  2  0  0  0  0
 11 12  1  0  0  0  0
 11 36  1  0  0  0  0
 12 13  2  0  0  0  0
 12 37  1  0  0  0  0
 13 14  1  0  0  0  0
 14 15  2  0  0  0  0
 14 38  1  0  0  0  0
 15 16  1  0  0  0  0
 17 23  1  0  0  0  0
 17 18  1  0  0  0  0
 18 19  1  0  0  0  0
 18 39  1  0  0  0  0
 18 40  1  0  0  0  0
 19 20  1  0  0  0  0
 19 41  1  0  0  0  0
 19 42  1  0  0  0  0
 20 21  1  0  0  0  0
 20 22  1  0  0  0  0
 21 43  1  0  0  0  0
 21 44  1  0  0  0  0
 21 45  1  0  0  0  0
 22 23  1  0  0  0  0
 22 46  1  0  0  0  0
 22 47  1  0  0  0  0
 23 48  1  0  0  0  0
 23 49  1  0  0  0  0
M  END
> <s_m_source_file>
AV-unprocessed.smi

> <i_m_source_file_index>
2336

> <i_lp_mmshare_version>
43012

> <i_f3d_flags>
0

> <s_epik_input>
W0NIMl0xW0NIMl1OKFtDSDNdKVtDSDJdW0NIMl1OMVtDQEhdKFtDSF0oW0NIM10pW0NIM10pW0NIMl1bTkhdQyg9TylbTkhdYzJbY0hdW2NIXW5bY0hdYzJG

> <s_epik_cmdline>
J2VwaWtfcHl0aG9uJywgJy1waCcsICc3LjAnLCAnLXRuJywgJzgnLCAnLW1hJywgJzIwMCcsICctbWV0YWxfYmluZGluZycsICctaW1hZScsICc8aW5maWxlLm1hZT4nLCAnLW9tYWUnLCAnPG91dGZpbGUubWFlPic=

> <r_epik_Ionization_Penalty>
2.58102

> <r_epik_Ionization_Penalty_Charging>
0

> <r_epik_Ionization_Penalty_Neutral>
2.58102

> <r_epik_State_Penalty>
2.00874

> <r_epik_Charging_Adjusted_Penalty>
2.00874

> <i_epik_Tot_Q>
0

> <i_epik_Tot_abs_Q>
0

> <r_epik_Metal_State_Penalty>
2.00867

> <b_epik_Metal_Only>
0

> <s_lp_Force_Field>
OPLS_2005

> <r_lp_Energy>
52.4608

> <b_lp_Chiralities_Consistent>
1

> <s_lp_Variant>
AV-unprocessed.smi:2336-6

> <Gold.Version>
5.8.1

> <Gold.Id.Protein>
6NUR|6NUR_protein|mol2

> <Gold.PLP.Fitness>
44.0316

> <Gold.PLP.PLP>
-37.1807

> <Gold.PLP.part.hbond>
-1.9316

> <Gold.PLP.part.metal>
0.0000

> <Gold.PLP.part.buried>
-2.5596

> <Gold.PLP.part.nonpolar>
-33.3766

> <Gold.PLP.part.repulsive>
1.5871

> <Gold.PLP.ligand.clash>
0.0000

> <Gold.PLP.ligand.torsion>
1.1863

> <Gold.PLP.Chemscore.Hbond>
1.9760

> <Gold.PLP.Chemscore.CHOScore>
1.0000

> <Gold.PLP.Chemscore.Metal>
0.0000

> <Gold.Chemscore.Hbonds>
donor molecule, donor type, donor heavy atom, donor atom, acceptor molecule, acceptor atom, score
      L1  H     6    34       P1  7948  0.98
      L1  H     9    35       P1  7948  1.00
      L1  C    12    37       P1 10186  1.00

> <Gold.PLP.Chemscore.Internal.Correction>
0.2956

> <Gold.Rescore>
     Score         DG    S(hbond)    S(metal)    S(lipo)     H(rot)  DE(clash)    DE(int)     intcor
     14.36     -18.06       1.94        0.00      87.67       1.63       0.74       2.97       ----

> <Gold.Chemscore.Fitness>
14.3572

> <Gold.Chemscore.DG>
-18.0616

> <Gold.Chemscore.ZeroCoef>
-5.4800

> <Gold.Chemscore.Hbond>
1.9434

> <Gold.Chemscore.Metal>
0.0000

> <Gold.Chemscore.Lipo>
87.6708

> <Gold.Chemscore.Internal_Hbond>
0.0000

> <Gold.Chemscore.DEClash>
0.7354

> <Gold.Chemscore.DEInternal>
2.9689

> <Gold.Chemscore.Rot>
1.6277

> <Gold.Chemscore.Internal.Correction>
   9.000000E+99

> <Gold.Chemscore.Hbonds>
donor molecule, donor type, donor heavy atom, donor atom, acceptor molecule, acceptor atom, score
      L1  H     6    34       P1  7948  0.93
      L1  H     9    35       P1  7948  0.95

> <Gold.Chemscore.Hbond.Weighted>
-6.4911

> <Gold.Chemscore.Metal.Weighted>
-0.0000

> <Gold.Chemscore.Lipo.Weighted>
-10.2575

> <Gold.Chemscore.Internal_Hbond.Weighted>
0.0000

> <Gold.Chemscore.DEClash.Weighted>
0.7354

> <Gold.Chemscore.DEInternal.Weighted>
2.9689

> <Gold.Chemscore.Rot.Weighted>
4.1670

> <Gold.Chemscore.Internal.Correction.Weighted>
   9.000000E+99

> <Gold.Protein.RotatedTorsions>
[ 6907 6896 6895 6894 ] final   11.30 input  -60.11 | X-H torsion
[ 7974 7965 7964 7962 ] final  -38.21 input  175.53 | X-H torsion
[ 8008 7997 7996 7995 ] final  123.86 input   59.86 | X-H torsion
[ 10167 10162 10161 10158 ] final -117.85 input  -65.29 | X-H torsion
[ 10718 10713 10712 10709 ] final -112.78 input   66.30 | X-H torsion
[ 10763 10752 10751 10750 ] final -163.20 input  -60.55 | X-H torsion
[ 11005 11000 10999 10996 ] final  -22.31 input  -57.11 | X-H torsion

> <Gold.Protein.ActiveResidues>
 VAL166  LYS551  ARG553  GLY616  TRP617  ASP618  TYR619  PRO620  LYS621  CYS622 
 ASP623  PHE694  ASN695  SER759  ASP760  ASP761  ALA762  ILE779  LEU786  VAL792 
 PHE793  MET794  SER795  GLU796  ALA797  LYS798  CYS799  TRP800  GLU811  SER814 

> <Gold.Protein.RotatedAtoms>
  151.7521  135.0830  160.0332 H   0  0  0  0  0  0  0  0  0  0  0  0  # atno 6907 bound_to 6896
  152.3410  133.6062  159.5884 H   0  0  0  0  0  0  0  0  0  0  0  0  # atno 6908 bound_to 6896
  150.7479  133.9639  159.3566 H   0  0  0  0  0  0  0  0  0  0  0  0  # atno 6909 bound_to 6896
  146.0507  140.6485  142.9043 H   0  0  0  0  0  0  0  0  0  0  0  0  # atno 7974 bound_to 7965
  156.2781  140.2753  156.1696 H   0  0  0  0  0  0  0  0  0  0  0  0  # atno 8008 bound_to 7997
  155.0669  140.0387  157.2613 H   0  0  0  0  0  0  0  0  0  0  0  0  # atno 8009 bound_to 7997
  154.7072  140.2661  155.6669 H   0  0  0  0  0  0  0  0  0  0  0  0  # atno 8010 bound_to 7997
  140.0639  143.4941  152.2017 H   0  0  0  0  0  0  0  0  0  0  0  0  # atno 10167 bound_to 10162
  156.0727  130.5938  150.8555 H   0  0  0  0  0  0  0  0  0  0  0  0  # atno 10718 bound_to 10713
  154.7144  135.3013  154.9146 H   0  0  0  0  0  0  0  0  0  0  0  0  # atno 10763 bound_to 10752
  154.0038  135.6703  153.4765 H   0  0  0  0  0  0  0  0  0  0  0  0  # atno 10764 bound_to 10752
  153.0781  135.5023  154.8362 H   0  0  0  0  0  0  0  0  0  0  0  0  # atno 10765 bound_to 10752
  140.8645  133.7765  156.0113 H   0  0  0  0  0  0  0  0  0  0  0  0  # atno 11005 bound_to 11000
  144.7121  140.4077  143.7072 LP  0  0  0  0  0  0  0  0  0  0  0  0  # atno 17320 bound_to 7965
  145.6730  139.1603  143.2744 LP  0  0  0  0  0  0  0  0  0  0  0  0  # atno 17321 bound_to 7965
  139.5877  144.7537  151.3479 LP  0  0  0  0  0  0  0  0  0  0  0  0  # atno 17342 bound_to 10162
  140.7158  143.7269  150.7653 LP  0  0  0  0  0  0  0  0  0  0  0  0  # atno 17343 bound_to 10162
  157.5806  131.0946  150.9277 LP  0  0  0  0  0  0  0  0  0  0  0  0  # atno 17370 bound_to 10713
  156.9474  130.5407  149.5281 LP  0  0  0  0  0  0  0  0  0  0  0  0  # atno 17371 bound_to 10713
  140.8645  134.2801  157.5219 LP  0  0  0  0  0  0  0  0  0  0  0  0  # atno 17394 bound_to 11000
  139.8708  134.9535  156.4148 LP  0  0  0  0  0  0  0  0  0  0  0  0  # atno 17395 bound_to 11000

$$$$
