AV-unprocessed.smi:21|AV-procd|sdf|131|dock1
  -GOLD-   2262015313D 1   1.00000     0.00000
 Structure written by MMmdl.
 62 65  0  0  0  0  0  0  0  0  2 V2000
  145.2628  132.8264  150.6762 C   0  0  0  0  0  0  0  0  0  0  0  0
  145.3106  133.7834  151.7227 O   0  0  0  0  0  0  0  0  0  0  0  0
  144.5890  134.9762  151.4426 C   0  0  1  0  0  0  0  0  0  0  0  0
  144.2594  135.6720  152.7571 C   0  0  0  0  0  0  0  0  0  0  0  0
  145.5539  136.4098  153.1195 C   0  0  2  0  0  0  0  0  0  0  0  0
  145.3457  137.6105  154.0779 C   0  0  0  0  0  0  0  0  0  0  0  0
  146.2362  137.5800  155.2379 N   0  0  0  0  0  0  0  0  0  0  0  0
  147.0435  136.3787  155.4497 C   0  0  0  0  0  0  0  0  0  0  0  0
  146.5603  138.7231  155.9146 C   0  0  0  0  0  0  0  0  0  0  0  0
  145.5458  139.4689  156.4318 N   0  0  0  0  0  0  0  0  0  0  0  0
  145.7897  140.5883  157.1165 C   0  0  0  0  0  0  0  0  0  0  0  0
  146.9638  141.1475  157.4034 N   0  0  0  0  0  0  0  0  0  0  0  0
  147.9937  140.4211  156.8861 C   0  0  0  0  0  0  0  0  0  0  0  0
  147.8877  139.2120  156.1355 C   0  0  0  0  0  0  0  0  0  0  0  0
  149.1653  138.7816  155.7860 N   0  0  0  0  0  0  0  0  0  0  0  0
  149.9684  139.6711  156.2998 C   0  0  0  0  0  0  0  0  0  0  0  0
  149.3471  140.6997  156.9668 N   0  0  0  0  0  0  0  0  0  0  0  0
  149.9937  141.8094  157.6467 C   0  0  0  0  0  0  0  0  0  0  0  0
  151.5227  141.6412  157.8477 C   0  0  2  0  0  0  0  0  0  0  0  0
  151.7575  140.3687  158.6987 C   0  0  0  0  0  0  0  0  0  0  0  0
  153.1308  140.0624  158.8227 O   0  0  0  0  0  0  0  0  0  0  0  0
  152.1917  142.9013  158.4777 C   0  0  1  0  0  0  0  0  0  0  0  0
  151.8492  144.2256  157.8130 C   0  0  0  0  0  0  0  0  0  0  0  0
  152.2614  145.2364  158.8726 C   0  0  0  0  0  0  0  0  0  0  0  0
  151.8967  144.6284  160.1018 O   0  0  0  0  0  0  0  0  0  0  0  0
  151.8002  143.2172  159.9307 C   0  0  0  0  0  0  0  0  0  0  0  0
  146.2181  136.7198  151.8202 N   0  3  2  0  0  0  0  0  0  0  0  0
  146.4788  138.1437  151.5017 C   0  0  0  0  0  0  0  0  0  0  0  0
  145.4835  136.0081  150.7479 C   0  0  0  0  0  0  0  0  0  0  0  0
  143.6815  134.7574  150.8772 H   0  0  0  0  0  0  0  0  0  0  0  0
  146.2136  135.6870  153.6002 H   0  0  0  0  0  0  0  0  0  0  0  0
  145.8514  131.9528  150.9556 H   0  0  0  0  0  0  0  0  0  0  0  0
  145.6712  133.2200  149.7456 H   0  0  0  0  0  0  0  0  0  0  0  0
  144.2397  132.4950  150.4950 H   0  0  0  0  0  0  0  0  0  0  0  0
  143.4541  136.3897  152.5938 H   0  0  0  0  0  0  0  0  0  0  0  0
  143.9342  134.9789  153.5337 H   0  0  0  0  0  0  0  0  0  0  0  0
  145.4654  138.5623  153.5647 H   0  0  0  0  0  0  0  0  0  0  0  0
  144.3152  137.6130  154.4340 H   0  0  0  0  0  0  0  0  0  0  0  0
  147.0396  136.0925  156.5022 H   0  0  0  0  0  0  0  0  0  0  0  0
  148.0756  136.5463  155.1399 H   0  0  0  0  0  0  0  0  0  0  0  0
  146.6590  135.5329  154.8799 H   0  0  0  0  0  0  0  0  0  0  0  0
  144.9196  141.1093  157.4885 H   0  0  0  0  0  0  0  0  0  0  0  0
  151.0422  139.6040  156.2012 H   0  0  0  0  0  0  0  0  0  0  0  0
  149.7879  142.7322  157.1033 H   0  0  0  0  0  0  0  0  0  0  0  0
  149.4957  141.9105  158.6116 H   0  0  0  0  0  0  0  0  0  0  0  0
  151.9673  141.4628  156.8673 H   0  0  0  0  0  0  0  0  0  0  0  0
  151.3104  140.4725  159.6880 H   0  0  0  0  0  0  0  0  0  0  0  0
  151.2920  139.4985  158.2352 H   0  0  0  0  0  0  0  0  0  0  0  0
  153.3789  140.1538  159.7301 H   0  0  0  0  0  0  0  0  0  0  0  0
  153.2758  142.7821  158.4357 H   0  0  0  0  0  0  0  0  0  0  0  0
  152.3715  144.3826  156.8690 H   0  0  0  0  0  0  0  0  0  0  0  0
  150.7759  144.2971  157.6309 H   0  0  0  0  0  0  0  0  0  0  0  0
  153.3416  145.3869  158.8578 H   0  0  0  0  0  0  0  0  0  0  0  0
  151.7784  146.2052  158.7439 H   0  0  0  0  0  0  0  0  0  0  0  0
  150.7699  142.9248  160.1349 H   0  0  0  0  0  0  0  0  0  0  0  0
  152.4458  142.7133  160.6488 H   0  0  0  0  0  0  0  0  0  0  0  0
  145.5541  138.7208  151.4672 H   0  0  0  0  0  0  0  0  0  0  0  0
  146.9613  138.2259  150.5274 H   0  0  0  0  0  0  0  0  0  0  0  0
  147.1505  138.5951  152.2318 H   0  0  0  0  0  0  0  0  0  0  0  0
  146.1673  135.5741  150.0189 H   0  0  0  0  0  0  0  0  0  0  0  0
  144.8469  136.7157  150.2136 H   0  0  0  0  0  0  0  0  0  0  0  0
  147.1253  136.2789  151.8779 H   0  0  0  0  0  0  0  0  0  0  0  0
  1  2  1  0  0  0  0
  1 32  1  0  0  0  0
  1 33  1  0  0  0  0
  1 34  1  0  0  0  0
  2  3  1  0  0  0  0
  3 30  1  0  0  0  0
  3 29  1  0  0  0  0
  3  4  1  0  0  0  0
  4  5  1  0  0  0  0
  4 35  1  0  0  0  0
  4 36  1  0  0  0  0
  5 31  1  0  0  0  0
  5  6  1  0  0  0  0
  5 27  1  0  0  0  0
  6  7  1  0  0  0  0
  6 37  1  0  0  0  0
  6 38  1  0  0  0  0
  7  8  1  0  0  0  0
  7  9  1  0  0  0  0
  8 39  1  0  0  0  0
  8 40  1  0  0  0  0
  8 41  1  0  0  0  0
  9 14  1  0  0  0  0
  9 10  2  0  0  0  0
 10 11  1  0  0  0  0
 11 12  2  0  0  0  0
 11 42  1  0  0  0  0
 12 13  1  0  0  0  0
 13 17  1  0  0  0  0
 13 14  2  0  0  0  0
 14 15  1  0  0  0  0
 15 16  2  0  0  0  0
 16 17  1  0  0  0  0
 16 43  1  0  0  0  0
 17 18  1  0  0  0  0
 18 19  1  0  0  0  0
 18 44  1  0  0  0  0
 18 45  1  0  0  0  0
 19 20  1  0  0  0  0
 19 22  1  0  0  0  0
 19 46  1  0  0  0  0
 20 21  1  0  0  0  0
 20 47  1  0  0  0  0
 20 48  1  0  0  0  0
 21 49  1  0  0  0  0
 22 26  1  0  0  0  0
 22 23  1  0  0  0  0
 22 50  1  0  0  0  0
 23 24  1  0  0  0  0
 23 51  1  0  0  0  0
 23 52  1  0  0  0  0
 24 25  1  0  0  0  0
 24 53  1  0  0  0  0
 24 54  1  0  0  0  0
 25 26  1  0  0  0  0
 26 55  1  0  0  0  0
 26 56  1  0  0  0  0
 27 28  1  0  0  0  0
 27 29  1  0  0  0  0
 27 62  1  0  0  0  0
 28 57  1  0  0  0  0
 28 58  1  0  0  0  0
 28 59  1  0  0  0  0
 29 60  1  0  0  0  0
 29 61  1  0  0  0  0
M  CHG  1  27   1
M  END
> <s_m_source_file>
AV-unprocessed.smi

> <i_m_source_file_index>
21

> <i_lp_mmshare_version>
43012

> <i_f3d_flags>
0

> <s_epik_input>
W0NIM11PW0NASF0xW0NIMl1bQ0BIXShOKFtDSDNdKVtDSDJdMSlbQ0gyXU4oW0NIM10pYyhuW2NIXW4yKWMoYzIzKW5bY0hdbjNbQ0gyXVtDQEhdKFtDSDJdW09IXSlbQ0BASF00W0NIMl1bQ0gyXU9bQ0gyXTQ=

> <s_epik_cmdline>
J2VwaWtfcHl0aG9uJywgJy1waCcsICc3LjAnLCAnLXRuJywgJzgnLCAnLW1hJywgJzIwMCcsICctbWV0YWxfYmluZGluZycsICctaW1hZScsICc8aW5maWxlLm1hZT4nLCAnLW9tYWUnLCAnPG91dGZpbGUubWFlPic=

> <r_lp_tautomer_probability>
1

> <r_epik_Ionization_Penalty>
0.0157465

> <r_epik_Ionization_Penalty_Charging>
0.015354

> <r_epik_Ionization_Penalty_Neutral>
0.000392529

> <r_epik_State_Penalty>
0.0120612

> <r_epik_Charging_Adjusted_Penalty>
0.0274152

> <i_epik_Tot_Q>
1

> <i_epik_Tot_abs_Q>
1

> <r_epik_Metal_State_Penalty>
0.0121253

> <b_epik_Metal_Only>
0

> <s_lp_Force_Field>
OPLS_2005

> <r_lp_Energy>
62.3844

> <b_lp_Chiralities_Consistent>
1

> <s_lp_Variant>
AV-unprocessed.smi:21-11

> <Gold.Version>
5.8.1

> <Gold.Id.Protein>
6NUR|6NUR_protein|mol2

> <Gold.PLP.Fitness>
46.0253

> <Gold.PLP.PLP>
-40.3242

> <Gold.PLP.part.hbond>
-2.0000

> <Gold.PLP.part.metal>
0.0000

> <Gold.PLP.part.buried>
-3.1035

> <Gold.PLP.part.nonpolar>
-35.3617

> <Gold.PLP.part.repulsive>
0.3517

> <Gold.PLP.ligand.clash>
0.0000

> <Gold.PLP.ligand.torsion>
2.2749

> <Gold.PLP.Chemscore.Hbond>
2.9600

> <Gold.PLP.Chemscore.CHOScore>
0.0000

> <Gold.PLP.Chemscore.Metal>
0.0000

> <Gold.Chemscore.Hbonds>
donor molecule, donor type, donor heavy atom, donor atom, acceptor molecule, acceptor atom, score
      L1  H    27    62       P1  7948  2.00
      P1  H  7997  8009       L1    21  0.32

> <Gold.PLP.Chemscore.Internal.Correction>
1.3708

> <Gold.Rescore>
     Score         DG    S(hbond)    S(metal)    S(lipo)     H(rot)  DE(clash)    DE(int)     intcor
     14.33     -17.12       1.92        0.00     111.96       3.08       0.41       2.38       ----

> <Gold.Chemscore.Fitness>
14.3251

> <Gold.Chemscore.DG>
-17.1154

> <Gold.Chemscore.ZeroCoef>
-5.4800

> <Gold.Chemscore.Hbond>
1.9193

> <Gold.Chemscore.Metal>
0.0000

> <Gold.Chemscore.Lipo>
111.9583

> <Gold.Chemscore.Internal_Hbond>
0.0000

> <Gold.Chemscore.DEClash>
0.4147

> <Gold.Chemscore.DEInternal>
2.3756

> <Gold.Chemscore.Rot>
3.0758

> <Gold.Chemscore.Internal.Correction>
   9.000000E+99

> <Gold.Chemscore.Hbonds>
donor molecule, donor type, donor heavy atom, donor atom, acceptor molecule, acceptor atom, score
      L1  H    27    62       P1  7948  0.98
      P1  H  7997  8009       L1    21  0.31

> <Gold.Chemscore.Hbond.Weighted>
-6.4104

> <Gold.Chemscore.Metal.Weighted>
-0.0000

> <Gold.Chemscore.Lipo.Weighted>
-13.0991

> <Gold.Chemscore.Internal_Hbond.Weighted>
0.0000

> <Gold.Chemscore.DEClash.Weighted>
0.4147

> <Gold.Chemscore.DEInternal.Weighted>
2.3756

> <Gold.Chemscore.Rot.Weighted>
7.8741

> <Gold.Chemscore.Internal.Correction.Weighted>
   9.000000E+99

> <Gold.Protein.RotatedTorsions>
[ 6907 6896 6895 6894 ] final    6.76 input  -60.11 | X-H torsion
[ 7974 7965 7964 7962 ] final -161.25 input  175.53 | X-H torsion
[ 8008 7997 7996 7995 ] final  147.99 input   59.86 | X-H torsion
[ 10167 10162 10161 10158 ] final   79.57 input  -65.29 | X-H torsion
[ 10718 10713 10712 10709 ] final  -85.08 input   66.30 | X-H torsion
[ 10763 10752 10751 10750 ] final -138.10 input  -60.55 | X-H torsion
[ 11005 11000 10999 10996 ] final -173.93 input  -57.11 | X-H torsion

> <Gold.Protein.ActiveResidues>
 VAL166  LYS551  ARG553  GLY616  TRP617  ASP618  TYR619  PRO620  LYS621  CYS622 
 ASP623  PHE694  ASN695  SER759  ASP760  ASP761  ALA762  ILE779  LEU786  VAL792 
 PHE793  MET794  SER795  GLU796  ALA797  LYS798  CYS799  TRP800  GLU811  SER814 

> <Gold.Protein.RotatedAtoms>
  151.6789  135.0965  160.0212 H   0  0  0  0  0  0  0  0  0  0  0  0  # atno 6907 bound_to 6896
  152.3847  133.6590  159.6198 H   0  0  0  0  0  0  0  0  0  0  0  0  # atno 6908 bound_to 6896
  150.7775  133.8972  159.3372 H   0  0  0  0  0  0  0  0  0  0  0  0  # atno 6909 bound_to 6896
  144.7398  140.3425  143.6132 H   0  0  0  0  0  0  0  0  0  0  0  0  # atno 7974 bound_to 7965
  156.2806  140.2141  156.5626 H   0  0  0  0  0  0  0  0  0  0  0  0  # atno 8008 bound_to 7997
  154.7200  140.0504  157.0654 H   0  0  0  0  0  0  0  0  0  0  0  0  # atno 8009 bound_to 7997
  155.0491  140.3154  155.4701 H   0  0  0  0  0  0  0  0  0  0  0  0  # atno 8010 bound_to 7997
  139.9589  144.5974  150.8090 H   0  0  0  0  0  0  0  0  0  0  0  0  # atno 10167 bound_to 10162
  156.0000  130.4719  150.4507 H   0  0  0  0  0  0  0  0  0  0  0  0  # atno 10718 bound_to 10713
  154.8645  135.3622  154.5331 H   0  0  0  0  0  0  0  0  0  0  0  0  # atno 10763 bound_to 10752
  153.5956  135.7014  153.5410 H   0  0  0  0  0  0  0  0  0  0  0  0  # atno 10764 bound_to 10752
  153.3336  135.4117  155.1477 H   0  0  0  0  0  0  0  0  0  0  0  0  # atno 10765 bound_to 10752
  140.4802  134.6082  157.4916 H   0  0  0  0  0  0  0  0  0  0  0  0  # atno 11005 bound_to 11000
  145.7360  139.1750  143.2403 LP  0  0  0  0  0  0  0  0  0  0  0  0  # atno 17320 bound_to 7965
  146.1170  140.7356  142.9475 LP  0  0  0  0  0  0  0  0  0  0  0  0  # atno 17321 bound_to 7965
  140.7559  143.3056  151.2971 LP  0  0  0  0  0  0  0  0  0  0  0  0  # atno 17342 bound_to 10162
  139.6569  144.0259  152.2666 LP  0  0  0  0  0  0  0  0  0  0  0  0  # atno 17343 bound_to 10162
  157.2540  131.0552  151.2361 LP  0  0  0  0  0  0  0  0  0  0  0  0  # atno 17370 bound_to 10713
  157.3500  130.7077  149.6435 LP  0  0  0  0  0  0  0  0  0  0  0  0  # atno 17371 bound_to 10713
  139.9831  134.7105  155.9823 LP  0  0  0  0  0  0  0  0  0  0  0  0  # atno 17394 bound_to 11000
  141.1535  133.6545  156.4087 LP  0  0  0  0  0  0  0  0  0  0  0  0  # atno 17395 bound_to 11000

$$$$
