AV-unprocessed.smi:109|AV-procd|sdf|1047|dock6
  -GOLD-   2262018 93D 1   1.00000     0.00000
 Structure written by MMmdl.
 58 61  0  0  0  0  0  0  0  0  1 V2000
  150.5907  136.5852  158.8104 O   0  0  0  0  0  0  0  0  0  0  0  0
  149.8366  137.7680  158.6543 C   0  0  0  0  0  0  0  0  0  0  0  0
  148.4610  137.4350  158.0516 C   0  0  0  0  0  0  0  0  0  0  0  0
  147.8703  136.0865  158.5310 C   0  0  2  0  0  0  0  0  0  0  0  0
  146.6064  135.8342  157.8358 N   0  0  0  0  0  0  0  0  0  0  0  0
  146.5501  135.6366  156.4996 C   0  0  0  0  0  0  0  0  0  0  0  0
  147.6734  135.6045  155.7361 N   0  0  0  0  0  0  0  0  0  0  0  0
  147.5819  135.4069  154.4175 C   0  0  0  0  0  0  0  0  0  0  0  0
  146.4877  135.2213  153.6749 N   0  0  0  0  0  0  0  0  0  0  0  0
  145.3573  135.2565  154.4384 C   0  0  0  0  0  0  0  0  0  0  0  0
  145.3046  135.4581  155.8452 C   0  0  0  0  0  0  0  0  0  0  0  0
  143.9848  135.4255  156.2757 N   0  0  0  0  0  0  0  0  0  0  0  0
  143.3020  135.2102  155.1834 C   0  0  0  0  0  0  0  0  0  0  0  0
  144.0507  135.0952  154.0312 N   0  0  0  0  0  0  0  0  0  0  0  0
  143.5941  134.8407  152.6262 C   0  0  2  0  0  0  0  0  0  0  0  0
  144.3319  133.7597  152.1405 O   0  0  0  0  0  0  0  0  0  0  0  0
  145.1568  134.1562  151.0479 C   0  0  2  0  0  0  0  0  0  0  0  0
  146.5080  133.4264  151.1252 C   0  0  0  0  0  0  0  0  0  0  0  0
  146.3493  132.0543  150.8356 O   0  0  0  0  0  0  0  0  0  0  0  0
  145.2389  135.6851  151.1322 C   0  0  1  0  0  0  0  0  0  0  0  0
  145.3907  136.2536  149.8469 O   0  0  0  0  0  0  0  0  0  0  0  0
  143.8809  136.0462  151.7104 C   0  0  2  0  0  0  0  0  0  0  0  0
  143.9327  137.2917  152.3834 O   0  0  0  0  0  0  0  0  0  0  0  0
  147.6333  136.0210  160.0675 C   0  0  0  0  0  0  0  0  0  0  0  0
  147.5428  134.5724  160.6097 C   0  0  0  0  0  0  0  0  0  0  0  0
  147.2701  134.5272  162.1222 C   0  0  0  0  0  0  0  0  0  0  0  0
  145.9979  135.3016  162.4872 C   0  0  0  0  0  0  0  0  0  0  0  0
  146.0843  136.7468  161.9831 C   0  0  0  0  0  0  0  0  0  0  0  0
  146.3487  136.7914  160.4703 C   0  0  0  0  0  0  0  0  0  0  0  0
  142.5357  134.5936  152.7150 H   0  0  0  0  0  0  0  0  0  0  0  0
  144.6220  133.8608  150.1432 H   0  0  0  0  0  0  0  0  0  0  0  0
  146.0468  135.9966  151.7962 H   0  0  0  0  0  0  0  0  0  0  0  0
  143.1166  136.0639  150.9318 H   0  0  0  0  0  0  0  0  0  0  0  0
  151.2786  136.5803  158.1626 H   0  0  0  0  0  0  0  0  0  0  0  0
  149.7374  138.2460  159.6289 H   0  0  0  0  0  0  0  0  0  0  0  0
  150.3837  138.4537  158.0068 H   0  0  0  0  0  0  0  0  0  0  0  0
  147.7938  138.2504  158.3259 H   0  0  0  0  0  0  0  0  0  0  0  0
  148.5240  137.4419  156.9624 H   0  0  0  0  0  0  0  0  0  0  0  0
  148.5973  135.3083  158.2989 H   0  0  0  0  0  0  0  0  0  0  0  0
  145.8132  135.6645  158.4374 H   0  0  0  0  0  0  0  0  0  0  0  0
  148.5195  135.3940  153.8818 H   0  0  0  0  0  0  0  0  0  0  0  0
  142.2261  135.1268  155.1936 H   0  0  0  0  0  0  0  0  0  0  0  0
  147.2353  133.8626  150.4409 H   0  0  0  0  0  0  0  0  0  0  0  0
  146.9207  133.5124  152.1306 H   0  0  0  0  0  0  0  0  0  0  0  0
  147.2007  131.6442  150.8440 H   0  0  0  0  0  0  0  0  0  0  0  0
  145.0130  137.1199  149.8583 H   0  0  0  0  0  0  0  0  0  0  0  0
  143.9280  137.9815  151.7371 H   0  0  0  0  0  0  0  0  0  0  0  0
  148.4800  136.5038  160.5587 H   0  0  0  0  0  0  0  0  0  0  0  0
  146.7582  134.0299  160.0808 H   0  0  0  0  0  0  0  0  0  0  0  0
  148.4705  134.0312  160.4309 H   0  0  0  0  0  0  0  0  0  0  0  0
  147.1806  133.4917  162.4520 H   0  0  0  0  0  0  0  0  0  0  0  0
  148.1211  134.9492  162.6586 H   0  0  0  0  0  0  0  0  0  0  0  0
  145.1287  134.8099  162.0486 H   0  0  0  0  0  0  0  0  0  0  0  0
  145.8496  135.2904  163.5674 H   0  0  0  0  0  0  0  0  0  0  0  0
  145.1592  137.2757  162.2139 H   0  0  0  0  0  0  0  0  0  0  0  0
  146.8812  137.2731  162.5101 H   0  0  0  0  0  0  0  0  0  0  0  0
  146.4123  137.8370  160.1686 H   0  0  0  0  0  0  0  0  0  0  0  0
  145.4912  136.3742  159.9407 H   0  0  0  0  0  0  0  0  0  0  0  0
  1  2  1  0  0  0  0
  1 34  1  0  0  0  0
  2  3  1  0  0  0  0
  2 35  1  0  0  0  0
  2 36  1  0  0  0  0
  3  4  1  0  0  0  0
  3 37  1  0  0  0  0
  3 38  1  0  0  0  0
  4  5  1  0  0  0  0
  4 24  1  0  0  0  0
  4 39  1  0  0  0  0
  5  6  1  0  0  0  0
  5 40  1  0  0  0  0
  6 11  1  0  0  0  0
  6  7  2  0  0  0  0
  7  8  1  0  0  0  0
  8  9  2  0  0  0  0
  8 41  1  0  0  0  0
  9 10  1  0  0  0  0
 10 14  1  0  0  0  0
 10 11  2  0  0  0  0
 11 12  1  0  0  0  0
 12 13  2  0  0  0  0
 13 14  1  0  0  0  0
 13 42  1  0  0  0  0
 14 15  1  0  0  0  0
 15 30  1  0  0  0  0
 15 22  1  0  0  0  0
 15 16  1  0  0  0  0
 16 17  1  0  0  0  0
 17 31  1  0  0  0  0
 17 18  1  0  0  0  0
 17 20  1  0  0  0  0
 18 19  1  0  0  0  0
 18 43  1  0  0  0  0
 18 44  1  0  0  0  0
 19 45  1  0  0  0  0
 20 32  1  0  0  0  0
 20 21  1  0  0  0  0
 20 22  1  0  0  0  0
 21 46  1  0  0  0  0
 22 33  1  0  0  0  0
 22 23  1  0  0  0  0
 23 47  1  0  0  0  0
 24 29  1  0  0  0  0
 24 25  1  0  0  0  0
 24 48  1  0  0  0  0
 25 26  1  0  0  0  0
 25 49  1  0  0  0  0
 25 50  1  0  0  0  0
 26 27  1  0  0  0  0
 26 51  1  0  0  0  0
 26 52  1  0  0  0  0
 27 28  1  0  0  0  0
 27 53  1  0  0  0  0
 27 54  1  0  0  0  0
 28 29  1  0  0  0  0
 28 55  1  0  0  0  0
 28 56  1  0  0  0  0
 29 57  1  0  0  0  0
 29 58  1  0  0  0  0
M  END
> <s_m_source_file>
AV-unprocessed.smi

> <i_m_source_file_index>
109

> <i_lp_mmshare_version>
43012

> <i_f3d_flags>
0

> <s_epik_input>
W0NIMl0xW0NIMl1bQ0gyXVtDSDJdW0NIMl1bQ0hdMVtDQEhdKFtDSDJdW0NIMl1bT0hdKVtOSF1jKG5bY0hdbjIpYyhjMjMpbltjSF1uM1tDQEBIXTRPW0NASF0oW0NIMl1bT0hdKVtDQEBIXShbT0hdKVtDQEhdNFtPSF0=

> <s_epik_cmdline>
J2VwaWtfcHl0aG9uJywgJy1waCcsICc3LjAnLCAnLXRuJywgJzgnLCAnLW1hJywgJzIwMCcsICctbWV0YWxfYmluZGluZycsICctaW1hZScsICc8aW5maWxlLm1hZT4nLCAnLW9tYWUnLCAnPG91dGZpbGUubWFlPic=

> <r_lp_tautomer_probability>
1

> <r_epik_Ionization_Penalty>
0.000793976

> <r_epik_Ionization_Penalty_Charging>
0

> <r_epik_Ionization_Penalty_Neutral>
0.000793976

> <r_epik_State_Penalty>
-0

> <r_epik_Charging_Adjusted_Penalty>
0

> <i_epik_Tot_Q>
0

> <i_epik_Tot_abs_Q>
0

> <r_epik_Metal_State_Penalty>
-0

> <b_epik_Metal_Only>
0

> <s_epik_Chemistry_Notes>
This compound contains an acetal/aminal-like group ( X-CH(R)-Y where X, Y are N, S, or O) that may be acid/base labile, releasing an aldehyde.

> <s_lp_Force_Field>
OPLS_2005

> <r_lp_Energy>
53.0649

> <b_lp_Chiralities_Consistent>
1

> <s_lp_Variant>
AV-unprocessed.smi:109-17

> <Gold.Version>
5.8.1

> <Gold.Id.Protein>
6NUR|6NUR_protein|mol2

> <Gold.PLP.Fitness>
52.2958

> <Gold.PLP.PLP>
-35.7193

> <Gold.PLP.part.hbond>
-5.4572

> <Gold.PLP.part.metal>
0.0000

> <Gold.PLP.part.buried>
-6.1420

> <Gold.PLP.part.nonpolar>
-24.3580

> <Gold.PLP.part.repulsive>
0.2908

> <Gold.PLP.ligand.clash>
0.0000

> <Gold.PLP.ligand.torsion>
0.6531

> <Gold.PLP.Chemscore.Hbond>
3.9100

> <Gold.PLP.Chemscore.CHOScore>
1.9978

> <Gold.PLP.Chemscore.Metal>
0.0000

> <Gold.Chemscore.Hbonds>
donor molecule, donor type, donor heavy atom, donor atom, acceptor molecule, acceptor atom, score
      L1  H    19    45       P1 10747  1.00
      L1  H    21    46       P1 10171  1.00
      L1  H    23    47       P1 10171  1.00
      P1  H  6896  6907       L1     1  1.00
      L1  C     8    41       P1  7948  0.98
      L1  C    13    42       P1 11000  0.84

> <Gold.PLP.Chemscore.Internal.Correction>
0.1591

> <Gold.Rescore>
     Score         DG    S(hbond)    S(metal)    S(lipo)     H(rot)  DE(clash)    DE(int)     intcor
      8.38     -11.85       3.75        0.00      66.89       5.47       0.42       3.04       ----

> <Gold.Chemscore.Fitness>
8.3830

> <Gold.Chemscore.DG>
-11.8490

> <Gold.Chemscore.ZeroCoef>
-5.4800

> <Gold.Chemscore.Hbond>
3.7535

> <Gold.Chemscore.Metal>
0.0000

> <Gold.Chemscore.Lipo>
66.8878

> <Gold.Chemscore.Internal_Hbond>
0.0000

> <Gold.Chemscore.DEClash>
0.4212

> <Gold.Chemscore.DEInternal>
3.0448

> <Gold.Chemscore.Rot>
5.4662

> <Gold.Chemscore.Internal.Correction>
   9.000000E+99

> <Gold.Chemscore.Hbonds>
donor molecule, donor type, donor heavy atom, donor atom, acceptor molecule, acceptor atom, score
      L1  H    19    45       P1 10747  0.93
      L1  H    21    46       P1 10171  1.00
      L1  H    23    47       P1 10171  0.91
      P1  H  6896  6907       L1     1  0.29

> <Gold.Chemscore.Hbond.Weighted>
-12.5366

> <Gold.Chemscore.Metal.Weighted>
-0.0000

> <Gold.Chemscore.Lipo.Weighted>
-7.8259

> <Gold.Chemscore.Internal_Hbond.Weighted>
0.0000

> <Gold.Chemscore.DEClash.Weighted>
0.4212

> <Gold.Chemscore.DEInternal.Weighted>
3.0448

> <Gold.Chemscore.Rot.Weighted>
13.9935

> <Gold.Chemscore.Internal.Correction.Weighted>
   9.000000E+99

> <Gold.Protein.RotatedTorsions>
[ 6907 6896 6895 6894 ] final  -42.13 input  -60.11 | X-H torsion
[ 7974 7965 7964 7962 ] final  157.32 input  175.53 | X-H torsion
[ 8008 7997 7996 7995 ] final  -81.75 input   59.86 | X-H torsion
[ 10167 10162 10161 10158 ] final -168.99 input  -65.29 | X-H torsion
[ 10718 10713 10712 10709 ] final  120.02 input   66.30 | X-H torsion
[ 10763 10752 10751 10750 ] final  -42.32 input  -60.55 | X-H torsion
[ 11005 11000 10999 10996 ] final  168.57 input  -57.11 | X-H torsion

> <Gold.Protein.ActiveResidues>
 VAL166  LYS551  ARG553  GLY616  TRP617  ASP618  TYR619  PRO620  LYS621  CYS622 
 ASP623  PHE694  ASN695  SER759  ASP760  ASP761  ALA762  ILE779  LEU786  VAL792 
 PHE793  MET794  SER795  GLU796  ALA797  LYS798  CYS799  TRP800  GLU811  SER814 

> <Gold.Protein.RotatedAtoms>
  150.9588  134.8979  159.7717 H   0  0  0  0  0  0  0  0  0  0  0  0  # atno 6907 bound_to 6896
  152.5148  134.3702  159.9325 H   0  0  0  0  0  0  0  0  0  0  0  0  # atno 6908 bound_to 6896
  151.3715  133.3813  159.2735 H   0  0  0  0  0  0  0  0  0  0  0  0  # atno 6909 bound_to 6896
  144.7910  139.7325  143.6221 H   0  0  0  0  0  0  0  0  0  0  0  0  # atno 7974 bound_to 7965
  154.6015  140.0643  156.9375 H   0  0  0  0  0  0  0  0  0  0  0  0  # atno 8008 bound_to 7997
  155.2124  140.3323  155.4308 H   0  0  0  0  0  0  0  0  0  0  0  0  # atno 8009 bound_to 7997
  156.2321  140.1846  156.7199 H   0  0  0  0  0  0  0  0  0  0  0  0  # atno 8010 bound_to 7997
  139.5950  144.1131  152.1679 H   0  0  0  0  0  0  0  0  0  0  0  0  # atno 10167 bound_to 10162
  157.5921  131.1063  150.7977 H   0  0  0  0  0  0  0  0  0  0  0  0  # atno 10718 bound_to 10713
  153.9772  135.6721  153.4749 H   0  0  0  0  0  0  0  0  0  0  0  0  # atno 10763 bound_to 10752
  153.0765  135.4946  154.8412 H   0  0  0  0  0  0  0  0  0  0  0  0  # atno 10764 bound_to 10752
  154.7185  135.3112  154.9046 H   0  0  0  0  0  0  0  0  0  0  0  0  # atno 10765 bound_to 10752
  140.2887  134.7691  157.3820 H   0  0  0  0  0  0  0  0  0  0  0  0  # atno 11005 bound_to 11000
  146.2162  139.5553  142.9648 LP  0  0  0  0  0  0  0  0  0  0  0  0  # atno 17320 bound_to 7965
  145.5794  141.0384  143.2130 LP  0  0  0  0  0  0  0  0  0  0  0  0  # atno 17321 bound_to 7965
  140.0714  144.5776  150.7189 LP  0  0  0  0  0  0  0  0  0  0  0  0  # atno 17342 bound_to 10162
  140.7205  143.2584  151.4295 LP  0  0  0  0  0  0  0  0  0  0  0  0  # atno 17343 bound_to 10162
  156.8397  130.5043  149.5322 LP  0  0  0  0  0  0  0  0  0  0  0  0  # atno 17370 bound_to 10713
  156.0977  130.5945  150.9841 LP  0  0  0  0  0  0  0  0  0  0  0  0  # atno 17371 bound_to 10713
  140.1216  134.5212  155.8179 LP  0  0  0  0  0  0  0  0  0  0  0  0  # atno 17394 bound_to 11000
  141.2150  133.6758  156.6876 LP  0  0  0  0  0  0  0  0  0  0  0  0  # atno 17395 bound_to 11000

$$$$
