AV-unprocessed.smi:657|AV-procd|sdf|3220|dock2
  -GOLD-   22720 0153D 1   1.00000     0.00000
 Structure written by MMmdl.
 47 48  0  0  0  0  0  0  0  0  2 V2000
  144.8369  135.0856  151.5143 C   0  0  0  0  0  0  0  0  0  0  0  0
  145.6231  135.6974  152.6911 C   0  0  0  0  0  0  0  0  0  0  0  0
  145.8484  137.2071  152.4970 C   0  0  0  0  0  0  0  0  0  0  0  0
  146.9096  134.9828  152.9951 N   0  3  2  0  0  0  0  0  0  0  0  0
  146.9163  133.5664  152.5208 C   0  0  0  0  0  0  0  0  0  0  0  0
  148.2975  132.9153  152.6627 C   0  0  0  0  0  0  0  0  0  0  0  0
  148.7489  132.9529  154.1222 C   0  0  0  0  0  0  0  0  0  0  0  0
  148.7599  134.4037  154.6055 C   0  0  0  0  0  0  0  0  0  0  0  0
  147.3913  135.1045  154.4136 C   0  0  1  0  0  0  0  0  0  0  0  0
  147.5689  136.5594  154.8801 C   0  0  0  0  0  0  0  0  0  0  0  0
  146.8799  137.0073  155.7973 O   0  0  0  0  0  0  0  0  0  0  0  0
  148.4697  137.2920  154.2089 N   0  0  0  0  0  0  0  0  0  0  0  0
  148.7183  138.7159  154.4139 C   0  0  0  0  0  0  0  0  0  0  0  0
  150.1780  139.1121  154.1106 C   0  0  0  0  0  0  0  0  0  0  0  0
  150.8924  139.6729  155.3134 C   0  0  0  0  0  0  0  0  0  0  0  0
  152.1195  139.2360  155.8893 C   0  0  0  0  0  0  0  0  0  0  0  0
  152.4929  139.9720  156.9233 N   0  0  0  0  0  0  0  0  0  0  0  0
  151.5175  140.8951  157.0486 N   0  0  0  0  0  0  0  0  0  0  0  0
  151.6048  141.8879  158.0980 C   0  0  0  0  0  0  0  0  0  0  0  0
  150.5351  140.7344  156.0960 C   0  0  0  0  0  0  0  0  0  0  0  0
  143.8678  135.5741  151.4076 H   0  0  0  0  0  0  0  0  0  0  0  0
  144.6445  134.0234  151.6635 H   0  0  0  0  0  0  0  0  0  0  0  0
  145.3581  135.2057  150.5644 H   0  0  0  0  0  0  0  0  0  0  0  0
  144.9694  135.6364  153.5590 H   0  0  0  0  0  0  0  0  0  0  0  0
  144.8951  137.7343  152.4470 H   0  0  0  0  0  0  0  0  0  0  0  0
  146.3852  137.4332  151.5762 H   0  0  0  0  0  0  0  0  0  0  0  0
  146.4110  137.6315  153.3291 H   0  0  0  0  0  0  0  0  0  0  0  0
  146.1926  132.9801  153.0882 H   0  0  0  0  0  0  0  0  0  0  0  0
  146.6176  133.5099  151.4753 H   0  0  0  0  0  0  0  0  0  0  0  0
  148.2608  131.8832  152.3127 H   0  0  0  0  0  0  0  0  0  0  0  0
  149.0211  133.4334  152.0320 H   0  0  0  0  0  0  0  0  0  0  0  0
  148.0767  132.3565  154.7405 H   0  0  0  0  0  0  0  0  0  0  0  0
  149.7423  132.5145  154.2224 H   0  0  0  0  0  0  0  0  0  0  0  0
  149.0509  134.4265  155.6570 H   0  0  0  0  0  0  0  0  0  0  0  0
  149.5374  134.9461  154.0638 H   0  0  0  0  0  0  0  0  0  0  0  0
  146.6610  134.6156  155.0602 H   0  0  0  0  0  0  0  0  0  0  0  0
  148.9858  136.8459  153.4642 H   0  0  0  0  0  0  0  0  0  0  0  0
  148.0246  139.3178  153.8251 H   0  0  0  0  0  0  0  0  0  0  0  0
  148.4989  138.9291  155.4603 H   0  0  0  0  0  0  0  0  0  0  0  0
  150.7080  138.2358  153.7356 H   0  0  0  0  0  0  0  0  0  0  0  0
  150.1882  139.8277  153.2882 H   0  0  0  0  0  0  0  0  0  0  0  0
  152.7534  138.4187  155.5784 H   0  0  0  0  0  0  0  0  0  0  0  0
  150.8055  142.6208  157.9863 H   0  0  0  0  0  0  0  0  0  0  0  0
  152.5653  142.4013  158.0440 H   0  0  0  0  0  0  0  0  0  0  0  0
  151.5103  141.4043  159.0705 H   0  0  0  0  0  0  0  0  0  0  0  0
  149.6781  141.3898  156.0444 H   0  0  0  0  0  0  0  0  0  0  0  0
  147.6103  135.4610  152.4467 H   0  0  0  0  0  0  0  0  0  0  0  0
  1  2  1  0  0  0  0
  1 21  1  0  0  0  0
  1 22  1  0  0  0  0
  1 23  1  0  0  0  0
  2  3  1  0  0  0  0
  2  4  1  0  0  0  0
  2 24  1  0  0  0  0
  3 25  1  0  0  0  0
  3 26  1  0  0  0  0
  3 27  1  0  0  0  0
  4  9  1  0  0  0  0
  4  5  1  0  0  0  0
  4 47  1  0  0  0  0
  5  6  1  0  0  0  0
  5 28  1  0  0  0  0
  5 29  1  0  0  0  0
  6  7  1  0  0  0  0
  6 30  1  0  0  0  0
  6 31  1  0  0  0  0
  7  8  1  0  0  0  0
  7 32  1  0  0  0  0
  7 33  1  0  0  0  0
  8  9  1  0  0  0  0
  8 34  1  0  0  0  0
  8 35  1  0  0  0  0
  9 10  1  0  0  0  0
  9 36  1  0  0  0  0
 10 11  2  0  0  0  0
 10 12  1  0  0  0  0
 12 13  1  0  0  0  0
 12 37  1  0  0  0  0
 13 14  1  0  0  0  0
 13 38  1  0  0  0  0
 13 39  1  0  0  0  0
 14 15  1  0  0  0  0
 14 40  1  0  0  0  0
 14 41  1  0  0  0  0
 15 20  2  0  0  0  0
 15 16  1  0  0  0  0
 16 17  2  0  0  0  0
 16 42  1  0  0  0  0
 17 18  1  0  0  0  0
 18 19  1  0  0  0  0
 18 20  1  0  0  0  0
 19 43  1  0  0  0  0
 19 44  1  0  0  0  0
 19 45  1  0  0  0  0
 20 46  1  0  0  0  0
M  CHG  1   4   1
M  END
> <s_m_source_file>
AV-unprocessed.smi

> <i_m_source_file_index>
657

> <i_lp_mmshare_version>
43012

> <i_f3d_flags>
0

> <s_epik_input>
W0NIM11bQ0hdKFtDSDNdKU4xW0NIMl1bQ0gyXVtDSDJdW0NIMl1bQ0BIXTFDKD1PKVtOSF1bQ0gyXVtDSDJdYzJbY0hdbm4oW0NIM10pW2NIXTI=

> <s_epik_cmdline>
J2VwaWtfcHl0aG9uJywgJy1waCcsICc3LjAnLCAnLXRuJywgJzgnLCAnLW1hJywgJzIwMCcsICctbWV0YWxfYmluZGluZycsICctaW1hZScsICc8aW5maWxlLm1hZT4nLCAnLW9tYWUnLCAnPG91dGZpbGUubWFlPic=

> <r_lp_tautomer_probability>
1

> <r_epik_Ionization_Penalty>
0.0244317

> <r_epik_Ionization_Penalty_Charging>
0.0240236

> <r_epik_Ionization_Penalty_Neutral>
0.00040815

> <r_epik_State_Penalty>
0.0194773

> <r_epik_Charging_Adjusted_Penalty>
0.0435009

> <i_epik_Tot_Q>
1

> <i_epik_Tot_abs_Q>
1

> <r_epik_Metal_State_Penalty>
0.0361957

> <b_epik_Metal_Only>
0

> <s_lp_Force_Field>
OPLS_2005

> <r_lp_Energy>
17.8505

> <b_lp_Chiralities_Consistent>
1

> <s_lp_Variant>
AV-unprocessed.smi:657-1

> <Gold.Version>
5.8.1

> <Gold.Id.Protein>
6NUR|6NUR_protein|mol2

> <Gold.PLP.Fitness>
42.8002

> <Gold.PLP.PLP>
-33.2427

> <Gold.PLP.part.hbond>
-3.0000

> <Gold.PLP.part.metal>
0.0000

> <Gold.PLP.part.buried>
-1.0344

> <Gold.PLP.part.nonpolar>
-29.0830

> <Gold.PLP.part.repulsive>
0.0237

> <Gold.PLP.ligand.clash>
0.0000

> <Gold.PLP.ligand.torsion>
1.2572

> <Gold.PLP.Chemscore.Hbond>
3.9760

> <Gold.PLP.Chemscore.CHOScore>
0.0000

> <Gold.PLP.Chemscore.Metal>
0.0000

> <Gold.Chemscore.Hbonds>
donor molecule, donor type, donor heavy atom, donor atom, acceptor molecule, acceptor atom, score
      L1  H     4    47       P1  7948  2.00
      L1  H    12    37       P1  7948  0.96
      P1  H  7997  8010       L1    17  1.00

> <Gold.PLP.Chemscore.Internal.Correction>
0.1439

> <Gold.Rescore>
     Score         DG    S(hbond)    S(metal)    S(lipo)     H(rot)  DE(clash)    DE(int)     intcor
     18.56     -20.17       2.93        0.00      77.65       1.63       0.03       1.59       ----

> <Gold.Chemscore.Fitness>
18.5555

> <Gold.Chemscore.DG>
-20.1734

> <Gold.Chemscore.ZeroCoef>
-5.4800

> <Gold.Chemscore.Hbond>
2.9269

> <Gold.Chemscore.Metal>
0.0000

> <Gold.Chemscore.Lipo>
77.6478

> <Gold.Chemscore.Internal_Hbond>
0.0000

> <Gold.Chemscore.DEClash>
0.0270

> <Gold.Chemscore.DEInternal>
1.5909

> <Gold.Chemscore.Rot>
1.6279

> <Gold.Chemscore.Internal.Correction>
   9.000000E+99

> <Gold.Chemscore.Hbonds>
donor molecule, donor type, donor heavy atom, donor atom, acceptor molecule, acceptor atom, score
      L1  H     4    47       P1  7948  1.00
      L1  H    12    37       P1  7948  0.92
      P1  H  7997  8010       L1    17  0.39

> <Gold.Chemscore.Hbond.Weighted>
-9.7759

> <Gold.Chemscore.Metal.Weighted>
-0.0000

> <Gold.Chemscore.Lipo.Weighted>
-9.0848

> <Gold.Chemscore.Internal_Hbond.Weighted>
0.0000

> <Gold.Chemscore.DEClash.Weighted>
0.0270

> <Gold.Chemscore.DEInternal.Weighted>
1.5909

> <Gold.Chemscore.Rot.Weighted>
4.1673

> <Gold.Chemscore.Internal.Correction.Weighted>
   9.000000E+99

> <Gold.Protein.RotatedTorsions>
[ 6907 6896 6895 6894 ] final -123.94 input  -60.11 | X-H torsion
[ 7974 7965 7964 7962 ] final   37.46 input  175.53 | X-H torsion
[ 8008 7997 7996 7995 ] final   55.26 input   59.86 | X-H torsion
[ 10167 10162 10161 10158 ] final -170.14 input  -65.29 | X-H torsion
[ 10718 10713 10712 10709 ] final   23.07 input   66.30 | X-H torsion
[ 10763 10752 10751 10750 ] final  138.53 input  -60.55 | X-H torsion
[ 11005 11000 10999 10996 ] final  -53.98 input  -57.11 | X-H torsion

> <Gold.Protein.ActiveResidues>
 VAL166  LYS551  ARG553  GLY616  TRP617  ASP618  TYR619  PRO620  LYS621  CYS622 
 ASP623  PHE694  ASN695  SER759  ASP760  ASP761  ALA762  ILE779  LEU786  VAL792 
 PHE793  MET794  SER795  GLU796  ALA797  LYS798  CYS799  TRP800  GLU811  SER814 

> <Gold.Protein.RotatedAtoms>
  150.8720  133.7493  159.2958 H   0  0  0  0  0  0  0  0  0  0  0  0  # atno 6907 bound_to 6896
  151.5102  135.1063  159.9861 H   0  0  0  0  0  0  0  0  0  0  0  0  # atno 6908 bound_to 6896
  152.4701  133.7966  159.6986 H   0  0  0  0  0  0  0  0  0  0  0  0  # atno 6909 bound_to 6896
  146.1136  139.5891  142.9336 H   0  0  0  0  0  0  0  0  0  0  0  0  # atno 7974 bound_to 7965
  155.4981  140.3473  155.4366 H   0  0  0  0  0  0  0  0  0  0  0  0  # atno 8008 bound_to 7997
  156.0932  140.1416  156.9593 H   0  0  0  0  0  0  0  0  0  0  0  0  # atno 8009 bound_to 7997
  154.4647  140.0922  156.6966 H   0  0  0  0  0  0  0  0  0  0  0  0  # atno 8010 bound_to 7997
  139.5880  144.1276  152.1599 H   0  0  0  0  0  0  0  0  0  0  0  0  # atno 10167 bound_to 10162
  157.1610  130.6717  149.6044 H   0  0  0  0  0  0  0  0  0  0  0  0  # atno 10718 bound_to 10713
  153.8911  135.3033  155.3447 H   0  0  0  0  0  0  0  0  0  0  0  0  # atno 10763 bound_to 10752
  154.7716  135.4883  153.9663 H   0  0  0  0  0  0  0  0  0  0  0  0  # atno 10764 bound_to 10752
  153.1297  135.6801  153.9297 H   0  0  0  0  0  0  0  0  0  0  0  0  # atno 10765 bound_to 10752
  141.1003  133.6619  156.4253 H   0  0  0  0  0  0  0  0  0  0  0  0  # atno 11005 bound_to 11000
  145.5613  141.0404  143.2224 LP  0  0  0  0  0  0  0  0  0  0  0  0  # atno 17320 bound_to 7965
  144.7533  139.7138  143.7264 LP  0  0  0  0  0  0  0  0  0  0  0  0  # atno 17321 bound_to 7965
  140.0844  144.5673  150.7099 LP  0  0  0  0  0  0  0  0  0  0  0  0  # atno 17342 bound_to 10162
  140.7148  143.2535  151.4468 LP  0  0  0  0  0  0  0  0  0  0  0  0  # atno 17343 bound_to 10162
  155.9754  130.4711  150.6455 LP  0  0  0  0  0  0  0  0  0  0  0  0  # atno 17370 bound_to 10713
  157.4132  131.0826  151.1201 LP  0  0  0  0  0  0  0  0  0  0  0  0  # atno 17371 bound_to 10713
  140.5038  134.6460  157.5258 LP  0  0  0  0  0  0  0  0  0  0  0  0  # atno 17394 bound_to 11000
  139.9853  134.7072  155.9786 LP  0  0  0  0  0  0  0  0  0  0  0  0  # atno 17395 bound_to 11000

$$$$
