AV-unprocessed.smi:928|AV-procd|sdf|4193|dock3
  -GOLD-   22720 2103D 1   1.00000     0.00000
 Structure written by MMmdl.
 43 44  0  0  0  0  0  0  0  0  1 V2000
  152.4165  142.4677  159.9535 C   0  0  0  0  0  0  0  0  0  0  0  0
  151.6249  142.8262  158.6911 C   0  0  0  0  0  0  0  0  0  0  0  0
  151.4600  141.6747  157.7552 C   0  0  0  0  0  0  0  0  0  0  0  0
  151.8964  140.3847  157.9294 C   0  0  0  0  0  0  0  0  0  0  0  0
  151.5747  139.5316  156.8716 N   0  0  0  0  0  0  0  0  0  0  0  0
  150.9170  140.1580  155.8935 C   0  0  0  0  0  0  0  0  0  0  0  0
  150.4191  139.4730  154.6658 C   0  0  0  0  0  0  0  0  0  0  0  0
  148.9102  139.6780  154.4574 C   0  0  0  0  0  0  0  0  0  0  0  0
  148.3531  138.6913  153.5401 N   0  0  0  0  0  0  0  0  0  0  0  0
  147.0485  138.4143  153.4110 C   0  0  0  0  0  0  0  0  0  0  0  0
  146.1586  138.9621  154.0620 O   0  0  0  0  0  0  0  0  0  0  0  0
  146.8320  137.4670  152.4883 N   0  0  0  0  0  0  0  0  0  0  0  0
  145.5227  136.9380  152.1112 C   0  0  2  0  0  0  0  0  0  0  0  0
  144.7747  136.3490  153.3257 C   0  0  0  0  0  0  0  0  0  0  0  0
  143.4000  135.7982  152.9136 C   0  0  0  0  0  0  0  0  0  0  0  0
  143.5242  134.7626  151.7842 C   0  0  0  0  0  0  0  0  0  0  0  0
  144.2830  135.3358  150.5729 C   0  0  0  0  0  0  0  0  0  0  0  0
  145.6589  135.9076  150.9670 C   0  0  2  0  0  0  0  0  0  0  0  0
  146.5089  134.8390  151.3427 O   0  0  0  0  0  0  0  0  0  0  0  0
  150.6245  141.8591  156.2342 S   0  0  0  0  0  0  0  0  0  0  0  0
  152.5202  143.3344  160.6064 H   0  0  0  0  0  0  0  0  0  0  0  0
  153.4183  142.1181  159.7023 H   0  0  0  0  0  0  0  0  0  0  0  0
  151.9194  141.6807  160.5215 H   0  0  0  0  0  0  0  0  0  0  0  0
  150.6419  143.2026  158.9762 H   0  0  0  0  0  0  0  0  0  0  0  0
  152.1233  143.6469  158.1745 H   0  0  0  0  0  0  0  0  0  0  0  0
  152.4364  139.9864  158.7758 H   0  0  0  0  0  0  0  0  0  0  0  0
  150.9739  139.8534  153.8073 H   0  0  0  0  0  0  0  0  0  0  0  0
  150.6520  138.4100  154.7417 H   0  0  0  0  0  0  0  0  0  0  0  0
  148.3838  139.6405  155.4127 H   0  0  0  0  0  0  0  0  0  0  0  0
  148.7249  140.6680  154.0397 H   0  0  0  0  0  0  0  0  0  0  0  0
  149.0077  138.1868  152.9605 H   0  0  0  0  0  0  0  0  0  0  0  0
  147.6320  137.0793  152.0110 H   0  0  0  0  0  0  0  0  0  0  0  0
  144.9272  137.7671  151.7232 H   0  0  0  0  0  0  0  0  0  0  0  0
  145.3665  135.5545  153.7822 H   0  0  0  0  0  0  0  0  0  0  0  0
  144.6419  137.1127  154.0931 H   0  0  0  0  0  0  0  0  0  0  0  0
  142.9061  135.3497  153.7761 H   0  0  0  0  0  0  0  0  0  0  0  0
  142.7625  136.6199  152.5851 H   0  0  0  0  0  0  0  0  0  0  0  0
  144.0403  133.8770  152.1568 H   0  0  0  0  0  0  0  0  0  0  0  0
  142.5326  134.4309  151.4756 H   0  0  0  0  0  0  0  0  0  0  0  0
  144.3968  134.5693  149.8053 H   0  0  0  0  0  0  0  0  0  0  0  0
  143.6839  136.1284  150.1229 H   0  0  0  0  0  0  0  0  0  0  0  0
  146.1061  136.3889  150.0964 H   0  0  0  0  0  0  0  0  0  0  0  0
  147.2547  135.1950  151.7998 H   0  0  0  0  0  0  0  0  0  0  0  0
  1  2  1  0  0  0  0
  1 21  1  0  0  0  0
  1 22  1  0  0  0  0
  1 23  1  0  0  0  0
  2  3  1  0  0  0  0
  2 24  1  0  0  0  0
  2 25  1  0  0  0  0
  3 20  1  0  0  0  0
  3  4  2  0  0  0  0
  4  5  1  0  0  0  0
  4 26  1  0  0  0  0
  5  6  2  0  0  0  0
  6  7  1  0  0  0  0
  6 20  1  0  0  0  0
  7  8  1  0  0  0  0
  7 27  1  0  0  0  0
  7 28  1  0  0  0  0
  8  9  1  0  0  0  0
  8 29  1  0  0  0  0
  8 30  1  0  0  0  0
  9 10  1  0  0  0  0
  9 31  1  0  0  0  0
 10 11  2  0  0  0  0
 10 12  1  0  0  0  0
 12 13  1  0  0  0  0
 12 32  1  0  0  0  0
 13 18  1  0  0  0  0
 13 14  1  0  0  0  0
 13 33  1  0  0  0  0
 14 15  1  0  0  0  0
 14 34  1  0  0  0  0
 14 35  1  0  0  0  0
 15 16  1  0  0  0  0
 15 36  1  0  0  0  0
 15 37  1  0  0  0  0
 16 17  1  0  0  0  0
 16 38  1  0  0  0  0
 16 39  1  0  0  0  0
 17 18  1  0  0  0  0
 17 40  1  0  0  0  0
 17 41  1  0  0  0  0
 18 19  1  0  0  0  0
 18 42  1  0  0  0  0
 19 43  1  0  0  0  0
M  END
> <s_m_source_file>
AV-unprocessed.smi

> <i_m_source_file_index>
928

> <i_lp_mmshare_version>
43012

> <i_f3d_flags>
0

> <s_epik_input>
W0NIM11bQ0gyXWMxW2NIXW5jKHMxKVtDSDJdW0NIMl1bTkhdQyg9TylbTkhdW0NAQEhdMltDSDJdW0NIMl1bQ0gyXVtDSDJdW0NASF0yW09IXQ==

> <s_epik_cmdline>
J2VwaWtfcHl0aG9uJywgJy1waCcsICc3LjAnLCAnLXRuJywgJzgnLCAnLW1hJywgJzIwMCcsICctbWV0YWxfYmluZGluZycsICctaW1hZScsICc8aW5maWxlLm1hZT4nLCAnLW9tYWUnLCAnPG91dGZpbGUubWFlPic=

> <r_epik_Ionization_Penalty>
0.000957396

> <r_epik_Ionization_Penalty_Charging>
0

> <r_epik_Ionization_Penalty_Neutral>
0.000957396

> <r_epik_State_Penalty>
0.000586538

> <r_epik_Charging_Adjusted_Penalty>
0.000586538

> <i_epik_Tot_Q>
0

> <i_epik_Tot_abs_Q>
0

> <r_epik_Metal_State_Penalty>
-0

> <b_epik_Metal_Only>
0

> <s_lp_Force_Field>
OPLS_2005

> <r_lp_Energy>
-0.721606

> <b_lp_Chiralities_Consistent>
1

> <s_lp_Variant>
AV-unprocessed.smi:928-3

> <Gold.Version>
5.8.1

> <Gold.Id.Protein>
6NUR|6NUR_protein|mol2

> <Gold.PLP.Fitness>
44.8670

> <Gold.PLP.PLP>
-38.0216

> <Gold.PLP.part.hbond>
-3.9199

> <Gold.PLP.part.metal>
0.0000

> <Gold.PLP.part.buried>
-4.8313

> <Gold.PLP.part.nonpolar>
-30.1447

> <Gold.PLP.part.repulsive>
0.2387

> <Gold.PLP.ligand.clash>
0.0000

> <Gold.PLP.ligand.torsion>
0.2395

> <Gold.PLP.Chemscore.Hbond>
2.4329

> <Gold.PLP.Chemscore.CHOScore>
0.0000

> <Gold.PLP.Chemscore.Metal>
0.0000

> <Gold.Chemscore.Hbonds>
donor molecule, donor type, donor heavy atom, donor atom, acceptor molecule, acceptor atom, score
      L1  H     9    31       P1  7948  0.39
      L1  H    12    32       P1  7948  1.00
      L1  H    19    43       P1  7948  1.00

> <Gold.PLP.Chemscore.Internal.Correction>
0.0258

> <Gold.Rescore>
     Score         DG    S(hbond)    S(metal)    S(lipo)     H(rot)  DE(clash)    DE(int)     intcor
     18.44     -18.78       2.48        0.00      91.17       2.21       0.02       0.32       ----

> <Gold.Chemscore.Fitness>
18.4410

> <Gold.Chemscore.DG>
-18.7757

> <Gold.Chemscore.ZeroCoef>
-5.4800

> <Gold.Chemscore.Hbond>
2.4798

> <Gold.Chemscore.Metal>
0.0000

> <Gold.Chemscore.Lipo>
91.1673

> <Gold.Chemscore.Internal_Hbond>
0.0000

> <Gold.Chemscore.DEClash>
0.0191

> <Gold.Chemscore.DEInternal>
0.3156

> <Gold.Chemscore.Rot>
2.2084

> <Gold.Chemscore.Internal.Correction>
   9.000000E+99

> <Gold.Chemscore.Hbonds>
donor molecule, donor type, donor heavy atom, donor atom, acceptor molecule, acceptor atom, score
      L1  H     9    31       P1  7948  0.39
      L1  H    12    32       P1  7948  0.95
      L1  H    19    43       P1  7948  0.91

> <Gold.Chemscore.Hbond.Weighted>
-8.2826

> <Gold.Chemscore.Metal.Weighted>
-0.0000

> <Gold.Chemscore.Lipo.Weighted>
-10.6666

> <Gold.Chemscore.Internal_Hbond.Weighted>
0.0000

> <Gold.Chemscore.DEClash.Weighted>
0.0191

> <Gold.Chemscore.DEInternal.Weighted>
0.3156

> <Gold.Chemscore.Rot.Weighted>
5.6535

> <Gold.Chemscore.Internal.Correction.Weighted>
   9.000000E+99

> <Gold.Protein.RotatedTorsions>
[ 6907 6896 6895 6894 ] final -172.45 input  -60.11 | X-H torsion
[ 7974 7965 7964 7962 ] final  -47.58 input  175.53 | X-H torsion
[ 8008 7997 7996 7995 ] final  -47.77 input   59.86 | X-H torsion
[ 10167 10162 10161 10158 ] final  -59.78 input  -65.29 | X-H torsion
[ 10718 10713 10712 10709 ] final  107.87 input   66.30 | X-H torsion
[ 10763 10752 10751 10750 ] final  -51.46 input  -60.55 | X-H torsion
[ 11005 11000 10999 10996 ] final -140.05 input  -57.11 | X-H torsion

> <Gold.Protein.ActiveResidues>
 VAL166  LYS551  ARG553  GLY616  TRP617  ASP618  TYR619  PRO620  LYS621  CYS622 
 ASP623  PHE694  ASN695  SER759  ASP760  ASP761  ALA762  ILE779  LEU786  VAL792 
 PHE793  MET794  SER795  GLU796  ALA797  LYS798  CYS799  TRP800  GLU811  SER814 

> <Gold.Protein.RotatedAtoms>
  151.5402  133.3434  159.2933 H   0  0  0  0  0  0  0  0  0  0  0  0  # atno 6907 bound_to 6896
  150.8540  134.7876  159.7042 H   0  0  0  0  0  0  0  0  0  0  0  0  # atno 6908 bound_to 6896
  152.4579  134.5259  159.9848 H   0  0  0  0  0  0  0  0  0  0  0  0  # atno 6909 bound_to 6896
  145.9601  140.7487  142.9461 H   0  0  0  0  0  0  0  0  0  0  0  0  # atno 7974 bound_to 7965
  154.4020  140.1338  156.4230 H   0  0  0  0  0  0  0  0  0  0  0  0  # atno 8008 bound_to 7997
  155.7625  140.3486  155.5185 H   0  0  0  0  0  0  0  0  0  0  0  0  # atno 8009 bound_to 7997
  155.8845  140.0993  157.1452 H   0  0  0  0  0  0  0  0  0  0  0  0  # atno 8010 bound_to 7997
  140.6113  143.2388  151.5701 H   0  0  0  0  0  0  0  0  0  0  0  0  # atno 10167 bound_to 10162
  157.6610  131.0882  150.6220 H   0  0  0  0  0  0  0  0  0  0  0  0  # atno 10718 bound_to 10713
  154.1269  135.6526  153.4914 H   0  0  0  0  0  0  0  0  0  0  0  0  # atno 10763 bound_to 10752
  153.0207  135.5283  154.7040 H   0  0  0  0  0  0  0  0  0  0  0  0  # atno 10764 bound_to 10752
  154.6264  135.2971  155.0238 H   0  0  0  0  0  0  0  0  0  0  0  0  # atno 10765 bound_to 10752
  140.8460  134.2344  157.4785 H   0  0  0  0  0  0  0  0  0  0  0  0  # atno 11005 bound_to 11000
  144.6813  140.2577  143.7323 LP  0  0  0  0  0  0  0  0  0  0  0  0  # atno 17320 bound_to 7965
  145.8051  139.1980  143.2025 LP  0  0  0  0  0  0  0  0  0  0  0  0  # atno 17321 bound_to 7965
  139.5364  144.2770  152.1259 LP  0  0  0  0  0  0  0  0  0  0  0  0  # atno 17342 bound_to 10162
  140.1970  144.4696  150.6450 LP  0  0  0  0  0  0  0  0  0  0  0  0  # atno 17343 bound_to 10162
  156.6523  130.4488  149.5715 LP  0  0  0  0  0  0  0  0  0  0  0  0  # atno 17370 bound_to 10713
  156.2128  130.6689  151.1288 LP  0  0  0  0  0  0  0  0  0  0  0  0  # atno 17371 bound_to 10713
  139.8703  134.9659  156.4546 LP  0  0  0  0  0  0  0  0  0  0  0  0  # atno 17394 bound_to 11000
  140.8843  133.7895  155.9501 LP  0  0  0  0  0  0  0  0  0  0  0  0  # atno 17395 bound_to 11000

$$$$
