AV-unprocessed.smi:1803|AV-procd|sdf|7292|dock1
  -GOLD-   22720 8543D 1   1.00000     0.00000
 Structure written by MMmdl.
 35 37  0  0  0  0  0  0  0  0  3 V2000
  152.3945  139.9002  155.8713 O   0  0  0  0  0  0  0  0  0  0  0  0
  151.1852  140.0704  155.7215 C   0  0  0  0  0  0  0  0  0  0  0  0
  150.5900  140.1800  154.5054 N   0  5  0  0  0  0  0  0  0  0  0  0
  149.2823  139.9251  154.3122 C   0  0  0  0  0  0  0  0  0  0  0  0
  148.7490  138.7072  154.5014 N   0  0  0  0  0  0  0  0  0  0  0  0
  147.3867  138.6615  154.2380 N   0  0  0  0  0  0  0  0  0  0  0  0
  146.9230  139.8543  153.8660 C   0  0  0  0  0  0  0  0  0  0  0  0
  148.1098  141.1399  153.7964 S   0  0  0  0  0  0  0  0  0  0  0  0
  150.4015  140.1558  156.8126 N   0  0  0  0  0  0  0  0  0  0  0  0
  150.8491  140.0579  158.1961 C   0  0  1  0  0  0  0  0  0  0  0  0
  151.6598  138.7846  158.5058 C   0  0  0  0  0  0  0  0  0  0  0  0
  152.7745  139.2361  159.4701 C   0  0  0  0  0  0  0  0  0  0  0  0
  152.5026  140.6611  159.7405 N   0  3  1  0  0  0  0  0  0  0  0  0
  153.6457  141.5003  160.1613 C   0  0  0  0  0  0  0  0  0  0  0  0
  153.1450  142.9271  160.4659 C   0  0  0  0  0  0  0  0  0  0  0  0
  152.3464  143.5193  159.2860 C   0  0  0  0  0  0  0  0  0  0  0  0
  151.2286  142.5596  158.8340 C   0  0  0  0  0  0  0  0  0  0  0  0
  151.8299  141.1761  158.5393 C   0  0  2  0  0  0  0  0  0  0  0  0
  145.8764  139.9780  153.6311 H   0  0  0  0  0  0  0  0  0  0  0  0
  149.4141  140.3020  156.6613 H   0  0  0  0  0  0  0  0  0  0  0  0
  149.9912  140.1150  158.8693 H   0  0  0  0  0  0  0  0  0  0  0  0
  151.0261  138.0149  158.9473 H   0  0  0  0  0  0  0  0  0  0  0  0
  152.1020  138.3649  157.6009 H   0  0  0  0  0  0  0  0  0  0  0  0
  152.7821  138.6611  160.3962 H   0  0  0  0  0  0  0  0  0  0  0  0
  153.7492  139.1230  158.9926 H   0  0  0  0  0  0  0  0  0  0  0  0
  154.1119  141.0671  161.0467 H   0  0  0  0  0  0  0  0  0  0  0  0
  154.4013  141.5206  159.3744 H   0  0  0  0  0  0  0  0  0  0  0  0
  152.5094  142.9041  161.3522 H   0  0  0  0  0  0  0  0  0  0  0  0
  153.9877  143.5749  160.7090 H   0  0  0  0  0  0  0  0  0  0  0  0
  151.9228  144.4845  159.5648 H   0  0  0  0  0  0  0  0  0  0  0  0
  153.0216  143.7079  158.4503 H   0  0  0  0  0  0  0  0  0  0  0  0
  150.4687  142.4822  159.6126 H   0  0  0  0  0  0  0  0  0  0  0  0
  150.7308  142.9527  157.9469 H   0  0  0  0  0  0  0  0  0  0  0  0
  152.5684  141.2638  157.7385 H   0  0  0  0  0  0  0  0  0  0  0  0
  151.8178  140.6867  160.4825 H   0  0  0  0  0  0  0  0  0  0  0  0
  1  2  2  0  0  0  0
  2  3  1  0  0  0  0
  2  9  1  0  0  0  0
  3  4  1  0  0  0  0
  4  8  1  0  0  0  0
  4  5  2  0  0  0  0
  5  6  1  0  0  0  0
  6  7  2  0  0  0  0
  7  8  1  0  0  0  0
  7 19  1  0  0  0  0
  9 10  1  0  0  0  0
  9 20  1  0  0  0  0
 10 18  1  0  0  0  0
 10 11  1  0  0  0  0
 10 21  1  0  0  0  0
 11 12  1  0  0  0  0
 11 22  1  0  0  0  0
 11 23  1  0  0  0  0
 12 13  1  0  0  0  0
 12 24  1  0  0  0  0
 12 25  1  0  0  0  0
 13 18  1  0  0  0  0
 13 14  1  0  0  0  0
 13 35  1  0  0  0  0
 14 15  1  0  0  0  0
 14 26  1  0  0  0  0
 14 27  1  0  0  0  0
 15 16  1  0  0  0  0
 15 28  1  0  0  0  0
 15 29  1  0  0  0  0
 16 17  1  0  0  0  0
 16 30  1  0  0  0  0
 16 31  1  0  0  0  0
 17 18  1  0  0  0  0
 17 32  1  0  0  0  0
 17 33  1  0  0  0  0
 18 34  1  0  0  0  0
M  CHG  1   3  -1
M  CHG  1  13   1
M  END
> <s_m_source_file>
AV-unprocessed.smi

> <i_m_source_file_index>
1803

> <i_lp_mmshare_version>
43012

> <i_f3d_flags>
0

> <s_epik_input>
czFbY0hdbm5jMVtOSF1DKD1PKVtOSF1bQ0BIXShbQ0gyXVtDSDJdMilbQ0BASF0oTjIzKVtDSDJdW0NIMl1bQ0gyXVtDSDJdMw==

> <s_epik_cmdline>
J2VwaWtfcHl0aG9uJywgJy1waCcsICc3LjAnLCAnLXRuJywgJzgnLCAnLW1hJywgJzIwMCcsICctbWV0YWxfYmluZGluZycsICctaW1hZScsICc8aW5maWxlLm1hZT4nLCAnLW9tYWUnLCAnPG91dGZpbGUubWFlPic=

> <r_lp_tautomer_probability>
1

> <r_epik_Ionization_Penalty>
3.78828

> <r_epik_Ionization_Penalty_Charging>
3.7591

> <r_epik_Ionization_Penalty_Neutral>
0.0291838

> <r_epik_State_Penalty>
3.757

> <r_epik_Charging_Adjusted_Penalty>
7.51609

> <i_epik_Tot_Q>
0

> <i_epik_Tot_abs_Q>
2

> <r_epik_Metal_State_Penalty>
0.558016

> <b_epik_Metal_Only>
1

> <s_lp_Force_Field>
OPLS_2005

> <r_lp_Energy>
28.5802

> <b_lp_Chiralities_Consistent>
1

> <s_lp_Variant>
AV-unprocessed.smi:1803-14

> <Gold.Version>
5.8.1

> <Gold.Id.Protein>
6NUR|6NUR_protein|mol2

> <Gold.PLP.Fitness>
39.7829

> <Gold.PLP.PLP>
-32.2580

> <Gold.PLP.part.hbond>
-2.0000

> <Gold.PLP.part.metal>
0.0000

> <Gold.PLP.part.buried>
-4.1786

> <Gold.PLP.part.nonpolar>
-27.0376

> <Gold.PLP.part.repulsive>
0.5553

> <Gold.PLP.ligand.clash>
0.0320

> <Gold.PLP.ligand.torsion>
0.7350

> <Gold.PLP.Chemscore.Hbond>
2.0000

> <Gold.PLP.Chemscore.CHOScore>
1.0000

> <Gold.PLP.Chemscore.Metal>
0.0000

> <Gold.Chemscore.Hbonds>
donor molecule, donor type, donor heavy atom, donor atom, acceptor molecule, acceptor atom, score
      P1  H  7989  7998       L1     3  1.00
      P1  H  7997  8010       L1     1  1.00
      L1  C     7    19       P1 10175  1.00

> <Gold.PLP.Chemscore.Internal.Correction>
0.0268

> <Gold.Rescore>
     Score         DG    S(hbond)    S(metal)    S(lipo)     H(rot)  DE(clash)    DE(int)     intcor
     16.23     -18.36       1.89        0.00      77.94       1.00       0.11       2.02       ----

> <Gold.Chemscore.Fitness>
16.2334

> <Gold.Chemscore.DG>
-18.3601

> <Gold.Chemscore.ZeroCoef>
-5.4800

> <Gold.Chemscore.Hbond>
1.8925

> <Gold.Chemscore.Metal>
0.0000

> <Gold.Chemscore.Lipo>
77.9411

> <Gold.Chemscore.Internal_Hbond>
0.0000

> <Gold.Chemscore.DEClash>
0.1071

> <Gold.Chemscore.DEInternal>
2.0195

> <Gold.Chemscore.Rot>
1.0000

> <Gold.Chemscore.Internal.Correction>
   9.000000E+99

> <Gold.Chemscore.Hbonds>
donor molecule, donor type, donor heavy atom, donor atom, acceptor molecule, acceptor atom, score
      P1  H  7989  7998       L1     3  0.69
      P1  H  7997  8010       L1     1  0.97

> <Gold.Chemscore.Hbond.Weighted>
-6.3210

> <Gold.Chemscore.Metal.Weighted>
-0.0000

> <Gold.Chemscore.Lipo.Weighted>
-9.1191

> <Gold.Chemscore.Internal_Hbond.Weighted>
0.0000

> <Gold.Chemscore.DEClash.Weighted>
0.1071

> <Gold.Chemscore.DEInternal.Weighted>
2.0195

> <Gold.Chemscore.Rot.Weighted>
2.5600

> <Gold.Chemscore.Internal.Correction.Weighted>
   9.000000E+99

> <Gold.Protein.RotatedTorsions>
[ 6907 6896 6895 6894 ] final  102.68 input  -60.11 | X-H torsion
[ 7974 7965 7964 7962 ] final  129.35 input  175.53 | X-H torsion
[ 8008 7997 7996 7995 ] final   86.71 input   59.86 | X-H torsion
[ 10167 10162 10161 10158 ] final  131.73 input  -65.29 | X-H torsion
[ 10718 10713 10712 10709 ] final -113.39 input   66.30 | X-H torsion
[ 10763 10752 10751 10750 ] final   60.59 input  -60.55 | X-H torsion
[ 11005 11000 10999 10996 ] final  133.93 input  -57.11 | X-H torsion

> <Gold.Protein.ActiveResidues>
 VAL166  LYS551  ARG553  GLY616  TRP617  ASP618  TYR619  PRO620  LYS621  CYS622 
 ASP623  PHE694  ASN695  SER759  ASP760  ASP761  ALA762  ILE779  LEU786  VAL792 
 PHE793  MET794  SER795  GLU796  ALA797  LYS798  CYS799  TRP800  GLU811  SER814 

> <Gold.Protein.RotatedAtoms>
  152.5317  133.9940  159.7863 H   0  0  0  0  0  0  0  0  0  0  0  0  # atno 6907 bound_to 6896
  151.0171  133.5903  159.2683 H   0  0  0  0  0  0  0  0  0  0  0  0  # atno 6908 bound_to 6896
  151.2957  135.0761  159.9273 H   0  0  0  0  0  0  0  0  0  0  0  0  # atno 6909 bound_to 6896
  145.0296  139.4058  143.5156 H   0  0  0  0  0  0  0  0  0  0  0  0  # atno 7974 bound_to 7965
  155.9662  140.3389  155.6534 H   0  0  0  0  0  0  0  0  0  0  0  0  # atno 8008 bound_to 7997
  155.6734  140.0729  157.2530 H   0  0  0  0  0  0  0  0  0  0  0  0  # atno 8009 bound_to 7997
  154.4155  140.1687  156.1891 H   0  0  0  0  0  0  0  0  0  0  0  0  # atno 8010 bound_to 7997
  139.5371  144.6693  151.4750 H   0  0  0  0  0  0  0  0  0  0  0  0  # atno 10167 bound_to 10162
  156.0764  130.5970  150.8636 H   0  0  0  0  0  0  0  0  0  0  0  0  # atno 10718 bound_to 10713
  152.9925  135.5531  154.5898 H   0  0  0  0  0  0  0  0  0  0  0  0  # atno 10763 bound_to 10752
  154.5262  135.2810  155.1222 H   0  0  0  0  0  0  0  0  0  0  0  0  # atno 10764 bound_to 10752
  154.2555  135.6391  153.5308 H   0  0  0  0  0  0  0  0  0  0  0  0  # atno 10765 bound_to 10752
  139.9883  134.9524  156.9795 H   0  0  0  0  0  0  0  0  0  0  0  0  # atno 11005 bound_to 11000
  146.3497  139.9838  142.8693 LP  0  0  0  0  0  0  0  0  0  0  0  0  # atno 17320 bound_to 7965
  145.1788  140.9757  143.4278 LP  0  0  0  0  0  0  0  0  0  0  0  0  # atno 17321 bound_to 7965
  140.6582  143.8554  150.6859 LP  0  0  0  0  0  0  0  0  0  0  0  0  # atno 17342 bound_to 10162
  140.1940  143.4013  152.1842 LP  0  0  0  0  0  0  0  0  0  0  0  0  # atno 17343 bound_to 10162
  157.5861  131.0945  150.9194 LP  0  0  0  0  0  0  0  0  0  0  0  0  # atno 17370 bound_to 10713
  156.9380  130.5374  149.5280 LP  0  0  0  0  0  0  0  0  0  0  0  0  # atno 17371 bound_to 10713
  140.4959  134.1146  155.7241 LP  0  0  0  0  0  0  0  0  0  0  0  0  # atno 17394 bound_to 11000
  141.1544  133.8910  157.2016 LP  0  0  0  0  0  0  0  0  0  0  0  0  # atno 17395 bound_to 11000

$$$$
