AV-unprocessed.smi:1558|AV-procd|sdf|6272|dock4
  -GOLD-   22720 6463D 1   1.00000     0.00000
 Structure written by MMmdl.
 36 37  0  0  0  0  0  0  0  0  1 V2000
  143.5766  133.2187  150.7184 N   0  0  0  0  0  0  0  0  0  0  0  0
  143.9010  132.3018  149.8030 C   0  0  0  0  0  0  0  0  0  0  0  0
  143.2468  132.1390  148.7752 O   0  0  0  0  0  0  0  0  0  0  0  0
  145.1366  131.4437  150.0804 C   0  0  0  0  0  0  0  0  0  0  0  0
  145.9034  131.9733  151.1941 N   0  0  0  0  0  0  0  0  0  0  0  0
  146.7129  133.0925  151.2170 C   0  0  0  0  0  0  0  0  0  0  0  0
  147.2067  133.1669  152.4885 C   0  0  0  0  0  0  0  0  0  0  0  0
  148.0876  134.1215  153.0566 N   0  0  0  0  0  0  0  0  0  0  0  0
  148.7411  134.0321  154.2263 C   0  0  0  0  0  0  0  0  0  0  0  0
  148.6789  133.0763  154.9997 O   0  0  0  0  0  0  0  0  0  0  0  0
  149.4854  135.1238  154.4521 N   0  0  0  0  0  0  0  0  0  0  0  0
  150.3278  135.3459  155.6230 C   0  0  0  0  0  0  0  0  0  0  0  0
  150.8646  136.7862  155.6757 C   0  0  2  0  0  0  0  0  0  0  0  0
  149.9295  137.8512  155.1027 C   0  0  0  0  0  0  0  0  0  0  0  0
  150.9032  138.9576  154.7687 C   0  0  0  0  0  0  0  0  0  0  0  0
  152.1127  138.1737  154.2652 C   0  0  0  0  0  0  0  0  0  0  0  0
  152.0531  136.8973  154.8988 O   0  0  0  0  0  0  0  0  0  0  0  0
  146.6567  132.0585  153.1828 C   0  0  0  0  0  0  0  0  0  0  0  0
  145.8705  131.3417  152.3943 N   0  0  0  0  0  0  0  0  0  0  0  0
  142.7676  133.8054  150.5734 H   0  0  0  0  0  0  0  0  0  0  0  0
  144.1381  133.3233  151.5509 H   0  0  0  0  0  0  0  0  0  0  0  0
  144.8328  130.4190  150.3011 H   0  0  0  0  0  0  0  0  0  0  0  0
  145.7784  131.4037  149.1992 H   0  0  0  0  0  0  0  0  0  0  0  0
  146.8543  133.7144  150.3457 H   0  0  0  0  0  0  0  0  0  0  0  0
  148.2349  134.9608  152.5153 H   0  0  0  0  0  0  0  0  0  0  0  0
  149.4725  135.8577  153.7592 H   0  0  0  0  0  0  0  0  0  0  0  0
  149.7198  135.1548  156.5075 H   0  0  0  0  0  0  0  0  0  0  0  0
  151.1497  134.6288  155.6589 H   0  0  0  0  0  0  0  0  0  0  0  0
  151.1220  137.0502  156.7030 H   0  0  0  0  0  0  0  0  0  0  0  0
  149.4467  137.4915  154.1930 H   0  0  0  0  0  0  0  0  0  0  0  0
  149.1539  138.1608  155.8038 H   0  0  0  0  0  0  0  0  0  0  0  0
  150.5161  139.6646  154.0343 H   0  0  0  0  0  0  0  0  0  0  0  0
  151.1631  139.5103  155.6725 H   0  0  0  0  0  0  0  0  0  0  0  0
  152.0518  138.0264  153.1865 H   0  0  0  0  0  0  0  0  0  0  0  0
  153.0522  138.6814  154.4847 H   0  0  0  0  0  0  0  0  0  0  0  0
  146.7982  131.7559  154.2097 H   0  0  0  0  0  0  0  0  0  0  0  0
  1  2  1  0  0  0  0
  1 20  1  0  0  0  0
  1 21  1  0  0  0  0
  2  3  2  0  0  0  0
  2  4  1  0  0  0  0
  4  5  1  0  0  0  0
  4 22  1  0  0  0  0
  4 23  1  0  0  0  0
  5 19  1  0  0  0  0
  5  6  1  0  0  0  0
  6  7  2  0  0  0  0
  6 24  1  0  0  0  0
  7  8  1  0  0  0  0
  7 18  1  0  0  0  0
  8  9  1  0  0  0  0
  8 25  1  0  0  0  0
  9 10  2  0  0  0  0
  9 11  1  0  0  0  0
 11 12  1  0  0  0  0
 11 26  1  0  0  0  0
 12 13  1  0  0  0  0
 12 27  1  0  0  0  0
 12 28  1  0  0  0  0
 13 17  1  0  0  0  0
 13 14  1  0  0  0  0
 13 29  1  0  0  0  0
 14 15  1  0  0  0  0
 14 30  1  0  0  0  0
 14 31  1  0  0  0  0
 15 16  1  0  0  0  0
 15 32  1  0  0  0  0
 15 33  1  0  0  0  0
 16 17  1  0  0  0  0
 16 34  1  0  0  0  0
 16 35  1  0  0  0  0
 18 19  2  0  0  0  0
 18 36  1  0  0  0  0
M  END
> <s_m_source_file>
AV-unprocessed.smi

> <i_m_source_file_index>
1558

> <i_lp_mmshare_version>
43012

> <i_f3d_flags>
0

> <s_epik_input>
W05IMl1DKD1PKVtDSDJdbjFbY0hdYyhbY0hdbjEpW05IXUMoPU8pW05IXVtDSDJdW0NAQEhdMltDSDJdW0NIMl1bQ0gyXU8y

> <s_epik_cmdline>
J2VwaWtfcHl0aG9uJywgJy1waCcsICc3LjAnLCAnLXRuJywgJzgnLCAnLW1hJywgJzIwMCcsICctbWV0YWxfYmluZGluZycsICctaW1hZScsICc8aW5maWxlLm1hZT4nLCAnLW9tYWUnLCAnPG91dGZpbGUubWFlPic=

> <r_lp_tautomer_probability>
1

> <r_epik_Ionization_Penalty>
4.01684e-05

> <r_epik_Ionization_Penalty_Charging>
0

> <r_epik_Ionization_Penalty_Neutral>
4.01684e-05

> <r_epik_State_Penalty>
-0

> <r_epik_Charging_Adjusted_Penalty>
0

> <i_epik_Tot_Q>
0

> <i_epik_Tot_abs_Q>
0

> <r_epik_Metal_State_Penalty>
-0

> <b_epik_Metal_Only>
0

> <s_lp_Force_Field>
OPLS_2005

> <r_lp_Energy>
20.4808

> <b_lp_Chiralities_Consistent>
1

> <s_lp_Variant>
AV-unprocessed.smi:1558-1

> <Gold.Version>
5.8.1

> <Gold.Id.Protein>
6NUR|6NUR_protein|mol2

> <Gold.PLP.Fitness>
44.7247

> <Gold.PLP.PLP>
-31.9734

> <Gold.PLP.part.hbond>
-5.0000

> <Gold.PLP.part.metal>
0.0000

> <Gold.PLP.part.buried>
-6.4819

> <Gold.PLP.part.nonpolar>
-22.9713

> <Gold.PLP.part.repulsive>
0.6471

> <Gold.PLP.ligand.clash>
0.0000

> <Gold.PLP.ligand.torsion>
0.6680

> <Gold.PLP.Chemscore.Hbond>
4.6830

> <Gold.PLP.Chemscore.CHOScore>
0.0000

> <Gold.PLP.Chemscore.Metal>
0.0000

> <Gold.Chemscore.Hbonds>
donor molecule, donor type, donor heavy atom, donor atom, acceptor molecule, acceptor atom, score
      L1  H     1    20       P1 10186  0.76
      L1  H     8    25       P1  7948  1.00
      L1  H    11    26       P1  7948  0.83
      P1  H 10752 10764       L1    17  0.99
      P1  H 10785 10796       L1     3  0.91

> <Gold.PLP.Chemscore.Internal.Correction>
0.0384

> <Gold.Rescore>
     Score         DG    S(hbond)    S(metal)    S(lipo)     H(rot)  DE(clash)    DE(int)     intcor
     15.99     -18.11       3.65        0.00      54.86       2.33       0.20       1.93       ----

> <Gold.Chemscore.Fitness>
15.9870

> <Gold.Chemscore.DG>
-18.1149

> <Gold.Chemscore.ZeroCoef>
-5.4800

> <Gold.Chemscore.Hbond>
3.6472

> <Gold.Chemscore.Metal>
0.0000

> <Gold.Chemscore.Lipo>
54.8626

> <Gold.Chemscore.Internal_Hbond>
0.0000

> <Gold.Chemscore.DEClash>
0.1966

> <Gold.Chemscore.DEInternal>
1.9314

> <Gold.Chemscore.Rot>
2.3303

> <Gold.Chemscore.Internal.Correction>
   9.000000E+99

> <Gold.Chemscore.Hbonds>
donor molecule, donor type, donor heavy atom, donor atom, acceptor molecule, acceptor atom, score
      L1  H     1    20       P1 10186  0.71
      L1  H     8    25       P1  7948  0.62
      L1  H    11    26       P1  7948  0.41
      P1  H 10752 10764       L1    17  0.91
      P1  H 10785 10796       L1     3  0.22

> <Gold.Chemscore.Hbond.Weighted>
-12.1816

> <Gold.Chemscore.Metal.Weighted>
-0.0000

> <Gold.Chemscore.Lipo.Weighted>
-6.4189

> <Gold.Chemscore.Internal_Hbond.Weighted>
0.0000

> <Gold.Chemscore.DEClash.Weighted>
0.1966

> <Gold.Chemscore.DEInternal.Weighted>
1.9314

> <Gold.Chemscore.Rot.Weighted>
5.9656

> <Gold.Chemscore.Internal.Correction.Weighted>
   9.000000E+99

> <Gold.Protein.RotatedTorsions>
[ 6907 6896 6895 6894 ] final  -74.77 input  -60.11 | X-H torsion
[ 7974 7965 7964 7962 ] final -141.35 input  175.53 | X-H torsion
[ 8008 7997 7996 7995 ] final -130.48 input   59.86 | X-H torsion
[ 10167 10162 10161 10158 ] final    6.70 input  -65.29 | X-H torsion
[ 10718 10713 10712 10709 ] final -104.22 input   66.30 | X-H torsion
[ 10763 10752 10751 10750 ] final  -64.44 input  -60.55 | X-H torsion
[ 11005 11000 10999 10996 ] final  139.65 input  -57.11 | X-H torsion

> <Gold.Protein.ActiveResidues>
 VAL166  LYS551  ARG553  GLY616  TRP617  ASP618  TYR619  PRO620  LYS621  CYS622 
 ASP623  PHE694  ASN695  SER759  ASP760  ASP761  ALA762  ILE779  LEU786  VAL792 
 PHE793  MET794  SER795  GLU796  ALA797  LYS798  CYS799  TRP800  GLU811  SER814 

> <Gold.Protein.RotatedAtoms>
  150.7081  134.4820  159.5474 H   0  0  0  0  0  0  0  0  0  0  0  0  # atno 6907 bound_to 6896
  152.2455  134.8183  160.0463 H   0  0  0  0  0  0  0  0  0  0  0  0  # atno 6908 bound_to 6896
  151.8949  133.3489  159.3847 H   0  0  0  0  0  0  0  0  0  0  0  0  # atno 6909 bound_to 6896
  144.8526  140.6090  143.5380 H   0  0  0  0  0  0  0  0  0  0  0  0  # atno 7974 bound_to 7965
  155.2965  140.0451  157.3026 H   0  0  0  0  0  0  0  0  0  0  0  0  # atno 8008 bound_to 7997
  154.5511  140.2318  155.8451 H   0  0  0  0  0  0  0  0  0  0  0  0  # atno 8009 bound_to 7997
  156.1968  140.3036  155.9450 H   0  0  0  0  0  0  0  0  0  0  0  0  # atno 8010 bound_to 7997
  140.6413  143.7767  150.7432 H   0  0  0  0  0  0  0  0  0  0  0  0  # atno 10167 bound_to 10162
  156.0296  130.5505  150.7365 H   0  0  0  0  0  0  0  0  0  0  0  0  # atno 10718 bound_to 10713
  154.3301  135.6178  153.5547 H   0  0  0  0  0  0  0  0  0  0  0  0  # atno 10763 bound_to 10752
  152.9812  135.5744  154.4971 H   0  0  0  0  0  0  0  0  0  0  0  0  # atno 10764 bound_to 10752
  154.4656  135.2857  155.1657 H   0  0  0  0  0  0  0  0  0  0  0  0  # atno 10765 bound_to 10752
  140.0270  134.9370  157.0588 H   0  0  0  0  0  0  0  0  0  0  0  0  # atno 11005 bound_to 11000
  145.4469  139.1528  143.3939 LP  0  0  0  0  0  0  0  0  0  0  0  0  # atno 17320 bound_to 7965
  146.2797  140.4593  142.8781 LP  0  0  0  0  0  0  0  0  0  0  0  0  # atno 17321 bound_to 7965
  140.1399  143.4450  152.2200 LP  0  0  0  0  0  0  0  0  0  0  0  0  # atno 17342 bound_to 10162
  139.5622  144.7413  151.4122 LP  0  0  0  0  0  0  0  0  0  0  0  0  # atno 17343 bound_to 10162
  157.4945  131.0913  151.0388 LP  0  0  0  0  0  0  0  0  0  0  0  0  # atno 17370 bound_to 10713
  157.0786  130.5893  149.5416 LP  0  0  0  0  0  0  0  0  0  0  0  0  # atno 17371 bound_to 10713
  140.4290  134.1801  155.7167 LP  0  0  0  0  0  0  0  0  0  0  0  0  # atno 17394 bound_to 11000
  141.1808  133.8417  157.1263 LP  0  0  0  0  0  0  0  0  0  0  0  0  # atno 17395 bound_to 11000

$$$$
