AV-unprocessed.smi:1576|AV-procd|sdf|6344|dock9
  -GOLD-   22720 6563D 1   1.00000     0.00000
 Structure written by MMmdl.
 45 47  0  0  0  0  0  0  0  0  1 V2000
  146.7012  139.7750  154.2897 O   0  0  0  0  0  0  0  0  0  0  0  0
  147.4928  139.0832  153.6502 C   0  0  0  0  0  0  0  0  0  0  0  0
  148.8257  139.0606  153.8230 N   0  0  0  0  0  0  0  0  0  0  0  0
  149.6181  139.8120  154.7332 C   0  0  0  0  0  0  0  0  0  0  0  0
  150.9192  139.4493  155.1524 C   0  0  0  0  0  0  0  0  0  0  0  0
  151.5936  140.2738  156.0735 C   0  0  0  0  0  0  0  0  0  0  0  0
  150.9528  141.4364  156.5622 C   0  0  0  0  0  0  0  0  0  0  0  0
  151.6135  142.2759  157.4853 N   0  0  0  0  0  0  0  0  0  0  0  0
  151.4203  141.9320  158.8955 C   0  0  0  0  0  0  0  0  0  0  0  0
  152.4736  142.6164  159.7838 C   0  0  0  0  0  0  0  0  0  0  0  0
  152.4986  144.1333  159.5438 C   0  0  0  0  0  0  0  0  0  0  0  0
  152.7105  144.4252  158.0512 C   0  0  0  0  0  0  0  0  0  0  0  0
  151.6528  143.7111  157.1926 C   0  0  0  0  0  0  0  0  0  0  0  0
  149.7024  141.7762  156.1642 N   0  0  0  0  0  0  0  0  0  0  0  0
  149.0592  140.9827  155.2829 C   0  0  0  0  0  0  0  0  0  0  0  0
  147.1156  138.2301  152.6873 N   0  0  0  0  0  0  0  0  0  0  0  0
  145.7367  137.9964  152.2676 C   0  0  1  0  0  0  0  0  0  0  0  0
  145.5809  136.6818  151.4756 C   0  0  0  0  0  0  0  0  0  0  0  0
  144.0908  136.3265  151.4017 C   0  0  0  0  0  0  0  0  0  0  0  0
  143.3363  136.9747  152.9408 S   0  0  0  0  0  0  0  0  0  0  0  0
  142.2520  137.9029  152.5864 O   0  0  0  0  0  0  0  0  0  0  0  0
  143.1080  135.8682  153.8824 O   0  0  0  0  0  0  0  0  0  0  0  0
  144.8036  137.9283  153.4851 C   0  0  0  0  0  0  0  0  0  0  0  0
  149.3313  138.3832  153.2712 H   0  0  0  0  0  0  0  0  0  0  0  0
  151.4103  138.5567  154.7986 H   0  0  0  0  0  0  0  0  0  0  0  0
  152.5941  140.0124  156.3849 H   0  0  0  0  0  0  0  0  0  0  0  0
  150.4208  142.2495  159.1953 H   0  0  0  0  0  0  0  0  0  0  0  0
  151.4664  140.8561  159.0590 H   0  0  0  0  0  0  0  0  0  0  0  0
  152.2680  142.4071  160.8338 H   0  0  0  0  0  0  0  0  0  0  0  0
  153.4578  142.1968  159.5711 H   0  0  0  0  0  0  0  0  0  0  0  0
  151.5582  144.5746  159.8760 H   0  0  0  0  0  0  0  0  0  0  0  0
  153.2893  144.5960  160.1350 H   0  0  0  0  0  0  0  0  0  0  0  0
  152.6745  145.4997  157.8699 H   0  0  0  0  0  0  0  0  0  0  0  0
  153.7058  144.0935  157.7527 H   0  0  0  0  0  0  0  0  0  0  0  0
  151.8818  143.8745  156.1386 H   0  0  0  0  0  0  0  0  0  0  0  0
  150.6679  144.1412  157.3796 H   0  0  0  0  0  0  0  0  0  0  0  0
  148.0645  141.2986  155.0042 H   0  0  0  0  0  0  0  0  0  0  0  0
  147.8322  137.6979  152.2158 H   0  0  0  0  0  0  0  0  0  0  0  0
  145.4041  138.8223  151.6355 H   0  0  0  0  0  0  0  0  0  0  0  0
  146.0223  136.7493  150.4808 H   0  0  0  0  0  0  0  0  0  0  0  0
  146.1041  135.8820  152.0016 H   0  0  0  0  0  0  0  0  0  0  0  0
  143.6161  136.8286  150.5584 H   0  0  0  0  0  0  0  0  0  0  0  0
  143.9117  135.2547  151.3145 H   0  0  0  0  0  0  0  0  0  0  0  0
  145.2642  137.3819  154.3086 H   0  0  0  0  0  0  0  0  0  0  0  0
  144.5002  138.9113  153.8459 H   0  0  0  0  0  0  0  0  0  0  0  0
  1  2  2  0  0  0  0
  2  3  1  0  0  0  0
  2 16  1  0  0  0  0
  3  4  1  0  0  0  0
  3 24  1  0  0  0  0
  4 15  1  0  0  0  0
  4  5  2  0  0  0  0
  5  6  1  0  0  0  0
  5 25  1  0  0  0  0
  6  7  2  0  0  0  0
  6 26  1  0  0  0  0
  7  8  1  0  0  0  0
  7 14  1  0  0  0  0
  8 13  1  0  0  0  0
  8  9  1  0  0  0  0
  9 10  1  0  0  0  0
  9 27  1  0  0  0  0
  9 28  1  0  0  0  0
 10 11  1  0  0  0  0
 10 29  1  0  0  0  0
 10 30  1  0  0  0  0
 11 12  1  0  0  0  0
 11 31  1  0  0  0  0
 11 32  1  0  0  0  0
 12 13  1  0  0  0  0
 12 33  1  0  0  0  0
 12 34  1  0  0  0  0
 13 35  1  0  0  0  0
 13 36  1  0  0  0  0
 14 15  2  0  0  0  0
 15 37  1  0  0  0  0
 16 17  1  0  0  0  0
 16 38  1  0  0  0  0
 17 23  1  0  0  0  0
 17 18  1  0  0  0  0
 17 39  1  0  0  0  0
 18 19  1  0  0  0  0
 18 40  1  0  0  0  0
 18 41  1  0  0  0  0
 19 20  1  0  0  0  0
 19 42  1  0  0  0  0
 19 43  1  0  0  0  0
 20 21  2  0  0  0  0
 20 22  2  0  0  0  0
 20 23  1  0  0  0  0
 23 44  1  0  0  0  0
 23 45  1  0  0  0  0
M  END
> <s_m_source_file>
AV-unprocessed.smi

> <i_m_source_file_index>
1576

> <i_lp_mmshare_version>
43012

> <i_f3d_flags>
0

> <s_epik_input>
Tz1TMSg9TylbQ0gyXVtDSDJdW0NASF0oW0NIMl0xKVtOSF1DKD1PKVtOSF1jMltjSF1bY0hdYyhuW2NIXTIpTjNbQ0gyXVtDSDJdW0NIMl1bQ0gyXVtDSDJdMw==

> <s_epik_cmdline>
J2VwaWtfcHl0aG9uJywgJy1waCcsICc3LjAnLCAnLXRuJywgJzgnLCAnLW1hJywgJzIwMCcsICctbWV0YWxfYmluZGluZycsICctaW1hZScsICc8aW5maWxlLm1hZT4nLCAnLW9tYWUnLCAnPG91dGZpbGUubWFlPic=

> <r_lp_tautomer_probability>
1

> <r_epik_Ionization_Penalty>
0.0900267

> <r_epik_Ionization_Penalty_Charging>
0

> <r_epik_Ionization_Penalty_Neutral>
0.0900267

> <r_epik_State_Penalty>
0.0748882

> <r_epik_Charging_Adjusted_Penalty>
0.0748882

> <i_epik_Tot_Q>
0

> <i_epik_Tot_abs_Q>
0

> <r_epik_Metal_State_Penalty>
0.0662821

> <b_epik_Metal_Only>
0

> <s_lp_Force_Field>
OPLS_2005

> <r_lp_Energy>
22.1821

> <b_lp_Chiralities_Consistent>
1

> <s_lp_Variant>
AV-unprocessed.smi:1576-2

> <Gold.Version>
5.8.1

> <Gold.Id.Protein>
6NUR|6NUR_protein|mol2

> <Gold.PLP.Fitness>
43.1466

> <Gold.PLP.PLP>
-41.3233

> <Gold.PLP.part.hbond>
-2.0000

> <Gold.PLP.part.metal>
0.0000

> <Gold.PLP.part.buried>
-3.1343

> <Gold.PLP.part.nonpolar>
-37.1188

> <Gold.PLP.part.repulsive>
0.6253

> <Gold.PLP.ligand.clash>
0.0000

> <Gold.PLP.ligand.torsion>
0.7991

> <Gold.PLP.Chemscore.Hbond>
1.0000

> <Gold.PLP.Chemscore.CHOScore>
0.0000

> <Gold.PLP.Chemscore.Metal>
0.0000

> <Gold.Chemscore.Hbonds>
donor molecule, donor type, donor heavy atom, donor atom, acceptor molecule, acceptor atom, score
      L1  H    16    38       P1  7948  1.00

> <Gold.PLP.Chemscore.Internal.Correction>
0.4215

> <Gold.Rescore>
     Score         DG    S(hbond)    S(metal)    S(lipo)     H(rot)  DE(clash)    DE(int)     intcor
     14.84     -18.25       1.00        0.00     107.70       1.24       0.29       3.12       ----

> <Gold.Chemscore.Fitness>
14.8377

> <Gold.Chemscore.DG>
-18.2516

> <Gold.Chemscore.ZeroCoef>
-5.4800

> <Gold.Chemscore.Hbond>
0.9991

> <Gold.Chemscore.Metal>
0.0000

> <Gold.Chemscore.Lipo>
107.6951

> <Gold.Chemscore.Internal_Hbond>
0.0000

> <Gold.Chemscore.DEClash>
0.2890

> <Gold.Chemscore.DEInternal>
3.1248

> <Gold.Chemscore.Rot>
1.2366

> <Gold.Chemscore.Internal.Correction>
   9.000000E+99

> <Gold.Chemscore.Hbonds>
donor molecule, donor type, donor heavy atom, donor atom, acceptor molecule, acceptor atom, score
      L1  H    16    38       P1  7948  0.99

> <Gold.Chemscore.Hbond.Weighted>
-3.3369

> <Gold.Chemscore.Metal.Weighted>
-0.0000

> <Gold.Chemscore.Lipo.Weighted>
-12.6003

> <Gold.Chemscore.Internal_Hbond.Weighted>
0.0000

> <Gold.Chemscore.DEClash.Weighted>
0.2890

> <Gold.Chemscore.DEInternal.Weighted>
3.1248

> <Gold.Chemscore.Rot.Weighted>
3.1657

> <Gold.Chemscore.Internal.Correction.Weighted>
   9.000000E+99

> <Gold.Protein.RotatedTorsions>
[ 6907 6896 6895 6894 ] final  -50.12 input  -60.11 | X-H torsion
[ 7974 7965 7964 7962 ] final  -79.52 input  175.53 | X-H torsion
[ 8008 7997 7996 7995 ] final -120.95 input   59.86 | X-H torsion
[ 10167 10162 10161 10158 ] final   15.29 input  -65.29 | X-H torsion
[ 10718 10713 10712 10709 ] final  166.80 input   66.30 | X-H torsion
[ 10763 10752 10751 10750 ] final  172.33 input  -60.55 | X-H torsion
[ 11005 11000 10999 10996 ] final   57.42 input  -57.11 | X-H torsion

> <Gold.Protein.ActiveResidues>
 VAL166  LYS551  ARG553  GLY616  TRP617  ASP618  TYR619  PRO620  LYS621  CYS622 
 ASP623  PHE694  ASN695  SER759  ASP760  ASP761  ALA762  ILE779  LEU786  VAL792 
 PHE793  MET794  SER795  GLU796  ALA797  LYS798  CYS799  TRP800  GLU811  SER814 

> <Gold.Protein.RotatedAtoms>
  150.8738  134.8117  159.7174 H   0  0  0  0  0  0  0  0  0  0  0  0  # atno 6907 bound_to 6896
  152.4733  134.4904  159.9703 H   0  0  0  0  0  0  0  0  0  0  0  0  # atno 6908 bound_to 6896
  151.4988  133.3470  159.2901 H   0  0  0  0  0  0  0  0  0  0  0  0  # atno 6909 bound_to 6896
  145.5721  140.9464  143.1390 H   0  0  0  0  0  0  0  0  0  0  0  0  # atno 7974 bound_to 7965
  155.1402  140.0402  157.2796 H   0  0  0  0  0  0  0  0  0  0  0  0  # atno 8008 bound_to 7997
  154.6479  140.2562  155.7221 H   0  0  0  0  0  0  0  0  0  0  0  0  # atno 8009 bound_to 7997
  156.2563  140.2842  156.0900 H   0  0  0  0  0  0  0  0  0  0  0  0  # atno 8010 bound_to 7997
  140.5877  143.8856  150.6845 H   0  0  0  0  0  0  0  0  0  0  0  0  # atno 10167 bound_to 10162
  157.0607  131.0339  151.2648 H   0  0  0  0  0  0  0  0  0  0  0  0  # atno 10718 bound_to 10713
  154.4246  135.2758  155.1953 H   0  0  0  0  0  0  0  0  0  0  0  0  # atno 10763 bound_to 10752
  154.3884  135.6071  153.5833 H   0  0  0  0  0  0  0  0  0  0  0  0  # atno 10764 bound_to 10752
  152.9834  135.5897  154.4547 H   0  0  0  0  0  0  0  0  0  0  0  0  # atno 10765 bound_to 10752
  140.0454  134.5813  155.9329 H   0  0  0  0  0  0  0  0  0  0  0  0  # atno 11005 bound_to 11000
  144.7433  139.7389  143.7302 LP  0  0  0  0  0  0  0  0  0  0  0  0  # atno 17320 bound_to 7965
  146.1777  139.4954  142.9887 LP  0  0  0  0  0  0  0  0  0  0  0  0  # atno 17321 bound_to 7965
  140.2372  143.3691  152.1517 LP  0  0  0  0  0  0  0  0  0  0  0  0  # atno 17342 bound_to 10162
  139.5208  144.7038  151.5416 LP  0  0  0  0  0  0  0  0  0  0  0  0  # atno 17343 bound_to 10162
  157.4957  130.7849  149.7553 LP  0  0  0  0  0  0  0  0  0  0  0  0  # atno 17370 bound_to 10713
  155.9979  130.3897  150.2721 LP  0  0  0  0  0  0  0  0  0  0  0  0  # atno 17371 bound_to 10713
  141.1904  133.6568  156.5411 LP  0  0  0  0  0  0  0  0  0  0  0  0  # atno 17394 bound_to 11000
  140.4002  134.7363  157.4775 LP  0  0  0  0  0  0  0  0  0  0  0  0  # atno 17395 bound_to 11000

$$$$
