AV-unprocessed.smi:1462|AV-procd|sdf|5932|dock3
  -GOLD-   22720 6 13D 1   1.00000     0.00000
 Structure written by MMmdl.
 42 43  0  0  0  0  0  0  0  0  2 V2000
  145.2781  137.6532  153.0828 C   0  0  0  0  0  0  0  0  0  0  0  0
  146.5061  138.1106  152.4505 N   0  0  0  0  0  0  0  0  0  0  0  0
  146.4118  138.4367  151.0356 C   0  0  0  0  0  0  0  0  0  0  0  0
  147.1705  139.0944  153.1959 C   0  0  0  0  0  0  0  0  0  0  0  0
  148.4094  138.8307  153.8156 C   0  0  0  0  0  0  0  0  0  0  0  0
  149.0443  139.8505  154.5535 C   0  0  0  0  0  0  0  0  0  0  0  0
  148.4309  141.1164  154.6726 C   0  0  0  0  0  0  0  0  0  0  0  0
  149.1164  142.1153  155.4153 N   0  0  0  0  0  0  0  0  0  0  0  0
  150.0727  141.9590  156.3470 C   0  0  0  0  0  0  0  0  0  0  0  0
  150.5387  140.8797  156.7111 O   0  0  0  0  0  0  0  0  0  0  0  0
  150.4765  143.1453  156.8239 N   0  0  0  0  0  0  0  0  0  0  0  0
  151.5178  143.3606  157.8254 C   0  0  0  0  0  0  0  0  0  0  0  0
  151.4235  142.2735  158.9135 C   0  0  0  0  0  0  0  0  0  0  0  0
  152.4339  142.5186  160.0461 C   0  0  0  0  0  0  0  0  0  0  0  0
  152.2632  143.9201  160.6520 C   0  0  0  0  0  0  0  0  0  0  0  0
  152.3737  145.0058  159.5703 C   0  0  0  0  0  0  0  0  0  0  0  0
  151.3649  144.7676  158.4351 C   0  0  0  0  0  0  0  0  0  0  0  0
  147.1907  141.3273  154.0210 C   0  0  0  0  0  0  0  0  0  0  0  0
  146.6171  140.3240  153.3213 N   0  3  0  0  0  0  0  0  0  0  0  0
  145.4430  137.4284  154.1373 H   0  0  0  0  0  0  0  0  0  0  0  0
  144.9212  136.7446  152.5971 H   0  0  0  0  0  0  0  0  0  0  0  0
  144.4953  138.4092  153.0095 H   0  0  0  0  0  0  0  0  0  0  0  0
  147.3816  138.7439  150.6422 H   0  0  0  0  0  0  0  0  0  0  0  0
  145.6989  139.2445  150.8663 H   0  0  0  0  0  0  0  0  0  0  0  0
  146.0801  137.5657  150.4698 H   0  0  0  0  0  0  0  0  0  0  0  0
  148.8712  137.8580  153.7266 H   0  0  0  0  0  0  0  0  0  0  0  0
  149.9948  139.6558  155.0287 H   0  0  0  0  0  0  0  0  0  0  0  0
  148.8907  143.0686  155.1709 H   0  0  0  0  0  0  0  0  0  0  0  0
  150.0331  143.9747  156.4570 H   0  0  0  0  0  0  0  0  0  0  0  0
  152.5066  143.2947  157.3675 H   0  0  0  0  0  0  0  0  0  0  0  0
  150.4155  142.2527  159.3304 H   0  0  0  0  0  0  0  0  0  0  0  0
  151.5969  141.2900  158.4747 H   0  0  0  0  0  0  0  0  0  0  0  0
  152.3146  141.7612  160.8214 H   0  0  0  0  0  0  0  0  0  0  0  0
  153.4480  142.4089  159.6601 H   0  0  0  0  0  0  0  0  0  0  0  0
  151.2923  143.9908  161.1445 H   0  0  0  0  0  0  0  0  0  0  0  0
  153.0147  144.0861  161.4245 H   0  0  0  0  0  0  0  0  0  0  0  0
  152.2102  145.9890  160.0126 H   0  0  0  0  0  0  0  0  0  0  0  0
  153.3856  145.0141  159.1634 H   0  0  0  0  0  0  0  0  0  0  0  0
  151.4978  145.5257  157.6624 H   0  0  0  0  0  0  0  0  0  0  0  0
  150.3531  144.8952  158.8226 H   0  0  0  0  0  0  0  0  0  0  0  0
  146.6384  142.2549  154.0176 H   0  0  0  0  0  0  0  0  0  0  0  0
  145.7235  140.5039  152.8631 H   0  0  0  0  0  0  0  0  0  0  0  0
  1  2  1  0  0  0  0
  1 20  1  0  0  0  0
  1 21  1  0  0  0  0
  1 22  1  0  0  0  0
  2  3  1  0  0  0  0
  2  4  1  0  0  0  0
  3 23  1  0  0  0  0
  3 24  1  0  0  0  0
  3 25  1  0  0  0  0
  4 19  1  0  0  0  0
  4  5  2  0  0  0  0
  5  6  1  0  0  0  0
  5 26  1  0  0  0  0
  6  7  2  0  0  0  0
  6 27  1  0  0  0  0
  7  8  1  0  0  0  0
  7 18  1  0  0  0  0
  8  9  1  0  0  0  0
  8 28  1  0  0  0  0
  9 10  2  0  0  0  0
  9 11  1  0  0  0  0
 11 12  1  0  0  0  0
 11 29  1  0  0  0  0
 12 17  1  0  0  0  0
 12 13  1  0  0  0  0
 12 30  1  0  0  0  0
 13 14  1  0  0  0  0
 13 31  1  0  0  0  0
 13 32  1  0  0  0  0
 14 15  1  0  0  0  0
 14 33  1  0  0  0  0
 14 34  1  0  0  0  0
 15 16  1  0  0  0  0
 15 35  1  0  0  0  0
 15 36  1  0  0  0  0
 16 17  1  0  0  0  0
 16 37  1  0  0  0  0
 16 38  1  0  0  0  0
 17 39  1  0  0  0  0
 17 40  1  0  0  0  0
 18 19  2  0  0  0  0
 18 41  1  0  0  0  0
 19 42  1  0  0  0  0
M  CHG  1  19   1
M  END
> <s_m_source_file>
AV-unprocessed.smi

> <i_m_source_file_index>
1462

> <i_lp_mmshare_version>
43012

> <i_f3d_flags>
0

> <s_epik_input>
W0NIM11OKFtDSDNdKWMxW2NIXVtjSF1jKFtjSF1uMSlbTkhdQyg9TylbTkhdW0NIXTJbQ0gyXVtDSDJdW0NIMl1bQ0gyXVtDSDJdMg==

> <s_epik_cmdline>
J2VwaWtfcHl0aG9uJywgJy1waCcsICc3LjAnLCAnLXRuJywgJzgnLCAnLW1hJywgJzIwMCcsICctbWV0YWxfYmluZGluZycsICctaW1hZScsICc8aW5maWxlLm1hZT4nLCAnLW9tYWUnLCAnPG91dGZpbGUubWFlPic=

> <r_lp_tautomer_probability>
0.999994

> <r_epik_Ionization_Penalty>
0.251279

> <r_epik_Ionization_Penalty_Charging>
0.251258

> <r_epik_Ionization_Penalty_Neutral>
2.1482e-05

> <r_epik_State_Penalty>
0.242611

> <r_epik_Charging_Adjusted_Penalty>
0.493869

> <i_epik_Tot_Q>
1

> <i_epik_Tot_abs_Q>
1

> <r_epik_Metal_State_Penalty>
0.533707

> <b_epik_Metal_Only>
0

> <s_lp_Force_Field>
OPLS_2005

> <r_lp_Energy>
22.7903

> <b_lp_Chiralities_Consistent>
1

> <s_lp_Variant>
AV-unprocessed.smi:1462-1

> <Gold.Version>
5.8.1

> <Gold.Id.Protein>
6NUR|6NUR_protein|mol2

> <Gold.PLP.Fitness>
49.0307

> <Gold.PLP.PLP>
-37.7881

> <Gold.PLP.part.hbond>
-2.9209

> <Gold.PLP.part.metal>
0.0000

> <Gold.PLP.part.buried>
-0.9249

> <Gold.PLP.part.nonpolar>
-36.0897

> <Gold.PLP.part.repulsive>
0.5536

> <Gold.PLP.ligand.clash>
0.0000

> <Gold.PLP.ligand.torsion>
0.4679

> <Gold.PLP.Chemscore.Hbond>
3.9920

> <Gold.PLP.Chemscore.CHOScore>
0.0000

> <Gold.PLP.Chemscore.Metal>
0.0000

> <Gold.Chemscore.Hbonds>
donor molecule, donor type, donor heavy atom, donor atom, acceptor molecule, acceptor atom, score
      L1  H     8    28       P1  8028  0.96
      L1  H    11    29       P1  8028  1.00
      L1  H    19    42       P1 10175  1.79

> <Gold.PLP.Chemscore.Internal.Correction>
0.2023

> <Gold.Rescore>
     Score         DG    S(hbond)    S(metal)    S(lipo)     H(rot)  DE(clash)    DE(int)     intcor
     19.74     -23.89       2.69        0.00     106.81       1.20       0.92       3.23       ----

> <Gold.Chemscore.Fitness>
19.7380

> <Gold.Chemscore.DG>
-23.8879

> <Gold.Chemscore.ZeroCoef>
-5.4800

> <Gold.Chemscore.Hbond>
2.6863

> <Gold.Chemscore.Metal>
0.0000

> <Gold.Chemscore.Lipo>
106.8138

> <Gold.Chemscore.Internal_Hbond>
0.0000

> <Gold.Chemscore.DEClash>
0.9183

> <Gold.Chemscore.DEInternal>
3.2315

> <Gold.Chemscore.Rot>
1.1960

> <Gold.Chemscore.Internal.Correction>
   9.000000E+99

> <Gold.Chemscore.Hbonds>
donor molecule, donor type, donor heavy atom, donor atom, acceptor molecule, acceptor atom, score
      L1  H     8    28       P1  8028  0.92
      L1  H    11    29       P1  8028  0.94
      L1  H    19    42       P1 10175  0.65

> <Gold.Chemscore.Hbond.Weighted>
-8.9724

> <Gold.Chemscore.Metal.Weighted>
-0.0000

> <Gold.Chemscore.Lipo.Weighted>
-12.4972

> <Gold.Chemscore.Internal_Hbond.Weighted>
0.0000

> <Gold.Chemscore.DEClash.Weighted>
0.9183

> <Gold.Chemscore.DEInternal.Weighted>
3.2315

> <Gold.Chemscore.Rot.Weighted>
3.0617

> <Gold.Chemscore.Internal.Correction.Weighted>
   9.000000E+99

> <Gold.Protein.RotatedTorsions>
[ 6907 6896 6895 6894 ] final   96.73 input  -60.11 | X-H torsion
[ 7974 7965 7964 7962 ] final   58.57 input  175.53 | X-H torsion
[ 8008 7997 7996 7995 ] final  -24.76 input   59.86 | X-H torsion
[ 10167 10162 10161 10158 ] final -128.13 input  -65.29 | X-H torsion
[ 10718 10713 10712 10709 ] final  137.82 input   66.30 | X-H torsion
[ 10763 10752 10751 10750 ] final  -81.56 input  -60.55 | X-H torsion
[ 11005 11000 10999 10996 ] final  129.40 input  -57.11 | X-H torsion

> <Gold.Protein.ActiveResidues>
 VAL166  LYS551  ARG553  GLY616  TRP617  ASP618  TYR619  PRO620  LYS621  CYS622 
 ASP623  PHE694  ASN695  SER759  ASP760  ASP761  ALA762  ILE779  LEU786  VAL792 
 PHE793  MET794  SER795  GLU796  ALA797  LYS798  CYS799  TRP800  GLU811  SER814 

> <Gold.Protein.RotatedAtoms>
  152.5432  134.0841  159.8248 H   0  0  0  0  0  0  0  0  0  0  0  0  # atno 6907 bound_to 6896
  151.0939  133.5287  159.2621 H   0  0  0  0  0  0  0  0  0  0  0  0  # atno 6908 bound_to 6896
  151.2068  135.0474  159.8949 H   0  0  0  0  0  0  0  0  0  0  0  0  # atno 6909 bound_to 6896
  145.9167  139.3697  143.0503 H   0  0  0  0  0  0  0  0  0  0  0  0  # atno 7974 bound_to 7965
  154.4512  140.1945  156.0514 H   0  0  0  0  0  0  0  0  0  0  0  0  # atno 8008 bound_to 7997
  156.0651  140.3292  155.7480 H   0  0  0  0  0  0  0  0  0  0  0  0  # atno 8009 bound_to 7997
  155.5351  140.0581  157.2872 H   0  0  0  0  0  0  0  0  0  0  0  0  # atno 8010 bound_to 7997
  139.9536  143.6029  152.2468 H   0  0  0  0  0  0  0  0  0  0  0  0  # atno 10167 bound_to 10162
  157.4319  131.1049  151.0240 H   0  0  0  0  0  0  0  0  0  0  0  0  # atno 10718 bound_to 10713
  154.5650  135.5622  153.7042 H   0  0  0  0  0  0  0  0  0  0  0  0  # atno 10763 bound_to 10752
  153.0030  135.6283  154.2192 H   0  0  0  0  0  0  0  0  0  0  0  0  # atno 10764 bound_to 10752
  154.2131  135.2873  155.2931 H   0  0  0  0  0  0  0  0  0  0  0  0  # atno 10765 bound_to 10752
  139.9613  134.9601  156.9142 H   0  0  0  0  0  0  0  0  0  0  0  0  # atno 11005 bound_to 11000
  145.8602  140.9479  143.0704 LP  0  0  0  0  0  0  0  0  0  0  0  0  # atno 17320 bound_to 7965
  144.6748  140.0521  143.7478 LP  0  0  0  0  0  0  0  0  0  0  0  0  # atno 17321 bound_to 7965
  139.6609  144.7662  151.1964 LP  0  0  0  0  0  0  0  0  0  0  0  0  # atno 17342 bound_to 10162
  140.7575  143.6011  150.8698 LP  0  0  0  0  0  0  0  0  0  0  0  0  # atno 17343 bound_to 10162
  157.1134  130.6031  149.5487 LP  0  0  0  0  0  0  0  0  0  0  0  0  # atno 17370 bound_to 10713
  155.9916  130.4972  150.7307 LP  0  0  0  0  0  0  0  0  0  0  0  0  # atno 17371 bound_to 10713
  140.5494  134.0642  155.7364 LP  0  0  0  0  0  0  0  0  0  0  0  0  # atno 17394 bound_to 11000
  141.1290  133.9334  157.2575 LP  0  0  0  0  0  0  0  0  0  0  0  0  # atno 17395 bound_to 11000

$$$$
