AV-unprocessed.smi:1194|AV-procd|sdf|4990|dock2
  -GOLD-   22720 3593D 1   1.00000     0.00000
 Structure written by MMmdl.
 47 48  0  0  0  0  0  0  0  0  1 V2000
  153.6955  141.3239  160.9702 C   0  0  0  0  0  0  0  0  0  0  0  0
  153.1619  142.2925  159.9095 C   0  0  0  0  0  0  0  0  0  0  0  0
  151.9472  141.7221  159.1524 C   0  0  0  0  0  0  0  0  0  0  0  0
  152.2646  140.4733  158.3090 C   0  0  0  0  0  0  0  0  0  0  0  0
  153.3644  139.9359  158.4513 O   0  0  0  0  0  0  0  0  0  0  0  0
  151.3419  140.0111  157.4232 N   0  0  0  0  0  0  0  0  0  0  0  0
  151.5638  138.8562  156.5250 C   0  0  0  0  0  0  0  0  0  0  0  0
  151.3863  139.2749  155.0559 C   0  0  0  0  0  0  0  0  0  0  0  0
  150.0201  139.9358  154.8281 C   0  0  0  0  0  0  0  0  0  0  0  0
  149.8196  141.0945  155.8165 C   0  0  0  0  0  0  0  0  0  0  0  0
  150.0091  140.6554  157.2899 C   0  0  1  0  0  0  0  0  0  0  0  0
  148.8513  139.7845  157.8291 C   0  0  0  0  0  0  0  0  0  0  0  0
  147.6892  140.1869  157.7778 O   0  0  0  0  0  0  0  0  0  0  0  0
  149.1853  138.5998  158.3615 N   0  0  0  0  0  0  0  0  0  0  0  0
  148.2710  137.6267  158.9431 C   0  0  0  0  0  0  0  0  0  0  0  0
  149.0446  136.4987  159.6494 C   0  0  0  0  0  0  0  0  0  0  0  0
  148.2401  135.8004  160.7345 C   0  0  0  0  0  0  0  0  0  0  0  0
  147.9251  136.4600  161.9403 C   0  0  0  0  0  0  0  0  0  0  0  0
  147.2005  135.7624  162.9260 C   0  0  0  0  0  0  0  0  0  0  0  0
  146.8169  134.4327  162.6614 C   0  0  0  0  0  0  0  0  0  0  0  0
  147.1079  133.7930  161.5085 N   0  0  0  0  0  0  0  0  0  0  0  0
  147.8054  134.4674  160.5700 C   0  0  0  0  0  0  0  0  0  0  0  0
  154.5551  141.7498  161.4880 H   0  0  0  0  0  0  0  0  0  0  0  0
  154.0099  140.3815  160.5205 H   0  0  0  0  0  0  0  0  0  0  0  0
  152.9335  141.1018  161.7181 H   0  0  0  0  0  0  0  0  0  0  0  0
  152.8901  143.2303  160.3963 H   0  0  0  0  0  0  0  0  0  0  0  0
  153.9619  142.5269  159.2061 H   0  0  0  0  0  0  0  0  0  0  0  0
  151.1581  141.4756  159.8638 H   0  0  0  0  0  0  0  0  0  0  0  0
  151.5614  142.5009  158.4952 H   0  0  0  0  0  0  0  0  0  0  0  0
  152.5441  138.3949  156.6212 H   0  0  0  0  0  0  0  0  0  0  0  0
  150.8538  138.0657  156.7694 H   0  0  0  0  0  0  0  0  0  0  0  0
  152.1797  139.9705  154.7787 H   0  0  0  0  0  0  0  0  0  0  0  0
  151.4933  138.4073  154.4042 H   0  0  0  0  0  0  0  0  0  0  0  0
  149.9460  140.3001  153.8031 H   0  0  0  0  0  0  0  0  0  0  0  0
  149.2274  139.1969  154.9518 H   0  0  0  0  0  0  0  0  0  0  0  0
  150.5397  141.8818  155.5888 H   0  0  0  0  0  0  0  0  0  0  0  0
  148.8376  141.5448  155.6674 H   0  0  0  0  0  0  0  0  0  0  0  0
  149.9497  141.5713  157.8790 H   0  0  0  0  0  0  0  0  0  0  0  0
  150.1649  138.3546  158.3736 H   0  0  0  0  0  0  0  0  0  0  0  0
  147.6435  138.1513  159.6644 H   0  0  0  0  0  0  0  0  0  0  0  0
  147.6049  137.2052  158.1885 H   0  0  0  0  0  0  0  0  0  0  0  0
  149.3739  135.7597  158.9183 H   0  0  0  0  0  0  0  0  0  0  0  0
  149.9517  136.9095  160.0950 H   0  0  0  0  0  0  0  0  0  0  0  0
  148.2403  137.4789  162.1112 H   0  0  0  0  0  0  0  0  0  0  0  0
  146.9467  136.2342  163.8637 H   0  0  0  0  0  0  0  0  0  0  0  0
  146.2632  133.8665  163.3955 H   0  0  0  0  0  0  0  0  0  0  0  0
  148.0324  133.9209  159.6664 H   0  0  0  0  0  0  0  0  0  0  0  0
  1  2  1  0  0  0  0
  1 23  1  0  0  0  0
  1 24  1  0  0  0  0
  1 25  1  0  0  0  0
  2  3  1  0  0  0  0
  2 26  1  0  0  0  0
  2 27  1  0  0  0  0
  3  4  1  0  0  0  0
  3 28  1  0  0  0  0
  3 29  1  0  0  0  0
  4  5  2  0  0  0  0
  4  6  1  0  0  0  0
  6 11  1  0  0  0  0
  6  7  1  0  0  0  0
  7  8  1  0  0  0  0
  7 30  1  0  0  0  0
  7 31  1  0  0  0  0
  8  9  1  0  0  0  0
  8 32  1  0  0  0  0
  8 33  1  0  0  0  0
  9 10  1  0  0  0  0
  9 34  1  0  0  0  0
  9 35  1  0  0  0  0
 10 11  1  0  0  0  0
 10 36  1  0  0  0  0
 10 37  1  0  0  0  0
 11 12  1  0  0  0  0
 11 38  1  0  0  0  0
 12 13  2  0  0  0  0
 12 14  1  0  0  0  0
 14 15  1  0  0  0  0
 14 39  1  0  0  0  0
 15 16  1  0  0  0  0
 15 40  1  0  0  0  0
 15 41  1  0  0  0  0
 16 17  1  0  0  0  0
 16 42  1  0  0  0  0
 16 43  1  0  0  0  0
 17 22  1  0  0  0  0
 17 18  2  0  0  0  0
 18 19  1  0  0  0  0
 18 44  1  0  0  0  0
 19 20  2  0  0  0  0
 19 45  1  0  0  0  0
 20 21  1  0  0  0  0
 20 46  1  0  0  0  0
 21 22  2  0  0  0  0
 22 47  1  0  0  0  0
M  END
> <s_m_source_file>
AV-unprocessed.smi

> <i_m_source_file_index>
1194

> <i_lp_mmshare_version>
43012

> <i_f3d_flags>
0

> <s_epik_input>
W0NIM11bQ0gyXVtDSDJdQyg9TylOMVtDSDJdW0NIMl1bQ0gyXVtDSDJdW0NASF0xQyg9TylbTkhdW0NIMl1bQ0gyXWMyW2NIXVtjSF1bY0hdbltjSF0y

> <s_epik_cmdline>
J2VwaWtfcHl0aG9uJywgJy1waCcsICc3LjAnLCAnLXRuJywgJzgnLCAnLW1hJywgJzIwMCcsICctbWV0YWxfYmluZGluZycsICctaW1hZScsICc8aW5maWxlLm1hZT4nLCAnLW9tYWUnLCAnPG91dGZpbGUubWFlPic=

> <r_epik_Ionization_Penalty>
0.0130932

> <r_epik_Ionization_Penalty_Charging>
0

> <r_epik_Ionization_Penalty_Neutral>
0.0130932

> <r_epik_State_Penalty>
0.0101714

> <r_epik_Charging_Adjusted_Penalty>
0.0101714

> <i_epik_Tot_Q>
0

> <i_epik_Tot_abs_Q>
0

> <r_epik_Metal_State_Penalty>
0.00995056

> <b_epik_Metal_Only>
0

> <s_lp_Force_Field>
OPLS_2005

> <r_lp_Energy>
24.5515

> <b_lp_Chiralities_Consistent>
1

> <s_lp_Variant>
AV-unprocessed.smi:1194-1

> <Gold.Version>
5.8.1

> <Gold.Id.Protein>
6NUR|6NUR_protein|mol2

> <Gold.PLP.Fitness>
45.3915

> <Gold.PLP.PLP>
-43.0951

> <Gold.PLP.part.hbond>
-1.3406

> <Gold.PLP.part.metal>
0.0000

> <Gold.PLP.part.buried>
-3.2992

> <Gold.PLP.part.nonpolar>
-38.2965

> <Gold.PLP.part.repulsive>
0.1657

> <Gold.PLP.ligand.clash>
0.0000

> <Gold.PLP.ligand.torsion>
0.4010

> <Gold.PLP.Chemscore.Hbond>
1.0000

> <Gold.PLP.Chemscore.CHOScore>
0.0000

> <Gold.PLP.Chemscore.Metal>
0.0000

> <Gold.Chemscore.Hbonds>
donor molecule, donor type, donor heavy atom, donor atom, acceptor molecule, acceptor atom, score
      P1  H  7997  8010       L1     5  1.00

> <Gold.PLP.Chemscore.Internal.Correction>
0.0984

> <Gold.Rescore>
     Score         DG    S(hbond)    S(metal)    S(lipo)     H(rot)  DE(clash)    DE(int)     intcor
     15.91     -17.29       0.96        0.00     110.37       1.68       0.11       1.27       ----

> <Gold.Chemscore.Fitness>
15.9091

> <Gold.Chemscore.DG>
-17.2948

> <Gold.Chemscore.ZeroCoef>
-5.4800

> <Gold.Chemscore.Hbond>
0.9606

> <Gold.Chemscore.Metal>
0.0000

> <Gold.Chemscore.Lipo>
110.3699

> <Gold.Chemscore.Internal_Hbond>
0.0000

> <Gold.Chemscore.DEClash>
0.1140

> <Gold.Chemscore.DEInternal>
1.2716

> <Gold.Chemscore.Rot>
1.6823

> <Gold.Chemscore.Internal.Correction>
   9.000000E+99

> <Gold.Chemscore.Hbonds>
donor molecule, donor type, donor heavy atom, donor atom, acceptor molecule, acceptor atom, score
      P1  H  7997  8010       L1     5  0.97

> <Gold.Chemscore.Hbond.Weighted>
-3.2083

> <Gold.Chemscore.Metal.Weighted>
-0.0000

> <Gold.Chemscore.Lipo.Weighted>
-12.9133

> <Gold.Chemscore.Internal_Hbond.Weighted>
0.0000

> <Gold.Chemscore.DEClash.Weighted>
0.1140

> <Gold.Chemscore.DEInternal.Weighted>
1.2716

> <Gold.Chemscore.Rot.Weighted>
4.3068

> <Gold.Chemscore.Internal.Correction.Weighted>
   9.000000E+99

> <Gold.Protein.RotatedTorsions>
[ 6907 6896 6895 6894 ] final -157.11 input  -60.11 | X-H torsion
[ 7974 7965 7964 7962 ] final    0.21 input  175.53 | X-H torsion
[ 8008 7997 7996 7995 ] final   26.73 input   59.86 | X-H torsion
[ 10167 10162 10161 10158 ] final -104.46 input  -65.29 | X-H torsion
[ 10718 10713 10712 10709 ] final -126.72 input   66.30 | X-H torsion
[ 10763 10752 10751 10750 ] final  -72.50 input  -60.55 | X-H torsion
[ 11005 11000 10999 10996 ] final  -23.10 input  -57.11 | X-H torsion

> <Gold.Protein.ActiveResidues>
 VAL166  LYS551  ARG553  GLY616  TRP617  ASP618  TYR619  PRO620  LYS621  CYS622 
 ASP623  PHE694  ASN695  SER759  ASP760  ASP761  ALA762  ILE779  LEU786  VAL792 
 PHE793  MET794  SER795  GLU796  ALA797  LYS798  CYS799  TRP800  GLU811  SER814 

> <Gold.Protein.RotatedAtoms>
  151.2978  133.4136  159.2637 H   0  0  0  0  0  0  0  0  0  0  0  0  # atno 6907 bound_to 6896
  151.0222  134.9478  159.8076 H   0  0  0  0  0  0  0  0  0  0  0  0  # atno 6908 bound_to 6896
  152.5327  134.2941  159.9106 H   0  0  0  0  0  0  0  0  0  0  0  0  # atno 6909 bound_to 6896
  146.2432  140.1172  142.8342 H   0  0  0  0  0  0  0  0  0  0  0  0  # atno 7974 bound_to 7965
  155.0318  140.3159  155.4756 H   0  0  0  0  0  0  0  0  0  0  0  0  # atno 8008 bound_to 7997
  156.2872  140.2179  156.5382 H   0  0  0  0  0  0  0  0  0  0  0  0  # atno 8009 bound_to 7997
  154.7364  140.0477  157.0760 H   0  0  0  0  0  0  0  0  0  0  0  0  # atno 8010 bound_to 7997
  140.2090  143.3761  152.1066 H   0  0  0  0  0  0  0  0  0  0  0  0  # atno 10167 bound_to 10162
  156.1791  130.6720  151.0281 H   0  0  0  0  0  0  0  0  0  0  0  0  # atno 10718 bound_to 10713
  154.4466  135.5928  153.6164 H   0  0  0  0  0  0  0  0  0  0  0  0  # atno 10763 bound_to 10752
  152.9810  135.6011  154.3657 H   0  0  0  0  0  0  0  0  0  0  0  0  # atno 10764 bound_to 10752
  154.3513  135.2841  155.2349 H   0  0  0  0  0  0  0  0  0  0  0  0  # atno 10765 bound_to 10752
  140.8719  133.7714  156.0197 H   0  0  0  0  0  0  0  0  0  0  0  0  # atno 11005 bound_to 11000
  145.0437  140.8965  143.5037 LP  0  0  0  0  0  0  0  0  0  0  0  0  # atno 17320 bound_to 7965
  145.1257  139.2664  143.5565 LP  0  0  0  0  0  0  0  0  0  0  0  0  # atno 17321 bound_to 7965
  139.5187  144.7009  151.5495 LP  0  0  0  0  0  0  0  0  0  0  0  0  # atno 17342 bound_to 10162
  140.6337  143.9027  150.6628 LP  0  0  0  0  0  0  0  0  0  0  0  0  # atno 17343 bound_to 10162
  157.6856  131.0826  150.7252 LP  0  0  0  0  0  0  0  0  0  0  0  0  # atno 17370 bound_to 10713
  156.7309  130.4709  149.5500 LP  0  0  0  0  0  0  0  0  0  0  0  0  # atno 17371 bound_to 10713
  140.8563  134.2894  157.5254 LP  0  0  0  0  0  0  0  0  0  0  0  0  # atno 17394 bound_to 11000
  139.8713  134.9494  156.4026 LP  0  0  0  0  0  0  0  0  0  0  0  0  # atno 17395 bound_to 11000

$$$$
