AV-unprocessed.smi:1768|AV-procd|sdf|7145|dock9
  -GOLD-   22720 8383D 1   1.00000     0.00000
 Structure written by MMmdl.
 33 34  0  0  0  0  0  0  0  0  1 V2000
  151.0043  142.2836  156.5943 C   0  0  0  0  0  0  0  0  0  0  0  0
  150.6406  141.1430  155.7061 C   0  0  0  0  0  0  0  0  0  0  0  0
  151.5383  140.2586  155.2546 N   0  0  0  0  0  0  0  0  0  0  0  0
  150.9611  139.2885  154.4471 N   0  0  0  0  0  0  0  0  0  0  0  0
  149.6402  139.4712  154.3125 C   0  0  0  0  0  0  0  0  0  0  0  0
  148.8001  138.6253  153.5412 N   0  0  0  0  0  0  0  0  0  0  0  0
  147.4568  138.6094  153.4859 C   0  0  0  0  0  0  0  0  0  0  0  0
  146.7107  139.3555  154.1204 O   0  0  0  0  0  0  0  0  0  0  0  0
  147.0217  137.6647  152.6391 N   0  0  0  0  0  0  0  0  0  0  0  0
  145.6252  137.3820  152.3142 C   0  0  2  0  0  0  0  0  0  0  0  0
  144.8010  137.4024  153.6106 C   0  0  0  0  0  0  0  0  0  0  0  0
  145.5368  136.0292  151.5818 C   0  0  1  0  0  0  0  0  0  0  0  0
  145.9874  134.8229  152.4080 C   0  0  0  0  0  0  0  0  0  0  0  0
  145.2100  133.6596  151.8096 C   0  0  0  0  0  0  0  0  0  0  0  0
  144.1496  134.3294  150.9322 C   0  0  0  0  0  0  0  0  0  0  0  0
  144.1853  135.7009  151.2972 O   0  0  0  0  0  0  0  0  0  0  0  0
  148.9895  140.8582  155.1695 S   0  0  0  0  0  0  0  0  0  0  0  0
  152.0675  142.2606  156.8362 H   0  0  0  0  0  0  0  0  0  0  0  0
  150.4343  142.2293  157.5219 H   0  0  0  0  0  0  0  0  0  0  0  0
  150.7789  143.2279  156.0984 H   0  0  0  0  0  0  0  0  0  0  0  0
  149.2792  137.9545  152.9594 H   0  0  0  0  0  0  0  0  0  0  0  0
  147.7136  137.1032  152.1652 H   0  0  0  0  0  0  0  0  0  0  0  0
  145.2268  138.1545  151.6539 H   0  0  0  0  0  0  0  0  0  0  0  0
  143.7424  137.2362  153.4111 H   0  0  0  0  0  0  0  0  0  0  0  0
  144.8884  138.3657  154.1144 H   0  0  0  0  0  0  0  0  0  0  0  0
  145.1344  136.6311  154.3057 H   0  0  0  0  0  0  0  0  0  0  0  0
  146.0943  136.0644  150.6433 H   0  0  0  0  0  0  0  0  0  0  0  0
  147.0666  134.6714  152.3733 H   0  0  0  0  0  0  0  0  0  0  0  0
  145.6998  134.9514  153.4525 H   0  0  0  0  0  0  0  0  0  0  0  0
  145.8512  133.0094  151.2136 H   0  0  0  0  0  0  0  0  0  0  0  0
  144.7560  133.0551  152.5956 H   0  0  0  0  0  0  0  0  0  0  0  0
  144.4079  134.2331  149.8765 H   0  0  0  0  0  0  0  0  0  0  0  0
  143.1550  133.9083  151.0793 H   0  0  0  0  0  0  0  0  0  0  0  0
  1  2  1  0  0  0  0
  1 18  1  0  0  0  0
  1 19  1  0  0  0  0
  1 20  1  0  0  0  0
  2 17  1  0  0  0  0
  2  3  2  0  0  0  0
  3  4  1  0  0  0  0
  4  5  2  0  0  0  0
  5  6  1  0  0  0  0
  5 17  1  0  0  0  0
  6  7  1  0  0  0  0
  6 21  1  0  0  0  0
  7  8  2  0  0  0  0
  7  9  1  0  0  0  0
  9 10  1  0  0  0  0
  9 22  1  0  0  0  0
 10 11  1  0  0  0  0
 10 12  1  0  0  0  0
 10 23  1  0  0  0  0
 11 24  1  0  0  0  0
 11 25  1  0  0  0  0
 11 26  1  0  0  0  0
 12 16  1  0  0  0  0
 12 13  1  0  0  0  0
 12 27  1  0  0  0  0
 13 14  1  0  0  0  0
 13 28  1  0  0  0  0
 13 29  1  0  0  0  0
 14 15  1  0  0  0  0
 14 30  1  0  0  0  0
 14 31  1  0  0  0  0
 15 16  1  0  0  0  0
 15 32  1  0  0  0  0
 15 33  1  0  0  0  0
M  END
> <s_m_source_file>
AV-unprocessed.smi

> <i_m_source_file_index>
1768

> <i_lp_mmshare_version>
43012

> <i_f3d_flags>
0

> <s_epik_input>
W0NIM11jMW5uYyhzMSlbTkhdQyg9TylbTkhdW0NASF0oW0NIM10pW0NAQEhdMltDSDJdW0NIMl1bQ0gyXU8y

> <s_epik_cmdline>
J2VwaWtfcHl0aG9uJywgJy1waCcsICc3LjAnLCAnLXRuJywgJzgnLCAnLW1hJywgJzIwMCcsICctbWV0YWxfYmluZGluZycsICctaW1hZScsICc8aW5maWxlLm1hZT4nLCAnLW9tYWUnLCAnPG91dGZpbGUubWFlPic=

> <r_lp_tautomer_probability>
1

> <r_epik_Ionization_Penalty>
0.000523083

> <r_epik_Ionization_Penalty_Charging>
0

> <r_epik_Ionization_Penalty_Neutral>
0.000523083

> <r_epik_State_Penalty>
-0

> <r_epik_Charging_Adjusted_Penalty>
0

> <i_epik_Tot_Q>
0

> <i_epik_Tot_abs_Q>
0

> <r_epik_Metal_State_Penalty>
0.223408

> <b_epik_Metal_Only>
0

> <s_lp_Force_Field>
OPLS_2005

> <r_lp_Energy>
16.8898

> <b_lp_Chiralities_Consistent>
1

> <s_lp_Variant>
AV-unprocessed.smi:1768-3

> <Gold.Version>
5.8.1

> <Gold.Id.Protein>
6NUR|6NUR_protein|mol2

> <Gold.PLP.Fitness>
33.0567

> <Gold.PLP.PLP>
-27.8334

> <Gold.PLP.part.hbond>
-4.9692

> <Gold.PLP.part.metal>
0.0000

> <Gold.PLP.part.buried>
-3.7295

> <Gold.PLP.part.nonpolar>
-19.9535

> <Gold.PLP.part.repulsive>
0.6359

> <Gold.PLP.ligand.clash>
0.0000

> <Gold.PLP.ligand.torsion>
0.2189

> <Gold.PLP.Chemscore.Hbond>
1.8800

> <Gold.PLP.Chemscore.CHOScore>
0.0000

> <Gold.PLP.Chemscore.Metal>
0.0000

> <Gold.Chemscore.Hbonds>
donor molecule, donor type, donor heavy atom, donor atom, acceptor molecule, acceptor atom, score
      L1  H     6    21       P1  7948  0.86
      L1  H     9    22       P1  7948  0.99

> <Gold.PLP.Chemscore.Internal.Correction>
0.0210

> <Gold.Rescore>
     Score         DG    S(hbond)    S(metal)    S(lipo)     H(rot)  DE(clash)    DE(int)     intcor
     11.43     -14.31       1.91        0.00      49.23       1.29       0.09       2.80       ----

> <Gold.Chemscore.Fitness>
11.4279

> <Gold.Chemscore.DG>
-14.3116

> <Gold.Chemscore.ZeroCoef>
-5.4800

> <Gold.Chemscore.Hbond>
1.9099

> <Gold.Chemscore.Metal>
0.0000

> <Gold.Chemscore.Lipo>
49.2275

> <Gold.Chemscore.Internal_Hbond>
0.0000

> <Gold.Chemscore.DEClash>
0.0865

> <Gold.Chemscore.DEInternal>
2.7972

> <Gold.Chemscore.Rot>
1.2919

> <Gold.Chemscore.Internal.Correction>
   9.000000E+99

> <Gold.Chemscore.Hbonds>
donor molecule, donor type, donor heavy atom, donor atom, acceptor molecule, acceptor atom, score
      L1  H     6    21       P1  7948  0.76
      L1  H     9    22       P1  7948  0.93

> <Gold.Chemscore.Hbond.Weighted>
-6.3792

> <Gold.Chemscore.Metal.Weighted>
-0.0000

> <Gold.Chemscore.Lipo.Weighted>
-5.7596

> <Gold.Chemscore.Internal_Hbond.Weighted>
0.0000

> <Gold.Chemscore.DEClash.Weighted>
0.0865

> <Gold.Chemscore.DEInternal.Weighted>
2.7972

> <Gold.Chemscore.Rot.Weighted>
3.3072

> <Gold.Chemscore.Internal.Correction.Weighted>
   9.000000E+99

> <Gold.Protein.RotatedTorsions>
[ 6907 6896 6895 6894 ] final  120.94 input  -60.11 | X-H torsion
[ 7974 7965 7964 7962 ] final -119.00 input  175.53 | X-H torsion
[ 8008 7997 7996 7995 ] final  -69.72 input   59.86 | X-H torsion
[ 10167 10162 10161 10158 ] final   54.45 input  -65.29 | X-H torsion
[ 10718 10713 10712 10709 ] final  -68.33 input   66.30 | X-H torsion
[ 10763 10752 10751 10750 ] final -120.34 input  -60.55 | X-H torsion
[ 11005 11000 10999 10996 ] final   46.82 input  -57.11 | X-H torsion

> <Gold.Protein.ActiveResidues>
 VAL166  LYS551  ARG553  GLY616  TRP617  ASP618  TYR619  PRO620  LYS621  CYS622 
 ASP623  PHE694  ASN695  SER759  ASP760  ASP761  ALA762  ILE779  LEU786  VAL792 
 PHE793  MET794  SER795  GLU796  ALA797  LYS798  CYS799  TRP800  GLU811  SER814 

> <Gold.Protein.RotatedAtoms>
  152.4360  133.7362  159.6614 H   0  0  0  0  0  0  0  0  0  0  0  0  # atno 6907 bound_to 6896
  150.8244  133.8186  159.3131 H   0  0  0  0  0  0  0  0  0  0  0  0  # atno 6908 bound_to 6896
  151.5859  135.1058  160.0079 H   0  0  0  0  0  0  0  0  0  0  0  0  # atno 6909 bound_to 6896
  145.0675  140.8335  143.4116 H   0  0  0  0  0  0  0  0  0  0  0  0  # atno 7974 bound_to 7965
  154.4959  140.0848  156.7696 H   0  0  0  0  0  0  0  0  0  0  0  0  # atno 8008 bound_to 7997
  155.4117  140.3442  155.4246 H   0  0  0  0  0  0  0  0  0  0  0  0  # atno 8009 bound_to 7997
  156.1393  140.1524  156.8933 H   0  0  0  0  0  0  0  0  0  0  0  0  # atno 8010 bound_to 7997
  140.2300  144.3697  150.6418 H   0  0  0  0  0  0  0  0  0  0  0  0  # atno 10167 bound_to 10162
  156.0511  130.4293  150.1985 H   0  0  0  0  0  0  0  0  0  0  0  0  # atno 10718 bound_to 10713
  154.8641  135.4206  154.2443 H   0  0  0  0  0  0  0  0  0  0  0  0  # atno 10763 bound_to 10752
  153.3402  135.6993  153.6879 H   0  0  0  0  0  0  0  0  0  0  0  0  # atno 10764 bound_to 10752
  153.5861  135.3563  155.2866 H   0  0  0  0  0  0  0  0  0  0  0  0  # atno 10765 bound_to 10752
  140.1334  134.4676  155.8504 H   0  0  0  0  0  0  0  0  0  0  0  0  # atno 11005 bound_to 11000
  145.1333  139.2618  143.5528 LP  0  0  0  0  0  0  0  0  0  0  0  0  # atno 17320 bound_to 7965
  146.3527  140.0990  142.8609 LP  0  0  0  0  0  0  0  0  0  0  0  0  # atno 17321 bound_to 7965
  140.6192  143.2175  151.6729 LP  0  0  0  0  0  0  0  0  0  0  0  0  # atno 17342 bound_to 10162
  139.5113  144.3513  152.0649 LP  0  0  0  0  0  0  0  0  0  0  0  0  # atno 17343 bound_to 10162
  157.0068  130.9939  151.3376 LP  0  0  0  0  0  0  0  0  0  0  0  0  # atno 17370 bound_to 10713
  157.5437  130.8137  149.8060 LP  0  0  0  0  0  0  0  0  0  0  0  0  # atno 17371 bound_to 10713
  141.2174  133.6805  156.7112 LP  0  0  0  0  0  0  0  0  0  0  0  0  # atno 17394 bound_to 11000
  140.2813  134.8314  157.3936 LP  0  0  0  0  0  0  0  0  0  0  0  0  # atno 17395 bound_to 11000

$$$$
