AV-unprocessed.smi:2888|AV-procd|sdf|11106|dock2
  -GOLD-   2272015573D 1   1.00000     0.00000
 Structure written by MMmdl.
 34 36  0  0  0  0  0  0  0  0  2 V2000
  152.7597  140.3133  159.4591 C   0  0  0  0  0  0  0  0  0  0  0  0
  152.1310  141.5055  158.7693 C   0  0  0  0  0  0  0  0  0  0  0  0
  152.5661  142.8185  159.0188 C   0  0  0  0  0  0  0  0  0  0  0  0
  151.9061  143.8469  158.3183 C   0  0  0  0  0  0  0  0  0  0  0  0
  152.2730  145.3048  158.4960 C   0  0  0  0  0  0  0  0  0  0  0  0
  150.9044  143.5470  157.4539 N   0  3  0  0  0  0  0  0  0  0  0  0
  150.5397  142.2693  157.2663 C   0  0  0  0  0  0  0  0  0  0  0  0
  149.5099  142.0238  156.3761 N   0  0  0  0  0  0  0  0  0  0  0  0
  148.9990  140.6939  156.0639 C   0  0  2  0  0  0  0  0  0  0  0  0
  149.4517  140.1775  154.6958 C   0  0  0  0  0  0  0  0  0  0  0  0
  148.1129  139.8086  154.0407 C   0  0  2  0  0  0  0  0  0  0  0  0
  147.3420  141.0580  153.5962 C   0  0  0  0  0  0  0  0  0  0  0  0
  146.8736  141.6259  154.9348 C   0  0  0  0  0  0  0  0  0  0  0  0
  147.4648  140.6166  155.9344 C   0  0  1  0  0  0  0  0  0  0  0  0
  147.3527  139.4252  155.1748 O   0  0  0  0  0  0  0  0  0  0  0  0
  151.1305  141.2478  157.9035 N   0  0  0  0  0  0  0  0  0  0  0  0
  153.6141  140.6144  160.0661 H   0  0  0  0  0  0  0  0  0  0  0  0
  153.1057  139.5864  158.7236 H   0  0  0  0  0  0  0  0  0  0  0  0
  152.0335  139.8257  160.1102 H   0  0  0  0  0  0  0  0  0  0  0  0
  153.3666  143.0284  159.7138 H   0  0  0  0  0  0  0  0  0  0  0  0
  153.1728  145.4123  159.1023 H   0  0  0  0  0  0  0  0  0  0  0  0
  151.4625  145.8413  158.9899 H   0  0  0  0  0  0  0  0  0  0  0  0
  152.4574  145.7735  157.5290 H   0  0  0  0  0  0  0  0  0  0  0  0
  148.9796  142.8194  156.0524 H   0  0  0  0  0  0  0  0  0  0  0  0
  149.3348  139.9946  156.8311 H   0  0  0  0  0  0  0  0  0  0  0  0
  150.0044  140.9114  154.1071 H   0  0  0  0  0  0  0  0  0  0  0  0
  150.0835  139.2966  154.8147 H   0  0  0  0  0  0  0  0  0  0  0  0
  148.1928  139.0411  153.2702 H   0  0  0  0  0  0  0  0  0  0  0  0
  147.9662  141.7535  153.0344 H   0  0  0  0  0  0  0  0  0  0  0  0
  146.4870  140.7880  152.9751 H   0  0  0  0  0  0  0  0  0  0  0  0
  147.2105  142.6484  155.1059 H   0  0  0  0  0  0  0  0  0  0  0  0
  145.7844  141.6199  154.9864 H   0  0  0  0  0  0  0  0  0  0  0  0
  146.9402  140.5843  156.8898 H   0  0  0  0  0  0  0  0  0  0  0  0
  150.4344  144.3023  156.9544 H   0  0  0  0  0  0  0  0  0  0  0  0
  1  2  1  0  0  0  0
  1 17  1  0  0  0  0
  1 18  1  0  0  0  0
  1 19  1  0  0  0  0
  2 16  1  0  0  0  0
  2  3  2  0  0  0  0
  3  4  1  0  0  0  0
  3 20  1  0  0  0  0
  4  5  1  0  0  0  0
  4  6  2  0  0  0  0
  5 21  1  0  0  0  0
  5 22  1  0  0  0  0
  5 23  1  0  0  0  0
  6  7  1  0  0  0  0
  6 34  1  0  0  0  0
  7  8  1  0  0  0  0
  7 16  2  0  0  0  0
  8  9  1  0  0  0  0
  8 24  1  0  0  0  0
  9 14  1  0  0  0  0
  9 10  1  0  0  0  0
  9 25  1  0  0  0  0
 10 11  1  0  0  0  0
 10 26  1  0  0  0  0
 10 27  1  0  0  0  0
 11 15  1  0  0  0  0
 11 12  1  0  0  0  0
 11 28  1  0  0  0  0
 12 13  1  0  0  0  0
 12 29  1  0  0  0  0
 12 30  1  0  0  0  0
 13 14  1  0  0  0  0
 13 31  1  0  0  0  0
 13 32  1  0  0  0  0
 14 15  1  0  0  0  0
 14 33  1  0  0  0  0
M  CHG  1   6   1
M  END
> <s_m_source_file>
AV-unprocessed.smi

> <i_m_source_file_index>
2888

> <i_lp_mmshare_version>
43012

> <i_f3d_flags>
0

> <s_epik_input>
W0NIM11jMVtjSF1jKFtDSDNdKW5jKG4xKVtOSF1bQ0BIXShbQ0gyXVtDQEBIXTIzKVtDQEBIXShPMylbQ0gyXVtDSDJdMg==

> <s_epik_cmdline>
J2VwaWtfcHl0aG9uJywgJy1waCcsICc3LjAnLCAnLXRuJywgJzgnLCAnLW1hJywgJzIwMCcsICctbWV0YWxfYmluZGluZycsICctaW1hZScsICc8aW5maWxlLm1hZT4nLCAnLW9tYWUnLCAnPG91dGZpbGUubWFlPic=

> <r_lp_tautomer_probability>
0.505494

> <r_epik_Ionization_Penalty>
2.49163

> <r_epik_Ionization_Penalty_Charging>
2.49163

> <r_epik_Ionization_Penalty_Neutral>
3.7631e-06

> <r_epik_State_Penalty>
2.656

> <r_epik_Charging_Adjusted_Penalty>
5.14762

> <i_epik_Tot_Q>
1

> <i_epik_Tot_abs_Q>
1

> <r_epik_Metal_State_Penalty>
2.66479

> <b_epik_Metal_Only>
0

> <s_lp_Force_Field>
OPLS_2005

> <r_lp_Energy>
36.4538

> <b_lp_Chiralities_Consistent>
1

> <s_lp_Variant>
AV-unprocessed.smi:2888-7

> <Gold.Version>
5.8.1

> <Gold.Id.Protein>
6NUR|6NUR_protein|mol2

> <Gold.PLP.Fitness>
41.8666

> <Gold.PLP.PLP>
-30.8954

> <Gold.PLP.part.hbond>
-2.0000

> <Gold.PLP.part.metal>
0.0000

> <Gold.PLP.part.buried>
-3.7867

> <Gold.PLP.part.nonpolar>
-25.5773

> <Gold.PLP.part.repulsive>
0.1263

> <Gold.PLP.ligand.clash>
0.0000

> <Gold.PLP.ligand.torsion>
0.2308

> <Gold.PLP.Chemscore.Hbond>
3.8080

> <Gold.PLP.Chemscore.CHOScore>
0.0000

> <Gold.PLP.Chemscore.Metal>
0.0000

> <Gold.Chemscore.Hbonds>
donor molecule, donor type, donor heavy atom, donor atom, acceptor molecule, acceptor atom, score
      L1  H     6    34       P1  8028  1.78
      L1  H     8    24       P1  8028  2.00

> <Gold.PLP.Chemscore.Internal.Correction>
0.0087

> <Gold.Rescore>
     Score         DG    S(hbond)    S(metal)    S(lipo)     H(rot)  DE(clash)    DE(int)     intcor
     18.44     -18.62       1.67        0.00      86.40       1.00       0.03       0.14       ----

> <Gold.Chemscore.Fitness>
18.4439

> <Gold.Chemscore.DG>
-18.6171

> <Gold.Chemscore.ZeroCoef>
-5.4800

> <Gold.Chemscore.Hbond>
1.6731

> <Gold.Chemscore.Metal>
0.0000

> <Gold.Chemscore.Lipo>
86.4009

> <Gold.Chemscore.Internal_Hbond>
0.0000

> <Gold.Chemscore.DEClash>
0.0297

> <Gold.Chemscore.DEInternal>
0.1435

> <Gold.Chemscore.Rot>
1.0000

> <Gold.Chemscore.Internal.Correction>
   9.000000E+99

> <Gold.Chemscore.Hbonds>
donor molecule, donor type, donor heavy atom, donor atom, acceptor molecule, acceptor atom, score
      L1  H     6    34       P1  8028  0.77
      L1  H     8    24       P1  8028  0.94

> <Gold.Chemscore.Hbond.Weighted>
-5.5882

> <Gold.Chemscore.Metal.Weighted>
-0.0000

> <Gold.Chemscore.Lipo.Weighted>
-10.1089

> <Gold.Chemscore.Internal_Hbond.Weighted>
0.0000

> <Gold.Chemscore.DEClash.Weighted>
0.0297

> <Gold.Chemscore.DEInternal.Weighted>
0.1435

> <Gold.Chemscore.Rot.Weighted>
2.5600

> <Gold.Chemscore.Internal.Correction.Weighted>
   9.000000E+99

> <Gold.Protein.RotatedTorsions>
[ 6907 6896 6895 6894 ] final  164.78 input  -60.11 | X-H torsion
[ 7974 7965 7964 7962 ] final -132.01 input  175.53 | X-H torsion
[ 8008 7997 7996 7995 ] final   -1.01 input   59.86 | X-H torsion
[ 10167 10162 10161 10158 ] final  -57.21 input  -65.29 | X-H torsion
[ 10718 10713 10712 10709 ] final    9.22 input   66.30 | X-H torsion
[ 10763 10752 10751 10750 ] final    0.32 input  -60.55 | X-H torsion
[ 11005 11000 10999 10996 ] final   52.01 input  -57.11 | X-H torsion

> <Gold.Protein.ActiveResidues>
 VAL166  LYS551  ARG553  GLY616  TRP617  ASP618  TYR619  PRO620  LYS621  CYS622 
 ASP623  PHE694  ASN695  SER759  ASP760  ASP761  ALA762  ILE779  LEU786  VAL792 
 PHE793  MET794  SER795  GLU796  ALA797  LYS798  CYS799  TRP800  GLU811  SER814 

> <Gold.Protein.RotatedAtoms>
  151.9046  133.3546  159.3842 H   0  0  0  0  0  0  0  0  0  0  0  0  # atno 6907 bound_to 6896
  150.7072  134.4793  159.5472 H   0  0  0  0  0  0  0  0  0  0  0  0  # atno 6908 bound_to 6896
  152.2388  134.8249  160.0514 H   0  0  0  0  0  0  0  0  0  0  0  0  # atno 6909 bound_to 6896
  144.9326  140.7146  143.4896 H   0  0  0  0  0  0  0  0  0  0  0  0  # atno 7974 bound_to 7965
  154.6516  140.2570  155.7208 H   0  0  0  0  0  0  0  0  0  0  0  0  # atno 8008 bound_to 7997
  156.2577  140.2867  156.0872 H   0  0  0  0  0  0  0  0  0  0  0  0  # atno 8009 bound_to 7997
  155.1443  140.0381  157.2796 H   0  0  0  0  0  0  0  0  0  0  0  0  # atno 8010 bound_to 7997
  140.6272  143.2443  151.5334 H   0  0  0  0  0  0  0  0  0  0  0  0  # atno 10167 bound_to 10162
  156.9632  130.5940  149.5663 H   0  0  0  0  0  0  0  0  0  0  0  0  # atno 10718 bound_to 10713
  153.3221  135.6970  153.7021 H   0  0  0  0  0  0  0  0  0  0  0  0  # atno 10763 bound_to 10752
  153.5857  135.3489  155.2892 H   0  0  0  0  0  0  0  0  0  0  0  0  # atno 10764 bound_to 10752
  154.8600  135.4305  154.2388 H   0  0  0  0  0  0  0  0  0  0  0  0  # atno 10765 bound_to 10752
  140.0885  134.5241  155.8875 H   0  0  0  0  0  0  0  0  0  0  0  0  # atno 11005 bound_to 11000
  145.3118  139.1816  143.4635 LP  0  0  0  0  0  0  0  0  0  0  0  0  # atno 17320 bound_to 7965
  146.3253  140.3123  142.8627 LP  0  0  0  0  0  0  0  0  0  0  0  0  # atno 17321 bound_to 7965
  139.5490  144.2444  152.1496 LP  0  0  0  0  0  0  0  0  0  0  0  0  # atno 17342 bound_to 10162
  140.1678  144.4964  150.6596 LP  0  0  0  0  0  0  0  0  0  0  0  0  # atno 17343 bound_to 10162
  156.0313  130.5404  150.8542 LP  0  0  0  0  0  0  0  0  0  0  0  0  # atno 17370 bound_to 10713
  157.5644  131.0946  150.9512 LP  0  0  0  0  0  0  0  0  0  0  0  0  # atno 17371 bound_to 10713
  141.2070  133.6660  156.6280 LP  0  0  0  0  0  0  0  0  0  0  0  0  # atno 17394 bound_to 11000
  140.3386  134.7868  157.4380 LP  0  0  0  0  0  0  0  0  0  0  0  0  # atno 17395 bound_to 11000

$$$$
