AV-unprocessed.smi:252|AV-procd|sdf|1938|dock6
  -GOLD-   2262021 63D 1   1.00000     0.00000
 Structure written by MMmdl.
 56 59  0  0  0  0  0  0  0  0  1 V2000
  151.8292  145.5546  159.4530 C   0  0  0  0  0  0  0  0  0  0  0  0
  150.8907  144.5563  158.7564 C   0  0  0  0  0  0  0  0  0  0  0  0
  151.1235  143.0985  159.1673 C   0  0  0  0  0  0  0  0  0  0  0  0
  150.2851  142.2289  158.9271 O   0  0  0  0  0  0  0  0  0  0  0  0
  152.2830  142.8484  159.7940 N   0  0  0  0  0  0  0  0  0  0  0  0
  152.7236  141.5389  160.2636 C   0  0  2  0  0  0  0  0  0  0  0  0
  153.9988  141.6648  161.1213 C   0  0  0  0  0  0  0  0  0  0  0  0
  154.5160  140.2745  161.5203 C   0  0  0  0  0  0  0  0  0  0  0  0
  154.7246  139.3873  160.2826 C   0  0  0  0  0  0  0  0  0  0  0  0
  153.5036  139.3246  159.4780 N   0  0  0  0  0  0  0  0  0  0  0  0
  153.4102  138.3429  158.5459 C   0  0  0  0  0  0  0  0  0  0  0  0
  154.2645  137.2853  158.5848 N   0  0  0  0  0  0  0  0  0  0  0  0
  154.1834  136.3180  157.6666 C   0  0  0  0  0  0  0  0  0  0  0  0
  153.3373  136.2102  156.6406 N   0  0  0  0  0  0  0  0  0  0  0  0
  152.4753  137.2660  156.5965 C   0  0  0  0  0  0  0  0  0  0  0  0
  152.4406  138.3630  157.5037 C   0  0  0  0  0  0  0  0  0  0  0  0
  151.4123  139.2312  157.1561 N   0  0  0  0  0  0  0  0  0  0  0  0
  150.8743  138.6822  156.1019 C   0  0  0  0  0  0  0  0  0  0  0  0
  151.4585  137.5062  155.6883 N   0  0  0  0  0  0  0  0  0  0  0  0
  151.0567  136.6889  154.5533 C   0  0  0  0  0  0  0  0  0  0  0  0
  149.9149  135.6806  154.8568 C   0  0  2  0  0  0  0  0  0  0  0  0
  148.6770  136.3027  154.5598 O   0  0  0  0  0  0  0  0  0  0  0  0
  149.8832  135.1931  156.3020 C   0  0  0  0  0  0  0  0  0  0  0  0
  150.8635  134.0320  156.2710 C   0  0  0  0  0  0  0  0  0  0  0  0
  150.5815  133.3969  155.0335 O   0  0  0  0  0  0  0  0  0  0  0  0
  150.1249  134.3554  154.0775 C   0  0  1  0  0  0  0  0  0  0  0  0
  148.8714  133.7584  153.4153 C   0  0  0  0  0  0  0  0  0  0  0  0
  152.9738  140.6199  159.0539 C   0  0  0  0  0  0  0  0  0  0  0  0
  151.6228  146.5718  159.1199 H   0  0  0  0  0  0  0  0  0  0  0  0
  152.8752  145.3414  159.2298 H   0  0  0  0  0  0  0  0  0  0  0  0
  151.7030  145.5322  160.5361 H   0  0  0  0  0  0  0  0  0  0  0  0
  149.8548  144.8172  158.9757 H   0  0  0  0  0  0  0  0  0  0  0  0
  151.0131  144.6379  157.6757 H   0  0  0  0  0  0  0  0  0  0  0  0
  152.9123  143.6223  159.9506 H   0  0  0  0  0  0  0  0  0  0  0  0
  151.9321  141.0911  160.8680 H   0  0  0  0  0  0  0  0  0  0  0  0
  154.7723  142.1935  160.5621 H   0  0  0  0  0  0  0  0  0  0  0  0
  153.8010  142.2557  162.0162 H   0  0  0  0  0  0  0  0  0  0  0  0
  155.4500  140.3668  162.0751 H   0  0  0  0  0  0  0  0  0  0  0  0
  153.8006  139.7994  162.1930 H   0  0  0  0  0  0  0  0  0  0  0  0
  155.5379  139.7839  159.6733 H   0  0  0  0  0  0  0  0  0  0  0  0
  155.0170  138.3857  160.6008 H   0  0  0  0  0  0  0  0  0  0  0  0
  154.8997  135.5161  157.7681 H   0  0  0  0  0  0  0  0  0  0  0  0
  150.0329  139.1256  155.5894 H   0  0  0  0  0  0  0  0  0  0  0  0
  150.7580  137.3562  153.7435 H   0  0  0  0  0  0  0  0  0  0  0  0
  151.9415  136.1625  154.1933 H   0  0  0  0  0  0  0  0  0  0  0  0
  148.5978  136.3799  153.6213 H   0  0  0  0  0  0  0  0  0  0  0  0
  150.1339  135.9479  157.0458 H   0  0  0  0  0  0  0  0  0  0  0  0
  148.8928  134.8085  156.5520 H   0  0  0  0  0  0  0  0  0  0  0  0
  151.8943  134.3886  156.2738 H   0  0  0  0  0  0  0  0  0  0  0  0
  150.7348  133.3483  157.1103 H   0  0  0  0  0  0  0  0  0  0  0  0
  150.8953  134.4789  153.3149 H   0  0  0  0  0  0  0  0  0  0  0  0
  148.4803  134.4157  152.6383 H   0  0  0  0  0  0  0  0  0  0  0  0
  148.0795  133.5865  154.1451 H   0  0  0  0  0  0  0  0  0  0  0  0
  149.1017  132.8012  152.9471 H   0  0  0  0  0  0  0  0  0  0  0  0
  152.0485  140.5052  158.4900 H   0  0  0  0  0  0  0  0  0  0  0  0
  153.6949  141.0806  158.3768 H   0  0  0  0  0  0  0  0  0  0  0  0
  1  2  1  0  0  0  0
  1 29  1  0  0  0  0
  1 30  1  0  0  0  0
  1 31  1  0  0  0  0
  2  3  1  0  0  0  0
  2 32  1  0  0  0  0
  2 33  1  0  0  0  0
  3  4  2  0  0  0  0
  3  5  1  0  0  0  0
  5  6  1  0  0  0  0
  5 34  1  0  0  0  0
  6 28  1  0  0  0  0
  6  7  1  0  0  0  0
  6 35  1  0  0  0  0
  7  8  1  0  0  0  0
  7 36  1  0  0  0  0
  7 37  1  0  0  0  0
  8  9  1  0  0  0  0
  8 38  1  0  0  0  0
  8 39  1  0  0  0  0
  9 10  1  0  0  0  0
  9 40  1  0  0  0  0
  9 41  1  0  0  0  0
 10 11  1  0  0  0  0
 10 28  1  0  0  0  0
 11 16  1  0  0  0  0
 11 12  2  0  0  0  0
 12 13  1  0  0  0  0
 13 14  2  0  0  0  0
 13 42  1  0  0  0  0
 14 15  1  0  0  0  0
 15 19  1  0  0  0  0
 15 16  2  0  0  0  0
 16 17  1  0  0  0  0
 17 18  2  0  0  0  0
 18 19  1  0  0  0  0
 18 43  1  0  0  0  0
 19 20  1  0  0  0  0
 20 21  1  0  0  0  0
 20 44  1  0  0  0  0
 20 45  1  0  0  0  0
 21 26  1  0  0  0  0
 21 22  1  0  0  0  0
 21 23  1  0  0  0  0
 22 46  1  0  0  0  0
 23 24  1  0  0  0  0
 23 47  1  0  0  0  0
 23 48  1  0  0  0  0
 24 25  1  0  0  0  0
 24 49  1  0  0  0  0
 24 50  1  0  0  0  0
 25 26  1  0  0  0  0
 26 27  1  0  0  0  0
 26 51  1  0  0  0  0
 27 52  1  0  0  0  0
 27 53  1  0  0  0  0
 27 54  1  0  0  0  0
 28 55  1  0  0  0  0
 28 56  1  0  0  0  0
M  END
> <s_m_source_file>
AV-unprocessed.smi

> <i_m_source_file_index>
252

> <i_lp_mmshare_version>
43012

> <i_f3d_flags>
0

> <s_epik_input>
W0NIM11bQ0gyXUMoPU8pW05IXVtDQEBIXTFbQ0gyXVtDSDJdW0NIMl1OKFtDSDJdMSljKG5bY0hdbjIpYyhjMjMpbltjSF1uM1tDSDJdW0NAQF00KFtPSF0pW0NIMl1bQ0gyXU9bQ0BIXTRbQ0gzXQ==

> <s_epik_cmdline>
J2VwaWtfcHl0aG9uJywgJy1waCcsICc3LjAnLCAnLXRuJywgJzgnLCAnLW1hJywgJzIwMCcsICctbWV0YWxfYmluZGluZycsICctaW1hZScsICc8aW5maWxlLm1hZT4nLCAnLW9tYWUnLCAnPG91dGZpbGUubWFlPic=

> <r_lp_tautomer_probability>
1

> <r_epik_Ionization_Penalty>
0.00182575

> <r_epik_Ionization_Penalty_Charging>
0

> <r_epik_Ionization_Penalty_Neutral>
0.00182575

> <r_epik_State_Penalty>
0.00104524

> <r_epik_Charging_Adjusted_Penalty>
0.00104524

> <i_epik_Tot_Q>
0

> <i_epik_Tot_abs_Q>
0

> <r_epik_Metal_State_Penalty>
-0

> <b_epik_Metal_Only>
0

> <s_lp_Force_Field>
OPLS_2005

> <r_lp_Energy>
36.3421

> <b_lp_Chiralities_Consistent>
1

> <s_lp_Variant>
AV-unprocessed.smi:252-3

> <Gold.Version>
5.8.1

> <Gold.Id.Protein>
6NUR|6NUR_protein|mol2

> <Gold.PLP.Fitness>
43.2893

> <Gold.PLP.PLP>
-40.4643

> <Gold.PLP.part.hbond>
-2.2905

> <Gold.PLP.part.metal>
0.0000

> <Gold.PLP.part.buried>
-5.4765

> <Gold.PLP.part.nonpolar>
-32.7438

> <Gold.PLP.part.repulsive>
0.1190

> <Gold.PLP.ligand.clash>
0.0000

> <Gold.PLP.ligand.torsion>
1.7969

> <Gold.PLP.Chemscore.Hbond>
2.0000

> <Gold.PLP.Chemscore.CHOScore>
0.0000

> <Gold.PLP.Chemscore.Metal>
0.0000

> <Gold.Chemscore.Hbonds>
donor molecule, donor type, donor heavy atom, donor atom, acceptor molecule, acceptor atom, score
      L1  H    22    46       P1  7948  1.00
      P1  H 10752 10763       L1    14  1.00

> <Gold.PLP.Chemscore.Internal.Correction>
0.4189

> <Gold.Rescore>
     Score         DG    S(hbond)    S(metal)    S(lipo)     H(rot)  DE(clash)    DE(int)     intcor
     13.66     -16.74       1.90        0.00     101.13       2.70       0.03       3.05       ----

> <Gold.Chemscore.Fitness>
13.6599

> <Gold.Chemscore.DG>
-16.7385

> <Gold.Chemscore.ZeroCoef>
-5.4800

> <Gold.Chemscore.Hbond>
1.9010

> <Gold.Chemscore.Metal>
0.0000

> <Gold.Chemscore.Lipo>
101.1263

> <Gold.Chemscore.Internal_Hbond>
0.0000

> <Gold.Chemscore.DEClash>
0.0301

> <Gold.Chemscore.DEInternal>
3.0485

> <Gold.Chemscore.Rot>
2.7041

> <Gold.Chemscore.Internal.Correction>
   9.000000E+99

> <Gold.Chemscore.Hbonds>
donor molecule, donor type, donor heavy atom, donor atom, acceptor molecule, acceptor atom, score
      L1  H    22    46       P1  7948  1.00
      P1  H 10752 10763       L1    14  0.86

> <Gold.Chemscore.Hbond.Weighted>
-6.3492

> <Gold.Chemscore.Metal.Weighted>
-0.0000

> <Gold.Chemscore.Lipo.Weighted>
-11.8318

> <Gold.Chemscore.Internal_Hbond.Weighted>
0.0000

> <Gold.Chemscore.DEClash.Weighted>
0.0301

> <Gold.Chemscore.DEInternal.Weighted>
3.0485

> <Gold.Chemscore.Rot.Weighted>
6.9225

> <Gold.Chemscore.Internal.Correction.Weighted>
   9.000000E+99

> <Gold.Protein.RotatedTorsions>
[ 6907 6896 6895 6894 ] final -137.29 input  -60.11 | X-H torsion
[ 7974 7965 7964 7962 ] final  -53.91 input  175.53 | X-H torsion
[ 8008 7997 7996 7995 ] final  145.50 input   59.86 | X-H torsion
[ 10167 10162 10161 10158 ] final -133.59 input  -65.29 | X-H torsion
[ 10718 10713 10712 10709 ] final  -51.17 input   66.30 | X-H torsion
[ 10763 10752 10751 10750 ] final  112.35 input  -60.55 | X-H torsion
[ 11005 11000 10999 10996 ] final  -29.94 input  -57.11 | X-H torsion

> <Gold.Protein.ActiveResidues>
 VAL166  LYS551  ARG553  GLY616  TRP617  ASP618  TYR619  PRO620  LYS621  CYS622 
 ASP623  PHE694  ASN695  SER759  ASP760  ASP761  ALA762  ILE779  LEU786  VAL792 
 PHE793  MET794  SER795  GLU796  ALA797  LYS798  CYS799  TRP800  GLU811  SER814 

> <Gold.Protein.RotatedAtoms>
  151.0207  133.5879  159.2671 H   0  0  0  0  0  0  0  0  0  0  0  0  # atno 6907 bound_to 6896
  151.2997  135.0764  159.9244 H   0  0  0  0  0  0  0  0  0  0  0  0  # atno 6908 bound_to 6896
  152.5322  133.9890  159.7896 H   0  0  0  0  0  0  0  0  0  0  0  0  # atno 6909 bound_to 6896
  145.8915  140.8066  142.9789 H   0  0  0  0  0  0  0  0  0  0  0  0  # atno 7974 bound_to 7965
  156.2881  140.2207  156.5225 H   0  0  0  0  0  0  0  0  0  0  0  0  # atno 8008 bound_to 7997
  154.7517  140.0480  157.0921 H   0  0  0  0  0  0  0  0  0  0  0  0  # atno 8009 bound_to 7997
  155.0102  140.3112  155.4836 H   0  0  0  0  0  0  0  0  0  0  0  0  # atno 8010 bound_to 7997
  139.8967  143.6657  152.2602 H   0  0  0  0  0  0  0  0  0  0  0  0  # atno 10167 bound_to 10162
  156.1734  130.4149  149.9613 H   0  0  0  0  0  0  0  0  0  0  0  0  # atno 10718 bound_to 10713
  153.4765  135.3689  155.2419 H   0  0  0  0  0  0  0  0  0  0  0  0  # atno 10763 bound_to 10752
  154.8756  135.3944  154.3750 H   0  0  0  0  0  0  0  0  0  0  0  0  # atno 10764 bound_to 10752
  153.4347  135.7083  153.6273 H   0  0  0  0  0  0  0  0  0  0  0  0  # atno 10765 bound_to 10752
  140.9339  133.7320  156.0977 H   0  0  0  0  0  0  0  0  0  0  0  0  # atno 11005 bound_to 11000
  144.6731  140.1537  143.7428 LP  0  0  0  0  0  0  0  0  0  0  0  0  # atno 17320 bound_to 7965
  145.8902  139.2371  143.1554 LP  0  0  0  0  0  0  0  0  0  0  0  0  # atno 17321 bound_to 7965
  139.7061  144.7628  151.1190 LP  0  0  0  0  0  0  0  0  0  0  0  0  # atno 17342 bound_to 10162
  140.7715  143.5392  150.9332 LP  0  0  0  0  0  0  0  0  0  0  0  0  # atno 17343 bound_to 10162
  156.7406  130.9078  151.3632 LP  0  0  0  0  0  0  0  0  0  0  0  0  # atno 17370 bound_to 10713
  157.6819  130.9148  150.0288 LP  0  0  0  0  0  0  0  0  0  0  0  0  # atno 17371 bound_to 10713
  140.7825  134.3709  157.5484 LP  0  0  0  0  0  0  0  0  0  0  0  0  # atno 17394 bound_to 11000
  139.8803  134.9090  156.2981 LP  0  0  0  0  0  0  0  0  0  0  0  0  # atno 17395 bound_to 11000

$$$$
