AV-unprocessed.smi:829|AV-procd|sdf|3866|dock3
  -GOLD-   22720 1313D 1   1.00000     0.00000
 Structure written by MMmdl.
 49 51  0  0  0  0  0  0  0  0  2 V2000
  146.0628  137.4988  155.3669 O   0  0  0  0  0  0  0  0  0  0  0  0
  145.5235  138.5157  154.9316 C   0  0  0  0  0  0  0  0  0  0  0  0
  144.2730  138.5933  154.4435 N   0  0  0  0  0  0  0  0  0  0  0  0
  143.2925  137.5709  154.3154 C   0  0  0  0  0  0  0  0  0  0  0  0
  141.9414  137.9707  154.2526 C   0  0  0  0  0  0  0  0  0  0  0  0
  140.9435  136.9826  154.1363 C   0  0  0  0  0  0  0  0  0  0  0  0
  141.2108  135.6609  154.0866 N   0  0  0  0  0  0  0  0  0  0  0  0
  142.5031  135.2782  154.1574 C   0  0  0  0  0  0  0  0  0  0  0  0
  143.5766  136.1838  154.2761 C   0  0  0  0  0  0  0  0  0  0  0  0
  146.1385  139.7063  154.8765 N   0  0  0  0  0  0  0  0  0  0  0  0
  147.5086  139.9636  155.3106 C   0  0  2  0  0  0  0  0  0  0  0  0
  147.5273  140.7569  156.6299 C   0  0  0  0  0  0  0  0  0  0  0  0
  148.9642  141.1196  157.0414 C   0  0  0  0  0  0  0  0  0  0  0  0
  149.6582  141.8716  155.9642 N   0  3  1  0  0  0  0  0  0  0  0  0
  150.9982  142.3670  156.3727 C   0  0  0  0  0  0  0  0  0  0  0  0
  150.9686  143.0156  157.7696 C   0  0  0  0  0  0  0  0  0  0  0  0
  151.6825  144.3665  157.8768 C   0  0  0  0  0  0  0  0  0  0  0  0
  151.9420  144.5575  159.3741 C   0  0  0  0  0  0  0  0  0  0  0  0
  151.9787  143.1485  159.9843 C   0  0  0  0  0  0  0  0  0  0  0  0
  151.6743  142.1763  158.8384 C   0  0  0  0  0  0  0  0  0  0  0  0
  149.6856  141.1024  154.6926 C   0  0  0  0  0  0  0  0  0  0  0  0
  148.2631  140.7509  154.2276 C   0  0  0  0  0  0  0  0  0  0  0  0
  144.0007  139.4924  154.0743 H   0  0  0  0  0  0  0  0  0  0  0  0
  141.6685  139.0154  154.2890 H   0  0  0  0  0  0  0  0  0  0  0  0
  139.9017  137.2624  154.0828 H   0  0  0  0  0  0  0  0  0  0  0  0
  142.6885  134.2147  154.1230 H   0  0  0  0  0  0  0  0  0  0  0  0
  144.5795  135.7933  154.3427 H   0  0  0  0  0  0  0  0  0  0  0  0
  145.6240  140.4898  154.5012 H   0  0  0  0  0  0  0  0  0  0  0  0
  148.0227  139.0117  155.4594 H   0  0  0  0  0  0  0  0  0  0  0  0
  146.9406  141.6705  156.5218 H   0  0  0  0  0  0  0  0  0  0  0  0
  147.0542  140.1792  157.4251 H   0  0  0  0  0  0  0  0  0  0  0  0
  148.9318  141.7243  157.9489 H   0  0  0  0  0  0  0  0  0  0  0  0
  149.5283  140.2162  157.2794 H   0  0  0  0  0  0  0  0  0  0  0  0
  151.6998  141.5321  156.4111 H   0  0  0  0  0  0  0  0  0  0  0  0
  151.4027  143.0542  155.6278 H   0  0  0  0  0  0  0  0  0  0  0  0
  149.9302  143.1468  158.0798 H   0  0  0  0  0  0  0  0  0  0  0  0
  152.6356  144.3280  157.3473 H   0  0  0  0  0  0  0  0  0  0  0  0
  151.0995  145.1853  157.4541 H   0  0  0  0  0  0  0  0  0  0  0  0
  152.8656  145.1085  159.5545 H   0  0  0  0  0  0  0  0  0  0  0  0
  151.1287  145.1295  159.8228 H   0  0  0  0  0  0  0  0  0  0  0  0
  152.9442  142.9288  160.4415 H   0  0  0  0  0  0  0  0  0  0  0  0
  151.2224  143.0636  160.7657 H   0  0  0  0  0  0  0  0  0  0  0  0
  151.0755  141.3255  159.1644 H   0  0  0  0  0  0  0  0  0  0  0  0
  152.6116  141.7837  158.4416 H   0  0  0  0  0  0  0  0  0  0  0  0
  150.1845  141.6789  153.9146 H   0  0  0  0  0  0  0  0  0  0  0  0
  150.2694  140.1907  154.8301 H   0  0  0  0  0  0  0  0  0  0  0  0
  148.3102  140.1687  153.3065 H   0  0  0  0  0  0  0  0  0  0  0  0
  147.7232  141.6683  153.9874 H   0  0  0  0  0  0  0  0  0  0  0  0
  149.0966  142.6940  155.7964 H   0  0  0  0  0  0  0  0  0  0  0  0
  1  2  2  0  0  0  0
  2  3  1  0  0  0  0
  2 10  1  0  0  0  0
  3  4  1  0  0  0  0
  3 23  1  0  0  0  0
  4  9  1  0  0  0  0
  4  5  2  0  0  0  0
  5  6  1  0  0  0  0
  5 24  1  0  0  0  0
  6  7  2  0  0  0  0
  6 25  1  0  0  0  0
  7  8  1  0  0  0  0
  8  9  2  0  0  0  0
  8 26  1  0  0  0  0
  9 27  1  0  0  0  0
 10 11  1  0  0  0  0
 10 28  1  0  0  0  0
 11 22  1  0  0  0  0
 11 12  1  0  0  0  0
 11 29  1  0  0  0  0
 12 13  1  0  0  0  0
 12 30  1  0  0  0  0
 12 31  1  0  0  0  0
 13 14  1  0  0  0  0
 13 32  1  0  0  0  0
 13 33  1  0  0  0  0
 14 15  1  0  0  0  0
 14 21  1  0  0  0  0
 14 49  1  0  0  0  0
 15 16  1  0  0  0  0
 15 34  1  0  0  0  0
 15 35  1  0  0  0  0
 16 20  1  0  0  0  0
 16 17  1  0  0  0  0
 16 36  1  0  0  0  0
 17 18  1  0  0  0  0
 17 37  1  0  0  0  0
 17 38  1  0  0  0  0
 18 19  1  0  0  0  0
 18 39  1  0  0  0  0
 18 40  1  0  0  0  0
 19 20  1  0  0  0  0
 19 41  1  0  0  0  0
 19 42  1  0  0  0  0
 20 43  1  0  0  0  0
 20 44  1  0  0  0  0
 21 22  1  0  0  0  0
 21 45  1  0  0  0  0
 21 46  1  0  0  0  0
 22 47  1  0  0  0  0
 22 48  1  0  0  0  0
M  CHG  1  14   1
M  END
> <s_m_source_file>
AV-unprocessed.smi

> <i_m_source_file_index>
829

> <i_lp_mmshare_version>
43012

> <i_f3d_flags>
0

> <s_epik_input>
W2NIXTFbY0hdbltjSF1bY0hdYzFbTkhdQyg9TylbTkhdW0NIXTJbQ0gyXVtDSDJdTihbQ0gyXVtDSDJdMilbQ0gyXVtDSF0zW0NIMl1bQ0gyXVtDSDJdW0NIMl0z

> <s_epik_cmdline>
J2VwaWtfcHl0aG9uJywgJy1waCcsICc3LjAnLCAnLXRuJywgJzgnLCAnLW1hJywgJzIwMCcsICctbWV0YWxfYmluZGluZycsICctaW1hZScsICc8aW5maWxlLm1hZT4nLCAnLW9tYWUnLCAnPG91dGZpbGUubWFlPic=

> <r_epik_Ionization_Penalty>
0.101981

> <r_epik_Ionization_Penalty_Charging>
0.00207989

> <r_epik_Ionization_Penalty_Neutral>
0.0999008

> <r_epik_State_Penalty>
0.0935668

> <r_epik_Charging_Adjusted_Penalty>
0.0956467

> <i_epik_Tot_Q>
1

> <i_epik_Tot_abs_Q>
1

> <r_epik_Metal_State_Penalty>
0.0787682

> <b_epik_Metal_Only>
0

> <s_lp_Force_Field>
OPLS_2005

> <r_lp_Energy>
43.2002

> <b_lp_Chiralities_Consistent>
1

> <s_lp_Variant>
AV-unprocessed.smi:829-1

> <Gold.Version>
5.8.1

> <Gold.Id.Protein>
6NUR|6NUR_protein|mol2

> <Gold.PLP.Fitness>
46.1819

> <Gold.PLP.PLP>
-35.2844

> <Gold.PLP.part.hbond>
-2.8817

> <Gold.PLP.part.metal>
0.0000

> <Gold.PLP.part.buried>
-4.5021

> <Gold.PLP.part.nonpolar>
-28.4032

> <Gold.PLP.part.repulsive>
0.2299

> <Gold.PLP.ligand.clash>
0.0000

> <Gold.PLP.ligand.torsion>
0.9863

> <Gold.PLP.Chemscore.Hbond>
3.2751

> <Gold.PLP.Chemscore.CHOScore>
1.0000

> <Gold.PLP.Chemscore.Metal>
0.0000

> <Gold.Chemscore.Hbonds>
donor molecule, donor type, donor heavy atom, donor atom, acceptor molecule, acceptor atom, score
      L1  H     3    23       P1 10175  0.90
      L1  H    14    49       P1  8028  1.95
      P1  H 11000 11005       L1     7  0.29
      L1  C     8    26       P1 10957  1.00

> <Gold.PLP.Chemscore.Internal.Correction>
0.0447

> <Gold.Rescore>
     Score         DG    S(hbond)    S(metal)    S(lipo)     H(rot)  DE(clash)    DE(int)     intcor
     18.99     -20.97       2.10        0.00     101.99       1.35       0.09       1.89       ----

> <Gold.Chemscore.Fitness>
18.9897

> <Gold.Chemscore.DG>
-20.9693

> <Gold.Chemscore.ZeroCoef>
-5.4800

> <Gold.Chemscore.Hbond>
2.0962

> <Gold.Chemscore.Metal>
0.0000

> <Gold.Chemscore.Lipo>
101.9879

> <Gold.Chemscore.Internal_Hbond>
0.0000

> <Gold.Chemscore.DEClash>
0.0904

> <Gold.Chemscore.DEInternal>
1.8893

> <Gold.Chemscore.Rot>
1.3455

> <Gold.Chemscore.Internal.Correction>
   9.000000E+99

> <Gold.Chemscore.Hbonds>
donor molecule, donor type, donor heavy atom, donor atom, acceptor molecule, acceptor atom, score
      L1  H     3    23       P1 10175  0.88
      L1  H    14    49       P1  8028  0.89
      P1  H 11000 11005       L1     7  0.09

> <Gold.Chemscore.Hbond.Weighted>
-7.0012

> <Gold.Chemscore.Metal.Weighted>
-0.0000

> <Gold.Chemscore.Lipo.Weighted>
-11.9326

> <Gold.Chemscore.Internal_Hbond.Weighted>
0.0000

> <Gold.Chemscore.DEClash.Weighted>
0.0904

> <Gold.Chemscore.DEInternal.Weighted>
1.8893

> <Gold.Chemscore.Rot.Weighted>
3.4445

> <Gold.Chemscore.Internal.Correction.Weighted>
   9.000000E+99

> <Gold.Protein.RotatedTorsions>
[ 6907 6896 6895 6894 ] final  125.12 input  -60.11 | X-H torsion
[ 7974 7965 7964 7962 ] final  -15.22 input  175.53 | X-H torsion
[ 8008 7997 7996 7995 ] final -155.02 input   59.86 | X-H torsion
[ 10167 10162 10161 10158 ] final    6.17 input  -65.29 | X-H torsion
[ 10718 10713 10712 10709 ] final -137.16 input   66.30 | X-H torsion
[ 10763 10752 10751 10750 ] final -169.47 input  -60.55 | X-H torsion
[ 11005 11000 10999 10996 ] final   36.24 input  -57.11 | X-H torsion

> <Gold.Protein.ActiveResidues>
 VAL166  LYS551  ARG553  GLY616  TRP617  ASP618  TYR619  PRO620  LYS621  CYS622 
 ASP623  PHE694  ASN695  SER759  ASP760  ASP761  ALA762  ILE779  LEU786  VAL792 
 PHE793  MET794  SER795  GLU796  ALA797  LYS798  CYS799  TRP800  GLU811  SER814 

> <Gold.Protein.RotatedAtoms>
  152.4019  133.6831  159.6323 H   0  0  0  0  0  0  0  0  0  0  0  0  # atno 6907 bound_to 6896
  150.7909  133.8776  159.3285 H   0  0  0  0  0  0  0  0  0  0  0  0  # atno 6908 bound_to 6896
  151.6539  135.0999  160.0217 H   0  0  0  0  0  0  0  0  0  0  0  0  # atno 6909 bound_to 6896
  146.2041  140.3461  142.8413 H   0  0  0  0  0  0  0  0  0  0  0  0  # atno 7974 bound_to 7965
  155.6954  140.0760  157.2431 H   0  0  0  0  0  0  0  0  0  0  0  0  # atno 8008 bound_to 7997
  154.4081  140.1657  156.2185 H   0  0  0  0  0  0  0  0  0  0  0  0  # atno 8009 bound_to 7997
  155.9415  140.3384  155.6334 H   0  0  0  0  0  0  0  0  0  0  0  0  # atno 8010 bound_to 7997
  140.6442  143.7701  150.7474 H   0  0  0  0  0  0  0  0  0  0  0  0  # atno 10167 bound_to 10162
  156.2850  130.7342  151.1351 H   0  0  0  0  0  0  0  0  0  0  0  0  # atno 10718 bound_to 10713
  154.6519  135.2912  154.9975 H   0  0  0  0  0  0  0  0  0  0  0  0  # atno 10763 bound_to 10752
  154.1065  135.6569  153.4881 H   0  0  0  0  0  0  0  0  0  0  0  0  # atno 10764 bound_to 10752
  153.0381  135.5255  154.7431 H   0  0  0  0  0  0  0  0  0  0  0  0  # atno 10765 bound_to 10752
  140.2346  134.3487  155.7950 H   0  0  0  0  0  0  0  0  0  0  0  0  # atno 11005 bound_to 11000
  144.8751  140.7326  143.6022 LP  0  0  0  0  0  0  0  0  0  0  0  0  # atno 17320 bound_to 7965
  145.3381  139.1740  143.4501 LP  0  0  0  0  0  0  0  0  0  0  0  0  # atno 17321 bound_to 7965
  140.1339  143.4502  152.2237 LP  0  0  0  0  0  0  0  0  0  0  0  0  # atno 17342 bound_to 10162
  139.5652  144.7431  151.4042 LP  0  0  0  0  0  0  0  0  0  0  0  0  # atno 17343 bound_to 10162
  157.7326  131.0598  150.5621 LP  0  0  0  0  0  0  0  0  0  0  0  0  # atno 17370 bound_to 10713
  156.5731  130.4285  149.6011 LP  0  0  0  0  0  0  0  0  0  0  0  0  # atno 17371 bound_to 10713
  141.2215  133.7264  156.8787 LP  0  0  0  0  0  0  0  0  0  0  0  0  # atno 17394 bound_to 11000
  140.1715  134.9096  157.2839 LP  0  0  0  0  0  0  0  0  0  0  0  0  # atno 17395 bound_to 11000

$$$$
