AV-unprocessed.smi:2083|AV-procd|sdf|8494|dock6
  -GOLD-   2272011203D 1   1.00000     0.00000
 Structure written by MMmdl.
 45 46  0  0  0  0  0  0  0  0  2 V2000
  150.6012  141.8241  156.1162 C   0  0  0  0  0  0  0  0  0  0  0  0
  150.3246  140.5609  155.3753 C   0  0  0  0  0  0  0  0  0  0  0  0
  149.1747  139.8731  155.1056 C   0  0  0  0  0  0  0  0  0  0  0  0
  149.6368  138.7595  154.3550 C   0  0  0  0  0  0  0  0  0  0  0  0
  148.7311  137.7835  153.8657 N   0  0  0  0  0  0  0  0  0  0  0  0
  147.5449  137.4339  154.3918 C   0  0  0  0  0  0  0  0  0  0  0  0
  147.0369  137.9355  155.3953 O   0  0  0  0  0  0  0  0  0  0  0  0
  146.9645  136.4508  153.6882 N   0  0  0  0  0  0  0  0  0  0  0  0
  145.6756  135.8501  154.0186 C   0  0  0  0  0  0  0  0  0  0  0  0
  144.7167  135.7672  152.8025 C   0  0  2  0  0  0  0  0  0  0  0  0
  143.2879  136.1915  153.2197 C   0  0  0  0  0  0  0  0  0  0  0  0
  144.8011  134.4025  152.1874 N   0  3  1  0  0  0  0  0  0  0  0  0
  143.6993  134.0294  151.2535 C   0  0  0  0  0  0  0  0  0  0  0  0
  143.8113  132.5616  150.8082 C   0  0  0  0  0  0  0  0  0  0  0  0
  145.1799  132.2661  150.1833 C   0  0  0  0  0  0  0  0  0  0  0  0
  146.3193  132.6968  151.1216 C   0  0  2  0  0  0  0  0  0  0  0  0
  146.4969  131.7525  152.3233 C   0  0  0  0  0  0  0  0  0  0  0  0
  146.1309  134.1642  151.5541 C   0  0  0  0  0  0  0  0  0  0  0  0
  150.9502  138.7652  154.1843 N   0  0  0  0  0  0  0  0  0  0  0  0
  151.3977  139.9195  154.8377 O   0  0  0  0  0  0  0  0  0  0  0  0
  149.6821  142.3847  156.2866 H   0  0  0  0  0  0  0  0  0  0  0  0
  151.2853  142.4612  155.5551 H   0  0  0  0  0  0  0  0  0  0  0  0
  151.0530  141.6117  157.0852 H   0  0  0  0  0  0  0  0  0  0  0  0
  148.1672  140.1299  155.3980 H   0  0  0  0  0  0  0  0  0  0  0  0
  149.0241  137.2931  153.0336 H   0  0  0  0  0  0  0  0  0  0  0  0
  147.4442  136.0931  152.8747 H   0  0  0  0  0  0  0  0  0  0  0  0
  145.8563  134.8708  154.4616 H   0  0  0  0  0  0  0  0  0  0  0  0
  145.2184  136.4512  154.8053 H   0  0  0  0  0  0  0  0  0  0  0  0
  145.0388  136.4846  152.0457 H   0  0  0  0  0  0  0  0  0  0  0  0
  143.2806  137.1859  153.6659 H   0  0  0  0  0  0  0  0  0  0  0  0
  142.8632  135.5049  153.9526 H   0  0  0  0  0  0  0  0  0  0  0  0
  142.6122  136.2458  152.3659 H   0  0  0  0  0  0  0  0  0  0  0  0
  142.7270  134.1400  151.7320 H   0  0  0  0  0  0  0  0  0  0  0  0
  143.7129  134.6917  150.3864 H   0  0  0  0  0  0  0  0  0  0  0  0
  143.6443  131.9055  151.6631 H   0  0  0  0  0  0  0  0  0  0  0  0
  143.0220  132.3317  150.0918 H   0  0  0  0  0  0  0  0  0  0  0  0
  145.2646  131.2072  149.9365 H   0  0  0  0  0  0  0  0  0  0  0  0
  145.2659  132.8074  149.2400 H   0  0  0  0  0  0  0  0  0  0  0  0
  147.2465  132.6420  150.5495 H   0  0  0  0  0  0  0  0  0  0  0  0
  145.6242  131.7529  152.9764 H   0  0  0  0  0  0  0  0  0  0  0  0
  147.3575  132.0452  152.9254 H   0  0  0  0  0  0  0  0  0  0  0  0
  146.6637  130.7269  151.9928 H   0  0  0  0  0  0  0  0  0  0  0  0
  146.2264  134.8148  150.6829 H   0  0  0  0  0  0  0  0  0  0  0  0
  146.9420  134.4422  152.2259 H   0  0  0  0  0  0  0  0  0  0  0  0
  144.7279  133.7533  152.9577 H   0  0  0  0  0  0  0  0  0  0  0  0
  1  2  1  0  0  0  0
  1 21  1  0  0  0  0
  1 22  1  0  0  0  0
  1 23  1  0  0  0  0
  2 20  1  0  0  0  0
  2  3  2  0  0  0  0
  3  4  1  0  0  0  0
  3 24  1  0  0  0  0
  4  5  1  0  0  0  0
  4 19  2  0  0  0  0
  5  6  1  0  0  0  0
  5 25  1  0  0  0  0
  6  7  2  0  0  0  0
  6  8  1  0  0  0  0
  8  9  1  0  0  0  0
  8 26  1  0  0  0  0
  9 10  1  0  0  0  0
  9 27  1  0  0  0  0
  9 28  1  0  0  0  0
 10 11  1  0  0  0  0
 10 12  1  0  0  0  0
 10 29  1  0  0  0  0
 11 30  1  0  0  0  0
 11 31  1  0  0  0  0
 11 32  1  0  0  0  0
 12 18  1  0  0  0  0
 12 13  1  0  0  0  0
 12 45  1  0  0  0  0
 13 14  1  0  0  0  0
 13 33  1  0  0  0  0
 13 34  1  0  0  0  0
 14 15  1  0  0  0  0
 14 35  1  0  0  0  0
 14 36  1  0  0  0  0
 15 16  1  0  0  0  0
 15 37  1  0  0  0  0
 15 38  1  0  0  0  0
 16 17  1  0  0  0  0
 16 18  1  0  0  0  0
 16 39  1  0  0  0  0
 17 40  1  0  0  0  0
 17 41  1  0  0  0  0
 17 42  1  0  0  0  0
 18 43  1  0  0  0  0
 18 44  1  0  0  0  0
 19 20  1  0  0  0  0
M  CHG  1  12   1
M  END
> <s_m_source_file>
AV-unprocessed.smi

> <i_m_source_file_index>
2083

> <i_lp_mmshare_version>
43012

> <i_f3d_flags>
0

> <s_epik_input>
W0NIM11jMVtjSF1jKG5vMSlbTkhdQyg9TylbTkhdW0NIMl1bQ0BIXShbQ0gzXSlOMltDSDJdW0NIMl1bQ0gyXVtDQEBIXShbQ0gzXSlbQ0gyXTI=

> <s_epik_cmdline>
J2VwaWtfcHl0aG9uJywgJy1waCcsICc3LjAnLCAnLXRuJywgJzgnLCAnLW1hJywgJzIwMCcsICctbWV0YWxfYmluZGluZycsICctaW1hZScsICc8aW5maWxlLm1hZT4nLCAnLW9tYWUnLCAnPG91dGZpbGUubWFlPic=

> <r_epik_Ionization_Penalty>
0.00216453

> <r_epik_Ionization_Penalty_Charging>
0.00212879

> <r_epik_Ionization_Penalty_Neutral>
3.57418e-05

> <r_epik_State_Penalty>
0.00146033

> <r_epik_Charging_Adjusted_Penalty>
0.00358912

> <i_epik_Tot_Q>
1

> <i_epik_Tot_abs_Q>
1

> <r_epik_Metal_State_Penalty>
0.0215827

> <b_epik_Metal_Only>
0

> <s_lp_Force_Field>
OPLS_2005

> <r_lp_Energy>
21.862

> <b_lp_Chiralities_Consistent>
1

> <s_lp_Variant>
AV-unprocessed.smi:2083-5

> <Gold.Version>
5.8.1

> <Gold.Id.Protein>
6NUR|6NUR_protein|mol2

> <Gold.PLP.Fitness>
36.7956

> <Gold.PLP.PLP>
-30.1675

> <Gold.PLP.part.hbond>
-3.2169

> <Gold.PLP.part.metal>
0.0000

> <Gold.PLP.part.buried>
-3.9445

> <Gold.PLP.part.nonpolar>
-23.4520

> <Gold.PLP.part.repulsive>
0.2936

> <Gold.PLP.ligand.clash>
0.0000

> <Gold.PLP.ligand.torsion>
0.9842

> <Gold.PLP.Chemscore.Hbond>
2.8460

> <Gold.PLP.Chemscore.CHOScore>
0.0000

> <Gold.PLP.Chemscore.Metal>
0.0000

> <Gold.Chemscore.Hbonds>
donor molecule, donor type, donor heavy atom, donor atom, acceptor molecule, acceptor atom, score
      L1  H     5    25       P1  7948  1.00
      L1  H     8    26       P1  7948  0.91
      P1  H  7989  7998       L1    20  0.90

> <Gold.PLP.Chemscore.Internal.Correction>
0.0584

> <Gold.Rescore>
     Score         DG    S(hbond)    S(metal)    S(lipo)     H(rot)  DE(clash)    DE(int)     intcor
     14.38     -16.68       1.95        0.00      73.82       1.55       0.13       2.16       ----

> <Gold.Chemscore.Fitness>
14.3802

> <Gold.Chemscore.DG>
-16.6756

> <Gold.Chemscore.ZeroCoef>
-5.4800

> <Gold.Chemscore.Hbond>
1.9521

> <Gold.Chemscore.Metal>
0.0000

> <Gold.Chemscore.Lipo>
73.8189

> <Gold.Chemscore.Internal_Hbond>
0.0000

> <Gold.Chemscore.DEClash>
0.1338

> <Gold.Chemscore.DEInternal>
2.1616

> <Gold.Chemscore.Rot>
1.5474

> <Gold.Chemscore.Internal.Correction>
   9.000000E+99

> <Gold.Chemscore.Hbonds>
donor molecule, donor type, donor heavy atom, donor atom, acceptor molecule, acceptor atom, score
      L1  H     5    25       P1  7948  0.95
      L1  H     8    26       P1  7948  0.88
      P1  H  7989  7998       L1    20  0.05

> <Gold.Chemscore.Hbond.Weighted>
-6.5200

> <Gold.Chemscore.Metal.Weighted>
-0.0000

> <Gold.Chemscore.Lipo.Weighted>
-8.6368

> <Gold.Chemscore.Internal_Hbond.Weighted>
0.0000

> <Gold.Chemscore.DEClash.Weighted>
0.1338

> <Gold.Chemscore.DEInternal.Weighted>
2.1616

> <Gold.Chemscore.Rot.Weighted>
3.9612

> <Gold.Chemscore.Internal.Correction.Weighted>
   9.000000E+99

> <Gold.Protein.RotatedTorsions>
[ 6907 6896 6895 6894 ] final   99.27 input  -60.11 | X-H torsion
[ 7974 7965 7964 7962 ] final  -95.74 input  175.53 | X-H torsion
[ 8008 7997 7996 7995 ] final -131.68 input   59.86 | X-H torsion
[ 10167 10162 10161 10158 ] final  -14.19 input  -65.29 | X-H torsion
[ 10718 10713 10712 10709 ] final -174.29 input   66.30 | X-H torsion
[ 10763 10752 10751 10750 ] final -111.81 input  -60.55 | X-H torsion
[ 11005 11000 10999 10996 ] final   41.72 input  -57.11 | X-H torsion

> <Gold.Protein.ActiveResidues>
 VAL166  LYS551  ARG553  GLY616  TRP617  ASP618  TYR619  PRO620  LYS621  CYS622 
 ASP623  PHE694  ASN695  SER759  ASP760  ASP761  ALA762  ILE779  LEU786  VAL792 
 PHE793  MET794  SER795  GLU796  ALA797  LYS798  CYS799  TRP800  GLU811  SER814 

> <Gold.Protein.RotatedAtoms>
  152.5395  134.0454  159.8085 H   0  0  0  0  0  0  0  0  0  0  0  0  # atno 6907 bound_to 6896
  151.0603  133.5542  159.2642 H   0  0  0  0  0  0  0  0  0  0  0  0  # atno 6908 bound_to 6896
  151.2443  135.0608  159.9091 H   0  0  0  0  0  0  0  0  0  0  0  0  # atno 6909 bound_to 6896
  145.3560  140.9484  143.2527 H   0  0  0  0  0  0  0  0  0  0  0  0  # atno 7974 bound_to 7965
  155.3164  140.0460  157.3037 H   0  0  0  0  0  0  0  0  0  0  0  0  # atno 8008 bound_to 7997
  154.5404  140.2286  155.8617 H   0  0  0  0  0  0  0  0  0  0  0  0  # atno 8009 bound_to 7997
  156.1875  140.3059  155.9274 H   0  0  0  0  0  0  0  0  0  0  0  0  # atno 8010 bound_to 7997
  140.7196  143.5347  150.9478 H   0  0  0  0  0  0  0  0  0  0  0  0  # atno 10167 bound_to 10162
  156.7830  130.9490  151.3120 H   0  0  0  0  0  0  0  0  0  0  0  0  # atno 10718 bound_to 10713
  154.8319  135.4513  154.1097 H   0  0  0  0  0  0  0  0  0  0  0  0  # atno 10763 bound_to 10752
  153.2363  135.6911  153.7839 H   0  0  0  0  0  0  0  0  0  0  0  0  # atno 10764 bound_to 10752
  153.7204  135.3342  155.3241 H   0  0  0  0  0  0  0  0  0  0  0  0  # atno 10765 bound_to 10752
  140.1808  134.4107  155.8201 H   0  0  0  0  0  0  0  0  0  0  0  0  # atno 11005 bound_to 11000
  144.8682  139.5077  143.6780 LP  0  0  0  0  0  0  0  0  0  0  0  0  # atno 17320 bound_to 7965
  146.2948  139.7244  142.9135 LP  0  0  0  0  0  0  0  0  0  0  0  0  # atno 17321 bound_to 7965
  139.9068  143.6768  152.3122 LP  0  0  0  0  0  0  0  0  0  0  0  0  # atno 17342 bound_to 10162
  139.7137  144.7615  151.1069 LP  0  0  0  0  0  0  0  0  0  0  0  0  # atno 17343 bound_to 10162
  157.6637  130.8989  149.9886 LP  0  0  0  0  0  0  0  0  0  0  0  0  # atno 17370 bound_to 10713
  156.1206  130.3646  149.9893 LP  0  0  0  0  0  0  0  0  0  0  0  0  # atno 17371 bound_to 10713
  141.2223  133.6999  156.7926 LP  0  0  0  0  0  0  0  0  0  0  0  0  # atno 17394 bound_to 11000
  140.2270  134.8714  157.3437 LP  0  0  0  0  0  0  0  0  0  0  0  0  # atno 17395 bound_to 11000

$$$$
