AV-unprocessed.smi:842|AV-procd|sdf|3920|dock1
  -GOLD-   22720 1383D 1   1.00000     0.00000
 Structure written by MMmdl.
 43 44  0  0  0  0  0  0  0  0  2 V2000
  145.8630  134.8843  152.0098 C   0  0  0  0  0  0  0  0  0  0  0  0
  145.6508  136.0687  151.0551 C   0  0  0  0  0  0  0  0  0  0  0  0
  145.6213  137.4392  151.7624 C   0  0  1  0  0  0  0  0  0  0  0  0
  144.5432  137.5045  152.8626 C   0  0  0  0  0  0  0  0  0  0  0  0
  143.2611  137.6607  152.2921 O   0  0  0  0  0  0  0  0  0  0  0  0
  146.9346  137.7317  152.3343 N   0  0  0  0  0  0  0  0  0  0  0  0
  147.2176  138.7579  153.1494 C   0  0  0  0  0  0  0  0  0  0  0  0
  146.3787  139.5736  153.5305 O   0  0  0  0  0  0  0  0  0  0  0  0
  148.5228  138.7747  153.4708 N   0  0  0  0  0  0  0  0  0  0  0  0
  149.2255  139.7011  154.2889 C   0  0  0  0  0  0  0  0  0  0  0  0
  150.4179  139.2615  154.9016 C   0  0  0  0  0  0  0  0  0  0  0  0
  151.1482  140.1397  155.7281 C   0  0  0  0  0  0  0  0  0  0  0  0
  150.6730  141.4542  155.9456 C   0  0  0  0  0  0  0  0  0  0  0  0
  151.3529  142.3880  156.7501 N   0  0  0  0  0  0  0  0  0  0  0  0
  151.0741  143.8127  156.6699 C   0  0  0  0  0  0  0  0  0  0  0  0
  151.9138  144.4309  157.7866 C   0  0  0  0  0  0  0  0  0  0  0  0
  151.9256  143.3392  158.8575 C   0  0  0  0  0  0  0  0  0  0  0  0
  151.8753  142.0296  158.0610 C   0  0  0  0  0  0  0  0  0  0  0  0
  149.5194  141.8314  155.3450 N   0  3  0  0  0  0  0  0  0  0  0  0
  148.7898  141.0235  154.5456 C   0  0  0  0  0  0  0  0  0  0  0  0
  145.9224  133.9476  151.4552 H   0  0  0  0  0  0  0  0  0  0  0  0
  145.0451  134.7905  152.7242 H   0  0  0  0  0  0  0  0  0  0  0  0
  146.7900  134.9954  152.5727 H   0  0  0  0  0  0  0  0  0  0  0  0
  146.4524  136.0615  150.3159 H   0  0  0  0  0  0  0  0  0  0  0  0
  144.7253  135.9203  150.4975 H   0  0  0  0  0  0  0  0  0  0  0  0
  145.3968  138.2000  151.0117 H   0  0  0  0  0  0  0  0  0  0  0  0
  144.5619  136.6099  153.4861 H   0  0  0  0  0  0  0  0  0  0  0  0
  144.7141  138.3578  153.5202 H   0  0  0  0  0  0  0  0  0  0  0  0
  143.0714  138.5843  152.2282 H   0  0  0  0  0  0  0  0  0  0  0  0
  147.6869  137.1120  152.0717 H   0  0  0  0  0  0  0  0  0  0  0  0
  149.0927  138.0674  153.0305 H   0  0  0  0  0  0  0  0  0  0  0  0
  150.7800  138.2572  154.7352 H   0  0  0  0  0  0  0  0  0  0  0  0
  152.0674  139.7957  156.1792 H   0  0  0  0  0  0  0  0  0  0  0  0
  151.3371  144.2227  155.6943 H   0  0  0  0  0  0  0  0  0  0  0  0
  150.0115  143.9866  156.8453 H   0  0  0  0  0  0  0  0  0  0  0  0
  152.9296  144.6075  157.4303 H   0  0  0  0  0  0  0  0  0  0  0  0
  151.5120  145.3789  158.1453 H   0  0  0  0  0  0  0  0  0  0  0  0
  152.7923  143.3996  159.5163 H   0  0  0  0  0  0  0  0  0  0  0  0
  151.0303  143.4262  159.4748 H   0  0  0  0  0  0  0  0  0  0  0  0
  151.2524  141.2901  158.5656 H   0  0  0  0  0  0  0  0  0  0  0  0
  152.8753  141.6122  157.9398 H   0  0  0  0  0  0  0  0  0  0  0  0
  147.8881  141.4715  154.1568 H   0  0  0  0  0  0  0  0  0  0  0  0
  149.1791  142.7797  155.5057 H   0  0  0  0  0  0  0  0  0  0  0  0
  1  2  1  0  0  0  0
  1 21  1  0  0  0  0
  1 22  1  0  0  0  0
  1 23  1  0  0  0  0
  2  3  1  0  0  0  0
  2 24  1  0  0  0  0
  2 25  1  0  0  0  0
  3  4  1  0  0  0  0
  3  6  1  0  0  0  0
  3 26  1  0  0  0  0
  4  5  1  0  0  0  0
  4 27  1  0  0  0  0
  4 28  1  0  0  0  0
  5 29  1  0  0  0  0
  6  7  1  0  0  0  0
  6 30  1  0  0  0  0
  7  8  2  0  0  0  0
  7  9  1  0  0  0  0
  9 10  1  0  0  0  0
  9 31  1  0  0  0  0
 10 20  1  0  0  0  0
 10 11  2  0  0  0  0
 11 12  1  0  0  0  0
 11 32  1  0  0  0  0
 12 13  2  0  0  0  0
 12 33  1  0  0  0  0
 13 14  1  0  0  0  0
 13 19  1  0  0  0  0
 14 18  1  0  0  0  0
 14 15  1  0  0  0  0
 15 16  1  0  0  0  0
 15 34  1  0  0  0  0
 15 35  1  0  0  0  0
 16 17  1  0  0  0  0
 16 36  1  0  0  0  0
 16 37  1  0  0  0  0
 17 18  1  0  0  0  0
 17 38  1  0  0  0  0
 17 39  1  0  0  0  0
 18 40  1  0  0  0  0
 18 41  1  0  0  0  0
 19 20  2  0  0  0  0
 19 43  1  0  0  0  0
 20 42  1  0  0  0  0
M  CHG  1  19   1
M  END
> <s_m_source_file>
AV-unprocessed.smi

> <i_m_source_file_index>
842

> <i_lp_mmshare_version>
43012

> <i_f3d_flags>
0

> <s_epik_input>
W0NIM11bQ0gyXVtDQEhdKFtDSDJdW09IXSlbTkhdQyg9TylbTkhdYzFbY0hdW2NIXWMobltjSF0xKU4yW0NIMl1bQ0gyXVtDSDJdW0NIMl0y

> <s_epik_cmdline>
J2VwaWtfcHl0aG9uJywgJy1waCcsICc3LjAnLCAnLXRuJywgJzgnLCAnLW1hJywgJzIwMCcsICctbWV0YWxfYmluZGluZycsICctaW1hZScsICc8aW5maWxlLm1hZT4nLCAnLW9tYWUnLCAnPG91dGZpbGUubWFlPic=

> <r_lp_tautomer_probability>
0.999994

> <r_epik_Ionization_Penalty>
1.10848

> <r_epik_Ionization_Penalty_Charging>
1.10846

> <r_epik_Ionization_Penalty_Neutral>
2.01032e-05

> <r_epik_State_Penalty>
1.16624

> <r_epik_Charging_Adjusted_Penalty>
2.2747

> <i_epik_Tot_Q>
1

> <i_epik_Tot_abs_Q>
1

> <r_epik_Metal_State_Penalty>
1.25257

> <b_epik_Metal_Only>
0

> <s_lp_Force_Field>
OPLS_2005

> <r_lp_Energy>
34.6979

> <b_lp_Chiralities_Consistent>
1

> <s_lp_Variant>
AV-unprocessed.smi:842-4

> <Gold.Version>
5.8.1

> <Gold.Id.Protein>
6NUR|6NUR_protein|mol2

> <Gold.PLP.Fitness>
51.0588

> <Gold.PLP.PLP>
-38.5915

> <Gold.PLP.part.hbond>
-6.0000

> <Gold.PLP.part.metal>
0.0000

> <Gold.PLP.part.buried>
0.6342

> <Gold.PLP.part.nonpolar>
-36.3205

> <Gold.PLP.part.repulsive>
0.7773

> <Gold.PLP.ligand.clash>
0.0000

> <Gold.PLP.ligand.torsion>
0.8437

> <Gold.PLP.Chemscore.Hbond>
4.6318

> <Gold.PLP.Chemscore.CHOScore>
0.0000

> <Gold.PLP.Chemscore.Metal>
0.0000

> <Gold.Chemscore.Hbonds>
donor molecule, donor type, donor heavy atom, donor atom, acceptor molecule, acceptor atom, score
      L1  H     5    29       P1 10175  1.00
      L1  H     6    30       P1  7948  1.00
      L1  H     9    31       P1  7948  0.60
      L1  H    19    43       P1  8028  2.00

> <Gold.PLP.Chemscore.Internal.Correction>
0.2593

> <Gold.Rescore>
     Score         DG    S(hbond)    S(metal)    S(lipo)     H(rot)  DE(clash)    DE(int)     intcor
     16.72     -20.83       2.99        0.00      90.27       2.02       0.62       3.50       ----

> <Gold.Chemscore.Fitness>
16.7199

> <Gold.Chemscore.DG>
-20.8334

> <Gold.Chemscore.ZeroCoef>
-5.4800

> <Gold.Chemscore.Hbond>
2.9853

> <Gold.Chemscore.Metal>
0.0000

> <Gold.Chemscore.Lipo>
90.2695

> <Gold.Chemscore.Internal_Hbond>
0.0000

> <Gold.Chemscore.DEClash>
0.6166

> <Gold.Chemscore.DEInternal>
3.4969

> <Gold.Chemscore.Rot>
2.0230

> <Gold.Chemscore.Internal.Correction>
   9.000000E+99

> <Gold.Chemscore.Hbonds>
donor molecule, donor type, donor heavy atom, donor atom, acceptor molecule, acceptor atom, score
      L1  H     5    29       P1 10175  0.95
      L1  H     6    30       P1  7948  0.94
      L1  H     9    31       P1  7948  0.58
      L1  H    19    43       P1  8028  0.98

> <Gold.Chemscore.Hbond.Weighted>
-9.9708

> <Gold.Chemscore.Metal.Weighted>
-0.0000

> <Gold.Chemscore.Lipo.Weighted>
-10.5615

> <Gold.Chemscore.Internal_Hbond.Weighted>
0.0000

> <Gold.Chemscore.DEClash.Weighted>
0.6166

> <Gold.Chemscore.DEInternal.Weighted>
3.4969

> <Gold.Chemscore.Rot.Weighted>
5.1790

> <Gold.Chemscore.Internal.Correction.Weighted>
   9.000000E+99

> <Gold.Protein.RotatedTorsions>
[ 6907 6896 6895 6894 ] final  145.34 input  -60.11 | X-H torsion
[ 7974 7965 7964 7962 ] final -127.94 input  175.53 | X-H torsion
[ 8008 7997 7996 7995 ] final   -3.63 input   59.86 | X-H torsion
[ 10167 10162 10161 10158 ] final  165.22 input  -65.29 | X-H torsion
[ 10718 10713 10712 10709 ] final   80.15 input   66.30 | X-H torsion
[ 10763 10752 10751 10750 ] final  -76.30 input  -60.55 | X-H torsion
[ 11005 11000 10999 10996 ] final   18.12 input  -57.11 | X-H torsion

> <Gold.Protein.ActiveResidues>
 VAL166  LYS551  ARG553  GLY616  TRP617  ASP618  TYR619  PRO620  LYS621  CYS622 
 ASP623  PHE694  ASN695  SER759  ASP760  ASP761  ALA762  ILE779  LEU786  VAL792 
 PHE793  MET794  SER795  GLU796  ALA797  LYS798  CYS799  TRP800  GLU811  SER814 

> <Gold.Protein.RotatedAtoms>
  152.1821  133.4714  159.4963 H   0  0  0  0  0  0  0  0  0  0  0  0  # atno 6907 bound_to 6896
  150.6936  134.1820  159.4261 H   0  0  0  0  0  0  0  0  0  0  0  0  # atno 6908 bound_to 6896
  151.9732  135.0066  160.0604 H   0  0  0  0  0  0  0  0  0  0  0  0  # atno 6909 bound_to 6896
  144.9720  140.7555  143.4664 H   0  0  0  0  0  0  0  0  0  0  0  0  # atno 7974 bound_to 7965
  154.6228  140.2504  155.7528 H   0  0  0  0  0  0  0  0  0  0  0  0  # atno 8008 bound_to 7997
  156.2436  140.2923  156.0464 H   0  0  0  0  0  0  0  0  0  0  0  0  # atno 8009 bound_to 7997
  155.1869  140.0390  157.2883 H   0  0  0  0  0  0  0  0  0  0  0  0  # atno 8010 bound_to 7997
  139.4902  144.4155  151.9249 H   0  0  0  0  0  0  0  0  0  0  0  0  # atno 10167 bound_to 10162
  157.6797  130.9946  150.2036 H   0  0  0  0  0  0  0  0  0  0  0  0  # atno 10718 bound_to 10713
  154.4980  135.5802  153.6509 H   0  0  0  0  0  0  0  0  0  0  0  0  # atno 10763 bound_to 10752
  152.9873  135.6129  154.3039 H   0  0  0  0  0  0  0  0  0  0  0  0  # atno 10764 bound_to 10752
  154.2944  135.2848  155.2619 H   0  0  0  0  0  0  0  0  0  0  0  0  # atno 10765 bound_to 10752
  140.4283  134.1447  155.7678 H   0  0  0  0  0  0  0  0  0  0  0  0  # atno 11005 bound_to 11000
  145.2544  139.2018  143.4925 LP  0  0  0  0  0  0  0  0  0  0  0  0  # atno 17320 bound_to 7965
  146.3385  140.2463  142.8597 LP  0  0  0  0  0  0  0  0  0  0  0  0  # atno 17321 bound_to 7965
  140.3597  144.2988  150.5935 LP  0  0  0  0  0  0  0  0  0  0  0  0  # atno 17342 bound_to 10162
  140.5413  143.2223  151.8079 LP  0  0  0  0  0  0  0  0  0  0  0  0  # atno 17343 bound_to 10162
  156.2722  130.3723  149.8020 LP  0  0  0  0  0  0  0  0  0  0  0  0  # atno 17370 bound_to 10713
  156.5734  130.8434  151.3363 LP  0  0  0  0  0  0  0  0  0  0  0  0  # atno 17371 bound_to 10713
  141.1756  133.8521  157.1432 LP  0  0  0  0  0  0  0  0  0  0  0  0  # atno 17394 bound_to 11000
  140.0152  134.9970  157.0478 LP  0  0  0  0  0  0  0  0  0  0  0  0  # atno 17395 bound_to 11000

$$$$
