AV-unprocessed.smi:157|AV-procd|sdf|1305|dock5
  -GOLD-   2262018593D 1   1.00000     0.00000
 Structure written by MMmdl.
 35 37  0  0  0  0  0  0  0  0  1 V2000
  149.7793  138.4709  153.2984 O   0  0  0  0  0  0  0  0  0  0  0  0
  148.7951  139.3596  153.7830 C   0  0  0  0  0  0  0  0  0  0  0  0
  149.2720  140.0289  155.0838 C   0  0  1  0  0  0  0  0  0  0  0  0
  150.6704  140.2883  155.0444 O   0  0  0  0  0  0  0  0  0  0  0  0
  150.9938  141.3068  155.9462 C   0  0  2  0  0  0  0  0  0  0  0  0
  151.6983  140.7079  157.1281 N   0  0  0  0  0  0  0  0  0  0  0  0
  151.9882  139.4141  157.3244 C   0  0  0  0  0  0  0  0  0  0  0  0
  152.6116  139.1570  158.4613 N   0  0  0  0  0  0  0  0  0  0  0  0
  152.7526  140.4094  159.0590 C   0  0  0  0  0  0  0  0  0  0  0  0
  152.1738  141.3829  158.2565 C   0  0  0  0  0  0  0  0  0  0  0  0
  151.9767  142.7506  158.3221 N   0  0  0  0  0  0  0  0  0  0  0  0
  152.2207  143.3680  159.4361 C   0  0  0  0  0  0  0  0  0  0  0  0
  152.7630  142.9096  160.6291 N   0  0  0  0  0  0  0  0  0  0  0  0
  153.8681  141.9734  160.7015 C   0  0  0  0  0  0  0  0  0  0  0  0
  153.4270  140.5420  160.3953 C   0  0  2  0  0  0  0  0  0  0  0  0
  154.5742  139.7162  160.3733 O   0  0  0  0  0  0  0  0  0  0  0  0
  149.6794  141.9626  156.3979 C   0  0  0  0  0  0  0  0  0  0  0  0
  148.6628  141.3942  155.4253 C   0  0  1  0  0  0  0  0  0  0  0  0
  148.5387  142.2256  154.2868 O   0  0  0  0  0  0  0  0  0  0  0  0
  149.0946  139.3499  155.9200 H   0  0  0  0  0  0  0  0  0  0  0  0
  151.7109  141.9969  155.5003 H   0  0  0  0  0  0  0  0  0  0  0  0
  152.7617  140.1867  161.1830 H   0  0  0  0  0  0  0  0  0  0  0  0
  147.6785  141.2919  155.8835 H   0  0  0  0  0  0  0  0  0  0  0  0
  149.9672  138.6933  152.3993 H   0  0  0  0  0  0  0  0  0  0  0  0
  148.6139  140.1182  153.0214 H   0  0  0  0  0  0  0  0  0  0  0  0
  147.8556  138.8255  153.9271 H   0  0  0  0  0  0  0  0  0  0  0  0
  151.7342  138.6353  156.6205 H   0  0  0  0  0  0  0  0  0  0  0  0
  151.9896  144.4327  159.4923 H   0  0  0  0  0  0  0  0  0  0  0  0
  152.7191  143.5038  161.4445 H   0  0  0  0  0  0  0  0  0  0  0  0
  154.6399  142.2892  159.9975 H   0  0  0  0  0  0  0  0  0  0  0  0
  154.3097  142.0270  161.6969 H   0  0  0  0  0  0  0  0  0  0  0  0
  155.0396  139.8806  159.5671 H   0  0  0  0  0  0  0  0  0  0  0  0
  149.4385  141.6493  157.4154 H   0  0  0  0  0  0  0  0  0  0  0  0
  149.7544  143.0508  156.3793 H   0  0  0  0  0  0  0  0  0  0  0  0
  148.5526  143.1262  154.5728 H   0  0  0  0  0  0  0  0  0  0  0  0
  1  2  1  0  0  0  0
  1 24  1  0  0  0  0
  2  3  1  0  0  0  0
  2 25  1  0  0  0  0
  2 26  1  0  0  0  0
  3 20  1  0  0  0  0
  3 18  1  0  0  0  0
  3  4  1  0  0  0  0
  4  5  1  0  0  0  0
  5 21  1  0  0  0  0
  5  6  1  0  0  0  0
  5 17  1  0  0  0  0
  6 10  1  0  0  0  0
  6  7  1  0  0  0  0
  7  8  2  0  0  0  0
  7 27  1  0  0  0  0
  8  9  1  0  0  0  0
  9 15  1  0  0  0  0
  9 10  2  0  0  0  0
 10 11  1  0  0  0  0
 11 12  2  0  0  0  0
 12 13  1  0  0  0  0
 12 28  1  0  0  0  0
 13 14  1  0  0  0  0
 13 29  1  0  0  0  0
 14 15  1  0  0  0  0
 14 30  1  0  0  0  0
 14 31  1  0  0  0  0
 15 22  1  0  0  0  0
 15 16  1  0  0  0  0
 16 32  1  0  0  0  0
 17 18  1  0  0  0  0
 17 33  1  0  0  0  0
 17 34  1  0  0  0  0
 18 23  1  0  0  0  0
 18 19  1  0  0  0  0
 19 35  1  0  0  0  0
M  END
> <s_m_source_file>
AV-unprocessed.smi

> <i_m_source_file_index>
157

> <i_lp_mmshare_version>
43012

> <i_f3d_flags>
0

> <s_epik_input>
W09IXVtDSDJdW0NASF0xT1tDQEhdKFtDSDJdW0NAQEhdMVtPSF0pbihbY0hdbjIpYyhjMjMpTj1bQ0hdW05IXVtDSDJdW0NASF0zW09IXQ==

> <s_epik_cmdline>
J2VwaWtfcHl0aG9uJywgJy1waCcsICc3LjAnLCAnLXRuJywgJzgnLCAnLW1hJywgJzIwMCcsICctbWV0YWxfYmluZGluZycsICctaW1hZScsICc8aW5maWxlLm1hZT4nLCAnLW9tYWUnLCAnPG91dGZpbGUubWFlPic=

> <r_lp_tautomer_probability>
1

> <r_epik_Ionization_Penalty>
0.0357149

> <r_epik_Ionization_Penalty_Charging>
0.0355056

> <r_epik_Ionization_Penalty_Neutral>
0.000209255

> <r_epik_State_Penalty>
0.0296046

> <r_epik_Charging_Adjusted_Penalty>
0.0651102

> <i_epik_Tot_Q>
0

> <i_epik_Tot_abs_Q>
0

> <r_epik_Metal_State_Penalty>
3.03559e-05

> <b_epik_Metal_Only>
0

> <s_epik_Chemistry_Notes>
This compound has an imine and may undergo hydrolysis. This compound contains an acetal/aminal-like group ( X-CH(R)-Y where X, Y are N, S, or O) that may be acid/base labile, releasing an aldehyde.

> <s_lp_Force_Field>
OPLS_2005

> <r_lp_Energy>
41.6449

> <b_lp_Chiralities_Consistent>
1

> <s_lp_Variant>
AV-unprocessed.smi:157-15

> <Gold.Version>
5.8.1

> <Gold.Id.Protein>
6NUR|6NUR_protein|mol2

> <Gold.PLP.Fitness>
40.6737

> <Gold.PLP.PLP>
-32.4747

> <Gold.PLP.part.hbond>
-5.0000

> <Gold.PLP.part.metal>
0.0000

> <Gold.PLP.part.buried>
-2.2141

> <Gold.PLP.part.nonpolar>
-23.9448

> <Gold.PLP.part.repulsive>
0.1298

> <Gold.PLP.ligand.clash>
0.0000

> <Gold.PLP.ligand.torsion>
0.2716

> <Gold.PLP.Chemscore.Hbond>
2.9118

> <Gold.PLP.Chemscore.CHOScore>
0.0000

> <Gold.PLP.Chemscore.Metal>
0.0000

> <Gold.Chemscore.Hbonds>
donor molecule, donor type, donor heavy atom, donor atom, acceptor molecule, acceptor atom, score
      L1  H     1    24       P1  7957  0.79
      L1  H    19    35       P1  8028  1.00
      P1  H  7989  7998       L1     4  1.00
      P1  H  8011  8017       L1    19  0.07

> <Gold.PLP.Chemscore.Internal.Correction>
0.0067

> <Gold.Rescore>
     Score         DG    S(hbond)    S(metal)    S(lipo)     H(rot)  DE(clash)    DE(int)     intcor
      8.90     -10.02       2.47        0.00      47.76       3.64       0.87       0.26       ----

> <Gold.Chemscore.Fitness>
8.8951

> <Gold.Chemscore.DG>
-10.0199

> <Gold.Chemscore.ZeroCoef>
-5.4800

> <Gold.Chemscore.Hbond>
2.4732

> <Gold.Chemscore.Metal>
0.0000

> <Gold.Chemscore.Lipo>
47.7616

> <Gold.Chemscore.Internal_Hbond>
0.0000

> <Gold.Chemscore.DEClash>
0.8651

> <Gold.Chemscore.DEInternal>
0.2597

> <Gold.Chemscore.Rot>
3.6362

> <Gold.Chemscore.Internal.Correction>
   9.000000E+99

> <Gold.Chemscore.Hbonds>
donor molecule, donor type, donor heavy atom, donor atom, acceptor molecule, acceptor atom, score
      L1  H     1    24       P1  7957  0.18
      L1  H    19    35       P1  8028  0.99
      P1  H  7989  7998       L1     4  0.25
      P1  H  8011  8017       L1    19  0.02

> <Gold.Chemscore.Hbond.Weighted>
-8.2605

> <Gold.Chemscore.Metal.Weighted>
-0.0000

> <Gold.Chemscore.Lipo.Weighted>
-5.5881

> <Gold.Chemscore.Internal_Hbond.Weighted>
0.0000

> <Gold.Chemscore.DEClash.Weighted>
0.8651

> <Gold.Chemscore.DEInternal.Weighted>
0.2597

> <Gold.Chemscore.Rot.Weighted>
9.3087

> <Gold.Chemscore.Internal.Correction.Weighted>
   9.000000E+99

> <Gold.Protein.RotatedTorsions>
[ 6907 6896 6895 6894 ] final  134.79 input  -60.11 | X-H torsion
[ 7974 7965 7964 7962 ] final    1.84 input  175.53 | X-H torsion
[ 8008 7997 7996 7995 ] final  119.28 input   59.86 | X-H torsion
[ 10167 10162 10161 10158 ] final  -20.36 input  -65.29 | X-H torsion
[ 10718 10713 10712 10709 ] final  -61.46 input   66.30 | X-H torsion
[ 10763 10752 10751 10750 ] final -135.23 input  -60.55 | X-H torsion
[ 11005 11000 10999 10996 ] final  -35.38 input  -57.11 | X-H torsion

> <Gold.Protein.ActiveResidues>
 VAL166  LYS551  ARG553  GLY616  TRP617  ASP618  TYR619  PRO620  LYS621  CYS622 
 ASP623  PHE694  ASN695  SER759  ASP760  ASP761  ALA762  ILE779  LEU786  VAL792 
 PHE793  MET794  SER795  GLU796  ALA797  LYS798  CYS799  TRP800  GLU811  SER814 

> <Gold.Protein.RotatedAtoms>
  152.3075  133.5718  159.5658 H   0  0  0  0  0  0  0  0  0  0  0  0  # atno 6907 bound_to 6896
  150.7306  134.0201  159.3707 H   0  0  0  0  0  0  0  0  0  0  0  0  # atno 6908 bound_to 6896
  151.8097  135.0685  160.0462 H   0  0  0  0  0  0  0  0  0  0  0  0  # atno 6909 bound_to 6896
  146.2442  140.0927  142.8351 H   0  0  0  0  0  0  0  0  0  0  0  0  # atno 7974 bound_to 7965
  156.2588  140.2856  156.0967 H   0  0  0  0  0  0  0  0  0  0  0  0  # atno 8008 bound_to 7997
  155.1404  140.0395  157.2814 H   0  0  0  0  0  0  0  0  0  0  0  0  # atno 8009 bound_to 7997
  154.6534  140.2550  155.7195 H   0  0  0  0  0  0  0  0  0  0  0  0  # atno 8010 bound_to 7997
  140.7275  143.4730  151.0221 H   0  0  0  0  0  0  0  0  0  0  0  0  # atno 10167 bound_to 10162
  156.0920  130.4198  150.0997 H   0  0  0  0  0  0  0  0  0  0  0  0  # atno 10718 bound_to 10713
  154.8706  135.3710  154.4865 H   0  0  0  0  0  0  0  0  0  0  0  0  # atno 10763 bound_to 10752
  153.5514  135.7024  153.5594 H   0  0  0  0  0  0  0  0  0  0  0  0  # atno 10764 bound_to 10752
  153.3711  135.4021  155.1753 H   0  0  0  0  0  0  0  0  0  0  0  0  # atno 10765 bound_to 10752
  140.9792  133.7066  156.1654 H   0  0  0  0  0  0  0  0  0  0  0  0  # atno 11005 bound_to 11000
  145.0637  140.9106  143.4923 LP  0  0  0  0  0  0  0  0  0  0  0  0  # atno 17320 bound_to 7965
  145.1047  139.2798  143.5668 LP  0  0  0  0  0  0  0  0  0  0  0  0  # atno 17321 bound_to 7965
  139.8423  143.7547  152.3180 LP  0  0  0  0  0  0  0  0  0  0  0  0  # atno 17342 bound_to 10162
  139.7700  144.7479  151.0238 LP  0  0  0  0  0  0  0  0  0  0  0  0  # atno 17343 bound_to 10162
  156.9005  130.9618  151.3577 LP  0  0  0  0  0  0  0  0  0  0  0  0  # atno 17370 bound_to 10713
  157.6072  130.8556  149.8894 LP  0  0  0  0  0  0  0  0  0  0  0  0  # atno 17371 bound_to 10713
  140.7213  134.4356  157.5574 LP  0  0  0  0  0  0  0  0  0  0  0  0  # atno 17394 bound_to 11000
  139.8943  134.8710  156.2184 LP  0  0  0  0  0  0  0  0  0  0  0  0  # atno 17395 bound_to 11000

$$$$
