AV-unprocessed.smi:36|AV-procd|sdf|285|dock7
  -GOLD-   2262016 63D 1   1.00000     0.00000
 Structure written by MMmdl.
 64 67  0  0  0  0  0  0  0  0  1 V2000
  145.9850  133.4739  162.5031 C   0  0  0  0  0  0  0  0  0  0  0  0
  147.1925  133.6313  161.5643 C   0  0  0  0  0  0  0  0  0  0  0  0
  147.9669  134.9121  161.9183 C   0  0  0  0  0  0  0  0  0  0  0  0
  148.1199  132.4118  161.6977 C   0  0  0  0  0  0  0  0  0  0  0  0
  146.5821  133.7521  159.7578 Si  0  0  0  0  0  0  0  0  0  0  0  0
  145.5588  132.2237  159.2785 C   0  0  0  0  0  0  0  0  0  0  0  0
  145.5429  135.3212  159.4909 C   0  0  0  0  0  0  0  0  0  0  0  0
  147.9444  133.8389  158.7554 O   0  0  0  0  0  0  0  0  0  0  0  0
  147.9707  133.4131  157.4073 C   0  0  0  0  0  0  0  0  0  0  0  0
  149.4283  133.2054  156.9523 C   0  0  2  0  0  0  0  0  0  0  0  0
  150.2181  134.2284  157.5681 O   0  0  0  0  0  0  0  0  0  0  0  0
  150.9165  134.9354  156.5938 C   0  0  2  0  0  0  0  0  0  0  0  0
  151.0624  136.3554  157.0306 N   0  0  0  0  0  0  0  0  0  0  0  0
  150.6207  136.9242  158.2045 C   0  0  0  0  0  0  0  0  0  0  0  0
  150.8669  138.2002  158.3366 N   0  0  0  0  0  0  0  0  0  0  0  0
  151.5221  138.5398  157.1599 C   0  0  0  0  0  0  0  0  0  0  0  0
  152.0578  139.7507  156.6478 C   0  0  0  0  0  0  0  0  0  0  0  0
  151.9710  140.8925  157.3706 N   0  0  0  0  0  0  0  0  0  0  0  0
  152.7066  141.2551  158.5696 C   0  0  0  0  0  0  0  0  0  0  0  0
  153.5778  140.5295  159.0498 O   0  0  0  0  0  0  0  0  0  0  0  0
  152.4014  142.6073  159.1459 C   0  0  0  0  0  0  0  0  0  0  0  0
  152.0754  143.6834  158.2899 C   0  0  0  0  0  0  0  0  0  0  0  0
  151.8005  144.9588  158.8205 C   0  0  0  0  0  0  0  0  0  0  0  0
  151.8578  145.1717  160.2106 C   0  0  0  0  0  0  0  0  0  0  0  0
  152.1938  144.1086  161.0698 C   0  0  0  0  0  0  0  0  0  0  0  0
  152.4682  142.8323  160.5405 C   0  0  0  0  0  0  0  0  0  0  0  0
  152.6447  139.7056  155.4226 N   0  0  0  0  0  0  0  0  0  0  0  0
  152.7002  138.5549  154.7451 C   0  0  0  0  0  0  0  0  0  0  0  0
  152.2412  137.3539  155.1025 N   0  0  0  0  0  0  0  0  0  0  0  0
  151.6516  137.3896  156.3319 C   0  0  0  0  0  0  0  0  0  0  0  0
  150.0996  134.8152  155.3172 C   0  0  0  0  0  0  0  0  0  0  0  0
  149.6694  133.3692  155.4356 C   0  0  2  0  0  0  0  0  0  0  0  0
  148.5522  133.0879  154.6160 O   0  0  0  0  0  0  0  0  0  0  0  0
  146.2999  133.4081  163.5451 H   0  0  0  0  0  0  0  0  0  0  0  0
  145.4193  132.5703  162.2741 H   0  0  0  0  0  0  0  0  0  0  0  0
  145.3023  134.3200  162.4192 H   0  0  0  0  0  0  0  0  0  0  0  0
  147.3328  135.7956  161.8394 H   0  0  0  0  0  0  0  0  0  0  0  0
  148.8177  135.0572  161.2516 H   0  0  0  0  0  0  0  0  0  0  0  0
  148.3508  134.8749  162.9383 H   0  0  0  0  0  0  0  0  0  0  0  0
  148.5055  132.3162  162.7133 H   0  0  0  0  0  0  0  0  0  0  0  0
  148.9755  132.4888  161.0257 H   0  0  0  0  0  0  0  0  0  0  0  0
  147.5970  131.4858  161.4578 H   0  0  0  0  0  0  0  0  0  0  0  0
  144.6702  132.1255  159.9017 H   0  0  0  0  0  0  0  0  0  0  0  0
  146.1346  131.3050  159.3868 H   0  0  0  0  0  0  0  0  0  0  0  0
  145.2227  132.2768  158.2433 H   0  0  0  0  0  0  0  0  0  0  0  0
  144.6537  135.3248  160.1208 H   0  0  0  0  0  0  0  0  0  0  0  0
  145.2069  135.4085  158.4580 H   0  0  0  0  0  0  0  0  0  0  0  0
  146.1101  136.2221  159.7232 H   0  0  0  0  0  0  0  0  0  0  0  0
  147.4041  132.4854  157.3221 H   0  0  0  0  0  0  0  0  0  0  0  0
  147.4656  134.1512  156.7850 H   0  0  0  0  0  0  0  0  0  0  0  0
  149.7820  132.2260  157.2734 H   0  0  0  0  0  0  0  0  0  0  0  0
  151.9318  134.5482  156.4950 H   0  0  0  0  0  0  0  0  0  0  0  0
  150.1054  136.3582  158.9668 H   0  0  0  0  0  0  0  0  0  0  0  0
  151.3065  141.5759  157.0379 H   0  0  0  0  0  0  0  0  0  0  0  0
  152.0280  143.5369  157.2203 H   0  0  0  0  0  0  0  0  0  0  0  0
  151.5469  145.7746  158.1596 H   0  0  0  0  0  0  0  0  0  0  0  0
  151.6478  146.1500  160.6168 H   0  0  0  0  0  0  0  0  0  0  0  0
  152.2443  144.2725  162.1360 H   0  0  0  0  0  0  0  0  0  0  0  0
  152.7329  142.0326  161.2169 H   0  0  0  0  0  0  0  0  0  0  0  0
  153.1796  138.6038  153.7785 H   0  0  0  0  0  0  0  0  0  0  0  0
  149.2426  135.4894  155.3537 H   0  0  0  0  0  0  0  0  0  0  0  0
  150.7010  135.0323  154.4340 H   0  0  0  0  0  0  0  0  0  0  0  0
  150.4963  132.7258  155.1309 H   0  0  0  0  0  0  0  0  0  0  0  0
  148.3623  132.1638  154.6726 H   0  0  0  0  0  0  0  0  0  0  0  0
  1  2  1  0  0  0  0
  1 34  1  0  0  0  0
  1 35  1  0  0  0  0
  1 36  1  0  0  0  0
  2  3  1  0  0  0  0
  2  4  1  0  0  0  0
  2  5  1  0  0  0  0
  3 37  1  0  0  0  0
  3 38  1  0  0  0  0
  3 39  1  0  0  0  0
  4 40  1  0  0  0  0
  4 41  1  0  0  0  0
  4 42  1  0  0  0  0
  5  6  1  0  0  0  0
  5  7  1  0  0  0  0
  5  8  1  0  0  0  0
  6 43  1  0  0  0  0
  6 44  1  0  0  0  0
  6 45  1  0  0  0  0
  7 46  1  0  0  0  0
  7 47  1  0  0  0  0
  7 48  1  0  0  0  0
  8  9  1  0  0  0  0
  9 10  1  0  0  0  0
  9 49  1  0  0  0  0
  9 50  1  0  0  0  0
 10 32  1  0  0  0  0
 10 11  1  0  0  0  0
 10 51  1  0  0  0  0
 11 12  1  0  0  0  0
 12 13  1  0  0  0  0
 12 31  1  0  0  0  0
 12 52  1  0  0  0  0
 13 30  1  0  0  0  0
 13 14  1  0  0  0  0
 14 15  2  0  0  0  0
 14 53  1  0  0  0  0
 15 16  1  0  0  0  0
 16 30  2  0  0  0  0
 16 17  1  0  0  0  0
 17 18  1  0  0  0  0
 17 27  2  0  0  0  0
 18 19  1  0  0  0  0
 18 54  1  0  0  0  0
 19 20  2  0  0  0  0
 19 21  1  0  0  0  0
 21 26  1  0  0  0  0
 21 22  2  0  0  0  0
 22 23  1  0  0  0  0
 22 55  1  0  0  0  0
 23 24  2  0  0  0  0
 23 56  1  0  0  0  0
 24 25  1  0  0  0  0
 24 57  1  0  0  0  0
 25 26  2  0  0  0  0
 25 58  1  0  0  0  0
 26 59  1  0  0  0  0
 27 28  1  0  0  0  0
 28 29  2  0  0  0  0
 28 60  1  0  0  0  0
 29 30  1  0  0  0  0
 31 32  1  0  0  0  0
 31 61  1  0  0  0  0
 31 62  1  0  0  0  0
 32 33  1  0  0  0  0
 32 63  1  0  0  0  0
 33 64  1  0  0  0  0
M  END
> <s_m_source_file>
AV-unprocessed.smi

> <i_m_source_file_index>
36

> <i_lp_mmshare_version>
43012

> <i_f3d_flags>
0

> <s_epik_input>
W0NIM11DKFtDSDNdKShbQ0gzXSlbU2ldKFtDSDNdKShbQ0gzXSlPW0NIMl1bQ0BASF0xT1tDQEhdKFtDSDJdW0NASF0xW09IXSluKFtjSF1uMiljKGMyMyluW2NIXW5jM1tOSF1DKD1PKWM0W2NIXVtjSF1bY0hdW2NIXVtjSF00

> <s_epik_cmdline>
J2VwaWtfcHl0aG9uJywgJy1waCcsICc3LjAnLCAnLXRuJywgJzgnLCAnLW1hJywgJzIwMCcsICctbWV0YWxfYmluZGluZycsICctaW1hZScsICc8aW5maWxlLm1hZT4nLCAnLW9tYWUnLCAnPG91dGZpbGUubWFlPic=

> <r_lp_tautomer_probability>
1

> <r_epik_Ionization_Penalty>
0.00150433

> <r_epik_Ionization_Penalty_Charging>
0

> <r_epik_Ionization_Penalty_Neutral>
0.00150433

> <r_epik_State_Penalty>
0.00724046

> <r_epik_Charging_Adjusted_Penalty>
0.00724046

> <i_epik_Tot_Q>
0

> <i_epik_Tot_abs_Q>
0

> <r_epik_Metal_State_Penalty>
0.323355

> <b_epik_Metal_Only>
0

> <s_epik_Chemistry_Notes>
This compound contains an acetal/aminal-like group ( X-CH(R)-Y where X, Y are N, S, or O) that may be acid/base labile, releasing an aldehyde.

> <s_lp_Force_Field>
OPLS_2005

> <r_lp_Energy>
39.4689

> <b_lp_Chiralities_Consistent>
1

> <s_lp_Variant>
AV-unprocessed.smi:36-7

> <Gold.Version>
5.8.1

> <Gold.Id.Protein>
6NUR|6NUR_protein|mol2

> <Gold.PLP.Fitness>
60.6970

> <Gold.PLP.PLP>
-56.1231

> <Gold.PLP.part.hbond>
-4.2847

> <Gold.PLP.part.metal>
0.0000

> <Gold.PLP.part.buried>
-8.0785

> <Gold.PLP.part.nonpolar>
-44.2863

> <Gold.PLP.part.repulsive>
0.1770

> <Gold.PLP.ligand.clash>
0.0000

> <Gold.PLP.ligand.torsion>
2.0176

> <Gold.PLP.Chemscore.Hbond>
2.8115

> <Gold.PLP.Chemscore.CHOScore>
0.0000

> <Gold.PLP.Chemscore.Metal>
0.0000

> <Gold.Chemscore.Hbonds>
donor molecule, donor type, donor heavy atom, donor atom, acceptor molecule, acceptor atom, score
      P1  H  6896  6907       L1    11  0.83
      P1  H  7997  8009       L1    27  1.00
      P1  H 10752 10765       L1    29  0.77

> <Gold.PLP.Chemscore.Internal.Correction>
0.1747

> <Gold.Rescore>
     Score         DG    S(hbond)    S(metal)    S(lipo)     H(rot)  DE(clash)    DE(int)     intcor
     18.35     -20.38       2.22        0.00     123.17       2.70       0.05       1.99       ----

> <Gold.Chemscore.Fitness>
18.3460

> <Gold.Chemscore.DG>
-20.3833

> <Gold.Chemscore.ZeroCoef>
-5.4800

> <Gold.Chemscore.Hbond>
2.2199

> <Gold.Chemscore.Metal>
0.0000

> <Gold.Chemscore.Lipo>
123.1731

> <Gold.Chemscore.Internal_Hbond>
0.0000

> <Gold.Chemscore.DEClash>
0.0501

> <Gold.Chemscore.DEInternal>
1.9872

> <Gold.Chemscore.Rot>
2.7041

> <Gold.Chemscore.Internal.Correction>
   9.000000E+99

> <Gold.Chemscore.Hbonds>
donor molecule, donor type, donor heavy atom, donor atom, acceptor molecule, acceptor atom, score
      P1  H  6896  6907       L1    11  0.77
      P1  H  7997  8008       L1    20  0.01
      P1  H  7997  8009       L1    27  0.19
      P1  H 10752 10765       L1    29  0.66

> <Gold.Chemscore.Hbond.Weighted>
-7.4145

> <Gold.Chemscore.Metal.Weighted>
-0.0000

> <Gold.Chemscore.Lipo.Weighted>
-14.4113

> <Gold.Chemscore.Internal_Hbond.Weighted>
0.0000

> <Gold.Chemscore.DEClash.Weighted>
0.0501

> <Gold.Chemscore.DEInternal.Weighted>
1.9872

> <Gold.Chemscore.Rot.Weighted>
6.9225

> <Gold.Chemscore.Internal.Correction.Weighted>
   9.000000E+99

> <Gold.Protein.RotatedTorsions>
[ 6907 6896 6895 6894 ] final -110.12 input  -60.11 | X-H torsion
[ 7974 7965 7964 7962 ] final   60.96 input  175.53 | X-H torsion
[ 8008 7997 7996 7995 ] final -133.96 input   59.86 | X-H torsion
[ 10167 10162 10161 10158 ] final   60.77 input  -65.29 | X-H torsion
[ 10718 10713 10712 10709 ] final  -35.75 input   66.30 | X-H torsion
[ 10763 10752 10751 10750 ] final -179.19 input  -60.55 | X-H torsion
[ 11005 11000 10999 10996 ] final   81.51 input  -57.11 | X-H torsion

> <Gold.Protein.ActiveResidues>
 VAL166  LYS551  ARG553  GLY616  TRP617  ASP618  TYR619  PRO620  LYS621  CYS622 
 ASP623  PHE694  ASN695  SER759  ASP760  ASP761  ALA762  ILE779  LEU786  VAL792 
 PHE793  MET794  SER795  GLU796  ALA797  LYS798  CYS799  TRP800  GLU811  SER814 

> <Gold.Protein.RotatedAtoms>
  150.7605  133.9428  159.3461 H   0  0  0  0  0  0  0  0  0  0  0  0  # atno 6907 bound_to 6896
  151.7338  135.0867  160.0314 H   0  0  0  0  0  0  0  0  0  0  0  0  # atno 6908 bound_to 6896
  152.3572  133.6215  159.6024 H   0  0  0  0  0  0  0  0  0  0  0  0  # atno 6909 bound_to 6896
  145.8902  139.3505  143.0654 H   0  0  0  0  0  0  0  0  0  0  0  0  # atno 7974 bound_to 7965
  155.3542  140.0479  157.3046 H   0  0  0  0  0  0  0  0  0  0  0  0  # atno 8008 bound_to 7997
  154.5211  140.2225  155.8938 H   0  0  0  0  0  0  0  0  0  0  0  0  # atno 8009 bound_to 7997
  156.1690  140.3100  155.8946 H   0  0  0  0  0  0  0  0  0  0  0  0  # atno 8010 bound_to 7997
  140.1620  144.4361  150.6704 H   0  0  0  0  0  0  0  0  0  0  0  0  # atno 10167 bound_to 10162
  156.3350  130.4285  149.7838 H   0  0  0  0  0  0  0  0  0  0  0  0  # atno 10718 bound_to 10713
  154.5382  135.2804  155.1120 H   0  0  0  0  0  0  0  0  0  0  0  0  # atno 10763 bound_to 10752
  154.2613  135.6321  153.5279 H   0  0  0  0  0  0  0  0  0  0  0  0  # atno 10764 bound_to 10752
  152.9972  135.5606  154.5913 H   0  0  0  0  0  0  0  0  0  0  0  0  # atno 10765 bound_to 10752
  139.9095  134.8002  156.2051 H   0  0  0  0  0  0  0  0  0  0  0  0  # atno 11005 bound_to 11000
  145.8918  140.9299  143.0548 LP  0  0  0  0  0  0  0  0  0  0  0  0  # atno 17320 bound_to 7965
  144.6730  140.0915  143.7465 LP  0  0  0  0  0  0  0  0  0  0  0  0  # atno 17321 bound_to 7965
  140.6637  143.2260  151.5794 LP  0  0  0  0  0  0  0  0  0  0  0  0  # atno 17342 bound_to 10162
  139.5377  144.2735  152.1286 LP  0  0  0  0  0  0  0  0  0  0  0  0  # atno 17343 bound_to 10162
  156.5096  130.8166  151.3164 LP  0  0  0  0  0  0  0  0  0  0  0  0  # atno 17370 bound_to 10713
  157.7437  130.9918  150.2614 LP  0  0  0  0  0  0  0  0  0  0  0  0  # atno 17371 bound_to 10713
  141.0500  133.6893  156.1755 LP  0  0  0  0  0  0  0  0  0  0  0  0  # atno 17394 bound_to 11000
  140.6824  134.4753  157.5589 LP  0  0  0  0  0  0  0  0  0  0  0  0  # atno 17395 bound_to 11000

$$$$
