AV-unprocessed.smi:701|AV-procd|sdf|3409|dock7
  -GOLD-   22720 0393D 1   1.00000     0.00000
 Structure written by MMmdl.
 49 51  0  0  0  0  0  0  0  0  1 V2000
  143.8252  137.2735  161.7862 C   0  0  0  0  0  0  0  0  0  0  0  0
  145.3448  137.3236  161.9945 C   0  0  0  0  0  0  0  0  0  0  0  0
  146.0412  137.7801  160.8426 O   0  0  0  0  0  0  0  0  0  0  0  0
  145.9044  136.9546  159.6946 C   0  0  1  0  0  0  0  0  0  0  0  0
  146.7375  137.4214  158.4970 C   0  0  0  0  0  0  0  0  0  0  0  0
  146.9839  135.9390  158.2266 C   0  0  1  0  0  0  0  0  0  0  0  0
  148.3327  135.6761  157.7378 N   0  0  0  0  0  0  0  0  0  0  0  0
  148.6132  135.0623  156.5795 C   0  0  0  0  0  0  0  0  0  0  0  0
  147.7445  134.6533  155.8078 O   0  0  0  0  0  0  0  0  0  0  0  0
  150.1020  134.8584  156.2665 C   0  0  0  0  0  0  0  0  0  0  0  0
  150.7495  136.0720  155.7484 N   0  0  0  0  0  0  0  0  0  0  0  0
  150.3186  136.6425  154.5590 C   0  0  0  0  0  0  0  0  0  0  0  0
  150.8606  137.7657  154.0318 C   0  0  0  0  0  0  0  0  0  0  0  0
  151.9562  138.4472  154.7131 C   0  0  0  0  0  0  0  0  0  0  0  0
  152.5132  139.4678  154.3152 O   0  0  0  0  0  0  0  0  0  0  0  0
  152.3594  137.8440  155.9075 N   0  0  0  0  0  0  0  0  0  0  0  0
  151.8036  136.6881  156.4575 C   0  0  0  0  0  0  0  0  0  0  0  0
  152.2316  136.2419  157.5214 O   0  0  0  0  0  0  0  0  0  0  0  0
  146.7664  135.6615  159.7399 C   0  0  0  0  0  0  0  0  0  0  0  0
  148.0301  135.6845  160.6400 C   0  0  0  0  0  0  0  0  0  0  0  0
  147.7338  135.5052  162.1419 C   0  0  0  0  0  0  0  0  0  0  0  0
  146.9062  134.2428  162.4086 C   0  0  0  0  0  0  0  0  0  0  0  0
  145.6467  134.2155  161.5357 C   0  0  0  0  0  0  0  0  0  0  0  0
  146.0075  134.3612  160.0495 C   0  0  0  0  0  0  0  0  0  0  0  0
  153.1138  138.2819  156.4161 H   0  0  0  0  0  0  0  0  0  0  0  0
  143.3167  137.0329  162.7200 H   0  0  0  0  0  0  0  0  0  0  0  0
  143.5440  136.5127  161.0590 H   0  0  0  0  0  0  0  0  0  0  0  0
  143.4449  138.2340  161.4378 H   0  0  0  0  0  0  0  0  0  0  0  0
  145.5659  138.0207  162.8032 H   0  0  0  0  0  0  0  0  0  0  0  0
  145.7274  136.3529  162.3128 H   0  0  0  0  0  0  0  0  0  0  0  0
  144.8662  136.7388  159.4297 H   0  0  0  0  0  0  0  0  0  0  0  0
  146.1756  137.9343  157.7167 H   0  0  0  0  0  0  0  0  0  0  0  0
  147.6321  137.9764  158.7846 H   0  0  0  0  0  0  0  0  0  0  0  0
  146.1947  135.5130  157.6020 H   0  0  0  0  0  0  0  0  0  0  0  0
  149.1008  135.9764  158.3204 H   0  0  0  0  0  0  0  0  0  0  0  0
  150.6241  134.5025  157.1573 H   0  0  0  0  0  0  0  0  0  0  0  0
  150.1858  134.0473  155.5419 H   0  0  0  0  0  0  0  0  0  0  0  0
  149.5058  136.1738  154.0225 H   0  0  0  0  0  0  0  0  0  0  0  0
  150.4809  138.1628  153.1016 H   0  0  0  0  0  0  0  0  0  0  0  0
  148.7118  134.8890  160.3367 H   0  0  0  0  0  0  0  0  0  0  0  0
  148.5868  136.6119  160.5033 H   0  0  0  0  0  0  0  0  0  0  0  0
  148.6701  135.4556  162.6985 H   0  0  0  0  0  0  0  0  0  0  0  0
  147.2017  136.3733  162.5291 H   0  0  0  0  0  0  0  0  0  0  0  0
  147.5113  133.3602  162.1982 H   0  0  0  0  0  0  0  0  0  0  0  0
  146.6346  134.1885  163.4632 H   0  0  0  0  0  0  0  0  0  0  0  0
  145.1043  133.2837  161.6979 H   0  0  0  0  0  0  0  0  0  0  0  0
  144.9747  135.0223  161.8316 H   0  0  0  0  0  0  0  0  0  0  0  0
  145.0926  134.3068  159.4586 H   0  0  0  0  0  0  0  0  0  0  0  0
  146.6041  133.5016  159.7409 H   0  0  0  0  0  0  0  0  0  0  0  0
  1  2  1  0  0  0  0
  1 26  1  0  0  0  0
  1 27  1  0  0  0  0
  1 28  1  0  0  0  0
  2  3  1  0  0  0  0
  2 29  1  0  0  0  0
  2 30  1  0  0  0  0
  3  4  1  0  0  0  0
  4 19  1  0  0  0  0
  4  5  1  0  0  0  0
  4 31  1  0  0  0  0
  5  6  1  0  0  0  0
  5 32  1  0  0  0  0
  5 33  1  0  0  0  0
  6  7  1  0  0  0  0
  6 19  1  0  0  0  0
  6 34  1  0  0  0  0
  7  8  1  0  0  0  0
  7 35  1  0  0  0  0
  8  9  2  0  0  0  0
  8 10  1  0  0  0  0
 10 11  1  0  0  0  0
 10 36  1  0  0  0  0
 10 37  1  0  0  0  0
 11 17  1  0  0  0  0
 11 12  1  0  0  0  0
 12 13  2  0  0  0  0
 12 38  1  0  0  0  0
 13 14  1  0  0  0  0
 13 39  1  0  0  0  0
 14 15  2  0  0  0  0
 14 16  1  0  0  0  0
 16 25  1  0  0  0  0
 16 17  1  0  0  0  0
 17 18  2  0  0  0  0
 19 24  1  0  0  0  0
 19 20  1  0  0  0  0
 20 21  1  0  0  0  0
 20 40  1  0  0  0  0
 20 41  1  0  0  0  0
 21 22  1  0  0  0  0
 21 42  1  0  0  0  0
 21 43  1  0  0  0  0
 22 23  1  0  0  0  0
 22 44  1  0  0  0  0
 22 45  1  0  0  0  0
 23 24  1  0  0  0  0
 23 46  1  0  0  0  0
 23 47  1  0  0  0  0
 24 48  1  0  0  0  0
 24 49  1  0  0  0  0
M  END
> <s_m_source_file>
AV-unprocessed.smi

> <i_m_source_file_index>
701

> <i_lp_mmshare_version>
43012

> <i_f3d_flags>
0

> <s_epik_input>
W0NIMl0xW0NIMl1bQ0gyXVtDSDJdW0NIMl1DMTJbQ0BIXShPW0NIMl1bQ0gzXSlbQ0gyXVtDQEhdMltOSF1DKD1PKVtDSDJdbjNbY0hdW2NIXWMoPU8pW25IXWMzPU8=

> <s_epik_cmdline>
J2VwaWtfcHl0aG9uJywgJy1waCcsICc3LjAnLCAnLXRuJywgJzgnLCAnLW1hJywgJzIwMCcsICctbWV0YWxfYmluZGluZycsICctaW1hZScsICc8aW5maWxlLm1hZT4nLCAnLW9tYWUnLCAnPG91dGZpbGUubWFlPic=

> <r_lp_tautomer_probability>
0.999537

> <r_epik_Ionization_Penalty>
0.00304597

> <r_epik_Ionization_Penalty_Charging>
0.00304595

> <r_epik_Ionization_Penalty_Neutral>
1.88422e-08

> <r_epik_State_Penalty>
0.00214084

> <r_epik_Charging_Adjusted_Penalty>
0.00518679

> <i_epik_Tot_Q>
0

> <i_epik_Tot_abs_Q>
0

> <r_epik_Metal_State_Penalty>
0.361872

> <b_epik_Metal_Only>
0

> <s_lp_Force_Field>
OPLS_2005

> <r_lp_Energy>
28.8847

> <b_lp_Chiralities_Consistent>
1

> <s_lp_Variant>
AV-unprocessed.smi:701-2

> <Gold.Version>
5.8.1

> <Gold.Id.Protein>
6NUR|6NUR_protein|mol2

> <Gold.PLP.Fitness>
43.1156

> <Gold.PLP.PLP>
-33.4745

> <Gold.PLP.part.hbond>
-3.6772

> <Gold.PLP.part.metal>
0.0000

> <Gold.PLP.part.buried>
-6.5290

> <Gold.PLP.part.nonpolar>
-24.4357

> <Gold.PLP.part.repulsive>
0.2529

> <Gold.PLP.ligand.clash>
0.0000

> <Gold.PLP.ligand.torsion>
0.4562

> <Gold.PLP.Chemscore.Hbond>
2.4290

> <Gold.PLP.Chemscore.CHOScore>
0.9821

> <Gold.PLP.Chemscore.Metal>
0.0000

> <Gold.Chemscore.Hbonds>
donor molecule, donor type, donor heavy atom, donor atom, acceptor molecule, acceptor atom, score
      P1  H  6934  6947       L1     3  1.00
      P1  H  7989  7998       L1    15  0.56
      L1  C    12    38       P1  7948  1.00

> <Gold.PLP.Chemscore.Internal.Correction>
0.3201

> <Gold.Rescore>
     Score         DG    S(hbond)    S(metal)    S(lipo)     H(rot)  DE(clash)    DE(int)     intcor
     15.06     -15.60       2.13        0.00      71.41       2.09       0.00       0.54       ----

> <Gold.Chemscore.Fitness>
15.0588

> <Gold.Chemscore.DG>
-15.6003

> <Gold.Chemscore.ZeroCoef>
-5.4800

> <Gold.Chemscore.Hbond>
2.1331

> <Gold.Chemscore.Metal>
0.0000

> <Gold.Chemscore.Lipo>
71.4069

> <Gold.Chemscore.Internal_Hbond>
0.0000

> <Gold.Chemscore.DEClash>
0.0000

> <Gold.Chemscore.DEInternal>
0.5415

> <Gold.Chemscore.Rot>
2.0933

> <Gold.Chemscore.Internal.Correction>
   9.000000E+99

> <Gold.Chemscore.Hbonds>
donor molecule, donor type, donor heavy atom, donor atom, acceptor molecule, acceptor atom, score
      P1  H  6934  6947       L1     3  0.97
      P1  H  7989  7998       L1    15  0.56

> <Gold.Chemscore.Hbond.Weighted>
-7.1244

> <Gold.Chemscore.Metal.Weighted>
-0.0000

> <Gold.Chemscore.Lipo.Weighted>
-8.3546

> <Gold.Chemscore.Internal_Hbond.Weighted>
0.0000

> <Gold.Chemscore.DEClash.Weighted>
0.0000

> <Gold.Chemscore.DEInternal.Weighted>
0.5415

> <Gold.Chemscore.Rot.Weighted>
5.3588

> <Gold.Chemscore.Internal.Correction.Weighted>
   9.000000E+99

> <Gold.Protein.RotatedTorsions>
[ 6907 6896 6895 6894 ] final -130.77 input  -60.11 | X-H torsion
[ 7974 7965 7964 7962 ] final  -41.47 input  175.53 | X-H torsion
[ 8008 7997 7996 7995 ] final  -12.81 input   59.86 | X-H torsion
[ 10167 10162 10161 10158 ] final -146.49 input  -65.29 | X-H torsion
[ 10718 10713 10712 10709 ] final  -19.08 input   66.30 | X-H torsion
[ 10763 10752 10751 10750 ] final  -66.73 input  -60.55 | X-H torsion
[ 11005 11000 10999 10996 ] final  -50.80 input  -57.11 | X-H torsion

> <Gold.Protein.ActiveResidues>
 VAL166  LYS551  ARG553  GLY616  TRP617  ASP618  TYR619  PRO620  LYS621  CYS622 
 ASP623  PHE694  ASN695  SER759  ASP760  ASP761  ALA762  ILE779  LEU786  VAL792 
 PHE793  MET794  SER795  GLU796  ALA797  LYS798  CYS799  TRP800  GLU811  SER814 

> <Gold.Protein.RotatedAtoms>
  150.9434  133.6630  159.2785 H   0  0  0  0  0  0  0  0  0  0  0  0  # atno 6907 bound_to 6896
  151.4011  135.0970  159.9566 H   0  0  0  0  0  0  0  0  0  0  0  0  # atno 6908 bound_to 6896
  152.5079  133.8928  159.7457 H   0  0  0  0  0  0  0  0  0  0  0  0  # atno 6909 bound_to 6896
  146.0207  140.6853  142.9179 H   0  0  0  0  0  0  0  0  0  0  0  0  # atno 7974 bound_to 7965
  154.5345  140.2266  155.8746 H   0  0  0  0  0  0  0  0  0  0  0  0  # atno 8008 bound_to 7997
  156.1797  140.3103  155.9089 H   0  0  0  0  0  0  0  0  0  0  0  0  # atno 8009 bound_to 7997
  155.3383  140.0449  157.3035 H   0  0  0  0  0  0  0  0  0  0  0  0  # atno 8010 bound_to 7997
  139.7708  143.8240  152.2624 H   0  0  0  0  0  0  0  0  0  0  0  0  # atno 10167 bound_to 10162
  156.5507  130.4701  149.6453 H   0  0  0  0  0  0  0  0  0  0  0  0  # atno 10718 bound_to 10713
  154.3641  135.6109  153.5706 H   0  0  0  0  0  0  0  0  0  0  0  0  # atno 10763 bound_to 10752
  152.9792  135.5822  154.4598 H   0  0  0  0  0  0  0  0  0  0  0  0  # atno 10764 bound_to 10752
  154.4341  135.2848  155.1870 H   0  0  0  0  0  0  0  0  0  0  0  0  # atno 10765 bound_to 10752
  141.0836  133.6647  156.3783 H   0  0  0  0  0  0  0  0  0  0  0  0  # atno 11005 bound_to 11000
  144.6989  140.3562  143.7172 LP  0  0  0  0  0  0  0  0  0  0  0  0  # atno 17320 bound_to 7965
  145.7197  139.1706  143.2492 LP  0  0  0  0  0  0  0  0  0  0  0  0  # atno 17321 bound_to 7965
  139.8274  144.7269  150.9494 LP  0  0  0  0  0  0  0  0  0  0  0  0  # atno 17342 bound_to 10162
  140.7814  143.4102  151.1005 LP  0  0  0  0  0  0  0  0  0  0  0  0  # atno 17343 bound_to 10162
  156.2887  130.7112  151.1955 LP  0  0  0  0  0  0  0  0  0  0  0  0  # atno 17370 bound_to 10713
  157.7388  131.0536  150.5272 LP  0  0  0  0  0  0  0  0  0  0  0  0  # atno 17371 bound_to 10713
  140.5414  134.6117  157.5381 LP  0  0  0  0  0  0  0  0  0  0  0  0  # atno 17394 bound_to 11000
  139.9652  134.7386  156.0154 LP  0  0  0  0  0  0  0  0  0  0  0  0  # atno 17395 bound_to 11000

$$$$
