AV-unprocessed.smi:36|AV-procd|sdf|286|dock10
  -GOLD-   2262016 63D 1   1.00000     0.00000
 Structure written by MMmdl.
 64 67  0  0  0  0  0  0  0  0  1 V2000
  151.8752  130.0904  155.0891 C   0  0  0  0  0  0  0  0  0  0  0  0
  150.7235  129.2047  155.5932 C   0  0  0  0  0  0  0  0  0  0  0  0
  150.6844  127.8916  154.7933 C   0  0  0  0  0  0  0  0  0  0  0  0
  150.9171  128.8945  157.0868 C   0  0  0  0  0  0  0  0  0  0  0  0
  149.0657  130.1245  155.3582 Si  0  0  0  0  0  0  0  0  0  0  0  0
  148.8724  130.7538  153.5761 C   0  0  0  0  0  0  0  0  0  0  0  0
  147.5944  129.0095  155.8089 C   0  0  0  0  0  0  0  0  0  0  0  0
  149.0625  131.4604  156.3957 O   0  0  0  0  0  0  0  0  0  0  0  0
  148.0234  132.4159  156.4309 C   0  0  0  0  0  0  0  0  0  0  0  0
  148.5472  133.7596  155.9096 C   0  0  1  0  0  0  0  0  0  0  0  0
  149.6289  134.2006  156.7263 O   0  0  0  0  0  0  0  0  0  0  0  0
  150.5784  134.8708  155.9509 C   0  0  2  0  0  0  0  0  0  0  0  0
  150.7269  136.2534  156.4908 N   0  0  0  0  0  0  0  0  0  0  0  0
  150.7949  136.6604  157.8056 C   0  0  0  0  0  0  0  0  0  0  0  0
  150.9368  137.9468  157.9846 N   0  0  0  0  0  0  0  0  0  0  0  0
  150.9645  138.4650  156.6956 C   0  0  0  0  0  0  0  0  0  0  0  0
  151.0976  139.7741  156.1639 C   0  0  0  0  0  0  0  0  0  0  0  0
  151.2456  140.8332  156.9940 N   0  0  0  0  0  0  0  0  0  0  0  0
  152.1956  140.9960  158.0804 C   0  0  0  0  0  0  0  0  0  0  0  0
  153.0828  140.1720  158.3041 O   0  0  0  0  0  0  0  0  0  0  0  0
  152.0890  142.2724  158.8629 C   0  0  0  0  0  0  0  0  0  0  0  0
  151.4441  143.3961  158.2984 C   0  0  0  0  0  0  0  0  0  0  0  0
  151.3597  144.6050  159.0162 C   0  0  0  0  0  0  0  0  0  0  0  0
  151.9263  144.7032  160.3011 C   0  0  0  0  0  0  0  0  0  0  0  0
  152.5791  143.5920  160.8672 C   0  0  0  0  0  0  0  0  0  0  0  0
  152.6640  142.3824  160.1505 C   0  0  0  0  0  0  0  0  0  0  0  0
  151.0789  139.9043  154.8108 N   0  0  0  0  0  0  0  0  0  0  0  0
  150.9388  138.8268  154.0326 C   0  0  0  0  0  0  0  0  0  0  0  0
  150.8085  137.5482  154.3932 N   0  0  0  0  0  0  0  0  0  0  0  0
  150.8285  137.4106  155.7504 C   0  0  0  0  0  0  0  0  0  0  0  0
  150.0507  134.9135  154.5167 C   0  0  0  0  0  0  0  0  0  0  0  0
  149.1439  133.7022  154.5010 C   0  0  2  0  0  0  0  0  0  0  0  0
  148.1611  133.8200  153.4929 O   0  0  0  0  0  0  0  0  0  0  0  0
  152.8384  129.5935  155.2087 H   0  0  0  0  0  0  0  0  0  0  0  0
  151.9214  131.0319  155.6368 H   0  0  0  0  0  0  0  0  0  0  0  0
  151.7592  130.3301  154.0318 H   0  0  0  0  0  0  0  0  0  0  0  0
  150.5556  128.0786  153.7269 H   0  0  0  0  0  0  0  0  0  0  0  0
  149.8608  127.2549  155.1178 H   0  0  0  0  0  0  0  0  0  0  0  0
  151.6077  127.3246  154.9166 H   0  0  0  0  0  0  0  0  0  0  0  0
  151.8467  128.3518  157.2616 H   0  0  0  0  0  0  0  0  0  0  0  0
  150.1011  128.2831  157.4735 H   0  0  0  0  0  0  0  0  0  0  0  0
  150.9541  129.8076  157.6812 H   0  0  0  0  0  0  0  0  0  0  0  0
  148.8978  129.9354  152.8569 H   0  0  0  0  0  0  0  0  0  0  0  0
  149.6685  131.4480  153.3079 H   0  0  0  0  0  0  0  0  0  0  0  0
  147.9266  131.2767  153.4374 H   0  0  0  0  0  0  0  0  0  0  0  0
  147.5648  128.1147  155.1874 H   0  0  0  0  0  0  0  0  0  0  0  0
  146.6449  129.5270  155.6742 H   0  0  0  0  0  0  0  0  0  0  0  0
  147.6413  128.6833  156.8473 H   0  0  0  0  0  0  0  0  0  0  0  0
  147.1962  132.0693  155.8106 H   0  0  0  0  0  0  0  0  0  0  0  0
  147.6473  132.5177  157.4494 H   0  0  0  0  0  0  0  0  0  0  0  0
  147.7645  134.5191  155.9578 H   0  0  0  0  0  0  0  0  0  0  0  0
  151.5545  134.3952  156.0512 H   0  0  0  0  0  0  0  0  0  0  0  0
  150.7383  135.9677  158.6328 H   0  0  0  0  0  0  0  0  0  0  0  0
  150.5943  141.5926  156.8601 H   0  0  0  0  0  0  0  0  0  0  0  0
  151.0070  143.3378  157.3117 H   0  0  0  0  0  0  0  0  0  0  0  0
  150.8621  145.4583  158.5793 H   0  0  0  0  0  0  0  0  0  0  0  0
  151.8635  145.6312  160.8502 H   0  0  0  0  0  0  0  0  0  0  0  0
  153.0191  143.6683  161.8509 H   0  0  0  0  0  0  0  0  0  0  0  0
  153.1794  141.5456  160.5993 H   0  0  0  0  0  0  0  0  0  0  0  0
  150.9307  139.0169  152.9693 H   0  0  0  0  0  0  0  0  0  0  0  0
  149.4782  135.8298  154.3583 H   0  0  0  0  0  0  0  0  0  0  0  0
  150.8645  134.8700  153.7926 H   0  0  0  0  0  0  0  0  0  0  0  0
  149.7280  132.7916  154.3602 H   0  0  0  0  0  0  0  0  0  0  0  0
  148.4312  134.4965  152.8902 H   0  0  0  0  0  0  0  0  0  0  0  0
  1  2  1  0  0  0  0
  1 34  1  0  0  0  0
  1 35  1  0  0  0  0
  1 36  1  0  0  0  0
  2  3  1  0  0  0  0
  2  4  1  0  0  0  0
  2  5  1  0  0  0  0
  3 37  1  0  0  0  0
  3 38  1  0  0  0  0
  3 39  1  0  0  0  0
  4 40  1  0  0  0  0
  4 41  1  0  0  0  0
  4 42  1  0  0  0  0
  5  6  1  0  0  0  0
  5  7  1  0  0  0  0
  5  8  1  0  0  0  0
  6 43  1  0  0  0  0
  6 44  1  0  0  0  0
  6 45  1  0  0  0  0
  7 46  1  0  0  0  0
  7 47  1  0  0  0  0
  7 48  1  0  0  0  0
  8  9  1  0  0  0  0
  9 10  1  0  0  0  0
  9 49  1  0  0  0  0
  9 50  1  0  0  0  0
 10 32  1  0  0  0  0
 10 11  1  0  0  0  0
 10 51  1  0  0  0  0
 11 12  1  0  0  0  0
 12 13  1  0  0  0  0
 12 31  1  0  0  0  0
 12 52  1  0  0  0  0
 13 30  1  0  0  0  0
 13 14  1  0  0  0  0
 14 15  2  0  0  0  0
 14 53  1  0  0  0  0
 15 16  1  0  0  0  0
 16 30  2  0  0  0  0
 16 17  1  0  0  0  0
 17 18  1  0  0  0  0
 17 27  2  0  0  0  0
 18 19  1  0  0  0  0
 18 54  1  0  0  0  0
 19 20  2  0  0  0  0
 19 21  1  0  0  0  0
 21 26  1  0  0  0  0
 21 22  2  0  0  0  0
 22 23  1  0  0  0  0
 22 55  1  0  0  0  0
 23 24  2  0  0  0  0
 23 56  1  0  0  0  0
 24 25  1  0  0  0  0
 24 57  1  0  0  0  0
 25 26  2  0  0  0  0
 25 58  1  0  0  0  0
 26 59  1  0  0  0  0
 27 28  1  0  0  0  0
 28 29  2  0  0  0  0
 28 60  1  0  0  0  0
 29 30  1  0  0  0  0
 31 32  1  0  0  0  0
 31 61  1  0  0  0  0
 31 62  1  0  0  0  0
 32 33  1  0  0  0  0
 32 63  1  0  0  0  0
 33 64  1  0  0  0  0
M  END
> <s_m_source_file>
AV-unprocessed.smi

> <i_m_source_file_index>
36

> <i_lp_mmshare_version>
43012

> <i_f3d_flags>
0

> <s_epik_input>
W0NIM11DKFtDSDNdKShbQ0gzXSlbU2ldKFtDSDNdKShbQ0gzXSlPW0NIMl1bQ0BASF0xT1tDQEhdKFtDSDJdW0NASF0xW09IXSluKFtjSF1uMiljKGMyMyluW2NIXW5jM1tOSF1DKD1PKWM0W2NIXVtjSF1bY0hdW2NIXVtjSF00

> <s_epik_cmdline>
J2VwaWtfcHl0aG9uJywgJy1waCcsICc3LjAnLCAnLXRuJywgJzgnLCAnLW1hJywgJzIwMCcsICctbWV0YWxfYmluZGluZycsICctaW1hZScsICc8aW5maWxlLm1hZT4nLCAnLW9tYWUnLCAnPG91dGZpbGUubWFlPic=

> <r_lp_tautomer_probability>
1

> <r_epik_Ionization_Penalty>
0.00150433

> <r_epik_Ionization_Penalty_Charging>
0

> <r_epik_Ionization_Penalty_Neutral>
0.00150433

> <r_epik_State_Penalty>
0.00724046

> <r_epik_Charging_Adjusted_Penalty>
0.00724046

> <i_epik_Tot_Q>
0

> <i_epik_Tot_abs_Q>
0

> <r_epik_Metal_State_Penalty>
0.323355

> <b_epik_Metal_Only>
0

> <s_epik_Chemistry_Notes>
This compound contains an acetal/aminal-like group ( X-CH(R)-Y where X, Y are N, S, or O) that may be acid/base labile, releasing an aldehyde.

> <s_lp_Force_Field>
OPLS_2005

> <r_lp_Energy>
35.7954

> <b_lp_Chiralities_Consistent>
1

> <s_lp_Variant>
AV-unprocessed.smi:36-8

> <Gold.Version>
5.8.1

> <Gold.Id.Protein>
6NUR|6NUR_protein|mol2

> <Gold.PLP.Fitness>
52.0373

> <Gold.PLP.PLP>
-44.7485

> <Gold.PLP.part.hbond>
-3.0000

> <Gold.PLP.part.metal>
0.0000

> <Gold.PLP.part.buried>
-5.8098

> <Gold.PLP.part.nonpolar>
-35.8765

> <Gold.PLP.part.repulsive>
0.3639

> <Gold.PLP.ligand.clash>
0.2089

> <Gold.PLP.ligand.torsion>
1.6744

> <Gold.PLP.Chemscore.Hbond>
2.6333

> <Gold.PLP.Chemscore.CHOScore>
0.9485

> <Gold.PLP.Chemscore.Metal>
0.0000

> <Gold.Chemscore.Hbonds>
donor molecule, donor type, donor heavy atom, donor atom, acceptor molecule, acceptor atom, score
      L1  H    33    64       P1  7948  0.98
      P1  H  7989  7998       L1    27  0.60
      P1  H  7997  8008       L1    20  0.99
      L1  C    28    60       P1  7957  0.96

> <Gold.PLP.Chemscore.Internal.Correction>
0.1014

> <Gold.Rescore>
     Score         DG    S(hbond)    S(metal)    S(lipo)     H(rot)  DE(clash)    DE(int)     intcor
     12.90     -16.08       1.40        0.00     109.69       2.70       0.12       3.06       ----

> <Gold.Chemscore.Fitness>
12.9001

> <Gold.Chemscore.DG>
-16.0831

> <Gold.Chemscore.ZeroCoef>
-5.4800

> <Gold.Chemscore.Hbond>
1.4049

> <Gold.Chemscore.Metal>
0.0000

> <Gold.Chemscore.Lipo>
109.6862

> <Gold.Chemscore.Internal_Hbond>
0.0000

> <Gold.Chemscore.DEClash>
0.1238

> <Gold.Chemscore.DEInternal>
3.0591

> <Gold.Chemscore.Rot>
2.7041

> <Gold.Chemscore.Internal.Correction>
   9.000000E+99

> <Gold.Chemscore.Hbonds>
donor molecule, donor type, donor heavy atom, donor atom, acceptor molecule, acceptor atom, score
      L1  H    33    64       P1  7948  0.24
      P1  H  7989  7998       L1    27  0.04
      P1  H  7997  8008       L1    20  0.87

> <Gold.Chemscore.Hbond.Weighted>
-4.6923

> <Gold.Chemscore.Metal.Weighted>
-0.0000

> <Gold.Chemscore.Lipo.Weighted>
-12.8333

> <Gold.Chemscore.Internal_Hbond.Weighted>
0.0000

> <Gold.Chemscore.DEClash.Weighted>
0.1238

> <Gold.Chemscore.DEInternal.Weighted>
3.0591

> <Gold.Chemscore.Rot.Weighted>
6.9225

> <Gold.Chemscore.Internal.Correction.Weighted>
   9.000000E+99

> <Gold.Protein.RotatedTorsions>
[ 6907 6896 6895 6894 ] final   98.41 input  -60.11 | X-H torsion
[ 7974 7965 7964 7962 ] final  117.25 input  175.53 | X-H torsion
[ 8008 7997 7996 7995 ] final  -84.92 input   59.86 | X-H torsion
[ 10167 10162 10161 10158 ] final   64.38 input  -65.29 | X-H torsion
[ 10718 10713 10712 10709 ] final  -58.73 input   66.30 | X-H torsion
[ 10763 10752 10751 10750 ] final  -94.54 input  -60.55 | X-H torsion
[ 11005 11000 10999 10996 ] final  -49.55 input  -57.11 | X-H torsion

> <Gold.Protein.ActiveResidues>
 VAL166  LYS551  ARG553  GLY616  TRP617  ASP618  TYR619  PRO620  LYS621  CYS622 
 ASP623  PHE694  ASN695  SER759  ASP760  ASP761  ALA762  ILE779  LEU786  VAL792 
 PHE793  MET794  SER795  GLU796  ALA797  LYS798  CYS799  TRP800  GLU811  SER814 

> <Gold.Protein.RotatedAtoms>
  152.5409  134.0585  159.8141 H   0  0  0  0  0  0  0  0  0  0  0  0  # atno 6907 bound_to 6896
  151.0716  133.5454  159.2634 H   0  0  0  0  0  0  0  0  0  0  0  0  # atno 6908 bound_to 6896
  151.2315  135.0564  159.9043 H   0  0  0  0  0  0  0  0  0  0  0  0  # atno 6909 bound_to 6896
  145.1697  139.3108  143.4474 H   0  0  0  0  0  0  0  0  0  0  0  0  # atno 7974 bound_to 7965
  154.6351  140.0598  156.9778 H   0  0  0  0  0  0  0  0  0  0  0  0  # atno 8008 bound_to 7997
  155.1605  140.3282  155.4394 H   0  0  0  0  0  0  0  0  0  0  0  0  # atno 8009 bound_to 7997
  156.2503  140.1931  156.6712 H   0  0  0  0  0  0  0  0  0  0  0  0  # atno 8010 bound_to 7997
  140.1228  144.4716  150.6910 H   0  0  0  0  0  0  0  0  0  0  0  0  # atno 10167 bound_to 10162
  156.1114  130.4175  150.0617 H   0  0  0  0  0  0  0  0  0  0  0  0  # atno 10718 bound_to 10713
  154.7065  135.5154  153.8602 H   0  0  0  0  0  0  0  0  0  0  0  0  # atno 10763 bound_to 10752
  153.0745  135.6612  154.0184 H   0  0  0  0  0  0  0  0  0  0  0  0  # atno 10764 bound_to 10752
  154.0034  135.3009  155.3380 H   0  0  0  0  0  0  0  0  0  0  0  0  # atno 10765 bound_to 10752
  141.0766  133.6664  156.3602 H   0  0  0  0  0  0  0  0  0  0  0  0  # atno 11005 bound_to 11000
  146.3470  140.1837  142.8589 LP  0  0  0  0  0  0  0  0  0  0  0  0  # atno 17320 bound_to 7965
  145.0246  140.8821  143.5146 LP  0  0  0  0  0  0  0  0  0  0  0  0  # atno 17321 bound_to 7965
  140.6862  143.2351  151.5253 LP  0  0  0  0  0  0  0  0  0  0  0  0  # atno 17342 bound_to 10162
  139.5560  144.2275  152.1612 LP  0  0  0  0  0  0  0  0  0  0  0  0  # atno 17343 bound_to 10162
  156.8580  130.9481  151.3620 LP  0  0  0  0  0  0  0  0  0  0  0  0  # atno 17370 bound_to 10713
  157.6295  130.8718  149.9248 LP  0  0  0  0  0  0  0  0  0  0  0  0  # atno 17371 bound_to 10713
  140.5560  134.5980  157.5421 LP  0  0  0  0  0  0  0  0  0  0  0  0  # atno 17394 bound_to 11000
  139.9578  134.7504  156.0303 LP  0  0  0  0  0  0  0  0  0  0  0  0  # atno 17395 bound_to 11000

$$$$
