AV-unprocessed.smi:1184|AV-procd|sdf|4969|dock9
  -GOLD-   22720 3563D 1   1.00000     0.00000
 Structure written by MMmdl.
 43 44  0  0  0  0  0  0  0  0  2 V2000
  145.3287  135.8971  151.3576 C   0  0  0  0  0  0  0  0  0  0  0  0
  145.6068  136.7866  152.5780 C   0  0  0  0  0  0  0  0  0  0  0  0
  146.6418  137.8093  152.2988 N   0  3  1  0  0  0  0  0  0  0  0  0
  146.3512  138.6839  151.1375 C   0  0  0  0  0  0  0  0  0  0  0  0
  146.7486  140.1120  151.5419 C   0  0  0  0  0  0  0  0  0  0  0  0
  147.5935  139.9332  152.8022 C   0  0  1  0  0  0  0  0  0  0  0  0
  147.6474  141.1708  153.7225 C   0  0  0  0  0  0  0  0  0  0  0  0
  148.2277  140.8432  155.0193 N   0  0  0  0  0  0  0  0  0  0  0  0
  149.4952  140.4534  155.2242 C   0  0  0  0  0  0  0  0  0  0  0  0
  150.3693  140.4970  154.3593 O   0  0  0  0  0  0  0  0  0  0  0  0
  149.8015  139.8610  156.5991 C   0  0  0  0  0  0  0  0  0  0  0  0
  151.2654  139.4978  156.6522 C   0  0  0  0  0  0  0  0  0  0  0  0
  152.0008  138.6837  155.7426 C   0  0  0  0  0  0  0  0  0  0  0  0
  151.5140  137.9984  154.4984 C   0  0  0  0  0  0  0  0  0  0  0  0
  153.2591  138.5330  156.1204 N   0  0  0  0  0  0  0  0  0  0  0  0
  153.3942  139.2661  157.3032 O   0  0  0  0  0  0  0  0  0  0  0  0
  152.1957  139.8309  157.5980 C   0  0  0  0  0  0  0  0  0  0  0  0
  152.1265  140.6433  158.8464 C   0  0  0  0  0  0  0  0  0  0  0  0
  146.9716  138.6890  153.4368 C   0  0  0  0  0  0  0  0  0  0  0  0
  144.5206  135.1963  151.5679 H   0  0  0  0  0  0  0  0  0  0  0  0
  146.2039  135.3101  151.0771 H   0  0  0  0  0  0  0  0  0  0  0  0
  145.0337  136.4930  150.4933 H   0  0  0  0  0  0  0  0  0  0  0  0
  144.6835  137.2945  152.8599 H   0  0  0  0  0  0  0  0  0  0  0  0
  145.9050  136.1772  153.4323 H   0  0  0  0  0  0  0  0  0  0  0  0
  146.9351  138.3390  150.2835 H   0  0  0  0  0  0  0  0  0  0  0  0
  145.2980  138.6485  150.8540 H   0  0  0  0  0  0  0  0  0  0  0  0
  147.2843  140.6381  150.7511 H   0  0  0  0  0  0  0  0  0  0  0  0
  145.8499  140.6865  151.7711 H   0  0  0  0  0  0  0  0  0  0  0  0
  148.6080  139.6783  152.4906 H   0  0  0  0  0  0  0  0  0  0  0  0
  148.2110  141.9771  153.2505 H   0  0  0  0  0  0  0  0  0  0  0  0
  146.6414  141.5532  153.8976 H   0  0  0  0  0  0  0  0  0  0  0  0
  147.5902  140.7914  155.8008 H   0  0  0  0  0  0  0  0  0  0  0  0
  149.5421  140.5852  157.3724 H   0  0  0  0  0  0  0  0  0  0  0  0
  149.1620  138.9933  156.7645 H   0  0  0  0  0  0  0  0  0  0  0  0
  151.0098  137.0633  154.7430 H   0  0  0  0  0  0  0  0  0  0  0  0
  152.3346  137.7674  153.8183 H   0  0  0  0  0  0  0  0  0  0  0  0
  150.8051  138.6250  153.9570 H   0  0  0  0  0  0  0  0  0  0  0  0
  151.6383  141.5998  158.6588 H   0  0  0  0  0  0  0  0  0  0  0  0
  153.1230  140.8458  159.2403 H   0  0  0  0  0  0  0  0  0  0  0  0
  151.5589  140.1183  159.6150 H   0  0  0  0  0  0  0  0  0  0  0  0
  146.0619  138.9575  153.9770 H   0  0  0  0  0  0  0  0  0  0  0  0
  147.6478  138.1957  154.1350 H   0  0  0  0  0  0  0  0  0  0  0  0
  147.4927  137.3175  152.0656 H   0  0  0  0  0  0  0  0  0  0  0  0
  1  2  1  0  0  0  0
  1 20  1  0  0  0  0
  1 21  1  0  0  0  0
  1 22  1  0  0  0  0
  2  3  1  0  0  0  0
  2 23  1  0  0  0  0
  2 24  1  0  0  0  0
  3 19  1  0  0  0  0
  3  4  1  0  0  0  0
  3 43  1  0  0  0  0
  4  5  1  0  0  0  0
  4 25  1  0  0  0  0
  4 26  1  0  0  0  0
  5  6  1  0  0  0  0
  5 27  1  0  0  0  0
  5 28  1  0  0  0  0
  6  7  1  0  0  0  0
  6 19  1  0  0  0  0
  6 29  1  0  0  0  0
  7  8  1  0  0  0  0
  7 30  1  0  0  0  0
  7 31  1  0  0  0  0
  8  9  1  0  0  0  0
  8 32  1  0  0  0  0
  9 10  2  0  0  0  0
  9 11  1  0  0  0  0
 11 12  1  0  0  0  0
 11 33  1  0  0  0  0
 11 34  1  0  0  0  0
 12 17  2  0  0  0  0
 12 13  1  0  0  0  0
 13 14  1  0  0  0  0
 13 15  2  0  0  0  0
 14 35  1  0  0  0  0
 14 36  1  0  0  0  0
 14 37  1  0  0  0  0
 15 16  1  0  0  0  0
 16 17  1  0  0  0  0
 17 18  1  0  0  0  0
 18 38  1  0  0  0  0
 18 39  1  0  0  0  0
 18 40  1  0  0  0  0
 19 41  1  0  0  0  0
 19 42  1  0  0  0  0
M  CHG  1   3   1
M  END
> <s_m_source_file>
AV-unprocessed.smi

> <i_m_source_file_index>
1184

> <i_lp_mmshare_version>
43012

> <i_f3d_flags>
0

> <s_epik_input>
W0NIM11bQ0gyXU4xW0NIMl1bQ0gyXVtDQEhdKFtDSDJdMSlbQ0gyXVtOSF1DKD1PKVtDSDJdYzJjKFtDSDNdKW5vYzJbQ0gzXQ==

> <s_epik_cmdline>
J2VwaWtfcHl0aG9uJywgJy1waCcsICc3LjAnLCAnLXRuJywgJzgnLCAnLW1hJywgJzIwMCcsICctbWV0YWxfYmluZGluZycsICctaW1hZScsICc8aW5maWxlLm1hZT4nLCAnLW9tYWUnLCAnPG91dGZpbGUubWFlPic=

> <r_epik_Ionization_Penalty>
0.000590726

> <r_epik_Ionization_Penalty_Charging>
0.000590692

> <r_epik_Ionization_Penalty_Neutral>
3.44741e-08

> <r_epik_State_Penalty>
0.000371644

> <r_epik_Charging_Adjusted_Penalty>
0.000962336

> <i_epik_Tot_Q>
1

> <i_epik_Tot_abs_Q>
1

> <r_epik_Metal_State_Penalty>
-0

> <b_epik_Metal_Only>
0

> <s_lp_Force_Field>
OPLS_2005

> <r_lp_Energy>
20.0287

> <b_lp_Chiralities_Consistent>
1

> <s_lp_Variant>
AV-unprocessed.smi:1184-1

> <Gold.Version>
5.8.1

> <Gold.Id.Protein>
6NUR|6NUR_protein|mol2

> <Gold.PLP.Fitness>
40.8965

> <Gold.PLP.PLP>
-29.2825

> <Gold.PLP.part.hbond>
-3.6278

> <Gold.PLP.part.metal>
0.0000

> <Gold.PLP.part.buried>
5.2102

> <Gold.PLP.part.nonpolar>
-30.9142

> <Gold.PLP.part.repulsive>
0.2488

> <Gold.PLP.ligand.clash>
0.0000

> <Gold.PLP.ligand.torsion>
0.1443

> <Gold.PLP.Chemscore.Hbond>
3.9600

> <Gold.PLP.Chemscore.CHOScore>
0.0000

> <Gold.PLP.Chemscore.Metal>
0.0000

> <Gold.Chemscore.Hbonds>
donor molecule, donor type, donor heavy atom, donor atom, acceptor molecule, acceptor atom, score
      L1  H     3    43       P1  7948  2.00
      P1  H  7989  7998       L1    10  0.94
      P1  H  7997  8009       L1    16  0.86

> <Gold.PLP.Chemscore.Internal.Correction>
0.0227

> <Gold.Rescore>
     Score         DG    S(hbond)    S(metal)    S(lipo)     H(rot)  DE(clash)    DE(int)     intcor
     16.34     -20.47       2.67        0.00      88.40       1.67       3.83       0.31       ----

> <Gold.Chemscore.Fitness>
16.3359

> <Gold.Chemscore.DG>
-20.4712

> <Gold.Chemscore.ZeroCoef>
-5.4800

> <Gold.Chemscore.Hbond>
2.6706

> <Gold.Chemscore.Metal>
0.0000

> <Gold.Chemscore.Lipo>
88.3988

> <Gold.Chemscore.Internal_Hbond>
0.0000

> <Gold.Chemscore.DEClash>
3.8262

> <Gold.Chemscore.DEInternal>
0.3091

> <Gold.Chemscore.Rot>
1.6684

> <Gold.Chemscore.Internal.Correction>
   9.000000E+99

> <Gold.Chemscore.Hbonds>
donor molecule, donor type, donor heavy atom, donor atom, acceptor molecule, acceptor atom, score
      L1  H     3    43       P1  7948  1.00
      P1  H  7989  7998       L1    10  0.88
      P1  H  7997  8009       L1    16  0.32

> <Gold.Chemscore.Hbond.Weighted>
-8.9198

> <Gold.Chemscore.Metal.Weighted>
-0.0000

> <Gold.Chemscore.Lipo.Weighted>
-10.3427

> <Gold.Chemscore.Internal_Hbond.Weighted>
0.0000

> <Gold.Chemscore.DEClash.Weighted>
3.8262

> <Gold.Chemscore.DEInternal.Weighted>
0.3091

> <Gold.Chemscore.Rot.Weighted>
4.2712

> <Gold.Chemscore.Internal.Correction.Weighted>
   9.000000E+99

> <Gold.Protein.RotatedTorsions>
[ 6907 6896 6895 6894 ] final  -20.38 input  -60.11 | X-H torsion
[ 7974 7965 7964 7962 ] final  121.67 input  175.53 | X-H torsion
[ 8008 7997 7996 7995 ] final  147.99 input   59.86 | X-H torsion
[ 10167 10162 10161 10158 ] final -131.13 input  -65.29 | X-H torsion
[ 10718 10713 10712 10709 ] final  -81.67 input   66.30 | X-H torsion
[ 10763 10752 10751 10750 ] final  162.23 input  -60.55 | X-H torsion
[ 11005 11000 10999 10996 ] final  -98.78 input  -57.11 | X-H torsion

> <Gold.Protein.ActiveResidues>
 VAL166  LYS551  ARG553  GLY616  TRP617  ASP618  TYR619  PRO620  LYS621  CYS622 
 ASP623  PHE694  ASN695  SER759  ASP760  ASP761  ALA762  ILE779  LEU786  VAL792 
 PHE793  MET794  SER795  GLU796  ALA797  LYS798  CYS799  TRP800  GLU811  SER814 

> <Gold.Protein.RotatedAtoms>
  151.2490  135.0615  159.9054 H   0  0  0  0  0  0  0  0  0  0  0  0  # atno 6907 bound_to 6896
  152.5383  134.0353  159.8053 H   0  0  0  0  0  0  0  0  0  0  0  0  # atno 6908 bound_to 6896
  151.0558  133.5536  159.2669 H   0  0  0  0  0  0  0  0  0  0  0  0  # atno 6909 bound_to 6896
  145.1166  139.3417  143.4735 H   0  0  0  0  0  0  0  0  0  0  0  0  # atno 7974 bound_to 7965
  156.2806  140.2141  156.5627 H   0  0  0  0  0  0  0  0  0  0  0  0  # atno 8008 bound_to 7997
  154.7200  140.0504  157.0653 H   0  0  0  0  0  0  0  0  0  0  0  0  # atno 8009 bound_to 7997
  155.0491  140.3154  155.4701 H   0  0  0  0  0  0  0  0  0  0  0  0  # atno 8010 bound_to 7997
  139.9221  143.6370  152.2551 H   0  0  0  0  0  0  0  0  0  0  0  0  # atno 10167 bound_to 10162
  156.0046  130.4611  150.3988 H   0  0  0  0  0  0  0  0  0  0  0  0  # atno 10718 bound_to 10713
  154.2752  135.2764  155.2721 H   0  0  0  0  0  0  0  0  0  0  0  0  # atno 10763 bound_to 10752
  154.5267  135.5741  153.6728 H   0  0  0  0  0  0  0  0  0  0  0  0  # atno 10764 bound_to 10752
  152.9938  135.6217  154.2908 H   0  0  0  0  0  0  0  0  0  0  0  0  # atno 10765 bound_to 10752
  141.1332  133.8272  157.0885 H   0  0  0  0  0  0  0  0  0  0  0  0  # atno 11005 bound_to 11000
  146.3523  140.1108  142.8604 LP  0  0  0  0  0  0  0  0  0  0  0  0  # atno 17320 bound_to 7965
  145.0787  140.9206  143.4838 LP  0  0  0  0  0  0  0  0  0  0  0  0  # atno 17321 bound_to 7965
  139.6853  144.7652  151.1535 LP  0  0  0  0  0  0  0  0  0  0  0  0  # atno 17342 bound_to 10162
  140.7659  143.5666  150.9041 LP  0  0  0  0  0  0  0  0  0  0  0  0  # atno 17343 bound_to 10162
  157.2058  131.0449  151.2626 LP  0  0  0  0  0  0  0  0  0  0  0  0  # atno 17370 bound_to 10713
  157.3934  130.7294  149.6714 LP  0  0  0  0  0  0  0  0  0  0  0  0  # atno 17371 bound_to 10713
  140.0407  134.9856  157.0956 LP  0  0  0  0  0  0  0  0  0  0  0  0  # atno 17394 bound_to 11000
  140.4140  134.1951  155.7163 LP  0  0  0  0  0  0  0  0  0  0  0  0  # atno 17395 bound_to 11000

$$$$
