AV-unprocessed.smi:792|AV-procd|sdf|3750|dock9
  -GOLD-   22720 1183D 1   1.00000     0.00000
 Structure written by MMmdl.
 46 47  0  0  0  0  0  0  0  0  1 V2000
  152.2118  145.4193  159.3225 C   0  0  0  0  0  0  0  0  0  0  0  0
  152.2321  143.9096  159.2052 C   0  0  0  0  0  0  0  0  0  0  0  0
  153.0566  143.1292  160.0430 C   0  0  0  0  0  0  0  0  0  0  0  0
  153.0352  141.7296  159.8896 C   0  0  0  0  0  0  0  0  0  0  0  0
  152.1931  141.1658  158.9093 C   0  0  0  0  0  0  0  0  0  0  0  0
  152.1338  139.6655  158.7025 C   0  0  0  0  0  0  0  0  0  0  0  0
  151.1612  139.2738  157.5828 C   0  0  0  0  0  0  0  0  0  0  0  0
  150.0041  138.5812  158.1311 N   0  0  0  0  0  0  0  0  0  0  0  0
  150.0764  137.5383  158.9677 C   0  0  0  0  0  0  0  0  0  0  0  0
  151.1322  137.0597  159.3824 O   0  0  0  0  0  0  0  0  0  0  0  0
  148.8606  137.0777  159.2961 N   0  0  0  0  0  0  0  0  0  0  0  0
  148.6024  135.9603  160.2030 C   0  0  0  0  0  0  0  0  0  0  0  0
  147.3451  136.1533  161.0727 C   0  0  0  0  0  0  0  0  0  0  0  0
  146.7092  137.2054  160.9790 O   0  0  0  0  0  0  0  0  0  0  0  0
  146.9703  135.1571  161.9124 N   0  0  0  0  0  0  0  0  0  0  0  0
  147.6744  133.8692  161.9803 C   0  0  0  0  0  0  0  0  0  0  0  0
  146.7579  132.7691  161.4137 C   0  0  0  0  0  0  0  0  0  0  0  0
  145.4097  132.7360  162.1578 C   0  0  0  0  0  0  0  0  0  0  0  0
  144.7703  134.1351  162.2371 C   0  0  0  0  0  0  0  0  0  0  0  0
  145.7786  135.1676  162.7729 C   0  0  0  0  0  0  0  0  0  0  0  0
  151.4095  142.0354  158.1218 C   0  0  0  0  0  0  0  0  0  0  0  0
  151.4234  143.3785  158.2618 N   0  0  0  0  0  0  0  0  0  0  0  0
  152.8889  145.7646  160.1042 H   0  0  0  0  0  0  0  0  0  0  0  0
  151.2074  145.7679  159.5647 H   0  0  0  0  0  0  0  0  0  0  0  0
  152.5178  145.8770  158.3814 H   0  0  0  0  0  0  0  0  0  0  0  0
  153.6915  143.5892  160.7859 H   0  0  0  0  0  0  0  0  0  0  0  0
  153.6553  141.1024  160.5129 H   0  0  0  0  0  0  0  0  0  0  0  0
  153.1355  139.2982  158.4751 H   0  0  0  0  0  0  0  0  0  0  0  0
  151.8369  139.1914  159.6393 H   0  0  0  0  0  0  0  0  0  0  0  0
  150.8281  140.1645  157.0471 H   0  0  0  0  0  0  0  0  0  0  0  0
  151.6604  138.6285  156.8583 H   0  0  0  0  0  0  0  0  0  0  0  0
  149.0927  138.9123  157.8503 H   0  0  0  0  0  0  0  0  0  0  0  0
  148.0536  137.5423  158.9062 H   0  0  0  0  0  0  0  0  0  0  0  0
  148.4772  135.0633  159.5963 H   0  0  0  0  0  0  0  0  0  0  0  0
  149.4744  135.7999  160.8394 H   0  0  0  0  0  0  0  0  0  0  0  0
  148.6218  133.8728  161.4401 H   0  0  0  0  0  0  0  0  0  0  0  0
  147.9268  133.6494  163.0187 H   0  0  0  0  0  0  0  0  0  0  0  0
  146.5854  132.9518  160.3521 H   0  0  0  0  0  0  0  0  0  0  0  0
  147.2478  131.7977  161.4863 H   0  0  0  0  0  0  0  0  0  0  0  0
  144.7282  132.0353  161.6749 H   0  0  0  0  0  0  0  0  0  0  0  0
  145.5714  132.3616  163.1694 H   0  0  0  0  0  0  0  0  0  0  0  0
  144.4272  134.4396  161.2473 H   0  0  0  0  0  0  0  0  0  0  0  0
  143.8870  134.1050  162.8757 H   0  0  0  0  0  0  0  0  0  0  0  0
  146.0716  134.9052  163.7905 H   0  0  0  0  0  0  0  0  0  0  0  0
  145.3026  136.1431  162.8560 H   0  0  0  0  0  0  0  0  0  0  0  0
  150.7541  141.6441  157.3576 H   0  0  0  0  0  0  0  0  0  0  0  0
  1  2  1  0  0  0  0
  1 23  1  0  0  0  0
  1 24  1  0  0  0  0
  1 25  1  0  0  0  0
  2 22  1  0  0  0  0
  2  3  2  0  0  0  0
  3  4  1  0  0  0  0
  3 26  1  0  0  0  0
  4  5  2  0  0  0  0
  4 27  1  0  0  0  0
  5  6  1  0  0  0  0
  5 21  1  0  0  0  0
  6  7  1  0  0  0  0
  6 28  1  0  0  0  0
  6 29  1  0  0  0  0
  7  8  1  0  0  0  0
  7 30  1  0  0  0  0
  7 31  1  0  0  0  0
  8  9  1  0  0  0  0
  8 32  1  0  0  0  0
  9 10  2  0  0  0  0
  9 11  1  0  0  0  0
 11 12  1  0  0  0  0
 11 33  1  0  0  0  0
 12 13  1  0  0  0  0
 12 34  1  0  0  0  0
 12 35  1  0  0  0  0
 13 14  2  0  0  0  0
 13 15  1  0  0  0  0
 15 20  1  0  0  0  0
 15 16  1  0  0  0  0
 16 17  1  0  0  0  0
 16 36  1  0  0  0  0
 16 37  1  0  0  0  0
 17 18  1  0  0  0  0
 17 38  1  0  0  0  0
 17 39  1  0  0  0  0
 18 19  1  0  0  0  0
 18 40  1  0  0  0  0
 18 41  1  0  0  0  0
 19 20  1  0  0  0  0
 19 42  1  0  0  0  0
 19 43  1  0  0  0  0
 20 44  1  0  0  0  0
 20 45  1  0  0  0  0
 21 22  2  0  0  0  0
 21 46  1  0  0  0  0
M  END
> <s_m_source_file>
AV-unprocessed.smi

> <i_m_source_file_index>
792

> <i_lp_mmshare_version>
43012

> <i_f3d_flags>
0

> <s_epik_input>
W0NIM11jMVtjSF1bY0hdYyhbY0hdbjEpW0NIMl1bQ0gyXVtOSF1DKD1PKVtOSF1bQ0gyXUMoPU8pTjJbQ0gyXVtDSDJdW0NIMl1bQ0gyXVtDSDJdMg==

> <s_epik_cmdline>
J2VwaWtfcHl0aG9uJywgJy1waCcsICc3LjAnLCAnLXRuJywgJzgnLCAnLW1hJywgJzIwMCcsICctbWV0YWxfYmluZGluZycsICctaW1hZScsICc8aW5maWxlLm1hZT4nLCAnLW9tYWUnLCAnPG91dGZpbGUubWFlPic=

> <r_epik_Ionization_Penalty>
0.0629971

> <r_epik_Ionization_Penalty_Charging>
0

> <r_epik_Ionization_Penalty_Neutral>
0.0629971

> <r_epik_State_Penalty>
0.0547377

> <r_epik_Charging_Adjusted_Penalty>
0.0547377

> <i_epik_Tot_Q>
0

> <i_epik_Tot_abs_Q>
0

> <r_epik_Metal_State_Penalty>
0.0494478

> <b_epik_Metal_Only>
0

> <s_lp_Force_Field>
OPLS_2005

> <r_lp_Energy>
16.0081

> <b_lp_Chiralities_Consistent>
1

> <s_lp_Variant>
AV-unprocessed.smi:792-1

> <Gold.Version>
5.8.1

> <Gold.Id.Protein>
6NUR|6NUR_protein|mol2

> <Gold.PLP.Fitness>
52.4950

> <Gold.PLP.PLP>
-47.6267

> <Gold.PLP.part.hbond>
-2.0000

> <Gold.PLP.part.metal>
0.0000

> <Gold.PLP.part.buried>
-6.9099

> <Gold.PLP.part.nonpolar>
-39.5937

> <Gold.PLP.part.repulsive>
0.4152

> <Gold.PLP.ligand.clash>
0.0000

> <Gold.PLP.ligand.torsion>
0.5763

> <Gold.PLP.Chemscore.Hbond>
2.0000

> <Gold.PLP.Chemscore.CHOScore>
0.0000

> <Gold.PLP.Chemscore.Metal>
0.0000

> <Gold.Chemscore.Hbonds>
donor molecule, donor type, donor heavy atom, donor atom, acceptor molecule, acceptor atom, score
      P1  H  6896  6907       L1    10  1.00
      P1  H  6934  6947       L1    14  1.00

> <Gold.PLP.Chemscore.Internal.Correction>
0.0210

> <Gold.Rescore>
     Score         DG    S(hbond)    S(metal)    S(lipo)     H(rot)  DE(clash)    DE(int)     intcor
     19.34     -21.18       1.98        0.00     116.40       1.78       0.01       1.83       ----

> <Gold.Chemscore.Fitness>
19.3421

> <Gold.Chemscore.DG>
-21.1771

> <Gold.Chemscore.ZeroCoef>
-5.4800

> <Gold.Chemscore.Hbond>
1.9827

> <Gold.Chemscore.Metal>
0.0000

> <Gold.Chemscore.Lipo>
116.4004

> <Gold.Chemscore.Internal_Hbond>
0.0000

> <Gold.Chemscore.DEClash>
0.0073

> <Gold.Chemscore.DEInternal>
1.8276

> <Gold.Chemscore.Rot>
1.7751

> <Gold.Chemscore.Internal.Correction>
   9.000000E+99

> <Gold.Chemscore.Hbonds>
donor molecule, donor type, donor heavy atom, donor atom, acceptor molecule, acceptor atom, score
      P1  H  6896  6907       L1    10  0.94
      P1  H  6934  6947       L1    14  1.00

> <Gold.Chemscore.Hbond.Weighted>
-6.6224

> <Gold.Chemscore.Metal.Weighted>
-0.0000

> <Gold.Chemscore.Lipo.Weighted>
-13.6188

> <Gold.Chemscore.Internal_Hbond.Weighted>
0.0000

> <Gold.Chemscore.DEClash.Weighted>
0.0073

> <Gold.Chemscore.DEInternal.Weighted>
1.8276

> <Gold.Chemscore.Rot.Weighted>
4.5441

> <Gold.Chemscore.Internal.Correction.Weighted>
   9.000000E+99

> <Gold.Protein.RotatedTorsions>
[ 6907 6896 6895 6894 ] final  -21.95 input  -60.11 | X-H torsion
[ 7974 7965 7964 7962 ] final  158.06 input  175.53 | X-H torsion
[ 8008 7997 7996 7995 ] final  156.62 input   59.86 | X-H torsion
[ 10167 10162 10161 10158 ] final  -38.55 input  -65.29 | X-H torsion
[ 10718 10713 10712 10709 ] final   54.17 input   66.30 | X-H torsion
[ 10763 10752 10751 10750 ] final   -4.32 input  -60.55 | X-H torsion
[ 11005 11000 10999 10996 ] final   59.40 input  -57.11 | X-H torsion

> <Gold.Protein.ActiveResidues>
 VAL166  LYS551  ARG553  GLY616  TRP617  ASP618  TYR619  PRO620  LYS621  CYS622 
 ASP623  PHE694  ASN695  SER759  ASP760  ASP761  ALA762  ILE779  LEU786  VAL792 
 PHE793  MET794  SER795  GLU796  ALA797  LYS798  CYS799  TRP800  GLU811  SER814 

> <Gold.Protein.RotatedAtoms>
  151.2257  135.0535  159.8967 H   0  0  0  0  0  0  0  0  0  0  0  0  # atno 6907 bound_to 6896
  152.5410  134.0591  159.8154 H   0  0  0  0  0  0  0  0  0  0  0  0  # atno 6908 bound_to 6896
  151.0764  133.5376  159.2655 H   0  0  0  0  0  0  0  0  0  0  0  0  # atno 6909 bound_to 6896
  144.7867  139.7426  143.6238 H   0  0  0  0  0  0  0  0  0  0  0  0  # atno 7974 bound_to 7965
  156.2412  140.1907  156.6984 H   0  0  0  0  0  0  0  0  0  0  0  0  # atno 8008 bound_to 7997
  154.6200  140.0610  156.9629 H   0  0  0  0  0  0  0  0  0  0  0  0  # atno 8009 bound_to 7997
  155.1877  140.3282  155.4366 H   0  0  0  0  0  0  0  0  0  0  0  0  # atno 8010 bound_to 7997
  140.7089  143.3270  151.2657 H   0  0  0  0  0  0  0  0  0  0  0  0  # atno 10167 bound_to 10162
  157.5233  130.8580  149.8588 H   0  0  0  0  0  0  0  0  0  0  0  0  # atno 10718 bound_to 10713
  153.3833  135.6999  153.6549 H   0  0  0  0  0  0  0  0  0  0  0  0  # atno 10763 bound_to 10752
  153.5151  135.3623  155.2606 H   0  0  0  0  0  0  0  0  0  0  0  0  # atno 10764 bound_to 10752
  154.8695  135.4144  154.3135 H   0  0  0  0  0  0  0  0  0  0  0  0  # atno 10765 bound_to 10752
  140.0306  134.6017  155.9512 H   0  0  0  0  0  0  0  0  0  0  0  0  # atno 11005 bound_to 11000
  146.2102  139.5453  142.9686 LP  0  0  0  0  0  0  0  0  0  0  0  0  # atno 17320 bound_to 7965
  145.5902  141.0370  143.2074 LP  0  0  0  0  0  0  0  0  0  0  0  0  # atno 17321 bound_to 7965
  139.6741  143.9969  152.2770 LP  0  0  0  0  0  0  0  0  0  0  0  0  # atno 17342 bound_to 10162
  139.9577  144.6579  150.8110 LP  0  0  0  0  0  0  0  0  0  0  0  0  # atno 17343 bound_to 10162
  156.0369  130.3749  150.1537 LP  0  0  0  0  0  0  0  0  0  0  0  0  # atno 17370 bound_to 10713
  156.9724  130.9839  151.3456 LP  0  0  0  0  0  0  0  0  0  0  0  0  # atno 17371 bound_to 10713
  141.1829  133.6550  156.5094 LP  0  0  0  0  0  0  0  0  0  0  0  0  # atno 17394 bound_to 11000
  140.4232  134.7169  157.4901 LP  0  0  0  0  0  0  0  0  0  0  0  0  # atno 17395 bound_to 11000

$$$$
