AV-unprocessed.smi:3282|AV-procd|sdf|12566|dock3
  -GOLD-   2272018483D 1   1.00000     0.00000
 Structure written by MMmdl.
 33 34  0  0  0  0  0  0  0  0  2 V2000
  151.9468  145.0196  159.2422 C   0  0  0  0  0  0  0  0  0  0  0  0
  151.6096  144.1883  160.4906 C   0  0  0  0  0  0  0  0  0  0  0  0
  152.4784  142.9292  160.6514 C   0  0  0  0  0  0  0  0  0  0  0  0
  153.2338  142.8243  161.6191 O   0  0  0  0  0  0  0  0  0  0  0  0
  152.3816  141.9654  159.7123 N   0  0  0  0  0  0  0  0  0  0  0  0
  153.1344  140.7149  159.7560 C   0  0  0  0  0  0  0  0  0  0  0  0
  152.5461  139.8305  158.6562 C   0  0  0  0  0  0  0  0  0  0  0  0
  151.9180  140.8081  157.6661 C   0  0  1  0  0  0  0  0  0  0  0  0
  150.7682  140.2215  156.9842 N   0  0  0  0  0  0  0  0  0  0  0  0
  150.7338  139.8380  155.6999 C   0  0  0  0  0  0  0  0  0  0  0  0
  151.7403  139.9551  154.9968 O   0  0  0  0  0  0  0  0  0  0  0  0
  149.5351  139.3502  155.3088 N   0  5  0  0  0  0  0  0  0  0  0  0
  148.6014  140.1840  154.8234 C   0  0  0  0  0  0  0  0  0  0  0  0
  147.4527  139.8331  154.2426 N   0  0  0  0  0  0  0  0  0  0  0  0
  146.8155  141.0202  153.9156 C   0  0  0  0  0  0  0  0  0  0  0  0
  147.6150  142.0524  154.3248 C   0  0  0  0  0  0  0  0  0  0  0  0
  148.7429  141.5377  154.9016 O   0  0  0  0  0  0  0  0  0  0  0  0
  151.5261  142.0158  158.5291 C   0  0  0  0  0  0  0  0  0  0  0  0
  151.3062  145.8996  159.1827 H   0  0  0  0  0  0  0  0  0  0  0  0
  151.8001  144.4442  158.3272 H   0  0  0  0  0  0  0  0  0  0  0  0
  152.9809  145.3661  159.2623 H   0  0  0  0  0  0  0  0  0  0  0  0
  151.7260  144.8155  161.3750 H   0  0  0  0  0  0  0  0  0  0  0  0
  150.5619  143.8888  160.4482 H   0  0  0  0  0  0  0  0  0  0  0  0
  154.1852  140.9277  159.5538 H   0  0  0  0  0  0  0  0  0  0  0  0
  153.0683  140.2305  160.7315 H   0  0  0  0  0  0  0  0  0  0  0  0
  153.2919  139.1835  158.1932 H   0  0  0  0  0  0  0  0  0  0  0  0
  151.7775  139.1891  159.0904 H   0  0  0  0  0  0  0  0  0  0  0  0
  152.6763  141.1088  156.9406 H   0  0  0  0  0  0  0  0  0  0  0  0
  149.9246  140.1056  157.5263 H   0  0  0  0  0  0  0  0  0  0  0  0
  145.8540  141.0364  153.4244 H   0  0  0  0  0  0  0  0  0  0  0  0
  147.5353  143.1284  154.2852 H   0  0  0  0  0  0  0  0  0  0  0  0
  150.4847  141.9485  158.8490 H   0  0  0  0  0  0  0  0  0  0  0  0
  151.6487  142.9449  157.9711 H   0  0  0  0  0  0  0  0  0  0  0  0
  1  2  1  0  0  0  0
  1 19  1  0  0  0  0
  1 20  1  0  0  0  0
  1 21  1  0  0  0  0
  2  3  1  0  0  0  0
  2 22  1  0  0  0  0
  2 23  1  0  0  0  0
  3  4  2  0  0  0  0
  3  5  1  0  0  0  0
  5 18  1  0  0  0  0
  5  6  1  0  0  0  0
  6  7  1  0  0  0  0
  6 24  1  0  0  0  0
  6 25  1  0  0  0  0
  7  8  1  0  0  0  0
  7 26  1  0  0  0  0
  7 27  1  0  0  0  0
  8  9  1  0  0  0  0
  8 18  1  0  0  0  0
  8 28  1  0  0  0  0
  9 10  1  0  0  0  0
  9 29  1  0  0  0  0
 10 11  2  0  0  0  0
 10 12  1  0  0  0  0
 12 13  1  0  0  0  0
 13 17  1  0  0  0  0
 13 14  2  0  0  0  0
 14 15  1  0  0  0  0
 15 16  2  0  0  0  0
 15 30  1  0  0  0  0
 16 17  1  0  0  0  0
 16 31  1  0  0  0  0
 18 32  1  0  0  0  0
 18 33  1  0  0  0  0
M  CHG  1  12  -1
M  END
> <s_m_source_file>
AV-unprocessed.smi

> <i_m_source_file_index>
3282

> <i_lp_mmshare_version>
43012

> <i_f3d_flags>
0

> <s_epik_input>
W0NIM11bQ0gyXUMoPU8pTjFbQ0gyXVtDSDJdW0NASF0oW0NIMl0xKVtOSF1DKD1PKVtOSF1jMm5bY0hdW2NIXW8y

> <s_epik_cmdline>
J2VwaWtfcHl0aG9uJywgJy1waCcsICc3LjAnLCAnLXRuJywgJzgnLCAnLW1hJywgJzIwMCcsICctbWV0YWxfYmluZGluZycsICctaW1hZScsICc8aW5maWxlLm1hZT4nLCAnLW9tYWUnLCAnPG91dGZpbGUubWFlPic=

> <r_lp_tautomer_probability>
0.785861

> <r_epik_Ionization_Penalty>
9.30511

> <r_epik_Ionization_Penalty_Charging>
6.7516

> <r_epik_Ionization_Penalty_Neutral>
2.55351

> <r_epik_State_Penalty>
6.77285

> <r_epik_Charging_Adjusted_Penalty>
13.5244

> <i_epik_Tot_Q>
-1

> <i_epik_Tot_abs_Q>
1

> <r_epik_Metal_State_Penalty>
2.67327

> <b_epik_Metal_Only>
1

> <s_lp_Force_Field>
OPLS_2005

> <r_lp_Energy>
19.1505

> <b_lp_Chiralities_Consistent>
1

> <s_lp_Variant>
AV-unprocessed.smi:3282-7

> <Gold.Version>
5.8.1

> <Gold.Id.Protein>
6NUR|6NUR_protein|mol2

> <Gold.PLP.Fitness>
42.7085

> <Gold.PLP.PLP>
-36.0586

> <Gold.PLP.part.hbond>
-1.0000

> <Gold.PLP.part.metal>
0.0000

> <Gold.PLP.part.buried>
-6.7103

> <Gold.PLP.part.nonpolar>
-29.8095

> <Gold.PLP.part.repulsive>
0.5207

> <Gold.PLP.ligand.clash>
0.0000

> <Gold.PLP.ligand.torsion>
0.9500

> <Gold.PLP.Chemscore.Hbond>
0.9120

> <Gold.PLP.Chemscore.CHOScore>
1.9305

> <Gold.PLP.Chemscore.Metal>
0.0000

> <Gold.Chemscore.Hbonds>
donor molecule, donor type, donor heavy atom, donor atom, acceptor molecule, acceptor atom, score
      P1  H  7989  7998       L1    11  0.99
      L1  C    15    30       P1 10175  1.00
      L1  C    16    31       P1  8028  0.93

> <Gold.PLP.Chemscore.Internal.Correction>
0.0223

> <Gold.Rescore>
     Score         DG    S(hbond)    S(metal)    S(lipo)     H(rot)  DE(clash)    DE(int)     intcor
     12.15     -13.20       0.94        0.00      67.82       1.31       0.13       0.92       ----

> <Gold.Chemscore.Fitness>
12.1533

> <Gold.Chemscore.DG>
-13.2041

> <Gold.Chemscore.ZeroCoef>
-5.4800

> <Gold.Chemscore.Hbond>
0.9395

> <Gold.Chemscore.Metal>
0.0000

> <Gold.Chemscore.Lipo>
67.8193

> <Gold.Chemscore.Internal_Hbond>
0.0000

> <Gold.Chemscore.DEClash>
0.1270

> <Gold.Chemscore.DEInternal>
0.9237

> <Gold.Chemscore.Rot>
1.3082

> <Gold.Chemscore.Internal.Correction>
   9.000000E+99

> <Gold.Chemscore.Hbonds>
donor molecule, donor type, donor heavy atom, donor atom, acceptor molecule, acceptor atom, score
      P1  H  7989  7998       L1    11  0.92

> <Gold.Chemscore.Hbond.Weighted>
-3.1381

> <Gold.Chemscore.Metal.Weighted>
-0.0000

> <Gold.Chemscore.Lipo.Weighted>
-7.9349

> <Gold.Chemscore.Internal_Hbond.Weighted>
0.0000

> <Gold.Chemscore.DEClash.Weighted>
0.1270

> <Gold.Chemscore.DEInternal.Weighted>
0.9237

> <Gold.Chemscore.Rot.Weighted>
3.3489

> <Gold.Chemscore.Internal.Correction.Weighted>
   9.000000E+99

> <Gold.Protein.RotatedTorsions>
[ 6907 6896 6895 6894 ] final -133.06 input  -60.11 | X-H torsion
[ 7974 7965 7964 7962 ] final   59.51 input  175.53 | X-H torsion
[ 8008 7997 7996 7995 ] final  -33.66 input   59.86 | X-H torsion
[ 10167 10162 10161 10158 ] final  177.06 input  -65.29 | X-H torsion
[ 10718 10713 10712 10709 ] final  114.86 input   66.30 | X-H torsion
[ 10763 10752 10751 10750 ] final   42.72 input  -60.55 | X-H torsion
[ 11005 11000 10999 10996 ] final   38.21 input  -57.11 | X-H torsion

> <Gold.Protein.ActiveResidues>
 VAL166  LYS551  ARG553  GLY616  TRP617  ASP618  TYR619  PRO620  LYS621  CYS622 
 ASP623  PHE694  ASN695  SER759  ASP760  ASP761  ALA762  ILE779  LEU786  VAL792 
 PHE793  MET794  SER795  GLU796  ALA797  LYS798  CYS799  TRP800  GLU811  SER814 

> <Gold.Protein.RotatedAtoms>
  150.9696  133.6358  159.2740 H   0  0  0  0  0  0  0  0  0  0  0  0  # atno 6907 bound_to 6896
  151.3652  135.0911  159.9457 H   0  0  0  0  0  0  0  0  0  0  0  0  # atno 6908 bound_to 6896
  152.5178  133.9261  159.7612 H   0  0  0  0  0  0  0  0  0  0  0  0  # atno 6909 bound_to 6896
  145.9064  139.3620  143.0562 H   0  0  0  0  0  0  0  0  0  0  0  0  # atno 7974 bound_to 7965
  154.4142  140.1705  156.1924 H   0  0  0  0  0  0  0  0  0  0  0  0  # atno 8008 bound_to 7997
  155.9592  140.3395  155.6452 H   0  0  0  0  0  0  0  0  0  0  0  0  # atno 8009 bound_to 7997
  155.6770  140.0718  157.2489 H   0  0  0  0  0  0  0  0  0  0  0  0  # atno 8010 bound_to 7997
  139.5238  144.2842  152.0520 H   0  0  0  0  0  0  0  0  0  0  0  0  # atno 10167 bound_to 10162
  157.6256  131.1004  150.7247 H   0  0  0  0  0  0  0  0  0  0  0  0  # atno 10718 bound_to 10713
  152.9876  135.6123  154.2994 H   0  0  0  0  0  0  0  0  0  0  0  0  # atno 10763 bound_to 10752
  154.2716  135.2779  155.2737 H   0  0  0  0  0  0  0  0  0  0  0  0  # atno 10764 bound_to 10752
  154.5117  135.5839  153.6667 H   0  0  0  0  0  0  0  0  0  0  0  0  # atno 10765 bound_to 10752
  140.2149  134.3710  155.8031 H   0  0  0  0  0  0  0  0  0  0  0  0  # atno 11005 bound_to 11000
  145.8727  140.9410  143.0642 LP  0  0  0  0  0  0  0  0  0  0  0  0  # atno 17320 bound_to 7965
  144.6739  140.0676  143.7474 LP  0  0  0  0  0  0  0  0  0  0  0  0  # atno 17321 bound_to 7965
  140.2296  144.4382  150.6306 LP  0  0  0  0  0  0  0  0  0  0  0  0  # atno 17342 bound_to 10162
  140.6364  143.2195  151.6385 LP  0  0  0  0  0  0  0  0  0  0  0  0  # atno 17343 bound_to 10162
  156.7595  130.4794  149.5440 LP  0  0  0  0  0  0  0  0  0  0  0  0  # atno 17370 bound_to 10713
  156.1427  130.6255  151.0489 LP  0  0  0  0  0  0  0  0  0  0  0  0  # atno 17371 bound_to 10713
  141.2225  133.7162  156.8480 LP  0  0  0  0  0  0  0  0  0  0  0  0  # atno 17394 bound_to 11000
  140.1911  134.8965  157.3061 LP  0  0  0  0  0  0  0  0  0  0  0  0  # atno 17395 bound_to 11000

$$$$
