AV-unprocessed.smi:290|AV-procd|sdf|2228|dock4
  -GOLD-   2262022 83D 1   1.00000     0.00000
 Structure written by MMmdl.
 59 62  0  0  0  0  0  0  0  0  2 V2000
  150.9399  141.5205  156.3932 C   0  0  0  0  0  0  0  0  0  0  0  0
  150.7391  140.0566  155.9690 C   0  0  1  0  0  0  0  0  0  0  0  0
  150.9305  139.9154  154.5682 O   0  0  0  0  0  0  0  0  0  0  0  0
  151.1527  138.5404  154.3137 C   0  0  0  0  0  0  0  0  0  0  0  0
  152.1196  138.1493  155.4239 C   0  0  0  0  0  0  0  0  0  0  0  0
  151.6744  139.0001  156.6168 C   0  0  1  0  0  0  0  0  0  0  0  0
  152.8273  139.5963  157.1882 O   0  0  0  0  0  0  0  0  0  0  0  0
  150.9715  138.1504  157.7047 C   0  0  0  0  0  0  0  0  0  0  0  0
  149.9662  137.2423  157.1740 N   0  0  0  0  0  0  0  0  0  0  0  0
  148.6038  137.4383  157.1515 C   0  0  0  0  0  0  0  0  0  0  0  0
  147.9104  136.4654  156.6273 N   0  0  0  0  0  0  0  0  0  0  0  0
  148.8664  135.5289  156.2506 C   0  0  0  0  0  0  0  0  0  0  0  0
  148.8109  134.2488  155.6270 C   0  0  0  0  0  0  0  0  0  0  0  0
  147.6436  133.6485  155.2724 N   0  0  0  0  0  0  0  0  0  0  0  0
  146.5975  133.5836  156.2909 C   0  0  0  0  0  0  0  0  0  0  0  0
  145.8870  132.2391  156.1033 C   0  0  0  0  0  0  0  0  0  0  0  0
  146.2015  131.8872  154.6454 C   0  0  2  0  0  0  0  0  0  0  0  0
  146.0352  130.4536  154.2712 N   0  3  2  0  0  0  0  0  0  0  0  0
  146.8407  129.5572  155.1338 C   0  0  0  0  0  0  0  0  0  0  0  0
  146.1864  130.1425  152.8234 C   0  0  0  0  0  0  0  0  0  0  0  0
  145.9538  128.6510  152.5357 C   0  0  0  0  0  0  0  0  0  0  0  0
  144.7746  128.2139  153.1782 O   0  0  0  0  0  0  0  0  0  0  0  0
  147.6231  132.4349  154.4561 C   0  0  1  0  0  0  0  0  0  0  0  0
  147.9690  132.7067  152.9810 C   0  0  0  0  0  0  0  0  0  0  0  0
  149.9939  133.6205  155.3929 N   0  0  0  0  0  0  0  0  0  0  0  0
  151.1482  134.1933  155.7458 C   0  0  0  0  0  0  0  0  0  0  0  0
  151.3472  135.3714  156.3382 N   0  0  0  0  0  0  0  0  0  0  0  0
  150.1663  136.0108  156.5752 C   0  0  0  0  0  0  0  0  0  0  0  0
  145.5402  132.4825  154.0120 H   0  0  0  0  0  0  0  0  0  0  0  0
  148.3518  131.7376  154.8679 H   0  0  0  0  0  0  0  0  0  0  0  0
  150.8149  141.6388  157.4697 H   0  0  0  0  0  0  0  0  0  0  0  0
  150.2126  142.1677  155.9030 H   0  0  0  0  0  0  0  0  0  0  0  0
  151.9330  141.8824  156.1260 H   0  0  0  0  0  0  0  0  0  0  0  0
  149.7002  139.7819  156.1561 H   0  0  0  0  0  0  0  0  0  0  0  0
  150.2136  137.9911  154.3980 H   0  0  0  0  0  0  0  0  0  0  0  0
  151.5638  138.3745  153.3178 H   0  0  0  0  0  0  0  0  0  0  0  0
  152.1102  137.0771  155.6241 H   0  0  0  0  0  0  0  0  0  0  0  0
  153.1321  138.4126  155.1122 H   0  0  0  0  0  0  0  0  0  0  0  0
  153.2312  138.9727  157.7720 H   0  0  0  0  0  0  0  0  0  0  0  0
  151.7065  137.5604  158.2542 H   0  0  0  0  0  0  0  0  0  0  0  0
  150.4922  138.7979  158.4403 H   0  0  0  0  0  0  0  0  0  0  0  0
  148.1349  138.3284  157.5449 H   0  0  0  0  0  0  0  0  0  0  0  0
  146.9934  133.6772  157.3035 H   0  0  0  0  0  0  0  0  0  0  0  0
  145.9019  134.4066  156.1244 H   0  0  0  0  0  0  0  0  0  0  0  0
  146.3174  131.5158  156.7955 H   0  0  0  0  0  0  0  0  0  0  0  0
  144.8175  132.2990  156.3064 H   0  0  0  0  0  0  0  0  0  0  0  0
  147.9079  129.7316  154.9915 H   0  0  0  0  0  0  0  0  0  0  0  0
  146.6370  128.5093  154.9156 H   0  0  0  0  0  0  0  0  0  0  0  0
  146.6071  129.7200  156.1863 H   0  0  0  0  0  0  0  0  0  0  0  0
  145.4929  130.7178  152.2117 H   0  0  0  0  0  0  0  0  0  0  0  0
  147.1838  130.4363  152.4929 H   0  0  0  0  0  0  0  0  0  0  0  0
  145.8387  128.4909  151.4634 H   0  0  0  0  0  0  0  0  0  0  0  0
  146.7954  128.0390  152.8595 H   0  0  0  0  0  0  0  0  0  0  0  0
  144.4477  128.9141  153.7234 H   0  0  0  0  0  0  0  0  0  0  0  0
  147.9085  131.7911  152.3925 H   0  0  0  0  0  0  0  0  0  0  0  0
  148.9796  133.0983  152.8673 H   0  0  0  0  0  0  0  0  0  0  0  0
  147.2836  133.4310  152.5398 H   0  0  0  0  0  0  0  0  0  0  0  0
  152.0398  133.6257  155.5231 H   0  0  0  0  0  0  0  0  0  0  0  0
  145.0706  130.2446  154.4880 H   0  0  0  0  0  0  0  0  0  0  0  0
  1  2  1  0  0  0  0
  1 31  1  0  0  0  0
  1 32  1  0  0  0  0
  1 33  1  0  0  0  0
  2  6  1  0  0  0  0
  2  3  1  0  0  0  0
  2 34  1  0  0  0  0
  3  4  1  0  0  0  0
  4  5  1  0  0  0  0
  4 35  1  0  0  0  0
  4 36  1  0  0  0  0
  5  6  1  0  0  0  0
  5 37  1  0  0  0  0
  5 38  1  0  0  0  0
  6  7  1  0  0  0  0
  6  8  1  0  0  0  0
  7 39  1  0  0  0  0
  8  9  1  0  0  0  0
  8 40  1  0  0  0  0
  8 41  1  0  0  0  0
  9 28  1  0  0  0  0
  9 10  1  0  0  0  0
 10 11  2  0  0  0  0
 10 42  1  0  0  0  0
 11 12  1  0  0  0  0
 12 28  2  0  0  0  0
 12 13  1  0  0  0  0
 13 14  1  0  0  0  0
 13 25  2  0  0  0  0
 14 23  1  0  0  0  0
 14 15  1  0  0  0  0
 15 16  1  0  0  0  0
 15 43  1  0  0  0  0
 15 44  1  0  0  0  0
 16 17  1  0  0  0  0
 16 45  1  0  0  0  0
 16 46  1  0  0  0  0
 17 29  1  0  0  0  0
 17 18  1  0  0  0  0
 17 23  1  0  0  0  0
 18 19  1  0  0  0  0
 18 20  1  0  0  0  0
 18 59  1  0  0  0  0
 19 47  1  0  0  0  0
 19 48  1  0  0  0  0
 19 49  1  0  0  0  0
 20 21  1  0  0  0  0
 20 50  1  0  0  0  0
 20 51  1  0  0  0  0
 21 22  1  0  0  0  0
 21 52  1  0  0  0  0
 21 53  1  0  0  0  0
 22 54  1  0  0  0  0
 23 30  1  0  0  0  0
 23 24  1  0  0  0  0
 24 55  1  0  0  0  0
 24 56  1  0  0  0  0
 24 57  1  0  0  0  0
 25 26  1  0  0  0  0
 26 27  2  0  0  0  0
 26 58  1  0  0  0  0
 27 28  1  0  0  0  0
M  CHG  1  18   1
M  END
> <s_m_source_file>
AV-unprocessed.smi

> <i_m_source_file_index>
290

> <i_lp_mmshare_version>
43012

> <i_f3d_flags>
0

> <s_epik_input>
W0NIMl0xW0NIMl1PW0NAQEhdKFtDSDNdKVtDQEBdMShbT0hdKVtDSDJdbihbY0hdbjIpYyhjMjMpbltjSF1uYzNONFtDSDJdW0NIMl1bQ0BIXShbQ0BIXTRbQ0gzXSlOKFtDSDNdKVtDSDJdW0NIMl1bT0hd

> <s_epik_cmdline>
J2VwaWtfcHl0aG9uJywgJy1waCcsICc3LjAnLCAnLXRuJywgJzgnLCAnLW1hJywgJzIwMCcsICctbWV0YWxfYmluZGluZycsICctaW1hZScsICc8aW5maWxlLm1hZT4nLCAnLW9tYWUnLCAnPG91dGZpbGUubWFlPic=

> <r_lp_tautomer_probability>
1

> <r_epik_Ionization_Penalty>
0.0036983

> <r_epik_Ionization_Penalty_Charging>
0.0032725

> <r_epik_Ionization_Penalty_Neutral>
0.000425798

> <r_epik_State_Penalty>
-0

> <r_epik_Charging_Adjusted_Penalty>
0.0032725

> <i_epik_Tot_Q>
1

> <i_epik_Tot_abs_Q>
1

> <r_epik_Metal_State_Penalty>
-0

> <b_epik_Metal_Only>
0

> <s_lp_Force_Field>
OPLS_2005

> <r_lp_Energy>
60.2599

> <b_lp_Chiralities_Consistent>
1

> <s_lp_Variant>
AV-unprocessed.smi:290-14

> <Gold.Version>
5.8.1

> <Gold.Id.Protein>
6NUR|6NUR_protein|mol2

> <Gold.PLP.Fitness>
44.5618

> <Gold.PLP.PLP>
-30.2994

> <Gold.PLP.part.hbond>
-3.9851

> <Gold.PLP.part.metal>
0.0000

> <Gold.PLP.part.buried>
-6.7045

> <Gold.PLP.part.nonpolar>
-20.2173

> <Gold.PLP.part.repulsive>
0.1244

> <Gold.PLP.ligand.clash>
0.0000

> <Gold.PLP.ligand.torsion>
0.6704

> <Gold.PLP.Chemscore.Hbond>
5.0000

> <Gold.PLP.Chemscore.CHOScore>
0.0000

> <Gold.PLP.Chemscore.Metal>
0.0000

> <Gold.Chemscore.Hbonds>
donor molecule, donor type, donor heavy atom, donor atom, acceptor molecule, acceptor atom, score
      L1  H    18    59       P1 10956  2.00
      L1  H    22    54       P1 10956  0.99
      P1  H  7989  7998       L1     3  1.00
      P1  H  7997  8008       L1     7  0.70

> <Gold.PLP.Chemscore.Internal.Correction>
0.6031

> <Gold.Rescore>
     Score         DG    S(hbond)    S(metal)    S(lipo)     H(rot)  DE(clash)    DE(int)     intcor
     15.51     -16.44       3.85        0.00      64.02       3.67       0.04       0.88       ----

> <Gold.Chemscore.Fitness>
15.5094

> <Gold.Chemscore.DG>
-16.4352

> <Gold.Chemscore.ZeroCoef>
-5.4800

> <Gold.Chemscore.Hbond>
3.8470

> <Gold.Chemscore.Metal>
0.0000

> <Gold.Chemscore.Lipo>
64.0215

> <Gold.Chemscore.Internal_Hbond>
0.0000

> <Gold.Chemscore.DEClash>
0.0424

> <Gold.Chemscore.DEInternal>
0.8834

> <Gold.Chemscore.Rot>
3.6658

> <Gold.Chemscore.Internal.Correction>
   9.000000E+99

> <Gold.Chemscore.Hbonds>
donor molecule, donor type, donor heavy atom, donor atom, acceptor molecule, acceptor atom, score
      L1  H    18    59       P1 10956  0.25
      L1  H    22    54       P1 10956  0.89
      P1  H  7989  7998       L1     3  0.84
      P1  H  7997  8008       L1     7  0.07

> <Gold.Chemscore.Hbond.Weighted>
-12.8491

> <Gold.Chemscore.Metal.Weighted>
-0.0000

> <Gold.Chemscore.Lipo.Weighted>
-7.4905

> <Gold.Chemscore.Internal_Hbond.Weighted>
0.0000

> <Gold.Chemscore.DEClash.Weighted>
0.0424

> <Gold.Chemscore.DEInternal.Weighted>
0.8834

> <Gold.Chemscore.Rot.Weighted>
9.3844

> <Gold.Chemscore.Internal.Correction.Weighted>
   9.000000E+99

> <Gold.Protein.RotatedTorsions>
[ 6907 6896 6895 6894 ] final   -1.17 input  -60.11 | X-H torsion
[ 7974 7965 7964 7962 ] final -164.91 input  175.53 | X-H torsion
[ 8008 7997 7996 7995 ] final  -49.91 input   59.86 | X-H torsion
[ 10167 10162 10161 10158 ] final  -36.41 input  -65.29 | X-H torsion
[ 10718 10713 10712 10709 ] final  -39.41 input   66.30 | X-H torsion
[ 10763 10752 10751 10750 ] final  176.32 input  -60.55 | X-H torsion
[ 11005 11000 10999 10996 ] final   -7.16 input  -57.11 | X-H torsion

> <Gold.Protein.ActiveResidues>
 VAL166  LYS551  ARG553  GLY616  TRP617  ASP618  TYR619  PRO620  LYS621  CYS622 
 ASP623  PHE694  ASN695  SER759  ASP760  ASP761  ALA762  ILE779  LEU786  VAL792 
 PHE793  MET794  SER795  GLU796  ALA797  LYS798  CYS799  TRP800  GLU811  SER814 

> <Gold.Protein.RotatedAtoms>
  151.5504  135.1067  159.9947 H   0  0  0  0  0  0  0  0  0  0  0  0  # atno 6907 bound_to 6896
  152.4494  133.7595  159.6749 H   0  0  0  0  0  0  0  0  0  0  0  0  # atno 6908 bound_to 6896
  150.8418  133.7856  159.3082 H   0  0  0  0  0  0  0  0  0  0  0  0  # atno 6909 bound_to 6896
  144.7284  140.2891  143.6223 H   0  0  0  0  0  0  0  0  0  0  0  0  # atno 7974 bound_to 7965
  154.4052  140.1285  156.4580 H   0  0  0  0  0  0  0  0  0  0  0  0  # atno 8008 bound_to 7997
  155.7301  140.3491  155.5035 H   0  0  0  0  0  0  0  0  0  0  0  0  # atno 8009 bound_to 7997
  155.9135  140.1040  157.1251 H   0  0  0  0  0  0  0  0  0  0  0  0  # atno 8010 bound_to 7997
  140.7143  143.3411  151.2356 H   0  0  0  0  0  0  0  0  0  0  0  0  # atno 10167 bound_to 10162
  156.2928  130.4230  149.8221 H   0  0  0  0  0  0  0  0  0  0  0  0  # atno 10718 bound_to 10713
  154.4795  135.2774  155.1582 H   0  0  0  0  0  0  0  0  0  0  0  0  # atno 10763 bound_to 10752
  154.3298  135.6192  153.5549 H   0  0  0  0  0  0  0  0  0  0  0  0  # atno 10764 bound_to 10752
  152.9873  135.5762  154.5192 H   0  0  0  0  0  0  0  0  0  0  0  0  # atno 10765 bound_to 10752
  140.7097  133.8919  155.8742 H   0  0  0  0  0  0  0  0  0  0  0  0  # atno 11005 bound_to 11000
  145.7873  139.1913  143.2123 LP  0  0  0  0  0  0  0  0  0  0  0  0  # atno 17320 bound_to 7965
  146.0785  140.7791  142.9653 LP  0  0  0  0  0  0  0  0  0  0  0  0  # atno 17321 bound_to 7965
  139.6918  143.9679  152.2863 LP  0  0  0  0  0  0  0  0  0  0  0  0  # atno 17342 bound_to 10162
  139.9343  144.6722  150.8331 LP  0  0  0  0  0  0  0  0  0  0  0  0  # atno 17343 bound_to 10162
  156.5628  130.8391  151.3334 LP  0  0  0  0  0  0  0  0  0  0  0  0  # atno 17370 bound_to 10713
  157.7347  130.9750  150.2043 LP  0  0  0  0  0  0  0  0  0  0  0  0  # atno 17371 bound_to 10713
  141.0094  134.1041  157.4236 LP  0  0  0  0  0  0  0  0  0  0  0  0  # atno 17394 bound_to 11000
  139.8875  135.0090  156.6562 LP  0  0  0  0  0  0  0  0  0  0  0  0  # atno 17395 bound_to 11000

$$$$
