AV-unprocessed.smi:467|AV-procd|sdf|2646|dock6
  -GOLD-   2262023 53D 1   1.00000     0.00000
 Structure written by MMmdl.
 45 47  0  0  0  0  0  0  0  0  2 V2000
  153.3118  142.4055  160.5138 C   0  0  0  0  0  0  0  0  0  0  0  0
  152.4750  142.1378  159.2752 C   0  0  0  0  0  0  0  0  0  0  0  0
  152.6108  140.8993  158.6086 C   0  0  0  0  0  0  0  0  0  0  0  0
  151.8532  140.6125  157.4520 C   0  0  0  0  0  0  0  0  0  0  0  0
  151.8290  139.4835  156.6512 N   0  0  0  0  0  0  0  0  0  0  0  0
  150.9283  139.8244  155.7346 C   0  0  0  0  0  0  0  0  0  0  0  0
  150.3611  141.0407  155.8489 N   0  0  0  0  0  0  0  0  0  0  0  0
  149.3607  141.6232  154.9718 C   0  0  0  0  0  0  0  0  0  0  0  0
  148.2659  140.6159  154.5709 C   0  0  1  0  0  0  0  0  0  0  0  0
  147.1835  141.3076  153.9759 O   0  0  0  0  0  0  0  0  0  0  0  0
  148.7925  139.5670  153.5720 C   0  0  0  0  0  0  0  0  0  0  0  0
  147.8235  138.4650  153.3422 N   0  3  0  0  0  0  0  0  0  0  0  0
  147.2128  137.9732  154.6001 C   0  0  0  0  0  0  0  0  0  0  0  0
  146.2650  136.7961  154.3141 C   0  0  0  0  0  0  0  0  0  0  0  0
  145.2711  137.1997  153.3806 O   0  0  0  0  0  0  0  0  0  0  0  0
  145.8377  137.5909  152.1364 C   0  0  0  0  0  0  0  0  0  0  0  0
  146.7701  138.7956  152.3501 C   0  0  0  0  0  0  0  0  0  0  0  0
  150.9469  141.6056  156.9774 C   0  0  0  0  0  0  0  0  0  0  0  0
  150.8007  142.8405  157.6343 C   0  0  0  0  0  0  0  0  0  0  0  0
  151.5670  143.1115  158.7873 C   0  0  0  0  0  0  0  0  0  0  0  0
  151.4053  144.4496  159.4871 C   0  0  0  0  0  0  0  0  0  0  0  0
  153.9894  141.5773  160.7234 H   0  0  0  0  0  0  0  0  0  0  0  0
  152.6705  142.5426  161.3849 H   0  0  0  0  0  0  0  0  0  0  0  0
  153.9149  143.3042  160.3820 H   0  0  0  0  0  0  0  0  0  0  0  0
  153.3017  140.1570  158.9805 H   0  0  0  0  0  0  0  0  0  0  0  0
  150.6632  139.1500  154.9334 H   0  0  0  0  0  0  0  0  0  0  0  0
  148.9206  142.4894  155.4675 H   0  0  0  0  0  0  0  0  0  0  0  0
  149.8681  142.0004  154.0827 H   0  0  0  0  0  0  0  0  0  0  0  0
  147.8994  140.1279  155.4736 H   0  0  0  0  0  0  0  0  0  0  0  0
  146.8522  140.7922  153.2559 H   0  0  0  0  0  0  0  0  0  0  0  0
  149.0141  140.0678  152.6280 H   0  0  0  0  0  0  0  0  0  0  0  0
  149.7379  139.1459  153.9184 H   0  0  0  0  0  0  0  0  0  0  0  0
  147.9936  137.6532  155.2912 H   0  0  0  0  0  0  0  0  0  0  0  0
  146.6669  138.7846  155.0844 H   0  0  0  0  0  0  0  0  0  0  0  0
  146.8151  135.9358  153.9293 H   0  0  0  0  0  0  0  0  0  0  0  0
  145.7763  136.4756  155.2343 H   0  0  0  0  0  0  0  0  0  0  0  0
  146.3769  136.7549  151.6880 H   0  0  0  0  0  0  0  0  0  0  0  0
  145.0332  137.8554  151.4497 H   0  0  0  0  0  0  0  0  0  0  0  0
  146.1922  139.6529  152.6990 H   0  0  0  0  0  0  0  0  0  0  0  0
  147.2158  139.0788  151.3972 H   0  0  0  0  0  0  0  0  0  0  0  0
  150.1060  143.5745  157.2540 H   0  0  0  0  0  0  0  0  0  0  0  0
  150.6520  145.0670  158.9969 H   0  0  0  0  0  0  0  0  0  0  0  0
  152.3466  144.9996  159.4784 H   0  0  0  0  0  0  0  0  0  0  0  0
  151.0972  144.3056  160.5229 H   0  0  0  0  0  0  0  0  0  0  0  0
  148.3554  137.6929  152.9653 H   0  0  0  0  0  0  0  0  0  0  0  0
  1  2  1  0  0  0  0
  1 22  1  0  0  0  0
  1 23  1  0  0  0  0
  1 24  1  0  0  0  0
  2 20  1  0  0  0  0
  2  3  2  0  0  0  0
  3  4  1  0  0  0  0
  3 25  1  0  0  0  0
  4 18  2  0  0  0  0
  4  5  1  0  0  0  0
  5  6  2  0  0  0  0
  6  7  1  0  0  0  0
  6 26  1  0  0  0  0
  7  8  1  0  0  0  0
  7 18  1  0  0  0  0
  8  9  1  0  0  0  0
  8 27  1  0  0  0  0
  8 28  1  0  0  0  0
  9 10  1  0  0  0  0
  9 11  1  0  0  0  0
  9 29  1  0  0  0  0
 10 30  1  0  0  0  0
 11 12  1  0  0  0  0
 11 31  1  0  0  0  0
 11 32  1  0  0  0  0
 12 17  1  0  0  0  0
 12 13  1  0  0  0  0
 12 45  1  0  0  0  0
 13 14  1  0  0  0  0
 13 33  1  0  0  0  0
 13 34  1  0  0  0  0
 14 15  1  0  0  0  0
 14 35  1  0  0  0  0
 14 36  1  0  0  0  0
 15 16  1  0  0  0  0
 16 17  1  0  0  0  0
 16 37  1  0  0  0  0
 16 38  1  0  0  0  0
 17 39  1  0  0  0  0
 17 40  1  0  0  0  0
 18 19  1  0  0  0  0
 19 20  2  0  0  0  0
 19 41  1  0  0  0  0
 20 21  1  0  0  0  0
 21 42  1  0  0  0  0
 21 43  1  0  0  0  0
 21 44  1  0  0  0  0
M  CHG  1  12   1
M  END
> <s_m_source_file>
AV-unprocessed.smi

> <i_m_source_file_index>
467

> <i_lp_mmshare_version>
43012

> <i_f3d_flags>
0

> <s_epik_input>
W0NIM11jKFtjSF0xKWMoW0NIM10pW2NIXWMoYzEyKW4oW2NIXW4yKVtDSDJdW0NASF0oW09IXSlbQ0gyXU4zW0NIMl1bQ0gyXU9bQ0gyXVtDSDJdMw==

> <s_epik_cmdline>
J2VwaWtfcHl0aG9uJywgJy1waCcsICc3LjAnLCAnLXRuJywgJzgnLCAnLW1hJywgJzIwMCcsICctbWV0YWxfYmluZGluZycsICctaW1hZScsICc8aW5maWxlLm1hZT4nLCAnLW9tYWUnLCAnPG91dGZpbGUubWFlPic=

> <r_epik_Ionization_Penalty>
0.695168

> <r_epik_Ionization_Penalty_Charging>
0.608065

> <r_epik_Ionization_Penalty_Neutral>
0.0871028

> <r_epik_State_Penalty>
0.731876

> <r_epik_Charging_Adjusted_Penalty>
1.33994

> <i_epik_Tot_Q>
1

> <i_epik_Tot_abs_Q>
1

> <r_epik_Metal_State_Penalty>
0.652189

> <b_epik_Metal_Only>
0

> <s_lp_Force_Field>
OPLS_2005

> <r_lp_Energy>
21.2169

> <b_lp_Chiralities_Consistent>
1

> <s_lp_Variant>
AV-unprocessed.smi:467-4

> <Gold.Version>
5.8.1

> <Gold.Id.Protein>
6NUR|6NUR_protein|mol2

> <Gold.PLP.Fitness>
44.9622

> <Gold.PLP.PLP>
-39.9882

> <Gold.PLP.part.hbond>
-1.5939

> <Gold.PLP.part.metal>
0.0000

> <Gold.PLP.part.buried>
1.7726

> <Gold.PLP.part.nonpolar>
-40.2494

> <Gold.PLP.part.repulsive>
0.2028

> <Gold.PLP.ligand.clash>
0.0000

> <Gold.PLP.ligand.torsion>
0.5303

> <Gold.PLP.Chemscore.Hbond>
2.0000

> <Gold.PLP.Chemscore.CHOScore>
0.0000

> <Gold.PLP.Chemscore.Metal>
0.0000

> <Gold.Chemscore.Hbonds>
donor molecule, donor type, donor heavy atom, donor atom, acceptor molecule, acceptor atom, score
      L1  H    12    45       P1  7948  2.00

> <Gold.PLP.Chemscore.Internal.Correction>
0.0346

> <Gold.Rescore>
     Score         DG    S(hbond)    S(metal)    S(lipo)     H(rot)  DE(clash)    DE(int)     intcor
     15.23     -17.63       0.98        0.00     121.90       2.10       1.58       0.82       ----

> <Gold.Chemscore.Fitness>
15.2289

> <Gold.Chemscore.DG>
-17.6291

> <Gold.Chemscore.ZeroCoef>
-5.4800

> <Gold.Chemscore.Hbond>
0.9779

> <Gold.Chemscore.Metal>
0.0000

> <Gold.Chemscore.Lipo>
121.8960

> <Gold.Chemscore.Internal_Hbond>
0.0000

> <Gold.Chemscore.DEClash>
1.5820

> <Gold.Chemscore.DEInternal>
0.8183

> <Gold.Chemscore.Rot>
2.1011

> <Gold.Chemscore.Internal.Correction>
   9.000000E+99

> <Gold.Chemscore.Hbonds>
donor molecule, donor type, donor heavy atom, donor atom, acceptor molecule, acceptor atom, score
      L1  H    12    45       P1  7948  1.00

> <Gold.Chemscore.Hbond.Weighted>
-3.2662

> <Gold.Chemscore.Metal.Weighted>
-0.0000

> <Gold.Chemscore.Lipo.Weighted>
-14.2618

> <Gold.Chemscore.Internal_Hbond.Weighted>
0.0000

> <Gold.Chemscore.DEClash.Weighted>
1.5820

> <Gold.Chemscore.DEInternal.Weighted>
0.8183

> <Gold.Chemscore.Rot.Weighted>
5.3789

> <Gold.Chemscore.Internal.Correction.Weighted>
   9.000000E+99

> <Gold.Protein.RotatedTorsions>
[ 6907 6896 6895 6894 ] final  -86.12 input  -60.11 | X-H torsion
[ 7974 7965 7964 7962 ] final  167.32 input  175.53 | X-H torsion
[ 8008 7997 7996 7995 ] final  -54.89 input   59.86 | X-H torsion
[ 10167 10162 10161 10158 ] final   85.94 input  -65.29 | X-H torsion
[ 10718 10713 10712 10709 ] final  108.83 input   66.30 | X-H torsion
[ 10763 10752 10751 10750 ] final -171.67 input  -60.55 | X-H torsion
[ 11005 11000 10999 10996 ] final   53.77 input  -57.11 | X-H torsion

> <Gold.Protein.ActiveResidues>
 VAL166  LYS551  ARG553  GLY616  TRP617  ASP618  TYR619  PRO620  LYS621  CYS622 
 ASP623  PHE694  ASN695  SER759  ASP760  ASP761  ALA762  ILE779  LEU786  VAL792 
 PHE793  MET794  SER795  GLU796  ALA797  LYS798  CYS799  TRP800  GLU811  SER814 

> <Gold.Protein.RotatedAtoms>
  150.6868  134.3100  159.4742 H   0  0  0  0  0  0  0  0  0  0  0  0  # atno 6907 bound_to 6896
  152.0987  134.9354  160.0579 H   0  0  0  0  0  0  0  0  0  0  0  0  # atno 6908 bound_to 6896
  152.0642  133.4041  159.4468 H   0  0  0  0  0  0  0  0  0  0  0  0  # atno 6909 bound_to 6896
  144.7429  139.8744  143.6391 H   0  0  0  0  0  0  0  0  0  0  0  0  # atno 7974 bound_to 7965
  154.4177  140.1166  156.5388 H   0  0  0  0  0  0  0  0  0  0  0  0  # atno 8008 bound_to 7997
  155.6529  140.3496  155.4735 H   0  0  0  0  0  0  0  0  0  0  0  0  # atno 8009 bound_to 7997
  155.9777  140.1154  157.0744 H   0  0  0  0  0  0  0  0  0  0  0  0  # atno 8010 bound_to 7997
  139.8926  144.6376  150.8722 H   0  0  0  0  0  0  0  0  0  0  0  0  # atno 10167 bound_to 10162
  157.6569  131.0901  150.6363 H   0  0  0  0  0  0  0  0  0  0  0  0  # atno 10718 bound_to 10713
  154.6279  135.2883  155.0251 H   0  0  0  0  0  0  0  0  0  0  0  0  # atno 10763 bound_to 10752
  154.1422  135.6517  153.4948 H   0  0  0  0  0  0  0  0  0  0  0  0  # atno 10764 bound_to 10752
  153.0266  135.5335  154.7094 H   0  0  0  0  0  0  0  0  0  0  0  0  # atno 10765 bound_to 10752
  140.0740  134.5430  155.9016 H   0  0  0  0  0  0  0  0  0  0  0  0  # atno 11005 bound_to 11000
  146.1257  139.4282  143.0200 LP  0  0  0  0  0  0  0  0  0  0  0  0  # atno 17320 bound_to 7965
  145.7239  141.0066  143.1388 LP  0  0  0  0  0  0  0  0  0  0  0  0  # atno 17321 bound_to 7965
  140.7723  143.3498  151.2037 LP  0  0  0  0  0  0  0  0  0  0  0  0  # atno 17342 bound_to 10162
  139.7096  143.9399  152.2941 LP  0  0  0  0  0  0  0  0  0  0  0  0  # atno 17343 bound_to 10162
  156.6669  130.4528  149.5669 LP  0  0  0  0  0  0  0  0  0  0  0  0  # atno 17370 bound_to 10713
  156.2026  130.6629  151.1183 LP  0  0  0  0  0  0  0  0  0  0  0  0  # atno 17371 bound_to 10713
  141.2023  133.6624  156.5996 LP  0  0  0  0  0  0  0  0  0  0  0  0  # atno 17394 bound_to 11000
  140.3584  134.7708  157.4517 LP  0  0  0  0  0  0  0  0  0  0  0  0  # atno 17395 bound_to 11000

$$$$
