AV-unprocessed.smi:1005|AV-procd|sdf|4374|dock4
  -GOLD-   22720 2283D 1   1.00000     0.00000
 Structure written by MMmdl.
 57 59  0  0  0  0  0  0  0  0  3 V2000
  152.9697  143.3139  161.2675 C   0  0  0  0  0  0  0  0  0  0  0  0
  152.3219  142.7971  159.9940 C   0  0  0  0  0  0  0  0  0  0  0  0
  152.1624  141.4014  159.8369 C   0  0  0  0  0  0  0  0  0  0  0  0
  151.5655  140.9596  158.6621 C   0  0  0  0  0  0  0  0  0  0  0  0
  151.2676  139.6708  158.2136 N   0  3  0  0  0  0  0  0  0  0  0  0
  150.6768  139.7410  156.9882 C   0  0  0  0  0  0  0  0  0  0  0  0
  150.5944  141.0561  156.6486 N   0  0  0  0  0  0  0  0  0  0  0  0
  150.0420  141.6897  155.4445 C   0  0  0  0  0  0  0  0  0  0  0  0
  149.3661  140.6789  154.4985 C   0  0  2  0  0  0  0  0  0  0  0  0
  149.2144  141.2748  153.2249 O   0  0  0  0  0  0  0  0  0  0  0  0
  147.9765  140.2593  155.0175 C   0  0  0  0  0  0  0  0  0  0  0  0
  147.0915  141.3567  155.4141 N   0  0  0  0  0  0  0  0  0  0  0  0
  145.6774  141.0409  155.2217 C   0  0  0  0  0  0  0  0  0  0  0  0
  144.7664  142.1897  155.6839 C   0  0  0  0  0  0  0  0  0  0  0  0
  145.0514  142.5073  157.0421 O   0  0  0  0  0  0  0  0  0  0  0  0
  146.4070  142.8922  157.2569 C   0  0  1  0  0  0  0  0  0  0  0  0
  146.5628  143.2459  158.7516 C   0  0  0  0  0  0  0  0  0  0  0  0
  146.2724  144.6701  159.0610 N   0  3  0  0  0  0  0  0  0  0  0  0
  146.6615  145.0760  160.4305 C   0  0  0  0  0  0  0  0  0  0  0  0
  144.8641  145.0203  158.7701 C   0  0  0  0  0  0  0  0  0  0  0  0
  147.3055  141.7160  156.8118 C   0  0  0  0  0  0  0  0  0  0  0  0
  151.1352  141.8528  157.6622 C   0  0  0  0  0  0  0  0  0  0  0  0
  151.2841  143.2304  157.8003 C   0  0  0  0  0  0  0  0  0  0  0  0
  151.8872  143.6999  158.9889 C   0  0  0  0  0  0  0  0  0  0  0  0
  152.0616  145.1982  159.1691 C   0  0  0  0  0  0  0  0  0  0  0  0
  153.2692  142.4957  161.9232 H   0  0  0  0  0  0  0  0  0  0  0  0
  152.2750  143.9463  161.8204 H   0  0  0  0  0  0  0  0  0  0  0  0
  153.8610  143.8976  161.0359 H   0  0  0  0  0  0  0  0  0  0  0  0
  152.4894  140.7084  160.5984 H   0  0  0  0  0  0  0  0  0  0  0  0
  150.3314  138.9060  156.3953 H   0  0  0  0  0  0  0  0  0  0  0  0
  149.3403  142.4644  155.7560 H   0  0  0  0  0  0  0  0  0  0  0  0
  150.8609  142.2012  154.9362 H   0  0  0  0  0  0  0  0  0  0  0  0
  150.0178  139.8123  154.3975 H   0  0  0  0  0  0  0  0  0  0  0  0
  149.0868  140.5880  152.5878 H   0  0  0  0  0  0  0  0  0  0  0  0
  147.4767  139.6606  154.2544 H   0  0  0  0  0  0  0  0  0  0  0  0
  148.1233  139.5895  155.8665 H   0  0  0  0  0  0  0  0  0  0  0  0
  145.4678  140.8392  154.1723 H   0  0  0  0  0  0  0  0  0  0  0  0
  145.4216  140.1345  155.7727 H   0  0  0  0  0  0  0  0  0  0  0  0
  144.9088  143.0718  155.0580 H   0  0  0  0  0  0  0  0  0  0  0  0
  143.7187  141.9013  155.5978 H   0  0  0  0  0  0  0  0  0  0  0  0
  146.6066  143.7757  156.6471 H   0  0  0  0  0  0  0  0  0  0  0  0
  145.8457  142.6461  159.3145 H   0  0  0  0  0  0  0  0  0  0  0  0
  147.5477  142.9614  159.1260 H   0  0  0  0  0  0  0  0  0  0  0  0
  146.1824  144.4441  161.1794 H   0  0  0  0  0  0  0  0  0  0  0  0
  146.3728  146.1098  160.6234 H   0  0  0  0  0  0  0  0  0  0  0  0
  147.7411  145.0197  160.5640 H   0  0  0  0  0  0  0  0  0  0  0  0
  144.1819  144.4541  159.4057 H   0  0  0  0  0  0  0  0  0  0  0  0
  144.6178  144.8081  157.7291 H   0  0  0  0  0  0  0  0  0  0  0  0
  144.6856  146.0830  158.9380 H   0  0  0  0  0  0  0  0  0  0  0  0
  147.1075  140.8504  157.4462 H   0  0  0  0  0  0  0  0  0  0  0  0
  148.3535  141.9700  156.9632 H   0  0  0  0  0  0  0  0  0  0  0  0
  150.9523  143.9162  157.0347 H   0  0  0  0  0  0  0  0  0  0  0  0
  151.6381  145.7534  158.3315 H   0  0  0  0  0  0  0  0  0  0  0  0
  153.1189  145.4539  159.2382 H   0  0  0  0  0  0  0  0  0  0  0  0
  151.5625  145.5370  160.0771 H   0  0  0  0  0  0  0  0  0  0  0  0
  146.8319  145.2226  158.4269 H   0  0  0  0  0  0  0  0  0  0  0  0
  151.4496  138.8055  158.7057 H   0  0  0  0  0  0  0  0  0  0  0  0
  1  2  1  0  0  0  0
  1 26  1  0  0  0  0
  1 27  1  0  0  0  0
  1 28  1  0  0  0  0
  2 24  1  0  0  0  0
  2  3  2  0  0  0  0
  3  4  1  0  0  0  0
  3 29  1  0  0  0  0
  4 22  2  0  0  0  0
  4  5  1  0  0  0  0
  5  6  2  0  0  0  0
  5 57  1  0  0  0  0
  6  7  1  0  0  0  0
  6 30  1  0  0  0  0
  7  8  1  0  0  0  0
  7 22  1  0  0  0  0
  8  9  1  0  0  0  0
  8 31  1  0  0  0  0
  8 32  1  0  0  0  0
  9 10  1  0  0  0  0
  9 11  1  0  0  0  0
  9 33  1  0  0  0  0
 10 34  1  0  0  0  0
 11 12  1  0  0  0  0
 11 35  1  0  0  0  0
 11 36  1  0  0  0  0
 12 21  1  0  0  0  0
 12 13  1  0  0  0  0
 13 14  1  0  0  0  0
 13 37  1  0  0  0  0
 13 38  1  0  0  0  0
 14 15  1  0  0  0  0
 14 39  1  0  0  0  0
 14 40  1  0  0  0  0
 15 16  1  0  0  0  0
 16 17  1  0  0  0  0
 16 21  1  0  0  0  0
 16 41  1  0  0  0  0
 17 18  1  0  0  0  0
 17 42  1  0  0  0  0
 17 43  1  0  0  0  0
 18 19  1  0  0  0  0
 18 20  1  0  0  0  0
 18 56  1  0  0  0  0
 19 44  1  0  0  0  0
 19 45  1  0  0  0  0
 19 46  1  0  0  0  0
 20 47  1  0  0  0  0
 20 48  1  0  0  0  0
 20 49  1  0  0  0  0
 21 50  1  0  0  0  0
 21 51  1  0  0  0  0
 22 23  1  0  0  0  0
 23 24  2  0  0  0  0
 23 52  1  0  0  0  0
 24 25  1  0  0  0  0
 25 53  1  0  0  0  0
 25 54  1  0  0  0  0
 25 55  1  0  0  0  0
M  CHG  1   5   1
M  CHG  1  18   1
M  END
> <s_m_source_file>
AV-unprocessed.smi

> <i_m_source_file_index>
1005

> <i_lp_mmshare_version>
43012

> <i_f3d_flags>
0

> <s_epik_input>
W0NIM11jKFtjSF0xKWMoW0NIM10pW2NIXWMoYzEyKW4oW2NIXW4yKVtDSDJdW0NASF0oW09IXSlbQ0gyXU4zW0NIMl1bQ0gyXU9bQ0BIXShbQ0gyXTMpW0NIMl1OKFtDSDNdKVtDSDNd

> <s_epik_cmdline>
J2VwaWtfcHl0aG9uJywgJy1waCcsICc3LjAnLCAnLXRuJywgJzgnLCAnLW1hJywgJzIwMCcsICctbWV0YWxfYmluZGluZycsICctaW1hZScsICc8aW5maWxlLm1hZT4nLCAnLW9tYWUnLCAnPG91dGZpbGUubWFlPic=

> <r_epik_Ionization_Penalty>
1.3281

> <r_epik_Ionization_Penalty_Charging>
1.21988

> <r_epik_Ionization_Penalty_Neutral>
0.10822

> <r_epik_State_Penalty>
1.32886

> <r_epik_Charging_Adjusted_Penalty>
2.54875

> <i_epik_Tot_Q>
2

> <i_epik_Tot_abs_Q>
2

> <r_epik_Metal_State_Penalty>
5.33912

> <b_epik_Metal_Only>
0

> <s_lp_Force_Field>
OPLS_2005

> <r_lp_Energy>
44.7977

> <b_lp_Chiralities_Consistent>
1

> <s_lp_Variant>
AV-unprocessed.smi:1005-13

> <Gold.Version>
5.8.1

> <Gold.Id.Protein>
6NUR|6NUR_protein|mol2

> <Gold.PLP.Fitness>
55.7044

> <Gold.PLP.PLP>
-45.9891

> <Gold.PLP.part.hbond>
-3.6118

> <Gold.PLP.part.metal>
0.0000

> <Gold.PLP.part.buried>
-6.0766

> <Gold.PLP.part.nonpolar>
-34.6616

> <Gold.PLP.part.repulsive>
0.2338

> <Gold.PLP.ligand.clash>
0.0000

> <Gold.PLP.ligand.torsion>
0.9597

> <Gold.PLP.Chemscore.Hbond>
3.8640

> <Gold.PLP.Chemscore.CHOScore>
0.0000

> <Gold.PLP.Chemscore.Metal>
0.0000

> <Gold.Chemscore.Hbonds>
donor molecule, donor type, donor heavy atom, donor atom, acceptor molecule, acceptor atom, score
      L1  H    10    34       P1  7957  0.85
      L1  H    18    56       P1  8029  2.00
      P1  H  8011  8017       L1    10  1.00

> <Gold.PLP.Chemscore.Internal.Correction>
0.0427

> <Gold.Rescore>
     Score         DG    S(hbond)    S(metal)    S(lipo)     H(rot)  DE(clash)    DE(int)     intcor
     19.51     -20.77       2.34        0.00     118.40       2.49       0.13       1.12       ----

> <Gold.Chemscore.Fitness>
19.5125

> <Gold.Chemscore.DG>
-20.7658

> <Gold.Chemscore.ZeroCoef>
-5.4800

> <Gold.Chemscore.Hbond>
2.3373

> <Gold.Chemscore.Metal>
0.0000

> <Gold.Chemscore.Lipo>
118.4005

> <Gold.Chemscore.Internal_Hbond>
0.0000

> <Gold.Chemscore.DEClash>
0.1344

> <Gold.Chemscore.DEInternal>
1.1189

> <Gold.Chemscore.Rot>
2.4897

> <Gold.Chemscore.Internal.Correction>
   9.000000E+99

> <Gold.Chemscore.Hbonds>
donor molecule, donor type, donor heavy atom, donor atom, acceptor molecule, acceptor atom, score
      L1  H    10    34       P1  7957  0.82
      L1  H    18    56       P1  8029  1.00
      P1  H  8011  8017       L1    10  0.28

> <Gold.Chemscore.Hbond.Weighted>
-7.8066

> <Gold.Chemscore.Metal.Weighted>
-0.0000

> <Gold.Chemscore.Lipo.Weighted>
-13.8529

> <Gold.Chemscore.Internal_Hbond.Weighted>
0.0000

> <Gold.Chemscore.DEClash.Weighted>
0.1344

> <Gold.Chemscore.DEInternal.Weighted>
1.1189

> <Gold.Chemscore.Rot.Weighted>
6.3737

> <Gold.Chemscore.Internal.Correction.Weighted>
   9.000000E+99

> <Gold.Protein.RotatedTorsions>
[ 6907 6896 6895 6894 ] final  122.18 input  -60.11 | X-H torsion
[ 7974 7965 7964 7962 ] final  140.23 input  175.53 | X-H torsion
[ 8008 7997 7996 7995 ] final  -98.20 input   59.86 | X-H torsion
[ 10167 10162 10161 10158 ] final  103.36 input  -65.29 | X-H torsion
[ 10718 10713 10712 10709 ] final   85.97 input   66.30 | X-H torsion
[ 10763 10752 10751 10750 ] final   41.73 input  -60.55 | X-H torsion
[ 11005 11000 10999 10996 ] final -117.30 input  -57.11 | X-H torsion

> <Gold.Protein.ActiveResidues>
 VAL166  LYS551  ARG553  GLY616  TRP617  ASP618  TYR619  PRO620  LYS621  CYS622 
 ASP623  PHE694  ASN695  SER759  ASP760  ASP761  ALA762  ILE779  LEU786  VAL792 
 PHE793  MET794  SER795  GLU796  ALA797  LYS798  CYS799  TRP800  GLU811  SER814 

> <Gold.Protein.RotatedAtoms>
  152.4263  133.7201  159.6527 H   0  0  0  0  0  0  0  0  0  0  0  0  # atno 6907 bound_to 6896
  150.8140  133.8360  159.3175 H   0  0  0  0  0  0  0  0  0  0  0  0  # atno 6908 bound_to 6896
  151.6062  135.1046  160.0122 H   0  0  0  0  0  0  0  0  0  0  0  0  # atno 6909 bound_to 6896
  144.9206  139.5173  143.5665 H   0  0  0  0  0  0  0  0  0  0  0  0  # atno 7974 bound_to 7965
  154.7980  140.0457  157.1251 H   0  0  0  0  0  0  0  0  0  0  0  0  # atno 8008 bound_to 7997
  154.9512  140.3065  155.5054 H   0  0  0  0  0  0  0  0  0  0  0  0  # atno 8009 bound_to 7997
  156.2958  140.2287  156.4590 H   0  0  0  0  0  0  0  0  0  0  0  0  # atno 8010 bound_to 7997
  139.7269  144.7045  151.0783 H   0  0  0  0  0  0  0  0  0  0  0  0  # atno 10167 bound_to 10162
  157.6922  131.0196  150.2903 H   0  0  0  0  0  0  0  0  0  0  0  0  # atno 10718 bound_to 10713
  152.9901  135.6153  154.2835 H   0  0  0  0  0  0  0  0  0  0  0  0  # atno 10763 bound_to 10752
  154.2563  135.2783  155.2798 H   0  0  0  0  0  0  0  0  0  0  0  0  # atno 10764 bound_to 10752
  154.5244  135.5805  153.6765 H   0  0  0  0  0  0  0  0  0  0  0  0  # atno 10765 bound_to 10752
  141.0364  133.9903  157.3064 H   0  0  0  0  0  0  0  0  0  0  0  0  # atno 11005 bound_to 11000
  146.3202  139.8082  142.8951 LP  0  0  0  0  0  0  0  0  0  0  0  0  # atno 17320 bound_to 7965
  145.3303  141.0265  143.3450 LP  0  0  0  0  0  0  0  0  0  0  0  0  # atno 17321 bound_to 7965
  140.7764  143.5093  150.9673 LP  0  0  0  0  0  0  0  0  0  0  0  0  # atno 17342 bound_to 10162
  139.8780  143.7107  152.3160 LP  0  0  0  0  0  0  0  0  0  0  0  0  # atno 17343 bound_to 10162
  156.3435  130.3819  149.7389 LP  0  0  0  0  0  0  0  0  0  0  0  0  # atno 17370 bound_to 10713
  156.4890  130.8076  151.3087 LP  0  0  0  0  0  0  0  0  0  0  0  0  # atno 17371 bound_to 10713
  139.9244  135.0201  156.8180 LP  0  0  0  0  0  0  0  0  0  0  0  0  # atno 17394 bound_to 11000
  140.6314  133.9902  155.7664 LP  0  0  0  0  0  0  0  0  0  0  0  0  # atno 17395 bound_to 11000

$$$$
