AV-unprocessed.smi:137|AV-procd|sdf|1176|dock1
  -GOLD-   2262018323D 1   1.00000     0.00000
 Structure written by MMmdl.
 51 54  0  0  0  0  0  0  0  0  1 V2000
  150.9965  145.0533  159.1950 C   0  0  0  0  0  0  0  0  0  0  0  0
  151.5544  143.7061  159.6786 C   0  0  1  0  0  0  0  0  0  0  0  0
  152.4225  143.0731  158.5671 C   0  0  0  0  0  0  0  0  0  0  0  0
  152.5790  141.6280  158.7311 N   0  0  0  0  0  0  0  0  0  0  0  0
  151.8978  140.8001  157.8859 C   0  0  0  0  0  0  0  0  0  0  0  0
  152.1215  139.4598  157.9649 N   0  0  0  0  0  0  0  0  0  0  0  0
  151.4885  138.6085  157.1543 C   0  0  0  0  0  0  0  0  0  0  0  0
  150.5929  138.8740  156.2044 N   0  0  0  0  0  0  0  0  0  0  0  0
  150.3471  140.2118  156.1195 C   0  0  0  0  0  0  0  0  0  0  0  0
  150.9520  141.2359  156.9068 C   0  0  0  0  0  0  0  0  0  0  0  0
  150.4476  142.4724  156.5168 N   0  0  0  0  0  0  0  0  0  0  0  0
  149.6122  142.1984  155.5536 C   0  0  0  0  0  0  0  0  0  0  0  0
  149.4673  140.8605  155.2704 N   0  0  0  0  0  0  0  0  0  0  0  0
  148.6494  140.2831  154.2441 C   0  0  0  0  0  0  0  0  0  0  0  0
  147.1240  140.2488  154.3670 C   0  0  0  0  0  0  0  0  0  0  0  0
  147.0997  138.9163  153.5833 C   0  0  0  0  0  0  0  0  0  0  0  0
  146.1251  137.8519  154.1136 C   0  0  0  0  0  0  0  0  0  0  0  0
  144.8562  138.4101  154.3889 O   0  0  0  0  0  0  0  0  0  0  0  0
  146.9200  139.0517  152.0576 C   0  0  0  0  0  0  0  0  0  0  0  0
  147.1019  137.8116  151.4049 O   0  0  0  0  0  0  0  0  0  0  0  0
  148.5606  138.7660  154.0613 C   0  0  0  0  0  0  0  0  0  0  0  0
  153.7467  141.0909  159.4383 C   0  0  0  0  0  0  0  0  0  0  0  0
  154.2176  141.9243  160.6412 C   0  0  0  0  0  0  0  0  0  0  0  0
  152.7784  142.2746  161.7596 S   0  0  1  0  0  0  0  0  0  0  0  0
  153.3520  142.5649  163.1476 O   0  0  0  0  0  0  0  0  0  0  0  0
  152.2957  143.9080  161.0167 C   0  0  0  0  0  0  0  0  0  0  0  0
  151.7985  145.7624  158.9871 H   0  0  0  0  0  0  0  0  0  0  0  0
  150.3410  145.5007  159.9427 H   0  0  0  0  0  0  0  0  0  0  0  0
  150.4127  144.9336  158.2819 H   0  0  0  0  0  0  0  0  0  0  0  0
  150.6973  143.0585  159.8657 H   0  0  0  0  0  0  0  0  0  0  0  0
  151.9941  143.2830  157.5868 H   0  0  0  0  0  0  0  0  0  0  0  0
  153.4031  143.5486  158.5438 H   0  0  0  0  0  0  0  0  0  0  0  0
  151.7342  137.5652  157.2869 H   0  0  0  0  0  0  0  0  0  0  0  0
  149.0706  142.9708  155.0271 H   0  0  0  0  0  0  0  0  0  0  0  0
  148.9502  140.7673  153.3135 H   0  0  0  0  0  0  0  0  0  0  0  0
  146.7914  140.1398  155.4012 H   0  0  0  0  0  0  0  0  0  0  0  0
  146.6151  141.0822  153.8817 H   0  0  0  0  0  0  0  0  0  0  0  0
  145.9853  137.0566  153.3810 H   0  0  0  0  0  0  0  0  0  0  0  0
  146.5054  137.3717  155.0154 H   0  0  0  0  0  0  0  0  0  0  0  0
  144.5922  138.9357  153.6491 H   0  0  0  0  0  0  0  0  0  0  0  0
  145.9234  139.4156  151.8077 H   0  0  0  0  0  0  0  0  0  0  0  0
  147.6180  139.7751  151.6358 H   0  0  0  0  0  0  0  0  0  0  0  0
  147.7469  137.3133  151.8830 H   0  0  0  0  0  0  0  0  0  0  0  0
  149.2464  138.3590  153.3177 H   0  0  0  0  0  0  0  0  0  0  0  0
  148.6463  138.2268  155.0067 H   0  0  0  0  0  0  0  0  0  0  0  0
  153.5041  140.0920  159.8042 H   0  0  0  0  0  0  0  0  0  0  0  0
  154.5698  140.9752  158.7322 H   0  0  0  0  0  0  0  0  0  0  0  0
  154.9590  141.3526  161.1991 H   0  0  0  0  0  0  0  0  0  0  0  0
  154.7027  142.8518  160.3378 H   0  0  0  0  0  0  0  0  0  0  0  0
  153.1714  144.5478  160.9053 H   0  0  0  0  0  0  0  0  0  0  0  0
  151.6325  144.4014  161.7276 H   0  0  0  0  0  0  0  0  0  0  0  0
  1  2  1  0  0  0  0
  1 27  1  0  0  0  0
  1 28  1  0  0  0  0
  1 29  1  0  0  0  0
  2 26  1  0  0  0  0
  2  3  1  0  0  0  0
  2 30  1  0  0  0  0
  3  4  1  0  0  0  0
  3 31  1  0  0  0  0
  3 32  1  0  0  0  0
  4  5  1  0  0  0  0
  4 22  1  0  0  0  0
  5 10  1  0  0  0  0
  5  6  2  0  0  0  0
  6  7  1  0  0  0  0
  7  8  2  0  0  0  0
  7 33  1  0  0  0  0
  8  9  1  0  0  0  0
  9 13  1  0  0  0  0
  9 10  2  0  0  0  0
 10 11  1  0  0  0  0
 11 12  2  0  0  0  0
 12 13  1  0  0  0  0
 12 34  1  0  0  0  0
 13 14  1  0  0  0  0
 14 21  1  0  0  0  0
 14 15  1  0  0  0  0
 14 35  1  0  0  0  0
 15 16  1  0  0  0  0
 15 36  1  0  0  0  0
 15 37  1  0  0  0  0
 16 17  1  0  0  0  0
 16 19  1  0  0  0  0
 16 21  1  0  0  0  0
 17 18  1  0  0  0  0
 17 38  1  0  0  0  0
 17 39  1  0  0  0  0
 18 40  1  0  0  0  0
 19 20  1  0  0  0  0
 19 41  1  0  0  0  0
 19 42  1  0  0  0  0
 20 43  1  0  0  0  0
 21 44  1  0  0  0  0
 21 45  1  0  0  0  0
 22 23  1  0  0  0  0
 22 46  1  0  0  0  0
 22 47  1  0  0  0  0
 23 24  1  0  0  0  0
 23 48  1  0  0  0  0
 23 49  1  0  0  0  0
 24 25  2  0  0  0  0
 24 26  1  0  0  0  0
 26 50  1  0  0  0  0
 26 51  1  0  0  0  0
M  END
> <s_m_source_file>
AV-unprocessed.smi

> <i_m_source_file_index>
137

> <i_lp_mmshare_version>
43012

> <i_f3d_flags>
0

> <s_epik_input>
Tz1bU0BAXShbQ0gyXTEpW0NIMl1bQ0gyXU4oW0NIMl1bQ0BIXTFbQ0gzXSljKG5bY0hdbjIpYyhjMjMpbltjSF1uM1tDSF0oW0NIMl00KVtDSDJdQzQoW0NIMl1bT0hdKVtDSDJdW09IXQ==

> <s_epik_cmdline>
J2VwaWtfcHl0aG9uJywgJy1waCcsICc3LjAnLCAnLXRuJywgJzgnLCAnLW1hJywgJzIwMCcsICctbWV0YWxfYmluZGluZycsICctaW1hZScsICc8aW5maWxlLm1hZT4nLCAnLW9tYWUnLCAnPG91dGZpbGUubWFlPic=

> <r_lp_tautomer_probability>
1

> <r_epik_Ionization_Penalty>
0.000811024

> <r_epik_Ionization_Penalty_Charging>
0

> <r_epik_Ionization_Penalty_Neutral>
0.000811024

> <r_epik_State_Penalty>
0.000429598

> <r_epik_Charging_Adjusted_Penalty>
0.000429598

> <i_epik_Tot_Q>
0

> <i_epik_Tot_abs_Q>
0

> <r_epik_Metal_State_Penalty>
-0

> <b_epik_Metal_Only>
0

> <s_lp_Force_Field>
OPLS_2005

> <r_lp_Energy>
40.014

> <b_lp_Chiralities_Consistent>
1

> <s_lp_Variant>
AV-unprocessed.smi:137-2

> <Gold.Version>
5.8.1

> <Gold.Id.Protein>
6NUR|6NUR_protein|mol2

> <Gold.PLP.Fitness>
56.4303

> <Gold.PLP.PLP>
-46.7391

> <Gold.PLP.part.hbond>
-2.6879

> <Gold.PLP.part.metal>
0.0000

> <Gold.PLP.part.buried>
-2.4926

> <Gold.PLP.part.nonpolar>
-43.2149

> <Gold.PLP.part.repulsive>
1.5730

> <Gold.PLP.ligand.clash>
0.0000

> <Gold.PLP.ligand.torsion>
0.7059

> <Gold.PLP.Chemscore.Hbond>
2.7520

> <Gold.PLP.Chemscore.CHOScore>
0.7352

> <Gold.PLP.Chemscore.Metal>
0.0000

> <Gold.Chemscore.Hbonds>
donor molecule, donor type, donor heavy atom, donor atom, acceptor molecule, acceptor atom, score
      L1  H    18    40       P1 10175  0.75
      L1  H    20    43       P1  7948  0.94
      P1  H  7954  7966       L1    20  0.60
      L1  C    12    34       P1  8028  0.51

> <Gold.PLP.Chemscore.Internal.Correction>
0.6414

> <Gold.Rescore>
     Score         DG    S(hbond)    S(metal)    S(lipo)     H(rot)  DE(clash)    DE(int)     intcor
     11.40     -17.45       1.96        0.00     109.29       2.87       2.91       3.14       ----

> <Gold.Chemscore.Fitness>
11.4017

> <Gold.Chemscore.DG>
-17.4475

> <Gold.Chemscore.ZeroCoef>
-5.4800

> <Gold.Chemscore.Hbond>
1.9563

> <Gold.Chemscore.Metal>
0.0000

> <Gold.Chemscore.Lipo>
109.2908

> <Gold.Chemscore.Internal_Hbond>
0.0000

> <Gold.Chemscore.DEClash>
2.9098

> <Gold.Chemscore.DEInternal>
3.1360

> <Gold.Chemscore.Rot>
2.8725

> <Gold.Chemscore.Internal.Correction>
   9.000000E+99

> <Gold.Chemscore.Hbonds>
donor molecule, donor type, donor heavy atom, donor atom, acceptor molecule, acceptor atom, score
      L1  H    18    40       P1 10175  0.75
      L1  H    20    43       P1  7948  0.89
      P1  H  7954  7966       L1    20  0.04

> <Gold.Chemscore.Hbond.Weighted>
-6.5341

> <Gold.Chemscore.Metal.Weighted>
-0.0000

> <Gold.Chemscore.Lipo.Weighted>
-12.7870

> <Gold.Chemscore.Internal_Hbond.Weighted>
0.0000

> <Gold.Chemscore.DEClash.Weighted>
2.9098

> <Gold.Chemscore.DEInternal.Weighted>
3.1360

> <Gold.Chemscore.Rot.Weighted>
7.3535

> <Gold.Chemscore.Internal.Correction.Weighted>
   9.000000E+99

> <Gold.Protein.RotatedTorsions>
[ 6907 6896 6895 6894 ] final -150.84 input  -60.11 | X-H torsion
[ 7974 7965 7964 7962 ] final   44.16 input  175.53 | X-H torsion
[ 8008 7997 7996 7995 ] final  164.24 input   59.86 | X-H torsion
[ 10167 10162 10161 10158 ] final -139.80 input  -65.29 | X-H torsion
[ 10718 10713 10712 10709 ] final   90.05 input   66.30 | X-H torsion
[ 10763 10752 10751 10750 ] final  163.37 input  -60.55 | X-H torsion
[ 11005 11000 10999 10996 ] final  113.29 input  -57.11 | X-H torsion

> <Gold.Protein.ActiveResidues>
 VAL166  LYS551  ARG553  GLY616  TRP617  ASP618  TYR619  PRO620  LYS621  CYS622 
 ASP623  PHE694  ASN695  SER759  ASP760  ASP761  ALA762  ILE779  LEU786  VAL792 
 PHE793  MET794  SER795  GLU796  ALA797  LYS798  CYS799  TRP800  GLU811  SER814 

> <Gold.Protein.RotatedAtoms>
  151.2044  133.4592  159.2596 H   0  0  0  0  0  0  0  0  0  0  0  0  # atno 6907 bound_to 6896
  151.1038  134.9987  159.8471 H   0  0  0  0  0  0  0  0  0  0  0  0  # atno 6908 bound_to 6896
  152.5445  134.1969  159.8749 H   0  0  0  0  0  0  0  0  0  0  0  0  # atno 6909 bound_to 6896
  146.0593  139.5106  142.9668 H   0  0  0  0  0  0  0  0  0  0  0  0  # atno 7974 bound_to 7965
  156.1895  140.1702  156.8119 H   0  0  0  0  0  0  0  0  0  0  0  0  # atno 8008 bound_to 7997
  154.5455  140.0728  156.8613 H   0  0  0  0  0  0  0  0  0  0  0  0  # atno 8009 bound_to 7997
  155.3131  140.3369  155.4245 H   0  0  0  0  0  0  0  0  0  0  0  0  # atno 8010 bound_to 7997
  139.8344  143.7404  152.2665 H   0  0  0  0  0  0  0  0  0  0  0  0  # atno 10167 bound_to 10162
  157.6958  131.0356  150.3519 H   0  0  0  0  0  0  0  0  0  0  0  0  # atno 10718 bound_to 10713
  154.2927  135.2760  155.2647 H   0  0  0  0  0  0  0  0  0  0  0  0  # atno 10763 bound_to 10752
  154.5119  135.5780  153.6615 H   0  0  0  0  0  0  0  0  0  0  0  0  # atno 10764 bound_to 10752
  152.9912  135.6183  154.3092 H   0  0  0  0  0  0  0  0  0  0  0  0  # atno 10765 bound_to 10752
  139.8949  134.9547  156.6716 H   0  0  0  0  0  0  0  0  0  0  0  0  # atno 11005 bound_to 11000
  145.6588  141.0245  143.1720 LP  0  0  0  0  0  0  0  0  0  0  0  0  # atno 17320 bound_to 7965
  144.7166  139.8177  143.7396 LP  0  0  0  0  0  0  0  0  0  0  0  0  # atno 17321 bound_to 7965
  139.7622  144.7503  151.0348 LP  0  0  0  0  0  0  0  0  0  0  0  0  # atno 17342 bound_to 10162
  140.7804  143.4739  151.0109 LP  0  0  0  0  0  0  0  0  0  0  0  0  # atno 17343 bound_to 10162
  156.3966  130.3908  149.6990 LP  0  0  0  0  0  0  0  0  0  0  0  0  # atno 17370 bound_to 10713
  156.4322  130.7820  151.2840 LP  0  0  0  0  0  0  0  0  0  0  0  0  # atno 17371 bound_to 10713
  140.7369  133.9011  155.8250 LP  0  0  0  0  0  0  0  0  0  0  0  0  # atno 17394 bound_to 11000
  141.0109  134.1022  157.4222 LP  0  0  0  0  0  0  0  0  0  0  0  0  # atno 17395 bound_to 11000

$$$$
