AV-unprocessed.smi:580|AV-procd|sdf|2989|dock3
  -GOLD-   2262023493D 1   1.00000     0.00000
 Structure written by MMmdl.
 36 37  0  0  0  0  0  0  0  0  1 V2000
  155.4429  135.0130  163.4592 C   0  0  0  0  0  0  0  0  0  0  0  0
  154.8886  135.6327  162.2223 C   0  0  0  0  0  0  0  0  0  0  0  0
  154.4877  136.9030  161.9168 C   0  0  0  0  0  0  0  0  0  0  0  0
  154.0702  136.7899  160.5640 C   0  0  0  0  0  0  0  0  0  0  0  0
  153.5731  137.9156  159.8587 N   0  0  0  0  0  0  0  0  0  0  0  0
  153.7749  139.2135  160.1433 C   0  0  0  0  0  0  0  0  0  0  0  0
  154.4393  139.6369  161.0898 O   0  0  0  0  0  0  0  0  0  0  0  0
  153.1500  140.0089  159.2625 N   0  0  0  0  0  0  0  0  0  0  0  0
  153.1523  141.4685  159.2983 C   0  0  2  0  0  0  0  0  0  0  0  0
  152.9312  141.9754  160.7372 C   0  0  0  0  0  0  0  0  0  0  0  0
  152.8573  143.5100  160.7881 C   0  0  0  0  0  0  0  0  0  0  0  0
  151.7688  144.0593  159.8463 C   0  0  1  0  0  0  0  0  0  0  0  0
  151.7070  145.5927  159.8947 C   0  0  0  0  0  0  0  0  0  0  0  0
  151.9949  143.5492  158.4100 C   0  0  0  0  0  0  0  0  0  0  0  0
  152.0621  142.0141  158.3584 C   0  0  0  0  0  0  0  0  0  0  0  0
  154.2022  135.5614  160.0876 N   0  0  0  0  0  0  0  0  0  0  0  0
  154.7271  134.8133  161.1480 O   0  0  0  0  0  0  0  0  0  0  0  0
  155.7350  135.7765  164.1803 H   0  0  0  0  0  0  0  0  0  0  0  0
  156.3225  134.4109  163.2305 H   0  0  0  0  0  0  0  0  0  0  0  0
  154.7032  134.3663  163.9314 H   0  0  0  0  0  0  0  0  0  0  0  0
  154.4949  137.7709  162.5592 H   0  0  0  0  0  0  0  0  0  0  0  0
  152.9971  137.7106  159.0556 H   0  0  0  0  0  0  0  0  0  0  0  0
  152.6269  139.5747  158.5161 H   0  0  0  0  0  0  0  0  0  0  0  0
  154.1178  141.8321  158.9406 H   0  0  0  0  0  0  0  0  0  0  0  0
  152.0081  141.5558  161.1396 H   0  0  0  0  0  0  0  0  0  0  0  0
  153.7359  141.6287  161.3867 H   0  0  0  0  0  0  0  0  0  0  0  0
  152.6610  143.8304  161.8118 H   0  0  0  0  0  0  0  0  0  0  0  0
  153.8273  143.9277  160.5152 H   0  0  0  0  0  0  0  0  0  0  0  0
  150.8048  143.6809  160.1894 H   0  0  0  0  0  0  0  0  0  0  0  0
  152.6461  146.0380  159.5648 H   0  0  0  0  0  0  0  0  0  0  0  0
  151.5089  145.9456  160.9072 H   0  0  0  0  0  0  0  0  0  0  0  0
  150.9133  145.9741  159.2517 H   0  0  0  0  0  0  0  0  0  0  0  0
  151.1943  143.9011  157.7584 H   0  0  0  0  0  0  0  0  0  0  0  0
  152.9214  143.9655  158.0121 H   0  0  0  0  0  0  0  0  0  0  0  0
  152.2552  141.6904  157.3349 H   0  0  0  0  0  0  0  0  0  0  0  0
  151.0910  141.6006  158.6356 H   0  0  0  0  0  0  0  0  0  0  0  0
  1  2  1  0  0  0  0
  1 18  1  0  0  0  0
  1 19  1  0  0  0  0
  1 20  1  0  0  0  0
  2 17  1  0  0  0  0
  2  3  2  0  0  0  0
  3  4  1  0  0  0  0
  3 21  1  0  0  0  0
  4  5  1  0  0  0  0
  4 16  2  0  0  0  0
  5  6  1  0  0  0  0
  5 22  1  0  0  0  0
  6  7  2  0  0  0  0
  6  8  1  0  0  0  0
  8  9  1  0  0  0  0
  8 23  1  0  0  0  0
  9 15  1  0  0  0  0
  9 10  1  0  0  0  0
  9 24  1  0  0  0  0
 10 11  1  0  0  0  0
 10 25  1  0  0  0  0
 10 26  1  0  0  0  0
 11 12  1  0  0  0  0
 11 27  1  0  0  0  0
 11 28  1  0  0  0  0
 12 13  1  0  0  0  0
 12 14  1  0  0  0  0
 12 29  1  0  0  0  0
 13 30  1  0  0  0  0
 13 31  1  0  0  0  0
 13 32  1  0  0  0  0
 14 15  1  0  0  0  0
 14 33  1  0  0  0  0
 14 34  1  0  0  0  0
 15 35  1  0  0  0  0
 15 36  1  0  0  0  0
 16 17  1  0  0  0  0
M  END
> <s_m_source_file>
AV-unprocessed.smi

> <i_m_source_file_index>
580

> <i_lp_mmshare_version>
43012

> <i_f3d_flags>
0

> <s_epik_input>
W0NIM11jMVtjSF1jKG5vMSlbTkhdQyg9TylbTkhdW0NAQEhdMltDSDJdW0NIMl1bQ0BASF0oW0NIM10pW0NIMl1bQ0gyXTI=

> <s_epik_cmdline>
J2VwaWtfcHl0aG9uJywgJy1waCcsICc3LjAnLCAnLXRuJywgJzgnLCAnLW1hJywgJzIwMCcsICctbWV0YWxfYmluZGluZycsICctaW1hZScsICc8aW5maWxlLm1hZT4nLCAnLW9tYWUnLCAnPG91dGZpbGUubWFlPic=

> <r_lp_tautomer_probability>
1

> <r_epik_Ionization_Penalty>
2.357e-05

> <r_epik_Ionization_Penalty_Charging>
0

> <r_epik_Ionization_Penalty_Neutral>
2.357e-05

> <r_epik_State_Penalty>
-0

> <r_epik_Charging_Adjusted_Penalty>
0

> <i_epik_Tot_Q>
0

> <i_epik_Tot_abs_Q>
0

> <r_epik_Metal_State_Penalty>
-0

> <b_epik_Metal_Only>
0

> <s_lp_Force_Field>
OPLS_2005

> <r_lp_Energy>
6.68451

> <b_lp_Chiralities_Consistent>
1

> <s_lp_Variant>
AV-unprocessed.smi:580-1

> <Gold.Version>
5.8.1

> <Gold.Id.Protein>
6NUR|6NUR_protein|mol2

> <Gold.PLP.Fitness>
37.0766

> <Gold.PLP.PLP>
-34.6474

> <Gold.PLP.part.hbond>
-1.0138

> <Gold.PLP.part.metal>
0.0000

> <Gold.PLP.part.buried>
-4.5655

> <Gold.PLP.part.nonpolar>
-28.0140

> <Gold.PLP.part.repulsive>
0.1611

> <Gold.PLP.ligand.clash>
0.0000

> <Gold.PLP.ligand.torsion>
0.2868

> <Gold.PLP.Chemscore.Hbond>
1.0000

> <Gold.PLP.Chemscore.CHOScore>
0.0000

> <Gold.PLP.Chemscore.Metal>
0.0000

> <Gold.Chemscore.Hbonds>
donor molecule, donor type, donor heavy atom, donor atom, acceptor molecule, acceptor atom, score
      P1  H  6896  6907       L1    16  0.96

> <Gold.PLP.Chemscore.Internal.Correction>
0.0029

> <Gold.Rescore>
     Score         DG    S(hbond)    S(metal)    S(lipo)     H(rot)  DE(clash)    DE(int)     intcor
     14.03     -17.05       0.94        0.00      93.96       1.00       0.01       3.01       ----

> <Gold.Chemscore.Fitness>
14.0305

> <Gold.Chemscore.DG>
-17.0535

> <Gold.Chemscore.ZeroCoef>
-5.4800

> <Gold.Chemscore.Hbond>
0.9401

> <Gold.Chemscore.Metal>
0.0000

> <Gold.Chemscore.Lipo>
93.9615

> <Gold.Chemscore.Internal_Hbond>
0.0000

> <Gold.Chemscore.DEClash>
0.0135

> <Gold.Chemscore.DEInternal>
3.0096

> <Gold.Chemscore.Rot>
1.0000

> <Gold.Chemscore.Internal.Correction>
   9.000000E+99

> <Gold.Chemscore.Hbonds>
donor molecule, donor type, donor heavy atom, donor atom, acceptor molecule, acceptor atom, score
      P1  H  6896  6907       L1    16  0.10

> <Gold.Chemscore.Hbond.Weighted>
-3.1401

> <Gold.Chemscore.Metal.Weighted>
-0.0000

> <Gold.Chemscore.Lipo.Weighted>
-10.9935

> <Gold.Chemscore.Internal_Hbond.Weighted>
0.0000

> <Gold.Chemscore.DEClash.Weighted>
0.0135

> <Gold.Chemscore.DEInternal.Weighted>
3.0096

> <Gold.Chemscore.Rot.Weighted>
2.5600

> <Gold.Chemscore.Internal.Correction.Weighted>
   9.000000E+99

> <Gold.Protein.RotatedTorsions>
[ 6907 6896 6895 6894 ] final   42.43 input  -60.11 | X-H torsion
[ 7974 7965 7964 7962 ] final  117.73 input  175.53 | X-H torsion
[ 8008 7997 7996 7995 ] final   13.98 input   59.86 | X-H torsion
[ 10167 10162 10161 10158 ] final  -44.64 input  -65.29 | X-H torsion
[ 10718 10713 10712 10709 ] final   73.54 input   66.30 | X-H torsion
[ 10763 10752 10751 10750 ] final   50.14 input  -60.55 | X-H torsion
[ 11005 11000 10999 10996 ] final   59.65 input  -57.11 | X-H torsion

> <Gold.Protein.ActiveResidues>
 VAL166  LYS551  ARG553  GLY616  TRP617  ASP618  TYR619  PRO620  LYS621  CYS622 
 ASP623  PHE694  ASN695  SER759  ASP760  ASP761  ALA762  ILE779  LEU786  VAL792 
 PHE793  MET794  SER795  GLU796  ALA797  LYS798  CYS799  TRP800  GLU811  SER814 

> <Gold.Protein.RotatedAtoms>
  152.2078  134.8529  160.0500 H   0  0  0  0  0  0  0  0  0  0  0  0  # atno 6907 bound_to 6896
  151.9359  133.3619  159.3956 H   0  0  0  0  0  0  0  0  0  0  0  0  # atno 6908 bound_to 6896
  150.6969  134.4414  159.5338 H   0  0  0  0  0  0  0  0  0  0  0  0  # atno 6909 bound_to 6896
  145.1638  139.3140  143.4503 H   0  0  0  0  0  0  0  0  0  0  0  0  # atno 7974 bound_to 7965
  154.8421  140.2916  155.5653 H   0  0  0  0  0  0  0  0  0  0  0  0  # atno 8008 bound_to 7997
  156.3012  140.2512  156.3296 H   0  0  0  0  0  0  0  0  0  0  0  0  # atno 8009 bound_to 7997
  154.9114  140.0388  157.1937 H   0  0  0  0  0  0  0  0  0  0  0  0  # atno 8010 bound_to 7997
  140.6889  143.2920  151.3524 H   0  0  0  0  0  0  0  0  0  0  0  0  # atno 10167 bound_to 10162
  157.6552  130.9633  150.1084 H   0  0  0  0  0  0  0  0  0  0  0  0  # atno 10718 bound_to 10713
  152.9785  135.5889  154.4203 H   0  0  0  0  0  0  0  0  0  0  0  0  # atno 10763 bound_to 10752
  154.3828  135.2767  155.2203 H   0  0  0  0  0  0  0  0  0  0  0  0  # atno 10764 bound_to 10752
  154.4109  135.6081  153.6006 H   0  0  0  0  0  0  0  0  0  0  0  0  # atno 10765 bound_to 10752
  140.0288  134.6043  155.9535 H   0  0  0  0  0  0  0  0  0  0  0  0  # atno 11005 bound_to 11000
  146.3478  140.1758  142.8589 LP  0  0  0  0  0  0  0  0  0  0  0  0  # atno 17320 bound_to 7965
  145.0304  140.8866  143.5113 LP  0  0  0  0  0  0  0  0  0  0  0  0  # atno 17321 bound_to 7965
  139.6273  144.0790  152.2445 LP  0  0  0  0  0  0  0  0  0  0  0  0  # atno 17342 bound_to 10162
  140.0253  144.6122  150.7532 LP  0  0  0  0  0  0  0  0  0  0  0  0  # atno 17343 bound_to 10162
  156.1987  130.3659  149.8816 LP  0  0  0  0  0  0  0  0  0  0  0  0  # atno 17370 bound_to 10713
  156.6725  130.8826  151.3564 LP  0  0  0  0  0  0  0  0  0  0  0  0  # atno 17371 bound_to 10713
  141.1819  133.6548  156.5054 LP  0  0  0  0  0  0  0  0  0  0  0  0  # atno 17394 bound_to 11000
  140.4261  134.7144  157.4916 LP  0  0  0  0  0  0  0  0  0  0  0  0  # atno 17395 bound_to 11000

$$$$
