AV-unprocessed.smi:3025|AV-procd|sdf|11505|dock10
  -GOLD-   2272016443D 1   1.00000     0.00000
 Structure written by MMmdl.
 42 43  0  0  0  0  0  0  0  0  2 V2000
  151.8086  143.3872  158.2982 C   0  0  0  0  0  0  0  0  0  0  0  0
  151.2553  142.8722  156.9650 C   0  0  0  0  0  0  0  0  0  0  0  0
  151.0439  141.3486  156.9650 C   0  0  0  0  0  0  0  0  0  0  0  0
  150.4872  140.7894  155.6393 C   0  0  2  0  0  0  0  0  0  0  0  0
  149.0197  141.1992  155.3898 C   0  0  0  0  0  0  0  0  0  0  0  0
  148.4786  140.6184  154.0730 C   0  0  0  0  0  0  0  0  0  0  0  0
  148.6159  139.0824  154.0286 C   0  0  1  0  0  0  0  0  0  0  0  0
  148.1542  138.5322  152.7347 N   0  3  0  0  0  0  0  0  0  0  0  0
  146.7114  138.6953  152.4585 C   0  0  0  0  0  0  0  0  0  0  0  0
  145.8887  137.6156  153.1739 C   0  0  0  0  0  0  0  0  0  0  0  0
  145.3627  136.5823  152.2323 C   0  0  0  0  0  0  0  0  0  0  0  0
  146.1639  135.8205  151.4848 N   0  0  0  0  0  0  0  0  0  0  0  0
  145.4127  134.9970  150.7242 N   0  0  0  0  0  0  0  0  0  0  0  0
  144.1757  135.3368  151.0821 C   0  0  0  0  0  0  0  0  0  0  0  0
  144.0764  136.3268  152.0200 N   0  0  0  0  0  0  0  0  0  0  0  0
  150.0801  138.6767  154.2742 C   0  0  0  0  0  0  0  0  0  0  0  0
  150.6116  139.2532  155.5960 C   0  0  0  0  0  0  0  0  0  0  0  0
  147.1738  135.8238  151.4605 H   0  0  0  0  0  0  0  0  0  0  0  0
  151.9471  144.4682  158.2696 H   0  0  0  0  0  0  0  0  0  0  0  0
  152.7741  142.9349  158.5256 H   0  0  0  0  0  0  0  0  0  0  0  0
  151.1292  143.1609  159.1204 H   0  0  0  0  0  0  0  0  0  0  0  0
  150.3159  143.3835  156.7566 H   0  0  0  0  0  0  0  0  0  0  0  0
  151.9423  143.1474  156.1641 H   0  0  0  0  0  0  0  0  0  0  0  0
  152.0044  140.8735  157.1696 H   0  0  0  0  0  0  0  0  0  0  0  0
  150.3882  141.0671  157.7900 H   0  0  0  0  0  0  0  0  0  0  0  0
  151.0956  141.1911  154.8273 H   0  0  0  0  0  0  0  0  0  0  0  0
  148.3965  140.8620  156.2193 H   0  0  0  0  0  0  0  0  0  0  0  0
  148.9268  142.2843  155.3569 H   0  0  0  0  0  0  0  0  0  0  0  0
  147.4360  140.9153  153.9614 H   0  0  0  0  0  0  0  0  0  0  0  0
  149.0169  141.0624  153.2342 H   0  0  0  0  0  0  0  0  0  0  0  0
  148.0081  138.6452  154.8227 H   0  0  0  0  0  0  0  0  0  0  0  0
  148.6879  138.9590  151.9907 H   0  0  0  0  0  0  0  0  0  0  0  0
  146.3927  139.6846  152.7902 H   0  0  0  0  0  0  0  0  0  0  0  0
  146.5295  138.6397  151.3853 H   0  0  0  0  0  0  0  0  0  0  0  0
  146.4963  137.1233  153.9347 H   0  0  0  0  0  0  0  0  0  0  0  0
  145.0448  138.0696  153.6950 H   0  0  0  0  0  0  0  0  0  0  0  0
  143.3107  134.8561  150.6492 H   0  0  0  0  0  0  0  0  0  0  0  0
  150.1690  137.5898  154.2904 H   0  0  0  0  0  0  0  0  0  0  0  0
  150.7061  139.0251  153.4512 H   0  0  0  0  0  0  0  0  0  0  0  0
  151.6542  138.9592  155.7237 H   0  0  0  0  0  0  0  0  0  0  0  0
  150.0640  138.8142  156.4314 H   0  0  0  0  0  0  0  0  0  0  0  0
  148.3479  137.5409  152.7384 H   0  0  0  0  0  0  0  0  0  0  0  0
  1  2  1  0  0  0  0
  1 19  1  0  0  0  0
  1 20  1  0  0  0  0
  1 21  1  0  0  0  0
  2  3  1  0  0  0  0
  2 22  1  0  0  0  0
  2 23  1  0  0  0  0
  3  4  1  0  0  0  0
  3 24  1  0  0  0  0
  3 25  1  0  0  0  0
  4 17  1  0  0  0  0
  4  5  1  0  0  0  0
  4 26  1  0  0  0  0
  5  6  1  0  0  0  0
  5 27  1  0  0  0  0
  5 28  1  0  0  0  0
  6  7  1  0  0  0  0
  6 29  1  0  0  0  0
  6 30  1  0  0  0  0
  7  8  1  0  0  0  0
  7 16  1  0  0  0  0
  7 31  1  0  0  0  0
  8  9  1  0  0  0  0
  8 32  1  0  0  0  0
  8 42  1  0  0  0  0
  9 10  1  0  0  0  0
  9 33  1  0  0  0  0
  9 34  1  0  0  0  0
 10 35  1  0  0  0  0
 10 36  1  0  0  0  0
 10 11  1  0  0  0  0
 11 15  2  0  0  0  0
 11 12  1  0  0  0  0
 12 18  1  0  0  0  0
 12 13  1  0  0  0  0
 13 14  2  0  0  0  0
 14 15  1  0  0  0  0
 14 37  1  0  0  0  0
 16 17  1  0  0  0  0
 16 38  1  0  0  0  0
 16 39  1  0  0  0  0
 17 40  1  0  0  0  0
 17 41  1  0  0  0  0
M  CHG  1   8   1
M  END
> <s_m_source_file>
AV-unprocessed.smi

> <i_m_source_file_index>
3025

> <i_lp_mmshare_version>
43012

> <i_f3d_flags>
0

> <s_epik_input>
W0NIM11bQ0gyXVtDSDJdW0NAQEhdMVtDSDJdW0NIMl1bQ0BIXShbQ0gyXVtDSDJdMSlbTkhdW0NIMl1bQ0gyXWMybm5bY0hdW25IXTI=

> <s_epik_cmdline>
J2VwaWtfcHl0aG9uJywgJy1waCcsICc3LjAnLCAnLXRuJywgJzgnLCAnLW1hJywgJzIwMCcsICctbWV0YWxfYmluZGluZycsICctaW1hZScsICc8aW5maWxlLm1hZT4nLCAnLW9tYWUnLCAnPG91dGZpbGUubWFlPic=

> <r_lp_tautomer_probability>
0.948284

> <r_epik_Ionization_Penalty>
0.0093758

> <r_epik_Ionization_Penalty_Charging>
0.000546397

> <r_epik_Ionization_Penalty_Neutral>
0.00882941

> <r_epik_State_Penalty>
0.401098

> <r_epik_Charging_Adjusted_Penalty>
0.401645

> <i_epik_Tot_Q>
1

> <i_epik_Tot_abs_Q>
1

> <r_epik_Metal_State_Penalty>
0.634803

> <b_epik_Metal_Only>
0

> <s_lp_Force_Field>
OPLS_2005

> <r_lp_Energy>
13.6193

> <b_lp_Chiralities_Consistent>
1

> <s_lp_Variant>
AV-unprocessed.smi:3025-1

> <Gold.Version>
5.8.1

> <Gold.Id.Protein>
6NUR|6NUR_protein|mol2

> <Gold.PLP.Fitness>
46.7746

> <Gold.PLP.PLP>
-32.9960

> <Gold.PLP.part.hbond>
-2.9602

> <Gold.PLP.part.metal>
0.0000

> <Gold.PLP.part.buried>
-4.3241

> <Gold.PLP.part.nonpolar>
-27.7838

> <Gold.PLP.part.repulsive>
1.2537

> <Gold.PLP.ligand.clash>
0.0000

> <Gold.PLP.ligand.torsion>
0.5258

> <Gold.PLP.Chemscore.Hbond>
4.0000

> <Gold.PLP.Chemscore.CHOScore>
0.9123

> <Gold.PLP.Chemscore.Metal>
0.0000

> <Gold.Chemscore.Hbonds>
donor molecule, donor type, donor heavy atom, donor atom, acceptor molecule, acceptor atom, score
      L1  H     8    32       P1  7957  1.00
      L1  H     8    42       P1  7948  1.79
      L1  H    12    18       P1  7948  1.00
      L1  C    14    37       P1 10186  0.89

> <Gold.PLP.Chemscore.Internal.Correction>
0.0934

> <Gold.Rescore>
     Score         DG    S(hbond)    S(metal)    S(lipo)     H(rot)  DE(clash)    DE(int)     intcor
     17.43     -17.96       2.90        0.00      79.99       2.56       0.11       0.43       ----

> <Gold.Chemscore.Fitness>
17.4290

> <Gold.Chemscore.DG>
-17.9633

> <Gold.Chemscore.ZeroCoef>
-5.4800

> <Gold.Chemscore.Hbond>
2.8978

> <Gold.Chemscore.Metal>
0.0000

> <Gold.Chemscore.Lipo>
79.9907

> <Gold.Chemscore.Internal_Hbond>
0.0000

> <Gold.Chemscore.DEClash>
0.1086

> <Gold.Chemscore.DEInternal>
0.4257

> <Gold.Chemscore.Rot>
2.5602

> <Gold.Chemscore.Internal.Correction>
   9.000000E+99

> <Gold.Chemscore.Hbonds>
donor molecule, donor type, donor heavy atom, donor atom, acceptor molecule, acceptor atom, score
      L1  H     8    32       P1  7957  0.92
      L1  H     8    42       P1  7948  0.88
      L1  H    12    18       P1  7948  1.00

> <Gold.Chemscore.Hbond.Weighted>
-9.6786

> <Gold.Chemscore.Metal.Weighted>
-0.0000

> <Gold.Chemscore.Lipo.Weighted>
-9.3589

> <Gold.Chemscore.Internal_Hbond.Weighted>
0.0000

> <Gold.Chemscore.DEClash.Weighted>
0.1086

> <Gold.Chemscore.DEInternal.Weighted>
0.4257

> <Gold.Chemscore.Rot.Weighted>
6.5542

> <Gold.Chemscore.Internal.Correction.Weighted>
   9.000000E+99

> <Gold.Protein.RotatedTorsions>
[ 6907 6896 6895 6894 ] final    6.94 input  -60.11 | X-H torsion
[ 7974 7965 7964 7962 ] final   71.41 input  175.53 | X-H torsion
[ 8008 7997 7996 7995 ] final  141.83 input   59.86 | X-H torsion
[ 10167 10162 10161 10158 ] final  170.20 input  -65.29 | X-H torsion
[ 10718 10713 10712 10709 ] final   15.03 input   66.30 | X-H torsion
[ 10763 10752 10751 10750 ] final   77.65 input  -60.55 | X-H torsion
[ 11005 11000 10999 10996 ] final  131.47 input  -57.11 | X-H torsion

> <Gold.Protein.ActiveResidues>
 VAL166  LYS551  ARG553  GLY616  TRP617  ASP618  TYR619  PRO620  LYS621  CYS622 
 ASP623  PHE694  ASN695  SER759  ASP760  ASP761  ALA762  ILE779  LEU786  VAL792 
 PHE793  MET794  SER795  GLU796  ALA797  LYS798  CYS799  TRP800  GLU811  SER814 

> <Gold.Protein.RotatedAtoms>
  151.6819  135.0960  160.0217 H   0  0  0  0  0  0  0  0  0  0  0  0  # atno 6907 bound_to 6896
  152.3831  133.6569  159.6185 H   0  0  0  0  0  0  0  0  0  0  0  0  # atno 6908 bound_to 6896
  150.7763  133.8998  159.3379 H   0  0  0  0  0  0  0  0  0  0  0  0  # atno 6909 bound_to 6896
  145.7662  139.2822  143.1348 H   0  0  0  0  0  0  0  0  0  0  0  0  # atno 7974 bound_to 7965
  156.2959  140.2305  156.4629 H   0  0  0  0  0  0  0  0  0  0  0  0  # atno 8008 bound_to 7997
  154.8002  140.0449  157.1288 H   0  0  0  0  0  0  0  0  0  0  0  0  # atno 8009 bound_to 7997
  154.9542  140.3046  155.5064 H   0  0  0  0  0  0  0  0  0  0  0  0  # atno 8010 bound_to 7997
  139.5012  144.3622  151.9812 H   0  0  0  0  0  0  0  0  0  0  0  0  # atno 10167 bound_to 10162
  157.0477  130.6257  149.5762 H   0  0  0  0  0  0  0  0  0  0  0  0  # atno 10718 bound_to 10713
  153.0814  135.4906  154.8511 H   0  0  0  0  0  0  0  0  0  0  0  0  # atno 10763 bound_to 10752
  154.7156  135.3029  154.9131 H   0  0  0  0  0  0  0  0  0  0  0  0  # atno 10764 bound_to 10752
  153.9811  135.6789  153.4803 H   0  0  0  0  0  0  0  0  0  0  0  0  # atno 10765 bound_to 10752
  139.9732  134.9571  156.9443 H   0  0  0  0  0  0  0  0  0  0  0  0  # atno 11005 bound_to 11000
  146.0215  140.8343  142.9921 LP  0  0  0  0  0  0  0  0  0  0  0  0  # atno 17320 bound_to 7965
  144.6821  140.2636  143.7315 LP  0  0  0  0  0  0  0  0  0  0  0  0  # atno 17321 bound_to 7965
  140.3058  144.3594  150.6047 LP  0  0  0  0  0  0  0  0  0  0  0  0  # atno 17342 bound_to 10162
  140.5837  143.2171  151.7381 LP  0  0  0  0  0  0  0  0  0  0  0  0  # atno 17343 bound_to 10162
  156.0018  130.5098  150.7689 LP  0  0  0  0  0  0  0  0  0  0  0  0  # atno 17370 bound_to 10713
  157.5055  131.0922  151.0262 LP  0  0  0  0  0  0  0  0  0  0  0  0  # atno 17371 bound_to 10713
  140.5249  134.0871  155.7301 LP  0  0  0  0  0  0  0  0  0  0  0  0  # atno 17394 bound_to 11000
  141.1411  133.9136  157.2323 LP  0  0  0  0  0  0  0  0  0  0  0  0  # atno 17395 bound_to 11000

$$$$
