AV-unprocessed.smi:46|AV-procd|sdf|420|dock4
  -GOLD-   2262016293D 1   1.00000     0.00000
 Structure written by MMmdl.
 35 36  0  0  0  0  0  0  0  0  2 V2000
  151.8975  143.8797  157.9491 C   0  0  0  0  0  0  0  0  0  0  0  0
  151.3667  142.5495  158.5042 C   0  0  0  0  0  0  0  0  0  0  0  0
  152.2213  142.0271  159.6693 C   0  0  0  0  0  0  0  0  0  0  0  0
  151.2646  141.5554  157.4464 N   0  0  0  0  0  0  0  0  0  0  0  0
  150.6788  141.6740  156.2030 C   0  0  0  0  0  0  0  0  0  0  0  0
  150.8121  140.4728  155.5611 C   0  0  0  0  0  0  0  0  0  0  0  0
  150.3561  140.0496  154.1799 C   0  0  1  0  0  0  0  0  0  0  0  0
  150.6684  138.5818  153.8617 C   0  0  0  0  0  0  0  0  0  0  0  0
  149.5264  137.7960  154.3639 N   0  3  0  0  0  0  0  0  0  0  0  0
  148.3762  138.7072  154.5247 C   0  0  0  0  0  0  0  0  0  0  0  0
  148.8267  140.0856  154.0117 C   0  0  1  0  0  0  0  0  0  0  0  0
  148.0958  141.2687  154.6772 C   0  0  0  0  0  0  0  0  0  0  0  0
  148.5551  142.4866  154.1317 O   0  0  0  0  0  0  0  0  0  0  0  0
  151.4997  139.6714  156.5173 C   0  0  0  0  0  0  0  0  0  0  0  0
  151.7674  140.3182  157.6387 N   0  0  0  0  0  0  0  0  0  0  0  0
  150.8240  140.6915  153.4320 H   0  0  0  0  0  0  0  0  0  0  0  0
  148.6274  140.1150  152.9385 H   0  0  0  0  0  0  0  0  0  0  0  0
  151.9207  144.6455  158.7249 H   0  0  0  0  0  0  0  0  0  0  0  0
  151.2631  144.2484  157.1424 H   0  0  0  0  0  0  0  0  0  0  0  0
  152.9090  143.7746  157.5559 H   0  0  0  0  0  0  0  0  0  0  0  0
  150.3620  142.7309  158.8908 H   0  0  0  0  0  0  0  0  0  0  0  0
  152.2495  142.7488  160.4863 H   0  0  0  0  0  0  0  0  0  0  0  0
  153.2496  141.8372  159.3605 H   0  0  0  0  0  0  0  0  0  0  0  0
  151.8146  141.0965  160.0666 H   0  0  0  0  0  0  0  0  0  0  0  0
  150.2196  142.5976  155.8835 H   0  0  0  0  0  0  0  0  0  0  0  0
  150.7047  138.4441  152.7802 H   0  0  0  0  0  0  0  0  0  0  0  0
  151.6211  138.2396  154.2673 H   0  0  0  0  0  0  0  0  0  0  0  0
  149.3062  137.0522  153.7170 H   0  0  0  0  0  0  0  0  0  0  0  0
  147.5029  138.3374  153.9865 H   0  0  0  0  0  0  0  0  0  0  0  0
  148.1217  138.7490  155.5844 H   0  0  0  0  0  0  0  0  0  0  0  0
  147.0159  141.2044  154.5397 H   0  0  0  0  0  0  0  0  0  0  0  0
  148.2879  141.2766  155.7506 H   0  0  0  0  0  0  0  0  0  0  0  0
  148.7207  143.0908  154.8399 H   0  0  0  0  0  0  0  0  0  0  0  0
  151.8135  138.6418  156.4269 H   0  0  0  0  0  0  0  0  0  0  0  0
  149.7576  137.4047  155.2658 H   0  0  0  0  0  0  0  0  0  0  0  0
  1  2  1  0  0  0  0
  1 18  1  0  0  0  0
  1 19  1  0  0  0  0
  1 20  1  0  0  0  0
  2  3  1  0  0  0  0
  2  4  1  0  0  0  0
  2 21  1  0  0  0  0
  3 22  1  0  0  0  0
  3 23  1  0  0  0  0
  3 24  1  0  0  0  0
  4 15  1  0  0  0  0
  4  5  1  0  0  0  0
  5  6  2  0  0  0  0
  5 25  1  0  0  0  0
  6  7  1  0  0  0  0
  6 14  1  0  0  0  0
  7 16  1  0  0  0  0
  7 11  1  0  0  0  0
  7  8  1  0  0  0  0
  8  9  1  0  0  0  0
  8 26  1  0  0  0  0
  8 27  1  0  0  0  0
  9 10  1  0  0  0  0
  9 28  1  0  0  0  0
  9 35  1  0  0  0  0
 10 11  1  0  0  0  0
 10 29  1  0  0  0  0
 10 30  1  0  0  0  0
 11 17  1  0  0  0  0
 11 12  1  0  0  0  0
 12 13  1  0  0  0  0
 12 31  1  0  0  0  0
 12 32  1  0  0  0  0
 13 33  1  0  0  0  0
 14 15  2  0  0  0  0
 14 34  1  0  0  0  0
M  CHG  1   9   1
M  END
> <s_m_source_file>
AV-unprocessed.smi

> <i_m_source_file_index>
46

> <i_lp_mmshare_version>
43012

> <i_f3d_flags>
0

> <s_epik_input>
W0NIM11bQ0hdKFtDSDNdKW4xW2NIXWMoW2NIXW4xKVtDQEBIXTJbQ0gyXVtOSF1bQ0gyXVtDQEhdMltDSDJdW09IXQ==

> <s_epik_cmdline>
J2VwaWtfcHl0aG9uJywgJy1waCcsICc3LjAnLCAnLXRuJywgJzgnLCAnLW1hJywgJzIwMCcsICctbWV0YWxfYmluZGluZycsICctaW1hZScsICc8aW5maWxlLm1hZT4nLCAnLW9tYWUnLCAnPG91dGZpbGUubWFlPic=

> <r_lp_tautomer_probability>
1

> <r_epik_Ionization_Penalty>
0.000236226

> <r_epik_Ionization_Penalty_Charging>
0.00021985

> <r_epik_Ionization_Penalty_Neutral>
1.63752e-05

> <r_epik_State_Penalty>
-0

> <r_epik_Charging_Adjusted_Penalty>
0.00021985

> <i_epik_Tot_Q>
1

> <i_epik_Tot_abs_Q>
1

> <r_epik_Metal_State_Penalty>
-0

> <b_epik_Metal_Only>
0

> <s_lp_Force_Field>
OPLS_2005

> <r_lp_Energy>
33.3547

> <b_lp_Chiralities_Consistent>
1

> <s_lp_Variant>
AV-unprocessed.smi:46-2

> <Gold.Version>
5.8.1

> <Gold.Id.Protein>
6NUR|6NUR_protein|mol2

> <Gold.PLP.Fitness>
40.8804

> <Gold.PLP.PLP>
-28.8973

> <Gold.PLP.part.hbond>
-3.2381

> <Gold.PLP.part.metal>
0.0000

> <Gold.PLP.part.buried>
3.9320

> <Gold.PLP.part.nonpolar>
-27.7216

> <Gold.PLP.part.repulsive>
0.0107

> <Gold.PLP.ligand.clash>
0.0000

> <Gold.PLP.ligand.torsion>
0.1670

> <Gold.PLP.Chemscore.Hbond>
3.0878

> <Gold.PLP.Chemscore.CHOScore>
0.9994

> <Gold.PLP.Chemscore.Metal>
0.0000

> <Gold.Chemscore.Hbonds>
donor molecule, donor type, donor heavy atom, donor atom, acceptor molecule, acceptor atom, score
      L1  H     9    28       P1  7948  1.98
      L1  H    13    33       P1  8028  1.00
      P1  H  8011  8017       L1    13  0.09
      L1  C     5    25       P1  8028  1.00

> <Gold.PLP.Chemscore.Internal.Correction>
0.0553

> <Gold.Rescore>
     Score         DG    S(hbond)    S(metal)    S(lipo)     H(rot)  DE(clash)    DE(int)     intcor
     14.66     -17.09       1.89        0.00      86.65       1.90       2.11       0.31       ----

> <Gold.Chemscore.Fitness>
14.6624

> <Gold.Chemscore.DG>
-17.0890

> <Gold.Chemscore.ZeroCoef>
-5.4800

> <Gold.Chemscore.Hbond>
1.8948

> <Gold.Chemscore.Metal>
0.0000

> <Gold.Chemscore.Lipo>
86.6502

> <Gold.Chemscore.Internal_Hbond>
0.0000

> <Gold.Chemscore.DEClash>
2.1129

> <Gold.Chemscore.DEInternal>
0.3137

> <Gold.Chemscore.Rot>
1.8976

> <Gold.Chemscore.Internal.Correction>
   9.000000E+99

> <Gold.Chemscore.Hbonds>
donor molecule, donor type, donor heavy atom, donor atom, acceptor molecule, acceptor atom, score
      L1  H     9    28       P1  7948  0.89
      L1  H    13    33       P1  8028  0.98
      P1  H  8011  8017       L1    13  0.11

> <Gold.Chemscore.Hbond.Weighted>
-6.3288

> <Gold.Chemscore.Metal.Weighted>
-0.0000

> <Gold.Chemscore.Lipo.Weighted>
-10.1381

> <Gold.Chemscore.Internal_Hbond.Weighted>
0.0000

> <Gold.Chemscore.DEClash.Weighted>
2.1129

> <Gold.Chemscore.DEInternal.Weighted>
0.3137

> <Gold.Chemscore.Rot.Weighted>
4.8579

> <Gold.Chemscore.Internal.Correction.Weighted>
   9.000000E+99

> <Gold.Protein.RotatedTorsions>
[ 6907 6896 6895 6894 ] final   54.53 input  -60.11 | X-H torsion
[ 7974 7965 7964 7962 ] final  -93.92 input  175.53 | X-H torsion
[ 8008 7997 7996 7995 ] final  170.40 input   59.86 | X-H torsion
[ 10167 10162 10161 10158 ] final -160.78 input  -65.29 | X-H torsion
[ 10718 10713 10712 10709 ] final  168.85 input   66.30 | X-H torsion
[ 10763 10752 10751 10750 ] final  -92.36 input  -60.55 | X-H torsion
[ 11005 11000 10999 10996 ] final  -40.27 input  -57.11 | X-H torsion

> <Gold.Protein.ActiveResidues>
 VAL166  LYS551  ARG553  GLY616  TRP617  ASP618  TYR619  PRO620  LYS621  CYS622 
 ASP623  PHE694  ASN695  SER759  ASP760  ASP761  ALA762  ILE779  LEU786  VAL792 
 PHE793  MET794  SER795  GLU796  ALA797  LYS798  CYS799  TRP800  GLU811  SER814 

> <Gold.Protein.RotatedAtoms>
  152.3448  134.7086  160.0253 H   0  0  0  0  0  0  0  0  0  0  0  0  # atno 6907 bound_to 6896
  151.7460  133.3319  159.3386 H   0  0  0  0  0  0  0  0  0  0  0  0  # atno 6908 bound_to 6896
  150.7502  134.6168  159.6160 H   0  0  0  0  0  0  0  0  0  0  0  0  # atno 6909 bound_to 6896
  145.3801  140.9516  143.2398 H   0  0  0  0  0  0  0  0  0  0  0  0  # atno 7974 bound_to 7965
  156.1368  140.1539  156.8982 H   0  0  0  0  0  0  0  0  0  0  0  0  # atno 8008 bound_to 7997
  154.4954  140.0839  156.7724 H   0  0  0  0  0  0  0  0  0  0  0  0  # atno 8009 bound_to 7997
  155.4153  140.3420  155.4269 H   0  0  0  0  0  0  0  0  0  0  0  0  # atno 8010 bound_to 7997
  139.6514  144.0078  152.2164 H   0  0  0  0  0  0  0  0  0  0  0  0  # atno 10167 bound_to 10162
  157.0312  131.0260  151.2744 H   0  0  0  0  0  0  0  0  0  0  0  0  # atno 10718 bound_to 10713
  154.6853  135.5234  153.8318 H   0  0  0  0  0  0  0  0  0  0  0  0  # atno 10763 bound_to 10752
  153.0593  135.6562  154.0510 H   0  0  0  0  0  0  0  0  0  0  0  0  # atno 10764 bound_to 10752
  154.0392  135.2978  155.3337 H   0  0  0  0  0  0  0  0  0  0  0  0  # atno 10765 bound_to 10752
  141.0162  133.6884  156.2298 H   0  0  0  0  0  0  0  0  0  0  0  0  # atno 11005 bound_to 11000
  144.8513  139.5317  143.6855 LP  0  0  0  0  0  0  0  0  0  0  0  0  # atno 17320 bound_to 7965
  146.2846  139.6968  142.9205 LP  0  0  0  0  0  0  0  0  0  0  0  0  # atno 17321 bound_to 7965
  139.9793  144.6440  150.7916 LP  0  0  0  0  0  0  0  0  0  0  0  0  # atno 17342 bound_to 10162
  140.7539  143.3017  151.3063 LP  0  0  0  0  0  0  0  0  0  0  0  0  # atno 17343 bound_to 10162
  157.5176  130.7978  149.7773 LP  0  0  0  0  0  0  0  0  0  0  0  0  # atno 17370 bound_to 10713
  156.0069  130.3851  150.2400 LP  0  0  0  0  0  0  0  0  0  0  0  0  # atno 17371 bound_to 10713
  140.6650  134.4927  157.5585 LP  0  0  0  0  0  0  0  0  0  0  0  0  # atno 17394 bound_to 11000
  139.9118  134.8328  156.1500 LP  0  0  0  0  0  0  0  0  0  0  0  0  # atno 17395 bound_to 11000

$$$$
