AV-unprocessed.smi:353|AV-procd|sdf|2402|dock5
  -GOLD-   2262022333D 1   1.00000     0.00000
 Structure written by MMmdl.
 36 37  0  0  0  0  0  0  0  0  1 V2000
  146.3931  138.1882  151.6254 C   0  0  0  0  0  0  0  0  0  0  0  0
  147.0293  139.3959  152.3188 C   0  0  0  0  0  0  0  0  0  0  0  0
  148.2706  139.0343  152.9829 N   0  0  0  0  0  0  0  0  0  0  0  0
  148.9235  139.7172  154.0009 C   0  0  0  0  0  0  0  0  0  0  0  0
  148.4125  140.9569  154.5641 C   0  0  0  0  0  0  0  0  0  0  0  0
  149.0128  141.5938  155.5092 N   0  0  0  0  0  0  0  0  0  0  0  0
  150.1921  141.0949  156.0256 N   0  0  0  0  0  0  0  0  0  0  0  0
  150.7500  141.9004  157.1187 C   0  0  0  0  0  0  0  0  0  0  0  0
  151.6629  143.0183  156.5897 C   0  0  0  0  0  0  0  0  0  0  0  0
  151.8038  144.0229  157.5851 O   0  0  0  0  0  0  0  0  0  0  0  0
  152.2519  143.6504  158.8332 C   0  0  0  0  0  0  0  0  0  0  0  0
  153.1084  142.5319  158.8958 C   0  0  0  0  0  0  0  0  0  0  0  0
  153.6117  142.0776  160.1298 C   0  0  0  0  0  0  0  0  0  0  0  0
  153.2618  142.7426  161.3196 C   0  0  0  0  0  0  0  0  0  0  0  0
  153.8752  142.1875  162.8334 Cl  0  0  0  0  0  0  0  0  0  0  0  0
  152.4101  143.8622  161.2714 C   0  0  0  0  0  0  0  0  0  0  0  0
  151.9074  144.3167  160.0365 C   0  0  0  0  0  0  0  0  0  0  0  0
  150.8003  139.9458  155.6050 C   0  0  0  0  0  0  0  0  0  0  0  0
  151.8517  139.5350  156.0980 O   0  0  0  0  0  0  0  0  0  0  0  0
  150.0878  139.2483  154.5246 C   0  0  0  0  0  0  0  0  0  0  0  0
  150.7852  137.7789  153.9284 Cl  0  0  0  0  0  0  0  0  0  0  0  0
  145.4633  138.4714  151.1320 H   0  0  0  0  0  0  0  0  0  0  0  0
  146.1627  137.3983  152.3409 H   0  0  0  0  0  0  0  0  0  0  0  0
  147.0583  137.7727  150.8680 H   0  0  0  0  0  0  0  0  0  0  0  0
  147.2296  140.1790  151.5869 H   0  0  0  0  0  0  0  0  0  0  0  0
  146.3372  139.8079  153.0539 H   0  0  0  0  0  0  0  0  0  0  0  0
  148.6958  138.1761  152.6613 H   0  0  0  0  0  0  0  0  0  0  0  0
  147.4795  141.3270  154.1395 H   0  0  0  0  0  0  0  0  0  0  0  0
  149.9655  142.3207  157.7504 H   0  0  0  0  0  0  0  0  0  0  0  0
  151.3291  141.2515  157.7780 H   0  0  0  0  0  0  0  0  0  0  0  0
  152.6430  142.6021  156.3528 H   0  0  0  0  0  0  0  0  0  0  0  0
  151.2440  143.4348  155.6720 H   0  0  0  0  0  0  0  0  0  0  0  0
  153.3806  142.0155  157.9869 H   0  0  0  0  0  0  0  0  0  0  0  0
  154.2651  141.2180  160.1610 H   0  0  0  0  0  0  0  0  0  0  0  0
  152.1405  144.3755  162.1825 H   0  0  0  0  0  0  0  0  0  0  0  0
  151.2595  145.1798  160.0394 H   0  0  0  0  0  0  0  0  0  0  0  0
  1  2  1  0  0  0  0
  1 22  1  0  0  0  0
  1 23  1  0  0  0  0
  1 24  1  0  0  0  0
  2  3  1  0  0  0  0
  2 25  1  0  0  0  0
  2 26  1  0  0  0  0
  3  4  1  0  0  0  0
  3 27  1  0  0  0  0
  4 20  2  0  0  0  0
  4  5  1  0  0  0  0
  5  6  2  0  0  0  0
  5 28  1  0  0  0  0
  6  7  1  0  0  0  0
  7  8  1  0  0  0  0
  7 18  1  0  0  0  0
  8  9  1  0  0  0  0
  8 29  1  0  0  0  0
  8 30  1  0  0  0  0
  9 10  1  0  0  0  0
  9 31  1  0  0  0  0
  9 32  1  0  0  0  0
 10 11  1  0  0  0  0
 11 17  1  0  0  0  0
 11 12  2  0  0  0  0
 12 13  1  0  0  0  0
 12 33  1  0  0  0  0
 13 14  2  0  0  0  0
 13 34  1  0  0  0  0
 14 15  1  0  0  0  0
 14 16  1  0  0  0  0
 16 17  2  0  0  0  0
 16 35  1  0  0  0  0
 17 36  1  0  0  0  0
 18 19  2  0  0  0  0
 18 20  1  0  0  0  0
 20 21  1  0  0  0  0
M  END
> <s_m_source_file>
AV-unprocessed.smi

> <i_m_source_file_index>
353

> <i_lp_mmshare_version>
43012

> <i_f3d_flags>
0

> <s_epik_input>
W0NIM11bQ0gyXVtOSF1jMVtjSF1ubihjKD1PKWMxQ2wpW0NIMl1bQ0gyXU9jMltjSF1bY0hdYyhDbClbY0hdW2NIXTI=

> <s_epik_cmdline>
J2VwaWtfcHl0aG9uJywgJy1waCcsICc3LjAnLCAnLXRuJywgJzgnLCAnLW1hJywgJzIwMCcsICctbWV0YWxfYmluZGluZycsICctaW1hZScsICc8aW5maWxlLm1hZT4nLCAnLW9tYWUnLCAnPG91dGZpbGUubWFlPic=

> <r_lp_tautomer_probability>
1

> <r_epik_Ionization_Penalty>
1.47008e-05

> <r_epik_Ionization_Penalty_Charging>
1.08079e-09

> <r_epik_Ionization_Penalty_Neutral>
1.46998e-05

> <r_epik_State_Penalty>
-0

> <r_epik_Charging_Adjusted_Penalty>
1.08079e-09

> <i_epik_Tot_Q>
0

> <i_epik_Tot_abs_Q>
0

> <r_epik_Metal_State_Penalty>
-0

> <b_epik_Metal_Only>
0

> <s_lp_Force_Field>
OPLS_2005

> <r_lp_Energy>
29.5526

> <b_lp_Chiralities_Consistent>
1

> <s_lp_Variant>
AV-unprocessed.smi:353-1

> <Gold.Version>
5.8.1

> <Gold.Id.Protein>
6NUR|6NUR_protein|mol2

> <Gold.PLP.Fitness>
51.5362

> <Gold.PLP.PLP>
-50.9358

> <Gold.PLP.part.hbond>
-1.7717

> <Gold.PLP.part.metal>
0.0000

> <Gold.PLP.part.buried>
-0.5691

> <Gold.PLP.part.nonpolar>
-50.2453

> <Gold.PLP.part.repulsive>
0.8984

> <Gold.PLP.ligand.clash>
0.0000

> <Gold.PLP.ligand.torsion>
0.9791

> <Gold.PLP.Chemscore.Hbond>
0.8450

> <Gold.PLP.Chemscore.CHOScore>
0.0000

> <Gold.PLP.Chemscore.Metal>
0.0000

> <Gold.Chemscore.Hbonds>
donor molecule, donor type, donor heavy atom, donor atom, acceptor molecule, acceptor atom, score
      L1  H     3    27       P1  7948  0.86

> <Gold.PLP.Chemscore.Internal.Correction>
0.0236

> <Gold.Rescore>
     Score         DG    S(hbond)    S(metal)    S(lipo)     H(rot)  DE(clash)    DE(int)     intcor
     15.16     -18.49       0.00        0.00     147.08       1.64       1.82       1.51       ----

> <Gold.Chemscore.Fitness>
15.1606

> <Gold.Chemscore.DG>
-18.4939

> <Gold.Chemscore.ZeroCoef>
-5.4800

> <Gold.Chemscore.Hbond>
0.0000

> <Gold.Chemscore.Metal>
0.0000

> <Gold.Chemscore.Lipo>
147.0787

> <Gold.Chemscore.Internal_Hbond>
0.0000

> <Gold.Chemscore.DEClash>
1.8202

> <Gold.Chemscore.DEInternal>
1.5131

> <Gold.Chemscore.Rot>
1.6384

> <Gold.Chemscore.Internal.Correction>
   9.000000E+99

> <Gold.Chemscore.Hbonds>
donor molecule, donor type, donor heavy atom, donor atom, acceptor molecule, acceptor atom, score
      L1  H     3    27       P1  7948  0.84

> <Gold.Chemscore.Hbond.Weighted>
-0.0000

> <Gold.Chemscore.Metal.Weighted>
-0.0000

> <Gold.Chemscore.Lipo.Weighted>
-17.2082

> <Gold.Chemscore.Internal_Hbond.Weighted>
0.0000

> <Gold.Chemscore.DEClash.Weighted>
1.8202

> <Gold.Chemscore.DEInternal.Weighted>
1.5131

> <Gold.Chemscore.Rot.Weighted>
4.1943

> <Gold.Chemscore.Internal.Correction.Weighted>
   9.000000E+99

> <Gold.Protein.RotatedTorsions>
[ 6907 6896 6895 6894 ] final   86.27 input  -60.11 | X-H torsion
[ 7974 7965 7964 7962 ] final  141.98 input  175.53 | X-H torsion
[ 8008 7997 7996 7995 ] final  177.36 input   59.86 | X-H torsion
[ 10167 10162 10161 10158 ] final -150.03 input  -65.29 | X-H torsion
[ 10718 10713 10712 10709 ] final  141.32 input   66.30 | X-H torsion
[ 10763 10752 10751 10750 ] final  177.25 input  -60.55 | X-H torsion
[ 11005 11000 10999 10996 ] final  -52.21 input  -57.11 | X-H torsion

> <Gold.Protein.ActiveResidues>
 VAL166  LYS551  ARG553  GLY616  TRP617  ASP618  TYR619  PRO620  LYS621  CYS622 
 ASP623  PHE694  ASN695  SER759  ASP760  ASP761  ALA762  ILE779  LEU786  VAL792 
 PHE793  MET794  SER795  GLU796  ALA797  LYS798  CYS799  TRP800  GLU811  SER814 

> <Gold.Protein.RotatedAtoms>
  152.5391  134.2457  159.8879 H   0  0  0  0  0  0  0  0  0  0  0  0  # atno 6907 bound_to 6896
  151.2423  133.4386  159.2615 H   0  0  0  0  0  0  0  0  0  0  0  0  # atno 6908 bound_to 6896
  151.0616  134.9754  159.8319 H   0  0  0  0  0  0  0  0  0  0  0  0  # atno 6909 bound_to 6896
  144.9048  139.5373  143.5737 H   0  0  0  0  0  0  0  0  0  0  0  0  # atno 7974 bound_to 7965
  156.0665  140.1360  156.9879 H   0  0  0  0  0  0  0  0  0  0  0  0  # atno 8008 bound_to 7997
  154.4509  140.0980  156.6666 H   0  0  0  0  0  0  0  0  0  0  0  0  # atno 8009 bound_to 7997
  155.5295  140.3458  155.4425 H   0  0  0  0  0  0  0  0  0  0  0  0  # atno 8010 bound_to 7997
  139.7390  143.8691  152.2557 H   0  0  0  0  0  0  0  0  0  0  0  0  # atno 10167 bound_to 10162
  157.3934  131.1007  151.0624 H   0  0  0  0  0  0  0  0  0  0  0  0  # atno 10718 bound_to 10713
  154.4919  135.2779  155.1489 H   0  0  0  0  0  0  0  0  0  0  0  0  # atno 10763 bound_to 10752
  154.3157  135.6220  153.5489 H   0  0  0  0  0  0  0  0  0  0  0  0  # atno 10764 bound_to 10752
  152.9889  135.5730  154.5343 H   0  0  0  0  0  0  0  0  0  0  0  0  # atno 10765 bound_to 10752
  141.0912  133.6632  156.3991 H   0  0  0  0  0  0  0  0  0  0  0  0  # atno 11005 bound_to 11000
  146.3127  139.7807  142.9007 LP  0  0  0  0  0  0  0  0  0  0  0  0  # atno 17320 bound_to 7965
  145.3555  141.0316  143.3314 LP  0  0  0  0  0  0  0  0  0  0  0  0  # atno 17321 bound_to 7965
  139.8636  144.7104  150.9070 LP  0  0  0  0  0  0  0  0  0  0  0  0  # atno 17342 bound_to 10162
  140.7783  143.3796  151.1500 LP  0  0  0  0  0  0  0  0  0  0  0  0  # atno 17343 bound_to 10162
  157.1649  130.6242  149.5622 LP  0  0  0  0  0  0  0  0  0  0  0  0  # atno 17370 bound_to 10713
  155.9804  130.4804  150.6770 LP  0  0  0  0  0  0  0  0  0  0  0  0  # atno 17371 bound_to 10713
  140.5247  134.6270  157.5330 LP  0  0  0  0  0  0  0  0  0  0  0  0  # atno 17394 bound_to 11000
  139.9739  134.7248  155.9988 LP  0  0  0  0  0  0  0  0  0  0  0  0  # atno 17395 bound_to 11000

$$$$
