AV-unprocessed.smi:72|AV-procd|sdf|702|dock4
  -GOLD-   2262017 23D 1   1.00000     0.00000
 Structure written by MMmdl.
 30 31  0  0  0  0  0  0  0  0  2 V2000
  144.2353  139.8074  155.2430 N   0  0  0  0  0  0  0  0  0  0  0  0
  145.6063  139.7298  155.1116 C   0  0  0  0  0  0  0  0  0  0  0  0
  146.1536  140.0441  153.8813 N   0  3  0  0  0  0  0  0  0  0  0  0
  147.4635  140.0419  153.6006 C   0  0  0  0  0  0  0  0  0  0  0  0
  148.3269  139.7678  154.5568 N   0  0  0  0  0  0  0  0  0  0  0  0
  149.8032  139.7325  154.2444 C   0  0  1  0  0  0  0  0  0  0  0  0
  150.4490  140.4189  155.2682 O   0  0  0  0  0  0  0  0  0  0  0  0
  151.6598  139.7479  155.5896 C   0  0  1  0  0  0  0  0  0  0  0  0
  152.0850  140.0921  157.0254 C   0  0  0  0  0  0  0  0  0  0  0  0
  153.1723  139.2810  157.4149 O   0  0  0  0  0  0  0  0  0  0  0  0
  151.3012  138.2706  155.3937 C   0  0  2  0  0  0  0  0  0  0  0  0
  152.4635  137.5134  155.1227 O   0  0  0  0  0  0  0  0  0  0  0  0
  150.3812  138.3027  154.1791 C   0  0  1  0  0  0  0  0  0  0  0  0
  149.4127  137.2701  154.2266 O   0  0  0  0  0  0  0  0  0  0  0  0
  147.8546  139.3376  155.8247 C   0  0  0  0  0  0  0  0  0  0  0  0
  148.6366  138.9684  156.6994 O   0  0  0  0  0  0  0  0  0  0  0  0
  146.4666  139.3749  156.0255 N   0  0  0  0  0  0  0  0  0  0  0  0
  149.9578  140.2508  153.2983 H   0  0  0  0  0  0  0  0  0  0  0  0
  152.4267  140.0396  154.8686 H   0  0  0  0  0  0  0  0  0  0  0  0
  150.7843  137.8817  156.2724 H   0  0  0  0  0  0  0  0  0  0  0  0
  150.9561  138.2201  153.2549 H   0  0  0  0  0  0  0  0  0  0  0  0
  143.7485  139.5858  156.1003 H   0  0  0  0  0  0  0  0  0  0  0  0
  143.6121  140.0974  154.5031 H   0  0  0  0  0  0  0  0  0  0  0  0
  147.7932  140.2454  152.5897 H   0  0  0  0  0  0  0  0  0  0  0  0
  152.3410  141.1475  157.1232 H   0  0  0  0  0  0  0  0  0  0  0  0
  151.2665  139.8922  157.7176 H   0  0  0  0  0  0  0  0  0  0  0  0
  153.1006  138.4478  156.9746 H   0  0  0  0  0  0  0  0  0  0  0  0
  153.1385  137.7647  155.7346 H   0  0  0  0  0  0  0  0  0  0  0  0
  149.3891  136.8392  153.3853 H   0  0  0  0  0  0  0  0  0  0  0  0
  145.5143  140.2873  153.1380 H   0  0  0  0  0  0  0  0  0  0  0  0
  1  2  1  0  0  0  0
  1 22  1  0  0  0  0
  1 23  1  0  0  0  0
  2 17  2  0  0  0  0
  2  3  1  0  0  0  0
  3  4  2  0  0  0  0
  3 30  1  0  0  0  0
  4  5  1  0  0  0  0
  4 24  1  0  0  0  0
  5  6  1  0  0  0  0
  5 15  1  0  0  0  0
  6 18  1  0  0  0  0
  6 13  1  0  0  0  0
  6  7  1  0  0  0  0
  7  8  1  0  0  0  0
  8 19  1  0  0  0  0
  8  9  1  0  0  0  0
  8 11  1  0  0  0  0
  9 10  1  0  0  0  0
  9 25  1  0  0  0  0
  9 26  1  0  0  0  0
 10 27  1  0  0  0  0
 11 20  1  0  0  0  0
 11 12  1  0  0  0  0
 11 13  1  0  0  0  0
 12 28  1  0  0  0  0
 13 21  1  0  0  0  0
 13 14  1  0  0  0  0
 14 29  1  0  0  0  0
 15 16  2  0  0  0  0
 15 17  1  0  0  0  0
M  CHG  1   3   1
M  END
> <s_m_source_file>
AV-unprocessed.smi

> <i_m_source_file_index>
72

> <i_lp_mmshare_version>
43012

> <i_f3d_flags>
0

> <s_epik_input>
W05IMl1jMW5bY0hdbihjKD1PKW4xKVtDQEBIXTJPW0NASF0oW0NIMl1bT0hdKVtDQEBIXShbT0hdKVtDQEhdMltPSF0=

> <s_epik_cmdline>
J2VwaWtfcHl0aG9uJywgJy1waCcsICc3LjAnLCAnLXRuJywgJzgnLCAnLW1hJywgJzIwMCcsICctbWV0YWxfYmluZGluZycsICctaW1hZScsICc8aW5maWxlLm1hZT4nLCAnLW9tYWUnLCAnPG91dGZpbGUubWFlPic=

> <r_lp_tautomer_probability>
4.77166e-05

> <r_epik_Ionization_Penalty>
0.104979

> <r_epik_Ionization_Penalty_Charging>
0.0999619

> <r_epik_Ionization_Penalty_Neutral>
0.00501745

> <r_epik_State_Penalty>
2.51541

> <r_epik_Charging_Adjusted_Penalty>
2.61537

> <i_epik_Tot_Q>
1

> <i_epik_Tot_abs_Q>
1

> <r_epik_Metal_State_Penalty>
3.53763

> <b_epik_Metal_Only>
0

> <s_epik_Chemistry_Notes>
This compound contains an acetal/aminal-like group ( X-CH(R)-Y where X, Y are N, S, or O) that may be acid/base labile, releasing an aldehyde.

> <s_lp_Force_Field>
OPLS_2005

> <r_lp_Energy>
34.1778

> <b_lp_Chiralities_Consistent>
1

> <s_lp_Variant>
AV-unprocessed.smi:72-40

> <Gold.Version>
5.8.1

> <Gold.Id.Protein>
6NUR|6NUR_protein|mol2

> <Gold.PLP.Fitness>
39.9946

> <Gold.PLP.PLP>
-21.0461

> <Gold.PLP.part.hbond>
-5.8584

> <Gold.PLP.part.metal>
0.0000

> <Gold.PLP.part.buried>
-0.9109

> <Gold.PLP.part.nonpolar>
-14.8627

> <Gold.PLP.part.repulsive>
0.0764

> <Gold.PLP.ligand.clash>
0.0000

> <Gold.PLP.ligand.torsion>
0.2575

> <Gold.PLP.Chemscore.Hbond>
5.4400

> <Gold.PLP.Chemscore.CHOScore>
1.0000

> <Gold.PLP.Chemscore.Metal>
0.0000

> <Gold.Chemscore.Hbonds>
donor molecule, donor type, donor heavy atom, donor atom, acceptor molecule, acceptor atom, score
      L1  H     1    23       P1 10175  0.79
      L1  H     3    30       P1 10175  2.00
      L1  H    14    29       P1  7948  1.00
      P1  H  7997  8008       L1    10  1.00
      P1  H 10752 10765       L1    12  0.62
      L1  C     4    24       P1  7957  1.00

> <Gold.PLP.Chemscore.Internal.Correction>
0.1435

> <Gold.Rescore>
     Score         DG    S(hbond)    S(metal)    S(lipo)     H(rot)  DE(clash)    DE(int)     intcor
      8.65     -10.84       3.79        0.00      26.76       4.08       0.22       1.97       ----

> <Gold.Chemscore.Fitness>
8.6460

> <Gold.Chemscore.DG>
-10.8375

> <Gold.Chemscore.ZeroCoef>
-5.4800

> <Gold.Chemscore.Hbond>
3.7924

> <Gold.Chemscore.Metal>
0.0000

> <Gold.Chemscore.Lipo>
26.7624

> <Gold.Chemscore.Internal_Hbond>
0.0000

> <Gold.Chemscore.DEClash>
0.2200

> <Gold.Chemscore.DEInternal>
1.9715

> <Gold.Chemscore.Rot>
4.0783

> <Gold.Chemscore.Internal.Correction>
   9.000000E+99

> <Gold.Chemscore.Hbonds>
donor molecule, donor type, donor heavy atom, donor atom, acceptor molecule, acceptor atom, score
      L1  H     1    23       P1 10175  0.74
      L1  H     3    30       P1 10175  0.91
      L1  H    14    29       P1  7948  0.90
      P1  H  7997  8008       L1    10  0.16
      P1  H 10752 10765       L1    12  0.23

> <Gold.Chemscore.Hbond.Weighted>
-12.6667

> <Gold.Chemscore.Metal.Weighted>
-0.0000

> <Gold.Chemscore.Lipo.Weighted>
-3.1312

> <Gold.Chemscore.Internal_Hbond.Weighted>
0.0000

> <Gold.Chemscore.DEClash.Weighted>
0.2200

> <Gold.Chemscore.DEInternal.Weighted>
1.9715

> <Gold.Chemscore.Rot.Weighted>
10.4404

> <Gold.Chemscore.Internal.Correction.Weighted>
   9.000000E+99

> <Gold.Protein.RotatedTorsions>
[ 6907 6896 6895 6894 ] final -159.79 input  -60.11 | X-H torsion
[ 7974 7965 7964 7962 ] final -167.37 input  175.53 | X-H torsion
[ 8008 7997 7996 7995 ] final  -63.67 input   59.86 | X-H torsion
[ 10167 10162 10161 10158 ] final -162.13 input  -65.29 | X-H torsion
[ 10718 10713 10712 10709 ] final  149.21 input   66.30 | X-H torsion
[ 10763 10752 10751 10750 ] final -178.54 input  -60.55 | X-H torsion
[ 11005 11000 10999 10996 ] final  -59.61 input  -57.11 | X-H torsion

> <Gold.Protein.ActiveResidues>
 VAL166  LYS551  ARG553  GLY616  TRP617  ASP618  TYR619  PRO620  LYS621  CYS622 
 ASP623  PHE694  ASN695  SER759  ASP760  ASP761  ALA762  ILE779  LEU786  VAL792 
 PHE793  MET794  SER795  GLU796  ALA797  LYS798  CYS799  TRP800  GLU811  SER814 

> <Gold.Protein.RotatedAtoms>
  151.3390  133.3970  159.2669 H   0  0  0  0  0  0  0  0  0  0  0  0  # atno 6907 bound_to 6896
  150.9893  134.9232  159.7901 H   0  0  0  0  0  0  0  0  0  0  0  0  # atno 6908 bound_to 6896
  152.5242  134.3354  159.9250 H   0  0  0  0  0  0  0  0  0  0  0  0  # atno 6909 bound_to 6896
  144.7224  140.2528  143.6276 H   0  0  0  0  0  0  0  0  0  0  0  0  # atno 7974 bound_to 7965
  154.4567  140.0970  156.6779 H   0  0  0  0  0  0  0  0  0  0  0  0  # atno 8008 bound_to 7997
  155.5115  140.3476  155.4371 H   0  0  0  0  0  0  0  0  0  0  0  0  # atno 8009 bound_to 7997
  156.0792  140.1369  156.9722 H   0  0  0  0  0  0  0  0  0  0  0  0  # atno 8010 bound_to 7997
  139.6415  144.0251  152.2095 H   0  0  0  0  0  0  0  0  0  0  0  0  # atno 10167 bound_to 10162
  157.2990  131.0867  151.1405 H   0  0  0  0  0  0  0  0  0  0  0  0  # atno 10718 bound_to 10713
  154.5464  135.2809  155.1049 H   0  0  0  0  0  0  0  0  0  0  0  0  # atno 10763 bound_to 10752
  154.2511  135.6339  153.5244 H   0  0  0  0  0  0  0  0  0  0  0  0  # atno 10764 bound_to 10752
  152.9991  135.5583  154.6018 H   0  0  0  0  0  0  0  0  0  0  0  0  # atno 10765 bound_to 10752
  141.1255  133.6617  156.5098 H   0  0  0  0  0  0  0  0  0  0  0  0  # atno 11005 bound_to 11000
  145.8211  139.2044  143.1937 LP  0  0  0  0  0  0  0  0  0  0  0  0  # atno 17320 bound_to 7965
  146.0513  140.8067  142.9780 LP  0  0  0  0  0  0  0  0  0  0  0  0  # atno 17321 bound_to 7965
  139.9942  144.6340  150.7787 LP  0  0  0  0  0  0  0  0  0  0  0  0  # atno 17342 bound_to 10162
  140.7493  143.2936  151.3264 LP  0  0  0  0  0  0  0  0  0  0  0  0  # atno 17343 bound_to 10162
  157.2771  130.6732  149.6048 LP  0  0  0  0  0  0  0  0  0  0  0  0  # atno 17370 bound_to 10713
  155.9670  130.4461  150.5527 LP  0  0  0  0  0  0  0  0  0  0  0  0  # atno 17371 bound_to 10713
  140.4378  134.7043  157.4976 LP  0  0  0  0  0  0  0  0  0  0  0  0  # atno 17394 bound_to 11000
  140.0250  134.6491  155.9186 LP  0  0  0  0  0  0  0  0  0  0  0  0  # atno 17395 bound_to 11000

$$$$
