AV-unprocessed.smi:673|AV-procd|sdf|3298|dock8
  -GOLD-   22720 0263D 1   1.00000     0.00000
 Structure written by MMmdl.
 45 46  0  0  0  0  0  0  0  0  1 V2000
  154.2616  140.4070  159.8339 C   0  0  0  0  0  0  0  0  0  0  0  0
  153.1244  141.4308  159.6893 C   0  0  1  0  0  0  0  0  0  0  0  0
  153.6304  142.8838  159.5254 C   0  0  0  0  0  0  0  0  0  0  0  0
  152.5775  143.8818  159.6132 N   0  0  0  0  0  0  0  0  0  0  0  0
  152.0975  144.7219  158.6946 C   0  0  0  0  0  0  0  0  0  0  0  0
  151.1207  145.5002  159.1388 N   0  0  0  0  0  0  0  0  0  0  0  0
  151.0483  145.0606  160.4303 C   0  0  0  0  0  0  0  0  0  0  0  0
  151.9007  144.0929  160.7668 N   0  0  0  0  0  0  0  0  0  0  0  0
  152.2666  141.0390  158.5736 N   0  0  0  0  0  0  0  0  0  0  0  0
  151.5460  139.9068  158.4904 C   0  0  0  0  0  0  0  0  0  0  0  0
  151.5539  139.0606  159.3865 O   0  0  0  0  0  0  0  0  0  0  0  0
  150.7671  139.8100  157.3802 N   0  0  0  0  0  0  0  0  0  0  0  0
  150.9924  140.5910  156.1466 C   0  0  0  0  0  0  0  0  0  0  0  0
  150.6144  139.8678  154.8384 C   0  0  0  0  0  0  0  0  0  0  0  0
  151.1397  138.4202  154.7266 C   0  0  0  0  0  0  0  0  0  0  0  0
  150.2514  137.3084  155.3495 C   0  0  0  0  0  0  0  0  0  0  0  0
  148.8743  137.2394  154.6510 C   0  0  0  0  0  0  0  0  0  0  0  0
  150.9531  135.9566  155.1045 C   0  0  0  0  0  0  0  0  0  0  0  0
  150.0719  137.4741  156.8804 C   0  0  0  0  0  0  0  0  0  0  0  0
  149.6347  138.8726  157.3584 C   0  0  0  0  0  0  0  0  0  0  0  0
  154.9303  140.6786  160.6511 H   0  0  0  0  0  0  0  0  0  0  0  0
  154.8584  140.3325  158.9242 H   0  0  0  0  0  0  0  0  0  0  0  0
  153.8665  139.4134  160.0492 H   0  0  0  0  0  0  0  0  0  0  0  0
  152.5314  141.3863  160.6043 H   0  0  0  0  0  0  0  0  0  0  0  0
  154.3948  143.1149  160.2688 H   0  0  0  0  0  0  0  0  0  0  0  0
  154.1135  142.9926  158.5537 H   0  0  0  0  0  0  0  0  0  0  0  0
  152.4661  144.7609  157.6799 H   0  0  0  0  0  0  0  0  0  0  0  0
  150.3468  145.4662  161.1443 H   0  0  0  0  0  0  0  0  0  0  0  0
  152.1895  141.6964  157.8113 H   0  0  0  0  0  0  0  0  0  0  0  0
  150.4467  141.5323  156.2205 H   0  0  0  0  0  0  0  0  0  0  0  0
  152.0459  140.8556  156.0461 H   0  0  0  0  0  0  0  0  0  0  0  0
  149.5399  139.9140  154.6733 H   0  0  0  0  0  0  0  0  0  0  0  0
  151.0393  140.4467  154.0176 H   0  0  0  0  0  0  0  0  0  0  0  0
  151.2630  138.1973  153.6658 H   0  0  0  0  0  0  0  0  0  0  0  0
  152.1456  138.3734  155.1464 H   0  0  0  0  0  0  0  0  0  0  0  0
  148.2993  136.3807  154.9996 H   0  0  0  0  0  0  0  0  0  0  0  0
  148.9832  137.1382  153.5707 H   0  0  0  0  0  0  0  0  0  0  0  0
  148.2615  138.1201  154.8352 H   0  0  0  0  0  0  0  0  0  0  0  0
  150.3789  135.1275  155.5201 H   0  0  0  0  0  0  0  0  0  0  0  0
  151.9418  135.9300  155.5642 H   0  0  0  0  0  0  0  0  0  0  0  0
  151.0844  135.7612  154.0397 H   0  0  0  0  0  0  0  0  0  0  0  0
  149.3350  136.7474  157.2247 H   0  0  0  0  0  0  0  0  0  0  0  0
  150.9959  137.2013  157.3923 H   0  0  0  0  0  0  0  0  0  0  0  0
  149.2074  138.7857  158.3590 H   0  0  0  0  0  0  0  0  0  0  0  0
  148.8149  139.2651  156.7582 H   0  0  0  0  0  0  0  0  0  0  0  0
  1  2  1  0  0  0  0
  1 21  1  0  0  0  0
  1 22  1  0  0  0  0
  1 23  1  0  0  0  0
  2  3  1  0  0  0  0
  2  9  1  0  0  0  0
  2 24  1  0  0  0  0
  3  4  1  0  0  0  0
  3 25  1  0  0  0  0
  3 26  1  0  0  0  0
  4  8  1  0  0  0  0
  4  5  1  0  0  0  0
  5  6  2  0  0  0  0
  5 27  1  0  0  0  0
  6  7  1  0  0  0  0
  7  8  2  0  0  0  0
  7 28  1  0  0  0  0
  9 10  1  0  0  0  0
  9 29  1  0  0  0  0
 10 11  2  0  0  0  0
 10 12  1  0  0  0  0
 12 20  1  0  0  0  0
 12 13  1  0  0  0  0
 13 14  1  0  0  0  0
 13 30  1  0  0  0  0
 13 31  1  0  0  0  0
 14 15  1  0  0  0  0
 14 32  1  0  0  0  0
 14 33  1  0  0  0  0
 15 16  1  0  0  0  0
 15 34  1  0  0  0  0
 15 35  1  0  0  0  0
 16 17  1  0  0  0  0
 16 18  1  0  0  0  0
 16 19  1  0  0  0  0
 17 36  1  0  0  0  0
 17 37  1  0  0  0  0
 17 38  1  0  0  0  0
 18 39  1  0  0  0  0
 18 40  1  0  0  0  0
 18 41  1  0  0  0  0
 19 20  1  0  0  0  0
 19 42  1  0  0  0  0
 19 43  1  0  0  0  0
 20 44  1  0  0  0  0
 20 45  1  0  0  0  0
M  END
> <s_m_source_file>
AV-unprocessed.smi

> <i_m_source_file_index>
673

> <i_lp_mmshare_version>
43012

> <i_f3d_flags>
0

> <s_epik_input>
bjFbY0hdbltjSF1uMVtDSDJdW0NAQEhdKFtDSDNdKVtOSF1DKD1PKU4oW0NIMl1bQ0gyXTIpW0NIMl1bQ0gyXVtDSDJdQzIoW0NIM10pW0NIM10=

> <s_epik_cmdline>
J2VwaWtfcHl0aG9uJywgJy1waCcsICc3LjAnLCAnLXRuJywgJzgnLCAnLW1hJywgJzIwMCcsICctbWV0YWxfYmluZGluZycsICctaW1hZScsICc8aW5maWxlLm1hZT4nLCAnLW9tYWUnLCAnPG91dGZpbGUubWFlPic=

> <r_lp_tautomer_probability>
1

> <r_epik_Ionization_Penalty>
0.000118908

> <r_epik_Ionization_Penalty_Charging>
0

> <r_epik_Ionization_Penalty_Neutral>
0.000118908

> <r_epik_State_Penalty>
-0

> <r_epik_Charging_Adjusted_Penalty>
0

> <i_epik_Tot_Q>
0

> <i_epik_Tot_abs_Q>
0

> <r_epik_Metal_State_Penalty>
-0

> <b_epik_Metal_Only>
0

> <s_lp_Force_Field>
OPLS_2005

> <r_lp_Energy>
39.1702

> <b_lp_Chiralities_Consistent>
1

> <s_lp_Variant>
AV-unprocessed.smi:673-2

> <Gold.Version>
5.8.1

> <Gold.Id.Protein>
6NUR|6NUR_protein|mol2

> <Gold.PLP.Fitness>
35.6897

> <Gold.PLP.PLP>
-36.1143

> <Gold.PLP.part.hbond>
-1.5870

> <Gold.PLP.part.metal>
0.0000

> <Gold.PLP.part.buried>
-1.6024

> <Gold.PLP.part.nonpolar>
-32.7960

> <Gold.PLP.part.repulsive>
0.3476

> <Gold.PLP.ligand.clash>
0.0000

> <Gold.PLP.ligand.torsion>
0.2555

> <Gold.PLP.Chemscore.Hbond>
0.0000

> <Gold.PLP.Chemscore.CHOScore>
0.0000

> <Gold.PLP.Chemscore.Metal>
0.0000

> <Gold.PLP.Chemscore.Internal.Correction>
0.0864

> <Gold.Rescore>
     Score         DG    S(hbond)    S(metal)    S(lipo)     H(rot)  DE(clash)    DE(int)     intcor
      7.97      -8.27       0.00        0.00      64.59       1.86       0.03       0.27       ----

> <Gold.Chemscore.Fitness>
7.9724

> <Gold.Chemscore.DG>
-8.2715

> <Gold.Chemscore.ZeroCoef>
-5.4800

> <Gold.Chemscore.Hbond>
0.0000

> <Gold.Chemscore.Metal>
0.0000

> <Gold.Chemscore.Lipo>
64.5882

> <Gold.Chemscore.Internal_Hbond>
0.0000

> <Gold.Chemscore.DEClash>
0.0300

> <Gold.Chemscore.DEInternal>
0.2690

> <Gold.Chemscore.Rot>
1.8614

> <Gold.Chemscore.Internal.Correction>
   9.000000E+99

> <Gold.Chemscore.Hbond.Weighted>
-0.0000

> <Gold.Chemscore.Metal.Weighted>
-0.0000

> <Gold.Chemscore.Lipo.Weighted>
-7.5568

> <Gold.Chemscore.Internal_Hbond.Weighted>
0.0000

> <Gold.Chemscore.DEClash.Weighted>
0.0300

> <Gold.Chemscore.DEInternal.Weighted>
0.2690

> <Gold.Chemscore.Rot.Weighted>
4.7653

> <Gold.Chemscore.Internal.Correction.Weighted>
   9.000000E+99

> <Gold.Protein.RotatedTorsions>
[ 6907 6896 6895 6894 ] final -121.11 input  -60.11 | X-H torsion
[ 7974 7965 7964 7962 ] final -171.79 input  175.53 | X-H torsion
[ 8008 7997 7996 7995 ] final -160.83 input   59.86 | X-H torsion
[ 10167 10162 10161 10158 ] final -125.91 input  -65.29 | X-H torsion
[ 10718 10713 10712 10709 ] final   68.83 input   66.30 | X-H torsion
[ 10763 10752 10751 10750 ] final  -93.36 input  -60.55 | X-H torsion
[ 11005 11000 10999 10996 ] final -155.04 input  -57.11 | X-H torsion

> <Gold.Protein.ActiveResidues>
 VAL166  LYS551  ARG553  GLY616  TRP617  ASP618  TYR619  PRO620  LYS621  CYS622 
 ASP623  PHE694  ASN695  SER759  ASP760  ASP761  ALA762  ILE779  LEU786  VAL792 
 PHE793  MET794  SER795  GLU796  ALA797  LYS798  CYS799  TRP800  GLU811  SER814 

> <Gold.Protein.RotatedAtoms>
  150.8454  133.7870  159.3045 H   0  0  0  0  0  0  0  0  0  0  0  0  # atno 6907 bound_to 6896
  151.5559  135.1065  159.9970 H   0  0  0  0  0  0  0  0  0  0  0  0  # atno 6908 bound_to 6896
  152.4509  133.7584  159.6789 H   0  0  0  0  0  0  0  0  0  0  0  0  # atno 6909 bound_to 6896
  144.7153  140.1870  143.6352 H   0  0  0  0  0  0  0  0  0  0  0  0  # atno 7974 bound_to 7965
  155.7832  140.0868  157.2048 H   0  0  0  0  0  0  0  0  0  0  0  0  # atno 8008 bound_to 7997
  154.3989  140.1504  156.3134 H   0  0  0  0  0  0  0  0  0  0  0  0  # atno 8009 bound_to 7997
  155.8632  140.3429  155.5773 H   0  0  0  0  0  0  0  0  0  0  0  0  # atno 8010 bound_to 7997
  139.9771  143.5783  152.2392 H   0  0  0  0  0  0  0  0  0  0  0  0  # atno 10167 bound_to 10162
  157.6311  130.9394  150.0430 H   0  0  0  0  0  0  0  0  0  0  0  0  # atno 10718 bound_to 10713
  154.6951  135.5197  153.8447 H   0  0  0  0  0  0  0  0  0  0  0  0  # atno 10763 bound_to 10752
  153.0661  135.6585  154.0361 H   0  0  0  0  0  0  0  0  0  0  0  0  # atno 10764 bound_to 10752
  154.0229  135.2992  155.3358 H   0  0  0  0  0  0  0  0  0  0  0  0  # atno 10765 bound_to 10752
  140.6907  134.4044  157.5219 H   0  0  0  0  0  0  0  0  0  0  0  0  # atno 11005 bound_to 11000
  145.8804  139.2320  143.1609 LP  0  0  0  0  0  0  0  0  0  0  0  0  # atno 17320 bound_to 7965
  146.0000  140.8528  143.0023 LP  0  0  0  0  0  0  0  0  0  0  0  0  # atno 17321 bound_to 7965
  139.6438  144.7656  151.2286 LP  0  0  0  0  0  0  0  0  0  0  0  0  # atno 17342 bound_to 10162
  140.7502  143.6273  150.8456 LP  0  0  0  0  0  0  0  0  0  0  0  0  # atno 17343 bound_to 10162
  156.1516  130.3642  149.9430 LP  0  0  0  0  0  0  0  0  0  0  0  0  # atno 17370 bound_to 10713
  156.7449  130.9093  151.3634 LP  0  0  0  0  0  0  0  0  0  0  0  0  # atno 17371 bound_to 10713
  139.8924  134.8755  156.2272 LP  0  0  0  0  0  0  0  0  0  0  0  0  # atno 17394 bound_to 11000
  141.0243  133.7024  156.1321 LP  0  0  0  0  0  0  0  0  0  0  0  0  # atno 17395 bound_to 11000

$$$$
