AV-unprocessed.smi:72|AV-procd|sdf|709|dock10
  -GOLD-   2262017 33D 1   1.00000     0.00000
 Structure written by MMmdl.
 30 31  0  0  0  0  0  0  0  0  2 V2000
  147.8431  138.8854  152.5412 N   0  0  0  0  0  0  0  0  0  0  0  0
  148.7623  139.2546  153.5010 C   0  0  0  0  0  0  0  0  0  0  0  0
  149.8390  138.4131  153.7166 N   0  3  0  0  0  0  0  0  0  0  0  0
  150.8193  138.6274  154.6047 C   0  0  0  0  0  0  0  0  0  0  0  0
  150.7836  139.7162  155.3459 N   0  0  0  0  0  0  0  0  0  0  0  0
  151.8484  140.0102  156.3741 C   0  0  2  0  0  0  0  0  0  0  0  0
  152.8906  139.0954  156.2041 O   0  0  0  0  0  0  0  0  0  0  0  0
  152.9034  138.1568  157.2771 C   0  0  1  0  0  0  0  0  0  0  0  0
  154.3152  137.5743  157.4422 C   0  0  0  0  0  0  0  0  0  0  0  0
  154.6675  136.8386  156.2904 O   0  0  0  0  0  0  0  0  0  0  0  0
  152.4524  139.0264  158.4495 C   0  0  2  0  0  0  0  0  0  0  0  0
  152.0306  138.2775  159.5740 O   0  0  0  0  0  0  0  0  0  0  0  0
  151.3390  139.8610  157.8263 C   0  0  2  0  0  0  0  0  0  0  0  0
  150.0782  139.2122  157.9180 O   0  0  0  0  0  0  0  0  0  0  0  0
  149.7115  140.6343  155.2048 C   0  0  0  0  0  0  0  0  0  0  0  0
  149.6593  141.6434  155.9071 O   0  0  0  0  0  0  0  0  0  0  0  0
  148.7367  140.3259  154.2448 N   0  0  0  0  0  0  0  0  0  0  0  0
  152.2324  141.0048  156.1413 H   0  0  0  0  0  0  0  0  0  0  0  0
  152.1688  137.3685  157.1027 H   0  0  0  0  0  0  0  0  0  0  0  0
  153.2705  139.6836  158.7496 H   0  0  0  0  0  0  0  0  0  0  0  0
  151.2615  140.8434  158.2936 H   0  0  0  0  0  0  0  0  0  0  0  0
  147.0273  139.4374  152.3161 H   0  0  0  0  0  0  0  0  0  0  0  0
  147.9096  138.0406  151.9918 H   0  0  0  0  0  0  0  0  0  0  0  0
  151.6176  137.9033  154.6945 H   0  0  0  0  0  0  0  0  0  0  0  0
  155.0499  138.3568  157.6345 H   0  0  0  0  0  0  0  0  0  0  0  0
  154.3424  136.8883  158.2893 H   0  0  0  0  0  0  0  0  0  0  0  0
  155.3778  137.2849  155.8546 H   0  0  0  0  0  0  0  0  0  0  0  0
  152.6765  138.3703  160.2578 H   0  0  0  0  0  0  0  0  0  0  0  0
  150.1829  138.3145  157.6404 H   0  0  0  0  0  0  0  0  0  0  0  0
  149.8871  137.5717  153.1601 H   0  0  0  0  0  0  0  0  0  0  0  0
  1  2  1  0  0  0  0
  1 22  1  0  0  0  0
  1 23  1  0  0  0  0
  2 17  2  0  0  0  0
  2  3  1  0  0  0  0
  3  4  2  0  0  0  0
  3 30  1  0  0  0  0
  4  5  1  0  0  0  0
  4 24  1  0  0  0  0
  5  6  1  0  0  0  0
  5 15  1  0  0  0  0
  6 18  1  0  0  0  0
  6 13  1  0  0  0  0
  6  7  1  0  0  0  0
  7  8  1  0  0  0  0
  8 19  1  0  0  0  0
  8  9  1  0  0  0  0
  8 11  1  0  0  0  0
  9 10  1  0  0  0  0
  9 25  1  0  0  0  0
  9 26  1  0  0  0  0
 10 27  1  0  0  0  0
 11 20  1  0  0  0  0
 11 12  1  0  0  0  0
 11 13  1  0  0  0  0
 12 28  1  0  0  0  0
 13 21  1  0  0  0  0
 13 14  1  0  0  0  0
 14 29  1  0  0  0  0
 15 16  2  0  0  0  0
 15 17  1  0  0  0  0
M  CHG  1   3   1
M  END
> <s_m_source_file>
AV-unprocessed.smi

> <i_m_source_file_index>
72

> <i_lp_mmshare_version>
43012

> <i_f3d_flags>
0

> <s_epik_input>
W05IMl1jMW5bY0hdbihjKD1PKW4xKVtDQEBIXTJPW0NASF0oW0NIMl1bT0hdKVtDQEBIXShbT0hdKVtDQEhdMltPSF0=

> <s_epik_cmdline>
J2VwaWtfcHl0aG9uJywgJy1waCcsICc3LjAnLCAnLXRuJywgJzgnLCAnLW1hJywgJzIwMCcsICctbWV0YWxfYmluZGluZycsICctaW1hZScsICc8aW5maWxlLm1hZT4nLCAnLW9tYWUnLCAnPG91dGZpbGUubWFlPic=

> <r_lp_tautomer_probability>
4.77166e-05

> <r_epik_Ionization_Penalty>
0.104979

> <r_epik_Ionization_Penalty_Charging>
0.0999619

> <r_epik_Ionization_Penalty_Neutral>
0.00501745

> <r_epik_State_Penalty>
2.51541

> <r_epik_Charging_Adjusted_Penalty>
2.61537

> <i_epik_Tot_Q>
1

> <i_epik_Tot_abs_Q>
1

> <r_epik_Metal_State_Penalty>
3.53763

> <b_epik_Metal_Only>
0

> <s_epik_Chemistry_Notes>
This compound contains an acetal/aminal-like group ( X-CH(R)-Y where X, Y are N, S, or O) that may be acid/base labile, releasing an aldehyde.

> <s_lp_Force_Field>
OPLS_2005

> <r_lp_Energy>
36.649

> <b_lp_Chiralities_Consistent>
1

> <s_lp_Variant>
AV-unprocessed.smi:72-47

> <Gold.Version>
5.8.1

> <Gold.Id.Protein>
6NUR|6NUR_protein|mol2

> <Gold.PLP.Fitness>
35.5094

> <Gold.PLP.PLP>
-22.4314

> <Gold.PLP.part.hbond>
-5.8823

> <Gold.PLP.part.metal>
0.0000

> <Gold.PLP.part.buried>
-0.6860

> <Gold.PLP.part.nonpolar>
-17.1147

> <Gold.PLP.part.repulsive>
0.3672

> <Gold.PLP.ligand.clash>
0.0000

> <Gold.PLP.ligand.torsion>
0.1915

> <Gold.PLP.Chemscore.Hbond>
4.4484

> <Gold.PLP.Chemscore.CHOScore>
0.0000

> <Gold.PLP.Chemscore.Metal>
0.0000

> <Gold.Chemscore.Hbonds>
donor molecule, donor type, donor heavy atom, donor atom, acceptor molecule, acceptor atom, score
      L1  H     1    23       P1  7948  0.79
      L1  H     3    30       P1  7948  1.95
      P1  H  7997  8010       L1     7  1.00
      P1  H 10752 10764       L1    10  0.59

> <Gold.PLP.Chemscore.Internal.Correction>
0.1156

> <Gold.Rescore>
     Score         DG    S(hbond)    S(metal)    S(lipo)     H(rot)  DE(clash)    DE(int)     intcor
      3.64      -4.87       2.34        0.00      17.18       4.08       0.99       0.24       ----

> <Gold.Chemscore.Fitness>
3.6353

> <Gold.Chemscore.DG>
-4.8680

> <Gold.Chemscore.ZeroCoef>
-5.4800

> <Gold.Chemscore.Hbond>
2.3407

> <Gold.Chemscore.Metal>
0.0000

> <Gold.Chemscore.Lipo>
17.1824

> <Gold.Chemscore.Internal_Hbond>
0.0000

> <Gold.Chemscore.DEClash>
0.9889

> <Gold.Chemscore.DEInternal>
0.2438

> <Gold.Chemscore.Rot>
4.0783

> <Gold.Chemscore.Internal.Correction>
   9.000000E+99

> <Gold.Chemscore.Hbonds>
donor molecule, donor type, donor heavy atom, donor atom, acceptor molecule, acceptor atom, score
      L1  H     1    23       P1  7948  0.75
      L1  H     3    30       P1  7948  0.39
      P1  H  7997  8010       L1     7  0.39
      P1  H 10752 10764       L1    10  0.24

> <Gold.Chemscore.Hbond.Weighted>
-7.8180

> <Gold.Chemscore.Metal.Weighted>
-0.0000

> <Gold.Chemscore.Lipo.Weighted>
-2.0103

> <Gold.Chemscore.Internal_Hbond.Weighted>
0.0000

> <Gold.Chemscore.DEClash.Weighted>
0.9889

> <Gold.Chemscore.DEInternal.Weighted>
0.2438

> <Gold.Chemscore.Rot.Weighted>
10.4404

> <Gold.Chemscore.Internal.Correction.Weighted>
   9.000000E+99

> <Gold.Protein.RotatedTorsions>
[ 6907 6896 6895 6894 ] final  153.12 input  -60.11 | X-H torsion
[ 7974 7965 7964 7962 ] final  -90.50 input  175.53 | X-H torsion
[ 8008 7997 7996 7995 ] final   95.31 input   59.86 | X-H torsion
[ 10167 10162 10161 10158 ] final  -81.73 input  -65.29 | X-H torsion
[ 10718 10713 10712 10709 ] final  107.11 input   66.30 | X-H torsion
[ 10763 10752 10751 10750 ] final   51.67 input  -60.55 | X-H torsion
[ 11005 11000 10999 10996 ] final  -79.99 input  -57.11 | X-H torsion

> <Gold.Protein.ActiveResidues>
 VAL166  LYS551  ARG553  GLY616  TRP617  ASP618  TYR619  PRO620  LYS621  CYS622 
 ASP623  PHE694  ASN695  SER759  ASP760  ASP761  ALA762  ILE779  LEU786  VAL792 
 PHE793  MET794  SER795  GLU796  ALA797  LYS798  CYS799  TRP800  GLU811  SER814 

> <Gold.Protein.RotatedAtoms>
  152.0772  133.4135  159.4484 H   0  0  0  0  0  0  0  0  0  0  0  0  # atno 6907 bound_to 6896
  150.6862  134.3024  159.4721 H   0  0  0  0  0  0  0  0  0  0  0  0  # atno 6908 bound_to 6896
  152.0862  134.9438  160.0623 H   0  0  0  0  0  0  0  0  0  0  0  0  # atno 6909 bound_to 6896
  145.4256  140.9553  143.2156 H   0  0  0  0  0  0  0  0  0  0  0  0  # atno 7974 bound_to 7965
  156.0675  140.3288  155.7535 H   0  0  0  0  0  0  0  0  0  0  0  0  # atno 8008 bound_to 7997
  155.5358  140.0597  157.2897 H   0  0  0  0  0  0  0  0  0  0  0  0  # atno 8009 bound_to 7997
  154.4512  140.1919  156.0530 H   0  0  0  0  0  0  0  0  0  0  0  0  # atno 8010 bound_to 7997
  140.4385  143.2523  151.8660 H   0  0  0  0  0  0  0  0  0  0  0  0  # atno 10167 bound_to 10162
  157.6642  131.0865  150.6107 H   0  0  0  0  0  0  0  0  0  0  0  0  # atno 10718 bound_to 10713
  152.9786  135.5838  154.4454 H   0  0  0  0  0  0  0  0  0  0  0  0  # atno 10763 bound_to 10752
  154.4050  135.2769  155.2075 H   0  0  0  0  0  0  0  0  0  0  0  0  # atno 10764 bound_to 10752
  154.3889  135.6129  153.5886 H   0  0  0  0  0  0  0  0  0  0  0  0  # atno 10765 bound_to 10752
  141.1668  133.7130  156.8205 H   0  0  0  0  0  0  0  0  0  0  0  0  # atno 11005 bound_to 11000
  144.8216  139.5781  143.6984 LP  0  0  0  0  0  0  0  0  0  0  0  0  # atno 17320 bound_to 7965
  146.2634  139.6463  142.9346 LP  0  0  0  0  0  0  0  0  0  0  0  0  # atno 17321 bound_to 7965
  139.4788  144.5256  151.8740 LP  0  0  0  0  0  0  0  0  0  0  0  0  # atno 17342 bound_to 10162
  140.4346  144.2069  150.5889 LP  0  0  0  0  0  0  0  0  0  0  0  0  # atno 17343 bound_to 10162
  156.6408  130.4458  149.5753 LP  0  0  0  0  0  0  0  0  0  0  0  0  # atno 17370 bound_to 10713
  156.2210  130.6737  151.1368 LP  0  0  0  0  0  0  0  0  0  0  0  0  # atno 17371 bound_to 10713
  140.2122  134.8819  157.3287 LP  0  0  0  0  0  0  0  0  0  0  0  0  # atno 17394 bound_to 11000
  140.2074  134.4180  155.7630 LP  0  0  0  0  0  0  0  0  0  0  0  0  # atno 17395 bound_to 11000

$$$$
