AV-unprocessed.smi:994|AV-procd|sdf|4341|dock10
  -GOLD-   22720 2243D 1   1.00000     0.00000
 Structure written by MMmdl.
 37 38  0  0  0  0  0  0  0  0  2 V2000
  154.4311  141.0880  158.9661 O   0  0  0  0  0  0  0  0  0  0  0  0
  153.2008  141.0320  158.9752 C   0  0  0  0  0  0  0  0  0  0  0  0
  152.5055  139.9548  158.5797 N   0  0  0  0  0  0  0  0  0  0  0  0
  153.0749  138.6924  158.1102 C   0  0  2  0  0  0  0  0  0  0  0  0
  151.9882  137.9136  157.3380 C   0  0  0  0  0  0  0  0  0  0  0  0
  151.4128  138.6588  156.1572 C   0  0  0  0  0  0  0  0  0  0  0  0
  151.5733  139.9581  155.7277 C   0  0  0  0  0  0  0  0  0  0  0  0
  150.8381  140.1658  154.5578 N   0  0  0  0  0  0  0  0  0  0  0  0
  150.2643  138.9911  154.3240 C   0  0  0  0  0  0  0  0  0  0  0  0
  150.5656  138.0646  155.2376 N   0  0  0  0  0  0  0  0  0  0  0  0
  153.5344  137.8589  159.3159 C   0  0  0  0  0  0  0  0  0  0  0  0
  154.3456  138.3970  160.1008 O   0  0  0  0  0  0  0  0  0  0  0  0
  153.0744  136.7003  159.4342 O   0  5  0  0  0  0  0  0  0  0  0  0
  152.3750  142.2372  159.4434 C   0  0  0  0  0  0  0  0  0  0  0  0
  152.5270  143.4206  158.4640 C   0  0  0  0  0  0  0  0  0  0  0  0
  151.7124  144.6391  158.9288 C   0  0  0  0  0  0  0  0  0  0  0  0
  152.1017  145.0582  160.3555 C   0  0  0  0  0  0  0  0  0  0  0  0
  151.9616  143.8843  161.3376 C   0  0  0  0  0  0  0  0  0  0  0  0
  152.7765  142.6671  160.8706 C   0  0  0  0  0  0  0  0  0  0  0  0
  150.2474  137.1059  155.2496 H   0  0  0  0  0  0  0  0  0  0  0  0
  151.4988  139.9947  158.6385 H   0  0  0  0  0  0  0  0  0  0  0  0
  153.9264  138.8710  157.4504 H   0  0  0  0  0  0  0  0  0  0  0  0
  152.3995  136.9723  156.9706 H   0  0  0  0  0  0  0  0  0  0  0  0
  151.1624  137.6494  158.0008 H   0  0  0  0  0  0  0  0  0  0  0  0
  152.1620  140.7517  156.1640 H   0  0  0  0  0  0  0  0  0  0  0  0
  149.6194  138.8029  153.4784 H   0  0  0  0  0  0  0  0  0  0  0  0
  151.3234  141.9448  159.4621 H   0  0  0  0  0  0  0  0  0  0  0  0
  153.5771  143.7038  158.3757 H   0  0  0  0  0  0  0  0  0  0  0  0
  152.2027  143.1249  157.4650 H   0  0  0  0  0  0  0  0  0  0  0  0
  151.8652  145.4723  158.2421 H   0  0  0  0  0  0  0  0  0  0  0  0
  150.6486  144.4012  158.8945 H   0  0  0  0  0  0  0  0  0  0  0  0
  153.1313  145.4185  160.3621 H   0  0  0  0  0  0  0  0  0  0  0  0
  151.4797  145.8921  160.6815 H   0  0  0  0  0  0  0  0  0  0  0  0
  152.2883  144.1905  162.3316 H   0  0  0  0  0  0  0  0  0  0  0  0
  150.9109  143.6069  161.4289 H   0  0  0  0  0  0  0  0  0  0  0  0
  152.6287  141.8404  161.5671 H   0  0  0  0  0  0  0  0  0  0  0  0
  153.8390  142.9131  160.9058 H   0  0  0  0  0  0  0  0  0  0  0  0
  1  2  2  0  0  0  0
  2  3  1  0  0  0  0
  2 14  1  0  0  0  0
  3  4  1  0  0  0  0
  3 21  1  0  0  0  0
  4  5  1  0  0  0  0
  4 11  1  0  0  0  0
  4 22  1  0  0  0  0
  5 23  1  0  0  0  0
  5 24  1  0  0  0  0
  5  6  1  0  0  0  0
  6  7  2  0  0  0  0
  6 10  1  0  0  0  0
  7 25  1  0  0  0  0
  7  8  1  0  0  0  0
  8  9  2  0  0  0  0
  9 10  1  0  0  0  0
  9 26  1  0  0  0  0
 10 20  1  0  0  0  0
 11 12  2  0  0  0  0
 11 13  1  0  0  0  0
 14 19  1  0  0  0  0
 14 15  1  0  0  0  0
 14 27  1  0  0  0  0
 15 16  1  0  0  0  0
 15 28  1  0  0  0  0
 15 29  1  0  0  0  0
 16 17  1  0  0  0  0
 16 30  1  0  0  0  0
 16 31  1  0  0  0  0
 17 18  1  0  0  0  0
 17 32  1  0  0  0  0
 17 33  1  0  0  0  0
 18 19  1  0  0  0  0
 18 34  1  0  0  0  0
 18 35  1  0  0  0  0
 19 36  1  0  0  0  0
 19 37  1  0  0  0  0
M  CHG  1  13  -1
M  END
> <s_m_source_file>
AV-unprocessed.smi

> <i_m_source_file_index>
994

> <i_lp_mmshare_version>
43012

> <i_f3d_flags>
0

> <s_epik_input>
W0NIMl0xW0NIMl1bQ0gyXVtDSDJdW0NIMl1bQ0hdMUMoPU8pW05IXVtDQEBIXShDKD1PKVtPSF0pW0NIMl1jMltjSF1bbkhdW2NIXW4y

> <s_epik_cmdline>
J2VwaWtfcHl0aG9uJywgJy1waCcsICc3LjAnLCAnLXRuJywgJzgnLCAnLW1hJywgJzIwMCcsICctbWV0YWxfYmluZGluZycsICctaW1hZScsICc8aW5maWxlLm1hZT4nLCAnLW9tYWUnLCAnPG91dGZpbGUubWFlPic=

> <r_lp_tautomer_probability>
0.5

> <r_epik_Ionization_Penalty>
0.540742

> <r_epik_Ionization_Penalty_Charging>
0.540742

> <r_epik_Ionization_Penalty_Neutral>
4.77468e-08

> <r_epik_State_Penalty>
0.78427

> <r_epik_Charging_Adjusted_Penalty>
1.32501

> <i_epik_Tot_Q>
-1

> <i_epik_Tot_abs_Q>
1

> <r_epik_Metal_State_Penalty>
0.663709

> <b_epik_Metal_Only>
0

> <s_lp_Force_Field>
OPLS_2005

> <r_lp_Energy>
10.7007

> <b_lp_Chiralities_Consistent>
1

> <s_lp_Variant>
AV-unprocessed.smi:994-3

> <Gold.Version>
5.8.1

> <Gold.Id.Protein>
6NUR|6NUR_protein|mol2

> <Gold.PLP.Fitness>
48.4284

> <Gold.PLP.PLP>
-36.1020

> <Gold.PLP.part.hbond>
-2.9312

> <Gold.PLP.part.metal>
0.0000

> <Gold.PLP.part.buried>
-3.6122

> <Gold.PLP.part.nonpolar>
-29.8491

> <Gold.PLP.part.repulsive>
0.2379

> <Gold.PLP.ligand.clash>
0.0000

> <Gold.PLP.ligand.torsion>
0.4394

> <Gold.PLP.Chemscore.Hbond>
3.4049

> <Gold.PLP.Chemscore.CHOScore>
0.9827

> <Gold.PLP.Chemscore.Metal>
0.0000

> <Gold.Chemscore.Hbonds>
donor molecule, donor type, donor heavy atom, donor atom, acceptor molecule, acceptor atom, score
      P1  H  6896  6909       L1    13  1.62
      P1  H  7989  7998       L1     8  0.93
      P1  H  7997  8010       L1     1  0.41
      L1  C     9    26       P1  7957  0.75

> <Gold.PLP.Chemscore.Internal.Correction>
0.0423

> <Gold.Rescore>
     Score         DG    S(hbond)    S(metal)    S(lipo)     H(rot)  DE(clash)    DE(int)     intcor
     13.99     -16.34       2.19        0.00      88.33       2.66       0.60       1.74       ----

> <Gold.Chemscore.Fitness>
13.9940

> <Gold.Chemscore.DG>
-16.3379

> <Gold.Chemscore.ZeroCoef>
-5.4800

> <Gold.Chemscore.Hbond>
2.1939

> <Gold.Chemscore.Metal>
0.0000

> <Gold.Chemscore.Lipo>
88.3349

> <Gold.Chemscore.Internal_Hbond>
0.0000

> <Gold.Chemscore.DEClash>
0.6016

> <Gold.Chemscore.DEInternal>
1.7423

> <Gold.Chemscore.Rot>
2.6581

> <Gold.Chemscore.Internal.Correction>
   9.000000E+99

> <Gold.Chemscore.Hbonds>
donor molecule, donor type, donor heavy atom, donor atom, acceptor molecule, acceptor atom, score
      P1  H  6896  6909       L1    13  0.76
      P1  H  7989  7998       L1     8  0.74
      P1  H  7997  8010       L1     1  0.17

> <Gold.Chemscore.Hbond.Weighted>
-7.3276

> <Gold.Chemscore.Metal.Weighted>
-0.0000

> <Gold.Chemscore.Lipo.Weighted>
-10.3352

> <Gold.Chemscore.Internal_Hbond.Weighted>
0.0000

> <Gold.Chemscore.DEClash.Weighted>
0.6016

> <Gold.Chemscore.DEInternal.Weighted>
1.7423

> <Gold.Chemscore.Rot.Weighted>
6.8048

> <Gold.Chemscore.Internal.Correction.Weighted>
   9.000000E+99

> <Gold.Protein.RotatedTorsions>
[ 6907 6896 6895 6894 ] final  133.46 input  -60.11 | X-H torsion
[ 7974 7965 7964 7962 ] final -174.54 input  175.53 | X-H torsion
[ 8008 7997 7996 7995 ] final    9.09 input   59.86 | X-H torsion
[ 10167 10162 10161 10158 ] final  -98.08 input  -65.29 | X-H torsion
[ 10718 10713 10712 10709 ] final  173.78 input   66.30 | X-H torsion
[ 10763 10752 10751 10750 ] final  -59.26 input  -60.55 | X-H torsion
[ 11005 11000 10999 10996 ] final   98.12 input  -57.11 | X-H torsion

> <Gold.Protein.ActiveResidues>
 VAL166  LYS551  ARG553  GLY616  TRP617  ASP618  TYR619  PRO620  LYS621  CYS622 
 ASP623  PHE694  ASN695  SER759  ASP760  ASP761  ALA762  ILE779  LEU786  VAL792 
 PHE793  MET794  SER795  GLU796  ALA797  LYS798  CYS799  TRP800  GLU811  SER814 

> <Gold.Protein.RotatedAtoms>
  152.3217  133.5861  159.5748 H   0  0  0  0  0  0  0  0  0  0  0  0  # atno 6907 bound_to 6896
  150.7375  134.0001  159.3644 H   0  0  0  0  0  0  0  0  0  0  0  0  # atno 6908 bound_to 6896
  151.7885  135.0743  160.0435 H   0  0  0  0  0  0  0  0  0  0  0  0  # atno 6909 bound_to 6896
  144.7131  140.1456  143.6388 H   0  0  0  0  0  0  0  0  0  0  0  0  # atno 7974 bound_to 7965
  154.7754  140.2809  155.6105 H   0  0  0  0  0  0  0  0  0  0  0  0  # atno 8008 bound_to 7997
  156.2941  140.2633  156.2495 H   0  0  0  0  0  0  0  0  0  0  0  0  # atno 8009 bound_to 7997
  154.9848  140.0374  157.2283 H   0  0  0  0  0  0  0  0  0  0  0  0  # atno 8010 bound_to 7997
  140.2767  143.3308  152.0481 H   0  0  0  0  0  0  0  0  0  0  0  0  # atno 10167 bound_to 10162
  156.9592  131.0055  151.2931 H   0  0  0  0  0  0  0  0  0  0  0  0  # atno 10718 bound_to 10713
  154.2509  135.6326  153.5240 H   0  0  0  0  0  0  0  0  0  0  0  0  # atno 10763 bound_to 10752
  152.9912  135.5564  154.5808 H   0  0  0  0  0  0  0  0  0  0  0  0  # atno 10764 bound_to 10752
  154.5335  135.2890  155.1133 H   0  0  0  0  0  0  0  0  0  0  0  0  # atno 10765 bound_to 10752
  139.8773  134.9034  156.4408 H   0  0  0  0  0  0  0  0  0  0  0  0  # atno 11005 bound_to 11000
  145.9163  139.2518  143.1408 LP  0  0  0  0  0  0  0  0  0  0  0  0  # atno 17320 bound_to 7965
  145.9666  140.8794  143.0184 LP  0  0  0  0  0  0  0  0  0  0  0  0  # atno 17321 bound_to 7965
  139.4974  144.6620  151.6444 LP  0  0  0  0  0  0  0  0  0  0  0  0  # atno 17342 bound_to 10162
  140.5845  143.9887  150.6287 LP  0  0  0  0  0  0  0  0  0  0  0  0  # atno 17343 bound_to 10162
  157.5669  130.8284  149.8339 LP  0  0  0  0  0  0  0  0  0  0  0  0  # atno 17370 bound_to 10713
  156.0329  130.3759  150.1638 LP  0  0  0  0  0  0  0  0  0  0  0  0  # atno 17371 bound_to 10713
  140.9001  133.7786  155.9670 LP  0  0  0  0  0  0  0  0  0  0  0  0  # atno 17394 bound_to 11000
  140.8661  134.2783  157.5212 LP  0  0  0  0  0  0  0  0  0  0  0  0  # atno 17395 bound_to 11000

$$$$
