AV-unprocessed.smi:1713|AV-procd|sdf|6905|dock2
  -GOLD-   22720 8113D 1   1.00000     0.00000
 Structure written by MMmdl.
 38 39  0  0  0  0  0  0  0  0  1 V2000
  151.5563  129.8822  155.7673 C   0  0  0  0  0  0  0  0  0  0  0  0
  150.6908  130.7161  156.7189 C   0  0  0  0  0  0  0  0  0  0  0  0
  150.2210  131.9324  156.0857 N   0  0  0  0  0  0  0  0  0  0  0  0
  149.4680  132.0594  154.9354 C   0  0  0  0  0  0  0  0  0  0  0  0
  149.2964  133.3979  154.7494 C   0  0  0  0  0  0  0  0  0  0  0  0
  148.5804  133.9797  153.6736 N   0  0  0  0  0  0  0  0  0  0  0  0
  147.5246  133.4619  153.0256 C   0  0  0  0  0  0  0  0  0  0  0  0
  147.0136  132.3680  153.2656 O   0  0  0  0  0  0  0  0  0  0  0  0
  147.0878  134.2914  152.0670 N   0  0  0  0  0  0  0  0  0  0  0  0
  145.9579  134.0342  151.1788 C   0  0  2  0  0  0  0  0  0  0  0  0
  144.6411  133.9595  151.9799 C   0  0  0  0  0  0  0  0  0  0  0  0
  143.4496  133.6108  151.0731 C   0  0  0  0  0  0  0  0  0  0  0  0
  143.7020  132.3031  150.3035 C   0  0  1  0  0  0  0  0  0  0  0  0
  142.6205  132.0517  149.4316 O   0  0  0  0  0  0  0  0  0  0  0  0
  145.0080  132.3812  149.4944 C   0  0  0  0  0  0  0  0  0  0  0  0
  146.2005  132.7265  150.4009 C   0  0  0  0  0  0  0  0  0  0  0  0
  149.9750  134.0307  155.8293 C   0  0  0  0  0  0  0  0  0  0  0  0
  150.5322  133.1345  156.6302 N   0  0  0  0  0  0  0  0  0  0  0  0
  151.8993  128.9693  156.2542 H   0  0  0  0  0  0  0  0  0  0  0  0
  152.4368  130.4387  155.4448 H   0  0  0  0  0  0  0  0  0  0  0  0
  150.9965  129.5944  154.8768 H   0  0  0  0  0  0  0  0  0  0  0  0
  149.8259  130.1381  157.0467 H   0  0  0  0  0  0  0  0  0  0  0  0
  151.2554  130.9774  157.6151 H   0  0  0  0  0  0  0  0  0  0  0  0
  149.1322  131.2066  154.3642 H   0  0  0  0  0  0  0  0  0  0  0  0
  148.9020  134.8870  153.3695 H   0  0  0  0  0  0  0  0  0  0  0  0
  147.5708  135.1691  151.9428 H   0  0  0  0  0  0  0  0  0  0  0  0
  145.8842  134.8483  150.4549 H   0  0  0  0  0  0  0  0  0  0  0  0
  144.7288  133.2082  152.7660 H   0  0  0  0  0  0  0  0  0  0  0  0
  144.4501  134.9091  152.4813 H   0  0  0  0  0  0  0  0  0  0  0  0
  142.5429  133.5242  151.6732 H   0  0  0  0  0  0  0  0  0  0  0  0
  143.2796  134.4281  150.3708 H   0  0  0  0  0  0  0  0  0  0  0  0
  143.7628  131.4741  151.0097 H   0  0  0  0  0  0  0  0  0  0  0  0
  142.0298  132.7886  149.4648 H   0  0  0  0  0  0  0  0  0  0  0  0
  145.1926  131.4331  148.9876 H   0  0  0  0  0  0  0  0  0  0  0  0
  144.9171  133.1379  148.7138 H   0  0  0  0  0  0  0  0  0  0  0  0
  147.1055  132.8124  149.7983 H   0  0  0  0  0  0  0  0  0  0  0  0
  146.3709  131.9059  151.0994 H   0  0  0  0  0  0  0  0  0  0  0  0
  150.0875  135.0792  156.0606 H   0  0  0  0  0  0  0  0  0  0  0  0
  1  2  1  0  0  0  0
  1 19  1  0  0  0  0
  1 20  1  0  0  0  0
  1 21  1  0  0  0  0
  2  3  1  0  0  0  0
  2 22  1  0  0  0  0
  2 23  1  0  0  0  0
  3 18  1  0  0  0  0
  3  4  1  0  0  0  0
  4  5  2  0  0  0  0
  4 24  1  0  0  0  0
  5  6  1  0  0  0  0
  5 17  1  0  0  0  0
  6  7  1  0  0  0  0
  6 25  1  0  0  0  0
  7  8  2  0  0  0  0
  7  9  1  0  0  0  0
  9 10  1  0  0  0  0
  9 26  1  0  0  0  0
 10 16  1  0  0  0  0
 10 11  1  0  0  0  0
 10 27  1  0  0  0  0
 11 12  1  0  0  0  0
 11 28  1  0  0  0  0
 11 29  1  0  0  0  0
 12 13  1  0  0  0  0
 12 30  1  0  0  0  0
 12 31  1  0  0  0  0
 13 14  1  0  0  0  0
 13 15  1  0  0  0  0
 13 32  1  0  0  0  0
 14 33  1  0  0  0  0
 15 16  1  0  0  0  0
 15 34  1  0  0  0  0
 15 35  1  0  0  0  0
 16 36  1  0  0  0  0
 16 37  1  0  0  0  0
 17 18  2  0  0  0  0
 17 38  1  0  0  0  0
M  END
> <s_m_source_file>
AV-unprocessed.smi

> <i_m_source_file_index>
1713

> <i_lp_mmshare_version>
43012

> <i_f3d_flags>
0

> <s_epik_input>
W0NIM11bQ0gyXW4xW2NIXWMoW2NIXW4xKVtOSF1DKD1PKVtOSF1bQ0BASF0yW0NIMl1bQ0gyXVtDQEBIXShbT0hdKVtDSDJdW0NIMl0y

> <s_epik_cmdline>
J2VwaWtfcHl0aG9uJywgJy1waCcsICc3LjAnLCAnLXRuJywgJzgnLCAnLW1hJywgJzIwMCcsICctbWV0YWxfYmluZGluZycsICctaW1hZScsICc8aW5maWxlLm1hZT4nLCAnLW9tYWUnLCAnPG91dGZpbGUubWFlPic=

> <r_lp_tautomer_probability>
1

> <r_epik_Ionization_Penalty>
0.000190859

> <r_epik_Ionization_Penalty_Charging>
0

> <r_epik_Ionization_Penalty_Neutral>
0.000190859

> <r_epik_State_Penalty>
-0

> <r_epik_Charging_Adjusted_Penalty>
0

> <i_epik_Tot_Q>
0

> <i_epik_Tot_abs_Q>
0

> <r_epik_Metal_State_Penalty>
-0

> <b_epik_Metal_Only>
0

> <s_lp_Force_Field>
OPLS_2005

> <r_lp_Energy>
11.7927

> <b_lp_Chiralities_Consistent>
1

> <s_lp_Variant>
AV-unprocessed.smi:1713-1

> <Gold.Version>
5.8.1

> <Gold.Id.Protein>
6NUR|6NUR_protein|mol2

> <Gold.PLP.Fitness>
46.1478

> <Gold.PLP.PLP>
-35.5338

> <Gold.PLP.part.hbond>
-4.8387

> <Gold.PLP.part.metal>
0.0000

> <Gold.PLP.part.buried>
-1.9974

> <Gold.PLP.part.nonpolar>
-28.4920

> <Gold.PLP.part.repulsive>
0.1441

> <Gold.PLP.ligand.clash>
0.0000

> <Gold.PLP.ligand.torsion>
0.2144

> <Gold.PLP.Chemscore.Hbond>
3.6796

> <Gold.PLP.Chemscore.CHOScore>
0.0000

> <Gold.PLP.Chemscore.Metal>
0.0000

> <Gold.Chemscore.Hbonds>
donor molecule, donor type, donor heavy atom, donor atom, acceptor molecule, acceptor atom, score
      L1  H     6    25       P1  7948  0.91
      L1  H     9    26       P1  7948  1.00
      L1  H    14    33       P1 10186  1.00
      P1  H 10785 10796       L1    14  0.77

> <Gold.PLP.Chemscore.Internal.Correction>
0.0041

> <Gold.Rescore>
     Score         DG    S(hbond)    S(metal)    S(lipo)     H(rot)  DE(clash)    DE(int)     intcor
     15.93     -17.84       2.42        0.00      73.60       1.69       0.04       1.87       ----

> <Gold.Chemscore.Fitness>
15.9300

> <Gold.Chemscore.DG>
-17.8431

> <Gold.Chemscore.ZeroCoef>
-5.4800

> <Gold.Chemscore.Hbond>
2.4151

> <Gold.Chemscore.Metal>
0.0000

> <Gold.Chemscore.Lipo>
73.5998

> <Gold.Chemscore.Internal_Hbond>
0.0000

> <Gold.Chemscore.DEClash>
0.0386

> <Gold.Chemscore.DEInternal>
1.8745

> <Gold.Chemscore.Rot>
1.6853

> <Gold.Chemscore.Internal.Correction>
   9.000000E+99

> <Gold.Chemscore.Hbonds>
donor molecule, donor type, donor heavy atom, donor atom, acceptor molecule, acceptor atom, score
      L1  H     6    25       P1  7948  0.26
      L1  H     9    26       P1  7948  0.91
      L1  H    14    33       P1 10186  1.00
      P1  H 10785 10796       L1    14  0.17

> <Gold.Chemscore.Hbond.Weighted>
-8.0663

> <Gold.Chemscore.Metal.Weighted>
-0.0000

> <Gold.Chemscore.Lipo.Weighted>
-8.6112

> <Gold.Chemscore.Internal_Hbond.Weighted>
0.0000

> <Gold.Chemscore.DEClash.Weighted>
0.0386

> <Gold.Chemscore.DEInternal.Weighted>
1.8745

> <Gold.Chemscore.Rot.Weighted>
4.3144

> <Gold.Chemscore.Internal.Correction.Weighted>
   9.000000E+99

> <Gold.Protein.RotatedTorsions>
[ 6907 6896 6895 6894 ] final  163.11 input  -60.11 | X-H torsion
[ 7974 7965 7964 7962 ] final   65.25 input  175.53 | X-H torsion
[ 8008 7997 7996 7995 ] final  -25.98 input   59.86 | X-H torsion
[ 10167 10162 10161 10158 ] final  -75.58 input  -65.29 | X-H torsion
[ 10718 10713 10712 10709 ] final   30.83 input   66.30 | X-H torsion
[ 10763 10752 10751 10750 ] final   84.54 input  -60.55 | X-H torsion
[ 11005 11000 10999 10996 ] final  149.98 input  -57.11 | X-H torsion

> <Gold.Protein.ActiveResidues>
 VAL166  LYS551  ARG553  GLY616  TRP617  ASP618  TYR619  PRO620  LYS621  CYS622 
 ASP623  PHE694  ASN695  SER759  ASP760  ASP761  ALA762  ILE779  LEU786  VAL792 
 PHE793  MET794  SER795  GLU796  ALA797  LYS798  CYS799  TRP800  GLU811  SER814 

> <Gold.Protein.RotatedAtoms>
  151.9301  133.3609  159.3927 H   0  0  0  0  0  0  0  0  0  0  0  0  # atno 6907 bound_to 6896
  150.7019  134.4546  159.5361 H   0  0  0  0  0  0  0  0  0  0  0  0  # atno 6908 bound_to 6896
  152.2185  134.8435  160.0539 H   0  0  0  0  0  0  0  0  0  0  0  0  # atno 6909 bound_to 6896
  145.8407  139.3194  143.0933 H   0  0  0  0  0  0  0  0  0  0  0  0  # atno 7974 bound_to 7965
  154.4448  140.1912  156.0704 H   0  0  0  0  0  0  0  0  0  0  0  0  # atno 8008 bound_to 7997
  156.0516  140.3308  155.7330 H   0  0  0  0  0  0  0  0  0  0  0  0  # atno 8009 bound_to 7997
  155.5549  140.0598  157.2832 H   0  0  0  0  0  0  0  0  0  0  0  0  # atno 8010 bound_to 7997
  140.4931  143.2376  151.7875 H   0  0  0  0  0  0  0  0  0  0  0  0  # atno 10167 bound_to 10162
  157.2646  130.7178  149.6472 H   0  0  0  0  0  0  0  0  0  0  0  0  # atno 10718 bound_to 10713
  153.1391  135.4650  154.9468 H   0  0  0  0  0  0  0  0  0  0  0  0  # atno 10763 bound_to 10752
  154.7732  135.3165  154.8150 H   0  0  0  0  0  0  0  0  0  0  0  0  # atno 10764 bound_to 10752
  153.8676  135.6906  153.4831 H   0  0  0  0  0  0  0  0  0  0  0  0  # atno 10765 bound_to 10752
  140.1092  134.8935  157.1911 H   0  0  0  0  0  0  0  0  0  0  0  0  # atno 11005 bound_to 11000
  145.9468  140.8939  143.0279 LP  0  0  0  0  0  0  0  0  0  0  0  0  # atno 17320 bound_to 7965
  144.6734  140.1625  143.7421 LP  0  0  0  0  0  0  0  0  0  0  0  0  # atno 17321 bound_to 7965
  139.4855  144.4623  151.9526 LP  0  0  0  0  0  0  0  0  0  0  0  0  # atno 17342 bound_to 10162
  140.3710  144.2855  150.5920 LP  0  0  0  0  0  0  0  0  0  0  0  0  # atno 17343 bound_to 10162
  155.9663  130.4386  150.5226 LP  0  0  0  0  0  0  0  0  0  0  0  0  # atno 17370 bound_to 10713
  157.3138  131.0669  151.1982 LP  0  0  0  0  0  0  0  0  0  0  0  0  # atno 17371 bound_to 10713
  140.3114  134.3019  155.7266 LP  0  0  0  0  0  0  0  0  0  0  0  0  # atno 17394 bound_to 11000
  141.2126  133.7653  156.9782 LP  0  0  0  0  0  0  0  0  0  0  0  0  # atno 17395 bound_to 11000

$$$$
