AV-unprocessed.smi:1570|AV-procd|sdf|6313|dock3
  -GOLD-   22720 6513D 1   1.00000     0.00000
 Structure written by MMmdl.
 51 53  0  0  0  0  0  0  0  0  1 V2000
  155.4922  140.7598  159.8953 C   0  0  0  0  0  0  0  0  0  0  0  0
  154.2688  141.2885  160.6543 C   0  0  0  0  0  0  0  0  0  0  0  0
  153.2085  141.6920  159.7339 N   0  0  0  0  0  0  0  0  0  0  0  0
  152.7829  141.0087  158.6457 C   0  0  0  0  0  0  0  0  0  0  0  0
  153.2250  139.9292  158.2525 O   0  0  0  0  0  0  0  0  0  0  0  0
  151.7818  141.7148  158.0683 N   0  0  0  0  0  0  0  0  0  0  0  0
  151.0500  141.3470  156.8539 C   0  0  0  0  0  0  0  0  0  0  0  0
  149.5261  141.2279  157.0881 C   0  0  1  0  0  0  0  0  0  0  0  0
  148.8303  142.0578  156.1812 O   0  0  0  0  0  0  0  0  0  0  0  0
  148.9554  139.7899  157.0560 C   0  0  0  0  0  0  0  0  0  0  0  0
  149.4429  138.8680  158.0840 N   0  0  0  0  0  0  0  0  0  0  0  0
  150.8622  138.5558  157.9457 C   0  0  0  0  0  0  0  0  0  0  0  0
  151.3462  137.5803  159.0361 C   0  0  2  0  0  0  0  0  0  0  0  0
  152.8109  137.1752  158.8411 C   0  0  0  0  0  0  0  0  0  0  0  0
  150.5465  136.4014  159.0013 O   0  0  0  0  0  0  0  0  0  0  0  0
  149.1568  136.6586  159.1814 C   0  0  2  0  0  0  0  0  0  0  0  0
  148.4082  135.3224  159.1424 C   0  0  0  0  0  0  0  0  0  0  0  0
  148.6813  137.6254  158.0812 C   0  0  0  0  0  0  0  0  0  0  0  0
  151.5373  142.8687  158.8315 C   0  0  0  0  0  0  0  0  0  0  0  0
  150.6006  143.9068  158.6760 C   0  0  0  0  0  0  0  0  0  0  0  0
  150.6219  144.9498  159.6306 C   0  0  0  0  0  0  0  0  0  0  0  0
  151.5517  144.9352  160.7016 C   0  0  0  0  0  0  0  0  0  0  0  0
  152.4798  143.8771  160.8401 C   0  0  0  0  0  0  0  0  0  0  0  0
  152.4400  142.8557  159.8747 C   0  0  0  0  0  0  0  0  0  0  0  0
  156.2744  140.4505  160.5887 H   0  0  0  0  0  0  0  0  0  0  0  0
  155.9119  141.5250  159.2413 H   0  0  0  0  0  0  0  0  0  0  0  0
  155.2333  139.8974  159.2801 H   0  0  0  0  0  0  0  0  0  0  0  0
  153.8925  140.5250  161.3358 H   0  0  0  0  0  0  0  0  0  0  0  0
  154.5581  142.1340  161.2801 H   0  0  0  0  0  0  0  0  0  0  0  0
  151.2462  142.1019  156.0909 H   0  0  0  0  0  0  0  0  0  0  0  0
  151.4393  140.4134  156.4487 H   0  0  0  0  0  0  0  0  0  0  0  0
  149.2979  141.6385  158.0720 H   0  0  0  0  0  0  0  0  0  0  0  0
  149.1615  142.9389  156.2678 H   0  0  0  0  0  0  0  0  0  0  0  0
  147.8764  139.8880  157.1829 H   0  0  0  0  0  0  0  0  0  0  0  0
  149.0881  139.3549  156.0641 H   0  0  0  0  0  0  0  0  0  0  0  0
  151.0505  138.1266  156.9604 H   0  0  0  0  0  0  0  0  0  0  0  0
  151.4554  139.4669  158.0097 H   0  0  0  0  0  0  0  0  0  0  0  0
  151.2407  138.0478  160.0164 H   0  0  0  0  0  0  0  0  0  0  0  0
  153.4661  138.0462  158.8715 H   0  0  0  0  0  0  0  0  0  0  0  0
  152.9584  136.6781  157.8819 H   0  0  0  0  0  0  0  0  0  0  0  0
  153.1330  136.4896  159.6250 H   0  0  0  0  0  0  0  0  0  0  0  0
  149.0052  137.1158  160.1607 H   0  0  0  0  0  0  0  0  0  0  0  0
  147.3378  135.4684  159.2891 H   0  0  0  0  0  0  0  0  0  0  0  0
  148.7632  134.6545  159.9277 H   0  0  0  0  0  0  0  0  0  0  0  0
  148.5502  134.8181  158.1862 H   0  0  0  0  0  0  0  0  0  0  0  0
  147.6227  137.8426  158.2294 H   0  0  0  0  0  0  0  0  0  0  0  0
  148.7680  137.1420  157.1068 H   0  0  0  0  0  0  0  0  0  0  0  0
  149.8948  143.9204  157.8595 H   0  0  0  0  0  0  0  0  0  0  0  0
  149.9218  145.7676  159.5418 H   0  0  0  0  0  0  0  0  0  0  0  0
  151.5505  145.7412  161.4206 H   0  0  0  0  0  0  0  0  0  0  0  0
  153.1876  143.8593  161.6555 H   0  0  0  0  0  0  0  0  0  0  0  0
  1  2  1  0  0  0  0
  1 25  1  0  0  0  0
  1 26  1  0  0  0  0
  1 27  1  0  0  0  0
  2  3  1  0  0  0  0
  2 28  1  0  0  0  0
  2 29  1  0  0  0  0
  3 24  1  0  0  0  0
  3  4  1  0  0  0  0
  4  5  2  0  0  0  0
  4  6  1  0  0  0  0
  6  7  1  0  0  0  0
  6 19  1  0  0  0  0
  7  8  1  0  0  0  0
  7 30  1  0  0  0  0
  7 31  1  0  0  0  0
  8  9  1  0  0  0  0
  8 10  1  0  0  0  0
  8 32  1  0  0  0  0
  9 33  1  0  0  0  0
 10 11  1  0  0  0  0
 10 34  1  0  0  0  0
 10 35  1  0  0  0  0
 11 18  1  0  0  0  0
 11 12  1  0  0  0  0
 12 13  1  0  0  0  0
 12 36  1  0  0  0  0
 12 37  1  0  0  0  0
 13 14  1  0  0  0  0
 13 15  1  0  0  0  0
 13 38  1  0  0  0  0
 14 39  1  0  0  0  0
 14 40  1  0  0  0  0
 14 41  1  0  0  0  0
 15 16  1  0  0  0  0
 16 17  1  0  0  0  0
 16 18  1  0  0  0  0
 16 42  1  0  0  0  0
 17 43  1  0  0  0  0
 17 44  1  0  0  0  0
 17 45  1  0  0  0  0
 18 46  1  0  0  0  0
 18 47  1  0  0  0  0
 19 24  2  0  0  0  0
 19 20  1  0  0  0  0
 20 21  2  0  0  0  0
 20 48  1  0  0  0  0
 21 22  1  0  0  0  0
 21 49  1  0  0  0  0
 22 23  2  0  0  0  0
 22 50  1  0  0  0  0
 23 24  1  0  0  0  0
 23 51  1  0  0  0  0
M  END
> <s_m_source_file>
AV-unprocessed.smi

> <i_m_source_file_index>
1570

> <i_lp_mmshare_version>
43012

> <i_f3d_flags>
0

> <s_epik_input>
W2NIXTFbY0hdW2NIXVtjSF1jKGMxMiluKFtDSDJdW0NIM10pYyg9TyluMltDSDJdW0NASF0oW09IXSlbQ0gyXU4zW0NIMl1bQ0BASF0oW0NIM10pT1tDQEBIXShbQ0gzXSlbQ0gyXTM=

> <s_epik_cmdline>
J2VwaWtfcHl0aG9uJywgJy1waCcsICc3LjAnLCAnLXRuJywgJzgnLCAnLW1hJywgJzIwMCcsICctbWV0YWxfYmluZGluZycsICctaW1hZScsICc8aW5maWxlLm1hZT4nLCAnLW9tYWUnLCAnPG91dGZpbGUubWFlPic=

> <r_epik_Ionization_Penalty>
0.214359

> <r_epik_Ionization_Penalty_Charging>
2.30976e-09

> <r_epik_Ionization_Penalty_Neutral>
0.214359

> <r_epik_State_Penalty>
0.204533

> <r_epik_Charging_Adjusted_Penalty>
0.204533

> <i_epik_Tot_Q>
0

> <i_epik_Tot_abs_Q>
0

> <r_epik_Metal_State_Penalty>
0.204533

> <b_epik_Metal_Only>
0

> <s_lp_Force_Field>
OPLS_2005

> <r_lp_Energy>
59.6928

> <b_lp_Chiralities_Consistent>
1

> <s_lp_Variant>
AV-unprocessed.smi:1570-2

> <Gold.Version>
5.8.1

> <Gold.Id.Protein>
6NUR|6NUR_protein|mol2

> <Gold.PLP.Fitness>
53.7675

> <Gold.PLP.PLP>
-46.9542

> <Gold.PLP.part.hbond>
-3.0000

> <Gold.PLP.part.metal>
0.0000

> <Gold.PLP.part.buried>
-7.5682

> <Gold.PLP.part.nonpolar>
-37.0991

> <Gold.PLP.part.repulsive>
0.0000

> <Gold.PLP.ligand.clash>
0.0000

> <Gold.PLP.ligand.torsion>
0.9918

> <Gold.PLP.Chemscore.Hbond>
2.8960

> <Gold.PLP.Chemscore.CHOScore>
0.0000

> <Gold.PLP.Chemscore.Metal>
0.0000

> <Gold.Chemscore.Hbonds>
donor molecule, donor type, donor heavy atom, donor atom, acceptor molecule, acceptor atom, score
      L1  H     9    33       P1  8028  0.85
      P1  H  6896  6909       L1    15  0.93
      P1  H  7997  8008       L1     5  1.00

> <Gold.PLP.Chemscore.Internal.Correction>
0.1088

> <Gold.Rescore>
     Score         DG    S(hbond)    S(metal)    S(lipo)     H(rot)  DE(clash)    DE(int)     intcor
     19.41     -22.95       2.59        0.00     120.54       2.06       0.15       3.39       ----

> <Gold.Chemscore.Fitness>
19.4062

> <Gold.Chemscore.DG>
-22.9515

> <Gold.Chemscore.ZeroCoef>
-5.4800

> <Gold.Chemscore.Hbond>
2.5855

> <Gold.Chemscore.Metal>
0.0000

> <Gold.Chemscore.Lipo>
120.5376

> <Gold.Chemscore.Internal_Hbond>
0.0000

> <Gold.Chemscore.DEClash>
0.1526

> <Gold.Chemscore.DEInternal>
3.3927

> <Gold.Chemscore.Rot>
2.0574

> <Gold.Chemscore.Internal.Correction>
   9.000000E+99

> <Gold.Chemscore.Hbonds>
donor molecule, donor type, donor heavy atom, donor atom, acceptor molecule, acceptor atom, score
      L1  H     9    33       P1  8028  0.83
      P1  H  6896  6909       L1    15  0.49
      P1  H  7997  8008       L1     5  0.88

> <Gold.Chemscore.Hbond.Weighted>
-8.6355

> <Gold.Chemscore.Metal.Weighted>
-0.0000

> <Gold.Chemscore.Lipo.Weighted>
-14.1029

> <Gold.Chemscore.Internal_Hbond.Weighted>
0.0000

> <Gold.Chemscore.DEClash.Weighted>
0.1526

> <Gold.Chemscore.DEInternal.Weighted>
3.3927

> <Gold.Chemscore.Rot.Weighted>
5.2669

> <Gold.Chemscore.Internal.Correction.Weighted>
   9.000000E+99

> <Gold.Protein.RotatedTorsions>
[ 6907 6896 6895 6894 ] final   67.39 input  -60.11 | X-H torsion
[ 7974 7965 7964 7962 ] final   91.87 input  175.53 | X-H torsion
[ 8008 7997 7996 7995 ] final  -94.77 input   59.86 | X-H torsion
[ 10167 10162 10161 10158 ] final -145.05 input  -65.29 | X-H torsion
[ 10718 10713 10712 10709 ] final    3.85 input   66.30 | X-H torsion
[ 10763 10752 10751 10750 ] final    5.66 input  -60.55 | X-H torsion
[ 11005 11000 10999 10996 ] final -174.86 input  -57.11 | X-H torsion

> <Gold.Protein.ActiveResidues>
 VAL166  LYS551  ARG553  GLY616  TRP617  ASP618  TYR619  PRO620  LYS621  CYS622 
 ASP623  PHE694  ASN695  SER759  ASP760  ASP761  ALA762  ILE779  LEU786  VAL792 
 PHE793  MET794  SER795  GLU796  ALA797  LYS798  CYS799  TRP800  GLU811  SER814 

> <Gold.Protein.RotatedAtoms>
  152.4548  134.5315  159.9812 H   0  0  0  0  0  0  0  0  0  0  0  0  # atno 6907 bound_to 6896
  151.5378  133.3432  159.2938 H   0  0  0  0  0  0  0  0  0  0  0  0  # atno 6908 bound_to 6896
  150.8489  134.7838  159.7055 H   0  0  0  0  0  0  0  0  0  0  0  0  # atno 6909 bound_to 6896
  145.4999  139.2276  143.2783 H   0  0  0  0  0  0  0  0  0  0  0  0  # atno 7974 bound_to 7965
  154.7527  140.0486  157.0907 H   0  0  0  0  0  0  0  0  0  0  0  0  # atno 8008 bound_to 7997
  155.0037  140.3127  155.4838 H   0  0  0  0  0  0  0  0  0  0  0  0  # atno 8009 bound_to 7997
  156.2888  140.2197  156.5148 H   0  0  0  0  0  0  0  0  0  0  0  0  # atno 8010 bound_to 7997
  139.7842  143.8058  152.2642 H   0  0  0  0  0  0  0  0  0  0  0  0  # atno 10167 bound_to 10162
  156.8839  130.5663  149.5652 H   0  0  0  0  0  0  0  0  0  0  0  0  # atno 10718 bound_to 10713
  153.2568  135.6919  153.7620 H   0  0  0  0  0  0  0  0  0  0  0  0  # atno 10763 bound_to 10752
  153.6695  135.3347  155.3150 H   0  0  0  0  0  0  0  0  0  0  0  0  # atno 10764 bound_to 10752
  154.8415  135.4496  154.1544 H   0  0  0  0  0  0  0  0  0  0  0  0  # atno 10765 bound_to 10752
  140.4697  134.6176  157.4877 H   0  0  0  0  0  0  0  0  0  0  0  0  # atno 11005 bound_to 11000
  146.2232  140.5799  142.9008 LP  0  0  0  0  0  0  0  0  0  0  0  0  # atno 17320 bound_to 7965
  144.7786  140.5792  143.6621 LP  0  0  0  0  0  0  0  0  0  0  0  0  # atno 17321 bound_to 7965
  139.8129  144.7328  150.9673 LP  0  0  0  0  0  0  0  0  0  0  0  0  # atno 17342 bound_to 10162
  140.7819  143.4233  151.0808 LP  0  0  0  0  0  0  0  0  0  0  0  0  # atno 17343 bound_to 10162
  156.0663  130.5705  150.9295 LP  0  0  0  0  0  0  0  0  0  0  0  0  # atno 17370 bound_to 10713
  157.6124  131.0935  150.8771 LP  0  0  0  0  0  0  0  0  0  0  0  0  # atno 17371 bound_to 10713
  139.9893  134.7011  155.9718 LP  0  0  0  0  0  0  0  0  0  0  0  0  # atno 17394 bound_to 11000
  141.1582  133.6541  156.4232 LP  0  0  0  0  0  0  0  0  0  0  0  0  # atno 17395 bound_to 11000

$$$$
