AV-unprocessed.smi:2149|AV-procd|sdf|8754|dock9
  -GOLD-   2272011533D 1   1.00000     0.00000
 Structure written by MMmdl.
 43 44  0  0  0  0  0  0  0  0  2 V2000
  151.8177  139.5081  157.1916 C   0  0  0  0  0  0  0  0  0  0  0  0
  152.5124  138.2901  156.0013 S   0  0  0  0  0  0  0  0  0  0  0  0
  153.5983  138.9455  155.2569 O   0  0  0  0  0  0  0  0  0  0  0  0
  152.7770  137.0389  156.7290 O   0  0  0  0  0  0  0  0  0  0  0  0
  151.2094  137.9928  154.8867 N   0  0  0  0  0  0  0  0  0  0  0  0
  150.4187  139.1195  154.3494 C   0  0  0  0  0  0  0  0  0  0  0  0
  149.0496  139.2402  155.0447 C   0  0  0  0  0  0  0  0  0  0  0  0
  148.2848  137.9104  155.0155 C   0  0  0  0  0  0  0  0  0  0  0  0
  149.1480  136.8112  155.6568 C   0  0  1  0  0  0  0  0  0  0  0  0
  148.4370  135.4527  155.6651 C   0  0  0  0  0  0  0  0  0  0  0  0
  148.0081  134.9769  156.7163 O   0  0  0  0  0  0  0  0  0  0  0  0
  148.2801  134.8605  154.4715 N   0  0  0  0  0  0  0  0  0  0  0  0
  147.4987  133.6525  154.2246 C   0  0  0  0  0  0  0  0  0  0  0  0
  147.7444  133.0539  152.8222 C   0  0  0  0  0  0  0  0  0  0  0  0
  146.4855  132.9363  151.9777 C   0  0  0  0  0  0  0  0  0  0  0  0
  145.2551  133.4968  152.3856 C   0  0  0  0  0  0  0  0  0  0  0  0
  144.1317  133.3874  151.5402 C   0  0  0  0  0  0  0  0  0  0  0  0
  144.2595  132.7122  150.3091 C   0  0  0  0  0  0  0  0  0  0  0  0
  145.5085  132.1618  149.9554 C   0  0  0  0  0  0  0  0  0  0  0  0
  146.5629  132.2917  150.7911 N   0  3  0  0  0  0  0  0  0  0  0  0
  150.4979  136.7010  154.9164 C   0  0  0  0  0  0  0  0  0  0  0  0
  152.5874  139.7760  157.9150 H   0  0  0  0  0  0  0  0  0  0  0  0
  150.9732  139.0718  157.7213 H   0  0  0  0  0  0  0  0  0  0  0  0
  151.5043  140.4064  156.6622 H   0  0  0  0  0  0  0  0  0  0  0  0
  150.9749  140.0519  154.4416 H   0  0  0  0  0  0  0  0  0  0  0  0
  150.2703  138.9543  153.2816 H   0  0  0  0  0  0  0  0  0  0  0  0
  149.1817  139.5630  156.0768 H   0  0  0  0  0  0  0  0  0  0  0  0
  148.4583  140.0165  154.5583 H   0  0  0  0  0  0  0  0  0  0  0  0
  147.3389  138.0149  155.5489 H   0  0  0  0  0  0  0  0  0  0  0  0
  148.0385  137.6525  153.9842 H   0  0  0  0  0  0  0  0  0  0  0  0
  149.3362  137.0953  156.6920 H   0  0  0  0  0  0  0  0  0  0  0  0
  148.6799  135.3160  153.6638 H   0  0  0  0  0  0  0  0  0  0  0  0
  147.7950  132.9256  154.9810 H   0  0  0  0  0  0  0  0  0  0  0  0
  146.4360  133.8436  154.3812 H   0  0  0  0  0  0  0  0  0  0  0  0
  148.4817  133.6541  152.2874 H   0  0  0  0  0  0  0  0  0  0  0  0
  148.1858  132.0617  152.9247 H   0  0  0  0  0  0  0  0  0  0  0  0
  145.1752  134.0195  153.3279 H   0  0  0  0  0  0  0  0  0  0  0  0
  143.1856  133.8203  151.8309 H   0  0  0  0  0  0  0  0  0  0  0  0
  143.4115  132.6192  149.6462 H   0  0  0  0  0  0  0  0  0  0  0  0
  145.6956  131.6298  149.0341 H   0  0  0  0  0  0  0  0  0  0  0  0
  150.3373  136.3781  153.8865 H   0  0  0  0  0  0  0  0  0  0  0  0
  151.1275  135.9420  155.3783 H   0  0  0  0  0  0  0  0  0  0  0  0
  147.4586  131.8918  150.5107 H   0  0  0  0  0  0  0  0  0  0  0  0
  1  2  1  0  0  0  0
  1 22  1  0  0  0  0
  1 23  1  0  0  0  0
  1 24  1  0  0  0  0
  2  3  2  0  0  0  0
  2  4  2  0  0  0  0
  2  5  1  0  0  0  0
  5 21  1  0  0  0  0
  5  6  1  0  0  0  0
  6  7  1  0  0  0  0
  6 25  1  0  0  0  0
  6 26  1  0  0  0  0
  7  8  1  0  0  0  0
  7 27  1  0  0  0  0
  7 28  1  0  0  0  0
  8  9  1  0  0  0  0
  8 29  1  0  0  0  0
  8 30  1  0  0  0  0
  9 10  1  0  0  0  0
  9 21  1  0  0  0  0
  9 31  1  0  0  0  0
 10 11  2  0  0  0  0
 10 12  1  0  0  0  0
 12 13  1  0  0  0  0
 12 32  1  0  0  0  0
 13 14  1  0  0  0  0
 13 33  1  0  0  0  0
 13 34  1  0  0  0  0
 14 15  1  0  0  0  0
 14 35  1  0  0  0  0
 14 36  1  0  0  0  0
 15 20  1  0  0  0  0
 15 16  2  0  0  0  0
 16 17  1  0  0  0  0
 16 37  1  0  0  0  0
 17 18  2  0  0  0  0
 17 38  1  0  0  0  0
 18 19  1  0  0  0  0
 18 39  1  0  0  0  0
 19 20  2  0  0  0  0
 19 40  1  0  0  0  0
 20 43  1  0  0  0  0
 21 41  1  0  0  0  0
 21 42  1  0  0  0  0
M  CHG  1  20   1
M  END
> <s_m_source_file>
AV-unprocessed.smi

> <i_m_source_file_index>
2149

> <i_lp_mmshare_version>
43012

> <i_f3d_flags>
0

> <s_epik_input>
W0NIM11TKD1PKSg9TylOMVtDSDJdW0NIMl1bQ0gyXVtDQEhdKFtDSDJdMSlDKD1PKVtOSF1bQ0gyXVtDSDJdYzJbY0hdW2NIXVtjSF1bY0hdbjI=

> <s_epik_cmdline>
J2VwaWtfcHl0aG9uJywgJy1waCcsICc3LjAnLCAnLXRuJywgJzgnLCAnLW1hJywgJzIwMCcsICctbWV0YWxfYmluZGluZycsICctaW1hZScsICc8aW5maWxlLm1hZT4nLCAnLW9tYWUnLCAnPG91dGZpbGUubWFlPic=

> <r_epik_Ionization_Penalty>
1.83523

> <r_epik_Ionization_Penalty_Charging>
1.83523

> <r_epik_Ionization_Penalty_Neutral>
2.62835e-08

> <r_epik_State_Penalty>
1.95153

> <r_epik_Charging_Adjusted_Penalty>
3.78676

> <i_epik_Tot_Q>
1

> <i_epik_Tot_abs_Q>
1

> <r_epik_Metal_State_Penalty>
1.97791

> <b_epik_Metal_Only>
0

> <s_lp_Force_Field>
OPLS_2005

> <r_lp_Energy>
6.48015

> <b_lp_Chiralities_Consistent>
1

> <s_lp_Variant>
AV-unprocessed.smi:2149-3

> <Gold.Version>
5.8.1

> <Gold.Id.Protein>
6NUR|6NUR_protein|mol2

> <Gold.PLP.Fitness>
46.2037

> <Gold.PLP.PLP>
-36.3829

> <Gold.PLP.part.hbond>
-3.9243

> <Gold.PLP.part.metal>
0.0000

> <Gold.PLP.part.buried>
-5.9834

> <Gold.PLP.part.nonpolar>
-28.2624

> <Gold.PLP.part.repulsive>
0.0840

> <Gold.PLP.ligand.clash>
0.0000

> <Gold.PLP.ligand.torsion>
1.7506

> <Gold.PLP.Chemscore.Hbond>
3.7360

> <Gold.PLP.Chemscore.CHOScore>
0.0000

> <Gold.PLP.Chemscore.Metal>
0.0000

> <Gold.Chemscore.Hbonds>
donor molecule, donor type, donor heavy atom, donor atom, acceptor molecule, acceptor atom, score
      L1  H    12    32       P1  7948  1.00
      L1  H    20    43       P1 10747  1.00
      P1  H  7997  8009       L1     3  0.90
      P1  H 10752 10763       L1     4  0.36

> <Gold.PLP.Chemscore.Internal.Correction>
2.1140

> <Gold.Rescore>
     Score         DG    S(hbond)    S(metal)    S(lipo)     H(rot)  DE(clash)    DE(int)     intcor
     19.90     -21.72       3.47        0.00      75.91       1.65       0.03       1.80       ----

> <Gold.Chemscore.Fitness>
19.8953

> <Gold.Chemscore.DG>
-21.7185

> <Gold.Chemscore.ZeroCoef>
-5.4800

> <Gold.Chemscore.Hbond>
3.4701

> <Gold.Chemscore.Metal>
0.0000

> <Gold.Chemscore.Lipo>
75.9147

> <Gold.Chemscore.Internal_Hbond>
0.0000

> <Gold.Chemscore.DEClash>
0.0272

> <Gold.Chemscore.DEInternal>
1.7960

> <Gold.Chemscore.Rot>
1.6538

> <Gold.Chemscore.Internal.Correction>
   9.000000E+99

> <Gold.Chemscore.Hbonds>
donor molecule, donor type, donor heavy atom, donor atom, acceptor molecule, acceptor atom, score
      L1  H    12    32       P1  7948  0.86
      L1  H    20    43       P1 10747  1.00
      P1  H  7997  8009       L1     3  0.88
      P1  H 10752 10763       L1     4  0.26

> <Gold.Chemscore.Hbond.Weighted>
-11.5901

> <Gold.Chemscore.Metal.Weighted>
-0.0000

> <Gold.Chemscore.Lipo.Weighted>
-8.8820

> <Gold.Chemscore.Internal_Hbond.Weighted>
0.0000

> <Gold.Chemscore.DEClash.Weighted>
0.0272

> <Gold.Chemscore.DEInternal.Weighted>
1.7960

> <Gold.Chemscore.Rot.Weighted>
4.2337

> <Gold.Chemscore.Internal.Correction.Weighted>
   9.000000E+99

> <Gold.Protein.RotatedTorsions>
[ 6907 6896 6895 6894 ] final -138.38 input  -60.11 | X-H torsion
[ 7974 7965 7964 7962 ] final  105.76 input  175.53 | X-H torsion
[ 8008 7997 7996 7995 ] final -124.65 input   59.86 | X-H torsion
[ 10167 10162 10161 10158 ] final  -59.27 input  -65.29 | X-H torsion
[ 10718 10713 10712 10709 ] final   82.42 input   66.30 | X-H torsion
[ 10763 10752 10751 10750 ] final  111.49 input  -60.55 | X-H torsion
[ 11005 11000 10999 10996 ] final   -3.64 input  -57.11 | X-H torsion

> <Gold.Protein.ActiveResidues>
 VAL166  LYS551  ARG553  GLY616  TRP617  ASP618  TYR619  PRO620  LYS621  CYS622 
 ASP623  PHE694  ASN695  SER759  ASP760  ASP761  ALA762  ILE779  LEU786  VAL792 
 PHE793  MET794  SER795  GLU796  ALA797  LYS798  CYS799  TRP800  GLU811  SER814 

> <Gold.Protein.RotatedAtoms>
  151.0343  133.5762  159.2657 H   0  0  0  0  0  0  0  0  0  0  0  0  # atno 6907 bound_to 6896
  151.2832  135.0719  159.9187 H   0  0  0  0  0  0  0  0  0  0  0  0  # atno 6908 bound_to 6896
  152.5351  134.0054  159.7968 H   0  0  0  0  0  0  0  0  0  0  0  0  # atno 6909 bound_to 6896
  145.3155  139.2528  143.3740 H   0  0  0  0  0  0  0  0  0  0  0  0  # atno 7974 bound_to 7965
  155.2004  140.0416  157.2916 H   0  0  0  0  0  0  0  0  0  0  0  0  # atno 8008 bound_to 7997
  154.6079  140.2469  155.7679 H   0  0  0  0  0  0  0  0  0  0  0  0  # atno 8009 bound_to 7997
  156.2361  140.2921  156.0326 H   0  0  0  0  0  0  0  0  0  0  0  0  # atno 8010 bound_to 7997
  140.6146  143.2398  151.5629 H   0  0  0  0  0  0  0  0  0  0  0  0  # atno 10167 bound_to 10162
  157.6857  131.0047  150.2372 H   0  0  0  0  0  0  0  0  0  0  0  0  # atno 10718 bound_to 10713
  153.4641  135.3715  155.2354 H   0  0  0  0  0  0  0  0  0  0  0  0  # atno 10763 bound_to 10752
  154.8757  135.3915  154.3890 H   0  0  0  0  0  0  0  0  0  0  0  0  # atno 10764 bound_to 10752
  153.4468  135.7085  153.6198 H   0  0  0  0  0  0  0  0  0  0  0  0  # atno 10765 bound_to 10752
  140.6716  133.9232  155.8498 H   0  0  0  0  0  0  0  0  0  0  0  0  # atno 11005 bound_to 11000
  146.3102  140.3701  142.8673 LP  0  0  0  0  0  0  0  0  0  0  0  0  # atno 17320 bound_to 7965
  144.8981  140.7609  143.5884 LP  0  0  0  0  0  0  0  0  0  0  0  0  # atno 17321 bound_to 7965
  139.5388  144.2706  152.1307 LP  0  0  0  0  0  0  0  0  0  0  0  0  # atno 17342 bound_to 10162
  140.1912  144.4750  150.6478 LP  0  0  0  0  0  0  0  0  0  0  0  0  # atno 17343 bound_to 10162
  156.2993  130.3756  149.7765 LP  0  0  0  0  0  0  0  0  0  0  0  0  # atno 17370 bound_to 10713
  156.5400  130.8296  151.3266 LP  0  0  0  0  0  0  0  0  0  0  0  0  # atno 17371 bound_to 10713
  141.0388  134.0651  157.3927 LP  0  0  0  0  0  0  0  0  0  0  0  0  # atno 17394 bound_to 11000
  139.8980  135.0152  156.7126 LP  0  0  0  0  0  0  0  0  0  0  0  0  # atno 17395 bound_to 11000

$$$$
