AV-unprocessed.smi:2031|AV-procd|sdf|8229|dock5
  -GOLD-   2272010503D 1   1.00000     0.00000
 Structure written by MMmdl.
 41 42  0  0  0  0  0  0  0  0  3 V2000
  150.2639  140.5449  154.7275 C   0  0  0  0  0  0  0  0  0  0  0  0
  150.7570  139.1411  154.6345 C   0  0  0  0  0  0  0  0  0  0  0  0
  150.1563  137.9321  154.8437 C   0  0  0  0  0  0  0  0  0  0  0  0
  151.1974  137.0016  154.5769 C   0  0  0  0  0  0  0  0  0  0  0  0
  151.0992  135.6660  154.6622 N   0  5  0  0  0  0  0  0  0  0  0  0
  149.9761  135.0954  155.1537 C   0  0  0  0  0  0  0  0  0  0  0  0
  149.8713  134.4812  156.2180 O   0  0  0  0  0  0  0  0  0  0  0  0
  148.9063  135.2393  154.3583 N   0  0  0  0  0  0  0  0  0  0  0  0
  147.5702  134.7207  154.6255 C   0  0  0  0  0  0  0  0  0  0  0  0
  146.5163  135.3863  153.7184 C   0  0  0  0  0  0  0  0  0  0  0  0
  146.5964  134.9267  152.3061 N   0  3  0  0  0  0  0  0  0  0  0  0
  145.6090  135.6165  151.4292 C   0  0  0  0  0  0  0  0  0  0  0  0
  144.2120  134.9673  151.4026 C   0  0  0  0  0  0  0  0  0  0  0  0
  144.0680  133.9206  150.2866 C   0  0  0  0  0  0  0  0  0  0  0  0
  144.8760  132.6378  150.5222 C   0  0  0  0  0  0  0  0  0  0  0  0
  146.3737  132.8730  150.7819 C   0  0  0  0  0  0  0  0  0  0  0  0
  146.6575  133.4412  152.1864 C   0  0  0  0  0  0  0  0  0  0  0  0
  152.3339  137.5939  154.2499 N   0  0  0  0  0  0  0  0  0  0  0  0
  152.0577  138.9661  154.2771 O   0  0  0  0  0  0  0  0  0  0  0  0
  149.8620  140.7467  155.7204 H   0  0  0  0  0  0  0  0  0  0  0  0
  149.4729  140.7242  153.9993 H   0  0  0  0  0  0  0  0  0  0  0  0
  151.0662  141.2584  154.5371 H   0  0  0  0  0  0  0  0  0  0  0  0
  149.1352  137.7428  155.1388 H   0  0  0  0  0  0  0  0  0  0  0  0
  149.0358  135.7524  153.4984 H   0  0  0  0  0  0  0  0  0  0  0  0
  147.5585  133.6367  154.5005 H   0  0  0  0  0  0  0  0  0  0  0  0
  147.3582  134.9171  155.6760 H   0  0  0  0  0  0  0  0  0  0  0  0
  145.5124  135.2094  154.1073 H   0  0  0  0  0  0  0  0  0  0  0  0
  146.6719  136.4652  153.7510 H   0  0  0  0  0  0  0  0  0  0  0  0
  145.5153  136.6579  151.7393 H   0  0  0  0  0  0  0  0  0  0  0  0
  146.0141  135.6717  150.4184 H   0  0  0  0  0  0  0  0  0  0  0  0
  143.9447  134.5503  152.3745 H   0  0  0  0  0  0  0  0  0  0  0  0
  143.4808  135.7528  151.2086 H   0  0  0  0  0  0  0  0  0  0  0  0
  143.0155  133.6534  150.1850 H   0  0  0  0  0  0  0  0  0  0  0  0
  144.3543  134.3626  149.3314 H   0  0  0  0  0  0  0  0  0  0  0  0
  144.4424  132.0781  151.3520 H   0  0  0  0  0  0  0  0  0  0  0  0
  144.7658  131.9977  149.6461 H   0  0  0  0  0  0  0  0  0  0  0  0
  146.8663  131.9022  150.7155 H   0  0  0  0  0  0  0  0  0  0  0  0
  146.8279  133.4822  149.9995 H   0  0  0  0  0  0  0  0  0  0  0  0
  147.6632  133.1358  152.4757 H   0  0  0  0  0  0  0  0  0  0  0  0
  145.9840  132.9789  152.9097 H   0  0  0  0  0  0  0  0  0  0  0  0
  147.4902  135.2620  151.9760 H   0  0  0  0  0  0  0  0  0  0  0  0
  1  2  1  0  0  0  0
  1 20  1  0  0  0  0
  1 21  1  0  0  0  0
  1 22  1  0  0  0  0
  2 19  1  0  0  0  0
  2  3  2  0  0  0  0
  3  4  1  0  0  0  0
  3 23  1  0  0  0  0
  4  5  1  0  0  0  0
  4 18  2  0  0  0  0
  5  6  1  0  0  0  0
  6  7  2  0  0  0  0
  6  8  1  0  0  0  0
  8  9  1  0  0  0  0
  8 24  1  0  0  0  0
  9 10  1  0  0  0  0
  9 25  1  0  0  0  0
  9 26  1  0  0  0  0
 10 11  1  0  0  0  0
 10 27  1  0  0  0  0
 10 28  1  0  0  0  0
 11 17  1  0  0  0  0
 11 12  1  0  0  0  0
 11 41  1  0  0  0  0
 12 13  1  0  0  0  0
 12 29  1  0  0  0  0
 12 30  1  0  0  0  0
 13 14  1  0  0  0  0
 13 31  1  0  0  0  0
 13 32  1  0  0  0  0
 14 15  1  0  0  0  0
 14 33  1  0  0  0  0
 14 34  1  0  0  0  0
 15 16  1  0  0  0  0
 15 35  1  0  0  0  0
 15 36  1  0  0  0  0
 16 17  1  0  0  0  0
 16 37  1  0  0  0  0
 16 38  1  0  0  0  0
 17 39  1  0  0  0  0
 17 40  1  0  0  0  0
 18 19  1  0  0  0  0
M  CHG  1   5  -1
M  CHG  1  11   1
M  END
> <s_m_source_file>
AV-unprocessed.smi

> <i_m_source_file_index>
2031

> <i_lp_mmshare_version>
43012

> <i_f3d_flags>
0

> <s_epik_input>
W0NIM11jMVtjSF1jKG5vMSlbTkhdQyg9TylbTkhdW0NIMl1bQ0gyXU4yW0NIMl1bQ0gyXVtDSDJdW0NIMl1bQ0gyXVtDSDJdMg==

> <s_epik_cmdline>
J2VwaWtfcHl0aG9uJywgJy1waCcsICc3LjAnLCAnLXRuJywgJzgnLCAnLW1hJywgJzIwMCcsICctbWV0YWxfYmluZGluZycsICctaW1hZScsICc8aW5maWxlLm1hZT4nLCAnLW9tYWUnLCAnPG91dGZpbGUubWFlPic=

> <r_epik_Ionization_Penalty>
6.22371

> <r_epik_Ionization_Penalty_Charging>
6.22362

> <r_epik_Ionization_Penalty_Neutral>
9.36972e-05

> <r_epik_State_Penalty>
6.22363

> <r_epik_Charging_Adjusted_Penalty>
12.4472

> <i_epik_Tot_Q>
0

> <i_epik_Tot_abs_Q>
2

> <r_epik_Metal_State_Penalty>
2.16675

> <b_epik_Metal_Only>
1

> <s_lp_Force_Field>
OPLS_2005

> <r_lp_Energy>
10.3007

> <b_lp_Chiralities_Consistent>
1

> <s_lp_Variant>
AV-unprocessed.smi:2031-2

> <Gold.Version>
5.8.1

> <Gold.Id.Protein>
6NUR|6NUR_protein|mol2

> <Gold.PLP.Fitness>
47.9678

> <Gold.PLP.PLP>
-31.5284

> <Gold.PLP.part.hbond>
-4.0000

> <Gold.PLP.part.metal>
0.0000

> <Gold.PLP.part.buried>
-3.6586

> <Gold.PLP.part.nonpolar>
-24.6216

> <Gold.PLP.part.repulsive>
0.4225

> <Gold.PLP.ligand.clash>
0.0000

> <Gold.PLP.ligand.torsion>
0.8337

> <Gold.PLP.Chemscore.Hbond>
6.0000

> <Gold.PLP.Chemscore.CHOScore>
0.0000

> <Gold.PLP.Chemscore.Metal>
0.0000

> <Gold.Chemscore.Hbonds>
donor molecule, donor type, donor heavy atom, donor atom, acceptor molecule, acceptor atom, score
      L1  H     8    24       P1  7948  1.00
      L1  H    11    41       P1  7948  2.00
      P1  H 10752 10765       L1     5  0.70

> <Gold.PLP.Chemscore.Internal.Correction>
0.1067

> <Gold.Rescore>
     Score         DG    S(hbond)    S(metal)    S(lipo)     H(rot)  DE(clash)    DE(int)     intcor
     19.97     -20.88       3.66        0.00      60.91       1.54       0.07       0.84       ----

> <Gold.Chemscore.Fitness>
19.9664

> <Gold.Chemscore.DG>
-20.8823

> <Gold.Chemscore.ZeroCoef>
-5.4800

> <Gold.Chemscore.Hbond>
3.6587

> <Gold.Chemscore.Metal>
0.0000

> <Gold.Chemscore.Lipo>
60.9120

> <Gold.Chemscore.Internal_Hbond>
0.0000

> <Gold.Chemscore.DEClash>
0.0741

> <Gold.Chemscore.DEInternal>
0.8417

> <Gold.Chemscore.Rot>
1.5409

> <Gold.Chemscore.Internal.Correction>
   9.000000E+99

> <Gold.Chemscore.Hbonds>
donor molecule, donor type, donor heavy atom, donor atom, acceptor molecule, acceptor atom, score
      L1  H     8    24       P1  7948  0.85
      L1  H    11    41       P1  7948  0.98
      P1  H 10752 10765       L1     5  0.01

> <Gold.Chemscore.Hbond.Weighted>
-12.2202

> <Gold.Chemscore.Metal.Weighted>
-0.0000

> <Gold.Chemscore.Lipo.Weighted>
-7.1267

> <Gold.Chemscore.Internal_Hbond.Weighted>
0.0000

> <Gold.Chemscore.DEClash.Weighted>
0.0741

> <Gold.Chemscore.DEInternal.Weighted>
0.8417

> <Gold.Chemscore.Rot.Weighted>
3.9446

> <Gold.Chemscore.Internal.Correction.Weighted>
   9.000000E+99

> <Gold.Protein.RotatedTorsions>
[ 6907 6896 6895 6894 ] final  118.63 input  -60.11 | X-H torsion
[ 7974 7965 7964 7962 ] final -139.22 input  175.53 | X-H torsion
[ 8008 7997 7996 7995 ] final    6.04 input   59.86 | X-H torsion
[ 10167 10162 10161 10158 ] final  113.92 input  -65.29 | X-H torsion
[ 10718 10713 10712 10709 ] final  170.36 input   66.30 | X-H torsion
[ 10763 10752 10751 10750 ] final  164.92 input  -60.55 | X-H torsion
[ 11005 11000 10999 10996 ] final -129.76 input  -57.11 | X-H torsion

> <Gold.Protein.ActiveResidues>
 VAL166  LYS551  ARG553  GLY616  TRP617  ASP618  TYR619  PRO620  LYS621  CYS622 
 ASP623  PHE694  ASN695  SER759  ASP760  ASP761  ALA762  ILE779  LEU786  VAL792 
 PHE793  MET794  SER795  GLU796  ALA797  LYS798  CYS799  TRP800  GLU811  SER814 

> <Gold.Protein.RotatedAtoms>
  152.4529  133.7665  159.6775 H   0  0  0  0  0  0  0  0  0  0  0  0  # atno 6907 bound_to 6896
  150.8446  133.7871  159.3054 H   0  0  0  0  0  0  0  0  0  0  0  0  # atno 6908 bound_to 6896
  151.5485  135.1070  159.9995 H   0  0  0  0  0  0  0  0  0  0  0  0  # atno 6909 bound_to 6896
  144.8694  140.6344  143.5276 H   0  0  0  0  0  0  0  0  0  0  0  0  # atno 7974 bound_to 7965
  154.7359  140.2739  155.6415 H   0  0  0  0  0  0  0  0  0  0  0  0  # atno 8008 bound_to 7997
  156.2861  140.2706  156.1998 H   0  0  0  0  0  0  0  0  0  0  0  0  # atno 8009 bound_to 7997
  155.0321  140.0371  157.2468 H   0  0  0  0  0  0  0  0  0  0  0  0  # atno 8010 bound_to 7997
  139.6426  144.7125  151.2206 H   0  0  0  0  0  0  0  0  0  0  0  0  # atno 10167 bound_to 10162
  157.0093  131.0199  151.2808 H   0  0  0  0  0  0  0  0  0  0  0  0  # atno 10718 bound_to 10713
  154.3163  135.2756  155.2542 H   0  0  0  0  0  0  0  0  0  0  0  0  # atno 10763 bound_to 10752
  154.4915  135.5832  153.6466 H   0  0  0  0  0  0  0  0  0  0  0  0  # atno 10764 bound_to 10752
  152.9882  135.6135  154.3344 H   0  0  0  0  0  0  0  0  0  0  0  0  # atno 10765 bound_to 10752
  140.9404  134.1201  157.4156 H   0  0  0  0  0  0  0  0  0  0  0  0  # atno 11005 bound_to 11000
  145.4159  139.1572  143.4101 LP  0  0  0  0  0  0  0  0  0  0  0  0  # atno 17320 bound_to 7965
  146.2919  140.4266  142.8736 LP  0  0  0  0  0  0  0  0  0  0  0  0  # atno 17321 bound_to 7965
  140.7498  143.6286  150.8445 LP  0  0  0  0  0  0  0  0  0  0  0  0  # atno 17342 bound_to 10162
  139.9925  143.5832  152.2905 LP  0  0  0  0  0  0  0  0  0  0  0  0  # atno 17343 bound_to 10162
  157.5332  130.8072  149.7941 LP  0  0  0  0  0  0  0  0  0  0  0  0  # atno 17370 bound_to 10713
  156.0142  130.3820  150.2165 LP  0  0  0  0  0  0  0  0  0  0  0  0  # atno 17371 bound_to 10713
  139.8819  135.0035  156.6188 LP  0  0  0  0  0  0  0  0  0  0  0  0  # atno 17394 bound_to 11000
  140.7742  133.8713  155.8515 LP  0  0  0  0  0  0  0  0  0  0  0  0  # atno 17395 bound_to 11000

$$$$
