AV-unprocessed.smi:911|AV-procd|sdf|4139|dock4
  -GOLD-   22720 2 43D 1   1.00000     0.00000
 Structure written by MMmdl.
 47 49  0  0  0  0  0  0  0  0  3 V2000
  142.6365  143.4731  160.5083 C   0  0  0  0  0  0  0  0  0  0  0  0
  144.0361  143.9012  161.0326 C   0  0  0  0  0  0  0  0  0  0  0  0
  143.7595  144.7259  162.3207 C   0  0  0  0  0  0  0  0  0  0  0  0
  145.0191  142.7295  161.2257 C   0  0  1  0  0  0  0  0  0  0  0  0
  145.2168  142.1789  159.7950 C   0  0  0  0  0  0  0  0  0  0  0  0
  145.1480  143.4544  158.9326 C   0  0  0  0  0  0  0  0  0  0  0  0
  144.9733  144.5763  159.9944 C   0  0  1  0  0  0  0  0  0  0  0  0
  144.4577  145.8949  159.3912 C   0  0  0  0  0  0  0  0  0  0  0  0
  146.3158  144.7209  160.7842 C   0  0  2  0  0  0  0  0  0  0  0  0
  147.5032  144.8100  159.9365 N   0  0  0  0  0  0  0  0  0  0  0  0
  148.7696  144.6517  160.3489 C   0  0  0  0  0  0  0  0  0  0  0  0
  149.0795  144.3181  161.4920 O   0  0  0  0  0  0  0  0  0  0  0  0
  149.8554  144.9402  159.3096 C   0  0  0  0  0  0  0  0  0  0  0  0
  150.8317  143.8409  159.2659 N   0  0  0  0  0  0  0  0  0  0  0  0
  150.7198  142.9437  158.1855 C   0  0  0  0  0  0  0  0  0  0  0  0
  151.5850  141.9276  158.0045 C   0  0  0  0  0  0  0  0  0  0  0  0
  151.4659  141.0340  156.8739 N   0  3  0  0  0  0  0  0  0  0  0  0
  152.2294  140.0770  156.7981 O   0  0  0  0  0  0  0  0  0  0  0  0
  150.6093  141.2605  156.0243 O   0  5  0  0  0  0  0  0  0  0  0  0
  152.6508  141.7692  158.9743 C   0  0  0  0  0  0  0  0  0  0  0  0
  152.7637  142.6235  160.0107 C   0  0  0  0  0  0  0  0  0  0  0  0
  151.8264  143.7362  160.1994 C   0  0  0  0  0  0  0  0  0  0  0  0
  151.9333  144.5269  161.1366 O   0  0  0  0  0  0  0  0  0  0  0  0
  146.3382  143.4249  161.6270 C   0  0  0  0  0  0  0  0  0  0  0  0
  142.1131  142.8798  161.2586 H   0  0  0  0  0  0  0  0  0  0  0  0
  142.6442  142.8760  159.5995 H   0  0  0  0  0  0  0  0  0  0  0  0
  142.0157  144.3452  160.3020 H   0  0  0  0  0  0  0  0  0  0  0  0
  144.6436  145.1015  162.8302 H   0  0  0  0  0  0  0  0  0  0  0  0
  143.2167  144.1249  163.0510 H   0  0  0  0  0  0  0  0  0  0  0  0
  143.1391  145.5941  162.0975 H   0  0  0  0  0  0  0  0  0  0  0  0
  144.6976  141.9706  161.9397 H   0  0  0  0  0  0  0  0  0  0  0  0
  146.1673  141.6566  159.6799 H   0  0  0  0  0  0  0  0  0  0  0  0
  144.4298  141.4754  159.5219 H   0  0  0  0  0  0  0  0  0  0  0  0
  146.0263  143.5735  158.2995 H   0  0  0  0  0  0  0  0  0  0  0  0
  144.2991  143.4158  158.2500 H   0  0  0  0  0  0  0  0  0  0  0  0
  145.1401  146.2725  158.6298 H   0  0  0  0  0  0  0  0  0  0  0  0
  144.3531  146.6668  160.1538 H   0  0  0  0  0  0  0  0  0  0  0  0
  143.4858  145.7628  158.9161 H   0  0  0  0  0  0  0  0  0  0  0  0
  146.2884  145.5872  161.4467 H   0  0  0  0  0  0  0  0  0  0  0  0
  147.3509  145.0754  158.9745 H   0  0  0  0  0  0  0  0  0  0  0  0
  149.3895  145.0991  158.3355 H   0  0  0  0  0  0  0  0  0  0  0  0
  150.3502  145.8839  159.5456 H   0  0  0  0  0  0  0  0  0  0  0  0
  149.8984  143.1524  157.5149 H   0  0  0  0  0  0  0  0  0  0  0  0
  153.3673  140.9670  158.8752 H   0  0  0  0  0  0  0  0  0  0  0  0
  153.5670  142.4891  160.7204 H   0  0  0  0  0  0  0  0  0  0  0  0
  146.3612  143.6507  162.6934 H   0  0  0  0  0  0  0  0  0  0  0  0
  147.2065  142.7960  161.4236 H   0  0  0  0  0  0  0  0  0  0  0  0
  1  2  1  0  0  0  0
  1 25  1  0  0  0  0
  1 26  1  0  0  0  0
  1 27  1  0  0  0  0
  2  7  1  0  0  0  0
  2  3  1  0  0  0  0
  2  4  1  0  0  0  0
  3 28  1  0  0  0  0
  3 29  1  0  0  0  0
  3 30  1  0  0  0  0
  4 24  1  0  0  0  0
  4  5  1  0  0  0  0
  4 31  1  0  0  0  0
  5  6  1  0  0  0  0
  5 32  1  0  0  0  0
  5 33  1  0  0  0  0
  6  7  1  0  0  0  0
  6 34  1  0  0  0  0
  6 35  1  0  0  0  0
  7  8  1  0  0  0  0
  7  9  1  0  0  0  0
  8 36  1  0  0  0  0
  8 37  1  0  0  0  0
  8 38  1  0  0  0  0
  9 10  1  0  0  0  0
  9 24  1  0  0  0  0
  9 39  1  0  0  0  0
 10 11  1  0  0  0  0
 10 40  1  0  0  0  0
 11 12  2  0  0  0  0
 11 13  1  0  0  0  0
 13 14  1  0  0  0  0
 13 41  1  0  0  0  0
 13 42  1  0  0  0  0
 14 22  1  0  0  0  0
 14 15  1  0  0  0  0
 15 16  2  0  0  0  0
 15 43  1  0  0  0  0
 16 17  1  0  0  0  0
 16 20  1  0  0  0  0
 17 18  2  0  0  0  0
 17 19  1  0  0  0  0
 20 21  2  0  0  0  0
 20 44  1  0  0  0  0
 21 22  1  0  0  0  0
 21 45  1  0  0  0  0
 22 23  2  0  0  0  0
 24 46  1  0  0  0  0
 24 47  1  0  0  0  0
M  CHG  1  17   1
M  CHG  1  19  -1
M  END
> <s_m_source_file>
AV-unprocessed.smi

> <i_m_source_file_index>
911

> <i_lp_mmshare_version>
43012

> <i_f3d_flags>
0

> <s_epik_input>
W0NIM11bQ0BdMTJDKFtDSDNdKShbQ0gzXSlbQ0BIXShbQ0gyXVtDSDJdMSlbQ0gyXVtDQEBIXTJbTkhdQyg9TylbQ0gyXW4zW2NIXWMoW04rXSg9TylbTy1dKVtjSF1bY0hdYzM9Tw==

> <s_epik_cmdline>
J2VwaWtfcHl0aG9uJywgJy1waCcsICc3LjAnLCAnLXRuJywgJzgnLCAnLW1hJywgJzIwMCcsICctbWV0YWxfYmluZGluZycsICctaW1hZScsICc8aW5maWxlLm1hZT4nLCAnLW9tYWUnLCAnPG91dGZpbGUubWFlPic=

> <r_lp_tautomer_probability>
1

> <r_epik_Ionization_Penalty>
2.04092e-08

> <r_epik_Ionization_Penalty_Charging>
8.54191e-11

> <r_epik_Ionization_Penalty_Neutral>
2.03238e-08

> <r_epik_State_Penalty>
-0

> <r_epik_Charging_Adjusted_Penalty>
8.54191e-11

> <i_epik_Tot_Q>
0

> <i_epik_Tot_abs_Q>
2

> <r_epik_Metal_State_Penalty>
-0

> <b_epik_Metal_Only>
0

> <s_lp_Force_Field>
OPLS_2005

> <r_lp_Energy>
68.3511

> <b_lp_Chiralities_Consistent>
1

> <s_lp_Variant>
AV-unprocessed.smi:911-4

> <Gold.Version>
5.8.1

> <Gold.Id.Protein>
6NUR|6NUR_protein|mol2

> <Gold.PLP.Fitness>
45.6793

> <Gold.PLP.PLP>
-36.6101

> <Gold.PLP.part.hbond>
-3.0000

> <Gold.PLP.part.metal>
0.0000

> <Gold.PLP.part.buried>
-2.0842

> <Gold.PLP.part.nonpolar>
-32.1034

> <Gold.PLP.part.repulsive>
0.9486

> <Gold.PLP.ligand.clash>
0.0000

> <Gold.PLP.ligand.torsion>
0.5043

> <Gold.PLP.Chemscore.Hbond>
2.3735

> <Gold.PLP.Chemscore.CHOScore>
0.9766

> <Gold.PLP.Chemscore.Metal>
0.0000

> <Gold.Chemscore.Hbonds>
donor molecule, donor type, donor heavy atom, donor atom, acceptor molecule, acceptor atom, score
      L1  H    10    40       P1  8029  1.00
      P1  H  6933  6944       L1    12  0.53
      P1  H  7997  8010       L1    18  0.73
      L1  C    15    43       P1  8028  0.77

> <Gold.PLP.Chemscore.Internal.Correction>
0.0273

> <Gold.Rescore>
     Score         DG    S(hbond)    S(metal)    S(lipo)     H(rot)  DE(clash)    DE(int)     intcor
     14.85     -19.31       2.40        0.00      83.13       1.53       1.41       3.05       ----

> <Gold.Chemscore.Fitness>
14.8515

> <Gold.Chemscore.DG>
-19.3100

> <Gold.Chemscore.ZeroCoef>
-5.4800

> <Gold.Chemscore.Hbond>
2.3995

> <Gold.Chemscore.Metal>
0.0000

> <Gold.Chemscore.Lipo>
83.1349

> <Gold.Chemscore.Internal_Hbond>
0.0000

> <Gold.Chemscore.DEClash>
1.4075

> <Gold.Chemscore.DEInternal>
3.0509

> <Gold.Chemscore.Rot>
1.5277

> <Gold.Chemscore.Internal.Correction>
   9.000000E+99

> <Gold.Chemscore.Hbonds>
donor molecule, donor type, donor heavy atom, donor atom, acceptor molecule, acceptor atom, score
      L1  H    10    40       P1  8029  0.95
      P1  H  6933  6944       L1    12  0.15
      P1  H  7997  8010       L1    18  0.72

> <Gold.Chemscore.Hbond.Weighted>
-8.0142

> <Gold.Chemscore.Metal.Weighted>
-0.0000

> <Gold.Chemscore.Lipo.Weighted>
-9.7268

> <Gold.Chemscore.Internal_Hbond.Weighted>
0.0000

> <Gold.Chemscore.DEClash.Weighted>
1.4075

> <Gold.Chemscore.DEInternal.Weighted>
3.0509

> <Gold.Chemscore.Rot.Weighted>
3.9110

> <Gold.Chemscore.Internal.Correction.Weighted>
   9.000000E+99

> <Gold.Protein.RotatedTorsions>
[ 6907 6896 6895 6894 ] final -115.64 input  -60.11 | X-H torsion
[ 7974 7965 7964 7962 ] final  168.04 input  175.53 | X-H torsion
[ 8008 7997 7996 7995 ] final   72.91 input   59.86 | X-H torsion
[ 10167 10162 10161 10158 ] final  160.19 input  -65.29 | X-H torsion
[ 10718 10713 10712 10709 ] final   59.40 input   66.30 | X-H torsion
[ 10763 10752 10751 10750 ] final  146.34 input  -60.55 | X-H torsion
[ 11005 11000 10999 10996 ] final -149.57 input  -57.11 | X-H torsion

> <Gold.Protein.ActiveResidues>
 VAL166  LYS551  ARG553  GLY616  TRP617  ASP618  TYR619  PRO620  LYS621  CYS622 
 ASP623  PHE694  ASN695  SER759  ASP760  ASP761  ALA762  ILE779  LEU786  VAL792 
 PHE793  MET794  SER795  GLU796  ALA797  LYS798  CYS799  TRP800  GLU811  SER814 

> <Gold.Protein.RotatedAtoms>
  150.7994  133.8629  159.3236 H   0  0  0  0  0  0  0  0  0  0  0  0  # atno 6907 bound_to 6896
  151.6446  135.1007  160.0158 H   0  0  0  0  0  0  0  0  0  0  0  0  # atno 6908 bound_to 6896
  152.4079  133.6878  159.6407 H   0  0  0  0  0  0  0  0  0  0  0  0  # atno 6909 bound_to 6896
  144.7402  139.8850  143.6399 H   0  0  0  0  0  0  0  0  0  0  0  0  # atno 7974 bound_to 7965
  155.7758  140.3483  155.5271 H   0  0  0  0  0  0  0  0  0  0  0  0  # atno 8008 bound_to 7997
  155.8777  140.0997  157.1527 H   0  0  0  0  0  0  0  0  0  0  0  0  # atno 8009 bound_to 7997
  154.4022  140.1328  156.4144 H   0  0  0  0  0  0  0  0  0  0  0  0  # atno 8010 bound_to 7997
  139.4838  144.4658  151.8643 H   0  0  0  0  0  0  0  0  0  0  0  0  # atno 10167 bound_to 10162
  157.5673  130.8880  149.9208 H   0  0  0  0  0  0  0  0  0  0  0  0  # atno 10718 bound_to 10713
  154.0202  135.2906  155.3382 H   0  0  0  0  0  0  0  0  0  0  0  0  # atno 10763 bound_to 10752
  154.7050  135.5173  153.8585 H   0  0  0  0  0  0  0  0  0  0  0  0  # atno 10764 bound_to 10752
  153.0684  135.6639  154.0425 H   0  0  0  0  0  0  0  0  0  0  0  0  # atno 10765 bound_to 10752
  140.7494  134.3424  157.5129 H   0  0  0  0  0  0  0  0  0  0  0  0  # atno 11005 bound_to 11000
  146.1184  139.4198  143.0244 LP  0  0  0  0  0  0  0  0  0  0  0  0  # atno 17320 bound_to 7965
  145.7341  141.0032  143.1336 LP  0  0  0  0  0  0  0  0  0  0  0  0  # atno 17321 bound_to 7965
  140.4123  144.2352  150.5888 LP  0  0  0  0  0  0  0  0  0  0  0  0  # atno 17342 bound_to 10162
  140.4954  143.2334  151.8757 LP  0  0  0  0  0  0  0  0  0  0  0  0  # atno 17343 bound_to 10162
  156.0720  130.3684  150.0756 LP  0  0  0  0  0  0  0  0  0  0  0  0  # atno 17370 bound_to 10713
  156.8913  130.9589  151.3588 LP  0  0  0  0  0  0  0  0  0  0  0  0  # atno 17371 bound_to 10713
  139.8790  134.9132  156.3078 LP  0  0  0  0  0  0  0  0  0  0  0  0  # atno 17394 bound_to 11000
  140.9765  133.7294  156.0609 LP  0  0  0  0  0  0  0  0  0  0  0  0  # atno 17395 bound_to 11000

$$$$
