AV-unprocessed.smi:3019|AV-procd|sdf|11490|dock1
  -GOLD-   2272016433D 1   1.00000     0.00000
 Structure written by MMmdl.
 30 31  0  0  0  0  0  0  0  0  1 V2000
  152.3819  145.0133  158.3776 C   0  0  0  0  0  0  0  0  0  0  0  0
  151.7207  143.7603  158.9707 C   0  0  0  0  0  0  0  0  0  0  0  0
  152.5413  143.1677  160.1256 C   0  0  0  0  0  0  0  0  0  0  0  0
  151.4281  142.7354  157.9180 C   0  0  0  0  0  0  0  0  0  0  0  0
  150.5840  142.9699  156.9109 N   0  0  0  0  0  0  0  0  0  0  0  0
  150.4984  141.8711  156.1327 N   0  0  0  0  0  0  0  0  0  0  0  0
  151.3396  141.0329  156.7403 C   0  0  0  0  0  0  0  0  0  0  0  0
  151.5535  139.6326  156.2533 C   0  0  1  0  0  0  0  0  0  0  0  0
  150.2556  138.8019  156.2869 C   0  0  0  0  0  0  0  0  0  0  0  0
  150.4874  137.4761  155.7161 N   0  0  0  0  0  0  0  0  0  0  0  0
  151.0484  137.5720  154.3693 C   0  0  0  0  0  0  0  0  0  0  0  0
  152.3247  138.4327  154.3796 C   0  0  0  0  0  0  0  0  0  0  0  0
  152.0288  139.7196  154.9112 O   0  0  0  0  0  0  0  0  0  0  0  0
  151.9361  141.5072  157.8755 N   0  0  0  0  0  0  0  0  0  0  0  0
  151.7567  145.4562  157.6017 H   0  0  0  0  0  0  0  0  0  0  0  0
  153.3497  144.7796  157.9325 H   0  0  0  0  0  0  0  0  0  0  0  0
  152.5434  145.7720  159.1438 H   0  0  0  0  0  0  0  0  0  0  0  0
  150.7634  144.0750  159.3889 H   0  0  0  0  0  0  0  0  0  0  0  0
  152.0233  142.3229  160.5806 H   0  0  0  0  0  0  0  0  0  0  0  0
  152.7121  143.9089  160.9067 H   0  0  0  0  0  0  0  0  0  0  0  0
  153.5148  142.8157  159.7824 H   0  0  0  0  0  0  0  0  0  0  0  0
  152.3168  139.1627  156.8769 H   0  0  0  0  0  0  0  0  0  0  0  0
  149.8933  138.7103  157.3112 H   0  0  0  0  0  0  0  0  0  0  0  0
  149.4755  139.3142  155.7224 H   0  0  0  0  0  0  0  0  0  0  0  0
  151.2702  136.5765  153.9843 H   0  0  0  0  0  0  0  0  0  0  0  0
  150.3158  138.0137  153.6929 H   0  0  0  0  0  0  0  0  0  0  0  0
  153.1146  137.9553  154.9619 H   0  0  0  0  0  0  0  0  0  0  0  0
  152.7049  138.5507  153.3649 H   0  0  0  0  0  0  0  0  0  0  0  0
  149.6122  136.9631  155.6840 H   0  0  0  0  0  0  0  0  0  0  0  0
  150.0639  143.8164  156.7290 H   0  0  0  0  0  0  0  0  0  0  0  0
  1  2  1  0  0  0  0
  1 15  1  0  0  0  0
  1 16  1  0  0  0  0
  1 17  1  0  0  0  0
  2  3  1  0  0  0  0
  2  4  1  0  0  0  0
  2 18  1  0  0  0  0
  3 19  1  0  0  0  0
  3 20  1  0  0  0  0
  3 21  1  0  0  0  0
  4 14  2  0  0  0  0
  4  5  1  0  0  0  0
  5  6  1  0  0  0  0
  5 30  1  0  0  0  0
  6  7  2  0  0  0  0
  7  8  1  0  0  0  0
  7 14  1  0  0  0  0
  8 13  1  0  0  0  0
  8  9  1  0  0  0  0
  8 22  1  0  0  0  0
  9 10  1  0  0  0  0
  9 23  1  0  0  0  0
  9 24  1  0  0  0  0
 10 11  1  0  0  0  0
 10 29  1  0  0  0  0
 11 12  1  0  0  0  0
 11 25  1  0  0  0  0
 11 26  1  0  0  0  0
 12 13  1  0  0  0  0
 12 27  1  0  0  0  0
 12 28  1  0  0  0  0
M  END
> <s_m_source_file>
AV-unprocessed.smi

> <i_m_source_file_index>
3019

> <i_lp_mmshare_version>
43012

> <i_f3d_flags>
0

> <s_epik_input>
W0NIM11bQ0hdKFtDSDNdKWMxbltuSF1jKG4xKVtDQEBIXTJbQ0gyXVtOSF1bQ0gyXVtDSDJdTzI=

> <s_epik_cmdline>
J2VwaWtfcHl0aG9uJywgJy1waCcsICc3LjAnLCAnLXRuJywgJzgnLCAnLW1hJywgJzIwMCcsICctbWV0YWxfYmluZGluZycsICctaW1hZScsICc8aW5maWxlLm1hZT4nLCAnLW9tYWUnLCAnPG91dGZpbGUubWFlPic=

> <r_lp_tautomer_probability>
0.948284

> <r_epik_Ionization_Penalty>
1.10045

> <r_epik_Ionization_Penalty_Charging>
0

> <r_epik_Ionization_Penalty_Neutral>
1.10045

> <r_epik_State_Penalty>
1.2625

> <r_epik_Charging_Adjusted_Penalty>
1.2625

> <i_epik_Tot_Q>
0

> <i_epik_Tot_abs_Q>
0

> <r_epik_Metal_State_Penalty>
1.57133

> <b_epik_Metal_Only>
0

> <s_lp_Force_Field>
OPLS_2005

> <r_lp_Energy>
11.2718

> <b_lp_Chiralities_Consistent>
1

> <s_lp_Variant>
AV-unprocessed.smi:3019-6

> <Gold.Version>
5.8.1

> <Gold.Id.Protein>
6NUR|6NUR_protein|mol2

> <Gold.PLP.Fitness>
35.1148

> <Gold.PLP.PLP>
-29.5345

> <Gold.PLP.part.hbond>
-2.0000

> <Gold.PLP.part.metal>
0.0000

> <Gold.PLP.part.buried>
-5.3332

> <Gold.PLP.part.nonpolar>
-22.1951

> <Gold.PLP.part.repulsive>
0.1529

> <Gold.PLP.ligand.clash>
0.0000

> <Gold.PLP.ligand.torsion>
0.0943

> <Gold.PLP.Chemscore.Hbond>
1.9040

> <Gold.PLP.Chemscore.CHOScore>
0.0000

> <Gold.PLP.Chemscore.Metal>
0.0000

> <Gold.Chemscore.Hbonds>
donor molecule, donor type, donor heavy atom, donor atom, acceptor molecule, acceptor atom, score
      L1  H     5    30       P1  8028  0.99
      P1  H  7989  7998       L1    13  0.88

> <Gold.PLP.Chemscore.Internal.Correction>
0.0570

> <Gold.Rescore>
     Score         DG    S(hbond)    S(metal)    S(lipo)     H(rot)  DE(clash)    DE(int)     intcor
     15.58     -15.77       1.78        0.00      64.84       1.26       0.12       0.08       ----

> <Gold.Chemscore.Fitness>
15.5779

> <Gold.Chemscore.DG>
-15.7736

> <Gold.Chemscore.ZeroCoef>
-5.4800

> <Gold.Chemscore.Hbond>
1.7761

> <Gold.Chemscore.Metal>
0.0000

> <Gold.Chemscore.Lipo>
64.8432

> <Gold.Chemscore.Internal_Hbond>
0.0000

> <Gold.Chemscore.DEClash>
0.1167

> <Gold.Chemscore.DEInternal>
0.0789

> <Gold.Chemscore.Rot>
1.2598

> <Gold.Chemscore.Internal.Correction>
   9.000000E+99

> <Gold.Chemscore.Hbonds>
donor molecule, donor type, donor heavy atom, donor atom, acceptor molecule, acceptor atom, score
      L1  H     5    30       P1  8028  0.93
      P1  H  7989  7998       L1    13  0.56

> <Gold.Chemscore.Hbond.Weighted>
-5.9320

> <Gold.Chemscore.Metal.Weighted>
-0.0000

> <Gold.Chemscore.Lipo.Weighted>
-7.5866

> <Gold.Chemscore.Internal_Hbond.Weighted>
0.0000

> <Gold.Chemscore.DEClash.Weighted>
0.1167

> <Gold.Chemscore.DEInternal.Weighted>
0.0789

> <Gold.Chemscore.Rot.Weighted>
3.2251

> <Gold.Chemscore.Internal.Correction.Weighted>
   9.000000E+99

> <Gold.Protein.RotatedTorsions>
[ 6907 6896 6895 6894 ] final  -39.38 input  -60.11 | X-H torsion
[ 7974 7965 7964 7962 ] final   32.67 input  175.53 | X-H torsion
[ 8008 7997 7996 7995 ] final  -85.37 input   59.86 | X-H torsion
[ 10167 10162 10161 10158 ] final  121.34 input  -65.29 | X-H torsion
[ 10718 10713 10712 10709 ] final  -49.20 input   66.30 | X-H torsion
[ 10763 10752 10751 10750 ] final   11.61 input  -60.55 | X-H torsion
[ 11005 11000 10999 10996 ] final  114.90 input  -57.11 | X-H torsion

> <Gold.Protein.ActiveResidues>
 VAL166  LYS551  ARG553  GLY616  TRP617  ASP618  TYR619  PRO620  LYS621  CYS622 
 ASP623  PHE694  ASN695  SER759  ASP760  ASP761  ALA762  ILE779  LEU786  VAL792 
 PHE793  MET794  SER795  GLU796  ALA797  LYS798  CYS799  TRP800  GLU811  SER814 

> <Gold.Protein.RotatedAtoms>
  150.9910  134.9245  159.7899 H   0  0  0  0  0  0  0  0  0  0  0  0  # atno 6907 bound_to 6896
  152.5251  134.3282  159.9183 H   0  0  0  0  0  0  0  0  0  0  0  0  # atno 6908 bound_to 6896
  151.3288  133.3968  159.2695 H   0  0  0  0  0  0  0  0  0  0  0  0  # atno 6909 bound_to 6896
  146.1471  139.6496  142.9124 H   0  0  0  0  0  0  0  0  0  0  0  0  # atno 7974 bound_to 7965
  154.6400  140.0592  156.9834 H   0  0  0  0  0  0  0  0  0  0  0  0  # atno 8008 bound_to 7997
  155.1532  140.3276  155.4408 H   0  0  0  0  0  0  0  0  0  0  0  0  # atno 8009 bound_to 7997
  156.2526  140.1944  156.6643 H   0  0  0  0  0  0  0  0  0  0  0  0  # atno 8010 bound_to 7997
  139.5926  144.7030  151.3254 H   0  0  0  0  0  0  0  0  0  0  0  0  # atno 10167 bound_to 10162
  156.1916  130.4153  149.9364 H   0  0  0  0  0  0  0  0  0  0  0  0  # atno 10718 bound_to 10713
  153.1908  135.6842  153.8355 H   0  0  0  0  0  0  0  0  0  0  0  0  # atno 10763 bound_to 10752
  153.7655  135.3203  155.3345 H   0  0  0  0  0  0  0  0  0  0  0  0  # atno 10764 bound_to 10752
  154.8116  135.4713  154.0630 H   0  0  0  0  0  0  0  0  0  0  0  0  # atno 10765 bound_to 10752
  139.8994  134.9575  156.6962 H   0  0  0  0  0  0  0  0  0  0  0  0  # atno 11005 bound_to 11000
  145.4911  141.0438  143.2592 LP  0  0  0  0  0  0  0  0  0  0  0  0  # atno 17320 bound_to 7965
  144.7859  139.6427  143.7134 LP  0  0  0  0  0  0  0  0  0  0  0  0  # atno 17321 bound_to 7965
  140.7185  143.7200  150.7703 LP  0  0  0  0  0  0  0  0  0  0  0  0  # atno 17342 bound_to 10162
  140.0759  143.5016  152.2556 LP  0  0  0  0  0  0  0  0  0  0  0  0  # atno 17343 bound_to 10162
  156.7102  130.8967  151.3608 LP  0  0  0  0  0  0  0  0  0  0  0  0  # atno 17370 bound_to 10713
  157.6932  130.9255  150.0572 LP  0  0  0  0  0  0  0  0  0  0  0  0  # atno 17371 bound_to 10713
  140.7186  133.9161  155.8131 LP  0  0  0  0  0  0  0  0  0  0  0  0  # atno 17394 bound_to 11000
  141.0245  134.0843  157.4084 LP  0  0  0  0  0  0  0  0  0  0  0  0  # atno 17395 bound_to 11000

$$$$
