AV-unprocessed.smi:1778|AV-procd|sdf|7179|dock4
  -GOLD-   22720 8413D 1   1.00000     0.00000
 Structure written by MMmdl.
 34 35  0  0  0  0  0  0  0  0  1 V2000
  153.8689  137.4621  156.3975 C   0  0  0  0  0  0  0  0  0  0  0  0
  152.7530  138.1907  155.7046 C   0  0  0  0  0  0  0  0  0  0  0  0
  152.8675  139.4902  155.4891 N   0  0  0  0  0  0  0  0  0  0  0  0
  151.6980  139.8745  154.8265 O   0  0  0  0  0  0  0  0  0  0  0  0
  150.9163  138.7768  154.6652 C   0  0  0  0  0  0  0  0  0  0  0  0
  149.6144  138.9750  153.9650 C   0  0  0  0  0  0  0  0  0  0  0  0
  151.5240  137.6742  155.1993 C   0  0  0  0  0  0  0  0  0  0  0  0
  151.0176  136.2549  155.2357 C   0  0  0  0  0  0  0  0  0  0  0  0
  150.7585  135.8376  156.6829 C   0  0  0  0  0  0  0  0  0  0  0  0
  151.6235  135.2312  157.3142 O   0  0  0  0  0  0  0  0  0  0  0  0
  149.5644  136.1716  157.1955 N   0  0  0  0  0  0  0  0  0  0  0  0
  149.1267  135.8911  158.5581 C   0  0  2  0  0  0  0  0  0  0  0  0
  147.9034  134.9526  158.5932 C   0  0  0  0  0  0  0  0  0  0  0  0
  147.2793  135.0115  159.9927 C   0  0  0  0  0  0  0  0  0  0  0  0
  147.6051  136.7011  160.6253 S   0  0  0  0  0  0  0  0  0  0  0  0
  146.3799  137.5090  160.5300 O   0  0  0  0  0  0  0  0  0  0  0  0
  148.3499  136.6009  161.8896 O   0  0  0  0  0  0  0  0  0  0  0  0
  148.7490  137.1913  159.2808 C   0  0  0  0  0  0  0  0  0  0  0  0
  154.6819  137.2471  155.7038 H   0  0  0  0  0  0  0  0  0  0  0  0
  153.5294  136.5139  156.8132 H   0  0  0  0  0  0  0  0  0  0  0  0
  154.2779  138.0517  157.2185 H   0  0  0  0  0  0  0  0  0  0  0  0
  149.5839  138.3974  153.0409 H   0  0  0  0  0  0  0  0  0  0  0  0
  149.4572  140.0240  153.7137 H   0  0  0  0  0  0  0  0  0  0  0  0
  148.7850  138.6506  154.5933 H   0  0  0  0  0  0  0  0  0  0  0  0
  150.0999  136.1388  154.6585 H   0  0  0  0  0  0  0  0  0  0  0  0
  151.7383  135.5664  154.7924 H   0  0  0  0  0  0  0  0  0  0  0  0
  148.9179  136.6696  156.6012 H   0  0  0  0  0  0  0  0  0  0  0  0
  149.9397  135.4213  159.1151 H   0  0  0  0  0  0  0  0  0  0  0  0
  147.1651  135.2981  157.8681 H   0  0  0  0  0  0  0  0  0  0  0  0
  148.1661  133.9308  158.3168 H   0  0  0  0  0  0  0  0  0  0  0  0
  146.2082  134.8081  159.9903 H   0  0  0  0  0  0  0  0  0  0  0  0
  147.7670  134.3028  160.6626 H   0  0  0  0  0  0  0  0  0  0  0  0
  149.6112  137.7164  159.6929 H   0  0  0  0  0  0  0  0  0  0  0  0
  148.2101  137.8715  158.6203 H   0  0  0  0  0  0  0  0  0  0  0  0
  1  2  1  0  0  0  0
  1 19  1  0  0  0  0
  1 20  1  0  0  0  0
  1 21  1  0  0  0  0
  2  7  1  0  0  0  0
  2  3  2  0  0  0  0
  3  4  1  0  0  0  0
  4  5  1  0  0  0  0
  5  6  1  0  0  0  0
  5  7  2  0  0  0  0
  6 22  1  0  0  0  0
  6 23  1  0  0  0  0
  6 24  1  0  0  0  0
  7  8  1  0  0  0  0
  8  9  1  0  0  0  0
  8 25  1  0  0  0  0
  8 26  1  0  0  0  0
  9 10  2  0  0  0  0
  9 11  1  0  0  0  0
 11 12  1  0  0  0  0
 11 27  1  0  0  0  0
 12 18  1  0  0  0  0
 12 13  1  0  0  0  0
 12 28  1  0  0  0  0
 13 14  1  0  0  0  0
 13 29  1  0  0  0  0
 13 30  1  0  0  0  0
 14 15  1  0  0  0  0
 14 31  1  0  0  0  0
 14 32  1  0  0  0  0
 15 16  2  0  0  0  0
 15 17  2  0  0  0  0
 15 18  1  0  0  0  0
 18 33  1  0  0  0  0
 18 34  1  0  0  0  0
M  END
> <s_m_source_file>
AV-unprocessed.smi

> <i_m_source_file_index>
1778

> <i_lp_mmshare_version>
43012

> <i_f3d_flags>
0

> <s_epik_input>
W0NIM11jMW5vYyhbQ0gzXSljMVtDSDJdQyg9TylbTkhdW0NAQEhdKFtDSDJdMilbQ0gyXVtDSDJdUzIoPU8pPU8=

> <s_epik_cmdline>
J2VwaWtfcHl0aG9uJywgJy1waCcsICc3LjAnLCAnLXRuJywgJzgnLCAnLW1hJywgJzIwMCcsICctbWV0YWxfYmluZGluZycsICctaW1hZScsICc8aW5maWxlLm1hZT4nLCAnLW9tYWUnLCAnPG91dGZpbGUubWFlPic=

> <r_lp_tautomer_probability>
1

> <r_epik_Ionization_Penalty>
1.26334e-07

> <r_epik_Ionization_Penalty_Charging>
0

> <r_epik_Ionization_Penalty_Neutral>
1.26334e-07

> <r_epik_State_Penalty>
-0

> <r_epik_Charging_Adjusted_Penalty>
0

> <i_epik_Tot_Q>
0

> <i_epik_Tot_abs_Q>
0

> <r_epik_Metal_State_Penalty>
-0

> <b_epik_Metal_Only>
0

> <s_lp_Force_Field>
OPLS_2005

> <r_lp_Energy>
-2.84912

> <b_lp_Chiralities_Consistent>
1

> <s_lp_Variant>
AV-unprocessed.smi:1778-1

> <Gold.Version>
5.8.1

> <Gold.Id.Protein>
6NUR|6NUR_protein|mol2

> <Gold.PLP.Fitness>
33.8099

> <Gold.PLP.PLP>
-23.7868

> <Gold.PLP.part.hbond>
-5.5953

> <Gold.PLP.part.metal>
0.0000

> <Gold.PLP.part.buried>
-0.3615

> <Gold.PLP.part.nonpolar>
-18.2622

> <Gold.PLP.part.repulsive>
0.1127

> <Gold.PLP.ligand.clash>
0.0000

> <Gold.PLP.ligand.torsion>
0.3896

> <Gold.PLP.Chemscore.Hbond>
3.6000

> <Gold.PLP.Chemscore.CHOScore>
0.0000

> <Gold.PLP.Chemscore.Metal>
0.0000

> <Gold.Chemscore.Hbonds>
donor molecule, donor type, donor heavy atom, donor atom, acceptor molecule, acceptor atom, score
      P1  H  6931  6943       L1    17  0.95
      P1  H  6934  6947       L1    16  0.80
      P1  H  7989  7998       L1     4  1.00
      P1  H  7997  8009       L1     3  1.00

> <Gold.PLP.Chemscore.Internal.Correction>
0.0023

> <Gold.Rescore>
     Score         DG    S(hbond)    S(metal)    S(lipo)     H(rot)  DE(clash)    DE(int)     intcor
     16.78     -17.23       2.91        0.00      50.12       1.51       0.02       0.42       ----

> <Gold.Chemscore.Fitness>
16.7811

> <Gold.Chemscore.DG>
-17.2274

> <Gold.Chemscore.ZeroCoef>
-5.4800

> <Gold.Chemscore.Hbond>
2.9150

> <Gold.Chemscore.Metal>
0.0000

> <Gold.Chemscore.Lipo>
50.1242

> <Gold.Chemscore.Internal_Hbond>
0.0000

> <Gold.Chemscore.DEClash>
0.0215

> <Gold.Chemscore.DEInternal>
0.4248

> <Gold.Chemscore.Rot>
1.5051

> <Gold.Chemscore.Internal.Correction>
   9.000000E+99

> <Gold.Chemscore.Hbonds>
donor molecule, donor type, donor heavy atom, donor atom, acceptor molecule, acceptor atom, score
      P1  H  6931  6943       L1    17  0.22
      P1  H  6934  6947       L1    16  0.12
      P1  H  7989  7998       L1     4  0.79
      P1  H  7997  8009       L1     3  0.85

> <Gold.Chemscore.Hbond.Weighted>
-9.7360

> <Gold.Chemscore.Metal.Weighted>
-0.0000

> <Gold.Chemscore.Lipo.Weighted>
-5.8645

> <Gold.Chemscore.Internal_Hbond.Weighted>
0.0000

> <Gold.Chemscore.DEClash.Weighted>
0.0215

> <Gold.Chemscore.DEInternal.Weighted>
0.4248

> <Gold.Chemscore.Rot.Weighted>
3.8531

> <Gold.Chemscore.Internal.Correction.Weighted>
   9.000000E+99

> <Gold.Protein.RotatedTorsions>
[ 6907 6896 6895 6894 ] final  -30.83 input  -60.11 | X-H torsion
[ 7974 7965 7964 7962 ] final  161.94 input  175.53 | X-H torsion
[ 8008 7997 7996 7995 ] final -149.15 input   59.86 | X-H torsion
[ 10167 10162 10161 10158 ] final    3.74 input  -65.29 | X-H torsion
[ 10718 10713 10712 10709 ] final  -28.91 input   66.30 | X-H torsion
[ 10763 10752 10751 10750 ] final  121.75 input  -60.55 | X-H torsion
[ 11005 11000 10999 10996 ] final  138.49 input  -57.11 | X-H torsion

> <Gold.Protein.ActiveResidues>
 VAL166  LYS551  ARG553  GLY616  TRP617  ASP618  TYR619  PRO620  LYS621  CYS622 
 ASP623  PHE694  ASN695  SER759  ASP760  ASP761  ALA762  ILE779  LEU786  VAL792 
 PHE793  MET794  SER795  GLU796  ALA797  LYS798  CYS799  TRP800  GLU811  SER814 

> <Gold.Protein.RotatedAtoms>
  151.1003  134.9968  159.8444 H   0  0  0  0  0  0  0  0  0  0  0  0  # atno 6907 bound_to 6896
  152.5436  134.1959  159.8702 H   0  0  0  0  0  0  0  0  0  0  0  0  # atno 6908 bound_to 6896
  151.2001  133.4571  159.2629 H   0  0  0  0  0  0  0  0  0  0  0  0  # atno 6909 bound_to 6896
  144.7660  139.7970  143.6315 H   0  0  0  0  0  0  0  0  0  0  0  0  # atno 7974 bound_to 7965
  155.6031  140.0664  157.2727 H   0  0  0  0  0  0  0  0  0  0  0  0  # atno 8008 bound_to 7997
  154.4273  140.1815  156.1241 H   0  0  0  0  0  0  0  0  0  0  0  0  # atno 8009 bound_to 7997
  156.0144  140.3323  155.6977 H   0  0  0  0  0  0  0  0  0  0  0  0  # atno 8010 bound_to 7997
  140.6570  143.7401  150.7671 H   0  0  0  0  0  0  0  0  0  0  0  0  # atno 10167 bound_to 10162
  156.4192  130.4423  149.7196 H   0  0  0  0  0  0  0  0  0  0  0  0  # atno 10718 bound_to 10713
  153.6189  135.3417  155.3004 H   0  0  0  0  0  0  0  0  0  0  0  0  # atno 10763 bound_to 10752
  154.8604  135.4268  154.2229 H   0  0  0  0  0  0  0  0  0  0  0  0  # atno 10764 bound_to 10752
  153.3097  135.7030  153.7199 H   0  0  0  0  0  0  0  0  0  0  0  0  # atno 10765 bound_to 10752
  140.0187  134.9406  157.0429 H   0  0  0  0  0  0  0  0  0  0  0  0  # atno 11005 bound_to 11000
  146.1768  139.4943  142.9892 LP  0  0  0  0  0  0  0  0  0  0  0  0  # atno 17320 bound_to 7965
  145.6467  141.0272  143.1782 LP  0  0  0  0  0  0  0  0  0  0  0  0  # atno 17321 bound_to 7965
  140.1063  143.4741  152.2396 LP  0  0  0  0  0  0  0  0  0  0  0  0  # atno 17342 bound_to 10162
  139.5795  144.7504  151.3677 LP  0  0  0  0  0  0  0  0  0  0  0  0  # atno 17343 bound_to 10162
  156.4144  130.7738  151.2752 LP  0  0  0  0  0  0  0  0  0  0  0  0  # atno 17370 bound_to 10713
  157.7508  131.0202  150.3698 LP  0  0  0  0  0  0  0  0  0  0  0  0  # atno 17371 bound_to 10713
  140.4425  134.1666  155.7175 LP  0  0  0  0  0  0  0  0  0  0  0  0  # atno 17394 bound_to 11000
  141.1760  133.8513  157.1420 LP  0  0  0  0  0  0  0  0  0  0  0  0  # atno 17395 bound_to 11000

$$$$
