AV-unprocessed.smi:3072|AV-procd|sdf|11718|dock4
  -GOLD-   2272017123D 1   1.00000     0.00000
 Structure written by MMmdl.
 25 26  0  0  0  0  0  0  0  0  2 V2000
  152.7405  144.5999  158.4731 C   0  0  0  0  0  0  0  0  0  0  0  0
  152.2568  144.9905  157.3048 N   0  0  0  0  0  0  0  0  0  0  0  0
  151.1109  144.2957  157.1859 N   0  0  0  0  0  0  0  0  0  0  0  0
  150.8689  143.4755  158.2623 C   0  0  0  0  0  0  0  0  0  0  0  0
  151.9136  143.6409  159.1303 C   0  0  0  0  0  0  0  0  0  0  0  0
  152.1584  142.9805  160.4631 C   0  0  1  0  0  0  0  0  0  0  0  0
  153.4569  142.1507  160.4505 C   0  0  0  0  0  0  0  0  0  0  0  0
  153.7091  141.5227  161.8303 C   0  0  0  0  0  0  0  0  0  0  0  0
  153.7099  142.5957  162.9315 C   0  0  0  0  0  0  0  0  0  0  0  0
  152.4508  143.3712  162.9061 N   0  3  0  0  0  0  0  0  0  0  0  0
  152.1997  144.0213  161.6012 C   0  0  0  0  0  0  0  0  0  0  0  0
  150.5136  144.3910  156.3766 H   0  0  0  0  0  0  0  0  0  0  0  0
  153.6767  145.0201  158.8099 H   0  0  0  0  0  0  0  0  0  0  0  0
  149.9887  142.8521  158.3192 H   0  0  0  0  0  0  0  0  0  0  0  0
  151.3358  142.2958  160.6765 H   0  0  0  0  0  0  0  0  0  0  0  0
  153.3979  141.3689  159.6922 H   0  0  0  0  0  0  0  0  0  0  0  0
  154.3041  142.7829  160.1809 H   0  0  0  0  0  0  0  0  0  0  0  0
  152.9377  140.7809  162.0418 H   0  0  0  0  0  0  0  0  0  0  0  0
  154.6596  140.9883  161.8287 H   0  0  0  0  0  0  0  0  0  0  0  0
  153.8238  142.1325  163.9118 H   0  0  0  0  0  0  0  0  0  0  0  0
  154.5533  143.2751  162.7996 H   0  0  0  0  0  0  0  0  0  0  0  0
  151.6838  142.7449  163.1057 H   0  0  0  0  0  0  0  0  0  0  0  0
  152.9797  144.7621  161.4192 H   0  0  0  0  0  0  0  0  0  0  0  0
  151.2542  144.5617  161.6559 H   0  0  0  0  0  0  0  0  0  0  0  0
  152.4876  144.0804  163.6243 H   0  0  0  0  0  0  0  0  0  0  0  0
  1  5  1  0  0  0  0
  1  2  2  0  0  0  0
  1 13  1  0  0  0  0
  2  3  1  0  0  0  0
  3 12  1  0  0  0  0
  3  4  1  0  0  0  0
  4  5  2  0  0  0  0
  4 14  1  0  0  0  0
  5  6  1  0  0  0  0
  6 11  1  0  0  0  0
  6  7  1  0  0  0  0
  6 15  1  0  0  0  0
  7  8  1  0  0  0  0
  7 16  1  0  0  0  0
  7 17  1  0  0  0  0
  8  9  1  0  0  0  0
  8 18  1  0  0  0  0
  8 19  1  0  0  0  0
  9 10  1  0  0  0  0
  9 20  1  0  0  0  0
  9 21  1  0  0  0  0
 10 11  1  0  0  0  0
 10 22  1  0  0  0  0
 10 25  1  0  0  0  0
 11 23  1  0  0  0  0
 11 24  1  0  0  0  0
M  CHG  1  10   1
M  END
> <s_m_source_file>
AV-unprocessed.smi

> <i_m_source_file_index>
3072

> <i_lp_mmshare_version>
43012

> <i_f3d_flags>
0

> <s_epik_input>
W2NIXTFbbkhdbltjSF1jMVtDQEBIXTJbQ0gyXVtDSDJdW0NIMl1bTkhdW0NIMl0y

> <s_epik_cmdline>
J2VwaWtfcHl0aG9uJywgJy1waCcsICc3LjAnLCAnLXRuJywgJzgnLCAnLW1hJywgJzIwMCcsICctbWV0YWxfYmluZGluZycsICctaW1hZScsICc8aW5maWxlLm1hZT4nLCAnLW9tYWUnLCAnPG91dGZpbGUubWFlPic=

> <r_lp_tautomer_probability>
1

> <r_epik_Ionization_Penalty>
0.000160186

> <r_epik_Ionization_Penalty_Charging>
0.000157527

> <r_epik_Ionization_Penalty_Neutral>
2.65916e-06

> <r_epik_State_Penalty>
-0

> <r_epik_Charging_Adjusted_Penalty>
0.000157527

> <i_epik_Tot_Q>
1

> <i_epik_Tot_abs_Q>
1

> <r_epik_Metal_State_Penalty>
-0

> <b_epik_Metal_Only>
0

> <s_lp_Force_Field>
OPLS_2005

> <r_lp_Energy>
12.3326

> <b_lp_Chiralities_Consistent>
1

> <s_lp_Variant>
AV-unprocessed.smi:3072-2

> <Gold.Version>
5.8.1

> <Gold.Id.Protein>
6NUR|6NUR_protein|mol2

> <Gold.PLP.Fitness>
34.2947

> <Gold.PLP.PLP>
-31.3188

> <Gold.PLP.part.hbond>
-2.0000

> <Gold.PLP.part.metal>
0.0000

> <Gold.PLP.part.buried>
-1.3845

> <Gold.PLP.part.nonpolar>
-26.7866

> <Gold.PLP.part.repulsive>
0.2548

> <Gold.PLP.ligand.clash>
0.0000

> <Gold.PLP.ligand.torsion>
0.0062

> <Gold.PLP.Chemscore.Hbond>
0.9920

> <Gold.PLP.Chemscore.CHOScore>
0.0000

> <Gold.PLP.Chemscore.Metal>
0.0000

> <Gold.Chemscore.Hbonds>
donor molecule, donor type, donor heavy atom, donor atom, acceptor molecule, acceptor atom, score
      L1  H     3    12       P1  8028  0.99

> <Gold.PLP.Chemscore.Internal.Correction>
0.0123

> <Gold.Rescore>
     Score         DG    S(hbond)    S(metal)    S(lipo)     H(rot)  DE(clash)    DE(int)     intcor
     14.92     -16.83       0.99        0.00      90.66       1.00       1.91       0.01       ----

> <Gold.Chemscore.Fitness>
14.9208

> <Gold.Chemscore.DG>
-16.8333

> <Gold.Chemscore.ZeroCoef>
-5.4800

> <Gold.Chemscore.Hbond>
0.9898

> <Gold.Chemscore.Metal>
0.0000

> <Gold.Chemscore.Lipo>
90.6611

> <Gold.Chemscore.Internal_Hbond>
0.0000

> <Gold.Chemscore.DEClash>
1.9063

> <Gold.Chemscore.DEInternal>
0.0062

> <Gold.Chemscore.Rot>
1.0000

> <Gold.Chemscore.Internal.Correction>
   9.000000E+99

> <Gold.Chemscore.Hbonds>
donor molecule, donor type, donor heavy atom, donor atom, acceptor molecule, acceptor atom, score
      L1  H     3    12       P1  8028  0.94

> <Gold.Chemscore.Hbond.Weighted>
-3.3059

> <Gold.Chemscore.Metal.Weighted>
-0.0000

> <Gold.Chemscore.Lipo.Weighted>
-10.6073

> <Gold.Chemscore.Internal_Hbond.Weighted>
0.0000

> <Gold.Chemscore.DEClash.Weighted>
1.9063

> <Gold.Chemscore.DEInternal.Weighted>
0.0062

> <Gold.Chemscore.Rot.Weighted>
2.5600

> <Gold.Chemscore.Internal.Correction.Weighted>
   9.000000E+99

> <Gold.Protein.RotatedTorsions>
[ 6907 6896 6895 6894 ] final  109.02 input  -60.11 | X-H torsion
[ 7974 7965 7964 7962 ] final  126.47 input  175.53 | X-H torsion
[ 8008 7997 7996 7995 ] final  -87.66 input   59.86 | X-H torsion
[ 10167 10162 10161 10158 ] final -121.73 input  -65.29 | X-H torsion
[ 10718 10713 10712 10709 ] final -176.62 input   66.30 | X-H torsion
[ 10763 10752 10751 10750 ] final  -99.54 input  -60.55 | X-H torsion
[ 11005 11000 10999 10996 ] final -164.32 input  -57.11 | X-H torsion

> <Gold.Protein.ActiveResidues>
 VAL166  LYS551  ARG553  GLY616  TRP617  ASP618  TYR619  PRO620  LYS621  CYS622 
 ASP623  PHE694  ASN695  SER759  ASP760  ASP761  ALA762  ILE779  LEU786  VAL792 
 PHE793  MET794  SER795  GLU796  ALA797  LYS798  CYS799  TRP800  GLU811  SER814 

> <Gold.Protein.RotatedAtoms>
  152.5086  133.9005  159.7438 H   0  0  0  0  0  0  0  0  0  0  0  0  # atno 6907 bound_to 6896
  150.9422  133.6635  159.2795 H   0  0  0  0  0  0  0  0  0  0  0  0  # atno 6908 bound_to 6896
  151.3943  135.0966  159.9588 H   0  0  0  0  0  0  0  0  0  0  0  0  # atno 6909 bound_to 6896
  145.0613  139.3802  143.5004 H   0  0  0  0  0  0  0  0  0  0  0  0  # atno 7974 bound_to 7965
  154.6658  140.0563  157.0112 H   0  0  0  0  0  0  0  0  0  0  0  0  # atno 8008 bound_to 7997
  155.1161  140.3243  155.4490 H   0  0  0  0  0  0  0  0  0  0  0  0  # atno 8009 bound_to 7997
  156.2637  140.2005  156.6285 H   0  0  0  0  0  0  0  0  0  0  0  0  # atno 8010 bound_to 7997
  140.0219  143.5336  152.2217 H   0  0  0  0  0  0  0  0  0  0  0  0  # atno 10167 bound_to 10162
  156.8174  130.9608  151.3113 H   0  0  0  0  0  0  0  0  0  0  0  0  # atno 10718 bound_to 10713
  154.7506  135.4968  153.9283 H   0  0  0  0  0  0  0  0  0  0  0  0  # atno 10763 bound_to 10752
  153.1140  135.6716  153.9459 H   0  0  0  0  0  0  0  0  0  0  0  0  # atno 10764 bound_to 10752
  153.9210  135.3088  155.3426 H   0  0  0  0  0  0  0  0  0  0  0  0  # atno 10765 bound_to 10752
  140.5882  134.5071  157.5189 H   0  0  0  0  0  0  0  0  0  0  0  0  # atno 11005 bound_to 11000
  146.3524  140.0313  142.8650 LP  0  0  0  0  0  0  0  0  0  0  0  0  # atno 17320 bound_to 7965
  145.1405  140.9568  143.4491 LP  0  0  0  0  0  0  0  0  0  0  0  0  # atno 17321 bound_to 7965
  139.6134  144.7614  151.2900 LP  0  0  0  0  0  0  0  0  0  0  0  0  # atno 17342 bound_to 10162
  140.7339  143.6781  150.8024 LP  0  0  0  0  0  0  0  0  0  0  0  0  # atno 17343 bound_to 10162
  157.6474  130.8856  149.9566 LP  0  0  0  0  0  0  0  0  0  0  0  0  # atno 17370 bound_to 10713
  156.1008  130.3656  150.0221 LP  0  0  0  0  0  0  0  0  0  0  0  0  # atno 17371 bound_to 10713
  139.9286  134.8008  156.0996 LP  0  0  0  0  0  0  0  0  0  0  0  0  # atno 17394 bound_to 11000
  141.0952  133.6698  156.2629 LP  0  0  0  0  0  0  0  0  0  0  0  0  # atno 17395 bound_to 11000

$$$$
