AV-unprocessed.smi:2069|AV-procd|sdf|8436|dock3
  -GOLD-   2272011133D 1   1.00000     0.00000
 Structure written by MMmdl.
 37 38  0  0  0  0  0  0  0  0  2 V2000
  148.9084  141.1325  154.9696 C   0  0  0  0  0  0  0  0  0  0  0  0
  149.7822  139.9365  154.8066 C   0  0  0  0  0  0  0  0  0  0  0  0
  151.1118  139.9947  154.9140 N   0  0  0  0  0  0  0  0  0  0  0  0
  151.7059  138.7555  154.7254 N   0  0  0  0  0  0  0  0  0  0  0  0
  150.8201  137.7777  154.4881 C   0  0  0  0  0  0  0  0  0  0  0  0
  151.1948  136.5057  154.2738 N   0  5  0  0  0  0  0  0  0  0  0  0
  150.5896  135.4991  154.9448 C   0  0  0  0  0  0  0  0  0  0  0  0
  150.8834  135.0891  156.0701 O   0  0  0  0  0  0  0  0  0  0  0  0
  149.5801  134.9330  154.2703 N   0  0  0  0  0  0  0  0  0  0  0  0
  148.7600  133.8238  154.7468 C   0  0  0  0  0  0  0  0  0  0  0  0
  148.9376  132.5454  153.8823 C   0  0  1  0  0  0  0  0  0  0  0  0
  149.7734  131.5152  154.6843 C   0  0  0  0  0  0  0  0  0  0  0  0
  147.6575  131.9829  153.3907 N   0  0  0  0  0  0  0  0  0  0  0  0
  147.0925  132.7475  152.2727 C   0  0  0  0  0  0  0  0  0  0  0  0
  145.7808  132.1460  151.7388 C   0  0  0  0  0  0  0  0  0  0  0  0
  145.9936  130.7960  151.3500 O   0  0  0  0  0  0  0  0  0  0  0  0
  146.4670  130.0003  152.4276 C   0  0  0  0  0  0  0  0  0  0  0  0
  147.7854  130.5850  152.9629 C   0  0  0  0  0  0  0  0  0  0  0  0
  149.1473  138.3364  154.4614 S   0  0  0  0  0  0  0  0  0  0  0  0
  148.8243  141.3902  156.0254 H   0  0  0  0  0  0  0  0  0  0  0  0
  147.9115  140.9303  154.5775 H   0  0  0  0  0  0  0  0  0  0  0  0
  149.3286  141.9828  154.4318 H   0  0  0  0  0  0  0  0  0  0  0  0
  149.3707  135.2965  153.3522 H   0  0  0  0  0  0  0  0  0  0  0  0
  149.0016  133.6035  155.7880 H   0  0  0  0  0  0  0  0  0  0  0  0
  147.7341  134.1876  154.7239 H   0  0  0  0  0  0  0  0  0  0  0  0
  149.5331  132.8312  153.0137 H   0  0  0  0  0  0  0  0  0  0  0  0
  150.6875  131.9452  155.0924 H   0  0  0  0  0  0  0  0  0  0  0  0
  150.1047  130.6810  154.0677 H   0  0  0  0  0  0  0  0  0  0  0  0
  149.2021  131.1118  155.5208 H   0  0  0  0  0  0  0  0  0  0  0  0
  146.8688  133.7679  152.5769 H   0  0  0  0  0  0  0  0  0  0  0  0
  147.8196  132.8090  151.4615 H   0  0  0  0  0  0  0  0  0  0  0  0
  144.9968  132.1959  152.4960 H   0  0  0  0  0  0  0  0  0  0  0  0
  145.4286  132.7121  150.8764 H   0  0  0  0  0  0  0  0  0  0  0  0
  145.7148  129.9561  153.2169 H   0  0  0  0  0  0  0  0  0  0  0  0
  146.6209  128.9804  152.0750 H   0  0  0  0  0  0  0  0  0  0  0  0
  148.5564  130.5022  152.1951 H   0  0  0  0  0  0  0  0  0  0  0  0
  148.0977  129.9559  153.7943 H   0  0  0  0  0  0  0  0  0  0  0  0
  1  2  1  0  0  0  0
  1 20  1  0  0  0  0
  1 21  1  0  0  0  0
  1 22  1  0  0  0  0
  2 19  1  0  0  0  0
  2  3  2  0  0  0  0
  3  4  1  0  0  0  0
  4  5  2  0  0  0  0
  5  6  1  0  0  0  0
  5 19  1  0  0  0  0
  6  7  1  0  0  0  0
  7  8  2  0  0  0  0
  7  9  1  0  0  0  0
  9 10  1  0  0  0  0
  9 23  1  0  0  0  0
 10 11  1  0  0  0  0
 10 24  1  0  0  0  0
 10 25  1  0  0  0  0
 11 12  1  0  0  0  0
 11 13  1  0  0  0  0
 11 26  1  0  0  0  0
 12 27  1  0  0  0  0
 12 28  1  0  0  0  0
 12 29  1  0  0  0  0
 13 18  1  0  0  0  0
 13 14  1  0  0  0  0
 14 15  1  0  0  0  0
 14 30  1  0  0  0  0
 14 31  1  0  0  0  0
 15 16  1  0  0  0  0
 15 32  1  0  0  0  0
 15 33  1  0  0  0  0
 16 17  1  0  0  0  0
 17 18  1  0  0  0  0
 17 34  1  0  0  0  0
 17 35  1  0  0  0  0
 18 36  1  0  0  0  0
 18 37  1  0  0  0  0
M  CHG  1   6  -1
M  END
> <s_m_source_file>
AV-unprocessed.smi

> <i_m_source_file_index>
2069

> <i_lp_mmshare_version>
43012

> <i_f3d_flags>
0

> <s_epik_input>
W0NIM11jMW5uYyhzMSlbTkhdQyg9TylbTkhdW0NIMl1bQ0BIXShbQ0gzXSlOMltDSDJdW0NIMl1PW0NIMl1bQ0gyXTI=

> <s_epik_cmdline>
J2VwaWtfcHl0aG9uJywgJy1waCcsICc3LjAnLCAnLXRuJywgJzgnLCAnLW1hJywgJzIwMCcsICctbWV0YWxfYmluZGluZycsICctaW1hZScsICc8aW5maWxlLm1hZT4nLCAnLW9tYWUnLCAnPG91dGZpbGUubWFlPic=

> <r_lp_tautomer_probability>
1

> <r_epik_Ionization_Penalty>
3.82002

> <r_epik_Ionization_Penalty_Charging>
3.36369

> <r_epik_Ionization_Penalty_Neutral>
0.456339

> <r_epik_State_Penalty>
3.571

> <r_epik_Charging_Adjusted_Penalty>
6.93469

> <i_epik_Tot_Q>
-1

> <i_epik_Tot_abs_Q>
1

> <r_epik_Metal_State_Penalty>
0.710436

> <b_epik_Metal_Only>
1

> <s_lp_Force_Field>
OPLS_2005

> <r_lp_Energy>
26.7527

> <b_lp_Chiralities_Consistent>
1

> <s_lp_Variant>
AV-unprocessed.smi:2069-6

> <Gold.Version>
5.8.1

> <Gold.Id.Protein>
6NUR|6NUR_protein|mol2

> <Gold.PLP.Fitness>
38.1119

> <Gold.PLP.PLP>
-30.6027

> <Gold.PLP.part.hbond>
-3.0000

> <Gold.PLP.part.metal>
0.0000

> <Gold.PLP.part.buried>
-6.3650

> <Gold.PLP.part.nonpolar>
-24.1593

> <Gold.PLP.part.repulsive>
1.5510

> <Gold.PLP.ligand.clash>
0.0000

> <Gold.PLP.ligand.torsion>
2.2294

> <Gold.PLP.Chemscore.Hbond>
3.9500

> <Gold.PLP.Chemscore.CHOScore>
0.0000

> <Gold.PLP.Chemscore.Metal>
0.0000

> <Gold.Chemscore.Hbonds>
donor molecule, donor type, donor heavy atom, donor atom, acceptor molecule, acceptor atom, score
      L1  H     9    23       P1  7948  0.75
      P1  H  7989  7998       L1     3  1.00
      P1  H 10752 10763       L1     6  1.20

> <Gold.PLP.Chemscore.Internal.Correction>
0.1180

> <Gold.Rescore>
     Score         DG    S(hbond)    S(metal)    S(lipo)     H(rot)  DE(clash)    DE(int)     intcor
     11.27     -13.46       1.67        0.00      55.06       1.57       0.00       2.20       ----

> <Gold.Chemscore.Fitness>
11.2653

> <Gold.Chemscore.DG>
-13.4616

> <Gold.Chemscore.ZeroCoef>
-5.4800

> <Gold.Chemscore.Hbond>
1.6667

> <Gold.Chemscore.Metal>
0.0000

> <Gold.Chemscore.Lipo>
55.0606

> <Gold.Chemscore.Internal_Hbond>
0.0000

> <Gold.Chemscore.DEClash>
0.0000

> <Gold.Chemscore.DEInternal>
2.1962

> <Gold.Chemscore.Rot>
1.5732

> <Gold.Chemscore.Internal.Correction>
   9.000000E+99

> <Gold.Chemscore.Hbonds>
donor molecule, donor type, donor heavy atom, donor atom, acceptor molecule, acceptor atom, score
      L1  H     9    23       P1  7948  0.09
      P1  H  7989  7998       L1     3  0.17
      P1  H 10752 10763       L1     6  0.04

> <Gold.Chemscore.Hbond.Weighted>
-5.5669

> <Gold.Chemscore.Metal.Weighted>
-0.0000

> <Gold.Chemscore.Lipo.Weighted>
-6.4421

> <Gold.Chemscore.Internal_Hbond.Weighted>
0.0000

> <Gold.Chemscore.DEClash.Weighted>
0.0000

> <Gold.Chemscore.DEInternal.Weighted>
2.1962

> <Gold.Chemscore.Rot.Weighted>
4.0274

> <Gold.Chemscore.Internal.Correction.Weighted>
   9.000000E+99

> <Gold.Protein.RotatedTorsions>
[ 6907 6896 6895 6894 ] final  115.63 input  -60.11 | X-H torsion
[ 7974 7965 7964 7962 ] final  152.79 input  175.53 | X-H torsion
[ 8008 7997 7996 7995 ] final -100.08 input   59.86 | X-H torsion
[ 10167 10162 10161 10158 ] final  144.01 input  -65.29 | X-H torsion
[ 10718 10713 10712 10709 ] final   96.46 input   66.30 | X-H torsion
[ 10763 10752 10751 10750 ] final   47.04 input  -60.55 | X-H torsion
[ 11005 11000 10999 10996 ] final  -62.93 input  -57.11 | X-H torsion

> <Gold.Protein.ActiveResidues>
 VAL166  LYS551  ARG553  GLY616  TRP617  ASP618  TYR619  PRO620  LYS621  CYS622 
 ASP623  PHE694  ASN695  SER759  ASP760  ASP761  ALA762  ILE779  LEU786  VAL792 
 PHE793  MET794  SER795  GLU796  ALA797  LYS798  CYS799  TRP800  GLU811  SER814 

> <Gold.Protein.RotatedAtoms>
  152.4730  133.8072  159.6983 H   0  0  0  0  0  0  0  0  0  0  0  0  # atno 6907 bound_to 6896
  150.8729  133.7470  159.2962 H   0  0  0  0  0  0  0  0  0  0  0  0  # atno 6908 bound_to 6896
  151.4999  135.1064  159.9878 H   0  0  0  0  0  0  0  0  0  0  0  0  # atno 6909 bound_to 6896
  144.8198  139.6714  143.6105 H   0  0  0  0  0  0  0  0  0  0  0  0  # atno 7974 bound_to 7965
  154.8237  140.0443  157.1428 H   0  0  0  0  0  0  0  0  0  0  0  0  # atno 8008 bound_to 7997
  154.9231  140.3029  155.5186 H   0  0  0  0  0  0  0  0  0  0  0  0  # atno 8009 bound_to 7997
  156.2982  140.2337  156.4283 H   0  0  0  0  0  0  0  0  0  0  0  0  # atno 8010 bound_to 7997
  139.4956  144.6001  151.6499 H   0  0  0  0  0  0  0  0  0  0  0  0  # atno 10167 bound_to 10162
  157.6926  131.0578  150.4494 H   0  0  0  0  0  0  0  0  0  0  0  0  # atno 10718 bound_to 10713
  152.9804  135.5989  154.3697 H   0  0  0  0  0  0  0  0  0  0  0  0  # atno 10763 bound_to 10752
  154.3372  135.2768  155.2443 H   0  0  0  0  0  0  0  0  0  0  0  0  # atno 10764 bound_to 10752
  154.4541  135.5982  153.6266 H   0  0  0  0  0  0  0  0  0  0  0  0  # atno 10765 bound_to 10752
  141.1376  133.6645  156.5602 H   0  0  0  0  0  0  0  0  0  0  0  0  # atno 11005 bound_to 11000
  146.2503  139.6186  142.9431 LP  0  0  0  0  0  0  0  0  0  0  0  0  # atno 17320 bound_to 7965
  145.5130  141.0435  143.2477 LP  0  0  0  0  0  0  0  0  0  0  0  0  # atno 17321 bound_to 7965
  140.5649  144.0207  150.6187 LP  0  0  0  0  0  0  0  0  0  0  0  0  # atno 17342 bound_to 10162
  140.3305  143.3080  152.0692 LP  0  0  0  0  0  0  0  0  0  0  0  0  # atno 17343 bound_to 10162
  156.4847  130.4081  149.6441 LP  0  0  0  0  0  0  0  0  0  0  0  0  # atno 17370 bound_to 10713
  156.3474  130.7414  151.2368 LP  0  0  0  0  0  0  0  0  0  0  0  0  # atno 17371 bound_to 10713
  140.3994  134.7370  157.4770 LP  0  0  0  0  0  0  0  0  0  0  0  0  # atno 17394 bound_to 11000
  140.0507  134.6135  155.8865 LP  0  0  0  0  0  0  0  0  0  0  0  0  # atno 17395 bound_to 11000

$$$$
