AV-unprocessed.smi:790|AV-procd|sdf|3744|dock4
  -GOLD-   22720 1173D 1   1.00000     0.00000
 Structure written by MMmdl.
 38 40  0  0  0  0  0  0  0  0  1 V2000
  146.6972  132.9888  154.4011 O   0  0  0  0  0  0  0  0  0  0  0  0
  147.0966  133.8962  153.6722 C   0  0  0  0  0  0  0  0  0  0  0  0
  148.2988  134.4913  153.7589 N   0  0  0  0  0  0  0  0  0  0  0  0
  149.3354  134.2671  154.7052 C   0  0  0  0  0  0  0  0  0  0  0  0
  149.4837  133.0799  155.4628 C   0  0  0  0  0  0  0  0  0  0  0  0
  150.5446  132.9897  156.3844 C   0  0  0  0  0  0  0  0  0  0  0  0
  151.4129  134.0898  156.5212 C   0  0  0  0  0  0  0  0  0  0  0  0
  151.2762  135.2320  155.8151 N   0  0  0  0  0  0  0  0  0  0  0  0
  150.2570  135.3112  154.9333 C   0  0  0  0  0  0  0  0  0  0  0  0
  146.3795  134.4103  152.6636 N   0  0  0  0  0  0  0  0  0  0  0  0
  145.0282  134.0008  152.2740 C   0  0  2  0  0  0  0  0  0  0  0  0
  144.9192  132.4771  152.0132 C   0  0  2  0  0  0  0  0  0  0  0  0
  146.0420  131.9840  151.0758 C   0  0  0  0  0  0  0  0  0  0  0  0
  145.6491  132.6103  149.7254 C   0  0  0  0  0  0  0  0  0  0  0  0
  144.3301  133.3422  150.0531 C   0  0  1  0  0  0  0  0  0  0  0  0
  143.7148  132.3984  151.0799 C   0  0  0  0  0  0  0  0  0  0  0  0
  144.5621  134.6045  150.9192 C   0  0  2  0  0  0  0  0  0  0  0  0
  145.4460  135.7077  150.2944 C   0  0  0  0  0  0  0  0  0  0  0  0
  144.8296  136.2318  149.1374 O   0  0  0  0  0  0  0  0  0  0  0  0
  148.5153  135.1598  153.0341 H   0  0  0  0  0  0  0  0  0  0  0  0
  148.8041  132.2476  155.3692 H   0  0  0  0  0  0  0  0  0  0  0  0
  150.6861  132.0980  156.9772 H   0  0  0  0  0  0  0  0  0  0  0  0
  152.2351  134.0535  157.2204 H   0  0  0  0  0  0  0  0  0  0  0  0
  150.1770  136.2409  154.3886 H   0  0  0  0  0  0  0  0  0  0  0  0
  146.7986  135.1482  152.1169 H   0  0  0  0  0  0  0  0  0  0  0  0
  144.3056  134.2791  153.0434 H   0  0  0  0  0  0  0  0  0  0  0  0
  144.8277  131.8866  152.9252 H   0  0  0  0  0  0  0  0  0  0  0  0
  147.0440  132.2669  151.3980 H   0  0  0  0  0  0  0  0  0  0  0  0
  146.0241  130.8956  151.0043 H   0  0  0  0  0  0  0  0  0  0  0  0
  146.4200  133.2682  149.3271 H   0  0  0  0  0  0  0  0  0  0  0  0
  145.4781  131.8286  148.9841 H   0  0  0  0  0  0  0  0  0  0  0  0
  143.7052  133.5253  149.1782 H   0  0  0  0  0  0  0  0  0  0  0  0
  143.5303  131.3951  150.6912 H   0  0  0  0  0  0  0  0  0  0  0  0
  142.7946  132.7799  151.5264 H   0  0  0  0  0  0  0  0  0  0  0  0
  143.5842  135.0579  151.0936 H   0  0  0  0  0  0  0  0  0  0  0  0
  145.5814  136.5236  151.0053 H   0  0  0  0  0  0  0  0  0  0  0  0
  146.4408  135.3456  150.0375 H   0  0  0  0  0  0  0  0  0  0  0  0
  144.2551  136.9366  149.3951 H   0  0  0  0  0  0  0  0  0  0  0  0
  1  2  2  0  0  0  0
  2  3  1  0  0  0  0
  2 10  1  0  0  0  0
  3  4  1  0  0  0  0
  3 20  1  0  0  0  0
  4  9  1  0  0  0  0
  4  5  2  0  0  0  0
  5  6  1  0  0  0  0
  5 21  1  0  0  0  0
  6  7  2  0  0  0  0
  6 22  1  0  0  0  0
  7  8  1  0  0  0  0
  7 23  1  0  0  0  0
  8  9  2  0  0  0  0
  9 24  1  0  0  0  0
 10 11  1  0  0  0  0
 10 25  1  0  0  0  0
 11 17  1  0  0  0  0
 11 12  1  0  0  0  0
 11 26  1  0  0  0  0
 12 16  1  0  0  0  0
 12 13  1  0  0  0  0
 12 27  1  0  0  0  0
 13 14  1  0  0  0  0
 13 28  1  0  0  0  0
 13 29  1  0  0  0  0
 14 15  1  0  0  0  0
 14 30  1  0  0  0  0
 14 31  1  0  0  0  0
 15 16  1  0  0  0  0
 15 17  1  0  0  0  0
 15 32  1  0  0  0  0
 16 33  1  0  0  0  0
 16 34  1  0  0  0  0
 17 18  1  0  0  0  0
 17 35  1  0  0  0  0
 18 19  1  0  0  0  0
 18 36  1  0  0  0  0
 18 37  1  0  0  0  0
 19 38  1  0  0  0  0
M  END
> <s_m_source_file>
AV-unprocessed.smi

> <i_m_source_file_index>
790

> <i_lp_mmshare_version>
43012

> <i_f3d_flags>
0

> <s_epik_input>
W0NIMl0xW0NIMl1bQ0BASF0oW0NIMl0yKVtDQEBIXShbQ0gyXVtPSF0pW0NAQEhdKFtDQEhdMTIpW05IXUMoPU8pW05IXWMzW2NIXVtjSF1bY0hdbltjSF0z

> <s_epik_cmdline>
J2VwaWtfcHl0aG9uJywgJy1waCcsICc3LjAnLCAnLXRuJywgJzgnLCAnLW1hJywgJzIwMCcsICctbWV0YWxfYmluZGluZycsICctaW1hZScsICc8aW5maWxlLm1hZT4nLCAnLW9tYWUnLCAnPG91dGZpbGUubWFlPic=

> <r_epik_Ionization_Penalty>
0.00497582

> <r_epik_Ionization_Penalty_Charging>
0

> <r_epik_Ionization_Penalty_Neutral>
0.00497582

> <r_epik_State_Penalty>
0.00358602

> <r_epik_Charging_Adjusted_Penalty>
0.00358602

> <i_epik_Tot_Q>
0

> <i_epik_Tot_abs_Q>
0

> <r_epik_Metal_State_Penalty>
-0

> <b_epik_Metal_Only>
0

> <s_lp_Force_Field>
OPLS_2005

> <r_lp_Energy>
54.3883

> <b_lp_Chiralities_Consistent>
1

> <s_lp_Variant>
AV-unprocessed.smi:790-5

> <Gold.Version>
5.8.1

> <Gold.Id.Protein>
6NUR|6NUR_protein|mol2

> <Gold.PLP.Fitness>
41.3983

> <Gold.PLP.PLP>
-31.5357

> <Gold.PLP.part.hbond>
-3.9372

> <Gold.PLP.part.metal>
0.0000

> <Gold.PLP.part.buried>
-1.1414

> <Gold.PLP.part.nonpolar>
-25.8563

> <Gold.PLP.part.repulsive>
0.1078

> <Gold.PLP.ligand.clash>
0.0000

> <Gold.PLP.ligand.torsion>
0.1923

> <Gold.PLP.Chemscore.Hbond>
3.1019

> <Gold.PLP.Chemscore.CHOScore>
0.3102

> <Gold.PLP.Chemscore.Metal>
0.0000

> <Gold.Chemscore.Hbonds>
donor molecule, donor type, donor heavy atom, donor atom, acceptor molecule, acceptor atom, score
      L1  H     3    20       P1  7948  1.00
      L1  H    10    25       P1  7948  0.08
      L1  H    19    38       P1 10171  1.00
      P1  H 10752 10765       L1     8  1.00
      L1  C     9    24       P1  7948  0.30

> <Gold.PLP.Chemscore.Internal.Correction>
0.0109

> <Gold.Rescore>
     Score         DG    S(hbond)    S(metal)    S(lipo)     H(rot)  DE(clash)    DE(int)     intcor
     17.89     -19.79       2.86        0.00      79.63       1.78       0.66       1.24       ----

> <Gold.Chemscore.Fitness>
17.8928

> <Gold.Chemscore.DG>
-19.7902

> <Gold.Chemscore.ZeroCoef>
-5.4800

> <Gold.Chemscore.Hbond>
2.8583

> <Gold.Chemscore.Metal>
0.0000

> <Gold.Chemscore.Lipo>
79.6252

> <Gold.Chemscore.Internal_Hbond>
0.0000

> <Gold.Chemscore.DEClash>
0.6607

> <Gold.Chemscore.DEInternal>
1.2367

> <Gold.Chemscore.Rot>
1.7783

> <Gold.Chemscore.Internal.Correction>
   9.000000E+99

> <Gold.Chemscore.Hbonds>
donor molecule, donor type, donor heavy atom, donor atom, acceptor molecule, acceptor atom, score
      L1  H     3    20       P1  7948  0.81
      L1  H    10    25       P1  7948  0.10
      L1  H    19    38       P1 10171  0.98
      P1  H 10752 10765       L1     8  0.29

> <Gold.Chemscore.Hbond.Weighted>
-9.5466

> <Gold.Chemscore.Metal.Weighted>
-0.0000

> <Gold.Chemscore.Lipo.Weighted>
-9.3162

> <Gold.Chemscore.Internal_Hbond.Weighted>
0.0000

> <Gold.Chemscore.DEClash.Weighted>
0.6607

> <Gold.Chemscore.DEInternal.Weighted>
1.2367

> <Gold.Chemscore.Rot.Weighted>
4.5525

> <Gold.Chemscore.Internal.Correction.Weighted>
   9.000000E+99

> <Gold.Protein.RotatedTorsions>
[ 6907 6896 6895 6894 ] final   78.25 input  -60.11 | X-H torsion
[ 7974 7965 7964 7962 ] final -157.09 input  175.53 | X-H torsion
[ 8008 7997 7996 7995 ] final  -52.43 input   59.86 | X-H torsion
[ 10167 10162 10161 10158 ] final  155.94 input  -65.29 | X-H torsion
[ 10718 10713 10712 10709 ] final -139.20 input   66.30 | X-H torsion
[ 10763 10752 10751 10750 ] final -153.02 input  -60.55 | X-H torsion
[ 11005 11000 10999 10996 ] final -144.21 input  -57.11 | X-H torsion

> <Gold.Protein.ActiveResidues>
 VAL166  LYS551  ARG553  GLY616  TRP617  ASP618  TYR619  PRO620  LYS621  CYS622 
 ASP623  PHE694  ASN695  SER759  ASP760  ASP761  ALA762  ILE779  LEU786  VAL792 
 PHE793  MET794  SER795  GLU796  ALA797  LYS798  CYS799  TRP800  GLU811  SER814 

> <Gold.Protein.RotatedAtoms>
  152.5152  134.3692  159.9311 H   0  0  0  0  0  0  0  0  0  0  0  0  # atno 6907 bound_to 6896
  151.3646  133.3871  159.2701 H   0  0  0  0  0  0  0  0  0  0  0  0  # atno 6908 bound_to 6896
  150.9625  134.9030  159.7797 H   0  0  0  0  0  0  0  0  0  0  0  0  # atno 6909 bound_to 6896
  144.7564  140.4018  143.6009 H   0  0  0  0  0  0  0  0  0  0  0  0  # atno 7974 bound_to 7965
  154.4106  140.1224  156.4991 H   0  0  0  0  0  0  0  0  0  0  0  0  # atno 8008 bound_to 7997
  155.6913  140.3495  155.4875 H   0  0  0  0  0  0  0  0  0  0  0  0  # atno 8009 bound_to 7997
  155.9466  140.1097  157.1001 H   0  0  0  0  0  0  0  0  0  0  0  0  # atno 8010 bound_to 7997
  139.4821  144.5054  151.8106 H   0  0  0  0  0  0  0  0  0  0  0  0  # atno 10167 bound_to 10162
  156.3080  130.7466  151.1534 H   0  0  0  0  0  0  0  0  0  0  0  0  # atno 10718 bound_to 10713
  154.7956  135.3222  154.7675 H   0  0  0  0  0  0  0  0  0  0  0  0  # atno 10763 bound_to 10752
  153.8355  135.6875  153.4813 H   0  0  0  0  0  0  0  0  0  0  0  0  # atno 10764 bound_to 10752
  153.1645  135.4647  154.9760 H   0  0  0  0  0  0  0  0  0  0  0  0  # atno 10765 bound_to 10752
  140.8048  134.2814  157.4964 H   0  0  0  0  0  0  0  0  0  0  0  0  # atno 11005 bound_to 11000
  145.6766  139.1610  143.2724 LP  0  0  0  0  0  0  0  0  0  0  0  0  # atno 17320 bound_to 7965
  146.1578  140.6832  142.9292 LP  0  0  0  0  0  0  0  0  0  0  0  0  # atno 17321 bound_to 7965
  140.4551  144.1800  150.5901 LP  0  0  0  0  0  0  0  0  0  0  0  0  # atno 17342 bound_to 10162
  140.4544  143.2474  151.9305 LP  0  0  0  0  0  0  0  0  0  0  0  0  # atno 17343 bound_to 10162
  157.7384  131.0541  150.5296 LP  0  0  0  0  0  0  0  0  0  0  0  0  # atno 17370 bound_to 10713
  156.5432  130.4213  149.6144 LP  0  0  0  0  0  0  0  0  0  0  0  0  # atno 17371 bound_to 10713
  139.8718  134.9450  156.3896 LP  0  0  0  0  0  0  0  0  0  0  0  0  # atno 17394 bound_to 11000
  140.9258  133.7613  155.9963 LP  0  0  0  0  0  0  0  0  0  0  0  0  # atno 17395 bound_to 11000

$$$$
