AV-unprocessed.smi:2198|AV-procd|sdf|8912|dock1
  -GOLD-   2272012133D 1   1.00000     0.00000
 Structure written by MMmdl.
 43 44  0  0  0  0  0  0  0  0  1 V2000
  146.4518  137.7070  152.4699 C   0  0  0  0  0  0  0  0  0  0  0  0
  147.1736  138.8751  153.1079 C   0  0  0  0  0  0  0  0  0  0  0  0
  146.6051  139.9960  153.4097 N   0  0  0  0  0  0  0  0  0  0  0  0
  147.3781  141.0063  153.9988 C   0  0  0  0  0  0  0  0  0  0  0  0
  146.6379  142.2908  154.3300 C   0  0  0  0  0  0  0  0  0  0  0  0
  148.7082  140.8332  154.2532 C   0  0  0  0  0  0  0  0  0  0  0  0
  149.5772  141.9137  154.8963 C   0  0  0  0  0  0  0  0  0  0  0  0
  150.1749  141.5759  156.2647 C   0  0  0  0  0  0  0  0  0  0  0  0
  150.4855  140.4178  156.5462 O   0  0  0  0  0  0  0  0  0  0  0  0
  150.3229  142.6059  157.1112 N   0  0  0  0  0  0  0  0  0  0  0  0
  150.8445  142.5108  158.4711 C   0  0  1  0  0  0  0  0  0  0  0  0
  152.1539  141.7020  158.4676 C   0  0  0  0  0  0  0  0  0  0  0  0
  152.7645  141.6257  159.8751 C   0  0  0  0  0  0  0  0  0  0  0  0
  152.9898  143.0282  160.4616 C   0  0  0  0  0  0  0  0  0  0  0  0
  151.6883  143.8530  160.4746 C   0  0  1  0  0  0  0  0  0  0  0  0
  151.9212  145.2584  161.0479 C   0  0  0  0  0  0  0  0  0  0  0  0
  151.0727  143.9172  159.0631 C   0  0  0  0  0  0  0  0  0  0  0  0
  149.3468  139.5491  153.9057 C   0  0  0  0  0  0  0  0  0  0  0  0
  150.5328  139.2853  154.0979 O   0  0  0  0  0  0  0  0  0  0  0  0
  148.5258  138.6331  153.3448 N   0  0  0  0  0  0  0  0  0  0  0  0
  148.9151  137.7369  153.0906 H   0  0  0  0  0  0  0  0  0  0  0  0
  145.6381  137.3722  153.1136 H   0  0  0  0  0  0  0  0  0  0  0  0
  147.1220  136.8632  152.3002 H   0  0  0  0  0  0  0  0  0  0  0  0
  146.0298  138.0054  151.5102 H   0  0  0  0  0  0  0  0  0  0  0  0
  147.0235  143.1181  153.7339 H   0  0  0  0  0  0  0  0  0  0  0  0
  146.7500  142.5406  155.3852 H   0  0  0  0  0  0  0  0  0  0  0  0
  145.5713  142.1978  154.1221 H   0  0  0  0  0  0  0  0  0  0  0  0
  150.3900  142.1963  154.2262 H   0  0  0  0  0  0  0  0  0  0  0  0
  148.9795  142.8189  155.0046 H   0  0  0  0  0  0  0  0  0  0  0  0
  150.0437  143.5231  156.7942 H   0  0  0  0  0  0  0  0  0  0  0  0
  150.1212  141.9793  159.0927 H   0  0  0  0  0  0  0  0  0  0  0  0
  151.9709  140.6944  158.0920 H   0  0  0  0  0  0  0  0  0  0  0  0
  152.8726  142.1608  157.7866 H   0  0  0  0  0  0  0  0  0  0  0  0
  152.1027  141.0570  160.5297 H   0  0  0  0  0  0  0  0  0  0  0  0
  153.7084  141.0809  159.8415 H   0  0  0  0  0  0  0  0  0  0  0  0
  153.3853  142.9400  161.4740 H   0  0  0  0  0  0  0  0  0  0  0  0
  153.7507  143.5478  159.8773 H   0  0  0  0  0  0  0  0  0  0  0  0
  150.9758  143.3463  161.1272 H   0  0  0  0  0  0  0  0  0  0  0  0
  152.6316  145.8212  160.4417 H   0  0  0  0  0  0  0  0  0  0  0  0
  152.3170  145.2080  162.0627 H   0  0  0  0  0  0  0  0  0  0  0  0
  150.9916  145.8270  161.0846 H   0  0  0  0  0  0  0  0  0  0  0  0
  151.7284  144.4895  158.4048 H   0  0  0  0  0  0  0  0  0  0  0  0
  150.1273  144.4601  159.1019 H   0  0  0  0  0  0  0  0  0  0  0  0
  1  2  1  0  0  0  0
  1 22  1  0  0  0  0
  1 23  1  0  0  0  0
  1 24  1  0  0  0  0
  2 20  1  0  0  0  0
  2  3  2  0  0  0  0
  3  4  1  0  0  0  0
  4  5  1  0  0  0  0
  4  6  2  0  0  0  0
  5 25  1  0  0  0  0
  5 26  1  0  0  0  0
  5 27  1  0  0  0  0
  6  7  1  0  0  0  0
  6 18  1  0  0  0  0
  7  8  1  0  0  0  0
  7 28  1  0  0  0  0
  7 29  1  0  0  0  0
  8  9  2  0  0  0  0
  8 10  1  0  0  0  0
 10 11  1  0  0  0  0
 10 30  1  0  0  0  0
 11 17  1  0  0  0  0
 11 12  1  0  0  0  0
 11 31  1  0  0  0  0
 12 13  1  0  0  0  0
 12 32  1  0  0  0  0
 12 33  1  0  0  0  0
 13 14  1  0  0  0  0
 13 34  1  0  0  0  0
 13 35  1  0  0  0  0
 14 15  1  0  0  0  0
 14 36  1  0  0  0  0
 14 37  1  0  0  0  0
 15 16  1  0  0  0  0
 15 17  1  0  0  0  0
 15 38  1  0  0  0  0
 16 39  1  0  0  0  0
 16 40  1  0  0  0  0
 16 41  1  0  0  0  0
 17 42  1  0  0  0  0
 17 43  1  0  0  0  0
 18 19  2  0  0  0  0
 18 20  1  0  0  0  0
 20 21  1  0  0  0  0
M  END
> <s_m_source_file>
AV-unprocessed.smi

> <i_m_source_file_index>
2198

> <i_lp_mmshare_version>
43012

> <i_f3d_flags>
0

> <s_epik_input>
W0NIM11jMW5jKFtDSDNdKWMoYyg9TylbbkhdMSlbQ0gyXUMoPU8pW05IXVtDQEBIXTJbQ0gyXVtDSDJdW0NIMl1bQ0BASF0oW0NIM10pW0NIMl0y

> <s_epik_cmdline>
J2VwaWtfcHl0aG9uJywgJy1waCcsICc3LjAnLCAnLXRuJywgJzgnLCAnLW1hJywgJzIwMCcsICctbWV0YWxfYmluZGluZycsICctaW1hZScsICc8aW5maWxlLm1hZT4nLCAnLW9tYWUnLCAnPG91dGZpbGUubWFlPic=

> <r_lp_tautomer_probability>
0.839158

> <r_epik_Ionization_Penalty>
0.000372587

> <r_epik_Ionization_Penalty_Charging>
0.000337977

> <r_epik_Ionization_Penalty_Neutral>
3.46101e-05

> <r_epik_State_Penalty>
0.09125

> <r_epik_Charging_Adjusted_Penalty>
0.091588

> <i_epik_Tot_Q>
0

> <i_epik_Tot_abs_Q>
0

> <r_epik_Metal_State_Penalty>
0.25197

> <b_epik_Metal_Only>
0

> <s_lp_Force_Field>
OPLS_2005

> <r_lp_Energy>
10.3452

> <b_lp_Chiralities_Consistent>
1

> <s_lp_Variant>
AV-unprocessed.smi:2198-2

> <Gold.Version>
5.8.1

> <Gold.Id.Protein>
6NUR|6NUR_protein|mol2

> <Gold.PLP.Fitness>
46.0033

> <Gold.PLP.PLP>
-38.0892

> <Gold.PLP.part.hbond>
-4.0000

> <Gold.PLP.part.metal>
0.0000

> <Gold.PLP.part.buried>
3.4940

> <Gold.PLP.part.nonpolar>
-38.3262

> <Gold.PLP.part.repulsive>
0.8958

> <Gold.PLP.ligand.clash>
0.0000

> <Gold.PLP.ligand.torsion>
0.4728

> <Gold.PLP.Chemscore.Hbond>
2.9510

> <Gold.PLP.Chemscore.CHOScore>
0.0000

> <Gold.PLP.Chemscore.Metal>
0.0000

> <Gold.Chemscore.Hbonds>
donor molecule, donor type, donor heavy atom, donor atom, acceptor molecule, acceptor atom, score
      L1  H    10    30       P1  8028  1.00
      L1  H    20    21       P1  7948  0.98
      P1  H  7989  7998       L1    19  1.00

> <Gold.PLP.Chemscore.Internal.Correction>
0.0068

> <Gold.Rescore>
     Score         DG    S(hbond)    S(metal)    S(lipo)     H(rot)  DE(clash)    DE(int)     intcor
     17.97     -23.17       2.63        0.00     108.43       1.48       2.26       2.95       ----

> <Gold.Chemscore.Fitness>
17.9662

> <Gold.Chemscore.DG>
-23.1707

> <Gold.Chemscore.ZeroCoef>
-5.4800

> <Gold.Chemscore.Hbond>
2.6329

> <Gold.Chemscore.Metal>
0.0000

> <Gold.Chemscore.Lipo>
108.4265

> <Gold.Chemscore.Internal_Hbond>
0.0000

> <Gold.Chemscore.DEClash>
2.2586

> <Gold.Chemscore.DEInternal>
2.9458

> <Gold.Chemscore.Rot>
1.4801

> <Gold.Chemscore.Internal.Correction>
   9.000000E+99

> <Gold.Chemscore.Hbonds>
donor molecule, donor type, donor heavy atom, donor atom, acceptor molecule, acceptor atom, score
      L1  H    10    30       P1  8028  0.92
      L1  H    20    21       P1  7948  0.93
      P1  H  7989  7998       L1    19  0.62

> <Gold.Chemscore.Hbond.Weighted>
-8.7939

> <Gold.Chemscore.Metal.Weighted>
-0.0000

> <Gold.Chemscore.Lipo.Weighted>
-12.6859

> <Gold.Chemscore.Internal_Hbond.Weighted>
0.0000

> <Gold.Chemscore.DEClash.Weighted>
2.2586

> <Gold.Chemscore.DEInternal.Weighted>
2.9458

> <Gold.Chemscore.Rot.Weighted>
3.7891

> <Gold.Chemscore.Internal.Correction.Weighted>
   9.000000E+99

> <Gold.Protein.RotatedTorsions>
[ 6907 6896 6895 6894 ] final -163.18 input  -60.11 | X-H torsion
[ 7974 7965 7964 7962 ] final  -45.84 input  175.53 | X-H torsion
[ 8008 7997 7996 7995 ] final  112.86 input   59.86 | X-H torsion
[ 10167 10162 10161 10158 ] final  -61.80 input  -65.29 | X-H torsion
[ 10718 10713 10712 10709 ] final  -84.31 input   66.30 | X-H torsion
[ 10763 10752 10751 10750 ] final  168.28 input  -60.55 | X-H torsion
[ 11005 11000 10999 10996 ] final  120.12 input  -57.11 | X-H torsion

> <Gold.Protein.ActiveResidues>
 VAL166  LYS551  ARG553  GLY616  TRP617  ASP618  TYR619  PRO620  LYS621  CYS622 
 ASP623  PHE694  ASN695  SER759  ASP760  ASP761  ALA762  ILE779  LEU786  VAL792 
 PHE793  MET794  SER795  GLU796  ALA797  LYS798  CYS799  TRP800  GLU811  SER814 

> <Gold.Protein.RotatedAtoms>
  151.3920  133.3786  159.2721 H   0  0  0  0  0  0  0  0  0  0  0  0  # atno 6907 bound_to 6896
  150.9498  134.8900  159.7675 H   0  0  0  0  0  0  0  0  0  0  0  0  # atno 6908 bound_to 6896
  152.5107  134.3875  159.9424 H   0  0  0  0  0  0  0  0  0  0  0  0  # atno 6909 bound_to 6896
  145.9780  140.7313  142.9377 H   0  0  0  0  0  0  0  0  0  0  0  0  # atno 7974 bound_to 7965
  156.2220  140.2991  155.9976 H   0  0  0  0  0  0  0  0  0  0  0  0  # atno 8008 bound_to 7997
  155.2455  140.0424  157.2997 H   0  0  0  0  0  0  0  0  0  0  0  0  # atno 8009 bound_to 7997
  154.5856  140.2387  155.8000 H   0  0  0  0  0  0  0  0  0  0  0  0  # atno 8010 bound_to 7997
  140.5982  143.2355  151.5988 H   0  0  0  0  0  0  0  0  0  0  0  0  # atno 10167 bound_to 10162
  156.0008  130.4694  150.4390 H   0  0  0  0  0  0  0  0  0  0  0  0  # atno 10718 bound_to 10713
  154.3663  135.2753  155.2292 H   0  0  0  0  0  0  0  0  0  0  0  0  # atno 10763 bound_to 10752
  154.4458  135.5943  153.6163 H   0  0  0  0  0  0  0  0  0  0  0  0  # atno 10764 bound_to 10752
  152.9840  135.6030  154.3889 H   0  0  0  0  0  0  0  0  0  0  0  0  # atno 10765 bound_to 10752
  139.9173  134.9633  156.7758 H   0  0  0  0  0  0  0  0  0  0  0  0  # atno 11005 bound_to 11000
  144.6854  140.2860  143.7285 LP  0  0  0  0  0  0  0  0  0  0  0  0  # atno 17320 bound_to 7965
  145.7810  139.1891  143.2157 LP  0  0  0  0  0  0  0  0  0  0  0  0  # atno 17321 bound_to 7965
  139.5273  144.3022  152.1064 LP  0  0  0  0  0  0  0  0  0  0  0  0  # atno 17342 bound_to 10162
  140.2198  144.4478  150.6347 LP  0  0  0  0  0  0  0  0  0  0  0  0  # atno 17343 bound_to 10162
  157.2433  131.0530  151.2423 LP  0  0  0  0  0  0  0  0  0  0  0  0  # atno 17370 bound_to 10713
  157.3599  130.7126  149.6495 LP  0  0  0  0  0  0  0  0  0  0  0  0  # atno 17371 bound_to 10713
  140.6584  133.9668  155.7791 LP  0  0  0  0  0  0  0  0  0  0  0  0  # atno 17394 bound_to 11000
  141.0660  134.0275  157.3592 LP  0  0  0  0  0  0  0  0  0  0  0  0  # atno 17395 bound_to 11000

$$$$
