AV-unprocessed.smi:1601|AV-procd|sdf|6431|dock2
  -GOLD-   22720 7 73D 1   1.00000     0.00000
 Structure written by MMmdl.
 41 42  0  0  0  0  0  0  0  0  1 V2000
  147.9622  139.8629  154.5713 C   0  0  0  0  0  0  0  0  0  0  0  0
  148.5242  138.6315  155.3277 C   0  0  2  0  0  0  0  0  0  0  0  0
  147.6614  138.3843  156.5960 C   0  0  0  0  0  0  0  0  0  0  0  0
  148.2089  137.3316  157.4442 N   0  0  0  0  0  0  0  0  0  0  0  0
  147.8497  137.1123  158.7176 C   0  0  0  0  0  0  0  0  0  0  0  0
  147.0214  137.8036  159.3114 O   0  0  0  0  0  0  0  0  0  0  0  0
  148.5380  135.9373  159.4319 C   0  0  2  0  0  0  0  0  0  0  0  0
  148.2919  134.6248  158.6554 C   0  0  0  0  0  0  0  0  0  0  0  0
  148.1358  135.8615  160.8409 N   0  0  0  0  0  0  0  0  0  0  0  0
  147.5694  134.7991  161.5250 C   0  0  0  0  0  0  0  0  0  0  0  0
  147.2925  135.2172  162.7947 C   0  0  0  0  0  0  0  0  0  0  0  0
  147.6950  136.5798  162.7941 C   0  0  0  0  0  0  0  0  0  0  0  0
  148.1759  136.9657  161.6247 N   0  0  0  0  0  0  0  0  0  0  0  0
  149.9724  138.7528  155.6171 N   0  0  0  0  0  0  0  0  0  0  0  0
  150.8159  138.3466  154.4869 C   0  0  0  0  0  0  0  0  0  0  0  0
  152.3192  138.5031  154.7755 C   0  0  0  0  0  0  0  0  0  0  0  0
  152.6008  139.8478  155.1367 O   0  0  0  0  0  0  0  0  0  0  0  0
  151.8629  140.2579  156.2796 C   0  0  0  0  0  0  0  0  0  0  0  0
  150.3568  140.1163  156.0006 C   0  0  0  0  0  0  0  0  0  0  0  0
  146.8879  139.7978  154.4031 H   0  0  0  0  0  0  0  0  0  0  0  0
  148.3956  139.9719  153.5783 H   0  0  0  0  0  0  0  0  0  0  0  0
  148.1504  140.7836  155.1246 H   0  0  0  0  0  0  0  0  0  0  0  0
  148.3839  137.7672  154.6765 H   0  0  0  0  0  0  0  0  0  0  0  0
  147.6087  139.2717  157.2252 H   0  0  0  0  0  0  0  0  0  0  0  0
  146.6394  138.1332  156.3066 H   0  0  0  0  0  0  0  0  0  0  0  0
  148.8983  136.7212  157.0299 H   0  0  0  0  0  0  0  0  0  0  0  0
  149.6134  136.1231  159.4263 H   0  0  0  0  0  0  0  0  0  0  0  0
  148.5241  134.7419  157.5960 H   0  0  0  0  0  0  0  0  0  0  0  0
  147.2533  134.2997  158.7321 H   0  0  0  0  0  0  0  0  0  0  0  0
  148.9225  133.8183  159.0311 H   0  0  0  0  0  0  0  0  0  0  0  0
  147.4117  133.8369  161.0604 H   0  0  0  0  0  0  0  0  0  0  0  0
  146.8574  134.6406  163.5973 H   0  0  0  0  0  0  0  0  0  0  0  0
  147.6424  137.2984  163.5988 H   0  0  0  0  0  0  0  0  0  0  0  0
  150.6511  137.3001  154.2388 H   0  0  0  0  0  0  0  0  0  0  0  0
  150.5552  138.9296  153.6023 H   0  0  0  0  0  0  0  0  0  0  0  0
  152.6319  137.8293  155.5750 H   0  0  0  0  0  0  0  0  0  0  0  0
  152.9027  138.2430  153.8923 H   0  0  0  0  0  0  0  0  0  0  0  0
  152.1548  139.6615  157.1456 H   0  0  0  0  0  0  0  0  0  0  0  0
  152.1088  141.2949  156.5078 H   0  0  0  0  0  0  0  0  0  0  0  0
  150.0674  140.8164  155.2154 H   0  0  0  0  0  0  0  0  0  0  0  0
  149.8360  140.4230  156.9058 H   0  0  0  0  0  0  0  0  0  0  0  0
  1  2  1  0  0  0  0
  1 20  1  0  0  0  0
  1 21  1  0  0  0  0
  1 22  1  0  0  0  0
  2  3  1  0  0  0  0
  2 14  1  0  0  0  0
  2 23  1  0  0  0  0
  3  4  1  0  0  0  0
  3 24  1  0  0  0  0
  3 25  1  0  0  0  0
  4  5  1  0  0  0  0
  4 26  1  0  0  0  0
  5  6  2  0  0  0  0
  5  7  1  0  0  0  0
  7  8  1  0  0  0  0
  7  9  1  0  0  0  0
  7 27  1  0  0  0  0
  8 28  1  0  0  0  0
  8 29  1  0  0  0  0
  8 30  1  0  0  0  0
  9 13  1  0  0  0  0
  9 10  1  0  0  0  0
 10 11  2  0  0  0  0
 10 31  1  0  0  0  0
 11 12  1  0  0  0  0
 11 32  1  0  0  0  0
 12 13  2  0  0  0  0
 12 33  1  0  0  0  0
 14 19  1  0  0  0  0
 14 15  1  0  0  0  0
 15 16  1  0  0  0  0
 15 34  1  0  0  0  0
 15 35  1  0  0  0  0
 16 17  1  0  0  0  0
 16 36  1  0  0  0  0
 16 37  1  0  0  0  0
 17 18  1  0  0  0  0
 18 19  1  0  0  0  0
 18 38  1  0  0  0  0
 18 39  1  0  0  0  0
 19 40  1  0  0  0  0
 19 41  1  0  0  0  0
M  END
> <s_m_source_file>
AV-unprocessed.smi

> <i_m_source_file_index>
1601

> <i_lp_mmshare_version>
43012

> <i_f3d_flags>
0

> <s_epik_input>
W0NIMl0xW0NIMl1PW0NIMl1bQ0gyXU4xW0NASF0oW0NIM10pW0NIMl1bTkhdQyg9TylbQ0BIXShbQ0gzXSluMltjSF1bY0hdW2NIXW4y

> <s_epik_cmdline>
J2VwaWtfcHl0aG9uJywgJy1waCcsICc3LjAnLCAnLXRuJywgJzgnLCAnLW1hJywgJzIwMCcsICctbWV0YWxfYmluZGluZycsICctaW1hZScsICc8aW5maWxlLm1hZT4nLCAnLW9tYWUnLCAnPG91dGZpbGUubWFlPic=

> <r_lp_tautomer_probability>
1

> <r_epik_Ionization_Penalty>
0.203323

> <r_epik_Ionization_Penalty_Charging>
0

> <r_epik_Ionization_Penalty_Neutral>
0.203323

> <r_epik_State_Penalty>
0.193192

> <r_epik_Charging_Adjusted_Penalty>
0.193192

> <i_epik_Tot_Q>
0

> <i_epik_Tot_abs_Q>
0

> <r_epik_Metal_State_Penalty>
0.193187

> <b_epik_Metal_Only>
0

> <s_lp_Force_Field>
OPLS_2005

> <r_lp_Energy>
34.8704

> <b_lp_Chiralities_Consistent>
1

> <s_lp_Variant>
AV-unprocessed.smi:1601-1

> <Gold.Version>
5.8.1

> <Gold.Id.Protein>
6NUR|6NUR_protein|mol2

> <Gold.PLP.Fitness>
41.9771

> <Gold.PLP.PLP>
-33.8788

> <Gold.PLP.part.hbond>
-4.7719

> <Gold.PLP.part.metal>
0.0000

> <Gold.PLP.part.buried>
-3.9306

> <Gold.PLP.part.nonpolar>
-25.3158

> <Gold.PLP.part.repulsive>
0.0678

> <Gold.PLP.ligand.clash>
0.0000

> <Gold.PLP.ligand.torsion>
0.7814

> <Gold.PLP.Chemscore.Hbond>
3.1539

> <Gold.PLP.Chemscore.CHOScore>
0.0000

> <Gold.PLP.Chemscore.Metal>
0.0000

> <Gold.Chemscore.Hbonds>
donor molecule, donor type, donor heavy atom, donor atom, acceptor molecule, acceptor atom, score
      P1  H  6931  6943       L1    13  1.00
      P1  H  6934  6947       L1     6  0.70
      P1  H  7989  7998       L1    17  0.43
      P1  H  7997  8009       L1    17  0.89

> <Gold.PLP.Chemscore.Internal.Correction>
0.1994

> <Gold.Rescore>
     Score         DG    S(hbond)    S(metal)    S(lipo)     H(rot)  DE(clash)    DE(int)     intcor
     16.28     -18.41       2.91        0.00      66.58       1.79       0.00       2.12       ----

> <Gold.Chemscore.Fitness>
16.2830

> <Gold.Chemscore.DG>
-18.4098

> <Gold.Chemscore.ZeroCoef>
-5.4800

> <Gold.Chemscore.Hbond>
2.9087

> <Gold.Chemscore.Metal>
0.0000

> <Gold.Chemscore.Lipo>
66.5815

> <Gold.Chemscore.Internal_Hbond>
0.0000

> <Gold.Chemscore.DEClash>
0.0021

> <Gold.Chemscore.DEInternal>
2.1247

> <Gold.Chemscore.Rot>
1.7872

> <Gold.Chemscore.Internal.Correction>
   9.000000E+99

> <Gold.Chemscore.Hbonds>
donor molecule, donor type, donor heavy atom, donor atom, acceptor molecule, acceptor atom, score
      P1  H  6931  6943       L1    13  0.53
      P1  H  6934  6947       L1     6  0.67
      P1  H  7989  7998       L1    17  0.06
      P1  H  7997  8009       L1    17  0.15

> <Gold.Chemscore.Hbond.Weighted>
-9.7150

> <Gold.Chemscore.Metal.Weighted>
-0.0000

> <Gold.Chemscore.Lipo.Weighted>
-7.7900

> <Gold.Chemscore.Internal_Hbond.Weighted>
0.0000

> <Gold.Chemscore.DEClash.Weighted>
0.0021

> <Gold.Chemscore.DEInternal.Weighted>
2.1247

> <Gold.Chemscore.Rot.Weighted>
4.5752

> <Gold.Chemscore.Internal.Correction.Weighted>
   9.000000E+99

> <Gold.Protein.RotatedTorsions>
[ 6907 6896 6895 6894 ] final   60.38 input  -60.11 | X-H torsion
[ 7974 7965 7964 7962 ] final   45.32 input  175.53 | X-H torsion
[ 8008 7997 7996 7995 ] final -132.18 input   59.86 | X-H torsion
[ 10167 10162 10161 10158 ] final   53.48 input  -65.29 | X-H torsion
[ 10718 10713 10712 10709 ] final   30.32 input   66.30 | X-H torsion
[ 10763 10752 10751 10750 ] final  100.99 input  -60.55 | X-H torsion
[ 11005 11000 10999 10996 ] final  -29.40 input  -57.11 | X-H torsion

> <Gold.Protein.ActiveResidues>
 VAL166  LYS551  ARG553  GLY616  TRP617  ASP618  TYR619  PRO620  LYS621  CYS622 
 ASP623  PHE694  ASN695  SER759  ASP760  ASP761  ALA762  ILE779  LEU786  VAL792 
 PHE793  MET794  SER795  GLU796  ALA797  LYS798  CYS799  TRP800  GLU811  SER814 

> <Gold.Protein.RotatedAtoms>
  152.3998  134.6305  160.0074 H   0  0  0  0  0  0  0  0  0  0  0  0  # atno 6907 bound_to 6896
  151.6514  133.3315  159.3161 H   0  0  0  0  0  0  0  0  0  0  0  0  # atno 6908 bound_to 6896
  150.7900  134.6958  159.6567 H   0  0  0  0  0  0  0  0  0  0  0  0  # atno 6909 bound_to 6896
  146.0491  139.4977  142.9730 H   0  0  0  0  0  0  0  0  0  0  0  0  # atno 7974 bound_to 7965
  155.3246  140.0464  157.3040 H   0  0  0  0  0  0  0  0  0  0  0  0  # atno 8008 bound_to 7997
  154.5361  140.2273  155.8686 H   0  0  0  0  0  0  0  0  0  0  0  0  # atno 8009 bound_to 7997
  156.1836  140.3068  155.9203 H   0  0  0  0  0  0  0  0  0  0  0  0  # atno 8010 bound_to 7997
  140.2403  144.3591  150.6382 H   0  0  0  0  0  0  0  0  0  0  0  0  # atno 10167 bound_to 10162
  157.2580  130.7147  149.6439 H   0  0  0  0  0  0  0  0  0  0  0  0  # atno 10718 bound_to 10713
  153.3209  135.4060  155.1416 H   0  0  0  0  0  0  0  0  0  0  0  0  # atno 10763 bound_to 10752
  154.8600  135.3587  154.5597 H   0  0  0  0  0  0  0  0  0  0  0  0  # atno 10764 bound_to 10752
  153.6031  135.7070  153.5435 H   0  0  0  0  0  0  0  0  0  0  0  0  # atno 10765 bound_to 10752
  140.9293  133.7348  156.0913 H   0  0  0  0  0  0  0  0  0  0  0  0  # atno 11005 bound_to 11000
  145.6756  141.0205  143.1634 LP  0  0  0  0  0  0  0  0  0  0  0  0  # atno 17320 bound_to 7965
  144.7113  139.8361  143.7413 LP  0  0  0  0  0  0  0  0  0  0  0  0  # atno 17321 bound_to 7965
  140.6118  143.2170  151.6870 LP  0  0  0  0  0  0  0  0  0  0  0  0  # atno 17342 bound_to 10162
  139.5079  144.3628  152.0545 LP  0  0  0  0  0  0  0  0  0  0  0  0  # atno 17343 bound_to 10162
  155.9664  130.4406  150.5308 LP  0  0  0  0  0  0  0  0  0  0  0  0  # atno 17370 bound_to 10713
  157.3206  131.0681  151.1934 LP  0  0  0  0  0  0  0  0  0  0  0  0  # atno 17371 bound_to 10713
  140.7884  134.3646  157.5471 LP  0  0  0  0  0  0  0  0  0  0  0  0  # atno 17394 bound_to 11000
  139.8792  134.9125  156.3061 LP  0  0  0  0  0  0  0  0  0  0  0  0  # atno 17395 bound_to 11000

$$$$
