AV-unprocessed.smi:1999|AV-procd|sdf|8098|dock5
  -GOLD-   2272010323D 1   1.00000     0.00000
 Structure written by MMmdl.
 38 39  0  0  0  0  0  0  0  0  3 V2000
  152.9506  140.1387  159.3886 C   0  0  0  0  0  0  0  0  0  0  0  0
  152.4319  140.0918  157.9922 C   0  0  0  0  0  0  0  0  0  0  0  0
  153.0191  139.3859  157.0226 N   0  0  0  0  0  0  0  0  0  0  0  0
  152.3500  139.5016  155.8132 N   0  0  0  0  0  0  0  0  0  0  0  0
  151.2758  140.3010  155.8816 C   0  0  0  0  0  0  0  0  0  0  0  0
  150.4947  140.5471  154.8169 N   0  5  0  0  0  0  0  0  0  0  0  0
  149.1682  140.7363  154.9868 C   0  0  0  0  0  0  0  0  0  0  0  0
  148.6103  141.0917  156.0272 O   0  0  0  0  0  0  0  0  0  0  0  0
  148.4485  140.5349  153.8725 N   0  0  0  0  0  0  0  0  0  0  0  0
  147.0122  140.7648  153.7048 C   0  0  2  0  0  0  0  0  0  0  0  0
  146.7077  142.2520  153.9290 C   0  0  0  0  0  0  0  0  0  0  0  0
  146.1991  139.8686  154.6670 C   0  0  0  0  0  0  0  0  0  0  0  0
  145.2779  138.9501  153.9514 N   0  3  0  0  0  0  0  0  0  0  0  0
  145.9694  137.9974  153.0535 C   0  0  0  0  0  0  0  0  0  0  0  0
  144.9353  137.1664  152.2746 C   0  0  0  0  0  0  0  0  0  0  0  0
  144.0741  136.4941  153.1868 O   0  0  0  0  0  0  0  0  0  0  0  0
  143.3509  137.4039  154.0081 C   0  0  0  0  0  0  0  0  0  0  0  0
  144.3385  138.2326  154.8454 C   0  0  0  0  0  0  0  0  0  0  0  0
  150.9969  140.9690  157.4888 S   0  0  0  0  0  0  0  0  0  0  0  0
  153.4880  141.0725  159.5540 H   0  0  0  0  0  0  0  0  0  0  0  0
  153.6292  139.3054  159.5737 H   0  0  0  0  0  0  0  0  0  0  0  0
  152.1244  140.0787  160.0971 H   0  0  0  0  0  0  0  0  0  0  0  0
  148.9548  140.2329  153.0525 H   0  0  0  0  0  0  0  0  0  0  0  0
  146.7247  140.5356  152.6778 H   0  0  0  0  0  0  0  0  0  0  0  0
  145.6470  142.4605  153.7863 H   0  0  0  0  0  0  0  0  0  0  0  0
  147.2625  142.8756  153.2272 H   0  0  0  0  0  0  0  0  0  0  0  0
  146.9763  142.5664  154.9381 H   0  0  0  0  0  0  0  0  0  0  0  0
  146.9051  139.2762  155.2513 H   0  0  0  0  0  0  0  0  0  0  0  0
  145.6413  140.4710  155.3854 H   0  0  0  0  0  0  0  0  0  0  0  0
  146.6032  138.5410  152.3517 H   0  0  0  0  0  0  0  0  0  0  0  0
  146.6187  137.3444  153.6388 H   0  0  0  0  0  0  0  0  0  0  0  0
  144.3507  137.8009  151.6059 H   0  0  0  0  0  0  0  0  0  0  0  0
  145.4386  136.4263  151.6522 H   0  0  0  0  0  0  0  0  0  0  0  0
  142.7224  138.0506  153.3932 H   0  0  0  0  0  0  0  0  0  0  0  0
  142.6853  136.8394  154.6613 H   0  0  0  0  0  0  0  0  0  0  0  0
  144.8960  137.5822  155.5210 H   0  0  0  0  0  0  0  0  0  0  0  0
  143.7882  138.9399  155.4654 H   0  0  0  0  0  0  0  0  0  0  0  0
  144.7159  139.5387  153.3512 H   0  0  0  0  0  0  0  0  0  0  0  0
  1  2  1  0  0  0  0
  1 20  1  0  0  0  0
  1 21  1  0  0  0  0
  1 22  1  0  0  0  0
  2 19  1  0  0  0  0
  2  3  2  0  0  0  0
  3  4  1  0  0  0  0
  4  5  2  0  0  0  0
  5  6  1  0  0  0  0
  5 19  1  0  0  0  0
  6  7  1  0  0  0  0
  7  8  2  0  0  0  0
  7  9  1  0  0  0  0
  9 10  1  0  0  0  0
  9 23  1  0  0  0  0
 10 11  1  0  0  0  0
 10 12  1  0  0  0  0
 10 24  1  0  0  0  0
 11 25  1  0  0  0  0
 11 26  1  0  0  0  0
 11 27  1  0  0  0  0
 12 13  1  0  0  0  0
 12 28  1  0  0  0  0
 12 29  1  0  0  0  0
 13 18  1  0  0  0  0
 13 14  1  0  0  0  0
 13 38  1  0  0  0  0
 14 15  1  0  0  0  0
 14 30  1  0  0  0  0
 14 31  1  0  0  0  0
 15 16  1  0  0  0  0
 15 32  1  0  0  0  0
 15 33  1  0  0  0  0
 16 17  1  0  0  0  0
 17 18  1  0  0  0  0
 17 34  1  0  0  0  0
 17 35  1  0  0  0  0
 18 36  1  0  0  0  0
 18 37  1  0  0  0  0
M  CHG  1   6  -1
M  CHG  1  13   1
M  END
> <s_m_source_file>
AV-unprocessed.smi

> <i_m_source_file_index>
1999

> <i_lp_mmshare_version>
43012

> <i_f3d_flags>
0

> <s_epik_input>
W0NIM11jMW5uYyhzMSlbTkhdQyg9TylbTkhdW0NASF0oW0NIM10pW0NIMl1OMltDSDJdW0NIMl1PW0NIMl1bQ0gyXTI=

> <s_epik_cmdline>
J2VwaWtfcHl0aG9uJywgJy1waCcsICc3LjAnLCAnLXRuJywgJzgnLCAnLW1hJywgJzIwMCcsICctbWV0YWxfYmluZGluZycsICctaW1hZScsICc8aW5maWxlLm1hZT4nLCAnLW9tYWUnLCAnPG91dGZpbGUubWFlPic=

> <r_lp_tautomer_probability>
1

> <r_epik_Ionization_Penalty>
3.39984

> <r_epik_Ionization_Penalty_Charging>
3.28696

> <r_epik_Ionization_Penalty_Neutral>
0.11288

> <r_epik_State_Penalty>
3.47917

> <r_epik_Charging_Adjusted_Penalty>
6.76613

> <i_epik_Tot_Q>
0

> <i_epik_Tot_abs_Q>
2

> <r_epik_Metal_State_Penalty>
1.13142

> <b_epik_Metal_Only>
1

> <s_lp_Force_Field>
OPLS_2005

> <r_lp_Energy>
12.288

> <b_lp_Chiralities_Consistent>
1

> <s_lp_Variant>
AV-unprocessed.smi:1999-7

> <Gold.Version>
5.8.1

> <Gold.Id.Protein>
6NUR|6NUR_protein|mol2

> <Gold.PLP.Fitness>
40.8987

> <Gold.PLP.PLP>
-27.9273

> <Gold.PLP.part.hbond>
-5.0000

> <Gold.PLP.part.metal>
0.0000

> <Gold.PLP.part.buried>
-4.9414

> <Gold.PLP.part.nonpolar>
-18.6574

> <Gold.PLP.part.repulsive>
0.3891

> <Gold.PLP.ligand.clash>
0.0000

> <Gold.PLP.ligand.torsion>
1.1006

> <Gold.PLP.Chemscore.Hbond>
5.0000

> <Gold.PLP.Chemscore.CHOScore>
0.0000

> <Gold.PLP.Chemscore.Metal>
0.0000

> <Gold.Chemscore.Hbonds>
donor molecule, donor type, donor heavy atom, donor atom, acceptor molecule, acceptor atom, score
      L1  H     9    23       P1  7957  1.00
      L1  H    13    38       P1 10175  2.00
      P1  H  7989  7998       L1     6  0.99
      P1  H  7997  8009       L1     3  1.00

> <Gold.PLP.Chemscore.Internal.Correction>
0.1727

> <Gold.Rescore>
     Score         DG    S(hbond)    S(metal)    S(lipo)     H(rot)  DE(clash)    DE(int)     intcor
     13.84     -17.49       3.02        0.00      51.64       1.60       0.09       3.56       ----

> <Gold.Chemscore.Fitness>
13.8395

> <Gold.Chemscore.DG>
-17.4929

> <Gold.Chemscore.ZeroCoef>
-5.4800

> <Gold.Chemscore.Hbond>
3.0168

> <Gold.Chemscore.Metal>
0.0000

> <Gold.Chemscore.Lipo>
51.6420

> <Gold.Chemscore.Internal_Hbond>
0.0000

> <Gold.Chemscore.DEClash>
0.0901

> <Gold.Chemscore.DEInternal>
3.5634

> <Gold.Chemscore.Rot>
1.6036

> <Gold.Chemscore.Internal.Correction>
   9.000000E+99

> <Gold.Chemscore.Hbonds>
donor molecule, donor type, donor heavy atom, donor atom, acceptor molecule, acceptor atom, score
      L1  H     9    23       P1  7957  0.95
      L1  H    13    38       P1 10175  1.00
      P1  H  7989  7998       L1     6  0.47
      P1  H  7997  8009       L1     3  0.27

> <Gold.Chemscore.Hbond.Weighted>
-10.0761

> <Gold.Chemscore.Metal.Weighted>
-0.0000

> <Gold.Chemscore.Lipo.Weighted>
-6.0421

> <Gold.Chemscore.Internal_Hbond.Weighted>
0.0000

> <Gold.Chemscore.DEClash.Weighted>
0.0901

> <Gold.Chemscore.DEInternal.Weighted>
3.5634

> <Gold.Chemscore.Rot.Weighted>
4.1053

> <Gold.Chemscore.Internal.Correction.Weighted>
   9.000000E+99

> <Gold.Protein.RotatedTorsions>
[ 6907 6896 6895 6894 ] final -102.24 input  -60.11 | X-H torsion
[ 7974 7965 7964 7962 ] final  109.67 input  175.53 | X-H torsion
[ 8008 7997 7996 7995 ] final  170.40 input   59.86 | X-H torsion
[ 10167 10162 10161 10158 ] final  -84.32 input  -65.29 | X-H torsion
[ 10718 10713 10712 10709 ] final   69.06 input   66.30 | X-H torsion
[ 10763 10752 10751 10750 ] final   -8.07 input  -60.55 | X-H torsion
[ 11005 11000 10999 10996 ] final  -70.22 input  -57.11 | X-H torsion

> <Gold.Protein.ActiveResidues>
 VAL166  LYS551  ARG553  GLY616  TRP617  ASP618  TYR619  PRO620  LYS621  CYS622 
 ASP623  PHE694  ASN695  SER759  ASP760  ASP761  ALA762  ILE779  LEU786  VAL792 
 PHE793  MET794  SER795  GLU796  ALA797  LYS798  CYS799  TRP800  GLU811  SER814 

> <Gold.Protein.RotatedAtoms>
  150.7188  134.0611  159.3831 H   0  0  0  0  0  0  0  0  0  0  0  0  # atno 6907 bound_to 6896
  151.8590  135.0528  160.0476 H   0  0  0  0  0  0  0  0  0  0  0  0  # atno 6908 bound_to 6896
  152.2731  133.5365  159.5488 H   0  0  0  0  0  0  0  0  0  0  0  0  # atno 6909 bound_to 6896
  145.2649  139.2688  143.3997 H   0  0  0  0  0  0  0  0  0  0  0  0  # atno 7974 bound_to 7965
  156.1369  140.1539  156.8981 H   0  0  0  0  0  0  0  0  0  0  0  0  # atno 8008 bound_to 7997
  154.4954  140.0839  156.7725 H   0  0  0  0  0  0  0  0  0  0  0  0  # atno 8009 bound_to 7997
  155.4152  140.3420  155.4269 H   0  0  0  0  0  0  0  0  0  0  0  0  # atno 8010 bound_to 7997
  140.4144  143.2609  151.8975 H   0  0  0  0  0  0  0  0  0  0  0  0  # atno 10167 bound_to 10162
  157.6325  130.9406  150.0463 H   0  0  0  0  0  0  0  0  0  0  0  0  # atno 10718 bound_to 10713
  153.4353  135.7013  153.6204 H   0  0  0  0  0  0  0  0  0  0  0  0  # atno 10763 bound_to 10752
  153.4602  135.3738  155.2334 H   0  0  0  0  0  0  0  0  0  0  0  0  # atno 10764 bound_to 10752
  154.8726  135.4018  154.3743 H   0  0  0  0  0  0  0  0  0  0  0  0  # atno 10765 bound_to 10752
  141.1570  133.6784  156.6720 H   0  0  0  0  0  0  0  0  0  0  0  0  # atno 11005 bound_to 11000
  146.3264  140.3076  142.8624 LP  0  0  0  0  0  0  0  0  0  0  0  0  # atno 17320 bound_to 7965
  144.9386  140.8054  143.5644 LP  0  0  0  0  0  0  0  0  0  0  0  0  # atno 17321 bound_to 7965
  139.4782  144.5503  151.8395 LP  0  0  0  0  0  0  0  0  0  0  0  0  # atno 17342 bound_to 10162
  140.4603  144.1731  150.5905 LP  0  0  0  0  0  0  0  0  0  0  0  0  # atno 17343 bound_to 10162
  156.1539  130.3643  149.9398 LP  0  0  0  0  0  0  0  0  0  0  0  0  # atno 17370 bound_to 10713
  156.7412  130.9080  151.3632 LP  0  0  0  0  0  0  0  0  0  0  0  0  # atno 17371 bound_to 10713
  140.3168  134.8041  157.4220 LP  0  0  0  0  0  0  0  0  0  0  0  0  # atno 17394 bound_to 11000
  140.1131  134.5319  155.8248 LP  0  0  0  0  0  0  0  0  0  0  0  0  # atno 17395 bound_to 11000

$$$$
