AV-unprocessed.smi:1762|AV-procd|sdf|7106|dock7
  -GOLD-   22720 8333D 1   1.00000     0.00000
 Structure written by MMmdl.
 53 54  0  0  0  0  0  0  0  0  2 V2000
  148.4015  135.0260  155.1598 C   0  0  0  0  0  0  0  0  0  0  0  0
  147.3487  136.1159  154.9289 C   0  0  1  0  0  0  0  0  0  0  0  0
  147.9804  137.5062  154.7205 C   0  0  0  0  0  0  0  0  0  0  0  0
  146.9838  138.5461  154.4104 N   0  0  0  0  0  0  0  0  0  0  0  0
  147.5583  139.9061  154.2096 C   0  0  2  0  0  0  0  0  0  0  0  0
  148.8194  140.1721  155.0662 C   0  0  0  0  0  0  0  0  0  0  0  0
  149.9091  140.3727  154.5285 O   0  0  0  0  0  0  0  0  0  0  0  0
  148.6514  140.1820  156.3983 N   0  0  0  0  0  0  0  0  0  0  0  0
  149.7121  140.4052  157.3730 C   0  0  0  0  0  0  0  0  0  0  0  0
  149.4366  141.6507  158.2324 C   0  0  0  0  0  0  0  0  0  0  0  0
  150.6933  142.4592  158.4904 C   0  0  0  0  0  0  0  0  0  0  0  0
  151.7804  141.9417  159.2280 C   0  0  0  0  0  0  0  0  0  0  0  0
  152.9236  142.7440  159.4252 C   0  0  0  0  0  0  0  0  0  0  0  0
  152.9566  144.0444  158.8801 C   0  0  0  0  0  0  0  0  0  0  0  0
  151.8436  144.5104  158.1509 C   0  0  0  0  0  0  0  0  0  0  0  0
  150.7663  143.7117  157.9842 N   0  3  0  0  0  0  0  0  0  0  0  0
  146.5364  141.0840  154.3538 C   0  0  0  0  0  0  0  0  0  0  0  0
  147.1681  142.4768  154.1533 C   0  0  0  0  0  0  0  0  0  0  0  0
  145.7258  141.0482  155.6643 C   0  0  0  0  0  0  0  0  0  0  0  0
  146.1782  138.0915  153.2703 C   0  0  0  0  0  0  0  0  0  0  0  0
  145.5589  136.6986  153.4938 C   0  0  1  0  0  0  0  0  0  0  0  0
  144.7859  136.2015  152.2670 C   0  0  0  0  0  0  0  0  0  0  0  0
  146.5948  135.7663  153.7751 O   0  0  0  0  0  0  0  0  0  0  0  0
  148.9997  135.2390  156.0460 H   0  0  0  0  0  0  0  0  0  0  0  0
  149.0790  134.9446  154.3094 H   0  0  0  0  0  0  0  0  0  0  0  0
  147.9301  134.0536  155.3040 H   0  0  0  0  0  0  0  0  0  0  0  0
  146.6822  136.1445  155.7928 H   0  0  0  0  0  0  0  0  0  0  0  0
  148.5280  137.7407  155.6325 H   0  0  0  0  0  0  0  0  0  0  0  0
  148.7185  137.4548  153.9180 H   0  0  0  0  0  0  0  0  0  0  0  0
  147.9003  139.9444  153.1730 H   0  0  0  0  0  0  0  0  0  0  0  0
  147.7226  140.0185  156.7595 H   0  0  0  0  0  0  0  0  0  0  0  0
  149.8298  139.5227  158.0045 H   0  0  0  0  0  0  0  0  0  0  0  0
  150.6495  140.5249  156.8293 H   0  0  0  0  0  0  0  0  0  0  0  0
  148.6992  142.2881  157.7421 H   0  0  0  0  0  0  0  0  0  0  0  0
  149.0015  141.3612  159.1901 H   0  0  0  0  0  0  0  0  0  0  0  0
  151.7412  140.9422  159.6370 H   0  0  0  0  0  0  0  0  0  0  0  0
  153.7655  142.3660  159.9871 H   0  0  0  0  0  0  0  0  0  0  0  0
  153.8232  144.6743  159.0194 H   0  0  0  0  0  0  0  0  0  0  0  0
  151.7828  145.4900  157.6996 H   0  0  0  0  0  0  0  0  0  0  0  0
  145.8212  141.0031  153.5369 H   0  0  0  0  0  0  0  0  0  0  0  0
  147.8320  142.7499  154.9743 H   0  0  0  0  0  0  0  0  0  0  0  0
  146.3980  143.2464  154.0931 H   0  0  0  0  0  0  0  0  0  0  0  0
  147.7430  142.5190  153.2279 H   0  0  0  0  0  0  0  0  0  0  0  0
  146.3553  141.2157  156.5379 H   0  0  0  0  0  0  0  0  0  0  0  0
  145.2193  140.0920  155.7970 H   0  0  0  0  0  0  0  0  0  0  0  0
  144.9576  141.8220  155.6655 H   0  0  0  0  0  0  0  0  0  0  0  0
  145.3525  138.7751  153.0840 H   0  0  0  0  0  0  0  0  0  0  0  0
  146.7889  138.0799  152.3656 H   0  0  0  0  0  0  0  0  0  0  0  0
  144.8752  136.7361  154.3439 H   0  0  0  0  0  0  0  0  0  0  0  0
  143.9675  136.8776  152.0180 H   0  0  0  0  0  0  0  0  0  0  0  0
  144.3579  135.2158  152.4497 H   0  0  0  0  0  0  0  0  0  0  0  0
  145.4355  136.1263  151.3945 H   0  0  0  0  0  0  0  0  0  0  0  0
  149.9720  144.0699  157.4533 H   0  0  0  0  0  0  0  0  0  0  0  0
  1  2  1  0  0  0  0
  1 24  1  0  0  0  0
  1 25  1  0  0  0  0
  1 26  1  0  0  0  0
  2 23  1  0  0  0  0
  2  3  1  0  0  0  0
  2 27  1  0  0  0  0
  3  4  1  0  0  0  0
  3 28  1  0  0  0  0
  3 29  1  0  0  0  0
  4  5  1  0  0  0  0
  4 20  1  0  0  0  0
  5  6  1  0  0  0  0
  5 17  1  0  0  0  0
  5 30  1  0  0  0  0
  6  7  2  0  0  0  0
  6  8  1  0  0  0  0
  8  9  1  0  0  0  0
  8 31  1  0  0  0  0
  9 10  1  0  0  0  0
  9 32  1  0  0  0  0
  9 33  1  0  0  0  0
 10 11  1  0  0  0  0
 10 34  1  0  0  0  0
 10 35  1  0  0  0  0
 11 16  1  0  0  0  0
 11 12  2  0  0  0  0
 12 13  1  0  0  0  0
 12 36  1  0  0  0  0
 13 14  2  0  0  0  0
 13 37  1  0  0  0  0
 14 15  1  0  0  0  0
 14 38  1  0  0  0  0
 15 16  2  0  0  0  0
 15 39  1  0  0  0  0
 16 53  1  0  0  0  0
 17 18  1  0  0  0  0
 17 19  1  0  0  0  0
 17 40  1  0  0  0  0
 18 41  1  0  0  0  0
 18 42  1  0  0  0  0
 18 43  1  0  0  0  0
 19 44  1  0  0  0  0
 19 45  1  0  0  0  0
 19 46  1  0  0  0  0
 20 21  1  0  0  0  0
 20 47  1  0  0  0  0
 20 48  1  0  0  0  0
 21 22  1  0  0  0  0
 21 23  1  0  0  0  0
 21 49  1  0  0  0  0
 22 50  1  0  0  0  0
 22 51  1  0  0  0  0
 22 52  1  0  0  0  0
M  CHG  1  16   1
M  END
> <s_m_source_file>
AV-unprocessed.smi

> <i_m_source_file_index>
1762

> <i_lp_mmshare_version>
43012

> <i_f3d_flags>
0

> <s_epik_input>
W0NIM11bQ0BASF0xW0NIMl1OKFtDSDJdW0NASF0oTzEpW0NIM10pW0NAQEhdKFtDSF0oW0NIM10pW0NIM10pQyg9TylbTkhdW0NIMl1bQ0gyXWMyW2NIXVtjSF1bY0hdW2NIXW4y

> <s_epik_cmdline>
J2VwaWtfcHl0aG9uJywgJy1waCcsICc3LjAnLCAnLXRuJywgJzgnLCAnLW1hJywgJzIwMCcsICctbWV0YWxfYmluZGluZycsICctaW1hZScsICc8aW5maWxlLm1hZT4nLCAnLW9tYWUnLCAnPG91dGZpbGUubWFlPic=

> <r_epik_Ionization_Penalty>
1.86475

> <r_epik_Ionization_Penalty_Charging>
1.85347

> <r_epik_Ionization_Penalty_Neutral>
0.0112771

> <r_epik_State_Penalty>
1.99714

> <r_epik_Charging_Adjusted_Penalty>
3.85061

> <i_epik_Tot_Q>
1

> <i_epik_Tot_abs_Q>
1

> <r_epik_Metal_State_Penalty>
2.02271

> <b_epik_Metal_Only>
0

> <s_lp_Force_Field>
OPLS_2005

> <r_lp_Energy>
32.9979

> <b_lp_Chiralities_Consistent>
1

> <s_lp_Variant>
AV-unprocessed.smi:1762-8

> <Gold.Version>
5.8.1

> <Gold.Id.Protein>
6NUR|6NUR_protein|mol2

> <Gold.PLP.Fitness>
40.8121

> <Gold.PLP.PLP>
-33.4040

> <Gold.PLP.part.hbond>
-2.0000

> <Gold.PLP.part.metal>
0.0000

> <Gold.PLP.part.buried>
-6.1879

> <Gold.PLP.part.nonpolar>
-25.4959

> <Gold.PLP.part.repulsive>
0.9000

> <Gold.PLP.ligand.clash>
0.0000

> <Gold.PLP.ligand.torsion>
0.9171

> <Gold.PLP.Chemscore.Hbond>
2.9760

> <Gold.PLP.Chemscore.CHOScore>
0.0000

> <Gold.PLP.Chemscore.Metal>
0.0000

> <Gold.Chemscore.Hbonds>
donor molecule, donor type, donor heavy atom, donor atom, acceptor molecule, acceptor atom, score
      L1  H    16    53       P1  8028  1.30
      P1  H  7989  7998       L1     7  0.84

> <Gold.PLP.Chemscore.Internal.Correction>
0.3144

> <Gold.Rescore>
     Score         DG    S(hbond)    S(metal)    S(lipo)     H(rot)  DE(clash)    DE(int)     intcor
     18.32     -19.85       1.94        0.00     105.01       1.72       0.88       0.65       ----

> <Gold.Chemscore.Fitness>
18.3213

> <Gold.Chemscore.DG>
-19.8539

> <Gold.Chemscore.ZeroCoef>
-5.4800

> <Gold.Chemscore.Hbond>
1.9414

> <Gold.Chemscore.Metal>
0.0000

> <Gold.Chemscore.Lipo>
105.0107

> <Gold.Chemscore.Internal_Hbond>
0.0000

> <Gold.Chemscore.DEClash>
0.8836

> <Gold.Chemscore.DEInternal>
0.6489

> <Gold.Chemscore.Rot>
1.7174

> <Gold.Chemscore.Internal.Correction>
   9.000000E+99

> <Gold.Chemscore.Hbonds>
donor molecule, donor type, donor heavy atom, donor atom, acceptor molecule, acceptor atom, score
      L1  H    16    53       P1  8028  0.39
      P1  H  7989  7998       L1     7  0.78

> <Gold.Chemscore.Hbond.Weighted>
-6.4842

> <Gold.Chemscore.Metal.Weighted>
-0.0000

> <Gold.Chemscore.Lipo.Weighted>
-12.2863

> <Gold.Chemscore.Internal_Hbond.Weighted>
0.0000

> <Gold.Chemscore.DEClash.Weighted>
0.8836

> <Gold.Chemscore.DEInternal.Weighted>
0.6489

> <Gold.Chemscore.Rot.Weighted>
4.3966

> <Gold.Chemscore.Internal.Correction.Weighted>
   9.000000E+99

> <Gold.Protein.RotatedTorsions>
[ 6907 6896 6895 6894 ] final  106.83 input  -60.11 | X-H torsion
[ 7974 7965 7964 7962 ] final  105.54 input  175.53 | X-H torsion
[ 8008 7997 7996 7995 ] final   80.58 input   59.86 | X-H torsion
[ 10167 10162 10161 10158 ] final    5.61 input  -65.29 | X-H torsion
[ 10718 10713 10712 10709 ] final   91.71 input   66.30 | X-H torsion
[ 10763 10752 10751 10750 ] final  -56.00 input  -60.55 | X-H torsion
[ 11005 11000 10999 10996 ] final   53.91 input  -57.11 | X-H torsion

> <Gold.Protein.ActiveResidues>
 VAL166  LYS551  ARG553  GLY616  TRP617  ASP618  TYR619  PRO620  LYS621  CYS622 
 ASP623  PHE694  ASN695  SER759  ASP760  ASP761  ALA762  ILE779  LEU786  VAL792 
 PHE793  MET794  SER795  GLU796  ALA797  LYS798  CYS799  TRP800  GLU811  SER814 

> <Gold.Protein.RotatedAtoms>
  152.5178  133.9323  159.7586 H   0  0  0  0  0  0  0  0  0  0  0  0  # atno 6907 bound_to 6896
  150.9671  133.6375  159.2751 H   0  0  0  0  0  0  0  0  0  0  0  0  # atno 6908 bound_to 6896
  151.3599  135.0907  159.9484 H   0  0  0  0  0  0  0  0  0  0  0  0  # atno 6909 bound_to 6896
  145.3183  139.2520  143.3725 H   0  0  0  0  0  0  0  0  0  0  0  0  # atno 7974 bound_to 7965
  155.8854  140.3442  155.5917 H   0  0  0  0  0  0  0  0  0  0  0  0  # atno 8008 bound_to 7997
  155.7672  140.0840  157.2145 H   0  0  0  0  0  0  0  0  0  0  0  0  # atno 8009 bound_to 7997
  154.4028  140.1525  156.2888 H   0  0  0  0  0  0  0  0  0  0  0  0  # atno 8010 bound_to 7997
  140.6472  143.7632  150.7518 H   0  0  0  0  0  0  0  0  0  0  0  0  # atno 10167 bound_to 10162
  157.6960  131.0417  150.3771 H   0  0  0  0  0  0  0  0  0  0  0  0  # atno 10718 bound_to 10713
  154.1997  135.6413  153.5083 H   0  0  0  0  0  0  0  0  0  0  0  0  # atno 10763 bound_to 10752
  153.0015  135.5448  154.6329 H   0  0  0  0  0  0  0  0  0  0  0  0  # atno 10764 bound_to 10752
  154.5738  135.2919  155.0774 H   0  0  0  0  0  0  0  0  0  0  0  0  # atno 10765 bound_to 10752
  140.0729  134.5444  155.9027 H   0  0  0  0  0  0  0  0  0  0  0  0  # atno 11005 bound_to 11000
  146.3092  140.3735  142.8676 LP  0  0  0  0  0  0  0  0  0  0  0  0  # atno 17320 bound_to 7965
  144.8959  140.7583  143.5897 LP  0  0  0  0  0  0  0  0  0  0  0  0  # atno 17321 bound_to 7965
  140.1276  143.4555  152.2274 LP  0  0  0  0  0  0  0  0  0  0  0  0  # atno 17342 bound_to 10162
  139.5684  144.7449  151.3958 LP  0  0  0  0  0  0  0  0  0  0  0  0  # atno 17343 bound_to 10162
  156.4189  130.3949  149.6839 LP  0  0  0  0  0  0  0  0  0  0  0  0  # atno 17370 bound_to 10713
  156.4097  130.7716  151.2728 LP  0  0  0  0  0  0  0  0  0  0  0  0  # atno 17371 bound_to 10713
  141.2019  133.6621  156.5974 LP  0  0  0  0  0  0  0  0  0  0  0  0  # atno 17394 bound_to 11000
  140.3600  134.7695  157.4527 LP  0  0  0  0  0  0  0  0  0  0  0  0  # atno 17395 bound_to 11000

$$$$
