AV-unprocessed.smi:3285|AV-procd|sdf|12583|dock2
  -GOLD-   2272018503D 1   1.00000     0.00000
 Structure written by MMmdl.
 45 46  0  0  0  0  0  0  0  0  2 V2000
  152.5086  139.8070  155.8357 C   0  0  0  0  0  0  0  0  0  0  0  0
  151.2252  139.5280  155.1079 C   0  0  0  0  0  0  0  0  0  0  0  0
  151.0682  138.3597  154.5097 N   0  0  0  0  0  0  0  0  0  0  0  0
  149.8000  138.3959  153.9232 O   0  0  0  0  0  0  0  0  0  0  0  0
  149.2356  139.5997  154.1937 C   0  0  0  0  0  0  0  0  0  0  0  0
  147.8701  139.8298  153.6396 C   0  0  0  0  0  0  0  0  0  0  0  0
  150.0851  140.3676  154.9432 C   0  0  0  0  0  0  0  0  0  0  0  0
  149.8739  141.7645  155.4629 C   0  0  0  0  0  0  0  0  0  0  0  0
  150.6002  141.9813  156.7965 C   0  0  0  0  0  0  0  0  0  0  0  0
  151.3017  143.2800  156.8137 N   0  3  0  0  0  0  0  0  0  0  0  0
  151.9217  143.6326  158.1090 C   0  0  1  0  0  0  0  0  0  0  0  0
  150.8710  144.2370  159.0514 C   0  0  0  0  0  0  0  0  0  0  0  0
  151.4903  144.5807  160.4124 C   0  0  0  0  0  0  0  0  0  0  0  0
  152.1423  143.3517  161.0783 C   0  0  2  0  0  0  0  0  0  0  0  0
  152.7350  143.7526  162.4411 C   0  0  0  0  0  0  0  0  0  0  0  0
  153.1864  142.7019  160.1304 C   0  0  1  0  0  0  0  0  0  0  0  0
  153.8130  141.4245  160.7182 C   0  0  0  0  0  0  0  0  0  0  0  0
  152.5599  142.3907  158.7539 C   0  0  0  0  0  0  0  0  0  0  0  0
  152.5282  140.8175  156.2432 H   0  0  0  0  0  0  0  0  0  0  0  0
  153.3661  139.7048  155.1699 H   0  0  0  0  0  0  0  0  0  0  0  0
  152.6468  139.1133  156.6653 H   0  0  0  0  0  0  0  0  0  0  0  0
  147.5011  140.8222  153.8980 H   0  0  0  0  0  0  0  0  0  0  0  0
  147.1661  139.0957  154.0314 H   0  0  0  0  0  0  0  0  0  0  0  0
  147.8761  139.7452  152.5528 H   0  0  0  0  0  0  0  0  0  0  0  0
  150.2249  142.4998  154.7378 H   0  0  0  0  0  0  0  0  0  0  0  0
  148.8108  141.9699  155.5920 H   0  0  0  0  0  0  0  0  0  0  0  0
  149.8877  141.9464  157.6220 H   0  0  0  0  0  0  0  0  0  0  0  0
  151.3263  141.1828  156.9583 H   0  0  0  0  0  0  0  0  0  0  0  0
  152.0295  143.2524  156.1142 H   0  0  0  0  0  0  0  0  0  0  0  0
  152.7031  144.3775  157.9469 H   0  0  0  0  0  0  0  0  0  0  0  0
  150.4416  145.1359  158.6071 H   0  0  0  0  0  0  0  0  0  0  0  0
  150.0467  143.5362  159.1928 H   0  0  0  0  0  0  0  0  0  0  0  0
  152.2346  145.3679  160.2830 H   0  0  0  0  0  0  0  0  0  0  0  0
  150.7197  144.9929  161.0650 H   0  0  0  0  0  0  0  0  0  0  0  0
  151.3542  142.6210  161.2666 H   0  0  0  0  0  0  0  0  0  0  0  0
  153.5751  144.4377  162.3230 H   0  0  0  0  0  0  0  0  0  0  0  0
  153.0835  142.8870  163.0035 H   0  0  0  0  0  0  0  0  0  0  0  0
  151.9878  144.2500  163.0602 H   0  0  0  0  0  0  0  0  0  0  0  0
  153.9931  143.4194  159.9716 H   0  0  0  0  0  0  0  0  0  0  0  0
  153.0501  140.6873  160.9706 H   0  0  0  0  0  0  0  0  0  0  0  0
  154.3886  141.6328  161.6194 H   0  0  0  0  0  0  0  0  0  0  0  0
  154.4976  140.9613  160.0074 H   0  0  0  0  0  0  0  0  0  0  0  0
  151.8068  141.6090  158.8664 H   0  0  0  0  0  0  0  0  0  0  0  0
  153.3230  141.9873  158.0864 H   0  0  0  0  0  0  0  0  0  0  0  0
  150.6457  144.0063  156.5642 H   0  0  0  0  0  0  0  0  0  0  0  0
  1  2  1  0  0  0  0
  1 19  1  0  0  0  0
  1 20  1  0  0  0  0
  1 21  1  0  0  0  0
  2  7  1  0  0  0  0
  2  3  2  0  0  0  0
  3  4  1  0  0  0  0
  4  5  1  0  0  0  0
  5  6  1  0  0  0  0
  5  7  2  0  0  0  0
  6 22  1  0  0  0  0
  6 23  1  0  0  0  0
  6 24  1  0  0  0  0
  7  8  1  0  0  0  0
  8  9  1  0  0  0  0
  8 25  1  0  0  0  0
  8 26  1  0  0  0  0
  9 10  1  0  0  0  0
  9 27  1  0  0  0  0
  9 28  1  0  0  0  0
 10 11  1  0  0  0  0
 10 29  1  0  0  0  0
 10 45  1  0  0  0  0
 11 18  1  0  0  0  0
 11 12  1  0  0  0  0
 11 30  1  0  0  0  0
 12 13  1  0  0  0  0
 12 31  1  0  0  0  0
 12 32  1  0  0  0  0
 13 14  1  0  0  0  0
 13 33  1  0  0  0  0
 13 34  1  0  0  0  0
 14 15  1  0  0  0  0
 14 16  1  0  0  0  0
 14 35  1  0  0  0  0
 15 36  1  0  0  0  0
 15 37  1  0  0  0  0
 15 38  1  0  0  0  0
 16 17  1  0  0  0  0
 16 18  1  0  0  0  0
 16 39  1  0  0  0  0
 17 40  1  0  0  0  0
 17 41  1  0  0  0  0
 17 42  1  0  0  0  0
 18 43  1  0  0  0  0
 18 44  1  0  0  0  0
M  CHG  1  10   1
M  END
> <s_m_source_file>
AV-unprocessed.smi

> <i_m_source_file_index>
3285

> <i_lp_mmshare_version>
43012

> <i_f3d_flags>
0

> <s_epik_input>
W0NIM11jMW5vYyhbQ0gzXSljMVtDSDJdW0NIMl1bTkhdW0NAQEhdMltDSDJdW0NIMl1bQ0BASF0oW0NIM10pW0NAQEhdKFtDSDNdKVtDSDJdMg==

> <s_epik_cmdline>
J2VwaWtfcHl0aG9uJywgJy1waCcsICc3LjAnLCAnLXRuJywgJzgnLCAnLW1hJywgJzIwMCcsICctbWV0YWxfYmluZGluZycsICctaW1hZScsICc8aW5maWxlLm1hZT4nLCAnLW9tYWUnLCAnPG91dGZpbGUubWFlPic=

> <r_lp_tautomer_probability>
1

> <r_epik_Ionization_Penalty>
0.000204615

> <r_epik_Ionization_Penalty_Charging>
0.000204615

> <r_epik_Ionization_Penalty_Neutral>
9.28663e-11

> <r_epik_State_Penalty>
-0

> <r_epik_Charging_Adjusted_Penalty>
0.000204615

> <i_epik_Tot_Q>
1

> <i_epik_Tot_abs_Q>
1

> <r_epik_Metal_State_Penalty>
-0

> <b_epik_Metal_Only>
0

> <s_lp_Force_Field>
OPLS_2005

> <r_lp_Energy>
11.6607

> <b_lp_Chiralities_Consistent>
1

> <s_lp_Variant>
AV-unprocessed.smi:3285-4

> <Gold.Version>
5.8.1

> <Gold.Id.Protein>
6NUR|6NUR_protein|mol2

> <Gold.PLP.Fitness>
47.3703

> <Gold.PLP.PLP>
-43.1421

> <Gold.PLP.part.hbond>
-1.0000

> <Gold.PLP.part.metal>
0.0000

> <Gold.PLP.part.buried>
-3.6227

> <Gold.PLP.part.nonpolar>
-40.1500

> <Gold.PLP.part.repulsive>
0.5490

> <Gold.PLP.ligand.clash>
0.0000

> <Gold.PLP.ligand.torsion>
0.9052

> <Gold.PLP.Chemscore.Hbond>
2.0000

> <Gold.PLP.Chemscore.CHOScore>
0.0000

> <Gold.PLP.Chemscore.Metal>
0.0000

> <Gold.Chemscore.Hbonds>
donor molecule, donor type, donor heavy atom, donor atom, acceptor molecule, acceptor atom, score
      L1  H    10    45       P1  8028  1.76

> <Gold.PLP.Chemscore.Internal.Correction>
0.0387

> <Gold.Rescore>
     Score         DG    S(hbond)    S(metal)    S(lipo)     H(rot)  DE(clash)    DE(int)     intcor
     19.06     -21.13       0.98        0.00     135.29       1.35       0.39       1.68       ----

> <Gold.Chemscore.Fitness>
19.0634

> <Gold.Chemscore.DG>
-21.1258

> <Gold.Chemscore.ZeroCoef>
-5.4800

> <Gold.Chemscore.Hbond>
0.9772

> <Gold.Chemscore.Metal>
0.0000

> <Gold.Chemscore.Lipo>
135.2890

> <Gold.Chemscore.Internal_Hbond>
0.0000

> <Gold.Chemscore.DEClash>
0.3863

> <Gold.Chemscore.DEInternal>
1.6762

> <Gold.Chemscore.Rot>
1.3465

> <Gold.Chemscore.Internal.Correction>
   9.000000E+99

> <Gold.Chemscore.Hbonds>
donor molecule, donor type, donor heavy atom, donor atom, acceptor molecule, acceptor atom, score
      L1  H    10    45       P1  8028  0.82

> <Gold.Chemscore.Hbond.Weighted>
-3.2640

> <Gold.Chemscore.Metal.Weighted>
-0.0000

> <Gold.Chemscore.Lipo.Weighted>
-15.8288

> <Gold.Chemscore.Internal_Hbond.Weighted>
0.0000

> <Gold.Chemscore.DEClash.Weighted>
0.3863

> <Gold.Chemscore.DEInternal.Weighted>
1.6762

> <Gold.Chemscore.Rot.Weighted>
3.4470

> <Gold.Chemscore.Internal.Correction.Weighted>
   9.000000E+99

> <Gold.Protein.RotatedTorsions>
[ 6907 6896 6895 6894 ] final  -68.66 input  -60.11 | X-H torsion
[ 7974 7965 7964 7962 ] final   93.77 input  175.53 | X-H torsion
[ 8008 7997 7996 7995 ] final -156.16 input   59.86 | X-H torsion
[ 10167 10162 10161 10158 ] final  156.67 input  -65.29 | X-H torsion
[ 10718 10713 10712 10709 ] final -100.54 input   66.30 | X-H torsion
[ 10763 10752 10751 10750 ] final -101.15 input  -60.55 | X-H torsion
[ 11005 11000 10999 10996 ] final -102.42 input  -57.11 | X-H torsion

> <Gold.Protein.ActiveResidues>
 VAL166  LYS551  ARG553  GLY616  TRP617  ASP618  TYR619  PRO620  LYS621  CYS622 
 ASP623  PHE694  ASN695  SER759  ASP760  ASP761  ALA762  ILE779  LEU786  VAL792 
 PHE793  MET794  SER795  GLU796  ALA797  LYS798  CYS799  TRP800  GLU811  SER814 

> <Gold.Protein.RotatedAtoms>
  150.7345  134.5708  159.5888 H   0  0  0  0  0  0  0  0  0  0  0  0  # atno 6907 bound_to 6896
  152.3147  134.7451  160.0337 H   0  0  0  0  0  0  0  0  0  0  0  0  # atno 6908 bound_to 6896
  151.7987  133.3332  159.3557 H   0  0  0  0  0  0  0  0  0  0  0  0  # atno 6909 bound_to 6896
  145.4745  139.2280  143.2917 H   0  0  0  0  0  0  0  0  0  0  0  0  # atno 7974 bound_to 7965
  155.7129  140.0780  157.2363 H   0  0  0  0  0  0  0  0  0  0  0  0  # atno 8008 bound_to 7997
  154.4056  140.1627  156.2370 H   0  0  0  0  0  0  0  0  0  0  0  0  # atno 8009 bound_to 7997
  155.9266  140.3394  155.6218 H   0  0  0  0  0  0  0  0  0  0  0  0  # atno 8010 bound_to 7997
  139.4821  144.4987  151.8201 H   0  0  0  0  0  0  0  0  0  0  0  0  # atno 10167 bound_to 10162
  156.0166  130.5332  150.6832 H   0  0  0  0  0  0  0  0  0  0  0  0  # atno 10718 bound_to 10713
  154.7635  135.4908  153.9509 H   0  0  0  0  0  0  0  0  0  0  0  0  # atno 10763 bound_to 10752
  153.1279  135.6746  153.9233 H   0  0  0  0  0  0  0  0  0  0  0  0  # atno 10764 bound_to 10752
  153.8946  135.3117  155.3426 H   0  0  0  0  0  0  0  0  0  0  0  0  # atno 10765 bound_to 10752
  141.1190  133.8557  157.1358 H   0  0  0  0  0  0  0  0  0  0  0  0  # atno 11005 bound_to 11000
  146.2377  140.5526  142.8947 LP  0  0  0  0  0  0  0  0  0  0  0  0  # atno 17320 bound_to 7965
  144.7925  140.6060  143.6532 LP  0  0  0  0  0  0  0  0  0  0  0  0  # atno 17321 bound_to 7965
  140.4478  144.1897  150.5895 LP  0  0  0  0  0  0  0  0  0  0  0  0  # atno 17342 bound_to 10162
  140.4616  143.2446  151.9212 LP  0  0  0  0  0  0  0  0  0  0  0  0  # atno 17343 bound_to 10162
  157.4530  131.0874  151.0826 LP  0  0  0  0  0  0  0  0  0  0  0  0  # atno 17370 bound_to 10713
  157.1337  130.6113  149.5536 LP  0  0  0  0  0  0  0  0  0  0  0  0  # atno 17371 bound_to 10713
  140.0132  134.9979  157.0439 LP  0  0  0  0  0  0  0  0  0  0  0  0  # atno 17394 bound_to 11000
  140.4564  134.1529  155.7186 LP  0  0  0  0  0  0  0  0  0  0  0  0  # atno 17395 bound_to 11000

$$$$
