AV-unprocessed.smi:3342|AV-procd|sdf|12889|dock8
  -GOLD-   2272019293D 1   1.00000     0.00000
 Structure written by MMmdl.
 41 42  0  0  0  0  0  0  0  0  1 V2000
  145.1218  136.7457  150.2781 C   0  0  0  0  0  0  0  0  0  0  0  0
  145.5774  136.1630  151.6261 C   0  0  2  0  0  0  0  0  0  0  0  0
  144.5470  135.1965  152.2498 C   0  0  0  0  0  0  0  0  0  0  0  0
  144.3253  134.0131  151.4407 N   0  0  0  0  0  0  0  0  0  0  0  0
  143.4270  132.9845  151.6922 C   0  0  0  0  0  0  0  0  0  0  0  0
  143.5626  132.0832  150.6605 C   0  0  0  0  0  0  0  0  0  0  0  0
  144.5291  132.5367  149.7656 N   0  0  0  0  0  0  0  0  0  0  0  0
  144.9330  133.6857  150.2919 C   0  0  0  0  0  0  0  0  0  0  0  0
  145.8582  137.2595  152.5478 N   0  0  0  0  0  0  0  0  0  0  0  0
  146.5288  138.3853  152.2478 C   0  0  0  0  0  0  0  0  0  0  0  0
  146.9669  138.6046  151.1174 O   0  0  0  0  0  0  0  0  0  0  0  0
  146.6616  139.2577  153.2791 N   0  0  0  0  0  0  0  0  0  0  0  0
  146.5262  138.9410  154.7111 C   0  0  0  0  0  0  0  0  0  0  0  0
  147.9306  138.8934  155.3397 C   0  0  0  0  0  0  0  0  0  0  0  0
  148.6851  140.2265  155.1215 C   0  0  0  0  0  0  0  0  0  0  0  0
  150.1320  140.1279  155.6227 C   0  0  0  0  0  0  0  0  0  0  0  0
  150.3104  139.9172  156.9293 N   0  0  0  0  0  0  0  0  0  0  0  0
  151.0771  140.2393  154.8440 O   0  0  0  0  0  0  0  0  0  0  0  0
  148.6400  140.6504  153.6340 C   0  0  0  0  0  0  0  0  0  0  0  0
  147.2011  140.6093  153.0874 C   0  0  0  0  0  0  0  0  0  0  0  0
  144.9894  135.9648  149.5290 H   0  0  0  0  0  0  0  0  0  0  0  0
  145.8587  137.4467  149.8850 H   0  0  0  0  0  0  0  0  0  0  0  0
  144.1749  137.2776  150.3764 H   0  0  0  0  0  0  0  0  0  0  0  0
  146.5045  135.6155  151.4462 H   0  0  0  0  0  0  0  0  0  0  0  0
  144.8766  134.8705  153.2373 H   0  0  0  0  0  0  0  0  0  0  0  0
  143.5911  135.7031  152.3923 H   0  0  0  0  0  0  0  0  0  0  0  0
  142.7860  132.9785  152.5616 H   0  0  0  0  0  0  0  0  0  0  0  0
  143.0426  131.1514  150.4941 H   0  0  0  0  0  0  0  0  0  0  0  0
  145.6929  134.3013  149.8332 H   0  0  0  0  0  0  0  0  0  0  0  0
  145.5206  137.1544  153.4933 H   0  0  0  0  0  0  0  0  0  0  0  0
  145.9295  139.7161  155.1944 H   0  0  0  0  0  0  0  0  0  0  0  0
  145.9992  138.0084  154.9119 H   0  0  0  0  0  0  0  0  0  0  0  0
  147.8477  138.6824  156.4067 H   0  0  0  0  0  0  0  0  0  0  0  0
  148.4885  138.0630  154.9033 H   0  0  0  0  0  0  0  0  0  0  0  0
  148.1703  140.9959  155.7000 H   0  0  0  0  0  0  0  0  0  0  0  0
  151.2442  139.8449  157.3063 H   0  0  0  0  0  0  0  0  0  0  0  0
  149.5082  139.8307  157.5364 H   0  0  0  0  0  0  0  0  0  0  0  0
  149.0470  141.6556  153.5186 H   0  0  0  0  0  0  0  0  0  0  0  0
  149.2686  139.9926  153.0313 H   0  0  0  0  0  0  0  0  0  0  0  0
  147.1892  140.9237  152.0428 H   0  0  0  0  0  0  0  0  0  0  0  0
  146.5761  141.3295  153.6176 H   0  0  0  0  0  0  0  0  0  0  0  0
  1  2  1  0  0  0  0
  1 21  1  0  0  0  0
  1 22  1  0  0  0  0
  1 23  1  0  0  0  0
  2  3  1  0  0  0  0
  2  9  1  0  0  0  0
  2 24  1  0  0  0  0
  3  4  1  0  0  0  0
  3 25  1  0  0  0  0
  3 26  1  0  0  0  0
  4  8  1  0  0  0  0
  4  5  1  0  0  0  0
  5  6  2  0  0  0  0
  5 27  1  0  0  0  0
  6  7  1  0  0  0  0
  6 28  1  0  0  0  0
  7  8  2  0  0  0  0
  8 29  1  0  0  0  0
  9 10  1  0  0  0  0
  9 30  1  0  0  0  0
 10 11  2  0  0  0  0
 10 12  1  0  0  0  0
 12 20  1  0  0  0  0
 12 13  1  0  0  0  0
 13 14  1  0  0  0  0
 13 31  1  0  0  0  0
 13 32  1  0  0  0  0
 14 15  1  0  0  0  0
 14 33  1  0  0  0  0
 14 34  1  0  0  0  0
 15 16  1  0  0  0  0
 15 19  1  0  0  0  0
 15 35  1  0  0  0  0
 16 17  1  0  0  0  0
 16 18  2  0  0  0  0
 17 36  1  0  0  0  0
 17 37  1  0  0  0  0
 19 20  1  0  0  0  0
 19 38  1  0  0  0  0
 19 39  1  0  0  0  0
 20 40  1  0  0  0  0
 20 41  1  0  0  0  0
M  END
> <s_m_source_file>
AV-unprocessed.smi

> <i_m_source_file_index>
3342

> <i_lp_mmshare_version>
43012

> <i_f3d_flags>
0

> <s_epik_input>
W2NIXTFuW2NIXVtjSF1uMVtDSDJdW0NAQEhdKFtDSDNdKVtOSF1DKD1PKU4yW0NIMl1bQ0gyXVtDSF0oQyg9TylbTkgyXSlbQ0gyXVtDSDJdMg==

> <s_epik_cmdline>
J2VwaWtfcHl0aG9uJywgJy1waCcsICc3LjAnLCAnLXRuJywgJzgnLCAnLW1hJywgJzIwMCcsICctbWV0YWxfYmluZGluZycsICctaW1hZScsICc8aW5maWxlLm1hZT4nLCAnLW9tYWUnLCAnPG91dGZpbGUubWFlPic=

> <r_lp_tautomer_probability>
1

> <r_epik_Ionization_Penalty>
0.624431

> <r_epik_Ionization_Penalty_Charging>
0.624374

> <r_epik_Ionization_Penalty_Neutral>
5.67186e-05

> <r_epik_State_Penalty>
0.640677

> <r_epik_Charging_Adjusted_Penalty>
1.26505

> <i_epik_Tot_Q>
0

> <i_epik_Tot_abs_Q>
0

> <r_epik_Metal_State_Penalty>
0.307574

> <b_epik_Metal_Only>
0

> <s_lp_Force_Field>
OPLS_2005

> <r_lp_Energy>
29.2273

> <b_lp_Chiralities_Consistent>
1

> <s_lp_Variant>
AV-unprocessed.smi:3342-3

> <Gold.Version>
5.8.1

> <Gold.Id.Protein>
6NUR|6NUR_protein|mol2

> <Gold.PLP.Fitness>
40.5387

> <Gold.PLP.PLP>
-26.1980

> <Gold.PLP.part.hbond>
-1.9738

> <Gold.PLP.part.metal>
0.0000

> <Gold.PLP.part.buried>
4.4955

> <Gold.PLP.part.nonpolar>
-31.1148

> <Gold.PLP.part.repulsive>
1.6296

> <Gold.PLP.ligand.clash>
0.0000

> <Gold.PLP.ligand.torsion>
0.3490

> <Gold.PLP.Chemscore.Hbond>
2.0000

> <Gold.PLP.Chemscore.CHOScore>
2.9855

> <Gold.PLP.Chemscore.Metal>
0.0000

> <Gold.Chemscore.Hbonds>
donor molecule, donor type, donor heavy atom, donor atom, acceptor molecule, acceptor atom, score
      P1  H  7954  7966       L1    11  1.00
      P1  H  7989  7998       L1    18  1.00
      L1  C     5    27       P1 10957  0.97
      L1  C     6    28       P1 10952  0.99
      L1  C     8    29       P1  7921  1.00

> <Gold.PLP.Chemscore.Internal.Correction>
0.0822

> <Gold.Rescore>
     Score         DG    S(hbond)    S(metal)    S(lipo)     H(rot)  DE(clash)    DE(int)     intcor
      8.86     -12.90       1.93        0.00      58.21       2.28       2.24       1.80       ----

> <Gold.Chemscore.Fitness>
8.8584

> <Gold.Chemscore.DG>
-12.8989

> <Gold.Chemscore.ZeroCoef>
-5.4800

> <Gold.Chemscore.Hbond>
1.9263

> <Gold.Chemscore.Metal>
0.0000

> <Gold.Chemscore.Lipo>
58.2118

> <Gold.Chemscore.Internal_Hbond>
0.0000

> <Gold.Chemscore.DEClash>
2.2417

> <Gold.Chemscore.DEInternal>
1.7988

> <Gold.Chemscore.Rot>
2.2757

> <Gold.Chemscore.Internal.Correction>
   9.000000E+99

> <Gold.Chemscore.Hbonds>
donor molecule, donor type, donor heavy atom, donor atom, acceptor molecule, acceptor atom, score
      P1  H  7954  7966       L1    11  0.95
      P1  H  7989  7998       L1    18  0.98

> <Gold.Chemscore.Hbond.Weighted>
-6.4340

> <Gold.Chemscore.Metal.Weighted>
-0.0000

> <Gold.Chemscore.Lipo.Weighted>
-6.8108

> <Gold.Chemscore.Internal_Hbond.Weighted>
0.0000

> <Gold.Chemscore.DEClash.Weighted>
2.2417

> <Gold.Chemscore.DEInternal.Weighted>
1.7988

> <Gold.Chemscore.Rot.Weighted>
5.8259

> <Gold.Chemscore.Internal.Correction.Weighted>
   9.000000E+99

> <Gold.Protein.RotatedTorsions>
[ 6907 6896 6895 6894 ] final   59.90 input  -60.11 | X-H torsion
[ 7974 7965 7964 7962 ] final  127.89 input  175.53 | X-H torsion
[ 8008 7997 7996 7995 ] final  -12.17 input   59.86 | X-H torsion
[ 10167 10162 10161 10158 ] final   46.14 input  -65.29 | X-H torsion
[ 10718 10713 10712 10709 ] final   11.44 input   66.30 | X-H torsion
[ 10763 10752 10751 10750 ] final  -67.82 input  -60.55 | X-H torsion
[ 11005 11000 10999 10996 ] final -153.92 input  -57.11 | X-H torsion

> <Gold.Protein.ActiveResidues>
 VAL166  LYS551  ARG553  GLY616  TRP617  ASP618  TYR619  PRO620  LYS621  CYS622 
 ASP623  PHE694  ASN695  SER759  ASP760  ASP761  ALA762  ILE779  LEU786  VAL792 
 PHE793  MET794  SER795  GLU796  ALA797  LYS798  CYS799  TRP800  GLU811  SER814 

> <Gold.Protein.RotatedAtoms>
  152.3956  134.6371  160.0090 H   0  0  0  0  0  0  0  0  0  0  0  0  # atno 6907 bound_to 6896
  151.6592  133.3312  159.3178 H   0  0  0  0  0  0  0  0  0  0  0  0  # atno 6908 bound_to 6896
  150.7864  134.6895  159.6534 H   0  0  0  0  0  0  0  0  0  0  0  0  # atno 6909 bound_to 6896
  145.0455  139.3927  143.5080 H   0  0  0  0  0  0  0  0  0  0  0  0  # atno 7974 bound_to 7965
  154.5400  140.2283  155.8657 H   0  0  0  0  0  0  0  0  0  0  0  0  # atno 8008 bound_to 7997
  156.1849  140.3091  155.9182 H   0  0  0  0  0  0  0  0  0  0  0  0  # atno 8009 bound_to 7997
  155.3276  140.0443  157.3032 H   0  0  0  0  0  0  0  0  0  0  0  0  # atno 8010 bound_to 7997
  140.3170  144.2752  150.6189 H   0  0  0  0  0  0  0  0  0  0  0  0  # atno 10167 bound_to 10162
  156.9956  130.6059  149.5690 H   0  0  0  0  0  0  0  0  0  0  0  0  # atno 10718 bound_to 10713
  154.3801  135.6076  153.5786 H   0  0  0  0  0  0  0  0  0  0  0  0  # atno 10763 bound_to 10752
  152.9788  135.5858  154.4421 H   0  0  0  0  0  0  0  0  0  0  0  0  # atno 10764 bound_to 10752
  154.4188  135.2845  155.1967 H   0  0  0  0  0  0  0  0  0  0  0  0  # atno 10765 bound_to 10752
  140.7029  134.3917  157.5207 H   0  0  0  0  0  0  0  0  0  0  0  0  # atno 11005 bound_to 11000
  146.3513  140.0078  142.8670 LP  0  0  0  0  0  0  0  0  0  0  0  0  # atno 17320 bound_to 7965
  145.1593  140.9664  143.4387 LP  0  0  0  0  0  0  0  0  0  0  0  0  # atno 17321 bound_to 7965
  140.5518  143.2205  151.7914 LP  0  0  0  0  0  0  0  0  0  0  0  0  # atno 17342 bound_to 10162
  139.4882  144.4466  151.9702 LP  0  0  0  0  0  0  0  0  0  0  0  0  # atno 17343 bound_to 10162
  156.0190  130.5285  150.8221 LP  0  0  0  0  0  0  0  0  0  0  0  0  # atno 17370 bound_to 10713
  157.5427  131.0941  150.9805 LP  0  0  0  0  0  0  0  0  0  0  0  0  # atno 17371 bound_to 10713
  139.8892  134.8837  156.2435 LP  0  0  0  0  0  0  0  0  0  0  0  0  # atno 17394 bound_to 11000
  141.0148  133.7075  156.1171 LP  0  0  0  0  0  0  0  0  0  0  0  0  # atno 17395 bound_to 11000

$$$$
