AV-unprocessed.smi:3263|AV-procd|sdf|12491|dock7
  -GOLD-   2272018393D 1   1.00000     0.00000
 Structure written by MMmdl.
 42 44  0  0  0  0  0  0  0  0  2 V2000
  152.4839  139.3216  156.1843 O   0  0  0  0  0  0  0  0  0  0  0  0
  151.4150  139.3615  155.5744 C   0  0  0  0  0  0  0  0  0  0  0  0
  150.8991  138.1395  154.8032 C   0  0  0  0  0  0  0  0  0  0  0  0
  150.7883  136.8543  155.6566 C   0  0  1  0  0  0  0  0  0  0  0  0
  149.7315  136.9241  156.7867 C   0  0  0  0  0  0  0  0  0  0  0  0
  148.8384  135.7019  156.5088 C   0  0  2  0  0  0  0  0  0  0  0  0
  149.6240  134.4118  156.8081 C   0  0  0  0  0  0  0  0  0  0  0  0
  150.6243  134.3455  155.6388 C   0  0  0  0  0  0  0  0  0  0  0  0
  150.3056  135.6281  154.8466 C   0  0  1  0  0  0  0  0  0  0  0  0
  148.7879  135.6994  154.9868 C   0  0  0  0  0  0  0  0  0  0  0  0
  150.6375  140.4547  155.5366 N   0  0  0  0  0  0  0  0  0  0  0  0
  150.9426  141.7207  156.1932 C   0  0  0  0  0  0  0  0  0  0  0  0
  150.7778  141.6236  157.7197 C   0  0  0  0  0  0  0  0  0  0  0  0
  151.2044  142.8957  158.4258 C   0  0  0  0  0  0  0  0  0  0  0  0
  152.0414  142.8781  159.5628 C   0  0  0  0  0  0  0  0  0  0  0  0
  152.3964  144.0979  160.1758 C   0  0  0  0  0  0  0  0  0  0  0  0
  151.9071  145.3076  159.6409 C   0  0  0  0  0  0  0  0  0  0  0  0
  151.0733  145.2667  158.5048 C   0  0  0  0  0  0  0  0  0  0  0  0
  150.7550  144.0780  157.9462 N   0  3  0  0  0  0  0  0  0  0  0  0
  149.9351  138.3904  154.3600 H   0  0  0  0  0  0  0  0  0  0  0  0
  151.5779  137.9507  153.9702 H   0  0  0  0  0  0  0  0  0  0  0  0
  151.7716  136.6402  156.0791 H   0  0  0  0  0  0  0  0  0  0  0  0
  150.1830  136.8915  157.7788 H   0  0  0  0  0  0  0  0  0  0  0  0
  149.1413  137.8392  156.7234 H   0  0  0  0  0  0  0  0  0  0  0  0
  147.8674  135.7487  157.0027 H   0  0  0  0  0  0  0  0  0  0  0  0
  150.1202  134.4477  157.7786 H   0  0  0  0  0  0  0  0  0  0  0  0
  148.9656  133.5423  156.7996 H   0  0  0  0  0  0  0  0  0  0  0  0
  151.6606  134.3076  155.9764 H   0  0  0  0  0  0  0  0  0  0  0  0
  150.4414  133.4597  155.0292 H   0  0  0  0  0  0  0  0  0  0  0  0
  150.6725  135.6004  153.8201 H   0  0  0  0  0  0  0  0  0  0  0  0
  148.2732  134.8304  154.5726 H   0  0  0  0  0  0  0  0  0  0  0  0
  148.3514  136.6061  154.5652 H   0  0  0  0  0  0  0  0  0  0  0  0
  149.7729  140.4036  155.0169 H   0  0  0  0  0  0  0  0  0  0  0  0
  151.9689  141.9914  155.9436 H   0  0  0  0  0  0  0  0  0  0  0  0
  150.3059  142.5101  155.7895 H   0  0  0  0  0  0  0  0  0  0  0  0
  149.7388  141.4129  157.9765 H   0  0  0  0  0  0  0  0  0  0  0  0
  151.3642  140.7894  158.1074 H   0  0  0  0  0  0  0  0  0  0  0  0
  152.4066  141.9429  159.9620 H   0  0  0  0  0  0  0  0  0  0  0  0
  153.0361  144.1055  161.0462 H   0  0  0  0  0  0  0  0  0  0  0  0
  152.1674  146.2523  160.0954 H   0  0  0  0  0  0  0  0  0  0  0  0
  150.6547  146.1418  158.0296 H   0  0  0  0  0  0  0  0  0  0  0  0
  150.1499  144.0724  157.1248 H   0  0  0  0  0  0  0  0  0  0  0  0
  1  2  2  0  0  0  0
  2  3  1  0  0  0  0
  2 11  1  0  0  0  0
  3  4  1  0  0  0  0
  3 20  1  0  0  0  0
  3 21  1  0  0  0  0
  4  9  1  0  0  0  0
  4  5  1  0  0  0  0
  4 22  1  0  0  0  0
  5  6  1  0  0  0  0
  5 23  1  0  0  0  0
  5 24  1  0  0  0  0
  6 10  1  0  0  0  0
  6  7  1  0  0  0  0
  6 25  1  0  0  0  0
  7  8  1  0  0  0  0
  7 26  1  0  0  0  0
  7 27  1  0  0  0  0
  8  9  1  0  0  0  0
  8 28  1  0  0  0  0
  8 29  1  0  0  0  0
  9 10  1  0  0  0  0
  9 30  1  0  0  0  0
 10 31  1  0  0  0  0
 10 32  1  0  0  0  0
 11 12  1  0  0  0  0
 11 33  1  0  0  0  0
 12 13  1  0  0  0  0
 12 34  1  0  0  0  0
 12 35  1  0  0  0  0
 13 14  1  0  0  0  0
 13 36  1  0  0  0  0
 13 37  1  0  0  0  0
 14 19  1  0  0  0  0
 14 15  2  0  0  0  0
 15 16  1  0  0  0  0
 15 38  1  0  0  0  0
 16 17  2  0  0  0  0
 16 39  1  0  0  0  0
 17 18  1  0  0  0  0
 17 40  1  0  0  0  0
 18 19  2  0  0  0  0
 18 41  1  0  0  0  0
 19 42  1  0  0  0  0
M  CHG  1  19   1
M  END
> <s_m_source_file>
AV-unprocessed.smi

> <i_m_source_file_index>
3263

> <i_lp_mmshare_version>
43012

> <i_f3d_flags>
0

> <s_epik_input>
W0NIMl0xW0NIMl1bQ0BASF0oW0NIMl0yKVtDQEBIXShbQ0gyXVtDQEhdMTIpW0NIMl1DKD1PKVtOSF1bQ0gyXVtDSDJdYzNbY0hdW2NIXVtjSF1bY0hdbjM=

> <s_epik_cmdline>
J2VwaWtfcHl0aG9uJywgJy1waCcsICc3LjAnLCAnLXRuJywgJzgnLCAnLW1hJywgJzIwMCcsICctbWV0YWxfYmluZGluZycsICctaW1hZScsICc8aW5maWxlLm1hZT4nLCAnLW9tYWUnLCAnPG91dGZpbGUubWFlPic=

> <r_epik_Ionization_Penalty>
1.83579

> <r_epik_Ionization_Penalty_Charging>
1.83579

> <r_epik_Ionization_Penalty_Neutral>
2.47288e-08

> <r_epik_State_Penalty>
1.95213

> <r_epik_Charging_Adjusted_Penalty>
3.78793

> <i_epik_Tot_Q>
1

> <i_epik_Tot_abs_Q>
1

> <r_epik_Metal_State_Penalty>
1.97847

> <b_epik_Metal_Only>
0

> <s_lp_Force_Field>
OPLS_2005

> <r_lp_Energy>
52.562

> <b_lp_Chiralities_Consistent>
1

> <s_lp_Variant>
AV-unprocessed.smi:3263-6

> <Gold.Version>
5.8.1

> <Gold.Id.Protein>
6NUR|6NUR_protein|mol2

> <Gold.PLP.Fitness>
44.8267

> <Gold.PLP.PLP>
-36.3123

> <Gold.PLP.part.hbond>
-2.0000

> <Gold.PLP.part.metal>
0.0000

> <Gold.PLP.part.buried>
-5.7940

> <Gold.PLP.part.nonpolar>
-28.5903

> <Gold.PLP.part.repulsive>
0.1603

> <Gold.PLP.ligand.clash>
0.0000

> <Gold.PLP.ligand.torsion>
0.2560

> <Gold.PLP.Chemscore.Hbond>
3.0000

> <Gold.PLP.Chemscore.CHOScore>
0.0000

> <Gold.PLP.Chemscore.Metal>
0.0000

> <Gold.Chemscore.Hbonds>
donor molecule, donor type, donor heavy atom, donor atom, acceptor molecule, acceptor atom, score
      L1  H    19    42       P1  8028  2.00
      P1  H  7997  8009       L1     1  1.00

> <Gold.PLP.Chemscore.Internal.Correction>
0.0264

> <Gold.Rescore>
     Score         DG    S(hbond)    S(metal)    S(lipo)     H(rot)  DE(clash)    DE(int)     intcor
     19.16     -19.68       1.82        0.00     103.53       1.56       0.19       0.33       ----

> <Gold.Chemscore.Fitness>
19.1612

> <Gold.Chemscore.DG>
-19.6805

> <Gold.Chemscore.ZeroCoef>
-5.4800

> <Gold.Chemscore.Hbond>
1.8236

> <Gold.Chemscore.Metal>
0.0000

> <Gold.Chemscore.Lipo>
103.5326

> <Gold.Chemscore.Internal_Hbond>
0.0000

> <Gold.Chemscore.DEClash>
0.1901

> <Gold.Chemscore.DEInternal>
0.3292

> <Gold.Chemscore.Rot>
1.5640

> <Gold.Chemscore.Internal.Correction>
   9.000000E+99

> <Gold.Chemscore.Hbonds>
donor molecule, donor type, donor heavy atom, donor atom, acceptor molecule, acceptor atom, score
      L1  H    19    42       P1  8028  0.85
      P1  H  7997  8009       L1     1  0.93

> <Gold.Chemscore.Hbond.Weighted>
-6.0909

> <Gold.Chemscore.Metal.Weighted>
-0.0000

> <Gold.Chemscore.Lipo.Weighted>
-12.1133

> <Gold.Chemscore.Internal_Hbond.Weighted>
0.0000

> <Gold.Chemscore.DEClash.Weighted>
0.1901

> <Gold.Chemscore.DEInternal.Weighted>
0.3292

> <Gold.Chemscore.Rot.Weighted>
4.0038

> <Gold.Chemscore.Internal.Correction.Weighted>
   9.000000E+99

> <Gold.Protein.RotatedTorsions>
[ 6907 6896 6895 6894 ] final   68.26 input  -60.11 | X-H torsion
[ 7974 7965 7964 7962 ] final  -10.93 input  175.53 | X-H torsion
[ 8008 7997 7996 7995 ] final -166.38 input   59.86 | X-H torsion
[ 10167 10162 10161 10158 ] final   42.96 input  -65.29 | X-H torsion
[ 10718 10713 10712 10709 ] final -140.82 input   66.30 | X-H torsion
[ 10763 10752 10751 10750 ] final -127.22 input  -60.55 | X-H torsion
[ 11005 11000 10999 10996 ] final  -82.33 input  -57.11 | X-H torsion

> <Gold.Protein.ActiveResidues>
 VAL166  LYS551  ARG553  GLY616  TRP617  ASP618  TYR619  PRO620  LYS621  CYS622 
 ASP623  PHE694  ASN695  SER759  ASP760  ASP761  ALA762  ILE779  LEU786  VAL792 
 PHE793  MET794  SER795  GLU796  ALA797  LYS798  CYS799  TRP800  GLU811  SER814 

> <Gold.Protein.RotatedAtoms>
  152.4608  134.5188  159.9775 H   0  0  0  0  0  0  0  0  0  0  0  0  # atno 6907 bound_to 6896
  151.5237  133.3456  159.2914 H   0  0  0  0  0  0  0  0  0  0  0  0  # atno 6908 bound_to 6896
  150.8571  134.7942  159.7116 H   0  0  0  0  0  0  0  0  0  0  0  0  # atno 6909 bound_to 6896
  146.2205  140.2836  142.8364 H   0  0  0  0  0  0  0  0  0  0  0  0  # atno 7974 bound_to 7965
  155.8630  140.0981  157.1601 H   0  0  0  0  0  0  0  0  0  0  0  0  # atno 8008 bound_to 7997
  154.3991  140.1361  156.4046 H   0  0  0  0  0  0  0  0  0  0  0  0  # atno 8009 bound_to 7997
  155.7835  140.3458  155.5313 H   0  0  0  0  0  0  0  0  0  0  0  0  # atno 8010 bound_to 7997
  140.3491  144.2373  150.6147 H   0  0  0  0  0  0  0  0  0  0  0  0  # atno 10167 bound_to 10162
  156.3268  130.7564  151.1674 H   0  0  0  0  0  0  0  0  0  0  0  0  # atno 10718 bound_to 10713
  154.8751  135.3969  154.3558 H   0  0  0  0  0  0  0  0  0  0  0  0  # atno 10763 bound_to 10752
  153.4337  135.7025  153.6219 H   0  0  0  0  0  0  0  0  0  0  0  0  # atno 10764 bound_to 10752
  153.4829  135.3765  155.2421 H   0  0  0  0  0  0  0  0  0  0  0  0  # atno 10765 bound_to 10752
  141.1663  133.7239  156.8555 H   0  0  0  0  0  0  0  0  0  0  0  0  # atno 11005 bound_to 11000
  144.9179  140.7834  143.5767 LP  0  0  0  0  0  0  0  0  0  0  0  0  # atno 17320 bound_to 7965
  145.2770  139.1932  143.4811 LP  0  0  0  0  0  0  0  0  0  0  0  0  # atno 17321 bound_to 7965
  140.5236  143.2260  151.8350 LP  0  0  0  0  0  0  0  0  0  0  0  0  # atno 17342 bound_to 10162
  139.4829  144.4807  151.9310 LP  0  0  0  0  0  0  0  0  0  0  0  0  # atno 17343 bound_to 10162
  157.7423  131.0492  150.5037 LP  0  0  0  0  0  0  0  0  0  0  0  0  # atno 17370 bound_to 10713
  156.5197  130.4159  149.6257 LP  0  0  0  0  0  0  0  0  0  0  0  0  # atno 17371 bound_to 10713
  140.1885  134.8982  157.3033 LP  0  0  0  0  0  0  0  0  0  0  0  0  # atno 17394 bound_to 11000
  140.2316  134.3902  155.7519 LP  0  0  0  0  0  0  0  0  0  0  0  0  # atno 17395 bound_to 11000

$$$$
