AV-unprocessed.smi:162|AV-procd|sdf|1376|dock10
  -GOLD-   2262019103D 1   1.00000     0.00000
 Structure written by MMmdl.
 54 57  0  0  0  0  0  0  0  0  1 V2000
  149.7511  141.3170  154.5078 C   0  0  0  0  0  0  0  0  0  0  0  0
  150.5611  141.4440  155.6660 O   0  0  0  0  0  0  0  0  0  0  0  0
  149.8782  141.1777  156.8833 C   0  0  0  0  0  0  0  0  0  0  0  0
  150.6162  141.7709  158.1035 C   0  0  2  0  0  0  0  0  0  0  0  0
  151.0031  143.2435  157.9222 C   0  0  0  0  0  0  0  0  0  0  0  0
  152.2851  143.4216  158.7534 C   0  0  1  0  0  0  0  0  0  0  0  0
  152.1139  144.3178  159.8425 O   0  0  0  0  0  0  0  0  0  0  0  0
  151.9304  145.6664  159.4419 C   0  0  0  0  0  0  0  0  0  0  0  0
  152.5828  142.0182  159.2933 C   0  0  0  0  0  0  0  0  0  0  0  0
  151.8733  141.1019  158.4110 N   0  0  0  0  0  0  0  0  0  0  0  0
  151.7576  139.8191  158.8292 C   0  0  0  0  0  0  0  0  0  0  0  0
  150.5649  139.1706  158.7536 N   0  0  0  0  0  0  0  0  0  0  0  0
  150.4709  137.8944  159.1399 C   0  0  0  0  0  0  0  0  0  0  0  0
  151.4268  137.0931  159.6152 N   0  0  0  0  0  0  0  0  0  0  0  0
  152.6244  137.7415  159.6901 C   0  0  0  0  0  0  0  0  0  0  0  0
  152.8738  139.0928  159.3224 C   0  0  0  0  0  0  0  0  0  0  0  0
  154.2115  139.4041  159.5289 N   0  0  0  0  0  0  0  0  0  0  0  0
  154.7268  138.2953  159.9855 C   0  0  0  0  0  0  0  0  0  0  0  0
  153.8428  137.2482  160.1235 N   0  0  0  0  0  0  0  0  0  0  0  0
  154.1460  135.9062  160.5953 C   0  0  0  0  0  0  0  0  0  0  0  0
  154.2008  135.7621  162.1372 C   0  0  0  0  0  0  0  0  0  0  0  0
  155.5235  136.1178  162.4981 O   0  0  0  0  0  0  0  0  0  0  0  0
  153.2284  136.7154  162.8647 C   0  0  0  0  0  0  0  0  0  0  0  0
  153.2413  136.4929  164.3880 C   0  0  0  0  0  0  0  0  0  0  0  0
  152.9426  135.1331  164.6837 O   0  0  0  0  0  0  0  0  0  0  0  0
  153.9067  134.2279  164.1580 C   0  0  0  0  0  0  0  0  0  0  0  0
  153.9341  134.3203  162.6214 C   0  0  0  0  0  0  0  0  0  0  0  0
  149.9837  141.6861  158.9884 H   0  0  0  0  0  0  0  0  0  0  0  0
  153.1082  143.7416  158.1121 H   0  0  0  0  0  0  0  0  0  0  0  0
  150.3634  141.4725  153.6197 H   0  0  0  0  0  0  0  0  0  0  0  0
  148.9517  142.0573  154.4892 H   0  0  0  0  0  0  0  0  0  0  0  0
  149.3097  140.3222  154.4388 H   0  0  0  0  0  0  0  0  0  0  0  0
  148.8544  141.5476  156.8165 H   0  0  0  0  0  0  0  0  0  0  0  0
  149.8069  140.0951  156.9942 H   0  0  0  0  0  0  0  0  0  0  0  0
  151.2207  143.4580  156.8750 H   0  0  0  0  0  0  0  0  0  0  0  0
  150.1927  143.9042  158.2312 H   0  0  0  0  0  0  0  0  0  0  0  0
  151.8015  146.2937  160.3236 H   0  0  0  0  0  0  0  0  0  0  0  0
  151.0464  145.7861  158.8150 H   0  0  0  0  0  0  0  0  0  0  0  0
  152.7987  146.0345  158.8942 H   0  0  0  0  0  0  0  0  0  0  0  0
  153.6530  141.8095  159.3033 H   0  0  0  0  0  0  0  0  0  0  0  0
  152.2150  141.9327  160.3169 H   0  0  0  0  0  0  0  0  0  0  0  0
  149.4901  137.4509  159.0525 H   0  0  0  0  0  0  0  0  0  0  0  0
  155.7738  138.2111  160.2389 H   0  0  0  0  0  0  0  0  0  0  0  0
  153.3961  135.2295  160.1829 H   0  0  0  0  0  0  0  0  0  0  0  0
  155.0979  135.6034  160.1562 H   0  0  0  0  0  0  0  0  0  0  0  0
  155.6518  135.9102  163.4111 H   0  0  0  0  0  0  0  0  0  0  0  0
  153.4654  137.7549  162.6344 H   0  0  0  0  0  0  0  0  0  0  0  0
  152.2109  136.5469  162.5131 H   0  0  0  0  0  0  0  0  0  0  0  0
  154.2046  136.7689  164.8197 H   0  0  0  0  0  0  0  0  0  0  0  0
  152.4920  137.1266  164.8625 H   0  0  0  0  0  0  0  0  0  0  0  0
  154.8892  134.4363  164.5841 H   0  0  0  0  0  0  0  0  0  0  0  0
  153.6399  133.2165  164.4648 H   0  0  0  0  0  0  0  0  0  0  0  0
  152.9681  133.9775  162.2506 H   0  0  0  0  0  0  0  0  0  0  0  0
  154.6790  133.6346  162.2159 H   0  0  0  0  0  0  0  0  0  0  0  0
  1  2  1  0  0  0  0
  1 30  1  0  0  0  0
  1 31  1  0  0  0  0
  1 32  1  0  0  0  0
  2  3  1  0  0  0  0
  3  4  1  0  0  0  0
  3 33  1  0  0  0  0
  3 34  1  0  0  0  0
  4 28  1  0  0  0  0
  4 10  1  0  0  0  0
  4  5  1  0  0  0  0
  5  6  1  0  0  0  0
  5 35  1  0  0  0  0
  5 36  1  0  0  0  0
  6 29  1  0  0  0  0
  6  7  1  0  0  0  0
  6  9  1  0  0  0  0
  7  8  1  0  0  0  0
  8 37  1  0  0  0  0
  8 38  1  0  0  0  0
  8 39  1  0  0  0  0
  9 10  1  0  0  0  0
  9 40  1  0  0  0  0
  9 41  1  0  0  0  0
 10 11  1  0  0  0  0
 11 16  1  0  0  0  0
 11 12  2  0  0  0  0
 12 13  1  0  0  0  0
 13 14  2  0  0  0  0
 13 42  1  0  0  0  0
 14 15  1  0  0  0  0
 15 19  1  0  0  0  0
 15 16  2  0  0  0  0
 16 17  1  0  0  0  0
 17 18  2  0  0  0  0
 18 19  1  0  0  0  0
 18 43  1  0  0  0  0
 19 20  1  0  0  0  0
 20 21  1  0  0  0  0
 20 44  1  0  0  0  0
 20 45  1  0  0  0  0
 21 27  1  0  0  0  0
 21 22  1  0  0  0  0
 21 23  1  0  0  0  0
 22 46  1  0  0  0  0
 23 24  1  0  0  0  0
 23 47  1  0  0  0  0
 23 48  1  0  0  0  0
 24 25  1  0  0  0  0
 24 49  1  0  0  0  0
 24 50  1  0  0  0  0
 25 26  1  0  0  0  0
 26 27  1  0  0  0  0
 26 51  1  0  0  0  0
 26 52  1  0  0  0  0
 27 53  1  0  0  0  0
 27 54  1  0  0  0  0
M  END
> <s_m_source_file>
AV-unprocessed.smi

> <i_m_source_file_index>
162

> <i_lp_mmshare_version>
43012

> <i_f3d_flags>
0

> <s_epik_input>
W0NIM11PW0NIMl1bQ0BASF0xW0NIMl1bQ0BASF0oT1tDSDNdKVtDSDJdTjFjKG5bY0hdbjIpYyhjMjMpbltjSF1uM1tDSDJdQzQoW09IXSlbQ0gyXVtDSDJdT1tDSDJdW0NIMl00

> <s_epik_cmdline>
J2VwaWtfcHl0aG9uJywgJy1waCcsICc3LjAnLCAnLXRuJywgJzgnLCAnLW1hJywgJzIwMCcsICctbWV0YWxfYmluZGluZycsICctaW1hZScsICc8aW5maWxlLm1hZT4nLCAnLW9tYWUnLCAnPG91dGZpbGUubWFlPic=

> <r_lp_tautomer_probability>
1

> <r_epik_Ionization_Penalty>
0.00660334

> <r_epik_Ionization_Penalty_Charging>
0

> <r_epik_Ionization_Penalty_Neutral>
0.00660334

> <r_epik_State_Penalty>
0.00469459

> <r_epik_Charging_Adjusted_Penalty>
0.00469459

> <i_epik_Tot_Q>
0

> <i_epik_Tot_abs_Q>
0

> <r_epik_Metal_State_Penalty>
-0

> <b_epik_Metal_Only>
0

> <s_lp_Force_Field>
OPLS_2005

> <r_lp_Energy>
45.7705

> <b_lp_Chiralities_Consistent>
1

> <s_lp_Variant>
AV-unprocessed.smi:162-1

> <Gold.Version>
5.8.1

> <Gold.Id.Protein>
6NUR|6NUR_protein|mol2

> <Gold.PLP.Fitness>
49.0268

> <Gold.PLP.PLP>
-45.3277

> <Gold.PLP.part.hbond>
-1.9959

> <Gold.PLP.part.metal>
0.0000

> <Gold.PLP.part.buried>
-6.2405

> <Gold.PLP.part.nonpolar>
-36.8270

> <Gold.PLP.part.repulsive>
0.1928

> <Gold.PLP.ligand.clash>
0.0000

> <Gold.PLP.ligand.torsion>
1.1275

> <Gold.PLP.Chemscore.Hbond>
1.9588

> <Gold.PLP.Chemscore.CHOScore>
0.0000

> <Gold.PLP.Chemscore.Metal>
0.0000

> <Gold.Chemscore.Hbonds>
donor molecule, donor type, donor heavy atom, donor atom, acceptor molecule, acceptor atom, score
      P1  H  6896  6909       L1    14  1.00

> <Gold.PLP.Chemscore.Internal.Correction>
0.0778

> <Gold.Rescore>
     Score         DG    S(hbond)    S(metal)    S(lipo)     H(rot)  DE(clash)    DE(int)     intcor
     14.50     -16.69       1.79        0.00     107.50       2.86       0.10       2.09       ----

> <Gold.Chemscore.Fitness>
14.5025

> <Gold.Chemscore.DG>
-16.6904

> <Gold.Chemscore.ZeroCoef>
-5.4800

> <Gold.Chemscore.Hbond>
1.7861

> <Gold.Chemscore.Metal>
0.0000

> <Gold.Chemscore.Lipo>
107.4987

> <Gold.Chemscore.Internal_Hbond>
0.0000

> <Gold.Chemscore.DEClash>
0.0982

> <Gold.Chemscore.DEInternal>
2.0897

> <Gold.Chemscore.Rot>
2.8642

> <Gold.Chemscore.Internal.Correction>
   9.000000E+99

> <Gold.Chemscore.Hbonds>
donor molecule, donor type, donor heavy atom, donor atom, acceptor molecule, acceptor atom, score
      P1  H  6896  6909       L1    14  0.61
      P1  H  7997  8009       L1    17  0.02

> <Gold.Chemscore.Hbond.Weighted>
-5.9654

> <Gold.Chemscore.Metal.Weighted>
-0.0000

> <Gold.Chemscore.Lipo.Weighted>
-12.5773

> <Gold.Chemscore.Internal_Hbond.Weighted>
0.0000

> <Gold.Chemscore.DEClash.Weighted>
0.0982

> <Gold.Chemscore.DEInternal.Weighted>
2.0897

> <Gold.Chemscore.Rot.Weighted>
7.3324

> <Gold.Chemscore.Internal.Correction.Weighted>
   9.000000E+99

> <Gold.Protein.RotatedTorsions>
[ 6907 6896 6895 6894 ] final  131.05 input  -60.11 | X-H torsion
[ 7974 7965 7964 7962 ] final  161.46 input  175.53 | X-H torsion
[ 8008 7997 7996 7995 ] final  117.54 input   59.86 | X-H torsion
[ 10167 10162 10161 10158 ] final  111.55 input  -65.29 | X-H torsion
[ 10718 10713 10712 10709 ] final -146.85 input   66.30 | X-H torsion
[ 10763 10752 10751 10750 ] final  -83.78 input  -60.55 | X-H torsion
[ 11005 11000 10999 10996 ] final  -53.03 input  -57.11 | X-H torsion

> <Gold.Protein.ActiveResidues>
 VAL166  LYS551  ARG553  GLY616  TRP617  ASP618  TYR619  PRO620  LYS621  CYS622 
 ASP623  PHE694  ASN695  SER759  ASP760  ASP761  ALA762  ILE779  LEU786  VAL792 
 PHE793  MET794  SER795  GLU796  ALA797  LYS798  CYS799  TRP800  GLU811  SER814 

> <Gold.Protein.RotatedAtoms>
  152.3465  133.6129  159.5913 H   0  0  0  0  0  0  0  0  0  0  0  0  # atno 6907 bound_to 6896
  150.7511  133.9640  159.3533 H   0  0  0  0  0  0  0  0  0  0  0  0  # atno 6908 bound_to 6896
  151.7498  135.0836  160.0380 H   0  0  0  0  0  0  0  0  0  0  0  0  # atno 6909 bound_to 6896
  144.7684  139.7902  143.6306 H   0  0  0  0  0  0  0  0  0  0  0  0  # atno 7974 bound_to 7965
  156.2499  140.2894  156.0694 H   0  0  0  0  0  0  0  0  0  0  0  0  # atno 8008 bound_to 7997
  155.1687  140.0401  157.2875 H   0  0  0  0  0  0  0  0  0  0  0  0  # atno 8009 bound_to 7997
  154.6341  140.2506  155.7406 H   0  0  0  0  0  0  0  0  0  0  0  0  # atno 8010 bound_to 7997
  139.6603  144.7129  151.1879 H   0  0  0  0  0  0  0  0  0  0  0  0  # atno 10167 bound_to 10162
  156.4001  130.7929  151.2139 H   0  0  0  0  0  0  0  0  0  0  0  0  # atno 10718 bound_to 10713
  154.5918  135.5544  153.7286 H   0  0  0  0  0  0  0  0  0  0  0  0  # atno 10763 bound_to 10752
  153.0120  135.6345  154.1838 H   0  0  0  0  0  0  0  0  0  0  0  0  # atno 10764 bound_to 10752
  154.1779  135.2888  155.3041 H   0  0  0  0  0  0  0  0  0  0  0  0  # atno 10765 bound_to 10752
  141.0955  133.6625  156.4112 H   0  0  0  0  0  0  0  0  0  0  0  0  # atno 11005 bound_to 11000
  146.1812  139.5005  142.9865 LP  0  0  0  0  0  0  0  0  0  0  0  0  # atno 17320 bound_to 7965
  145.6398  141.0287  143.1818 LP  0  0  0  0  0  0  0  0  0  0  0  0  # atno 17321 bound_to 7965
  140.7577  143.6006  150.8704 LP  0  0  0  0  0  0  0  0  0  0  0  0  # atno 17342 bound_to 10162
  139.9663  143.6107  152.2987 LP  0  0  0  0  0  0  0  0  0  0  0  0  # atno 17343 bound_to 10162
  157.7503  131.0289  150.4070 LP  0  0  0  0  0  0  0  0  0  0  0  0  # atno 17370 bound_to 10713
  156.4348  130.3979  149.6736 LP  0  0  0  0  0  0  0  0  0  0  0  0  # atno 17371 bound_to 10713
  140.5150  134.6359  157.5298 LP  0  0  0  0  0  0  0  0  0  0  0  0  # atno 17394 bound_to 11000
  139.9791  134.7167  155.9893 LP  0  0  0  0  0  0  0  0  0  0  0  0  # atno 17395 bound_to 11000

$$$$
