AV-unprocessed.smi:2197|AV-procd|sdf|8909|dock1
  -GOLD-   2272012123D 1   1.00000     0.00000
 Structure written by MMmdl.
 28 28  0  0  0  0  0  0  0  0  1 V2000
  152.9330  142.8278  159.6148 C   0  0  0  0  0  0  0  0  0  0  0  0
  152.5158  144.1361  158.9349 C   0  0  0  0  0  0  0  0  0  0  0  0
  151.0116  144.1827  158.6209 C   0  0  0  0  0  0  0  0  0  0  0  0
  150.7174  143.5732  157.3293 N   0  0  0  0  0  0  0  0  0  0  0  0
  150.8481  142.2686  157.0441 C   0  0  0  0  0  0  0  0  0  0  0  0
  151.2118  141.4311  157.8711 O   0  0  0  0  0  0  0  0  0  0  0  0
  150.4961  141.8528  155.6083 C   0  0  0  0  0  0  0  0  0  0  0  0
  150.7478  140.4287  155.3433 N   0  0  0  0  0  0  0  0  0  0  0  0
  151.9672  139.8576  155.6792 C   0  0  0  0  0  0  0  0  0  0  0  0
  152.2680  138.5564  155.4552 C   0  0  0  0  0  0  0  0  0  0  0  0
  151.2925  137.6695  154.8304 C   0  0  0  0  0  0  0  0  0  0  0  0
  151.4701  136.4777  154.5882 O   0  0  0  0  0  0  0  0  0  0  0  0
  150.0793  138.2816  154.5049 N   0  0  0  0  0  0  0  0  0  0  0  0
  149.7629  139.6219  154.7322 C   0  0  0  0  0  0  0  0  0  0  0  0
  148.6619  140.0618  154.4032 O   0  0  0  0  0  0  0  0  0  0  0  0
  149.3735  137.7076  154.0669 H   0  0  0  0  0  0  0  0  0  0  0  0
  154.0012  142.8268  159.8324 H   0  0  0  0  0  0  0  0  0  0  0  0
  152.7226  141.9689  158.9771 H   0  0  0  0  0  0  0  0  0  0  0  0
  152.4014  142.6864  160.5561 H   0  0  0  0  0  0  0  0  0  0  0  0
  152.7814  144.9756  159.5783 H   0  0  0  0  0  0  0  0  0  0  0  0
  153.0906  144.2582  158.0158 H   0  0  0  0  0  0  0  0  0  0  0  0
  150.4392  143.6906  159.4094 H   0  0  0  0  0  0  0  0  0  0  0  0
  150.6711  145.2180  158.5907 H   0  0  0  0  0  0  0  0  0  0  0  0
  150.4060  144.1908  156.5937 H   0  0  0  0  0  0  0  0  0  0  0  0
  149.4459  142.0920  155.4351 H   0  0  0  0  0  0  0  0  0  0  0  0
  151.0529  142.4672  154.8973 H   0  0  0  0  0  0  0  0  0  0  0  0
  152.7227  140.4777  156.1404 H   0  0  0  0  0  0  0  0  0  0  0  0
  153.2364  138.1702  155.7388 H   0  0  0  0  0  0  0  0  0  0  0  0
  1  2  1  0  0  0  0
  1 17  1  0  0  0  0
  1 18  1  0  0  0  0
  1 19  1  0  0  0  0
  2  3  1  0  0  0  0
  2 20  1  0  0  0  0
  2 21  1  0  0  0  0
  3  4  1  0  0  0  0
  3 22  1  0  0  0  0
  3 23  1  0  0  0  0
  4  5  1  0  0  0  0
  4 24  1  0  0  0  0
  5  6  2  0  0  0  0
  5  7  1  0  0  0  0
  7  8  1  0  0  0  0
  7 25  1  0  0  0  0
  7 26  1  0  0  0  0
  8 14  1  0  0  0  0
  8  9  1  0  0  0  0
  9 10  2  0  0  0  0
  9 27  1  0  0  0  0
 10 11  1  0  0  0  0
 10 28  1  0  0  0  0
 11 12  2  0  0  0  0
 11 13  1  0  0  0  0
 13 16  1  0  0  0  0
 13 14  1  0  0  0  0
 14 15  2  0  0  0  0
M  END
> <s_m_source_file>
AV-unprocessed.smi

> <i_m_source_file_index>
2197

> <i_lp_mmshare_version>
43012

> <i_f3d_flags>
0

> <s_epik_input>
W0NIM11bQ0gyXVtDSDJdW05IXUMoPU8pW0NIMl1uMVtjSF1bY0hdYyg9TylbbkhdYzE9Tw==

> <s_epik_cmdline>
J2VwaWtfcHl0aG9uJywgJy1waCcsICc3LjAnLCAnLXRuJywgJzgnLCAnLW1hJywgJzIwMCcsICctbWV0YWxfYmluZGluZycsICctaW1hZScsICc8aW5maWxlLm1hZT4nLCAnLW9tYWUnLCAnPG91dGZpbGUubWFlPic=

> <r_lp_tautomer_probability>
0.999537

> <r_epik_Ionization_Penalty>
0.00328917

> <r_epik_Ionization_Penalty_Charging>
0.00328916

> <r_epik_Ionization_Penalty_Neutral>
1.81689e-08

> <r_epik_State_Penalty>
0.00232387

> <r_epik_Charging_Adjusted_Penalty>
0.00561303

> <i_epik_Tot_Q>
0

> <i_epik_Tot_abs_Q>
0

> <r_epik_Metal_State_Penalty>
0.365275

> <b_epik_Metal_Only>
0

> <s_lp_Force_Field>
OPLS_2005

> <r_lp_Energy>
1.80706

> <b_lp_Chiralities_Consistent>
1

> <s_lp_Variant>
AV-unprocessed.smi:2197-1

> <Gold.Version>
5.8.1

> <Gold.Id.Protein>
6NUR|6NUR_protein|mol2

> <Gold.PLP.Fitness>
37.9797

> <Gold.PLP.PLP>
-32.5788

> <Gold.PLP.part.hbond>
-2.0000

> <Gold.PLP.part.metal>
0.0000

> <Gold.PLP.part.buried>
-3.6283

> <Gold.PLP.part.nonpolar>
-27.3806

> <Gold.PLP.part.repulsive>
0.3224

> <Gold.PLP.ligand.clash>
0.0000

> <Gold.PLP.ligand.torsion>
0.3068

> <Gold.PLP.Chemscore.Hbond>
2.0000

> <Gold.PLP.Chemscore.CHOScore>
0.0000

> <Gold.PLP.Chemscore.Metal>
0.0000

> <Gold.Chemscore.Hbonds>
donor molecule, donor type, donor heavy atom, donor atom, acceptor molecule, acceptor atom, score
      L1  H     4    24       P1  8028  0.86
      P1  H 10752 10763       L1    12  1.00

> <Gold.PLP.Chemscore.Internal.Correction>
0.0146

> <Gold.Rescore>
     Score         DG    S(hbond)    S(metal)    S(lipo)     H(rot)  DE(clash)    DE(int)     intcor
     12.47     -14.13       1.98        0.00      62.22       2.05       0.00       1.66       ----

> <Gold.Chemscore.Fitness>
12.4659

> <Gold.Chemscore.DG>
-14.1259

> <Gold.Chemscore.ZeroCoef>
-5.4800

> <Gold.Chemscore.Hbond>
1.9779

> <Gold.Chemscore.Metal>
0.0000

> <Gold.Chemscore.Lipo>
62.2243

> <Gold.Chemscore.Internal_Hbond>
0.0000

> <Gold.Chemscore.DEClash>
0.0029

> <Gold.Chemscore.DEInternal>
1.6571

> <Gold.Chemscore.Rot>
2.0471

> <Gold.Chemscore.Internal.Correction>
   9.000000E+99

> <Gold.Chemscore.Hbonds>
donor molecule, donor type, donor heavy atom, donor atom, acceptor molecule, acceptor atom, score
      L1  H     4    24       P1  8028  0.85
      P1  H 10752 10763       L1    12  1.00

> <Gold.Chemscore.Hbond.Weighted>
-6.6063

> <Gold.Chemscore.Metal.Weighted>
-0.0000

> <Gold.Chemscore.Lipo.Weighted>
-7.2802

> <Gold.Chemscore.Internal_Hbond.Weighted>
0.0000

> <Gold.Chemscore.DEClash.Weighted>
0.0029

> <Gold.Chemscore.DEInternal.Weighted>
1.6571

> <Gold.Chemscore.Rot.Weighted>
5.2406

> <Gold.Chemscore.Internal.Correction.Weighted>
   9.000000E+99

> <Gold.Protein.RotatedTorsions>
[ 6907 6896 6895 6894 ] final   14.96 input  -60.11 | X-H torsion
[ 7974 7965 7964 7962 ] final   -5.76 input  175.53 | X-H torsion
[ 8008 7997 7996 7995 ] final    3.28 input   59.86 | X-H torsion
[ 10167 10162 10161 10158 ] final -169.68 input  -65.29 | X-H torsion
[ 10718 10713 10712 10709 ] final  133.45 input   66.30 | X-H torsion
[ 10763 10752 10751 10750 ] final   41.49 input  -60.55 | X-H torsion
[ 11005 11000 10999 10996 ] final   20.40 input  -57.11 | X-H torsion

> <Gold.Protein.ActiveResidues>
 VAL166  LYS551  ARG553  GLY616  TRP617  ASP618  TYR619  PRO620  LYS621  CYS622 
 ASP623  PHE694  ASN695  SER759  ASP760  ASP761  ALA762  ILE779  LEU786  VAL792 
 PHE793  MET794  SER795  GLU796  ALA797  LYS798  CYS799  TRP800  GLU811  SER814 

> <Gold.Protein.RotatedAtoms>
  151.8105  135.0682  160.0412 H   0  0  0  0  0  0  0  0  0  0  0  0  # atno 6907 bound_to 6896
  152.3024  133.5664  159.5635 H   0  0  0  0  0  0  0  0  0  0  0  0  # atno 6908 bound_to 6896
  150.7279  134.0189  159.3736 H   0  0  0  0  0  0  0  0  0  0  0  0  # atno 6909 bound_to 6896
  146.2346  140.2070  142.8334 H   0  0  0  0  0  0  0  0  0  0  0  0  # atno 7974 bound_to 7965
  154.7017  140.2674  155.6713 H   0  0  0  0  0  0  0  0  0  0  0  0  # atno 8008 bound_to 7997
  156.2767  140.2771  156.1554 H   0  0  0  0  0  0  0  0  0  0  0  0  # atno 8009 bound_to 7997
  155.0755  140.0372  157.2612 H   0  0  0  0  0  0  0  0  0  0  0  0  # atno 8010 bound_to 7997
  139.5908  144.1218  152.1631 H   0  0  0  0  0  0  0  0  0  0  0  0  # atno 10167 bound_to 10162
  157.4771  131.1083  150.9729 H   0  0  0  0  0  0  0  0  0  0  0  0  # atno 10718 bound_to 10713
  152.9907  135.6160  154.2796 H   0  0  0  0  0  0  0  0  0  0  0  0  # atno 10763 bound_to 10752
  154.2526  135.2785  155.2812 H   0  0  0  0  0  0  0  0  0  0  0  0  # atno 10764 bound_to 10752
  154.5275  135.5797  153.6788 H   0  0  0  0  0  0  0  0  0  0  0  0  # atno 10765 bound_to 10752
  140.4030  134.1698  155.7664 H   0  0  0  0  0  0  0  0  0  0  0  0  # atno 11005 bound_to 11000
  144.9737  140.8393  143.5440 LP  0  0  0  0  0  0  0  0  0  0  0  0  # atno 17320 bound_to 7965
  145.2054  139.2231  143.5171 LP  0  0  0  0  0  0  0  0  0  0  0  0  # atno 17321 bound_to 7965
  140.0792  144.5715  150.7135 LP  0  0  0  0  0  0  0  0  0  0  0  0  # atno 17342 bound_to 10162
  140.7171  143.2554  151.4399 LP  0  0  0  0  0  0  0  0  0  0  0  0  # atno 17343 bound_to 10162
  157.0474  130.5773  149.5365 LP  0  0  0  0  0  0  0  0  0  0  0  0  # atno 17370 bound_to 10713
  156.0102  130.5193  150.7964 LP  0  0  0  0  0  0  0  0  0  0  0  0  # atno 17371 bound_to 10713
  141.1850  133.8333  157.1121 LP  0  0  0  0  0  0  0  0  0  0  0  0  # atno 17394 bound_to 11000
  140.0323  134.9895  157.0803 LP  0  0  0  0  0  0  0  0  0  0  0  0  # atno 17395 bound_to 11000

$$$$
