AV-unprocessed.smi:2505|AV-procd|sdf|9856|dock8
  -GOLD-   2272013483D 1   1.00000     0.00000
 Structure written by MMmdl.
 48 52  0  0  0  0  0  0  0  0  1 V2000
  141.6161  136.7883  154.0566 O   0  0  0  0  0  0  0  0  0  0  0  0
  142.2683  137.6954  153.5461 C   0  0  0  0  0  0  0  0  0  0  0  0
  143.3076  137.5237  152.7072 N   0  0  0  0  0  0  0  0  0  0  0  0
  143.8829  136.3221  152.2145 C   0  0  0  0  0  0  0  0  0  0  0  0
  145.0647  136.4106  151.4495 C   0  0  0  0  0  0  0  0  0  0  0  0
  145.6706  135.3194  150.9359 N   0  0  0  0  0  0  0  0  0  0  0  0
  145.1027  134.1384  151.1934 C   0  0  0  0  0  0  0  0  0  0  0  0
  145.7549  132.9340  150.5885 C   0  0  0  0  0  0  0  0  0  0  0  0
  145.0748  132.1565  149.4800 C   0  0  0  0  0  0  0  0  0  0  0  0
  145.2075  131.5451  150.8470 C   0  0  0  0  0  0  0  0  0  0  0  0
  143.9820  133.9289  151.8893 N   0  0  0  0  0  0  0  0  0  0  0  0
  143.3685  135.0155  152.4069 C   0  0  0  0  0  0  0  0  0  0  0  0
  141.9903  138.9845  153.8076 N   0  0  0  0  0  0  0  0  0  0  0  0
  140.9318  139.5099  154.6725 C   0  0  1  0  0  0  0  0  0  0  0  0
  140.3901  140.8575  154.1679 C   0  0  2  0  0  0  0  0  0  0  0  0
  140.5936  142.1014  154.9900 C   0  0  0  0  0  0  0  0  0  0  0  0
  139.2822  142.2107  155.7725 C   0  0  0  0  0  0  0  0  0  0  0  0
  138.7526  140.8870  155.7712 O   0  0  0  0  0  0  0  0  0  0  0  0
  139.0002  140.3268  154.4838 C   0  0  2  0  0  0  0  0  0  0  0  0
  139.5351  138.8793  154.4481 C   0  0  0  0  0  0  0  0  0  0  0  0
  139.2516  138.1064  153.1569 C   0  0  0  0  0  0  0  0  0  0  0  0
  137.9120  137.3947  153.3563 C   0  0  0  0  0  0  0  0  0  0  0  0
  137.7569  137.2319  154.8719 C   0  0  0  0  0  0  0  0  0  0  0  0
  138.9831  137.9106  155.4912 C   0  0  0  0  0  0  0  0  0  0  0  0
  143.7535  138.3727  152.3913 H   0  0  0  0  0  0  0  0  0  0  0  0
  145.5278  137.3648  151.2442 H   0  0  0  0  0  0  0  0  0  0  0  0
  146.8355  133.0530  150.5373 H   0  0  0  0  0  0  0  0  0  0  0  0
  144.0824  132.4777  149.1693 H   0  0  0  0  0  0  0  0  0  0  0  0
  145.7052  131.7591  148.6874 H   0  0  0  0  0  0  0  0  0  0  0  0
  145.9272  130.7385  150.9709 H   0  0  0  0  0  0  0  0  0  0  0  0
  144.3028  131.4584  151.4457 H   0  0  0  0  0  0  0  0  0  0  0  0
  142.4662  134.8111  152.9603 H   0  0  0  0  0  0  0  0  0  0  0  0
  142.5808  139.6735  153.3643 H   0  0  0  0  0  0  0  0  0  0  0  0
  141.1980  139.5578  155.7309 H   0  0  0  0  0  0  0  0  0  0  0  0
  140.5294  140.9921  153.0936 H   0  0  0  0  0  0  0  0  0  0  0  0
  141.4406  141.9863  155.6669 H   0  0  0  0  0  0  0  0  0  0  0  0
  140.7715  142.9863  154.3785 H   0  0  0  0  0  0  0  0  0  0  0  0
  139.4257  142.5852  156.7861 H   0  0  0  0  0  0  0  0  0  0  0  0
  138.5837  142.8729  155.2586 H   0  0  0  0  0  0  0  0  0  0  0  0
  138.2433  140.5832  153.7409 H   0  0  0  0  0  0  0  0  0  0  0  0
  139.2365  138.7495  152.2763 H   0  0  0  0  0  0  0  0  0  0  0  0
  140.0209  137.3525  152.9852 H   0  0  0  0  0  0  0  0  0  0  0  0
  137.0996  138.0089  152.9663 H   0  0  0  0  0  0  0  0  0  0  0  0
  137.8820  136.4383  152.8333 H   0  0  0  0  0  0  0  0  0  0  0  0
  136.8416  137.7223  155.2055 H   0  0  0  0  0  0  0  0  0  0  0  0
  137.6936  136.1835  155.1655 H   0  0  0  0  0  0  0  0  0  0  0  0
  139.7306  137.1525  155.7261 H   0  0  0  0  0  0  0  0  0  0  0  0
  138.7326  138.4000  156.4325 H   0  0  0  0  0  0  0  0  0  0  0  0
  1  2  2  0  0  0  0
  2  3  1  0  0  0  0
  2 13  1  0  0  0  0
  3  4  1  0  0  0  0
  3 25  1  0  0  0  0
  4 12  1  0  0  0  0
  4  5  2  0  0  0  0
  5  6  1  0  0  0  0
  5 26  1  0  0  0  0
  6  7  2  0  0  0  0
  7  8  1  0  0  0  0
  7 11  1  0  0  0  0
  8 10  1  0  0  0  0
  8  9  1  0  0  0  0
  8 27  1  0  0  0  0
  9 10  1  0  0  0  0
  9 28  1  0  0  0  0
  9 29  1  0  0  0  0
 10 30  1  0  0  0  0
 10 31  1  0  0  0  0
 11 12  2  0  0  0  0
 12 32  1  0  0  0  0
 13 14  1  0  0  0  0
 13 33  1  0  0  0  0
 14 20  1  0  0  0  0
 14 15  1  0  0  0  0
 14 34  1  0  0  0  0
 15 19  1  0  0  0  0
 15 16  1  0  0  0  0
 15 35  1  0  0  0  0
 16 17  1  0  0  0  0
 16 36  1  0  0  0  0
 16 37  1  0  0  0  0
 17 18  1  0  0  0  0
 17 38  1  0  0  0  0
 17 39  1  0  0  0  0
 18 19  1  0  0  0  0
 19 20  1  0  0  0  0
 19 40  1  0  0  0  0
 20 24  1  0  0  0  0
 20 21  1  0  0  0  0
 21 22  1  0  0  0  0
 21 41  1  0  0  0  0
 21 42  1  0  0  0  0
 22 23  1  0  0  0  0
 22 43  1  0  0  0  0
 22 44  1  0  0  0  0
 23 24  1  0  0  0  0
 23 45  1  0  0  0  0
 23 46  1  0  0  0  0
 24 47  1  0  0  0  0
 24 48  1  0  0  0  0
M  END
> <s_m_source_file>
AV-unprocessed.smi

> <i_m_source_file_index>
2505

> <i_lp_mmshare_version>
43012

> <i_f3d_flags>
0

> <s_epik_input>
W0NIMl0xW0NIMl1bQ0hdMWMobltjSF0yKW5bY0hdYzJbTkhdQyg9TylbTkhdW0NAQEhdM1tDQEBIXShbQ0gyXVtDSDJdTzQpW0NASF00QzM1W0NIMl1bQ0gyXVtDSDJdW0NIMl01

> <s_epik_cmdline>
J2VwaWtfcHl0aG9uJywgJy1waCcsICc3LjAnLCAnLXRuJywgJzgnLCAnLW1hJywgJzIwMCcsICctbWV0YWxfYmluZGluZycsICctaW1hZScsICc8aW5maWxlLm1hZT4nLCAnLW9tYWUnLCAnPG91dGZpbGUubWFlPic=

> <r_lp_tautomer_probability>
1

> <r_epik_Ionization_Penalty>
2.6075e-05

> <r_epik_Ionization_Penalty_Charging>
0

> <r_epik_Ionization_Penalty_Neutral>
2.6075e-05

> <r_epik_State_Penalty>
-0

> <r_epik_Charging_Adjusted_Penalty>
0

> <i_epik_Tot_Q>
0

> <i_epik_Tot_abs_Q>
0

> <r_epik_Metal_State_Penalty>
-0

> <b_epik_Metal_Only>
0

> <s_lp_Force_Field>
OPLS_2005

> <r_lp_Energy>
62.9039

> <b_lp_Chiralities_Consistent>
1

> <s_lp_Variant>
AV-unprocessed.smi:2505-4

> <Gold.Version>
5.8.1

> <Gold.Id.Protein>
6NUR|6NUR_protein|mol2

> <Gold.PLP.Fitness>
42.4746

> <Gold.PLP.PLP>
-35.7741

> <Gold.PLP.part.hbond>
-2.7039

> <Gold.PLP.part.metal>
0.0000

> <Gold.PLP.part.buried>
-5.8593

> <Gold.PLP.part.nonpolar>
-28.0424

> <Gold.PLP.part.repulsive>
0.4380

> <Gold.PLP.ligand.clash>
0.0000

> <Gold.PLP.ligand.torsion>
0.3359

> <Gold.PLP.Chemscore.Hbond>
1.8564

> <Gold.PLP.Chemscore.CHOScore>
0.5003

> <Gold.PLP.Chemscore.Metal>
0.0000

> <Gold.Chemscore.Hbonds>
donor molecule, donor type, donor heavy atom, donor atom, acceptor molecule, acceptor atom, score
      L1  H     3    25       P1 10175  0.82
      L1  H    13    33       P1 10175  1.00
      L1  C     5    26       P1 10171  0.50

> <Gold.PLP.Chemscore.Internal.Correction>
0.3019

> <Gold.Rescore>
     Score         DG    S(hbond)    S(metal)    S(lipo)     H(rot)  DE(clash)    DE(int)     intcor
     16.78     -19.84       1.88        0.00      94.62       1.17       1.72       1.34       ----

> <Gold.Chemscore.Fitness>
16.7786

> <Gold.Chemscore.DG>
-19.8370

> <Gold.Chemscore.ZeroCoef>
-5.4800

> <Gold.Chemscore.Hbond>
1.8841

> <Gold.Chemscore.Metal>
0.0000

> <Gold.Chemscore.Lipo>
94.6186

> <Gold.Chemscore.Internal_Hbond>
0.0000

> <Gold.Chemscore.DEClash>
1.7230

> <Gold.Chemscore.DEInternal>
1.3354

> <Gold.Chemscore.Rot>
1.1744

> <Gold.Chemscore.Internal.Correction>
   9.000000E+99

> <Gold.Chemscore.Hbonds>
donor molecule, donor type, donor heavy atom, donor atom, acceptor molecule, acceptor atom, score
      L1  H     3    25       P1 10175  0.77
      L1  H    13    33       P1 10175  0.95

> <Gold.Chemscore.Hbond.Weighted>
-6.2930

> <Gold.Chemscore.Metal.Weighted>
-0.0000

> <Gold.Chemscore.Lipo.Weighted>
-11.0704

> <Gold.Chemscore.Internal_Hbond.Weighted>
0.0000

> <Gold.Chemscore.DEClash.Weighted>
1.7230

> <Gold.Chemscore.DEInternal.Weighted>
1.3354

> <Gold.Chemscore.Rot.Weighted>
3.0064

> <Gold.Chemscore.Internal.Correction.Weighted>
   9.000000E+99

> <Gold.Protein.RotatedTorsions>
[ 6907 6896 6895 6894 ] final -167.27 input  -60.11 | X-H torsion
[ 7974 7965 7964 7962 ] final -103.12 input  175.53 | X-H torsion
[ 8008 7997 7996 7995 ] final  177.71 input   59.86 | X-H torsion
[ 10167 10162 10161 10158 ] final  106.46 input  -65.29 | X-H torsion
[ 10718 10713 10712 10709 ] final  144.67 input   66.30 | X-H torsion
[ 10763 10752 10751 10750 ] final -160.62 input  -60.55 | X-H torsion
[ 11005 11000 10999 10996 ] final -121.46 input  -57.11 | X-H torsion

> <Gold.Protein.ActiveResidues>
 VAL166  LYS551  ARG553  GLY616  TRP617  ASP618  TYR619  PRO620  LYS621  CYS622 
 ASP623  PHE694  ASN695  SER759  ASP760  ASP761  ALA762  ILE779  LEU786  VAL792 
 PHE793  MET794  SER795  GLU796  ALA797  LYS798  CYS799  TRP800  GLU811  SER814 

> <Gold.Protein.RotatedAtoms>
  151.4568  133.3603  159.2803 H   0  0  0  0  0  0  0  0  0  0  0  0  # atno 6907 bound_to 6896
  150.9053  134.8469  159.7399 H   0  0  0  0  0  0  0  0  0  0  0  0  # atno 6908 bound_to 6896
  152.4902  134.4492  159.9621 H   0  0  0  0  0  0  0  0  0  0  0  0  # atno 6909 bound_to 6896
  145.2600  140.9266  143.3046 H   0  0  0  0  0  0  0  0  0  0  0  0  # atno 7974 bound_to 7965
  156.0626  140.1351  156.9923 H   0  0  0  0  0  0  0  0  0  0  0  0  # atno 8008 bound_to 7997
  154.4490  140.0988  156.6611 H   0  0  0  0  0  0  0  0  0  0  0  0  # atno 8009 bound_to 7997
  155.5353  140.3459  155.4437 H   0  0  0  0  0  0  0  0  0  0  0  0  # atno 8010 bound_to 7997
  139.7008  144.7094  151.1189 H   0  0  0  0  0  0  0  0  0  0  0  0  # atno 10167 bound_to 10162
  157.3544  131.0955  151.0971 H   0  0  0  0  0  0  0  0  0  0  0  0  # atno 10718 bound_to 10713
  154.7374  135.3060  154.8787 H   0  0  0  0  0  0  0  0  0  0  0  0  # atno 10763 bound_to 10752
  153.9612  135.6752  153.4749 H   0  0  0  0  0  0  0  0  0  0  0  0  # atno 10764 bound_to 10752
  153.0976  135.4928  154.8730 H   0  0  0  0  0  0  0  0  0  0  0  0  # atno 10765 bound_to 10752
  141.0068  134.0322  157.3466 H   0  0  0  0  0  0  0  0  0  0  0  0  # atno 11005 bound_to 11000
  144.9427  139.4171  143.6441 LP  0  0  0  0  0  0  0  0  0  0  0  0  # atno 17320 bound_to 7965
  146.3278  139.8395  142.8893 LP  0  0  0  0  0  0  0  0  0  0  0  0  # atno 17321 bound_to 7965
  140.7709  143.5427  150.9294 LP  0  0  0  0  0  0  0  0  0  0  0  0  # atno 17342 bound_to 10162
  139.9108  143.6722  152.3115 LP  0  0  0  0  0  0  0  0  0  0  0  0  # atno 17343 bound_to 10162
  157.2134  130.6448  149.5783 LP  0  0  0  0  0  0  0  0  0  0  0  0  # atno 17370 bound_to 10713
  155.9727  130.4652  150.6246 LP  0  0  0  0  0  0  0  0  0  0  0  0  # atno 17371 bound_to 10713
  139.9068  135.0181  156.7520 LP  0  0  0  0  0  0  0  0  0  0  0  0  # atno 17394 bound_to 11000
  140.6799  133.9484  155.7904 LP  0  0  0  0  0  0  0  0  0  0  0  0  # atno 17395 bound_to 11000

$$$$
