AV-unprocessed.smi:2832|AV-procd|sdf|10912|dock3
  -GOLD-   2272015363D 1   1.00000     0.00000
 Structure written by MMmdl.
 33 33  0  0  0  0  0  0  0  0  2 V2000
  155.8181  138.0590  159.1687 C   0  0  0  0  0  0  0  0  0  0  0  0
  155.1037  136.9588  158.3769 C   0  0  0  0  0  0  0  0  0  0  0  0
  153.5972  136.8780  158.7146 C   0  0  0  0  0  0  0  0  0  0  0  0
  152.6906  138.0548  158.2306 C   0  0  1  0  0  0  0  0  0  0  0  0
  151.2524  137.8332  158.7526 C   0  0  0  0  0  0  0  0  0  0  0  0
  153.1122  139.3931  158.6815 N   0  0  0  0  0  0  0  0  0  0  0  0
  152.5104  140.5929  158.5830 C   0  0  0  0  0  0  0  0  0  0  0  0
  151.4739  140.8080  157.9561 O   0  0  0  0  0  0  0  0  0  0  0  0
  153.2069  141.7494  159.3020 C   0  0  0  0  0  0  0  0  0  0  0  0
  152.5061  143.0043  159.0893 N   0  0  0  0  0  0  0  0  0  0  0  0
  152.2846  144.0263  159.9894 C   0  0  0  0  0  0  0  0  0  0  0  0
  151.5794  144.9970  159.3374 C   0  0  0  0  0  0  0  0  0  0  0  0
  151.4172  144.4723  158.0247 C   0  0  0  0  0  0  0  0  0  0  0  0
  151.9748  143.2815  157.8783 N   0  0  0  0  0  0  0  0  0  0  0  0
  152.7030  138.0575  156.6810 C   0  0  0  0  0  0  0  0  0  0  0  0
  153.0347  139.1146  156.0990 O   0  0  0  0  0  0  0  0  0  0  0  0
  152.3682  137.0051  156.0904 O   0  5  0  0  0  0  0  0  0  0  0  0
  156.8806  138.0833  158.9263 H   0  0  0  0  0  0  0  0  0  0  0  0
  155.7250  137.8949  160.2426 H   0  0  0  0  0  0  0  0  0  0  0  0
  155.4019  139.0405  158.9402 H   0  0  0  0  0  0  0  0  0  0  0  0
  155.2520  137.1404  157.3134 H   0  0  0  0  0  0  0  0  0  0  0  0
  155.5893  136.0072  158.5928 H   0  0  0  0  0  0  0  0  0  0  0  0
  153.2145  135.9488  158.2887 H   0  0  0  0  0  0  0  0  0  0  0  0
  153.4773  136.7450  159.7896 H   0  0  0  0  0  0  0  0  0  0  0  0
  150.8649  136.8514  158.4776 H   0  0  0  0  0  0  0  0  0  0  0  0
  150.5629  138.5830  158.3616 H   0  0  0  0  0  0  0  0  0  0  0  0
  151.2175  137.8967  159.8407 H   0  0  0  0  0  0  0  0  0  0  0  0
  153.9667  139.3857  159.2202 H   0  0  0  0  0  0  0  0  0  0  0  0
  153.2499  141.5528  160.3740 H   0  0  0  0  0  0  0  0  0  0  0  0
  154.2360  141.8357  158.9489 H   0  0  0  0  0  0  0  0  0  0  0  0
  152.6406  143.9746  161.0078 H   0  0  0  0  0  0  0  0  0  0  0  0
  151.2314  145.9377  159.7373 H   0  0  0  0  0  0  0  0  0  0  0  0
  150.9150  144.9184  157.1789 H   0  0  0  0  0  0  0  0  0  0  0  0
  1  2  1  0  0  0  0
  1 18  1  0  0  0  0
  1 19  1  0  0  0  0
  1 20  1  0  0  0  0
  2  3  1  0  0  0  0
  2 21  1  0  0  0  0
  2 22  1  0  0  0  0
  3  4  1  0  0  0  0
  3 23  1  0  0  0  0
  3 24  1  0  0  0  0
  4  5  1  0  0  0  0
  4  6  1  0  0  0  0
  4 15  1  0  0  0  0
  5 25  1  0  0  0  0
  5 26  1  0  0  0  0
  5 27  1  0  0  0  0
  6  7  1  0  0  0  0
  6 28  1  0  0  0  0
  7  8  2  0  0  0  0
  7  9  1  0  0  0  0
  9 10  1  0  0  0  0
  9 29  1  0  0  0  0
  9 30  1  0  0  0  0
 10 14  1  0  0  0  0
 10 11  1  0  0  0  0
 11 12  2  0  0  0  0
 11 31  1  0  0  0  0
 12 13  1  0  0  0  0
 12 32  1  0  0  0  0
 13 14  2  0  0  0  0
 13 33  1  0  0  0  0
 15 16  2  0  0  0  0
 15 17  1  0  0  0  0
M  CHG  1  17  -1
M  END
> <s_m_source_file>
AV-unprocessed.smi

> <i_m_source_file_index>
2832

> <i_lp_mmshare_version>
43012

> <i_f3d_flags>
0

> <s_epik_input>
W0NIM11bQ0gyXVtDSDJdW0NAXShbQ0gzXSkoQyg9TylbT0hdKVtOSF1DKD1PKVtDSDJdbjFbY0hdW2NIXVtjSF1uMQ==

> <s_epik_cmdline>
J2VwaWtfcHl0aG9uJywgJy1waCcsICc3LjAnLCAnLXRuJywgJzgnLCAnLW1hJywgJzIwMCcsICctbWV0YWxfYmluZGluZycsICctaW1hZScsICc8aW5maWxlLm1hZT4nLCAnLW9tYWUnLCAnPG91dGZpbGUubWFlPic=

> <r_lp_tautomer_probability>
1

> <r_epik_Ionization_Penalty>
0.000287256

> <r_epik_Ionization_Penalty_Charging>
0.00026921

> <r_epik_Ionization_Penalty_Neutral>
1.80463e-05

> <r_epik_State_Penalty>
-0

> <r_epik_Charging_Adjusted_Penalty>
0.00026921

> <i_epik_Tot_Q>
-1

> <i_epik_Tot_abs_Q>
1

> <r_epik_Metal_State_Penalty>
-0

> <b_epik_Metal_Only>
0

> <s_lp_Force_Field>
OPLS_2005

> <r_lp_Energy>
4.0175

> <b_lp_Chiralities_Consistent>
1

> <s_lp_Variant>
AV-unprocessed.smi:2832-1

> <Gold.Version>
5.8.1

> <Gold.Id.Protein>
6NUR|6NUR_protein|mol2

> <Gold.PLP.Fitness>
42.9956

> <Gold.PLP.PLP>
-29.0364

> <Gold.PLP.part.hbond>
-2.0000

> <Gold.PLP.part.metal>
0.0000

> <Gold.PLP.part.buried>
-5.0880

> <Gold.PLP.part.nonpolar>
-22.5296

> <Gold.PLP.part.repulsive>
0.1477

> <Gold.PLP.ligand.clash>
0.0000

> <Gold.PLP.ligand.torsion>
0.4777

> <Gold.PLP.Chemscore.Hbond>
3.9520

> <Gold.PLP.Chemscore.CHOScore>
1.0000

> <Gold.PLP.Chemscore.Metal>
0.0000

> <Gold.Chemscore.Hbonds>
donor molecule, donor type, donor heavy atom, donor atom, acceptor molecule, acceptor atom, score
      P1  H  7997  8008       L1    16  2.00
      P1  H 10752 10765       L1    17  1.89
      L1  C    13    33       P1  8028  1.00

> <Gold.PLP.Chemscore.Internal.Correction>
0.0586

> <Gold.Rescore>
     Score         DG    S(hbond)    S(metal)    S(lipo)     H(rot)  DE(clash)    DE(int)     intcor
      8.61     -13.20       1.94        0.00      64.60       2.47       0.00       4.59       ----

> <Gold.Chemscore.Fitness>
8.6064

> <Gold.Chemscore.DG>
-13.1976

> <Gold.Chemscore.ZeroCoef>
-5.4800

> <Gold.Chemscore.Hbond>
1.9427

> <Gold.Chemscore.Metal>
0.0000

> <Gold.Chemscore.Lipo>
64.6042

> <Gold.Chemscore.Internal_Hbond>
0.0000

> <Gold.Chemscore.DEClash>
0.0000

> <Gold.Chemscore.DEInternal>
4.5911

> <Gold.Chemscore.Rot>
2.4726

> <Gold.Chemscore.Internal.Correction>
   9.000000E+99

> <Gold.Chemscore.Hbonds>
donor molecule, donor type, donor heavy atom, donor atom, acceptor molecule, acceptor atom, score
      P1  H  7997  8008       L1    16  0.98
      P1  H 10752 10765       L1    17  0.88

> <Gold.Chemscore.Hbond.Weighted>
-6.4886

> <Gold.Chemscore.Metal.Weighted>
-0.0000

> <Gold.Chemscore.Lipo.Weighted>
-7.5587

> <Gold.Chemscore.Internal_Hbond.Weighted>
0.0000

> <Gold.Chemscore.DEClash.Weighted>
0.0000

> <Gold.Chemscore.DEInternal.Weighted>
4.5911

> <Gold.Chemscore.Rot.Weighted>
6.3297

> <Gold.Chemscore.Internal.Correction.Weighted>
   9.000000E+99

> <Gold.Protein.RotatedTorsions>
[ 6907 6896 6895 6894 ] final -169.79 input  -60.11 | X-H torsion
[ 7974 7965 7964 7962 ] final  131.91 input  175.53 | X-H torsion
[ 8008 7997 7996 7995 ] final  -27.37 input   59.86 | X-H torsion
[ 10167 10162 10161 10158 ] final  171.95 input  -65.29 | X-H torsion
[ 10718 10713 10712 10709 ] final   40.15 input   66.30 | X-H torsion
[ 10763 10752 10751 10750 ] final -151.01 input  -60.55 | X-H torsion
[ 11005 11000 10999 10996 ] final -152.01 input  -57.11 | X-H torsion

> <Gold.Protein.ActiveResidues>
 VAL166  LYS551  ARG553  GLY616  TRP617  ASP618  TYR619  PRO620  LYS621  CYS622 
 ASP623  PHE694  ASN695  SER759  ASP760  ASP761  ALA762  ILE779  LEU786  VAL792 
 PHE793  MET794  SER795  GLU796  ALA797  LYS798  CYS799  TRP800  GLU811  SER814 

> <Gold.Protein.RotatedAtoms>
  151.4973  133.3512  159.2862 H   0  0  0  0  0  0  0  0  0  0  0  0  # atno 6907 bound_to 6896
  150.8796  134.8186  159.7226 H   0  0  0  0  0  0  0  0  0  0  0  0  # atno 6908 bound_to 6896
  152.4753  134.4869  159.9735 H   0  0  0  0  0  0  0  0  0  0  0  0  # atno 6909 bound_to 6896
  145.0023  139.4300  143.5286 H   0  0  0  0  0  0  0  0  0  0  0  0  # atno 7974 bound_to 7965
  154.4381  140.1874  156.0921 H   0  0  0  0  0  0  0  0  0  0  0  0  # atno 8008 bound_to 7997
  156.0358  140.3325  155.7163 H   0  0  0  0  0  0  0  0  0  0  0  0  # atno 8009 bound_to 7997
  155.5773  140.0618  157.2783 H   0  0  0  0  0  0  0  0  0  0  0  0  # atno 8010 bound_to 7997
  139.5062  144.3428  152.0001 H   0  0  0  0  0  0  0  0  0  0  0  0  # atno 10167 bound_to 10162
  157.3789  130.7742  149.7177 H   0  0  0  0  0  0  0  0  0  0  0  0  # atno 10718 bound_to 10713
  154.8084  135.3270  154.7370 H   0  0  0  0  0  0  0  0  0  0  0  0  # atno 10763 bound_to 10752
  153.8024  135.6902  153.4858 H   0  0  0  0  0  0  0  0  0  0  0  0  # atno 10764 bound_to 10752
  153.1845  135.4574  155.0016 H   0  0  0  0  0  0  0  0  0  0  0  0  # atno 10765 bound_to 10752
  140.7235  134.3701  157.5179 H   0  0  0  0  0  0  0  0  0  0  0  0  # atno 11005 bound_to 11000
  146.3454  139.9419  142.8740 LP  0  0  0  0  0  0  0  0  0  0  0  0  # atno 17320 bound_to 7965
  145.2136  140.9906  143.4086 LP  0  0  0  0  0  0  0  0  0  0  0  0  # atno 17321 bound_to 7965
  140.2866  144.3801  150.6102 LP  0  0  0  0  0  0  0  0  0  0  0  0  # atno 17342 bound_to 10162
  140.5978  143.2167  151.7130 LP  0  0  0  0  0  0  0  0  0  0  0  0  # atno 17343 bound_to 10162
  155.9771  130.4067  150.3733 LP  0  0  0  0  0  0  0  0  0  0  0  0  # atno 17370 bound_to 10713
  157.1834  131.0398  151.2737 LP  0  0  0  0  0  0  0  0  0  0  0  0  # atno 17371 bound_to 10713
  139.8842  134.8971  156.2715 LP  0  0  0  0  0  0  0  0  0  0  0  0  # atno 17394 bound_to 11000
  140.9983  133.7167  156.0920 LP  0  0  0  0  0  0  0  0  0  0  0  0  # atno 17395 bound_to 11000

$$$$
