AV-unprocessed.smi:2739|AV-procd|sdf|10553|dock5
  -GOLD-   2272015 03D 1   1.00000     0.00000
 Structure written by MMmdl.
 35 35  0  0  0  0  0  0  0  0  1 V2000
  152.5115  143.2175  160.3716 C   0  0  0  0  0  0  0  0  0  0  0  0
  151.5343  144.4011  160.3277 C   0  0  0  0  0  0  0  0  0  0  0  0
  151.1520  144.8353  158.9004 C   0  0  1  0  0  0  0  0  0  0  0  0
  152.3531  144.7558  157.9447 C   0  0  0  0  0  0  0  0  0  0  0  0
  150.0614  144.0050  158.3962 N   0  0  0  0  0  0  0  0  0  0  0  0
  150.1481  142.6990  158.0964 C   0  0  0  0  0  0  0  0  0  0  0  0
  151.1873  142.0470  158.1928 O   0  0  0  0  0  0  0  0  0  0  0  0
  148.8630  142.0232  157.6146 C   0  0  0  0  0  0  0  0  0  0  0  0
  149.0508  141.4002  156.3162 N   0  0  0  0  0  0  0  0  0  0  0  0
  148.4684  141.7338  155.1122 C   0  0  0  0  0  0  0  0  0  0  0  0
  148.9355  140.8543  154.1785 C   0  0  0  0  0  0  0  0  0  0  0  0
  149.8145  140.0047  154.9116 C   0  0  0  0  0  0  0  0  0  0  0  0
  150.6171  138.8294  154.4175 C   0  0  1  0  0  0  0  0  0  0  0  0
  150.2796  137.5523  155.1991 C   0  0  0  0  0  0  0  0  0  0  0  0
  150.4029  138.5774  153.0440 O   0  0  0  0  0  0  0  0  0  0  0  0
  149.8796  140.3412  156.1918 N   0  0  0  0  0  0  0  0  0  0  0  0
  152.7150  142.9228  161.4012 H   0  0  0  0  0  0  0  0  0  0  0  0
  153.4657  143.4657  159.9064 H   0  0  0  0  0  0  0  0  0  0  0  0
  152.1012  142.3504  159.8532 H   0  0  0  0  0  0  0  0  0  0  0  0
  150.6303  144.1242  160.8715 H   0  0  0  0  0  0  0  0  0  0  0  0
  151.9657  145.2449  160.8682 H   0  0  0  0  0  0  0  0  0  0  0  0
  150.8209  145.8746  158.9456 H   0  0  0  0  0  0  0  0  0  0  0  0
  153.1746  145.3812  158.2949 H   0  0  0  0  0  0  0  0  0  0  0  0
  152.0860  145.0975  156.9441 H   0  0  0  0  0  0  0  0  0  0  0  0
  152.7254  143.7343  157.8588 H   0  0  0  0  0  0  0  0  0  0  0  0
  149.1653  144.4557  158.2821 H   0  0  0  0  0  0  0  0  0  0  0  0
  148.5533  141.2625  158.3325 H   0  0  0  0  0  0  0  0  0  0  0  0
  148.0538  142.7525  157.5493 H   0  0  0  0  0  0  0  0  0  0  0  0
  147.7735  142.5559  155.0226 H   0  0  0  0  0  0  0  0  0  0  0  0
  148.6832  140.8189  153.1290 H   0  0  0  0  0  0  0  0  0  0  0  0
  151.6805  139.0400  154.5383 H   0  0  0  0  0  0  0  0  0  0  0  0
  150.4825  137.6787  156.2632 H   0  0  0  0  0  0  0  0  0  0  0  0
  150.8741  136.7077  154.8498 H   0  0  0  0  0  0  0  0  0  0  0  0
  149.2270  137.2876  155.0914 H   0  0  0  0  0  0  0  0  0  0  0  0
  150.1192  139.3804  152.6343 H   0  0  0  0  0  0  0  0  0  0  0  0
  1  2  1  0  0  0  0
  1 17  1  0  0  0  0
  1 18  1  0  0  0  0
  1 19  1  0  0  0  0
  2  3  1  0  0  0  0
  2 20  1  0  0  0  0
  2 21  1  0  0  0  0
  3  4  1  0  0  0  0
  3  5  1  0  0  0  0
  3 22  1  0  0  0  0
  4 23  1  0  0  0  0
  4 24  1  0  0  0  0
  4 25  1  0  0  0  0
  5  6  1  0  0  0  0
  5 26  1  0  0  0  0
  6  7  2  0  0  0  0
  6  8  1  0  0  0  0
  8  9  1  0  0  0  0
  8 27  1  0  0  0  0
  8 28  1  0  0  0  0
  9 16  1  0  0  0  0
  9 10  1  0  0  0  0
 10 11  2  0  0  0  0
 10 29  1  0  0  0  0
 11 12  1  0  0  0  0
 11 30  1  0  0  0  0
 12 13  1  0  0  0  0
 12 16  2  0  0  0  0
 13 14  1  0  0  0  0
 13 15  1  0  0  0  0
 13 31  1  0  0  0  0
 14 32  1  0  0  0  0
 14 33  1  0  0  0  0
 14 34  1  0  0  0  0
 15 35  1  0  0  0  0
M  END
> <s_m_source_file>
AV-unprocessed.smi

> <i_m_source_file_index>
2739

> <i_lp_mmshare_version>
43012

> <i_f3d_flags>
0

> <s_epik_input>
W0NIM11bQ0gyXVtDQEhdKFtDSDNdKVtOSF1DKD1PKVtDSDJdbjFbY0hdW2NIXWMobjEpW0NASF0oW0NIM10pW09IXQ==

> <s_epik_cmdline>
J2VwaWtfcHl0aG9uJywgJy1waCcsICc3LjAnLCAnLXRuJywgJzgnLCAnLW1hJywgJzIwMCcsICctbWV0YWxfYmluZGluZycsICctaW1hZScsICc8aW5maWxlLm1hZT4nLCAnLW9tYWUnLCAnPG91dGZpbGUubWFlPic=

> <r_lp_tautomer_probability>
1

> <r_epik_Ionization_Penalty>
5.22246e-06

> <r_epik_Ionization_Penalty_Charging>
0

> <r_epik_Ionization_Penalty_Neutral>
5.22246e-06

> <r_epik_State_Penalty>
-0

> <r_epik_Charging_Adjusted_Penalty>
0

> <i_epik_Tot_Q>
0

> <i_epik_Tot_abs_Q>
0

> <r_epik_Metal_State_Penalty>
-0

> <b_epik_Metal_Only>
0

> <s_lp_Force_Field>
OPLS_2005

> <r_lp_Energy>
1.19937

> <b_lp_Chiralities_Consistent>
1

> <s_lp_Variant>
AV-unprocessed.smi:2739-4

> <Gold.Version>
5.8.1

> <Gold.Id.Protein>
6NUR|6NUR_protein|mol2

> <Gold.PLP.Fitness>
40.3902

> <Gold.PLP.PLP>
-33.5423

> <Gold.PLP.part.hbond>
-4.8033

> <Gold.PLP.part.metal>
0.0000

> <Gold.PLP.part.buried>
-1.4305

> <Gold.PLP.part.nonpolar>
-27.8180

> <Gold.PLP.part.repulsive>
0.1320

> <Gold.PLP.ligand.clash>
0.0000

> <Gold.PLP.ligand.torsion>
0.3464

> <Gold.PLP.Chemscore.Hbond>
1.8110

> <Gold.PLP.Chemscore.CHOScore>
0.6897

> <Gold.PLP.Chemscore.Metal>
0.0000

> <Gold.Chemscore.Hbonds>
donor molecule, donor type, donor heavy atom, donor atom, acceptor molecule, acceptor atom, score
      L1  H     5    26       P1  8029  0.58
      L1  H    15    35       P1  7957  0.85
      L1  C    10    29       P1  8028  0.63

> <Gold.PLP.Chemscore.Internal.Correction>
0.0387

> <Gold.Rescore>
     Score         DG    S(hbond)    S(metal)    S(lipo)     H(rot)  DE(clash)    DE(int)     intcor
      8.46     -12.61       1.11        0.00      80.51       2.34       0.01       4.13       ----

> <Gold.Chemscore.Fitness>
8.4587

> <Gold.Chemscore.DG>
-12.6051

> <Gold.Chemscore.ZeroCoef>
-5.4800

> <Gold.Chemscore.Hbond>
1.1103

> <Gold.Chemscore.Metal>
0.0000

> <Gold.Chemscore.Lipo>
80.5078

> <Gold.Chemscore.Internal_Hbond>
0.0000

> <Gold.Chemscore.DEClash>
0.0147

> <Gold.Chemscore.DEInternal>
4.1316

> <Gold.Chemscore.Rot>
2.3448

> <Gold.Chemscore.Internal.Correction>
   9.000000E+99

> <Gold.Chemscore.Hbonds>
donor molecule, donor type, donor heavy atom, donor atom, acceptor molecule, acceptor atom, score
      L1  H     5    26       P1  8029  0.16
      L1  H    15    35       P1  7957  0.71

> <Gold.Chemscore.Hbond.Weighted>
-3.7084

> <Gold.Chemscore.Metal.Weighted>
-0.0000

> <Gold.Chemscore.Lipo.Weighted>
-9.4194

> <Gold.Chemscore.Internal_Hbond.Weighted>
0.0000

> <Gold.Chemscore.DEClash.Weighted>
0.0147

> <Gold.Chemscore.DEInternal.Weighted>
4.1316

> <Gold.Chemscore.Rot.Weighted>
6.0027

> <Gold.Chemscore.Internal.Correction.Weighted>
   9.000000E+99

> <Gold.Protein.RotatedTorsions>
[ 6907 6896 6895 6894 ] final  119.51 input  -60.11 | X-H torsion
[ 7974 7965 7964 7962 ] final -118.47 input  175.53 | X-H torsion
[ 8008 7997 7996 7995 ] final   42.42 input   59.86 | X-H torsion
[ 10167 10162 10161 10158 ] final   51.86 input  -65.29 | X-H torsion
[ 10718 10713 10712 10709 ] final -108.60 input   66.30 | X-H torsion
[ 10763 10752 10751 10750 ] final -118.97 input  -60.55 | X-H torsion
[ 11005 11000 10999 10996 ] final   69.38 input  -57.11 | X-H torsion

> <Gold.Protein.ActiveResidues>
 VAL166  LYS551  ARG553  GLY616  TRP617  ASP618  TYR619  PRO620  LYS621  CYS622 
 ASP623  PHE694  ASN695  SER759  ASP760  ASP761  ALA762  ILE779  LEU786  VAL792 
 PHE793  MET794  SER795  GLU796  ALA797  LYS798  CYS799  TRP800  GLU811  SER814 

> <Gold.Protein.RotatedAtoms>
  152.4467  133.7549  159.6714 H   0  0  0  0  0  0  0  0  0  0  0  0  # atno 6907 bound_to 6896
  150.8368  133.7990  159.3082 H   0  0  0  0  0  0  0  0  0  0  0  0  # atno 6908 bound_to 6896
  151.5627  135.1067  160.0028 H   0  0  0  0  0  0  0  0  0  0  0  0  # atno 6909 bound_to 6896
  145.0735  140.8375  143.4082 H   0  0  0  0  0  0  0  0  0  0  0  0  # atno 7974 bound_to 7965
  155.2859  140.3375  155.4255 H   0  0  0  0  0  0  0  0  0  0  0  0  # atno 8008 bound_to 7997
  156.2068  140.1754  156.7822 H   0  0  0  0  0  0  0  0  0  0  0  0  # atno 8009 bound_to 7997
  154.5632  140.0683  156.8836 H   0  0  0  0  0  0  0  0  0  0  0  0  # atno 8010 bound_to 7997
  140.2575  144.3410  150.6328 H   0  0  0  0  0  0  0  0  0  0  0  0  # atno 10167 bound_to 10162
  156.0494  130.5721  150.7983 H   0  0  0  0  0  0  0  0  0  0  0  0  # atno 10718 bound_to 10713
  154.8603  135.4255  154.2225 H   0  0  0  0  0  0  0  0  0  0  0  0  # atno 10763 bound_to 10752
  153.3227  135.6983  153.7022 H   0  0  0  0  0  0  0  0  0  0  0  0  # atno 10764 bound_to 10752
  153.6071  135.3526  155.2939 H   0  0  0  0  0  0  0  0  0  0  0  0  # atno 10765 bound_to 10752
  139.9657  134.6985  156.0551 H   0  0  0  0  0  0  0  0  0  0  0  0  # atno 11005 bound_to 11000
  145.1264  139.2660  143.5562 LP  0  0  0  0  0  0  0  0  0  0  0  0  # atno 17320 bound_to 7965
  146.3529  140.0903  142.8613 LP  0  0  0  0  0  0  0  0  0  0  0  0  # atno 17321 bound_to 7965
  140.5992  143.2167  151.7105 LP  0  0  0  0  0  0  0  0  0  0  0  0  # atno 17342 bound_to 10162
  139.5027  144.3819  152.0367 LP  0  0  0  0  0  0  0  0  0  0  0  0  # atno 17343 bound_to 10162
  157.5404  131.0940  150.9835 LP  0  0  0  0  0  0  0  0  0  0  0  0  # atno 17370 bound_to 10713
  157.0120  130.5640  149.5322 LP  0  0  0  0  0  0  0  0  0  0  0  0  # atno 17371 bound_to 10713
  141.1336  133.6580  156.3533 LP  0  0  0  0  0  0  0  0  0  0  0  0  # atno 17394 bound_to 11000
  140.5402  134.6128  157.5377 LP  0  0  0  0  0  0  0  0  0  0  0  0  # atno 17395 bound_to 11000

$$$$
