AV-unprocessed.smi:3172|AV-procd|sdf|12115|dock8
  -GOLD-   2272017553D 1   1.00000     0.00000
 Structure written by MMmdl.
 43 44  0  0  0  0  0  0  0  0  2 V2000
  146.2926  138.3047  153.1005 C   0  0  0  0  0  0  0  0  0  0  0  0
  147.4929  139.0156  153.6440 C   0  0  0  0  0  0  0  0  0  0  0  0
  148.6244  138.3137  154.0512 N   0  0  0  0  0  0  0  0  0  0  0  0
  149.4545  139.2615  154.4604 C   0  0  0  0  0  0  0  0  0  0  0  0
  148.9664  140.5067  154.3709 N   0  0  0  0  0  0  0  0  0  0  0  0
  149.6432  141.7289  154.7754 C   0  0  0  0  0  0  0  0  0  0  0  0
  150.1006  141.6743  156.2451 C   0  0  2  0  0  0  0  0  0  0  0  0
  148.9357  141.3302  157.1837 C   0  0  0  0  0  0  0  0  0  0  0  0
  150.7099  142.9656  156.6404 N   0  3  0  0  0  0  0  0  0  0  0  0
  151.1043  143.0787  158.0613 C   0  0  0  0  0  0  0  0  0  0  0  0
  151.7852  144.4382  158.3072 C   0  0  0  0  0  0  0  0  0  0  0  0
  152.2476  144.5810  159.7664 C   0  0  0  0  0  0  0  0  0  0  0  0
  153.1833  143.4300  160.1673 C   0  0  0  0  0  0  0  0  0  0  0  0
  152.5197  142.0664  159.9221 C   0  0  0  0  0  0  0  0  0  0  0  0
  152.0514  141.9270  158.4648 C   0  0  0  0  0  0  0  0  0  0  0  0
  147.6903  140.3681  153.8268 C   0  0  0  0  0  0  0  0  0  0  0  0
  146.7777  141.5175  153.5397 C   0  0  0  0  0  0  0  0  0  0  0  0
  146.2821  138.3310  152.0108 H   0  0  0  0  0  0  0  0  0  0  0  0
  145.3685  138.7640  153.4516 H   0  0  0  0  0  0  0  0  0  0  0  0
  146.2746  137.2583  153.4067 H   0  0  0  0  0  0  0  0  0  0  0  0
  150.4386  139.0425  154.8486 H   0  0  0  0  0  0  0  0  0  0  0  0
  150.4958  141.8944  154.1147 H   0  0  0  0  0  0  0  0  0  0  0  0
  148.9642  142.5671  154.6168 H   0  0  0  0  0  0  0  0  0  0  0  0
  150.8419  140.8807  156.3344 H   0  0  0  0  0  0  0  0  0  0  0  0
  148.4902  140.3709  156.9188 H   0  0  0  0  0  0  0  0  0  0  0  0
  148.1504  142.0853  157.1359 H   0  0  0  0  0  0  0  0  0  0  0  0
  149.2686  141.2608  158.2198 H   0  0  0  0  0  0  0  0  0  0  0  0
  151.5415  143.1107  156.0856 H   0  0  0  0  0  0  0  0  0  0  0  0
  150.2028  143.0379  158.6750 H   0  0  0  0  0  0  0  0  0  0  0  0
  152.6444  144.5484  157.6438 H   0  0  0  0  0  0  0  0  0  0  0  0
  151.0992  145.2499  158.0618 H   0  0  0  0  0  0  0  0  0  0  0  0
  152.7548  145.5365  159.9043 H   0  0  0  0  0  0  0  0  0  0  0  0
  151.3794  144.5937  160.4266 H   0  0  0  0  0  0  0  0  0  0  0  0
  154.1091  143.4947  159.5942 H   0  0  0  0  0  0  0  0  0  0  0  0
  153.4624  143.5248  161.2170 H   0  0  0  0  0  0  0  0  0  0  0  0
  153.2183  141.2652  160.1659 H   0  0  0  0  0  0  0  0  0  0  0  0
  151.6678  141.9480  160.5928 H   0  0  0  0  0  0  0  0  0  0  0  0
  151.5637  140.9605  158.3393 H   0  0  0  0  0  0  0  0  0  0  0  0
  152.9205  141.9164  157.8051 H   0  0  0  0  0  0  0  0  0  0  0  0
  145.9813  141.2220  152.8568 H   0  0  0  0  0  0  0  0  0  0  0  0
  147.3147  142.3451  153.0769 H   0  0  0  0  0  0  0  0  0  0  0  0
  146.3120  141.8818  154.4550 H   0  0  0  0  0  0  0  0  0  0  0  0
  150.0503  143.6990  156.4230 H   0  0  0  0  0  0  0  0  0  0  0  0
  1  2  1  0  0  0  0
  1 18  1  0  0  0  0
  1 19  1  0  0  0  0
  1 20  1  0  0  0  0
  2 16  2  0  0  0  0
  2  3  1  0  0  0  0
  3  4  2  0  0  0  0
  4  5  1  0  0  0  0
  4 21  1  0  0  0  0
  5  6  1  0  0  0  0
  5 16  1  0  0  0  0
  6  7  1  0  0  0  0
  6 22  1  0  0  0  0
  6 23  1  0  0  0  0
  7  8  1  0  0  0  0
  7  9  1  0  0  0  0
  7 24  1  0  0  0  0
  8 25  1  0  0  0  0
  8 26  1  0  0  0  0
  8 27  1  0  0  0  0
  9 10  1  0  0  0  0
  9 28  1  0  0  0  0
  9 43  1  0  0  0  0
 10 15  1  0  0  0  0
 10 11  1  0  0  0  0
 10 29  1  0  0  0  0
 11 12  1  0  0  0  0
 11 30  1  0  0  0  0
 11 31  1  0  0  0  0
 12 13  1  0  0  0  0
 12 32  1  0  0  0  0
 12 33  1  0  0  0  0
 13 14  1  0  0  0  0
 13 34  1  0  0  0  0
 13 35  1  0  0  0  0
 14 15  1  0  0  0  0
 14 36  1  0  0  0  0
 14 37  1  0  0  0  0
 15 38  1  0  0  0  0
 15 39  1  0  0  0  0
 16 17  1  0  0  0  0
 17 40  1  0  0  0  0
 17 41  1  0  0  0  0
 17 42  1  0  0  0  0
M  CHG  1   9   1
M  END
> <s_m_source_file>
AV-unprocessed.smi

> <i_m_source_file_index>
3172

> <i_lp_mmshare_version>
43012

> <i_f3d_flags>
0

> <s_epik_input>
W0NIM11jMW5bY0hdbihjMVtDSDNdKVtDSDJdW0NASF0oW0NIM10pW05IXVtDSF0yW0NIMl1bQ0gyXVtDSDJdW0NIMl1bQ0gyXTI=

> <s_epik_cmdline>
J2VwaWtfcHl0aG9uJywgJy1waCcsICc3LjAnLCAnLXRuJywgJzgnLCAnLW1hJywgJzIwMCcsICctbWV0YWxfYmluZGluZycsICctaW1hZScsICc8aW5maWxlLm1hZT4nLCAnLW9tYWUnLCAnPG91dGZpbGUubWFlPic=

> <r_lp_tautomer_probability>
1

> <r_epik_Ionization_Penalty>
0.328572

> <r_epik_Ionization_Penalty_Charging>
0.328572

> <r_epik_Ionization_Penalty_Neutral>
3.58496e-13

> <r_epik_State_Penalty>
0.596179

> <r_epik_Charging_Adjusted_Penalty>
0.924751

> <i_epik_Tot_Q>
1

> <i_epik_Tot_abs_Q>
1

> <r_epik_Metal_State_Penalty>
0.00102252

> <b_epik_Metal_Only>
0

> <s_lp_Force_Field>
OPLS_2005

> <r_lp_Energy>
15.8324

> <b_lp_Chiralities_Consistent>
1

> <s_lp_Variant>
AV-unprocessed.smi:3172-3

> <Gold.Version>
5.8.1

> <Gold.Id.Protein>
6NUR|6NUR_protein|mol2

> <Gold.PLP.Fitness>
43.6781

> <Gold.PLP.PLP>
-37.7699

> <Gold.PLP.part.hbond>
-1.0000

> <Gold.PLP.part.metal>
0.0000

> <Gold.PLP.part.buried>
-3.4845

> <Gold.PLP.part.nonpolar>
-33.4786

> <Gold.PLP.part.repulsive>
0.7388

> <Gold.PLP.ligand.clash>
0.0000

> <Gold.PLP.ligand.torsion>
0.0614

> <Gold.PLP.Chemscore.Hbond>
2.0000

> <Gold.PLP.Chemscore.CHOScore>
0.0000

> <Gold.PLP.Chemscore.Metal>
0.0000

> <Gold.Chemscore.Hbonds>
donor molecule, donor type, donor heavy atom, donor atom, acceptor molecule, acceptor atom, score
      L1  H     9    43       P1  8028  2.00

> <Gold.PLP.Chemscore.Internal.Correction>
0.0311

> <Gold.Rescore>
     Score         DG    S(hbond)    S(metal)    S(lipo)     H(rot)  DE(clash)    DE(int)     intcor
     17.74     -17.98       1.00        0.00     111.15       1.50       0.18       0.07       ----

> <Gold.Chemscore.Fitness>
17.7370

> <Gold.Chemscore.DG>
-17.9844

> <Gold.Chemscore.ZeroCoef>
-5.4800

> <Gold.Chemscore.Hbond>
0.9998

> <Gold.Chemscore.Metal>
0.0000

> <Gold.Chemscore.Lipo>
111.1522

> <Gold.Chemscore.Internal_Hbond>
0.0000

> <Gold.Chemscore.DEClash>
0.1803

> <Gold.Chemscore.DEInternal>
0.0671

> <Gold.Chemscore.Rot>
1.4999

> <Gold.Chemscore.Internal.Correction>
   9.000000E+99

> <Gold.Chemscore.Hbonds>
donor molecule, donor type, donor heavy atom, donor atom, acceptor molecule, acceptor atom, score
      L1  H     9    43       P1  8028  1.00

> <Gold.Chemscore.Hbond.Weighted>
-3.3393

> <Gold.Chemscore.Metal.Weighted>
-0.0000

> <Gold.Chemscore.Lipo.Weighted>
-13.0048

> <Gold.Chemscore.Internal_Hbond.Weighted>
0.0000

> <Gold.Chemscore.DEClash.Weighted>
0.1803

> <Gold.Chemscore.DEInternal.Weighted>
0.0671

> <Gold.Chemscore.Rot.Weighted>
3.8397

> <Gold.Chemscore.Internal.Correction.Weighted>
   9.000000E+99

> <Gold.Protein.RotatedTorsions>
[ 6907 6896 6895 6894 ] final  131.87 input  -60.11 | X-H torsion
[ 7974 7965 7964 7962 ] final  145.44 input  175.53 | X-H torsion
[ 8008 7997 7996 7995 ] final  133.76 input   59.86 | X-H torsion
[ 10167 10162 10161 10158 ] final   56.70 input  -65.29 | X-H torsion
[ 10718 10713 10712 10709 ] final  136.19 input   66.30 | X-H torsion
[ 10763 10752 10751 10750 ] final   68.53 input  -60.55 | X-H torsion
[ 11005 11000 10999 10996 ] final  -47.97 input  -57.11 | X-H torsion

> <Gold.Protein.ActiveResidues>
 VAL166  LYS551  ARG553  GLY616  TRP617  ASP618  TYR619  PRO620  LYS621  CYS622 
 ASP623  PHE694  ASN695  SER759  ASP760  ASP761  ALA762  ILE779  LEU786  VAL792 
 PHE793  MET794  SER795  GLU796  ALA797  LYS798  CYS799  TRP800  GLU811  SER814 

> <Gold.Protein.RotatedAtoms>
  152.3382  133.6036  159.5857 H   0  0  0  0  0  0  0  0  0  0  0  0  # atno 6907 bound_to 6896
  150.7463  133.9763  159.3571 H   0  0  0  0  0  0  0  0  0  0  0  0  # atno 6908 bound_to 6896
  151.7630  135.0806  160.0399 H   0  0  0  0  0  0  0  0  0  0  0  0  # atno 6909 bound_to 6896
  144.8753  139.5783  143.5868 H   0  0  0  0  0  0  0  0  0  0  0  0  # atno 7974 bound_to 7965
  156.2995  140.2513  156.3307 H   0  0  0  0  0  0  0  0  0  0  0  0  # atno 8008 bound_to 7997
  154.9148  140.0402  157.1985 H   0  0  0  0  0  0  0  0  0  0  0  0  # atno 8009 bound_to 7997
  154.8369  140.2884  155.5689 H   0  0  0  0  0  0  0  0  0  0  0  0  # atno 8010 bound_to 7997
  140.2059  144.3940  150.6509 H   0  0  0  0  0  0  0  0  0  0  0  0  # atno 10167 bound_to 10162
  157.4492  131.1064  151.0053 H   0  0  0  0  0  0  0  0  0  0  0  0  # atno 10718 bound_to 10713
  153.0240  135.5244  154.7148 H   0  0  0  0  0  0  0  0  0  0  0  0  # atno 10763 bound_to 10752
  154.6220  135.2890  155.0317 H   0  0  0  0  0  0  0  0  0  0  0  0  # atno 10764 bound_to 10752
  154.1300  135.6594  153.4972 H   0  0  0  0  0  0  0  0  0  0  0  0  # atno 10765 bound_to 10752
  141.0673  133.6690  156.3374 H   0  0  0  0  0  0  0  0  0  0  0  0  # atno 11005 bound_to 11000
  146.2958  139.7274  142.9128 LP  0  0  0  0  0  0  0  0  0  0  0  0  # atno 17320 bound_to 7965
  145.4055  141.0390  143.3046 LP  0  0  0  0  0  0  0  0  0  0  0  0  # atno 17321 bound_to 7965
  140.6358  143.2194  151.6398 LP  0  0  0  0  0  0  0  0  0  0  0  0  # atno 17342 bound_to 10162
  139.5199  144.3240  152.0885 LP  0  0  0  0  0  0  0  0  0  0  0  0  # atno 17343 bound_to 10162
  157.0889  130.5934  149.5435 LP  0  0  0  0  0  0  0  0  0  0  0  0  # atno 17370 bound_to 10713
  155.9980  130.5053  150.7555 LP  0  0  0  0  0  0  0  0  0  0  0  0  # atno 17371 bound_to 10713
  140.5747  134.5805  157.5466 LP  0  0  0  0  0  0  0  0  0  0  0  0  # atno 17394 bound_to 11000
  139.9488  134.7653  156.0496 LP  0  0  0  0  0  0  0  0  0  0  0  0  # atno 17395 bound_to 11000

$$$$
