AV-unprocessed.smi:485|AV-procd|sdf|2692|dock9
  -GOLD-   2262023123D 1   1.00000     0.00000
 Structure written by MMmdl.
 36 38  0  0  0  0  0  0  0  0  1 V2000
  151.8556  137.0069  159.4885 O   0  0  0  0  0  0  0  0  0  0  0  0
  152.1627  137.7852  158.3517 C   0  0  0  0  0  0  0  0  0  0  0  0
  152.2206  139.2521  158.6526 C   0  0  0  0  0  0  0  0  0  0  0  0
  153.1046  139.7609  159.5114 N   0  0  0  0  0  0  0  0  0  0  0  0
  152.8203  141.1121  159.4754 C   0  0  0  0  0  0  0  0  0  0  0  0
  153.4133  142.1936  160.1654 C   0  0  0  0  0  0  0  0  0  0  0  0
  152.9478  143.5097  159.9652 C   0  0  0  0  0  0  0  0  0  0  0  0
  151.8849  143.7630  159.0739 C   0  0  0  0  0  0  0  0  0  0  0  0
  151.2804  142.6999  158.3759 C   0  0  0  0  0  0  0  0  0  0  0  0
  151.7490  141.3877  158.5792 C   0  0  0  0  0  0  0  0  0  0  0  0
  151.3856  140.1463  158.0656 N   0  0  0  0  0  0  0  0  0  0  0  0
  150.3297  139.8883  157.0957 C   0  0  0  0  0  0  0  0  0  0  0  0
  150.5815  140.5719  155.7367 C   0  0  1  0  0  0  0  0  0  0  0  0
  151.7511  140.0479  155.1370 O   0  0  0  0  0  0  0  0  0  0  0  0
  149.3629  140.4577  154.8339 C   0  0  0  0  0  0  0  0  0  0  0  0
  148.6527  141.6088  154.4253 C   0  0  0  0  0  0  0  0  0  0  0  0
  147.5332  141.4888  153.5788 C   0  0  0  0  0  0  0  0  0  0  0  0
  147.1204  140.2191  153.1317 C   0  0  0  0  0  0  0  0  0  0  0  0
  147.8275  139.0688  153.5314 C   0  0  0  0  0  0  0  0  0  0  0  0
  148.9461  139.1882  154.3790 C   0  0  0  0  0  0  0  0  0  0  0  0
  152.0174  137.5266  160.2608 H   0  0  0  0  0  0  0  0  0  0  0  0
  153.1110  137.4525  157.9313 H   0  0  0  0  0  0  0  0  0  0  0  0
  151.4035  137.6037  157.5903 H   0  0  0  0  0  0  0  0  0  0  0  0
  154.2282  142.0100  160.8499 H   0  0  0  0  0  0  0  0  0  0  0  0
  153.4081  144.3287  160.4984 H   0  0  0  0  0  0  0  0  0  0  0  0
  151.5336  144.7739  158.9264 H   0  0  0  0  0  0  0  0  0  0  0  0
  150.4641  142.8893  157.6947 H   0  0  0  0  0  0  0  0  0  0  0  0
  150.2346  138.8097  156.9640 H   0  0  0  0  0  0  0  0  0  0  0  0
  149.3808  140.2225  157.5157 H   0  0  0  0  0  0  0  0  0  0  0  0
  150.7760  141.6317  155.9021 H   0  0  0  0  0  0  0  0  0  0  0  0
  151.7093  139.1045  155.1740 H   0  0  0  0  0  0  0  0  0  0  0  0
  148.9656  142.5884  154.7561 H   0  0  0  0  0  0  0  0  0  0  0  0
  146.9924  142.3714  153.2705 H   0  0  0  0  0  0  0  0  0  0  0  0
  146.2634  140.1274  152.4807 H   0  0  0  0  0  0  0  0  0  0  0  0
  147.5130  138.0949  153.1862 H   0  0  0  0  0  0  0  0  0  0  0  0
  149.4855  138.3006  154.6761 H   0  0  0  0  0  0  0  0  0  0  0  0
  1  2  1  0  0  0  0
  1 21  1  0  0  0  0
  2  3  1  0  0  0  0
  2 22  1  0  0  0  0
  2 23  1  0  0  0  0
  3 11  1  0  0  0  0
  3  4  2  0  0  0  0
  4  5  1  0  0  0  0
  5 10  2  0  0  0  0
  5  6  1  0  0  0  0
  6  7  2  0  0  0  0
  6 24  1  0  0  0  0
  7  8  1  0  0  0  0
  7 25  1  0  0  0  0
  8  9  2  0  0  0  0
  8 26  1  0  0  0  0
  9 10  1  0  0  0  0
  9 27  1  0  0  0  0
 10 11  1  0  0  0  0
 11 12  1  0  0  0  0
 12 13  1  0  0  0  0
 12 28  1  0  0  0  0
 12 29  1  0  0  0  0
 13 14  1  0  0  0  0
 13 15  1  0  0  0  0
 13 30  1  0  0  0  0
 14 31  1  0  0  0  0
 15 20  1  0  0  0  0
 15 16  2  0  0  0  0
 16 17  1  0  0  0  0
 16 32  1  0  0  0  0
 17 18  2  0  0  0  0
 17 33  1  0  0  0  0
 18 19  1  0  0  0  0
 18 34  1  0  0  0  0
 19 20  2  0  0  0  0
 19 35  1  0  0  0  0
 20 36  1  0  0  0  0
M  END
> <s_m_source_file>
AV-unprocessed.smi

> <i_m_source_file_index>
485

> <i_lp_mmshare_version>
43012

> <i_f3d_flags>
0

> <s_epik_input>
W2NIXTFbY0hdW2NIXVtjSF1jKGMxMiluKGMobjIpW0NIMl1bT0hdKVtDSDJdW0NASF0oW09IXSljM1tjSF1bY0hdW2NIXVtjSF1bY0hdMw==

> <s_epik_cmdline>
J2VwaWtfcHl0aG9uJywgJy1waCcsICc3LjAnLCAnLXRuJywgJzgnLCAnLW1hJywgJzIwMCcsICctbWV0YWxfYmluZGluZycsICctaW1hZScsICc8aW5maWxlLm1hZT4nLCAnLW9tYWUnLCAnPG91dGZpbGUubWFlPic=

> <r_epik_Ionization_Penalty>
0.0634722

> <r_epik_Ionization_Penalty_Charging>
0

> <r_epik_Ionization_Penalty_Neutral>
0.0634722

> <r_epik_State_Penalty>
0.0551572

> <r_epik_Charging_Adjusted_Penalty>
0.0551572

> <i_epik_Tot_Q>
0

> <i_epik_Tot_abs_Q>
0

> <r_epik_Metal_State_Penalty>
5.78034e-05

> <b_epik_Metal_Only>
0

> <s_lp_Force_Field>
OPLS_2005

> <r_lp_Energy>
11.9135

> <b_lp_Chiralities_Consistent>
1

> <s_lp_Variant>
AV-unprocessed.smi:485-2

> <Gold.Version>
5.8.1

> <Gold.Id.Protein>
6NUR|6NUR_protein|mol2

> <Gold.PLP.Fitness>
49.0962

> <Gold.PLP.PLP>
-43.2889

> <Gold.PLP.part.hbond>
-2.0000

> <Gold.PLP.part.metal>
0.0000

> <Gold.PLP.part.buried>
-4.7722

> <Gold.PLP.part.nonpolar>
-36.1418

> <Gold.PLP.part.repulsive>
0.0000

> <Gold.PLP.ligand.clash>
0.0000

> <Gold.PLP.ligand.torsion>
0.0543

> <Gold.PLP.Chemscore.Hbond>
1.9600

> <Gold.PLP.Chemscore.CHOScore>
0.0000

> <Gold.PLP.Chemscore.Metal>
0.0000

> <Gold.Chemscore.Hbonds>
donor molecule, donor type, donor heavy atom, donor atom, acceptor molecule, acceptor atom, score
      P1  H  6896  6907       L1     1  1.00
      P1  H  7989  7998       L1    14  0.94

> <Gold.PLP.Chemscore.Internal.Correction>
0.0357

> <Gold.Rescore>
     Score         DG    S(hbond)    S(metal)    S(lipo)     H(rot)  DE(clash)    DE(int)     intcor
     17.58     -17.61       1.71        0.00     112.30       2.62       0.00       0.03       ----

> <Gold.Chemscore.Fitness>
17.5809

> <Gold.Chemscore.DG>
-17.6122

> <Gold.Chemscore.ZeroCoef>
-5.4800

> <Gold.Chemscore.Hbond>
1.7090

> <Gold.Chemscore.Metal>
0.0000

> <Gold.Chemscore.Lipo>
112.3028

> <Gold.Chemscore.Internal_Hbond>
0.0000

> <Gold.Chemscore.DEClash>
0.0000

> <Gold.Chemscore.DEInternal>
0.0313

> <Gold.Chemscore.Rot>
2.6232

> <Gold.Chemscore.Internal.Correction>
   9.000000E+99

> <Gold.Chemscore.Hbonds>
donor molecule, donor type, donor heavy atom, donor atom, acceptor molecule, acceptor atom, score
      P1  H  6896  6907       L1     1  0.80
      P1  H  7989  7998       L1    14  0.23

> <Gold.Chemscore.Hbond.Weighted>
-5.7082

> <Gold.Chemscore.Metal.Weighted>
-0.0000

> <Gold.Chemscore.Lipo.Weighted>
-13.1394

> <Gold.Chemscore.Internal_Hbond.Weighted>
0.0000

> <Gold.Chemscore.DEClash.Weighted>
0.0000

> <Gold.Chemscore.DEInternal.Weighted>
0.0313

> <Gold.Chemscore.Rot.Weighted>
6.7154

> <Gold.Chemscore.Internal.Correction.Weighted>
   9.000000E+99

> <Gold.Protein.RotatedTorsions>
[ 6907 6896 6895 6894 ] final  -15.13 input  -60.11 | X-H torsion
[ 7974 7965 7964 7962 ] final -159.33 input  175.53 | X-H torsion
[ 8008 7997 7996 7995 ] final  149.34 input   59.86 | X-H torsion
[ 10167 10162 10161 10158 ] final   31.04 input  -65.29 | X-H torsion
[ 10718 10713 10712 10709 ] final  107.95 input   66.30 | X-H torsion
[ 10763 10752 10751 10750 ] final  105.86 input  -60.55 | X-H torsion
[ 11005 11000 10999 10996 ] final   72.56 input  -57.11 | X-H torsion

> <Gold.Protein.ActiveResidues>
 VAL166  LYS551  ARG553  GLY616  TRP617  ASP618  TYR619  PRO620  LYS621  CYS622 
 ASP623  PHE694  ASN695  SER759  ASP760  ASP761  ALA762  ILE779  LEU786  VAL792 
 PHE793  MET794  SER795  GLU796  ALA797  LYS798  CYS799  TRP800  GLU811  SER814 

> <Gold.Protein.RotatedAtoms>
  151.3287  135.0836  159.9330 H   0  0  0  0  0  0  0  0  0  0  0  0  # atno 6907 bound_to 6896
  152.5240  133.9565  159.7707 H   0  0  0  0  0  0  0  0  0  0  0  0  # atno 6908 bound_to 6896
  150.9899  133.6107  159.2740 H   0  0  0  0  0  0  0  0  0  0  0  0  # atno 6909 bound_to 6896
  144.7470  140.3701  143.6078 H   0  0  0  0  0  0  0  0  0  0  0  0  # atno 7974 bound_to 7965
  156.2758  140.2104  156.5842 H   0  0  0  0  0  0  0  0  0  0  0  0  # atno 8008 bound_to 7997
  154.7034  140.0519  157.0504 H   0  0  0  0  0  0  0  0  0  0  0  0  # atno 8009 bound_to 7997
  155.0703  140.3176  155.4635 H   0  0  0  0  0  0  0  0  0  0  0  0  # atno 8010 bound_to 7997
  140.4624  144.0886  150.6216 H   0  0  0  0  0  0  0  0  0  0  0  0  # atno 10167 bound_to 10162
  157.6607  131.0883  150.6233 H   0  0  0  0  0  0  0  0  0  0  0  0  # atno 10718 bound_to 10713
  153.3851  135.3896  155.1884 H   0  0  0  0  0  0  0  0  0  0  0  0  # atno 10763 bound_to 10752
  154.8712  135.3735  154.4808 H   0  0  0  0  0  0  0  0  0  0  0  0  # atno 10764 bound_to 10752
  153.5289  135.7086  153.5754 H   0  0  0  0  0  0  0  0  0  0  0  0  # atno 10765 bound_to 10752
  139.9484  134.7270  156.0921 H   0  0  0  0  0  0  0  0  0  0  0  0  # atno 11005 bound_to 11000
  145.7087  139.1679  143.2551 LP  0  0  0  0  0  0  0  0  0  0  0  0  # atno 17320 bound_to 7965
  146.1363  140.7118  142.9388 LP  0  0  0  0  0  0  0  0  0  0  0  0  # atno 17321 bound_to 7965
  140.4077  143.2672  151.9871 LP  0  0  0  0  0  0  0  0  0  0  0  0  # atno 17342 bound_to 10162
  139.4808  144.5942  151.7718 LP  0  0  0  0  0  0  0  0  0  0  0  0  # atno 17343 bound_to 10162
  156.6536  130.4492  149.5711 LP  0  0  0  0  0  0  0  0  0  0  0  0  # atno 17370 bound_to 10713
  156.2119  130.6684  151.1278 LP  0  0  0  0  0  0  0  0  0  0  0  0  # atno 17371 bound_to 10713
  141.1141  133.6633  156.3051 LP  0  0  0  0  0  0  0  0  0  0  0  0  # atno 17394 bound_to 11000
  140.5777  134.5776  157.5472 LP  0  0  0  0  0  0  0  0  0  0  0  0  # atno 17395 bound_to 11000

$$$$
