AV-unprocessed.smi:861|AV-procd|sdf|3968|dock8
  -GOLD-   22720 1443D 1   1.00000     0.00000
 Structure written by MMmdl.
 44 45  0  0  0  0  0  0  0  0  2 V2000
  152.4868  143.4686  160.3250 C   0  0  0  0  0  0  0  0  0  0  0  0
  152.3307  143.3211  158.8021 C   0  0  0  0  0  0  0  0  0  0  0  0
  152.4899  144.6855  158.1140 C   0  0  0  0  0  0  0  0  0  0  0  0
  150.9908  142.6671  158.4079 C   0  0  0  0  0  0  0  0  0  0  0  0
  150.9714  142.0921  156.9776 C   0  0  0  0  0  0  0  0  0  0  0  0
  149.5942  141.9598  156.4312 N   0  3  1  0  0  0  0  0  0  0  0  0
  149.5578  141.4479  155.0397 C   0  0  0  0  0  0  0  0  0  0  0  0
  149.7713  139.9240  155.0020 C   0  0  0  0  0  0  0  0  0  0  0  0
  148.7952  139.2880  155.8180 O   0  0  0  0  0  0  0  0  0  0  0  0
  148.8879  139.6707  157.1864 C   0  0  2  0  0  0  0  0  0  0  0  0
  147.8506  138.8407  157.9639 C   0  0  0  0  0  0  0  0  0  0  0  0
  148.3341  137.5062  158.3024 N   0  0  0  0  0  0  0  0  0  0  0  0
  147.9818  136.8601  159.4964 C   0  0  0  0  0  0  0  0  0  0  0  0
  148.2235  135.4771  159.6151 C   0  0  0  0  0  0  0  0  0  0  0  0
  147.8714  134.8537  160.8246 C   0  0  0  0  0  0  0  0  0  0  0  0
  147.3040  135.6623  161.8261 C   0  0  0  0  0  0  0  0  0  0  0  0
  147.0928  136.9871  161.6584 N   0  0  0  0  0  0  0  0  0  0  0  0
  147.4255  137.5772  160.5049 N   0  0  0  0  0  0  0  0  0  0  0  0
  148.6502  141.1955  157.2861 C   0  0  0  0  0  0  0  0  0  0  0  0
  151.6759  144.0594  160.7520 H   0  0  0  0  0  0  0  0  0  0  0  0
  153.4250  143.9652  160.5747 H   0  0  0  0  0  0  0  0  0  0  0  0
  152.4959  142.5010  160.8259 H   0  0  0  0  0  0  0  0  0  0  0  0
  153.1396  142.6830  158.4434 H   0  0  0  0  0  0  0  0  0  0  0  0
  151.7086  145.3798  158.4252 H   0  0  0  0  0  0  0  0  0  0  0  0
  152.4370  144.5900  157.0291 H   0  0  0  0  0  0  0  0  0  0  0  0
  153.4519  145.1389  158.3554 H   0  0  0  0  0  0  0  0  0  0  0  0
  150.7539  141.8918  159.1363 H   0  0  0  0  0  0  0  0  0  0  0  0
  150.1987  143.4128  158.4901 H   0  0  0  0  0  0  0  0  0  0  0  0
  151.5342  142.7707  156.3355 H   0  0  0  0  0  0  0  0  0  0  0  0
  151.4872  141.1335  156.9369 H   0  0  0  0  0  0  0  0  0  0  0  0
  148.5823  141.6840  154.6128 H   0  0  0  0  0  0  0  0  0  0  0  0
  150.2947  141.9596  154.4193 H   0  0  0  0  0  0  0  0  0  0  0  0
  149.6654  139.5582  153.9807 H   0  0  0  0  0  0  0  0  0  0  0  0
  150.7757  139.6539  155.3314 H   0  0  0  0  0  0  0  0  0  0  0  0
  149.8823  139.4113  157.5532 H   0  0  0  0  0  0  0  0  0  0  0  0
  147.5000  139.3803  158.8441 H   0  0  0  0  0  0  0  0  0  0  0  0
  146.9712  138.7003  157.3349 H   0  0  0  0  0  0  0  0  0  0  0  0
  148.9611  137.0450  157.6590 H   0  0  0  0  0  0  0  0  0  0  0  0
  148.6648  134.9103  158.8083 H   0  0  0  0  0  0  0  0  0  0  0  0
  148.0304  133.7968  160.9792 H   0  0  0  0  0  0  0  0  0  0  0  0
  147.0149  135.2409  162.7774 H   0  0  0  0  0  0  0  0  0  0  0  0
  148.7078  141.5336  158.3185 H   0  0  0  0  0  0  0  0  0  0  0  0
  147.6364  141.4232  156.9536 H   0  0  0  0  0  0  0  0  0  0  0  0
  149.2383  142.9042  156.3868 H   0  0  0  0  0  0  0  0  0  0  0  0
  1  2  1  0  0  0  0
  1 20  1  0  0  0  0
  1 21  1  0  0  0  0
  1 22  1  0  0  0  0
  2  3  1  0  0  0  0
  2  4  1  0  0  0  0
  2 23  1  0  0  0  0
  3 24  1  0  0  0  0
  3 25  1  0  0  0  0
  3 26  1  0  0  0  0
  4  5  1  0  0  0  0
  4 27  1  0  0  0  0
  4 28  1  0  0  0  0
  5  6  1  0  0  0  0
  5 29  1  0  0  0  0
  5 30  1  0  0  0  0
  6 19  1  0  0  0  0
  6  7  1  0  0  0  0
  6 44  1  0  0  0  0
  7  8  1  0  0  0  0
  7 31  1  0  0  0  0
  7 32  1  0  0  0  0
  8  9  1  0  0  0  0
  8 33  1  0  0  0  0
  8 34  1  0  0  0  0
  9 10  1  0  0  0  0
 10 11  1  0  0  0  0
 10 19  1  0  0  0  0
 10 35  1  0  0  0  0
 11 12  1  0  0  0  0
 11 36  1  0  0  0  0
 11 37  1  0  0  0  0
 12 13  1  0  0  0  0
 12 38  1  0  0  0  0
 13 18  1  0  0  0  0
 13 14  2  0  0  0  0
 14 15  1  0  0  0  0
 14 39  1  0  0  0  0
 15 16  2  0  0  0  0
 15 40  1  0  0  0  0
 16 17  1  0  0  0  0
 16 41  1  0  0  0  0
 17 18  2  0  0  0  0
 19 42  1  0  0  0  0
 19 43  1  0  0  0  0
M  CHG  1   6   1
M  END
> <s_m_source_file>
AV-unprocessed.smi

> <i_m_source_file_index>
861

> <i_lp_mmshare_version>
43012

> <i_f3d_flags>
0

> <s_epik_input>
W0NIM11bQ0hdKFtDSDNdKVtDSDJdW0NIMl1OMVtDSDJdW0NIMl1PW0NASF0oW0NIMl0xKVtDSDJdW05IXWMyW2NIXVtjSF1bY0hdbm4y

> <s_epik_cmdline>
J2VwaWtfcHl0aG9uJywgJy1waCcsICc3LjAnLCAnLXRuJywgJzgnLCAnLW1hJywgJzIwMCcsICctbWV0YWxfYmluZGluZycsICctaW1hZScsICc8aW5maWxlLm1hZT4nLCAnLW9tYWUnLCAnPG91dGZpbGUubWFlPic=

> <r_lp_tautomer_probability>
0.999978

> <r_epik_Ionization_Penalty>
0.114704

> <r_epik_Ionization_Penalty_Charging>
0.0953451

> <r_epik_Ionization_Penalty_Neutral>
0.0193593

> <r_epik_State_Penalty>
0.104983

> <r_epik_Charging_Adjusted_Penalty>
0.200328

> <i_epik_Tot_Q>
1

> <i_epik_Tot_abs_Q>
1

> <r_epik_Metal_State_Penalty>
0.100113

> <b_epik_Metal_Only>
0

> <s_lp_Force_Field>
OPLS_2005

> <r_lp_Energy>
26.2812

> <b_lp_Chiralities_Consistent>
1

> <s_lp_Variant>
AV-unprocessed.smi:861-3

> <Gold.Version>
5.8.1

> <Gold.Id.Protein>
6NUR|6NUR_protein|mol2

> <Gold.PLP.Fitness>
42.5415

> <Gold.PLP.PLP>
-34.9126

> <Gold.PLP.part.hbond>
-4.1870

> <Gold.PLP.part.metal>
0.0000

> <Gold.PLP.part.buried>
-3.6699

> <Gold.PLP.part.nonpolar>
-28.4882

> <Gold.PLP.part.repulsive>
0.1707

> <Gold.PLP.ligand.clash>
0.0000

> <Gold.PLP.ligand.torsion>
0.7134

> <Gold.PLP.Chemscore.Hbond>
2.9920

> <Gold.PLP.Chemscore.CHOScore>
0.0000

> <Gold.PLP.Chemscore.Metal>
0.0000

> <Gold.Chemscore.Hbonds>
donor molecule, donor type, donor heavy atom, donor atom, acceptor molecule, acceptor atom, score
      L1  H     6    44       P1  8028  2.00
      P1  H  6934  6947       L1    18  0.93

> <Gold.PLP.Chemscore.Internal.Correction>
0.0797

> <Gold.Rescore>
     Score         DG    S(hbond)    S(metal)    S(lipo)     H(rot)  DE(clash)    DE(int)     intcor
     17.21     -17.88       1.77        0.00      92.81       1.71       0.19       0.48       ----

> <Gold.Chemscore.Fitness>
17.2091

> <Gold.Chemscore.DG>
-17.8761

> <Gold.Chemscore.ZeroCoef>
-5.4800

> <Gold.Chemscore.Hbond>
1.7730

> <Gold.Chemscore.Metal>
0.0000

> <Gold.Chemscore.Lipo>
92.8084

> <Gold.Chemscore.Internal_Hbond>
0.0000

> <Gold.Chemscore.DEClash>
0.1865

> <Gold.Chemscore.DEInternal>
0.4805

> <Gold.Chemscore.Rot>
1.7127

> <Gold.Chemscore.Internal.Correction>
   9.000000E+99

> <Gold.Chemscore.Hbonds>
donor molecule, donor type, donor heavy atom, donor atom, acceptor molecule, acceptor atom, score
      L1  H     6    44       P1  8028  0.97
      P1  H  6934  6947       L1    18  0.19

> <Gold.Chemscore.Hbond.Weighted>
-5.9220

> <Gold.Chemscore.Metal.Weighted>
-0.0000

> <Gold.Chemscore.Lipo.Weighted>
-10.8586

> <Gold.Chemscore.Internal_Hbond.Weighted>
0.0000

> <Gold.Chemscore.DEClash.Weighted>
0.1865

> <Gold.Chemscore.DEInternal.Weighted>
0.4805

> <Gold.Chemscore.Rot.Weighted>
4.3844

> <Gold.Chemscore.Internal.Correction.Weighted>
   9.000000E+99

> <Gold.Protein.RotatedTorsions>
[ 6907 6896 6895 6894 ] final -173.21 input  -60.11 | X-H torsion
[ 7974 7965 7964 7962 ] final  -93.15 input  175.53 | X-H torsion
[ 8008 7997 7996 7995 ] final   16.33 input   59.86 | X-H torsion
[ 10167 10162 10161 10158 ] final -105.88 input  -65.29 | X-H torsion
[ 10718 10713 10712 10709 ] final  -83.68 input   66.30 | X-H torsion
[ 10763 10752 10751 10750 ] final  -68.49 input  -60.55 | X-H torsion
[ 11005 11000 10999 10996 ] final    5.35 input  -57.11 | X-H torsion

> <Gold.Protein.ActiveResidues>
 VAL166  LYS551  ARG553  GLY616  TRP617  ASP618  TYR619  PRO620  LYS621  CYS622 
 ASP623  PHE694  ASN695  SER759  ASP760  ASP761  ALA762  ILE779  LEU786  VAL792 
 PHE793  MET794  SER795  GLU796  ALA797  LYS798  CYS799  TRP800  GLU811  SER814 

> <Gold.Protein.RotatedAtoms>
  151.5525  133.3415  159.2955 H   0  0  0  0  0  0  0  0  0  0  0  0  # atno 6907 bound_to 6896
  150.8470  134.7785  159.6989 H   0  0  0  0  0  0  0  0  0  0  0  0  # atno 6908 bound_to 6896
  152.4525  134.5370  159.9879 H   0  0  0  0  0  0  0  0  0  0  0  0  # atno 6909 bound_to 6896
  145.3903  140.9527  143.2344 H   0  0  0  0  0  0  0  0  0  0  0  0  # atno 7974 bound_to 7965
  154.8755  140.2965  155.5456 H   0  0  0  0  0  0  0  0  0  0  0  0  # atno 8008 bound_to 7997
  156.3022  140.2452  156.3683 H   0  0  0  0  0  0  0  0  0  0  0  0  # atno 8009 bound_to 7997
  154.8772  140.0399  157.1750 H   0  0  0  0  0  0  0  0  0  0  0  0  # atno 8010 bound_to 7997
  140.1938  143.3871  152.1185 H   0  0  0  0  0  0  0  0  0  0  0  0  # atno 10167 bound_to 10162
  156.0015  130.4673  150.4294 H   0  0  0  0  0  0  0  0  0  0  0  0  # atno 10718 bound_to 10713
  154.3898  135.6055  153.5837 H   0  0  0  0  0  0  0  0  0  0  0  0  # atno 10763 bound_to 10752
  152.9787  135.5881  154.4311 H   0  0  0  0  0  0  0  0  0  0  0  0  # atno 10764 bound_to 10752
  154.4093  135.2844  155.2025 H   0  0  0  0  0  0  0  0  0  0  0  0  # atno 10765 bound_to 10752
  140.5717  134.0096  155.8011 H   0  0  0  0  0  0  0  0  0  0  0  0  # atno 11005 bound_to 11000
  144.8445  139.5419  143.6885 LP  0  0  0  0  0  0  0  0  0  0  0  0  # atno 17320 bound_to 7965
  146.2801  139.6854  142.9235 LP  0  0  0  0  0  0  0  0  0  0  0  0  # atno 17321 bound_to 7965
  139.5245  144.7084  151.5282 LP  0  0  0  0  0  0  0  0  0  0  0  0  # atno 17342 bound_to 10162
  140.6438  143.8836  150.6717 LP  0  0  0  0  0  0  0  0  0  0  0  0  # atno 17343 bound_to 10162
  157.2344  131.0511  151.2473 LP  0  0  0  0  0  0  0  0  0  0  0  0  # atno 17370 bound_to 10713
  157.3680  130.7166  149.6546 LP  0  0  0  0  0  0  0  0  0  0  0  0  # atno 17371 bound_to 10713
  141.1052  133.9705  157.3010 LP  0  0  0  0  0  0  0  0  0  0  0  0  # atno 17394 bound_to 11000
  139.9358  135.0196  156.8552 LP  0  0  0  0  0  0  0  0  0  0  0  0  # atno 17395 bound_to 11000

$$$$
