AV-unprocessed.smi:2772|AV-procd|sdf|10670|dock3
  -GOLD-   2272015113D 1   1.00000     0.00000
 Structure written by MMmdl.
 54 56  0  0  0  0  0  0  0  0  2 V2000
  153.5609  142.9902  160.3300 C   0  0  0  0  0  0  0  0  0  0  0  0
  152.6021  142.8312  159.1687 C   0  0  0  0  0  0  0  0  0  0  0  0
  152.1099  143.9574  158.4782 C   0  0  0  0  0  0  0  0  0  0  0  0
  151.2243  143.7543  157.4023 C   0  0  0  0  0  0  0  0  0  0  0  0
  150.8692  142.4299  157.0490 C   0  0  0  0  0  0  0  0  0  0  0  0
  149.9755  142.0904  155.9968 N   0  0  0  0  0  0  0  0  0  0  0  0
  149.5800  140.8721  155.5894 C   0  0  0  0  0  0  0  0  0  0  0  0
  149.9253  139.8031  156.0920 O   0  0  0  0  0  0  0  0  0  0  0  0
  148.7279  140.9589  154.5577 N   0  0  0  0  0  0  0  0  0  0  0  0
  148.1104  139.8213  153.8818 C   0  0  2  0  0  0  0  0  0  0  0  0
  147.3377  140.3004  152.6466 C   0  0  0  0  0  0  0  0  0  0  0  0
  146.6079  139.1382  151.9502 C   0  0  0  0  0  0  0  0  0  0  0  0
  145.6894  138.4184  152.8811 N   0  3  1  0  0  0  0  0  0  0  0  0
  144.8646  137.3354  152.2516 C   0  0  0  0  0  0  0  0  0  0  0  0
  144.0939  136.4545  153.2652 C   0  0  0  0  0  0  0  0  0  0  0  0
  143.3493  135.2998  152.5728 C   0  0  0  0  0  0  0  0  0  0  0  0
  144.2935  134.4597  151.8409 N   0  0  0  0  0  0  0  0  0  0  0  0
  143.5805  133.3380  151.2459 C   0  0  0  0  0  0  0  0  0  0  0  0
  144.9302  135.2423  150.7848 C   0  0  0  0  0  0  0  0  0  0  0  0
  145.7453  136.3934  151.3983 C   0  0  0  0  0  0  0  0  0  0  0  0
  146.4335  137.9347  154.0799 C   0  0  0  0  0  0  0  0  0  0  0  0
  147.1424  139.0812  154.8176 C   0  0  0  0  0  0  0  0  0  0  0  0
  151.4122  141.3781  157.8169 C   0  0  0  0  0  0  0  0  0  0  0  0
  152.2615  141.5642  158.8496 N   0  0  0  0  0  0  0  0  0  0  0  0
  153.5731  144.0187  160.6915 H   0  0  0  0  0  0  0  0  0  0  0  0
  154.5723  142.7237  160.0221 H   0  0  0  0  0  0  0  0  0  0  0  0
  153.2719  142.3440  161.1594 H   0  0  0  0  0  0  0  0  0  0  0  0
  152.3995  144.9571  158.7660 H   0  0  0  0  0  0  0  0  0  0  0  0
  150.8307  144.6145  156.8844 H   0  0  0  0  0  0  0  0  0  0  0  0
  149.5459  142.8753  155.5295 H   0  0  0  0  0  0  0  0  0  0  0  0
  148.4947  141.8781  154.2110 H   0  0  0  0  0  0  0  0  0  0  0  0
  148.8923  139.1331  153.5541 H   0  0  0  0  0  0  0  0  0  0  0  0
  146.6105  141.0607  152.9358 H   0  0  0  0  0  0  0  0  0  0  0  0
  148.0196  140.7785  151.9424 H   0  0  0  0  0  0  0  0  0  0  0  0
  146.0567  139.5720  151.1172 H   0  0  0  0  0  0  0  0  0  0  0  0
  147.3288  138.4347  151.5309 H   0  0  0  0  0  0  0  0  0  0  0  0
  144.1242  137.8092  151.6046 H   0  0  0  0  0  0  0  0  0  0  0  0
  144.7803  136.0474  154.0096 H   0  0  0  0  0  0  0  0  0  0  0  0
  143.3521  137.0441  153.8041 H   0  0  0  0  0  0  0  0  0  0  0  0
  142.8351  134.6985  153.3239 H   0  0  0  0  0  0  0  0  0  0  0  0
  142.5859  135.6901  151.8976 H   0  0  0  0  0  0  0  0  0  0  0  0
  144.2704  132.6921  150.7015 H   0  0  0  0  0  0  0  0  0  0  0  0
  142.8099  133.6770  150.5520 H   0  0  0  0  0  0  0  0  0  0  0  0
  143.1028  132.7345  152.0184 H   0  0  0  0  0  0  0  0  0  0  0  0
  145.5928  134.5986  150.2050 H   0  0  0  0  0  0  0  0  0  0  0  0
  144.1795  135.6328  150.0955 H   0  0  0  0  0  0  0  0  0  0  0  0
  146.2274  136.9292  150.5828 H   0  0  0  0  0  0  0  0  0  0  0  0
  146.5490  135.9818  152.0110 H   0  0  0  0  0  0  0  0  0  0  0  0
  145.7647  137.4469  154.7859 H   0  0  0  0  0  0  0  0  0  0  0  0
  147.1639  137.1837  153.7745 H   0  0  0  0  0  0  0  0  0  0  0  0
  147.6807  138.6810  155.6777 H   0  0  0  0  0  0  0  0  0  0  0  0
  146.3996  139.7752  155.2137 H   0  0  0  0  0  0  0  0  0  0  0  0
  151.1611  140.3513  157.5940 H   0  0  0  0  0  0  0  0  0  0  0  0
  145.0320  139.1127  153.2063 H   0  0  0  0  0  0  0  0  0  0  0  0
  1  2  1  0  0  0  0
  1 25  1  0  0  0  0
  1 26  1  0  0  0  0
  1 27  1  0  0  0  0
  2 24  1  0  0  0  0
  2  3  2  0  0  0  0
  3  4  1  0  0  0  0
  3 28  1  0  0  0  0
  4  5  2  0  0  0  0
  4 29  1  0  0  0  0
  5  6  1  0  0  0  0
  5 23  1  0  0  0  0
  6  7  1  0  0  0  0
  6 30  1  0  0  0  0
  7  8  2  0  0  0  0
  7  9  1  0  0  0  0
  9 10  1  0  0  0  0
  9 31  1  0  0  0  0
 10 22  1  0  0  0  0
 10 11  1  0  0  0  0
 10 32  1  0  0  0  0
 11 12  1  0  0  0  0
 11 33  1  0  0  0  0
 11 34  1  0  0  0  0
 12 13  1  0  0  0  0
 12 35  1  0  0  0  0
 12 36  1  0  0  0  0
 13 14  1  0  0  0  0
 13 21  1  0  0  0  0
 13 54  1  0  0  0  0
 14 20  1  0  0  0  0
 14 15  1  0  0  0  0
 14 37  1  0  0  0  0
 15 16  1  0  0  0  0
 15 38  1  0  0  0  0
 15 39  1  0  0  0  0
 16 17  1  0  0  0  0
 16 40  1  0  0  0  0
 16 41  1  0  0  0  0
 17 18  1  0  0  0  0
 17 19  1  0  0  0  0
 18 42  1  0  0  0  0
 18 43  1  0  0  0  0
 18 44  1  0  0  0  0
 19 20  1  0  0  0  0
 19 45  1  0  0  0  0
 19 46  1  0  0  0  0
 20 47  1  0  0  0  0
 20 48  1  0  0  0  0
 21 22  1  0  0  0  0
 21 49  1  0  0  0  0
 21 50  1  0  0  0  0
 22 51  1  0  0  0  0
 22 52  1  0  0  0  0
 23 24  2  0  0  0  0
 23 53  1  0  0  0  0
M  CHG  1  13   1
M  END
> <s_m_source_file>
AV-unprocessed.smi

> <i_m_source_file_index>
2772

> <i_lp_mmshare_version>
43012

> <i_f3d_flags>
0

> <s_epik_input>
W0NIM11jMVtjSF1bY0hdYyhbY0hdbjEpW05IXUMoPU8pW05IXVtDSF0yW0NIMl1bQ0gyXU4oW0NIMl1bQ0gyXTIpW0NIXTNbQ0gyXVtDSDJdTihbQ0gzXSlbQ0gyXVtDSDJdMw==

> <s_epik_cmdline>
J2VwaWtfcHl0aG9uJywgJy1waCcsICc3LjAnLCAnLXRuJywgJzgnLCAnLW1hJywgJzIwMCcsICctbWV0YWxfYmluZGluZycsICctaW1hZScsICc8aW5maWxlLm1hZT4nLCAnLW9tYWUnLCAnPG91dGZpbGUubWFlPic=

> <r_epik_Ionization_Penalty>
1.38854

> <r_epik_Ionization_Penalty_Charging>
0.00081195

> <r_epik_Ionization_Penalty_Neutral>
1.38772

> <r_epik_State_Penalty>
1.56122

> <r_epik_Charging_Adjusted_Penalty>
1.56203

> <i_epik_Tot_Q>
1

> <i_epik_Tot_abs_Q>
1

> <r_epik_Metal_State_Penalty>
1.5614

> <b_epik_Metal_Only>
0

> <s_lp_Force_Field>
OPLS_2005

> <r_lp_Energy>
35.3566

> <b_lp_Chiralities_Consistent>
1

> <s_lp_Variant>
AV-unprocessed.smi:2772-7

> <Gold.Version>
5.8.1

> <Gold.Id.Protein>
6NUR|6NUR_protein|mol2

> <Gold.PLP.Fitness>
46.9799

> <Gold.PLP.PLP>
-38.9004

> <Gold.PLP.part.hbond>
-2.0000

> <Gold.PLP.part.metal>
0.0000

> <Gold.PLP.part.buried>
3.3173

> <Gold.PLP.part.nonpolar>
-40.6253

> <Gold.PLP.part.repulsive>
0.3474

> <Gold.PLP.ligand.clash>
0.0000

> <Gold.PLP.ligand.torsion>
0.2480

> <Gold.PLP.Chemscore.Hbond>
2.8480

> <Gold.PLP.Chemscore.CHOScore>
0.0000

> <Gold.PLP.Chemscore.Metal>
0.0000

> <Gold.Chemscore.Hbonds>
donor molecule, donor type, donor heavy atom, donor atom, acceptor molecule, acceptor atom, score
      L1  H     6    30       P1  8028  0.96
      L1  H    13    54       P1 10175  1.53

> <Gold.PLP.Chemscore.Internal.Correction>
0.0316

> <Gold.Rescore>
     Score         DG    S(hbond)    S(metal)    S(lipo)     H(rot)  DE(clash)    DE(int)     intcor
     18.67     -22.81       1.80        0.00     122.84       1.19       2.19       1.94       ----

> <Gold.Chemscore.Fitness>
18.6705

> <Gold.Chemscore.DG>
-22.8057

> <Gold.Chemscore.ZeroCoef>
-5.4800

> <Gold.Chemscore.Hbond>
1.7971

> <Gold.Chemscore.Metal>
0.0000

> <Gold.Chemscore.Lipo>
122.8399

> <Gold.Chemscore.Internal_Hbond>
0.0000

> <Gold.Chemscore.DEClash>
2.1918

> <Gold.Chemscore.DEInternal>
1.9434

> <Gold.Chemscore.Rot>
1.1910

> <Gold.Chemscore.Internal.Correction>
   9.000000E+99

> <Gold.Chemscore.Hbonds>
donor molecule, donor type, donor heavy atom, donor atom, acceptor molecule, acceptor atom, score
      L1  H     6    30       P1  8028  0.91
      L1  H    13    54       P1 10175  0.72

> <Gold.Chemscore.Hbond.Weighted>
-6.0023

> <Gold.Chemscore.Metal.Weighted>
-0.0000

> <Gold.Chemscore.Lipo.Weighted>
-14.3723

> <Gold.Chemscore.Internal_Hbond.Weighted>
0.0000

> <Gold.Chemscore.DEClash.Weighted>
2.1918

> <Gold.Chemscore.DEInternal.Weighted>
1.9434

> <Gold.Chemscore.Rot.Weighted>
3.0489

> <Gold.Chemscore.Internal.Correction.Weighted>
   9.000000E+99

> <Gold.Protein.RotatedTorsions>
[ 6907 6896 6895 6894 ] final   22.07 input  -60.11 | X-H torsion
[ 7974 7965 7964 7962 ] final  -18.72 input  175.53 | X-H torsion
[ 8008 7997 7996 7995 ] final  -48.61 input   59.86 | X-H torsion
[ 10167 10162 10161 10158 ] final   -5.10 input  -65.29 | X-H torsion
[ 10718 10713 10712 10709 ] final   22.25 input   66.30 | X-H torsion
[ 10763 10752 10751 10750 ] final -125.32 input  -60.55 | X-H torsion
[ 11005 11000 10999 10996 ] final  -74.58 input  -57.11 | X-H torsion

> <Gold.Protein.ActiveResidues>
 VAL166  LYS551  ARG553  GLY616  TRP617  ASP618  TYR619  PRO620  LYS621  CYS622 
 ASP623  PHE694  ASN695  SER759  ASP760  ASP761  ALA762  ILE779  LEU786  VAL792 
 PHE793  MET794  SER795  GLU796  ALA797  LYS798  CYS799  TRP800  GLU811  SER814 

> <Gold.Protein.RotatedAtoms>
  151.9216  135.0296  160.0522 H   0  0  0  0  0  0  0  0  0  0  0  0  # atno 6907 bound_to 6896
  152.2195  133.4968  159.5163 H   0  0  0  0  0  0  0  0  0  0  0  0  # atno 6908 bound_to 6896
  150.6996  134.1278  159.4101 H   0  0  0  0  0  0  0  0  0  0  0  0  # atno 6909 bound_to 6896
  146.1878  140.3961  142.8469 H   0  0  0  0  0  0  0  0  0  0  0  0  # atno 7974 bound_to 7965
  154.4031  140.1317  156.4367 H   0  0  0  0  0  0  0  0  0  0  0  0  # atno 8008 bound_to 7997
  155.7498  140.3488  155.5125 H   0  0  0  0  0  0  0  0  0  0  0  0  # atno 8009 bound_to 7997
  155.8960  140.1011  157.1374 H   0  0  0  0  0  0  0  0  0  0  0  0  # atno 8010 bound_to 7997
  140.6951  143.6347  150.8490 H   0  0  0  0  0  0  0  0  0  0  0  0  # atno 10167 bound_to 10162
  157.1497  130.6669  149.6008 H   0  0  0  0  0  0  0  0  0  0  0  0  # atno 10718 bound_to 10713
  154.8734  135.4033  154.3249 H   0  0  0  0  0  0  0  0  0  0  0  0  # atno 10763 bound_to 10752
  153.4072  135.7019  153.6390 H   0  0  0  0  0  0  0  0  0  0  0  0  # atno 10764 bound_to 10752
  153.5108  135.3708  155.2556 H   0  0  0  0  0  0  0  0  0  0  0  0  # atno 10765 bound_to 10752
  141.1636  133.6916  156.7387 H   0  0  0  0  0  0  0  0  0  0  0  0  # atno 11005 bound_to 11000
  144.8429  140.6885  143.6218 LP  0  0  0  0  0  0  0  0  0  0  0  0  # atno 17320 bound_to 7965
  145.3886  139.1621  143.4241 LP  0  0  0  0  0  0  0  0  0  0  0  0  # atno 17321 bound_to 7965
  140.0064  143.5689  152.2856 LP  0  0  0  0  0  0  0  0  0  0  0  0  # atno 17342 bound_to 10162
  139.6397  144.7653  151.2364 LP  0  0  0  0  0  0  0  0  0  0  0  0  # atno 17343 bound_to 10162
  155.9773  130.4749  150.6583 LP  0  0  0  0  0  0  0  0  0  0  0  0  # atno 17370 bound_to 10713
  157.4232  131.0839  151.1111 LP  0  0  0  0  0  0  0  0  0  0  0  0  # atno 17371 bound_to 10713
  140.2691  134.8406  157.3830 LP  0  0  0  0  0  0  0  0  0  0  0  0  # atno 17394 bound_to 11000
  140.1538  134.4815  155.7942 LP  0  0  0  0  0  0  0  0  0  0  0  0  # atno 17395 bound_to 11000

$$$$
