AV-unprocessed.smi:67|AV-procd|sdf|633|dock1
  -GOLD-   2262016523D 1   1.00000     0.00000
 Structure written by MMmdl.
 48 50  0  0  0  0  0  0  0  0  2 V2000
  149.7034  140.7857  153.5063 O   0  0  0  0  0  0  0  0  0  0  0  0
  149.6771  140.1574  154.7758 C   0  0  1  0  0  0  0  0  0  0  0  0
  149.3282  138.6579  154.5970 C   0  0  0  0  0  0  0  0  0  0  0  0
  149.4550  137.8064  155.7851 N   0  0  0  0  0  0  0  0  0  0  0  0
  149.7690  136.4122  155.4522 C   0  0  0  0  0  0  0  0  0  0  0  0
  149.9790  135.5304  156.6948 C   0  0  0  0  0  0  0  0  0  0  0  0
  148.7590  135.6258  157.6340 C   0  0  0  0  0  0  0  0  0  0  0  0
  148.8207  134.7874  158.7911 O   0  0  0  0  0  0  0  0  0  0  0  0
  148.2389  135.1175  160.0002 C   0  0  0  0  0  0  0  0  0  0  0  0
  148.6262  136.1862  160.8468 C   0  0  0  0  0  0  0  0  0  0  0  0
  147.9531  136.4162  162.0618 C   0  0  0  0  0  0  0  0  0  0  0  0
  146.8841  135.5887  162.4494 C   0  0  0  0  0  0  0  0  0  0  0  0
  146.4793  134.5242  161.6177 C   0  0  0  0  0  0  0  0  0  0  0  0
  145.3280  133.6113  162.0123 C   0  0  0  0  0  0  0  0  0  0  0  0
  144.4201  133.5793  161.0367 F   0  0  0  0  0  0  0  0  0  0  0  0
  145.7910  132.3773  162.2082 F   0  0  0  0  0  0  0  0  0  0  0  0
  144.7285  134.0237  163.1299 F   0  0  0  0  0  0  0  0  0  0  0  0
  147.1635  134.2989  160.4048 C   0  0  0  0  0  0  0  0  0  0  0  0
  148.3306  137.0827  157.9045 C   0  0  0  0  0  0  0  0  0  0  0  0
  148.2244  137.8553  156.5793 C   0  0  0  0  0  0  0  0  0  0  0  0
  150.9753  140.4368  155.5415 C   0  0  0  0  0  0  0  0  0  0  0  0
  150.7935  141.8541  156.0896 C   0  0  0  0  0  0  0  0  0  0  0  0
  149.3389  142.0669  156.2195 N   0  3  0  0  0  0  0  0  0  0  0  0
  148.6375  140.9152  155.6180 C   0  0  0  0  0  0  0  0  0  0  0  0
  149.5198  140.1349  152.8455 H   0  0  0  0  0  0  0  0  0  0  0  0
  148.2863  138.6125  154.2779 H   0  0  0  0  0  0  0  0  0  0  0  0
  149.8985  138.2359  153.7679 H   0  0  0  0  0  0  0  0  0  0  0  0
  148.9733  135.9918  154.8354 H   0  0  0  0  0  0  0  0  0  0  0  0
  150.6802  136.3611  154.8592 H   0  0  0  0  0  0  0  0  0  0  0  0
  150.1277  134.4944  156.3893 H   0  0  0  0  0  0  0  0  0  0  0  0
  150.9020  135.8329  157.1822 H   0  0  0  0  0  0  0  0  0  0  0  0
  147.9335  135.1901  157.0691 H   0  0  0  0  0  0  0  0  0  0  0  0
  149.4361  136.8514  160.6025 H   0  0  0  0  0  0  0  0  0  0  0  0
  148.2597  137.2316  162.7003 H   0  0  0  0  0  0  0  0  0  0  0  0
  146.3822  135.7785  163.3867 H   0  0  0  0  0  0  0  0  0  0  0  0
  146.8582  133.4790  159.7710 H   0  0  0  0  0  0  0  0  0  0  0  0
  147.3670  137.0941  158.4144 H   0  0  0  0  0  0  0  0  0  0  0  0
  149.0216  137.6060  158.5601 H   0  0  0  0  0  0  0  0  0  0  0  0
  147.9709  138.8918  156.8046 H   0  0  0  0  0  0  0  0  0  0  0  0
  147.3934  137.4584  155.9939 H   0  0  0  0  0  0  0  0  0  0  0  0
  151.0669  139.7402  156.3762 H   0  0  0  0  0  0  0  0  0  0  0  0
  151.8709  140.3331  154.9279 H   0  0  0  0  0  0  0  0  0  0  0  0
  151.3046  141.9983  157.0419 H   0  0  0  0  0  0  0  0  0  0  0  0
  151.1861  142.5860  155.3826 H   0  0  0  0  0  0  0  0  0  0  0  0
  149.0789  142.1564  157.1912 H   0  0  0  0  0  0  0  0  0  0  0  0
  147.7608  141.2273  155.0486 H   0  0  0  0  0  0  0  0  0  0  0  0
  148.2855  140.2922  156.4412 H   0  0  0  0  0  0  0  0  0  0  0  0
  149.0895  142.9099  155.7218 H   0  0  0  0  0  0  0  0  0  0  0  0
  1  2  1  0  0  0  0
  1 25  1  0  0  0  0
  2 24  1  0  0  0  0
  2  3  1  0  0  0  0
  2 21  1  0  0  0  0
  3  4  1  0  0  0  0
  3 26  1  0  0  0  0
  3 27  1  0  0  0  0
  4 20  1  0  0  0  0
  4  5  1  0  0  0  0
  5  6  1  0  0  0  0
  5 28  1  0  0  0  0
  5 29  1  0  0  0  0
  6  7  1  0  0  0  0
  6 30  1  0  0  0  0
  6 31  1  0  0  0  0
  7  8  1  0  0  0  0
  7 19  1  0  0  0  0
  7 32  1  0  0  0  0
  8  9  1  0  0  0  0
  9 18  1  0  0  0  0
  9 10  2  0  0  0  0
 10 11  1  0  0  0  0
 10 33  1  0  0  0  0
 11 12  2  0  0  0  0
 11 34  1  0  0  0  0
 12 13  1  0  0  0  0
 12 35  1  0  0  0  0
 13 14  1  0  0  0  0
 13 18  2  0  0  0  0
 14 15  1  0  0  0  0
 14 16  1  0  0  0  0
 14 17  1  0  0  0  0
 18 36  1  0  0  0  0
 19 20  1  0  0  0  0
 19 37  1  0  0  0  0
 19 38  1  0  0  0  0
 20 39  1  0  0  0  0
 20 40  1  0  0  0  0
 21 22  1  0  0  0  0
 21 41  1  0  0  0  0
 21 42  1  0  0  0  0
 22 23  1  0  0  0  0
 22 43  1  0  0  0  0
 22 44  1  0  0  0  0
 23 24  1  0  0  0  0
 23 45  1  0  0  0  0
 23 48  1  0  0  0  0
 24 46  1  0  0  0  0
 24 47  1  0  0  0  0
M  CHG  1  23   1
M  END
> <s_m_source_file>
AV-unprocessed.smi

> <i_m_source_file_index>
67

> <i_lp_mmshare_version>
43012

> <i_f3d_flags>
0

> <s_epik_input>
W0NIMl0xW05IXVtDSDJdW0NIMl1bQ0BAXTEoW09IXSlbQ0gyXU4yW0NIMl1bQ0gyXVtDSF0oW0NIMl1bQ0gyXTIpT2MzW2NIXVtjSF1bY0hdYyhDKEYpKEYpRilbY0hdMw==

> <s_epik_cmdline>
J2VwaWtfcHl0aG9uJywgJy1waCcsICc3LjAnLCAnLXRuJywgJzgnLCAnLW1hJywgJzIwMCcsICctbWV0YWxfYmluZGluZycsICctaW1hZScsICc8aW5maWxlLm1hZT4nLCAnLW9tYWUnLCAnPG91dGZpbGUubWFlPic=

> <r_lp_tautomer_probability>
1

> <r_epik_Ionization_Penalty>
1.18002

> <r_epik_Ionization_Penalty_Charging>
0.00399663

> <r_epik_Ionization_Penalty_Neutral>
1.17602

> <r_epik_State_Penalty>
1.25421

> <r_epik_Charging_Adjusted_Penalty>
1.25821

> <i_epik_Tot_Q>
1

> <i_epik_Tot_abs_Q>
1

> <r_epik_Metal_State_Penalty>
1.25387

> <b_epik_Metal_Only>
0

> <s_lp_Force_Field>
OPLS_2005

> <r_lp_Energy>
63.3962

> <b_lp_Chiralities_Consistent>
1

> <s_lp_Variant>
AV-unprocessed.smi:67-5

> <Gold.Version>
5.8.1

> <Gold.Id.Protein>
6NUR|6NUR_protein|mol2

> <Gold.PLP.Fitness>
52.0129

> <Gold.PLP.PLP>
-38.9060

> <Gold.PLP.part.hbond>
-4.6050

> <Gold.PLP.part.metal>
0.0000

> <Gold.PLP.part.buried>
-3.7413

> <Gold.PLP.part.nonpolar>
-30.1819

> <Gold.PLP.part.repulsive>
0.1033

> <Gold.PLP.ligand.clash>
0.0254

> <Gold.PLP.ligand.torsion>
1.0511

> <Gold.PLP.Chemscore.Hbond>
4.9181

> <Gold.PLP.Chemscore.CHOScore>
0.0000

> <Gold.PLP.Chemscore.Metal>
0.0000

> <Gold.Chemscore.Hbonds>
donor molecule, donor type, donor heavy atom, donor atom, acceptor molecule, acceptor atom, score
      L1  H     1    25       P1  7957  0.72
      L1  H    23    48       P1  8028  2.00
      P1  H  6896  6907       L1     8  1.00
      P1  H  7989  7998       L1     1  0.25
      P1  H  8011  8017       L1     1  0.95

> <Gold.PLP.Chemscore.Internal.Correction>
0.4802

> <Gold.Rescore>
     Score         DG    S(hbond)    S(metal)    S(lipo)     H(rot)  DE(clash)    DE(int)     intcor
     17.99     -19.00       2.55        0.00      90.62       2.19       0.03       0.97       ----

> <Gold.Chemscore.Fitness>
17.9916

> <Gold.Chemscore.DG>
-18.9992

> <Gold.Chemscore.ZeroCoef>
-5.4800

> <Gold.Chemscore.Hbond>
2.5509

> <Gold.Chemscore.Metal>
0.0000

> <Gold.Chemscore.Lipo>
90.6191

> <Gold.Chemscore.Internal_Hbond>
0.0000

> <Gold.Chemscore.DEClash>
0.0343

> <Gold.Chemscore.DEInternal>
0.9733

> <Gold.Chemscore.Rot>
2.1887

> <Gold.Chemscore.Internal.Correction>
   9.000000E+99

> <Gold.Chemscore.Hbonds>
donor molecule, donor type, donor heavy atom, donor atom, acceptor molecule, acceptor atom, score
      L1  H     1    25       P1  7957  0.72
      L1  H    23    48       P1  8028  0.95
      P1  H  6896  6907       L1     8  0.24
      P1  H  7989  7998       L1     1  0.01
      P1  H  8011  8017       L1     1  0.20

> <Gold.Chemscore.Hbond.Weighted>
-8.5200

> <Gold.Chemscore.Metal.Weighted>
-0.0000

> <Gold.Chemscore.Lipo.Weighted>
-10.6024

> <Gold.Chemscore.Internal_Hbond.Weighted>
0.0000

> <Gold.Chemscore.DEClash.Weighted>
0.0343

> <Gold.Chemscore.DEInternal.Weighted>
0.9733

> <Gold.Chemscore.Rot.Weighted>
5.6032

> <Gold.Chemscore.Internal.Correction.Weighted>
   9.000000E+99

> <Gold.Protein.RotatedTorsions>
[ 6907 6896 6895 6894 ] final  -90.23 input  -60.11 | X-H torsion
[ 7974 7965 7964 7962 ] final  146.84 input  175.53 | X-H torsion
[ 8008 7997 7996 7995 ] final   37.94 input   59.86 | X-H torsion
[ 10167 10162 10161 10158 ] final  124.16 input  -65.29 | X-H torsion
[ 10718 10713 10712 10709 ] final  -25.36 input   66.30 | X-H torsion
[ 10763 10752 10751 10750 ] final  -47.55 input  -60.55 | X-H torsion
[ 11005 11000 10999 10996 ] final   84.63 input  -57.11 | X-H torsion

> <Gold.Protein.ActiveResidues>
 VAL166  LYS551  ARG553  GLY616  TRP617  ASP618  TYR619  PRO620  LYS621  CYS622 
 ASP623  PHE694  ASN695  SER759  ASP760  ASP761  ALA762  ILE779  LEU786  VAL792 
 PHE793  MET794  SER795  GLU796  ALA797  LYS798  CYS799  TRP800  GLU811  SER814 

> <Gold.Protein.RotatedAtoms>
  150.6880  134.2464  159.4492 H   0  0  0  0  0  0  0  0  0  0  0  0  # atno 6907 bound_to 6896
  152.0404  134.9712  160.0583 H   0  0  0  0  0  0  0  0  0  0  0  0  # atno 6908 bound_to 6896
  152.1216  133.4322  159.4715 H   0  0  0  0  0  0  0  0  0  0  0  0  # atno 6909 bound_to 6896
  144.8639  139.5954  143.5918 H   0  0  0  0  0  0  0  0  0  0  0  0  # atno 7974 bound_to 7965
  155.2120  140.3324  155.4327 H   0  0  0  0  0  0  0  0  0  0  0  0  # atno 8008 bound_to 7997
  156.2367  140.1875  156.7149 H   0  0  0  0  0  0  0  0  0  0  0  0  # atno 8009 bound_to 7997
  154.6072  140.0614  156.9432 H   0  0  0  0  0  0  0  0  0  0  0  0  # atno 8010 bound_to 7997
  139.5758  144.6962  151.3658 H   0  0  0  0  0  0  0  0  0  0  0  0  # atno 10167 bound_to 10162
  156.4654  130.4513  149.6902 H   0  0  0  0  0  0  0  0  0  0  0  0  # atno 10718 bound_to 10713
  154.0633  135.6615  153.4814 H   0  0  0  0  0  0  0  0  0  0  0  0  # atno 10763 bound_to 10752
  153.0418  135.5140  154.7638 H   0  0  0  0  0  0  0  0  0  0  0  0  # atno 10764 bound_to 10752
  154.6681  135.3025  154.9745 H   0  0  0  0  0  0  0  0  0  0  0  0  # atno 10765 bound_to 10752
  139.8995  134.8230  156.2471 H   0  0  0  0  0  0  0  0  0  0  0  0  # atno 11005 bound_to 11000
  146.2881  139.7061  142.9181 LP  0  0  0  0  0  0  0  0  0  0  0  0  # atno 17320 bound_to 7965
  145.4259  141.0411  143.2938 LP  0  0  0  0  0  0  0  0  0  0  0  0  # atno 17321 bound_to 7965
  140.7040  143.7560  150.7451 LP  0  0  0  0  0  0  0  0  0  0  0  0  # atno 17342 bound_to 10162
  140.1079  143.4726  152.2387 LP  0  0  0  0  0  0  0  0  0  0  0  0  # atno 17343 bound_to 10162
  156.3673  130.7512  151.2492 LP  0  0  0  0  0  0  0  0  0  0  0  0  # atno 17370 bound_to 10713
  157.7495  131.0333  150.4265 LP  0  0  0  0  0  0  0  0  0  0  0  0  # atno 17371 bound_to 10713
  141.0248  133.7021  156.1328 LP  0  0  0  0  0  0  0  0  0  0  0  0  # atno 17394 bound_to 11000
  140.7182  134.4387  157.5577 LP  0  0  0  0  0  0  0  0  0  0  0  0  # atno 17395 bound_to 11000

$$$$
