AV-unprocessed.smi:1832|AV-procd|sdf|7464|dock6
  -GOLD-   22720 9153D 1   1.00000     0.00000
 Structure written by MMmdl.
 35 35  0  0  0  0  0  0  0  0  1 V2000
  152.5478  143.1863  161.9260 C   0  0  0  0  0  0  0  0  0  0  0  0
  153.4768  142.6205  160.8467 C   0  0  0  0  0  0  0  0  0  0  0  0
  152.9094  141.3512  160.1911 C   0  0  0  0  0  0  0  0  0  0  0  0
  152.3199  141.6350  158.8879 N   0  0  0  0  0  0  0  0  0  0  0  0
  151.8078  140.7162  158.0553 C   0  0  0  0  0  0  0  0  0  0  0  0
  151.7974  139.5101  158.3065 O   0  0  0  0  0  0  0  0  0  0  0  0
  151.2421  141.2511  156.7317 C   0  0  0  0  0  0  0  0  0  0  0  0
  150.8497  140.1863  155.7926 N   0  0  0  0  0  0  0  0  0  0  0  0
  149.5594  140.2712  155.2322 C   0  0  0  0  0  0  0  0  0  0  0  0
  149.0935  139.3559  154.3537 C   0  0  0  0  0  0  0  0  0  0  0  0
  147.7617  139.4215  153.7447 C   0  0  0  0  0  0  0  0  0  0  0  0
  146.8473  140.1363  154.1572 O   0  0  0  0  0  0  0  0  0  0  0  0
  147.6029  138.6230  152.6750 N   0  0  0  0  0  0  0  0  0  0  0  0
  146.3728  138.5079  151.9065 C   0  0  0  0  0  0  0  0  0  0  0  0
  149.9787  138.2618  154.0029 C   0  0  0  0  0  0  0  0  0  0  0  0
  151.2155  138.1782  154.5308 C   0  0  0  0  0  0  0  0  0  0  0  0
  151.7180  139.1780  155.4772 C   0  0  0  0  0  0  0  0  0  0  0  0
  152.8500  139.1127  155.9572 O   0  0  0  0  0  0  0  0  0  0  0  0
  152.9730  144.0851  162.3728 H   0  0  0  0  0  0  0  0  0  0  0  0
  152.3867  142.4619  162.7247 H   0  0  0  0  0  0  0  0  0  0  0  0
  151.5751  143.4498  161.5098 H   0  0  0  0  0  0  0  0  0  0  0  0
  153.6477  143.3820  160.0850 H   0  0  0  0  0  0  0  0  0  0  0  0
  154.4490  142.4057  161.2918 H   0  0  0  0  0  0  0  0  0  0  0  0
  153.6853  140.5896  160.0943 H   0  0  0  0  0  0  0  0  0  0  0  0
  152.1326  140.9224  160.8247 H   0  0  0  0  0  0  0  0  0  0  0  0
  152.2933  142.6029  158.6011 H   0  0  0  0  0  0  0  0  0  0  0  0
  150.3917  141.9032  156.9401 H   0  0  0  0  0  0  0  0  0  0  0  0
  151.9922  141.9012  156.2795 H   0  0  0  0  0  0  0  0  0  0  0  0
  148.9984  141.1331  155.5638 H   0  0  0  0  0  0  0  0  0  0  0  0
  148.3854  138.0571  152.3807 H   0  0  0  0  0  0  0  0  0  0  0  0
  146.5054  137.7865  151.1002 H   0  0  0  0  0  0  0  0  0  0  0  0
  146.0994  139.4670  151.4651 H   0  0  0  0  0  0  0  0  0  0  0  0
  145.5512  138.1666  152.5375 H   0  0  0  0  0  0  0  0  0  0  0  0
  149.6562  137.4983  153.3096 H   0  0  0  0  0  0  0  0  0  0  0  0
  151.8543  137.3537  154.2506 H   0  0  0  0  0  0  0  0  0  0  0  0
  1  2  1  0  0  0  0
  1 19  1  0  0  0  0
  1 20  1  0  0  0  0
  1 21  1  0  0  0  0
  2  3  1  0  0  0  0
  2 22  1  0  0  0  0
  2 23  1  0  0  0  0
  3  4  1  0  0  0  0
  3 24  1  0  0  0  0
  3 25  1  0  0  0  0
  4  5  1  0  0  0  0
  4 26  1  0  0  0  0
  5  6  2  0  0  0  0
  5  7  1  0  0  0  0
  7  8  1  0  0  0  0
  7 27  1  0  0  0  0
  7 28  1  0  0  0  0
  8 17  1  0  0  0  0
  8  9  1  0  0  0  0
  9 10  2  0  0  0  0
  9 29  1  0  0  0  0
 10 11  1  0  0  0  0
 10 15  1  0  0  0  0
 11 12  2  0  0  0  0
 11 13  1  0  0  0  0
 13 14  1  0  0  0  0
 13 30  1  0  0  0  0
 14 31  1  0  0  0  0
 14 32  1  0  0  0  0
 14 33  1  0  0  0  0
 15 16  2  0  0  0  0
 15 34  1  0  0  0  0
 16 17  1  0  0  0  0
 16 35  1  0  0  0  0
 17 18  2  0  0  0  0
M  END
> <s_m_source_file>
AV-unprocessed.smi

> <i_m_source_file_index>
1832

> <i_lp_mmshare_version>
43012

> <i_f3d_flags>
0

> <s_epik_input>
W0NIM11bQ0gyXVtDSDJdW05IXUMoPU8pW0NIMl1uMVtjSF1jKEMoPU8pW05IXVtDSDNdKVtjSF1bY0hdYzE9Tw==

> <s_epik_cmdline>
J2VwaWtfcHl0aG9uJywgJy1waCcsICc3LjAnLCAnLXRuJywgJzgnLCAnLW1hJywgJzIwMCcsICctbWV0YWxfYmluZGluZycsICctaW1hZScsICc8aW5maWxlLm1hZT4nLCAnLW9tYWUnLCAnPG91dGZpbGUubWFlPic=

> <r_lp_tautomer_probability>
1

> <r_epik_Ionization_Penalty>
3.67838e-07

> <r_epik_Ionization_Penalty_Charging>
4.72549e-08

> <r_epik_Ionization_Penalty_Neutral>
3.20583e-07

> <r_epik_State_Penalty>
-0

> <r_epik_Charging_Adjusted_Penalty>
4.72549e-08

> <i_epik_Tot_Q>
0

> <i_epik_Tot_abs_Q>
0

> <r_epik_Metal_State_Penalty>
-0

> <b_epik_Metal_Only>
0

> <s_lp_Force_Field>
OPLS_2005

> <r_lp_Energy>
14.7098

> <b_lp_Chiralities_Consistent>
1

> <s_lp_Variant>
AV-unprocessed.smi:1832-1

> <Gold.Version>
5.8.1

> <Gold.Id.Protein>
6NUR|6NUR_protein|mol2

> <Gold.PLP.Fitness>
43.4611

> <Gold.PLP.PLP>
-38.9539

> <Gold.PLP.part.hbond>
-3.0000

> <Gold.PLP.part.metal>
0.0000

> <Gold.PLP.part.buried>
-2.3299

> <Gold.PLP.part.nonpolar>
-34.5923

> <Gold.PLP.part.repulsive>
0.3000

> <Gold.PLP.ligand.clash>
0.1606

> <Gold.PLP.ligand.torsion>
0.5261

> <Gold.PLP.Chemscore.Hbond>
1.8960

> <Gold.PLP.Chemscore.CHOScore>
0.0000

> <Gold.PLP.Chemscore.Metal>
0.0000

> <Gold.Chemscore.Hbonds>
donor molecule, donor type, donor heavy atom, donor atom, acceptor molecule, acceptor atom, score
      L1  H    13    30       P1  7948  0.91
      P1  H  7997  8010       L1    18  1.00

> <Gold.PLP.Chemscore.Internal.Correction>
0.0320

> <Gold.Rescore>
     Score         DG    S(hbond)    S(metal)    S(lipo)     H(rot)  DE(clash)    DE(int)     intcor
     15.90     -16.42       1.95        0.00      76.65       1.78       0.04       0.48       ----

> <Gold.Chemscore.Fitness>
15.8981

> <Gold.Chemscore.DG>
-16.4159

> <Gold.Chemscore.ZeroCoef>
-5.4800

> <Gold.Chemscore.Hbond>
1.9524

> <Gold.Chemscore.Metal>
0.0000

> <Gold.Chemscore.Lipo>
76.6492

> <Gold.Chemscore.Internal_Hbond>
0.0000

> <Gold.Chemscore.DEClash>
0.0400

> <Gold.Chemscore.DEInternal>
0.4778

> <Gold.Chemscore.Rot>
1.7785

> <Gold.Chemscore.Internal.Correction>
   9.000000E+99

> <Gold.Chemscore.Hbonds>
donor molecule, donor type, donor heavy atom, donor atom, acceptor molecule, acceptor atom, score
      L1  H    13    30       P1  7948  0.89
      P1  H  7997  8010       L1    18  1.00

> <Gold.Chemscore.Hbond.Weighted>
-6.5210

> <Gold.Chemscore.Metal.Weighted>
-0.0000

> <Gold.Chemscore.Lipo.Weighted>
-8.9680

> <Gold.Chemscore.Internal_Hbond.Weighted>
0.0000

> <Gold.Chemscore.DEClash.Weighted>
0.0400

> <Gold.Chemscore.DEInternal.Weighted>
0.4778

> <Gold.Chemscore.Rot.Weighted>
4.5530

> <Gold.Chemscore.Internal.Correction.Weighted>
   9.000000E+99

> <Gold.Protein.RotatedTorsions>
[ 6907 6896 6895 6894 ] final  111.17 input  -60.11 | X-H torsion
[ 7974 7965 7964 7962 ] final -171.36 input  175.53 | X-H torsion
[ 8008 7997 7996 7995 ] final   76.65 input   59.86 | X-H torsion
[ 10167 10162 10161 10158 ] final   -0.39 input  -65.29 | X-H torsion
[ 10718 10713 10712 10709 ] final  -23.79 input   66.30 | X-H torsion
[ 10763 10752 10751 10750 ] final  161.41 input  -60.55 | X-H torsion
[ 11005 11000 10999 10996 ] final -167.37 input  -57.11 | X-H torsion

> <Gold.Protein.ActiveResidues>
 VAL166  LYS551  ARG553  GLY616  TRP617  ASP618  TYR619  PRO620  LYS621  CYS622 
 ASP623  PHE694  ASN695  SER759  ASP760  ASP761  ALA762  ILE779  LEU786  VAL792 
 PHE793  MET794  SER795  GLU796  ALA797  LYS798  CYS799  TRP800  GLU811  SER814 

> <Gold.Protein.RotatedAtoms>
  152.4983  133.8696  159.7291 H   0  0  0  0  0  0  0  0  0  0  0  0  # atno 6907 bound_to 6896
  150.9186  133.6899  159.2844 H   0  0  0  0  0  0  0  0  0  0  0  0  # atno 6908 bound_to 6896
  151.4283  135.1011  159.9687 H   0  0  0  0  0  0  0  0  0  0  0  0  # atno 6909 bound_to 6896
  144.7158  140.1933  143.6346 H   0  0  0  0  0  0  0  0  0  0  0  0  # atno 7974 bound_to 7965
  155.8303  140.3466  155.5568 H   0  0  0  0  0  0  0  0  0  0  0  0  # atno 8008 bound_to 7997
  155.8249  140.0918  157.1847 H   0  0  0  0  0  0  0  0  0  0  0  0  # atno 8009 bound_to 7997
  154.4004  140.1423  156.3532 H   0  0  0  0  0  0  0  0  0  0  0  0  # atno 8010 bound_to 7997
  140.6765  143.6900  150.8035 H   0  0  0  0  0  0  0  0  0  0  0  0  # atno 10167 bound_to 10162
  156.4864  130.4556  149.6781 H   0  0  0  0  0  0  0  0  0  0  0  0  # atno 10718 bound_to 10713
  154.2625  135.2768  155.2772 H   0  0  0  0  0  0  0  0  0  0  0  0  # atno 10763 bound_to 10752
  154.5371  135.5713  153.6811 H   0  0  0  0  0  0  0  0  0  0  0  0  # atno 10764 bound_to 10752
  152.9959  135.6242  154.2776 H   0  0  0  0  0  0  0  0  0  0  0  0  # atno 10765 bound_to 10752
  140.5540  134.5400  157.5129 H   0  0  0  0  0  0  0  0  0  0  0  0  # atno 11005 bound_to 11000
  145.8748  139.2291  143.1640 LP  0  0  0  0  0  0  0  0  0  0  0  0  # atno 17320 bound_to 7965
  146.0051  140.8486  142.9999 LP  0  0  0  0  0  0  0  0  0  0  0  0  # atno 17321 bound_to 7965
  140.0594  143.5170  152.2635 LP  0  0  0  0  0  0  0  0  0  0  0  0  # atno 17342 bound_to 10162
  139.6061  144.7596  151.3059 LP  0  0  0  0  0  0  0  0  0  0  0  0  # atno 17343 bound_to 10162
  156.3470  130.7412  151.2366 LP  0  0  0  0  0  0  0  0  0  0  0  0  # atno 17370 bound_to 10713
  157.7478  131.0387  150.4518 LP  0  0  0  0  0  0  0  0  0  0  0  0  # atno 17371 bound_to 10713
  139.9441  134.7734  156.0606 LP  0  0  0  0  0  0  0  0  0  0  0  0  # atno 17394 bound_to 11000
  141.1155  133.6629  156.3082 LP  0  0  0  0  0  0  0  0  0  0  0  0  # atno 17395 bound_to 11000

$$$$
