AV-unprocessed.smi:2734|AV-procd|sdf|10540|dock2
  -GOLD-   2272014583D 1   1.00000     0.00000
 Structure written by MMmdl.
 41 43  0  0  0  0  0  0  0  0  2 V2000
  152.5560  143.5507  161.2995 C   0  0  0  0  0  0  0  0  0  0  0  0
  152.2943  142.7716  160.0218 C   0  0  0  0  0  0  0  0  0  0  0  0
  151.3801  143.3020  159.0838 C   0  0  0  0  0  0  0  0  0  0  0  0
  151.1584  142.5644  157.9268 C   0  0  0  0  0  0  0  0  0  0  0  0
  150.3272  142.8099  156.8321 N   0  3  0  0  0  0  0  0  0  0  0  0
  150.4406  141.7899  155.9373 C   0  0  0  0  0  0  0  0  0  0  0  0
  151.3322  140.8959  156.4441 N   0  0  0  0  0  0  0  0  0  0  0  0
  151.8017  139.6221  155.8805 C   0  0  0  0  0  0  0  0  0  0  0  0
  150.6965  138.8486  155.1326 C   0  0  1  0  0  0  0  0  0  0  0  0
  150.4357  139.5329  153.9247 O   0  0  0  0  0  0  0  0  0  0  0  0
  151.0598  137.3850  154.8218 C   0  0  0  0  0  0  0  0  0  0  0  0
  150.1379  136.2040  155.8514 S   0  0  0  0  0  0  0  0  0  0  0  0
  150.8681  136.5549  157.4217 C   0  0  0  0  0  0  0  0  0  0  0  0
  152.1299  136.3346  157.7752 N   0  0  0  0  0  0  0  0  0  0  0  0
  152.1940  136.7797  159.0816 N   0  0  0  0  0  0  0  0  0  0  0  0
  151.0426  137.2356  159.4813 N   0  0  0  0  0  0  0  0  0  0  0  0
  150.1882  137.1000  158.4380 N   0  0  0  0  0  0  0  0  0  0  0  0
  148.8041  137.5172  158.5436 C   0  0  0  0  0  0  0  0  0  0  0  0
  151.8112  141.3404  157.6831 C   0  0  0  0  0  0  0  0  0  0  0  0
  152.7182  140.8061  158.5960 C   0  0  0  0  0  0  0  0  0  0  0  0
  152.9564  141.5402  159.7795 C   0  0  0  0  0  0  0  0  0  0  0  0
  153.9388  140.9785  160.7932 C   0  0  0  0  0  0  0  0  0  0  0  0
  151.8937  144.4128  161.3833 H   0  0  0  0  0  0  0  0  0  0  0  0
  153.5837  143.9141  161.3198 H   0  0  0  0  0  0  0  0  0  0  0  0
  152.3929  142.9222  162.1753 H   0  0  0  0  0  0  0  0  0  0  0  0
  150.8730  144.2395  159.2607 H   0  0  0  0  0  0  0  0  0  0  0  0
  149.9151  141.7036  154.9970 H   0  0  0  0  0  0  0  0  0  0  0  0
  152.6177  139.8574  155.1958 H   0  0  0  0  0  0  0  0  0  0  0  0
  152.2384  139.0169  156.6750 H   0  0  0  0  0  0  0  0  0  0  0  0
  149.7850  138.8681  155.7312 H   0  0  0  0  0  0  0  0  0  0  0  0
  149.7922  139.0429  153.4352 H   0  0  0  0  0  0  0  0  0  0  0  0
  150.8755  137.1652  153.7696 H   0  0  0  0  0  0  0  0  0  0  0  0
  152.1203  137.2182  155.0079 H   0  0  0  0  0  0  0  0  0  0  0  0
  148.6011  138.3001  157.8126 H   0  0  0  0  0  0  0  0  0  0  0  0
  148.5944  137.9024  159.5423 H   0  0  0  0  0  0  0  0  0  0  0  0
  148.1496  136.6674  158.3479 H   0  0  0  0  0  0  0  0  0  0  0  0
  153.2193  139.8664  158.4182 H   0  0  0  0  0  0  0  0  0  0  0  0
  154.4250  140.0764  160.4206 H   0  0  0  0  0  0  0  0  0  0  0  0
  153.4250  140.7225  161.7200 H   0  0  0  0  0  0  0  0  0  0  0  0
  154.7187  141.7060  161.0180 H   0  0  0  0  0  0  0  0  0  0  0  0
  149.7239  143.6122  156.7036 H   0  0  0  0  0  0  0  0  0  0  0  0
  1  2  1  0  0  0  0
  1 23  1  0  0  0  0
  1 24  1  0  0  0  0
  1 25  1  0  0  0  0
  2 21  1  0  0  0  0
  2  3  2  0  0  0  0
  3  4  1  0  0  0  0
  3 26  1  0  0  0  0
  4 19  2  0  0  0  0
  4  5  1  0  0  0  0
  5  6  2  0  0  0  0
  5 41  1  0  0  0  0
  6  7  1  0  0  0  0
  6 27  1  0  0  0  0
  7  8  1  0  0  0  0
  7 19  1  0  0  0  0
  8  9  1  0  0  0  0
  8 28  1  0  0  0  0
  8 29  1  0  0  0  0
  9 10  1  0  0  0  0
  9 11  1  0  0  0  0
  9 30  1  0  0  0  0
 10 31  1  0  0  0  0
 11 12  1  0  0  0  0
 11 32  1  0  0  0  0
 11 33  1  0  0  0  0
 12 13  1  0  0  0  0
 13 17  1  0  0  0  0
 13 14  2  0  0  0  0
 14 15  1  0  0  0  0
 15 16  2  0  0  0  0
 16 17  1  0  0  0  0
 17 18  1  0  0  0  0
 18 34  1  0  0  0  0
 18 35  1  0  0  0  0
 18 36  1  0  0  0  0
 19 20  1  0  0  0  0
 20 21  2  0  0  0  0
 20 37  1  0  0  0  0
 21 22  1  0  0  0  0
 22 38  1  0  0  0  0
 22 39  1  0  0  0  0
 22 40  1  0  0  0  0
M  CHG  1   5   1
M  END
> <s_m_source_file>
AV-unprocessed.smi

> <i_m_source_file_index>
2734

> <i_lp_mmshare_version>
43012

> <i_f3d_flags>
0

> <s_epik_input>
W0NIM11jKFtjSF0xKWMoW0NIM10pW2NIXWMoYzEyKW4oW2NIXW4yKVtDSDJdW0NASF0oW09IXSlbQ0gyXVNjM25ubm4zW0NIM10=

> <s_epik_cmdline>
J2VwaWtfcHl0aG9uJywgJy1waCcsICc3LjAnLCAnLXRuJywgJzgnLCAnLW1hJywgJzIwMCcsICctbWV0YWxfYmluZGluZycsICctaW1hZScsICc8aW5maWxlLm1hZT4nLCAnLW9tYWUnLCAnPG91dGZpbGUubWFlPic=

> <r_lp_tautomer_probability>
1

> <r_epik_Ionization_Penalty>
1.07429

> <r_epik_Ionization_Penalty_Charging>
1.07429

> <r_epik_Ionization_Penalty_Neutral>
3.30514e-06

> <r_epik_State_Penalty>
1.12915

> <r_epik_Charging_Adjusted_Penalty>
2.20344

> <i_epik_Tot_Q>
1

> <i_epik_Tot_abs_Q>
1

> <r_epik_Metal_State_Penalty>
1.22002

> <b_epik_Metal_Only>
0

> <s_lp_Force_Field>
OPLS_2005

> <r_lp_Energy>
15.3116

> <b_lp_Chiralities_Consistent>
1

> <s_lp_Variant>
AV-unprocessed.smi:2734-4

> <Gold.Version>
5.8.1

> <Gold.Id.Protein>
6NUR|6NUR_protein|mol2

> <Gold.PLP.Fitness>
54.5601

> <Gold.PLP.PLP>
-45.5413

> <Gold.PLP.part.hbond>
-5.4497

> <Gold.PLP.part.metal>
0.0000

> <Gold.PLP.part.buried>
-6.4777

> <Gold.PLP.part.nonpolar>
-33.9197

> <Gold.PLP.part.repulsive>
0.0338

> <Gold.PLP.ligand.clash>
0.0000

> <Gold.PLP.ligand.torsion>
1.1474

> <Gold.PLP.Chemscore.Hbond>
3.7448

> <Gold.PLP.Chemscore.CHOScore>
0.0000

> <Gold.PLP.Chemscore.Metal>
0.0000

> <Gold.Chemscore.Hbonds>
donor molecule, donor type, donor heavy atom, donor atom, acceptor molecule, acceptor atom, score
      L1  H     5    41       P1  8028  2.00
      P1  H  6896  6908       L1    15  0.57
      P1  H  7989  7998       L1    10  1.00

> <Gold.PLP.Chemscore.Internal.Correction>
0.0793

> <Gold.Rescore>
     Score         DG    S(hbond)    S(metal)    S(lipo)     H(rot)  DE(clash)    DE(int)     intcor
     15.22     -16.35       1.89        0.00     102.69       2.92       0.03       1.11       ----

> <Gold.Chemscore.Fitness>
15.2179

> <Gold.Chemscore.DG>
-16.3529

> <Gold.Chemscore.ZeroCoef>
-5.4800

> <Gold.Chemscore.Hbond>
1.8934

> <Gold.Chemscore.Metal>
0.0000

> <Gold.Chemscore.Lipo>
102.6928

> <Gold.Chemscore.Internal_Hbond>
0.0000

> <Gold.Chemscore.DEClash>
0.0256

> <Gold.Chemscore.DEInternal>
1.1094

> <Gold.Chemscore.Rot>
2.9164

> <Gold.Chemscore.Internal.Correction>
   9.000000E+99

> <Gold.Chemscore.Hbonds>
donor molecule, donor type, donor heavy atom, donor atom, acceptor molecule, acceptor atom, score
      L1  H     5    41       P1  8028  0.95
      P1  H  6896  6908       L1    15  0.01
      P1  H  7989  7998       L1    10  0.90

> <Gold.Chemscore.Hbond.Weighted>
-6.3238

> <Gold.Chemscore.Metal.Weighted>
-0.0000

> <Gold.Chemscore.Lipo.Weighted>
-12.0151

> <Gold.Chemscore.Internal_Hbond.Weighted>
0.0000

> <Gold.Chemscore.DEClash.Weighted>
0.0256

> <Gold.Chemscore.DEInternal.Weighted>
1.1094

> <Gold.Chemscore.Rot.Weighted>
7.4660

> <Gold.Chemscore.Internal.Correction.Weighted>
   9.000000E+99

> <Gold.Protein.RotatedTorsions>
[ 6907 6896 6895 6894 ] final  -93.60 input  -60.11 | X-H torsion
[ 7974 7965 7964 7962 ] final -176.58 input  175.53 | X-H torsion
[ 8008 7997 7996 7995 ] final   52.75 input   59.86 | X-H torsion
[ 10167 10162 10161 10158 ] final   78.23 input  -65.29 | X-H torsion
[ 10718 10713 10712 10709 ] final -137.94 input   66.30 | X-H torsion
[ 10763 10752 10751 10750 ] final  144.57 input  -60.55 | X-H torsion
[ 11005 11000 10999 10996 ] final    4.35 input  -57.11 | X-H torsion

> <Gold.Protein.ActiveResidues>
 VAL166  LYS551  ARG553  GLY616  TRP617  ASP618  TYR619  PRO620  LYS621  CYS622 
 ASP623  PHE694  ASN695  SER759  ASP760  ASP761  ALA762  ILE779  LEU786  VAL792 
 PHE793  MET794  SER795  GLU796  ALA797  LYS798  CYS799  TRP800  GLU811  SER814 

> <Gold.Protein.RotatedAtoms>
  150.6925  134.1943  159.4296 H   0  0  0  0  0  0  0  0  0  0  0  0  # atno 6907 bound_to 6896
  151.9912  134.9976  160.0571 H   0  0  0  0  0  0  0  0  0  0  0  0  # atno 6908 bound_to 6896
  152.1666  133.4581  159.4924 H   0  0  0  0  0  0  0  0  0  0  0  0  # atno 6909 bound_to 6896
  144.7127  140.1148  143.6409 H   0  0  0  0  0  0  0  0  0  0  0  0  # atno 7974 bound_to 7965
  155.4569  140.3460  155.4308 H   0  0  0  0  0  0  0  0  0  0  0  0  # atno 8008 bound_to 7997
  156.1185  140.1480  156.9267 H   0  0  0  0  0  0  0  0  0  0  0  0  # atno 8009 bound_to 7997
  154.4806  140.0871  156.7348 H   0  0  0  0  0  0  0  0  0  0  0  0  # atno 8010 bound_to 7997
  139.9732  144.5880  150.7967 H   0  0  0  0  0  0  0  0  0  0  0  0  # atno 10167 bound_to 10162
  156.2938  130.7390  151.1423 H   0  0  0  0  0  0  0  0  0  0  0  0  # atno 10718 bound_to 10713
  153.9910  135.2932  155.3412 H   0  0  0  0  0  0  0  0  0  0  0  0  # atno 10763 bound_to 10752
  154.7214  135.5107  153.8821 H   0  0  0  0  0  0  0  0  0  0  0  0  # atno 10764 bound_to 10752
  153.0809  135.6678  154.0163 H   0  0  0  0  0  0  0  0  0  0  0  0  # atno 10765 bound_to 10752
  140.5829  133.9996  155.8055 H   0  0  0  0  0  0  0  0  0  0  0  0  # atno 11005 bound_to 11000
  145.9423  139.2677  143.1261 LP  0  0  0  0  0  0  0  0  0  0  0  0  # atno 17320 bound_to 7965
  145.9411  140.8979  143.0307 LP  0  0  0  0  0  0  0  0  0  0  0  0  # atno 17321 bound_to 7965
  140.7515  143.2973  151.3170 LP  0  0  0  0  0  0  0  0  0  0  0  0  # atno 17342 bound_to 10162
  139.6466  144.0440  152.2595 LP  0  0  0  0  0  0  0  0  0  0  0  0  # atno 17343 bound_to 10162
  157.7349  131.0577  150.5496 LP  0  0  0  0  0  0  0  0  0  0  0  0  # atno 17370 bound_to 10713
  156.5615  130.4257  149.6060 LP  0  0  0  0  0  0  0  0  0  0  0  0  # atno 17371 bound_to 10713
  141.0985  133.9806  157.3119 LP  0  0  0  0  0  0  0  0  0  0  0  0  # atno 17394 bound_to 11000
  139.9309  135.0200  156.8397 LP  0  0  0  0  0  0  0  0  0  0  0  0  # atno 17395 bound_to 11000

$$$$
