AV-unprocessed.smi:787|AV-procd|sdf|3728|dock7
  -GOLD-   22720 1163D 1   1.00000     0.00000
 Structure written by MMmdl.
 47 49  0  0  0  0  0  0  0  0  2 V2000
  147.5646  141.8394  157.0928 C   0  0  0  0  0  0  0  0  0  0  0  0
  148.7632  142.2104  156.3573 N   0  0  0  0  0  0  0  0  0  0  0  0
  149.9331  141.4463  156.4726 C   0  0  0  0  0  0  0  0  0  0  0  0
  150.8281  141.7331  157.4459 N   0  0  0  0  0  0  0  0  0  0  0  0
  151.9360  140.9848  157.5206 C   0  0  0  0  0  0  0  0  0  0  0  0
  152.3099  139.9510  156.7517 N   0  0  0  0  0  0  0  0  0  0  0  0
  151.4285  139.6548  155.7875 C   0  0  0  0  0  0  0  0  0  0  0  0
  151.5579  138.6387  154.8576 N   0  0  0  0  0  0  0  0  0  0  0  0
  150.4362  138.7703  154.1556 C   0  0  0  0  0  0  0  0  0  0  0  0
  149.5807  139.7456  154.5223 N   0  0  0  0  0  0  0  0  0  0  0  0
  148.2933  140.0361  153.9052 C   0  0  0  0  0  0  0  0  0  0  0  0
  147.4475  138.7734  153.6212 C   0  0  1  0  0  0  0  0  0  0  0  0
  146.4579  138.6620  154.6272 O   0  0  0  0  0  0  0  0  0  0  0  0
  146.7540  138.7989  152.2428 C   0  0  0  0  0  0  0  0  0  0  0  0
  146.5602  137.4349  151.6853 N   0  3  2  0  0  0  0  0  0  0  0  0
  146.1509  137.4564  150.2625 C   0  0  0  0  0  0  0  0  0  0  0  0
  145.6704  136.5802  152.5104 C   0  0  0  0  0  0  0  0  0  0  0  0
  145.5885  135.1646  151.9639 C   0  0  0  0  0  0  0  0  0  0  0  0
  146.3954  134.1486  152.5189 C   0  0  0  0  0  0  0  0  0  0  0  0
  146.3125  132.8311  152.0282 C   0  0  0  0  0  0  0  0  0  0  0  0
  145.4237  132.5242  150.9800 C   0  0  0  0  0  0  0  0  0  0  0  0
  144.6195  133.5356  150.4203 C   0  0  0  0  0  0  0  0  0  0  0  0
  144.7038  134.8538  150.9085 C   0  0  0  0  0  0  0  0  0  0  0  0
  150.2076  140.3722  155.6004 C   0  0  0  0  0  0  0  0  0  0  0  0
  146.7680  142.5553  156.8913 H   0  0  0  0  0  0  0  0  0  0  0  0
  147.7555  141.8349  158.1664 H   0  0  0  0  0  0  0  0  0  0  0  0
  147.2170  140.8499  156.7939 H   0  0  0  0  0  0  0  0  0  0  0  0
  148.7942  143.1083  155.8969 H   0  0  0  0  0  0  0  0  0  0  0  0
  152.6244  141.2513  158.3088 H   0  0  0  0  0  0  0  0  0  0  0  0
  150.2160  138.1081  153.3308 H   0  0  0  0  0  0  0  0  0  0  0  0
  147.7405  140.7207  154.5463 H   0  0  0  0  0  0  0  0  0  0  0  0
  148.4734  140.5818  152.9777 H   0  0  0  0  0  0  0  0  0  0  0  0
  148.0980  137.9020  153.6966 H   0  0  0  0  0  0  0  0  0  0  0  0
  146.6428  139.2830  155.3146 H   0  0  0  0  0  0  0  0  0  0  0  0
  145.7991  139.3136  152.3395 H   0  0  0  0  0  0  0  0  0  0  0  0
  147.3344  139.3916  151.5355 H   0  0  0  0  0  0  0  0  0  0  0  0
  145.1542  137.8853  150.1493 H   0  0  0  0  0  0  0  0  0  0  0  0
  146.1361  136.4470  149.8504 H   0  0  0  0  0  0  0  0  0  0  0  0
  146.8455  138.0454  149.6634 H   0  0  0  0  0  0  0  0  0  0  0  0
  146.0086  136.5759  153.5482 H   0  0  0  0  0  0  0  0  0  0  0  0
  144.6598  136.9914  152.5138 H   0  0  0  0  0  0  0  0  0  0  0  0
  147.0777  134.3755  153.3250 H   0  0  0  0  0  0  0  0  0  0  0  0
  146.9303  132.0551  152.4560 H   0  0  0  0  0  0  0  0  0  0  0  0
  145.3600  131.5136  150.6039 H   0  0  0  0  0  0  0  0  0  0  0  0
  143.9378  133.3000  149.6162 H   0  0  0  0  0  0  0  0  0  0  0  0
  144.0807  135.6223  150.4746 H   0  0  0  0  0  0  0  0  0  0  0  0
  147.4635  136.9846  151.7152 H   0  0  0  0  0  0  0  0  0  0  0  0
  1  2  1  0  0  0  0
  1 25  1  0  0  0  0
  1 26  1  0  0  0  0
  1 27  1  0  0  0  0
  2  3  1  0  0  0  0
  2 28  1  0  0  0  0
  3 24  1  0  0  0  0
  3  4  2  0  0  0  0
  4  5  1  0  0  0  0
  5  6  2  0  0  0  0
  5 29  1  0  0  0  0
  6  7  1  0  0  0  0
  7 24  2  0  0  0  0
  7  8  1  0  0  0  0
  8  9  2  0  0  0  0
  9 10  1  0  0  0  0
  9 30  1  0  0  0  0
 10 11  1  0  0  0  0
 10 24  1  0  0  0  0
 11 12  1  0  0  0  0
 11 31  1  0  0  0  0
 11 32  1  0  0  0  0
 12 13  1  0  0  0  0
 12 14  1  0  0  0  0
 12 33  1  0  0  0  0
 13 34  1  0  0  0  0
 14 15  1  0  0  0  0
 14 35  1  0  0  0  0
 14 36  1  0  0  0  0
 15 16  1  0  0  0  0
 15 17  1  0  0  0  0
 15 47  1  0  0  0  0
 16 37  1  0  0  0  0
 16 38  1  0  0  0  0
 16 39  1  0  0  0  0
 17 18  1  0  0  0  0
 17 40  1  0  0  0  0
 17 41  1  0  0  0  0
 18 23  1  0  0  0  0
 18 19  2  0  0  0  0
 19 20  1  0  0  0  0
 19 42  1  0  0  0  0
 20 21  2  0  0  0  0
 20 43  1  0  0  0  0
 21 22  1  0  0  0  0
 21 44  1  0  0  0  0
 22 23  2  0  0  0  0
 22 45  1  0  0  0  0
 23 46  1  0  0  0  0
M  CHG  1  15   1
M  END
> <s_m_source_file>
AV-unprocessed.smi

> <i_m_source_file_index>
787

> <i_lp_mmshare_version>
43012

> <i_f3d_flags>
0

> <s_epik_input>
bjFbY0hdbmMoW05IXVtDSDNdKWMoYzEyKW4oW2NIXW4yKVtDSDJdW0NASF0oW09IXSlbQ0gyXU4oW0NIM10pW0NIMl1jM1tjSF1bY0hdW2NIXVtjSF1bY0hdMw==

> <s_epik_cmdline>
J2VwaWtfcHl0aG9uJywgJy1waCcsICc3LjAnLCAnLXRuJywgJzgnLCAnLW1hJywgJzIwMCcsICctbWV0YWxfYmluZGluZycsICctaW1hZScsICc8aW5maWxlLm1hZT4nLCAnLW9tYWUnLCAnPG91dGZpbGUubWFlPic=

> <r_lp_tautomer_probability>
0.999987

> <r_epik_Ionization_Penalty>
0.0526284

> <r_epik_Ionization_Penalty_Charging>
0.0475377

> <r_epik_Ionization_Penalty_Neutral>
0.00509065

> <r_epik_State_Penalty>
0.0404888

> <r_epik_Charging_Adjusted_Penalty>
0.0880265

> <i_epik_Tot_Q>
1

> <i_epik_Tot_abs_Q>
1

> <r_epik_Metal_State_Penalty>
0.040507

> <b_epik_Metal_Only>
0

> <s_lp_Force_Field>
OPLS_2005

> <r_lp_Energy>
14.9507

> <b_lp_Chiralities_Consistent>
1

> <s_lp_Variant>
AV-unprocessed.smi:787-4

> <Gold.Version>
5.8.1

> <Gold.Id.Protein>
6NUR|6NUR_protein|mol2

> <Gold.PLP.Fitness>
51.1665

> <Gold.PLP.PLP>
-39.8735

> <Gold.PLP.part.hbond>
-3.1226

> <Gold.PLP.part.metal>
0.0000

> <Gold.PLP.part.buried>
2.8119

> <Gold.PLP.part.nonpolar>
-39.3769

> <Gold.PLP.part.repulsive>
0.2858

> <Gold.PLP.ligand.clash>
0.0000

> <Gold.PLP.ligand.torsion>
2.2661

> <Gold.PLP.Chemscore.Hbond>
4.0000

> <Gold.PLP.Chemscore.CHOScore>
1.1784

> <Gold.PLP.Chemscore.Metal>
0.0000

> <Gold.Chemscore.Hbonds>
donor molecule, donor type, donor heavy atom, donor atom, acceptor molecule, acceptor atom, score
      L1  H     2    28       P1  8028  1.00
      L1  H    15    47       P1  7948  2.00
      P1  H  7997  8009       L1     6  0.89
      L1  C     9    30       P1  7948  0.71

> <Gold.PLP.Chemscore.Internal.Correction>
0.2900

> <Gold.Rescore>
     Score         DG    S(hbond)    S(metal)    S(lipo)     H(rot)  DE(clash)    DE(int)     intcor
      9.36     -14.83       2.52        0.00      77.94       3.19       2.49       2.98       ----

> <Gold.Chemscore.Fitness>
9.3615

> <Gold.Chemscore.DG>
-14.8331

> <Gold.Chemscore.ZeroCoef>
-5.4800

> <Gold.Chemscore.Hbond>
2.5173

> <Gold.Chemscore.Metal>
0.0000

> <Gold.Chemscore.Lipo>
77.9408

> <Gold.Chemscore.Internal_Hbond>
0.0000

> <Gold.Chemscore.DEClash>
2.4925

> <Gold.Chemscore.DEInternal>
2.9792

> <Gold.Chemscore.Rot>
3.1928

> <Gold.Chemscore.Internal.Correction>
   9.000000E+99

> <Gold.Chemscore.Hbonds>
donor molecule, donor type, donor heavy atom, donor atom, acceptor molecule, acceptor atom, score
      L1  H     2    28       P1  8028  0.99
      L1  H    15    47       P1  7948  1.00
      P1  H  7997  8009       L1     6  0.55

> <Gold.Chemscore.Hbond.Weighted>
-8.4076

> <Gold.Chemscore.Metal.Weighted>
-0.0000

> <Gold.Chemscore.Lipo.Weighted>
-9.1191

> <Gold.Chemscore.Internal_Hbond.Weighted>
0.0000

> <Gold.Chemscore.DEClash.Weighted>
2.4925

> <Gold.Chemscore.DEInternal.Weighted>
2.9792

> <Gold.Chemscore.Rot.Weighted>
8.1736

> <Gold.Chemscore.Internal.Correction.Weighted>
   9.000000E+99

> <Gold.Protein.RotatedTorsions>
[ 6907 6896 6895 6894 ] final -160.74 input  -60.11 | X-H torsion
[ 7974 7965 7964 7962 ] final -120.05 input  175.53 | X-H torsion
[ 8008 7997 7996 7995 ] final -160.98 input   59.86 | X-H torsion
[ 10167 10162 10161 10158 ] final  -17.08 input  -65.29 | X-H torsion
[ 10718 10713 10712 10709 ] final  133.43 input   66.30 | X-H torsion
[ 10763 10752 10751 10750 ] final  133.20 input  -60.55 | X-H torsion
[ 11005 11000 10999 10996 ] final   93.15 input  -57.11 | X-H torsion

> <Gold.Protein.ActiveResidues>
 VAL166  LYS551  ARG553  GLY616  TRP617  ASP618  TYR619  PRO620  LYS621  CYS622 
 ASP623  PHE694  ASN695  SER759  ASP760  ASP761  ALA762  ILE779  LEU786  VAL792 
 PHE793  MET794  SER795  GLU796  ALA797  LYS798  CYS799  TRP800  GLU811  SER814 

> <Gold.Protein.RotatedAtoms>
  151.3537  133.3915  159.2682 H   0  0  0  0  0  0  0  0  0  0  0  0  # atno 6907 bound_to 6896
  150.9780  134.9142  159.7838 H   0  0  0  0  0  0  0  0  0  0  0  0  # atno 6908 bound_to 6896
  152.5207  134.3501  159.9300 H   0  0  0  0  0  0  0  0  0  0  0  0  # atno 6909 bound_to 6896
  145.0557  140.8252  143.4183 H   0  0  0  0  0  0  0  0  0  0  0  0  # atno 7974 bound_to 7965
  155.7855  140.0871  157.2036 H   0  0  0  0  0  0  0  0  0  0  0  0  # atno 8008 bound_to 7997
  154.3988  140.1500  156.3160 H   0  0  0  0  0  0  0  0  0  0  0  0  # atno 8009 bound_to 7997
  155.8611  140.3430  155.5759 H   0  0  0  0  0  0  0  0  0  0  0  0  # atno 8010 bound_to 7997
  140.7242  143.5051  150.9820 H   0  0  0  0  0  0  0  0  0  0  0  0  # atno 10167 bound_to 10162
  157.4773  131.1084  150.9727 H   0  0  0  0  0  0  0  0  0  0  0  0  # atno 10718 bound_to 10713
  153.8033  135.3139  155.3392 H   0  0  0  0  0  0  0  0  0  0  0  0  # atno 10763 bound_to 10752
  154.8080  135.4685  154.0446 H   0  0  0  0  0  0  0  0  0  0  0  0  # atno 10764 bound_to 10752
  153.1801  135.6892  153.8578 H   0  0  0  0  0  0  0  0  0  0  0  0  # atno 10765 bound_to 10752
  139.8814  134.8774  156.3676 H   0  0  0  0  0  0  0  0  0  0  0  0  # atno 11005 bound_to 11000
  145.1472  139.2536  143.5460 LP  0  0  0  0  0  0  0  0  0  0  0  0  # atno 17320 bound_to 7965
  146.3521  140.1164  142.8602 LP  0  0  0  0  0  0  0  0  0  0  0  0  # atno 17321 bound_to 7965
  139.8762  143.7129  152.3161 LP  0  0  0  0  0  0  0  0  0  0  0  0  # atno 17342 bound_to 10162
  139.7395  144.7563  151.0674 LP  0  0  0  0  0  0  0  0  0  0  0  0  # atno 17343 bound_to 10162
  157.0471  130.5772  149.5365 LP  0  0  0  0  0  0  0  0  0  0  0  0  # atno 17370 bound_to 10713
  156.0103  130.5194  150.7967 LP  0  0  0  0  0  0  0  0  0  0  0  0  # atno 17371 bound_to 10713
  140.9486  133.7466  156.0242 LP  0  0  0  0  0  0  0  0  0  0  0  0  # atno 17394 bound_to 11000
  140.8133  134.3374  157.5405 LP  0  0  0  0  0  0  0  0  0  0  0  0  # atno 17395 bound_to 11000

$$$$
