AV-unprocessed.smi:1714|AV-procd|sdf|6908|dock3
  -GOLD-   22720 8113D 1   1.00000     0.00000
 Structure written by MMmdl.
 46 47  0  0  0  0  0  0  0  0  2 V2000
  147.7960  133.0287  152.4099 C   0  0  0  0  0  0  0  0  0  0  0  0
  146.5352  133.0689  151.5614 C   0  0  0  0  0  0  0  0  0  0  0  0
  146.0444  131.8720  150.9976 C   0  0  0  0  0  0  0  0  0  0  0  0
  144.8783  131.9104  150.2146 C   0  0  0  0  0  0  0  0  0  0  0  0
  144.2475  133.1523  150.0275 C   0  0  0  0  0  0  0  0  0  0  0  0
  144.7088  134.3004  150.5637 N   0  0  0  0  0  0  0  0  0  0  0  0
  145.8328  134.2807  151.3232 C   0  0  0  0  0  0  0  0  0  0  0  0
  146.3753  135.4530  151.9216 N   0  0  0  0  0  0  0  0  0  0  0  0
  145.7352  136.4113  152.6141 C   0  0  0  0  0  0  0  0  0  0  0  0
  144.5268  136.4369  152.8492 O   0  0  0  0  0  0  0  0  0  0  0  0
  146.5876  137.3611  153.0276 N   0  0  0  0  0  0  0  0  0  0  0  0
  146.2321  138.5343  153.8270 C   0  0  0  0  0  0  0  0  0  0  0  0
  146.9208  139.8573  153.3688 C   0  0  0  0  0  0  0  0  0  0  0  0
  148.3753  139.8405  153.9094 C   0  0  0  0  0  0  0  0  0  0  0  0
  146.9930  139.9385  151.8239 C   0  0  0  0  0  0  0  0  0  0  0  0
  146.1433  141.0211  153.9369 N   0  3  0  0  0  0  0  0  0  0  0  0
  145.8324  140.9612  155.3947 C   0  0  0  0  0  0  0  0  0  0  0  0
  144.9153  142.1259  155.8097 C   0  0  0  0  0  0  0  0  0  0  0  0
  145.5098  143.3673  155.4612 O   0  0  0  0  0  0  0  0  0  0  0  0
  145.7120  143.4727  154.0599 C   0  0  0  0  0  0  0  0  0  0  0  0
  146.6828  142.3720  153.6056 C   0  0  0  0  0  0  0  0  0  0  0  0
  148.2200  132.0247  152.4442 H   0  0  0  0  0  0  0  0  0  0  0  0
  147.5758  133.3352  153.4327 H   0  0  0  0  0  0  0  0  0  0  0  0
  148.5544  133.6973  152.0019 H   0  0  0  0  0  0  0  0  0  0  0  0
  146.5528  130.9332  151.1617 H   0  0  0  0  0  0  0  0  0  0  0  0
  144.4779  131.0119  149.7692 H   0  0  0  0  0  0  0  0  0  0  0  0
  143.3491  133.2267  149.4330 H   0  0  0  0  0  0  0  0  0  0  0  0
  147.3723  135.5673  151.8156 H   0  0  0  0  0  0  0  0  0  0  0  0
  147.5620  137.2582  152.7841 H   0  0  0  0  0  0  0  0  0  0  0  0
  145.1470  138.6247  153.8400 H   0  0  0  0  0  0  0  0  0  0  0  0
  146.5163  138.3170  154.8573 H   0  0  0  0  0  0  0  0  0  0  0  0
  148.9198  138.9500  153.5950 H   0  0  0  0  0  0  0  0  0  0  0  0
  148.3971  139.8640  154.9996 H   0  0  0  0  0  0  0  0  0  0  0  0
  148.9621  140.6814  153.5395 H   0  0  0  0  0  0  0  0  0  0  0  0
  147.6612  139.1801  151.4154 H   0  0  0  0  0  0  0  0  0  0  0  0
  147.3720  140.9033  151.4871 H   0  0  0  0  0  0  0  0  0  0  0  0
  146.0196  139.7814  151.3588 H   0  0  0  0  0  0  0  0  0  0  0  0
  145.3101  140.0431  155.6576 H   0  0  0  0  0  0  0  0  0  0  0  0
  146.7557  140.9890  155.9745 H   0  0  0  0  0  0  0  0  0  0  0  0
  143.9356  142.0360  155.3372 H   0  0  0  0  0  0  0  0  0  0  0  0
  144.7498  142.1060  156.8868 H   0  0  0  0  0  0  0  0  0  0  0  0
  144.7608  143.4016  153.5297 H   0  0  0  0  0  0  0  0  0  0  0  0
  146.1280  144.4558  153.8384 H   0  0  0  0  0  0  0  0  0  0  0  0
  147.6421  142.5255  154.1008 H   0  0  0  0  0  0  0  0  0  0  0  0
  146.8554  142.4894  152.5382 H   0  0  0  0  0  0  0  0  0  0  0  0
  145.2432  140.9701  153.4816 H   0  0  0  0  0  0  0  0  0  0  0  0
  1  2  1  0  0  0  0
  1 22  1  0  0  0  0
  1 23  1  0  0  0  0
  1 24  1  0  0  0  0
  2  7  1  0  0  0  0
  2  3  2  0  0  0  0
  3  4  1  0  0  0  0
  3 25  1  0  0  0  0
  4  5  2  0  0  0  0
  4 26  1  0  0  0  0
  5  6  1  0  0  0  0
  5 27  1  0  0  0  0
  6  7  2  0  0  0  0
  7  8  1  0  0  0  0
  8  9  1  0  0  0  0
  8 28  1  0  0  0  0
  9 10  2  0  0  0  0
  9 11  1  0  0  0  0
 11 12  1  0  0  0  0
 11 29  1  0  0  0  0
 12 13  1  0  0  0  0
 12 30  1  0  0  0  0
 12 31  1  0  0  0  0
 13 14  1  0  0  0  0
 13 15  1  0  0  0  0
 13 16  1  0  0  0  0
 14 32  1  0  0  0  0
 14 33  1  0  0  0  0
 14 34  1  0  0  0  0
 15 35  1  0  0  0  0
 15 36  1  0  0  0  0
 15 37  1  0  0  0  0
 16 21  1  0  0  0  0
 16 17  1  0  0  0  0
 16 46  1  0  0  0  0
 17 18  1  0  0  0  0
 17 38  1  0  0  0  0
 17 39  1  0  0  0  0
 18 19  1  0  0  0  0
 18 40  1  0  0  0  0
 18 41  1  0  0  0  0
 19 20  1  0  0  0  0
 20 21  1  0  0  0  0
 20 42  1  0  0  0  0
 20 43  1  0  0  0  0
 21 44  1  0  0  0  0
 21 45  1  0  0  0  0
M  CHG  1  16   1
M  END
> <s_m_source_file>
AV-unprocessed.smi

> <i_m_source_file_index>
1714

> <i_lp_mmshare_version>
43012

> <i_f3d_flags>
0

> <s_epik_input>
W0NIM11jMVtjSF1bY0hdW2NIXW5jMVtOSF1DKD1PKVtOSF1bQ0gyXUMoW0NIM10pKFtDSDNdKU4yW0NIMl1bQ0gyXU9bQ0gyXVtDSDJdMg==

> <s_epik_cmdline>
J2VwaWtfcHl0aG9uJywgJy1waCcsICc3LjAnLCAnLXRuJywgJzgnLCAnLW1hJywgJzIwMCcsICctbWV0YWxfYmluZGluZycsICctaW1hZScsICc8aW5maWxlLm1hZT4nLCAnLW9tYWUnLCAnPG91dGZpbGUubWFlPic=

> <r_epik_Ionization_Penalty>
0.602574

> <r_epik_Ionization_Penalty_Charging>
0.602531

> <r_epik_Ionization_Penalty_Neutral>
4.31176e-05

> <r_epik_State_Penalty>
0.617039

> <r_epik_Charging_Adjusted_Penalty>
1.21957

> <i_epik_Tot_Q>
1

> <i_epik_Tot_abs_Q>
1

> <r_epik_Metal_State_Penalty>
0.617042

> <b_epik_Metal_Only>
0

> <s_lp_Force_Field>
OPLS_2005

> <r_lp_Energy>
27.6878

> <b_lp_Chiralities_Consistent>
1

> <s_lp_Variant>
AV-unprocessed.smi:1714-2

> <Gold.Version>
5.8.1

> <Gold.Id.Protein>
6NUR|6NUR_protein|mol2

> <Gold.PLP.Fitness>
48.5070

> <Gold.PLP.PLP>
-35.0872

> <Gold.PLP.part.hbond>
-3.0000

> <Gold.PLP.part.metal>
0.0000

> <Gold.PLP.part.buried>
-2.7412

> <Gold.PLP.part.nonpolar>
-29.9705

> <Gold.PLP.part.repulsive>
0.6712

> <Gold.PLP.ligand.clash>
0.0000

> <Gold.PLP.ligand.torsion>
0.8538

> <Gold.PLP.Chemscore.Hbond>
4.0000

> <Gold.PLP.Chemscore.CHOScore>
1.0000

> <Gold.PLP.Chemscore.Metal>
0.0000

> <Gold.Chemscore.Hbonds>
donor molecule, donor type, donor heavy atom, donor atom, acceptor molecule, acceptor atom, score
      L1  H     8    28       P1  7948  1.00
      L1  H    11    29       P1  7948  0.98
      L1  H    16    46       P1 10175  2.00
      L1  C     5    27       P1 10186  0.75

> <Gold.PLP.Chemscore.Internal.Correction>
0.1273

> <Gold.Rescore>
     Score         DG    S(hbond)    S(metal)    S(lipo)     H(rot)  DE(clash)    DE(int)     intcor
     19.52     -21.49       2.94        0.00      85.59       1.49       1.11       0.87       ----

> <Gold.Chemscore.Fitness>
19.5156

> <Gold.Chemscore.DG>
-21.4933

> <Gold.Chemscore.ZeroCoef>
-5.4800

> <Gold.Chemscore.Hbond>
2.9407

> <Gold.Chemscore.Metal>
0.0000

> <Gold.Chemscore.Lipo>
85.5853

> <Gold.Chemscore.Internal_Hbond>
0.0000

> <Gold.Chemscore.DEClash>
1.1115

> <Gold.Chemscore.DEInternal>
0.8661

> <Gold.Chemscore.Rot>
1.4930

> <Gold.Chemscore.Internal.Correction>
   9.000000E+99

> <Gold.Chemscore.Hbonds>
donor molecule, donor type, donor heavy atom, donor atom, acceptor molecule, acceptor atom, score
      L1  H     8    28       P1  7948  1.00
      L1  H    11    29       P1  7948  0.92
      L1  H    16    46       P1 10175  0.65

> <Gold.Chemscore.Hbond.Weighted>
-9.8218

> <Gold.Chemscore.Metal.Weighted>
-0.0000

> <Gold.Chemscore.Lipo.Weighted>
-10.0135

> <Gold.Chemscore.Internal_Hbond.Weighted>
0.0000

> <Gold.Chemscore.DEClash.Weighted>
1.1115

> <Gold.Chemscore.DEInternal.Weighted>
0.8661

> <Gold.Chemscore.Rot.Weighted>
3.8220

> <Gold.Chemscore.Internal.Correction.Weighted>
   9.000000E+99

> <Gold.Protein.RotatedTorsions>
[ 6907 6896 6895 6894 ] final  -52.08 input  -60.11 | X-H torsion
[ 7974 7965 7964 7962 ] final  -27.54 input  175.53 | X-H torsion
[ 8008 7997 7996 7995 ] final  -19.68 input   59.86 | X-H torsion
[ 10167 10162 10161 10158 ] final -173.71 input  -65.29 | X-H torsion
[ 10718 10713 10712 10709 ] final  -37.96 input   66.30 | X-H torsion
[ 10763 10752 10751 10750 ] final   97.38 input  -60.55 | X-H torsion
[ 11005 11000 10999 10996 ] final  179.58 input  -57.11 | X-H torsion

> <Gold.Protein.ActiveResidues>
 VAL166  LYS551  ARG553  GLY616  TRP617  ASP618  TYR619  PRO620  LYS621  CYS622 
 ASP623  PHE694  ASN695  SER759  ASP760  ASP761  ALA762  ILE779  LEU786  VAL792 
 PHE793  MET794  SER795  GLU796  ALA797  LYS798  CYS799  TRP800  GLU811  SER814 

> <Gold.Protein.RotatedAtoms>
  150.8551  134.7887  159.7038 H   0  0  0  0  0  0  0  0  0  0  0  0  # atno 6907 bound_to 6896
  152.4605  134.5192  159.9787 H   0  0  0  0  0  0  0  0  0  0  0  0  # atno 6908 bound_to 6896
  151.5306  133.3412  159.2953 H   0  0  0  0  0  0  0  0  0  0  0  0  # atno 6909 bound_to 6896
  146.1350  140.5166  142.8676 H   0  0  0  0  0  0  0  0  0  0  0  0  # atno 7974 bound_to 7965
  154.4820  140.2082  155.9741 H   0  0  0  0  0  0  0  0  0  0  0  0  # atno 8008 bound_to 7997
  156.1180  140.3218  155.8136 H   0  0  0  0  0  0  0  0  0  0  0  0  # atno 8009 bound_to 7997
  155.4519  140.0517  157.2991 H   0  0  0  0  0  0  0  0  0  0  0  0  # atno 8010 bound_to 7997
  139.5673  144.1724  152.1332 H   0  0  0  0  0  0  0  0  0  0  0  0  # atno 10167 bound_to 10162
  156.3092  130.4250  149.8067 H   0  0  0  0  0  0  0  0  0  0  0  0  # atno 10718 bound_to 10713
  153.2762  135.4185  155.1035 H   0  0  0  0  0  0  0  0  0  0  0  0  # atno 10763 bound_to 10752
  154.8473  135.3484  154.6175 H   0  0  0  0  0  0  0  0  0  0  0  0  # atno 10764 bound_to 10752
  153.6595  135.7049  153.5239 H   0  0  0  0  0  0  0  0  0  0  0  0  # atno 10765 bound_to 10752
  140.4077  134.6720  157.4597 H   0  0  0  0  0  0  0  0  0  0  0  0  # atno 11005 bound_to 11000
  144.7730  140.5680  143.6657 LP  0  0  0  0  0  0  0  0  0  0  0  0  # atno 17320 bound_to 7965
  145.5175  139.1477  143.3570 LP  0  0  0  0  0  0  0  0  0  0  0  0  # atno 17321 bound_to 7965
  140.1250  144.5340  150.6839 LP  0  0  0  0  0  0  0  0  0  0  0  0  # atno 17342 bound_to 10162
  140.6957  143.2402  151.5007 LP  0  0  0  0  0  0  0  0  0  0  0  0  # atno 17343 bound_to 10162
  156.5417  130.8302  151.3271 LP  0  0  0  0  0  0  0  0  0  0  0  0  # atno 17370 bound_to 10713
  157.7387  130.9818  150.2267 LP  0  0  0  0  0  0  0  0  0  0  0  0  # atno 17371 bound_to 10713
  140.0290  134.6434  155.9133 LP  0  0  0  0  0  0  0  0  0  0  0  0  # atno 17394 bound_to 11000
  141.1833  133.6550  156.5110 LP  0  0  0  0  0  0  0  0  0  0  0  0  # atno 17395 bound_to 11000

$$$$
