AV-unprocessed.smi:2152|AV-procd|sdf|8763|dock1
  -GOLD-   2272011543D 1   1.00000     0.00000
 Structure written by MMmdl.
 41 42  0  0  0  0  0  0  0  0  1 V2000
  151.6232  137.3838  154.7314 C   0  0  0  0  0  0  0  0  0  0  0  0
  151.1020  138.7134  155.3039 C   0  0  1  0  0  0  0  0  0  0  0  0
  149.9036  139.2493  154.4927 C   0  0  0  0  0  0  0  0  0  0  0  0
  149.4139  140.6026  155.0324 C   0  0  0  0  0  0  0  0  0  0  0  0
  149.0671  140.5173  156.5262 C   0  0  0  0  0  0  0  0  0  0  0  0
  150.2572  139.9865  157.3435 C   0  0  0  0  0  0  0  0  0  0  0  0
  150.7681  138.6282  156.8142 C   0  0  1  0  0  0  0  0  0  0  0  0
  149.7987  137.5651  157.0803 N   0  0  0  0  0  0  0  0  0  0  0  0
  149.7144  136.8479  158.2106 C   0  0  0  0  0  0  0  0  0  0  0  0
  150.4820  136.9908  159.1630 O   0  0  0  0  0  0  0  0  0  0  0  0
  148.5968  135.7980  158.2589 C   0  0  0  0  0  0  0  0  0  0  0  0
  148.1291  135.5262  159.6242 N   0  0  0  0  0  0  0  0  0  0  0  0
  148.2229  134.2457  160.1387 C   0  0  0  0  0  0  0  0  0  0  0  0
  147.8274  133.9137  161.3869 C   0  0  0  0  0  0  0  0  0  0  0  0
  147.2646  134.9158  162.2830 C   0  0  0  0  0  0  0  0  0  0  0  0
  146.9002  134.6680  163.4334 O   0  0  0  0  0  0  0  0  0  0  0  0
  147.1717  136.2139  161.7313 N   0  0  0  0  0  0  0  0  0  0  0  0
  146.6319  137.2440  162.5940 C   0  0  0  0  0  0  0  0  0  0  0  0
  147.5934  136.5587  160.4258 C   0  0  0  0  0  0  0  0  0  0  0  0
  147.5104  137.7079  159.9856 O   0  0  0  0  0  0  0  0  0  0  0  0
  150.8599  136.6057  154.7541 H   0  0  0  0  0  0  0  0  0  0  0  0
  152.4835  137.0246  155.2968 H   0  0  0  0  0  0  0  0  0  0  0  0
  151.9388  137.5029  153.6946 H   0  0  0  0  0  0  0  0  0  0  0  0
  151.9112  139.4376  155.1965 H   0  0  0  0  0  0  0  0  0  0  0  0
  150.1829  139.3574  153.4441 H   0  0  0  0  0  0  0  0  0  0  0  0
  149.0845  138.5297  154.5176 H   0  0  0  0  0  0  0  0  0  0  0  0
  150.1865  141.3572  154.8796 H   0  0  0  0  0  0  0  0  0  0  0  0
  148.5425  140.9342  154.4670 H   0  0  0  0  0  0  0  0  0  0  0  0
  148.7742  141.5006  156.8949 H   0  0  0  0  0  0  0  0  0  0  0  0
  148.2026  139.8668  156.6667 H   0  0  0  0  0  0  0  0  0  0  0  0
  151.0691  140.7136  157.3005 H   0  0  0  0  0  0  0  0  0  0  0  0
  149.9805  139.9090  158.3956 H   0  0  0  0  0  0  0  0  0  0  0  0
  151.6903  138.3823  157.3444 H   0  0  0  0  0  0  0  0  0  0  0  0
  149.1299  137.3722  156.3489 H   0  0  0  0  0  0  0  0  0  0  0  0
  147.7578  136.1149  157.6365 H   0  0  0  0  0  0  0  0  0  0  0  0
  148.9733  134.8823  157.8010 H   0  0  0  0  0  0  0  0  0  0  0  0
  148.6384  133.4682  159.5140 H   0  0  0  0  0  0  0  0  0  0  0  0
  147.9318  132.8942  161.7282 H   0  0  0  0  0  0  0  0  0  0  0  0
  146.4567  138.1685  162.0449 H   0  0  0  0  0  0  0  0  0  0  0  0
  147.3600  137.4045  163.3908 H   0  0  0  0  0  0  0  0  0  0  0  0
  145.6815  136.8809  162.9895 H   0  0  0  0  0  0  0  0  0  0  0  0
  1  2  1  0  0  0  0
  1 21  1  0  0  0  0
  1 22  1  0  0  0  0
  1 23  1  0  0  0  0
  2  7  1  0  0  0  0
  2  3  1  0  0  0  0
  2 24  1  0  0  0  0
  3  4  1  0  0  0  0
  3 25  1  0  0  0  0
  3 26  1  0  0  0  0
  4  5  1  0  0  0  0
  4 27  1  0  0  0  0
  4 28  1  0  0  0  0
  5  6  1  0  0  0  0
  5 29  1  0  0  0  0
  5 30  1  0  0  0  0
  6  7  1  0  0  0  0
  6 31  1  0  0  0  0
  6 32  1  0  0  0  0
  7  8  1  0  0  0  0
  7 33  1  0  0  0  0
  8  9  1  0  0  0  0
  8 34  1  0  0  0  0
  9 10  2  0  0  0  0
  9 11  1  0  0  0  0
 11 12  1  0  0  0  0
 11 35  1  0  0  0  0
 11 36  1  0  0  0  0
 12 19  1  0  0  0  0
 12 13  1  0  0  0  0
 13 14  2  0  0  0  0
 13 37  1  0  0  0  0
 14 15  1  0  0  0  0
 14 38  1  0  0  0  0
 15 16  2  0  0  0  0
 15 17  1  0  0  0  0
 17 18  1  0  0  0  0
 17 19  1  0  0  0  0
 18 39  1  0  0  0  0
 18 40  1  0  0  0  0
 18 41  1  0  0  0  0
 19 20  2  0  0  0  0
M  END
> <s_m_source_file>
AV-unprocessed.smi

> <i_m_source_file_index>
2152

> <i_lp_mmshare_version>
43012

> <i_f3d_flags>
0

> <s_epik_input>
W0NIM11bQ0BASF0xW0NIMl1bQ0gyXVtDSDJdW0NIMl1bQ0BIXTFbTkhdQyg9TylbQ0gyXW4yW2NIXVtjSF1jKD1PKW4oW0NIM10pYzI9Tw==

> <s_epik_cmdline>
J2VwaWtfcHl0aG9uJywgJy1waCcsICc3LjAnLCAnLXRuJywgJzgnLCAnLW1hJywgJzIwMCcsICctbWV0YWxfYmluZGluZycsICctaW1hZScsICc8aW5maWxlLm1hZT4nLCAnLW9tYWUnLCAnPG91dGZpbGUubWFlPic=

> <r_lp_tautomer_probability>
1

> <r_epik_Ionization_Penalty>
3.20555e-08

> <r_epik_Ionization_Penalty_Charging>
1.30086e-08

> <r_epik_Ionization_Penalty_Neutral>
1.90469e-08

> <r_epik_State_Penalty>
-0

> <r_epik_Charging_Adjusted_Penalty>
1.30086e-08

> <i_epik_Tot_Q>
0

> <i_epik_Tot_abs_Q>
0

> <r_epik_Metal_State_Penalty>
-0

> <b_epik_Metal_Only>
0

> <s_lp_Force_Field>
OPLS_2005

> <r_lp_Energy>
17.5723

> <b_lp_Chiralities_Consistent>
1

> <s_lp_Variant>
AV-unprocessed.smi:2152-2

> <Gold.Version>
5.8.1

> <Gold.Id.Protein>
6NUR|6NUR_protein|mol2

> <Gold.PLP.Fitness>
39.2908

> <Gold.PLP.PLP>
-35.1014

> <Gold.PLP.part.hbond>
-3.6759

> <Gold.PLP.part.metal>
0.0000

> <Gold.PLP.part.buried>
-3.1173

> <Gold.PLP.part.nonpolar>
-28.3825

> <Gold.PLP.part.repulsive>
0.0222

> <Gold.PLP.ligand.clash>
0.0000

> <Gold.PLP.ligand.torsion>
0.7403

> <Gold.PLP.Chemscore.Hbond>
1.8857

> <Gold.PLP.Chemscore.CHOScore>
0.0000

> <Gold.PLP.Chemscore.Metal>
0.0000

> <Gold.Chemscore.Hbonds>
donor molecule, donor type, donor heavy atom, donor atom, acceptor molecule, acceptor atom, score
      P1  H  6896  6909       L1    10  0.59
      P1  H  6934  6947       L1    20  0.82

> <Gold.PLP.Chemscore.Internal.Correction>
0.0128

> <Gold.Rescore>
     Score         DG    S(hbond)    S(metal)    S(lipo)     H(rot)  DE(clash)    DE(int)     intcor
     16.15     -16.83       2.64        0.00      55.09       1.52       0.00       0.67       ----

> <Gold.Chemscore.Fitness>
16.1521

> <Gold.Chemscore.DG>
-16.8250

> <Gold.Chemscore.ZeroCoef>
-5.4800

> <Gold.Chemscore.Hbond>
2.6352

> <Gold.Chemscore.Metal>
0.0000

> <Gold.Chemscore.Lipo>
55.0875

> <Gold.Chemscore.Internal_Hbond>
0.0000

> <Gold.Chemscore.DEClash>
0.0000

> <Gold.Chemscore.DEInternal>
0.6729

> <Gold.Chemscore.Rot>
1.5242

> <Gold.Chemscore.Internal.Correction>
   9.000000E+99

> <Gold.Chemscore.Hbonds>
donor molecule, donor type, donor heavy atom, donor atom, acceptor molecule, acceptor atom, score
      P1  H  6896  6909       L1    10  0.19
      P1  H  6934  6947       L1    20  0.79

> <Gold.Chemscore.Hbond.Weighted>
-8.8017

> <Gold.Chemscore.Metal.Weighted>
-0.0000

> <Gold.Chemscore.Lipo.Weighted>
-6.4452

> <Gold.Chemscore.Internal_Hbond.Weighted>
0.0000

> <Gold.Chemscore.DEClash.Weighted>
0.0000

> <Gold.Chemscore.DEInternal.Weighted>
0.6729

> <Gold.Chemscore.Rot.Weighted>
3.9019

> <Gold.Chemscore.Internal.Correction.Weighted>
   9.000000E+99

> <Gold.Protein.RotatedTorsions>
[ 6907 6896 6895 6894 ] final   72.36 input  -60.11 | X-H torsion
[ 7974 7965 7964 7962 ] final -153.80 input  175.53 | X-H torsion
[ 8008 7997 7996 7995 ] final  137.58 input   59.86 | X-H torsion
[ 10167 10162 10161 10158 ] final -119.90 input  -65.29 | X-H torsion
[ 10718 10713 10712 10709 ] final  169.42 input   66.30 | X-H torsion
[ 10763 10752 10751 10750 ] final -174.05 input  -60.55 | X-H torsion
[ 11005 11000 10999 10996 ] final -170.12 input  -57.11 | X-H torsion

> <Gold.Protein.ActiveResidues>
 VAL166  LYS551  ARG553  GLY616  TRP617  ASP618  TYR619  PRO620  LYS621  CYS622 
 ASP623  PHE694  ASN695  SER759  ASP760  ASP761  ALA762  ILE779  LEU786  VAL792 
 PHE793  MET794  SER795  GLU796  ALA797  LYS798  CYS799  TRP800  GLU811  SER814 

> <Gold.Protein.RotatedAtoms>
  152.4863  134.4582  159.9596 H   0  0  0  0  0  0  0  0  0  0  0  0  # atno 6907 bound_to 6896
  151.4578  133.3594  159.2812 H   0  0  0  0  0  0  0  0  0  0  0  0  # atno 6908 bound_to 6896
  150.8977  134.8412  159.7399 H   0  0  0  0  0  0  0  0  0  0  0  0  # atno 6909 bound_to 6896
  144.7722  140.4476  143.5899 H   0  0  0  0  0  0  0  0  0  0  0  0  # atno 7974 bound_to 7965
  156.3001  140.2416  156.3933 H   0  0  0  0  0  0  0  0  0  0  0  0  # atno 8008 bound_to 7997
  154.8594  140.0420  157.1675 H   0  0  0  0  0  0  0  0  0  0  0  0  # atno 8009 bound_to 7997
  154.8913  140.2963  155.5373 H   0  0  0  0  0  0  0  0  0  0  0  0  # atno 8010 bound_to 7997
  140.0417  143.5147  152.2127 H   0  0  0  0  0  0  0  0  0  0  0  0  # atno 10167 bound_to 10162
  157.0229  131.0237  151.2769 H   0  0  0  0  0  0  0  0  0  0  0  0  # atno 10718 bound_to 10713
  154.6008  135.2854  155.0537 H   0  0  0  0  0  0  0  0  0  0  0  0  # atno 10763 bound_to 10752
  154.1803  135.6458  153.5036 H   0  0  0  0  0  0  0  0  0  0  0  0  # atno 10764 bound_to 10752
  153.0156  135.5422  154.6726 H   0  0  0  0  0  0  0  0  0  0  0  0  # atno 10765 bound_to 10752
  140.5231  134.5690  157.5053 H   0  0  0  0  0  0  0  0  0  0  0  0  # atno 11005 bound_to 11000
  145.6290  139.1534  143.2979 LP  0  0  0  0  0  0  0  0  0  0  0  0  # atno 17320 bound_to 7965
  146.1877  140.6395  142.9160 LP  0  0  0  0  0  0  0  0  0  0  0  0  # atno 17321 bound_to 7965
  139.6010  144.7582  151.3173 LP  0  0  0  0  0  0  0  0  0  0  0  0  # atno 17342 bound_to 10162
  140.7257  143.7010  150.7845 LP  0  0  0  0  0  0  0  0  0  0  0  0  # atno 17343 bound_to 10162
  157.5236  130.8013  149.7836 LP  0  0  0  0  0  0  0  0  0  0  0  0  # atno 17370 bound_to 10713
  156.0096  130.3839  150.2311 LP  0  0  0  0  0  0  0  0  0  0  0  0  # atno 17371 bound_to 10713
  139.9595  134.7477  156.0268 LP  0  0  0  0  0  0  0  0  0  0  0  0  # atno 17394 bound_to 11000
  141.1323  133.6583  156.3498 LP  0  0  0  0  0  0  0  0  0  0  0  0  # atno 17395 bound_to 11000

$$$$
