AV-unprocessed.smi:1361|AV-procd|sdf|5557|dock7
  -GOLD-   22720 5153D 1   1.00000     0.00000
 Structure written by MMmdl.
 45 46  0  0  0  0  0  0  0  0  2 V2000
  150.8172  129.2157  154.5488 C   0  0  0  0  0  0  0  0  0  0  0  0
  150.4284  130.6724  154.6836 C   0  0  0  0  0  0  0  0  0  0  0  0
  149.7206  131.2180  153.7695 N   0  0  0  0  0  0  0  0  0  0  0  0
  149.3537  132.5687  153.8925 C   0  0  0  0  0  0  0  0  0  0  0  0
  148.5078  133.1293  152.7621 C   0  0  0  0  0  0  0  0  0  0  0  0
  149.7427  133.3108  154.9691 C   0  0  0  0  0  0  0  0  0  0  0  0
  149.3637  134.7794  155.1535 C   0  0  0  0  0  0  0  0  0  0  0  0
  150.5376  135.7371  155.3632 C   0  0  0  0  0  0  0  0  0  0  0  0
  151.6430  135.2983  155.6797 O   0  0  0  0  0  0  0  0  0  0  0  0
  150.2831  137.0425  155.1822 N   0  0  0  0  0  0  0  0  0  0  0  0
  151.2486  138.1296  155.3243 C   0  0  0  0  0  0  0  0  0  0  0  0
  151.5061  138.4056  156.8232 C   0  0  0  0  0  0  0  0  0  0  0  0
  152.2886  139.6987  157.1188 C   0  0  0  0  0  0  0  0  0  0  0  0
  151.4788  140.7803  157.8579 C   0  0  0  0  0  0  0  0  0  0  0  0
  150.0398  141.0412  157.3658 C   0  0  0  0  0  0  0  0  0  0  0  0
  149.8761  141.3420  155.8657 C   0  0  0  0  0  0  0  0  0  0  0  0
  149.5632  140.1189  154.9767 C   0  0  0  0  0  0  0  0  0  0  0  0
  150.7923  139.3386  154.4732 C   0  0  0  0  0  0  0  0  0  0  0  0
  150.5645  132.6461  155.9967 C   0  0  0  0  0  0  0  0  0  0  0  0
  150.9559  133.2723  156.9808 O   0  0  0  0  0  0  0  0  0  0  0  0
  150.8697  131.3303  155.8094 N   0  5  0  0  0  0  0  0  0  0  0  0
  150.5914  128.8395  153.5502 H   0  0  0  0  0  0  0  0  0  0  0  0
  150.2715  128.6128  155.2752 H   0  0  0  0  0  0  0  0  0  0  0  0
  151.8857  129.0890  154.7266 H   0  0  0  0  0  0  0  0  0  0  0  0
  147.5496  133.4875  153.1383 H   0  0  0  0  0  0  0  0  0  0  0  0
  148.3055  132.3690  152.0069 H   0  0  0  0  0  0  0  0  0  0  0  0
  149.0222  133.9559  152.2723 H   0  0  0  0  0  0  0  0  0  0  0  0
  148.7890  135.0985  154.2835 H   0  0  0  0  0  0  0  0  0  0  0  0
  148.6750  134.8999  155.9900 H   0  0  0  0  0  0  0  0  0  0  0  0
  149.3442  137.3041  154.9196 H   0  0  0  0  0  0  0  0  0  0  0  0
  152.1927  137.7991  154.8865 H   0  0  0  0  0  0  0  0  0  0  0  0
  150.5693  138.3853  157.3786 H   0  0  0  0  0  0  0  0  0  0  0  0
  152.0734  137.5655  157.2263 H   0  0  0  0  0  0  0  0  0  0  0  0
  153.1535  139.4509  157.7353 H   0  0  0  0  0  0  0  0  0  0  0  0
  152.7186  140.1149  156.2093 H   0  0  0  0  0  0  0  0  0  0  0  0
  151.4250  140.5104  158.9132 H   0  0  0  0  0  0  0  0  0  0  0  0
  152.0418  141.7138  157.8248 H   0  0  0  0  0  0  0  0  0  0  0  0
  149.3738  140.2296  157.6583 H   0  0  0  0  0  0  0  0  0  0  0  0
  149.6726  141.9056  157.9207 H   0  0  0  0  0  0  0  0  0  0  0  0
  149.0265  142.0196  155.7728 H   0  0  0  0  0  0  0  0  0  0  0  0
  150.7297  141.9032  155.4840 H   0  0  0  0  0  0  0  0  0  0  0  0
  148.8421  139.4561  155.4555 H   0  0  0  0  0  0  0  0  0  0  0  0
  149.0520  140.5010  154.0922 H   0  0  0  0  0  0  0  0  0  0  0  0
  151.6203  140.0265  154.3042 H   0  0  0  0  0  0  0  0  0  0  0  0
  150.5600  138.9599  153.4763 H   0  0  0  0  0  0  0  0  0  0  0  0
  1  2  1  0  0  0  0
  1 22  1  0  0  0  0
  1 23  1  0  0  0  0
  1 24  1  0  0  0  0
  2 21  1  0  0  0  0
  2  3  2  0  0  0  0
  3  4  1  0  0  0  0
  4  5  1  0  0  0  0
  4  6  2  0  0  0  0
  5 25  1  0  0  0  0
  5 26  1  0  0  0  0
  5 27  1  0  0  0  0
  6  7  1  0  0  0  0
  6 19  1  0  0  0  0
  7  8  1  0  0  0  0
  7 28  1  0  0  0  0
  7 29  1  0  0  0  0
  8  9  2  0  0  0  0
  8 10  1  0  0  0  0
 10 11  1  0  0  0  0
 10 30  1  0  0  0  0
 11 18  1  0  0  0  0
 11 12  1  0  0  0  0
 11 31  1  0  0  0  0
 12 13  1  0  0  0  0
 12 32  1  0  0  0  0
 12 33  1  0  0  0  0
 13 14  1  0  0  0  0
 13 34  1  0  0  0  0
 13 35  1  0  0  0  0
 14 15  1  0  0  0  0
 14 36  1  0  0  0  0
 14 37  1  0  0  0  0
 15 16  1  0  0  0  0
 15 38  1  0  0  0  0
 15 39  1  0  0  0  0
 16 17  1  0  0  0  0
 16 40  1  0  0  0  0
 16 41  1  0  0  0  0
 17 18  1  0  0  0  0
 17 42  1  0  0  0  0
 17 43  1  0  0  0  0
 18 44  1  0  0  0  0
 18 45  1  0  0  0  0
 19 20  2  0  0  0  0
 19 21  1  0  0  0  0
M  CHG  1  21  -1
M  END
> <s_m_source_file>
AV-unprocessed.smi

> <i_m_source_file_index>
1361

> <i_lp_mmshare_version>
43012

> <i_f3d_flags>
0

> <s_epik_input>
W0NIM11jMW5jKFtDSDNdKWMoYyg9TylbbkhdMSlbQ0gyXUMoPU8pW05IXVtDSF0yW0NIMl1bQ0gyXVtDSDJdW0NIMl1bQ0gyXVtDSDJdW0NIMl0y

> <s_epik_cmdline>
J2VwaWtfcHl0aG9uJywgJy1waCcsICc3LjAnLCAnLXRuJywgJzgnLCAnLW1hJywgJzIwMCcsICctbWV0YWxfYmluZGluZycsICctaW1hZScsICc8aW5maWxlLm1hZT4nLCAnLW9tYWUnLCAnPG91dGZpbGUubWFlPic=

> <r_lp_tautomer_probability>
0.839158

> <r_epik_Ionization_Penalty>
6.62804

> <r_epik_Ionization_Penalty_Charging>
7.40585e-08

> <r_epik_Ionization_Penalty_Neutral>
6.62804

> <r_epik_State_Penalty>
4.44437

> <r_epik_Charging_Adjusted_Penalty>
4.44437

> <i_epik_Tot_Q>
-1

> <i_epik_Tot_abs_Q>
1

> <r_epik_Metal_State_Penalty>
0.804717

> <b_epik_Metal_Only>
1

> <s_lp_Force_Field>
OPLS_2005

> <r_lp_Energy>
26.9664

> <b_lp_Chiralities_Consistent>
1

> <s_lp_Variant>
AV-unprocessed.smi:1361-3

> <Gold.Version>
5.8.1

> <Gold.Id.Protein>
6NUR|6NUR_protein|mol2

> <Gold.PLP.Fitness>
38.3824

> <Gold.PLP.PLP>
-33.9289

> <Gold.PLP.part.hbond>
-2.0000

> <Gold.PLP.part.metal>
0.0000

> <Gold.PLP.part.buried>
-2.2681

> <Gold.PLP.part.nonpolar>
-29.3399

> <Gold.PLP.part.repulsive>
0.1466

> <Gold.PLP.ligand.clash>
0.0000

> <Gold.PLP.ligand.torsion>
0.5178

> <Gold.PLP.Chemscore.Hbond>
1.8160

> <Gold.PLP.Chemscore.CHOScore>
0.0000

> <Gold.PLP.Chemscore.Metal>
0.0000

> <Gold.Chemscore.Hbonds>
donor molecule, donor type, donor heavy atom, donor atom, acceptor molecule, acceptor atom, score
      P1  H  6896  6907       L1    20  0.42
      P1  H 10752 10764       L1     9  1.00

> <Gold.PLP.Chemscore.Internal.Correction>
0.0412

> <Gold.Rescore>
     Score         DG    S(hbond)    S(metal)    S(lipo)     H(rot)  DE(clash)    DE(int)     intcor
     15.87     -16.55       1.88        0.00      72.45       1.43       0.11       0.57       ----

> <Gold.Chemscore.Fitness>
15.8694

> <Gold.Chemscore.DG>
-16.5512

> <Gold.Chemscore.ZeroCoef>
-5.4800

> <Gold.Chemscore.Hbond>
1.8758

> <Gold.Chemscore.Metal>
0.0000

> <Gold.Chemscore.Lipo>
72.4516

> <Gold.Chemscore.Internal_Hbond>
0.0000

> <Gold.Chemscore.DEClash>
0.1090

> <Gold.Chemscore.DEInternal>
0.5727

> <Gold.Chemscore.Rot>
1.4339

> <Gold.Chemscore.Internal.Correction>
   9.000000E+99

> <Gold.Chemscore.Hbonds>
donor molecule, donor type, donor heavy atom, donor atom, acceptor molecule, acceptor atom, score
      P1  H  6896  6907       L1    20  0.41
      P1  H 10752 10764       L1     9  0.96

> <Gold.Chemscore.Hbond.Weighted>
-6.2651

> <Gold.Chemscore.Metal.Weighted>
-0.0000

> <Gold.Chemscore.Lipo.Weighted>
-8.4768

> <Gold.Chemscore.Internal_Hbond.Weighted>
0.0000

> <Gold.Chemscore.DEClash.Weighted>
0.1090

> <Gold.Chemscore.DEInternal.Weighted>
0.5727

> <Gold.Chemscore.Rot.Weighted>
3.6708

> <Gold.Chemscore.Internal.Correction.Weighted>
   9.000000E+99

> <Gold.Protein.RotatedTorsions>
[ 6907 6896 6895 6894 ] final -150.28 input  -60.11 | X-H torsion
[ 7974 7965 7964 7962 ] final   53.79 input  175.53 | X-H torsion
[ 8008 7997 7996 7995 ] final  -57.11 input   59.86 | X-H torsion
[ 10167 10162 10161 10158 ] final  -92.62 input  -65.29 | X-H torsion
[ 10718 10713 10712 10709 ] final  -31.49 input   66.30 | X-H torsion
[ 10763 10752 10751 10750 ] final  -45.43 input  -60.55 | X-H torsion
[ 11005 11000 10999 10996 ] final  144.09 input  -57.11 | X-H torsion

> <Gold.Protein.ActiveResidues>
 VAL166  LYS551  ARG553  GLY616  TRP617  ASP618  TYR619  PRO620  LYS621  CYS622 
 ASP623  PHE694  ASN695  SER759  ASP760  ASP761  ALA762  ILE779  LEU786  VAL792 
 PHE793  MET794  SER795  GLU796  ALA797  LYS798  CYS799  TRP800  GLU811  SER814 

> <Gold.Protein.RotatedAtoms>
  151.1962  133.4637  159.2595 H   0  0  0  0  0  0  0  0  0  0  0  0  # atno 6907 bound_to 6896
  151.1114  135.0029  159.8506 H   0  0  0  0  0  0  0  0  0  0  0  0  # atno 6908 bound_to 6896
  152.5450  134.1881  159.8716 H   0  0  0  0  0  0  0  0  0  0  0  0  # atno 6909 bound_to 6896
  145.9675  139.4117  143.0210 H   0  0  0  0  0  0  0  0  0  0  0  0  # atno 7974 bound_to 7965
  154.4255  140.1114  156.5745 H   0  0  0  0  0  0  0  0  0  0  0  0  # atno 8008 bound_to 7997
  155.6177  140.3495  155.4623 H   0  0  0  0  0  0  0  0  0  0  0  0  # atno 8009 bound_to 7997
  156.0049  140.1207  157.0501 H   0  0  0  0  0  0  0  0  0  0  0  0  # atno 8010 bound_to 7997
  140.3329  143.2984  151.9921 H   0  0  0  0  0  0  0  0  0  0  0  0  # atno 10167 bound_to 10162
  156.3866  130.4365  149.7427 H   0  0  0  0  0  0  0  0  0  0  0  0  # atno 10718 bound_to 10713
  154.0284  135.6660  153.4778 H   0  0  0  0  0  0  0  0  0  0  0  0  # atno 10763 bound_to 10752
  153.0551  135.5061  154.7957 H   0  0  0  0  0  0  0  0  0  0  0  0  # atno 10764 bound_to 10752
  154.6894  135.3058  154.9466 H   0  0  0  0  0  0  0  0  0  0  0  0  # atno 10765 bound_to 10752
  140.0605  134.9207  157.1175 H   0  0  0  0  0  0  0  0  0  0  0  0  # atno 11005 bound_to 11000
  145.7953  140.9796  143.1027 LP  0  0  0  0  0  0  0  0  0  0  0  0  # atno 17320 bound_to 7965
  144.6829  139.9734  143.7482 LP  0  0  0  0  0  0  0  0  0  0  0  0  # atno 17321 bound_to 7965
  139.4853  144.6220  151.7237 LP  0  0  0  0  0  0  0  0  0  0  0  0  # atno 17342 bound_to 10162
  140.5380  144.0624  150.6077 LP  0  0  0  0  0  0  0  0  0  0  0  0  # atno 17343 bound_to 10162
  156.4497  130.7900  151.2922 LP  0  0  0  0  0  0  0  0  0  0  0  0  # atno 17370 bound_to 10713
  157.7496  131.0099  150.3286 LP  0  0  0  0  0  0  0  0  0  0  0  0  # atno 17371 bound_to 10713
  140.3778  134.2320  155.7173 LP  0  0  0  0  0  0  0  0  0  0  0  0  # atno 17394 bound_to 11000
  141.1971  133.8067  157.0643 LP  0  0  0  0  0  0  0  0  0  0  0  0  # atno 17395 bound_to 11000

$$$$
