AV-unprocessed.smi:3202|AV-procd|sdf|12242|dock5
  -GOLD-   2272018 73D 1   1.00000     0.00000
 Structure written by MMmdl.
 43 44  0  0  0  0  0  0  0  0  2 V2000
  146.9416  139.2628  152.1714 C   0  0  0  0  0  0  0  0  0  0  0  0
  148.0737  139.6987  153.0385 C   0  0  0  0  0  0  0  0  0  0  0  0
  148.1722  140.7021  153.9610 C   0  0  0  0  0  0  0  0  0  0  0  0
  149.5107  140.6086  154.4433 C   0  0  0  0  0  0  0  0  0  0  0  0
  150.1792  141.4690  155.4818 C   0  0  0  0  0  0  0  0  0  0  0  0
  149.3382  141.6596  156.7636 C   0  0  1  0  0  0  0  0  0  0  0  0
  149.2991  140.4035  157.6497 C   0  0  0  0  0  0  0  0  0  0  0  0
  149.8713  142.7894  157.5584 N   0  3  0  0  0  0  0  0  0  0  0  0
  151.3185  142.7384  157.8732 C   0  0  2  0  0  0  0  0  0  0  0  0
  151.6908  141.6895  158.9283 C   0  0  0  0  0  0  0  0  0  0  0  0
  153.0143  142.1770  159.5306 C   0  0  0  0  0  0  0  0  0  0  0  0
  153.2146  143.6174  159.0320 C   0  0  0  0  0  0  0  0  0  0  0  0
  151.8710  144.0686  158.4286 C   0  0  0  0  0  0  0  0  0  0  0  0
  152.0816  145.1095  157.3129 C   0  0  0  0  0  0  0  0  0  0  0  0
  150.9773  144.6734  159.5368 C   0  0  0  0  0  0  0  0  0  0  0  0
  150.1867  139.6243  153.8673 N   0  0  0  0  0  0  0  0  0  0  0  0
  149.3010  139.0777  153.0139 N   0  0  0  0  0  0  0  0  0  0  0  0
  149.5457  138.2933  152.4258 H   0  0  0  0  0  0  0  0  0  0  0  0
  146.0031  139.7076  152.5028 H   0  0  0  0  0  0  0  0  0  0  0  0
  146.8268  138.1788  152.1959 H   0  0  0  0  0  0  0  0  0  0  0  0
  147.1096  139.5627  151.1369 H   0  0  0  0  0  0  0  0  0  0  0  0
  147.4018  141.4024  154.2483 H   0  0  0  0  0  0  0  0  0  0  0  0
  151.1481  141.0418  155.7448 H   0  0  0  0  0  0  0  0  0  0  0  0
  150.4006  142.4397  155.0397 H   0  0  0  0  0  0  0  0  0  0  0  0
  148.3097  141.8830  156.4752 H   0  0  0  0  0  0  0  0  0  0  0  0
  148.8032  139.5726  157.1479 H   0  0  0  0  0  0  0  0  0  0  0  0
  148.7479  140.5924  158.5718 H   0  0  0  0  0  0  0  0  0  0  0  0
  150.3032  140.0781  157.9235 H   0  0  0  0  0  0  0  0  0  0  0  0
  149.7244  143.6272  157.0136 H   0  0  0  0  0  0  0  0  0  0  0  0
  151.8600  142.5038  156.9546 H   0  0  0  0  0  0  0  0  0  0  0  0
  150.9333  141.6499  159.7120 H   0  0  0  0  0  0  0  0  0  0  0  0
  151.7755  140.6886  158.5033 H   0  0  0  0  0  0  0  0  0  0  0  0
  152.9705  142.1412  160.6199 H   0  0  0  0  0  0  0  0  0  0  0  0
  153.8469  141.5458  159.2175 H   0  0  0  0  0  0  0  0  0  0  0  0
  153.5660  144.2817  159.8226 H   0  0  0  0  0  0  0  0  0  0  0  0
  153.9871  143.6128  158.2613 H   0  0  0  0  0  0  0  0  0  0  0  0
  152.5472  146.0154  157.7028 H   0  0  0  0  0  0  0  0  0  0  0  0
  151.1343  145.3967  156.8554 H   0  0  0  0  0  0  0  0  0  0  0  0
  152.7251  144.7264  156.5201 H   0  0  0  0  0  0  0  0  0  0  0  0
  151.4423  145.5578  159.9735 H   0  0  0  0  0  0  0  0  0  0  0  0
  150.7976  143.9704  160.3503 H   0  0  0  0  0  0  0  0  0  0  0  0
  150.0066  144.9837  159.1492 H   0  0  0  0  0  0  0  0  0  0  0  0
  149.3424  142.8744  158.4146 H   0  0  0  0  0  0  0  0  0  0  0  0
  1  2  1  0  0  0  0
  1 19  1  0  0  0  0
  1 20  1  0  0  0  0
  1 21  1  0  0  0  0
  2 17  1  0  0  0  0
  2  3  2  0  0  0  0
  3  4  1  0  0  0  0
  3 22  1  0  0  0  0
  4  5  1  0  0  0  0
  4 16  2  0  0  0  0
  5  6  1  0  0  0  0
  5 23  1  0  0  0  0
  5 24  1  0  0  0  0
  6  7  1  0  0  0  0
  6  8  1  0  0  0  0
  6 25  1  0  0  0  0
  7 26  1  0  0  0  0
  7 27  1  0  0  0  0
  7 28  1  0  0  0  0
  8  9  1  0  0  0  0
  8 29  1  0  0  0  0
  8 43  1  0  0  0  0
  9 13  1  0  0  0  0
  9 10  1  0  0  0  0
  9 30  1  0  0  0  0
 10 11  1  0  0  0  0
 10 31  1  0  0  0  0
 10 32  1  0  0  0  0
 11 12  1  0  0  0  0
 11 33  1  0  0  0  0
 11 34  1  0  0  0  0
 12 13  1  0  0  0  0
 12 35  1  0  0  0  0
 12 36  1  0  0  0  0
 13 14  1  0  0  0  0
 13 15  1  0  0  0  0
 14 37  1  0  0  0  0
 14 38  1  0  0  0  0
 14 39  1  0  0  0  0
 15 40  1  0  0  0  0
 15 41  1  0  0  0  0
 15 42  1  0  0  0  0
 16 17  1  0  0  0  0
 17 18  1  0  0  0  0
M  CHG  1   8   1
M  END
> <s_m_source_file>
AV-unprocessed.smi

> <i_m_source_file_index>
3202

> <i_lp_mmshare_version>
43012

> <i_f3d_flags>
0

> <s_epik_input>
W0NIM11jMVtjSF1jKG5bbkhdMSlbQ0gyXVtDQEhdKFtDSDNdKVtOSF1bQ0BASF0oQzIoW0NIM10pW0NIM10pW0NIMl1bQ0gyXVtDSDJdMg==

> <s_epik_cmdline>
J2VwaWtfcHl0aG9uJywgJy1waCcsICc3LjAnLCAnLXRuJywgJzgnLCAnLW1hJywgJzIwMCcsICctbWV0YWxfYmluZGluZycsICctaW1hZScsICc8aW5maWxlLm1hZT4nLCAnLW9tYWUnLCAnPG91dGZpbGUubWFlPic=

> <r_lp_tautomer_probability>
0.5

> <r_epik_Ionization_Penalty>
0.000341671

> <r_epik_Ionization_Penalty_Charging>
0.000281809

> <r_epik_Ionization_Penalty_Neutral>
5.9862e-05

> <r_epik_State_Penalty>
0.41068

> <r_epik_Charging_Adjusted_Penalty>
0.410962

> <i_epik_Tot_Q>
1

> <i_epik_Tot_abs_Q>
1

> <r_epik_Metal_State_Penalty>
0.410672

> <b_epik_Metal_Only>
0

> <s_lp_Force_Field>
OPLS_2005

> <r_lp_Energy>
29.8366

> <b_lp_Chiralities_Consistent>
1

> <s_lp_Variant>
AV-unprocessed.smi:3202-2

> <Gold.Version>
5.8.1

> <Gold.Id.Protein>
6NUR|6NUR_protein|mol2

> <Gold.PLP.Fitness>
47.4850

> <Gold.PLP.PLP>
-38.4055

> <Gold.PLP.part.hbond>
-3.5381

> <Gold.PLP.part.metal>
0.0000

> <Gold.PLP.part.buried>
-2.9692

> <Gold.PLP.part.nonpolar>
-32.3134

> <Gold.PLP.part.repulsive>
0.9436

> <Gold.PLP.ligand.clash>
0.0000

> <Gold.PLP.ligand.torsion>
0.3597

> <Gold.PLP.Chemscore.Hbond>
3.2600

> <Gold.PLP.Chemscore.CHOScore>
0.0000

> <Gold.PLP.Chemscore.Metal>
0.0000

> <Gold.Chemscore.Hbonds>
donor molecule, donor type, donor heavy atom, donor atom, acceptor molecule, acceptor atom, score
      L1  H     8    29       P1  8028  2.00
      L1  H    17    18       P1  7948  0.61
      P1  H  7989  7998       L1    16  0.49

> <Gold.PLP.Chemscore.Internal.Correction>
0.0190

> <Gold.Rescore>
     Score         DG    S(hbond)    S(metal)    S(lipo)     H(rot)  DE(clash)    DE(int)     intcor
     19.61     -23.05       1.98        0.00     125.51       1.46       1.94       1.50       ----

> <Gold.Chemscore.Fitness>
19.6117

> <Gold.Chemscore.DG>
-23.0535

> <Gold.Chemscore.ZeroCoef>
-5.4800

> <Gold.Chemscore.Hbond>
1.9838

> <Gold.Chemscore.Metal>
0.0000

> <Gold.Chemscore.Lipo>
125.5056

> <Gold.Chemscore.Internal_Hbond>
0.0000

> <Gold.Chemscore.DEClash>
1.9378

> <Gold.Chemscore.DEInternal>
1.5040

> <Gold.Chemscore.Rot>
1.4596

> <Gold.Chemscore.Internal.Correction>
   9.000000E+99

> <Gold.Chemscore.Hbonds>
donor molecule, donor type, donor heavy atom, donor atom, acceptor molecule, acceptor atom, score
      L1  H     8    29       P1  8028  0.94
      L1  H    17    18       P1  7948  0.35
      P1  H  7989  7998       L1    16  0.02

> <Gold.Chemscore.Hbond.Weighted>
-6.6258

> <Gold.Chemscore.Metal.Weighted>
-0.0000

> <Gold.Chemscore.Lipo.Weighted>
-14.6841

> <Gold.Chemscore.Internal_Hbond.Weighted>
0.0000

> <Gold.Chemscore.DEClash.Weighted>
1.9378

> <Gold.Chemscore.DEInternal.Weighted>
1.5040

> <Gold.Chemscore.Rot.Weighted>
3.7365

> <Gold.Chemscore.Internal.Correction.Weighted>
   9.000000E+99

> <Gold.Protein.RotatedTorsions>
[ 6907 6896 6895 6894 ] final  141.02 input  -60.11 | X-H torsion
[ 7974 7965 7964 7962 ] final  -91.68 input  175.53 | X-H torsion
[ 8008 7997 7996 7995 ] final  137.36 input   59.86 | X-H torsion
[ 10167 10162 10161 10158 ] final  -74.27 input  -65.29 | X-H torsion
[ 10718 10713 10712 10709 ] final -127.96 input   66.30 | X-H torsion
[ 10763 10752 10751 10750 ] final  160.81 input  -60.55 | X-H torsion
[ 11005 11000 10999 10996 ] final  -98.80 input  -57.11 | X-H torsion

> <Gold.Protein.ActiveResidues>
 VAL166  LYS551  ARG553  GLY616  TRP617  ASP618  TYR619  PRO620  LYS621  CYS622 
 ASP623  PHE694  ASN695  SER759  ASP760  ASP761  ALA762  ILE779  LEU786  VAL792 
 PHE793  MET794  SER795  GLU796  ALA797  LYS798  CYS799  TRP800  GLU811  SER814 

> <Gold.Protein.RotatedAtoms>
  152.2361  133.5097  159.5242 H   0  0  0  0  0  0  0  0  0  0  0  0  # atno 6907 bound_to 6896
  150.7051  134.1152  159.4023 H   0  0  0  0  0  0  0  0  0  0  0  0  # atno 6908 bound_to 6896
  151.9073  135.0353  160.0562 H   0  0  0  0  0  0  0  0  0  0  0  0  # atno 6909 bound_to 6896
  145.4099  140.9544  143.2240 H   0  0  0  0  0  0  0  0  0  0  0  0  # atno 7974 bound_to 7965
  156.3002  140.2421  156.3896 H   0  0  0  0  0  0  0  0  0  0  0  0  # atno 8008 bound_to 7997
  154.8626  140.0419  157.1694 H   0  0  0  0  0  0  0  0  0  0  0  0  # atno 8009 bound_to 7997
  154.8880  140.2959  155.5390 H   0  0  0  0  0  0  0  0  0  0  0  0  # atno 8010 bound_to 7997
  140.5041  143.2356  151.7704 H   0  0  0  0  0  0  0  0  0  0  0  0  # atno 10167 bound_to 10162
  156.1906  130.6792  151.0419 H   0  0  0  0  0  0  0  0  0  0  0  0  # atno 10718 bound_to 10713
  154.2532  135.2771  155.2808 H   0  0  0  0  0  0  0  0  0  0  0  0  # atno 10763 bound_to 10752
  154.5447  135.5692  153.6873 H   0  0  0  0  0  0  0  0  0  0  0  0  # atno 10764 bound_to 10752
  152.9976  135.6260  154.2679 H   0  0  0  0  0  0  0  0  0  0  0  0  # atno 10765 bound_to 10752
  141.1332  133.8273  157.0888 H   0  0  0  0  0  0  0  0  0  0  0  0  # atno 11005 bound_to 11000
  144.8316  139.5619  143.6941 LP  0  0  0  0  0  0  0  0  0  0  0  0  # atno 17320 bound_to 7965
  146.2710  139.6635  142.9296 LP  0  0  0  0  0  0  0  0  0  0  0  0  # atno 17321 bound_to 7965
  139.4879  144.4482  151.9685 LP  0  0  0  0  0  0  0  0  0  0  0  0  # atno 17342 bound_to 10162
  140.3572  144.3017  150.5939 LP  0  0  0  0  0  0  0  0  0  0  0  0  # atno 17343 bound_to 10162
  157.6926  131.0805  150.7062 LP  0  0  0  0  0  0  0  0  0  0  0  0  # atno 17370 bound_to 10713
  156.7119  130.4654  149.5545 LP  0  0  0  0  0  0  0  0  0  0  0  0  # atno 17371 bound_to 10713
  140.0405  134.9856  157.0953 LP  0  0  0  0  0  0  0  0  0  0  0  0  # atno 17394 bound_to 11000
  140.4142  134.1949  155.7163 LP  0  0  0  0  0  0  0  0  0  0  0  0  # atno 17395 bound_to 11000

$$$$
