AV-unprocessed.smi:703|AV-procd|sdf|3434|dock10
  -GOLD-   22720 0423D 1   1.00000     0.00000
 Structure written by MMmdl.
 37 38  0  0  0  0  0  0  0  0  3 V2000
  146.5099  136.5959  154.2678 C   0  0  0  0  0  0  0  0  0  0  0  0
  147.4087  137.8246  154.4613 C   0  0  0  0  0  0  0  0  0  0  0  0
  148.8413  137.5146  154.2329 N   0  3  1  0  0  0  0  0  0  0  0  0
  149.7476  138.6869  154.2864 C   0  0  0  0  0  0  0  0  0  0  0  0
  151.0703  138.1549  154.8474 C   0  0  1  0  0  0  0  0  0  0  0  0
  152.0340  139.2402  155.3724 C   0  0  0  0  0  0  0  0  0  0  0  0
  150.6219  137.0601  155.8330 C   0  0  1  0  0  0  0  0  0  0  0  0
  150.2161  137.6346  157.1109 N   0  5  0  0  0  0  0  0  0  0  0  0
  149.9747  136.6590  158.3817 S   0  0  0  0  0  0  0  0  0  0  0  0
  149.8464  135.2469  157.9869 O   0  0  0  0  0  0  0  0  0  0  0  0
  150.8789  136.9604  159.5034 O   0  0  0  0  0  0  0  0  0  0  0  0
  148.2955  137.2037  158.9127 C   0  0  0  0  0  0  0  0  0  0  0  0
  147.9276  136.5518  160.2160 C   0  0  0  0  0  0  0  0  0  0  0  0
  147.9069  135.1665  160.5393 C   0  0  0  0  0  0  0  0  0  0  0  0
  147.5072  135.1489  161.8441 C   0  0  0  0  0  0  0  0  0  0  0  0
  147.3064  136.4120  162.2968 O   0  0  0  0  0  0  0  0  0  0  0  0
  147.5810  137.3011  161.2513 N   0  0  0  0  0  0  0  0  0  0  0  0
  149.3879  136.4670  155.1342 C   0  0  0  0  0  0  0  0  0  0  0  0
  145.4735  136.8363  154.5058 H   0  0  0  0  0  0  0  0  0  0  0  0
  146.8173  135.7757  154.9171 H   0  0  0  0  0  0  0  0  0  0  0  0
  146.5334  136.2375  153.2384 H   0  0  0  0  0  0  0  0  0  0  0  0
  147.0947  138.6352  153.8019 H   0  0  0  0  0  0  0  0  0  0  0  0
  147.2891  138.1867  155.4831 H   0  0  0  0  0  0  0  0  0  0  0  0
  149.8709  139.1299  153.2976 H   0  0  0  0  0  0  0  0  0  0  0  0
  149.3350  139.4608  154.9394 H   0  0  0  0  0  0  0  0  0  0  0  0
  151.5831  137.6461  154.0292 H   0  0  0  0  0  0  0  0  0  0  0  0
  151.5870  139.8504  156.1591 H   0  0  0  0  0  0  0  0  0  0  0  0
  152.3181  139.9174  154.5667 H   0  0  0  0  0  0  0  0  0  0  0  0
  152.9541  138.8072  155.7688 H   0  0  0  0  0  0  0  0  0  0  0  0
  151.3978  136.3019  155.9444 H   0  0  0  0  0  0  0  0  0  0  0  0
  148.3022  138.2893  159.0075 H   0  0  0  0  0  0  0  0  0  0  0  0
  147.5887  136.9429  158.1247 H   0  0  0  0  0  0  0  0  0  0  0  0
  148.1412  134.3213  159.9091 H   0  0  0  0  0  0  0  0  0  0  0  0
  147.3295  134.3555  162.5549 H   0  0  0  0  0  0  0  0  0  0  0  0
  148.6488  136.0829  155.8401 H   0  0  0  0  0  0  0  0  0  0  0  0
  149.6901  135.6252  154.5103 H   0  0  0  0  0  0  0  0  0  0  0  0
  148.9149  137.1343  153.3004 H   0  0  0  0  0  0  0  0  0  0  0  0
  1  2  1  0  0  0  0
  1 19  1  0  0  0  0
  1 20  1  0  0  0  0
  1 21  1  0  0  0  0
  2  3  1  0  0  0  0
  2 22  1  0  0  0  0
  2 23  1  0  0  0  0
  3 18  1  0  0  0  0
  3  4  1  0  0  0  0
  3 37  1  0  0  0  0
  4  5  1  0  0  0  0
  4 24  1  0  0  0  0
  4 25  1  0  0  0  0
  5  6  1  0  0  0  0
  5  7  1  0  0  0  0
  5 26  1  0  0  0  0
  6 27  1  0  0  0  0
  6 28  1  0  0  0  0
  6 29  1  0  0  0  0
  7  8  1  0  0  0  0
  7 18  1  0  0  0  0
  7 30  1  0  0  0  0
  8  9  1  0  0  0  0
  9 10  2  0  0  0  0
  9 11  2  0  0  0  0
  9 12  1  0  0  0  0
 12 13  1  0  0  0  0
 12 31  1  0  0  0  0
 12 32  1  0  0  0  0
 13 17  2  0  0  0  0
 13 14  1  0  0  0  0
 14 15  2  0  0  0  0
 14 33  1  0  0  0  0
 15 16  1  0  0  0  0
 15 34  1  0  0  0  0
 16 17  1  0  0  0  0
 18 35  1  0  0  0  0
 18 36  1  0  0  0  0
M  CHG  1   3   1
M  CHG  1   8  -1
M  END
> <s_m_source_file>
AV-unprocessed.smi

> <i_m_source_file_index>
703

> <i_lp_mmshare_version>
43012

> <i_f3d_flags>
0

> <s_epik_input>
W0NIM11bQ0gyXU4xW0NIMl1bQ0BASF0oW0NIM10pW0NASF0oW0NIMl0xKVtOSF1TKD1PKSg9TylbQ0gyXWMyW2NIXVtjSF1vbjI=

> <s_epik_cmdline>
J2VwaWtfcHl0aG9uJywgJy1waCcsICc3LjAnLCAnLXRuJywgJzgnLCAnLW1hJywgJzIwMCcsICctbWV0YWxfYmluZGluZycsICctaW1hZScsICc8aW5maWxlLm1hZT4nLCAnLW9tYWUnLCAnPG91dGZpbGUubWFlPic=

> <r_epik_Ionization_Penalty>
3.62494

> <r_epik_Ionization_Penalty_Charging>
3.62494

> <r_epik_Ionization_Penalty_Neutral>
2.0321e-10

> <r_epik_State_Penalty>
3.62558

> <r_epik_Charging_Adjusted_Penalty>
7.25052

> <i_epik_Tot_Q>
0

> <i_epik_Tot_abs_Q>
2

> <r_epik_Metal_State_Penalty>
0.530836

> <b_epik_Metal_Only>
1

> <s_lp_Force_Field>
OPLS_2005

> <r_lp_Energy>
18.2255

> <b_lp_Chiralities_Consistent>
1

> <s_lp_Variant>
AV-unprocessed.smi:703-9

> <Gold.Version>
5.8.1

> <Gold.Id.Protein>
6NUR|6NUR_protein|mol2

> <Gold.PLP.Fitness>
41.3698

> <Gold.PLP.PLP>
-26.4065

> <Gold.PLP.part.hbond>
-5.0000

> <Gold.PLP.part.metal>
0.0000

> <Gold.PLP.part.buried>
-4.5269

> <Gold.PLP.part.nonpolar>
-17.7006

> <Gold.PLP.part.repulsive>
0.0000

> <Gold.PLP.ligand.clash>
0.0000

> <Gold.PLP.ligand.torsion>
0.8560

> <Gold.PLP.Chemscore.Hbond>
5.2101

> <Gold.PLP.Chemscore.CHOScore>
0.0000

> <Gold.PLP.Chemscore.Metal>
0.0000

> <Gold.Chemscore.Hbonds>
donor molecule, donor type, donor heavy atom, donor atom, acceptor molecule, acceptor atom, score
      L1  H     3    37       P1  7948  2.00
      P1  H  6896  6907       L1    10  0.36
      P1  H  6896  6908       L1    11  1.00
      P1  H  6931  6943       L1    17  0.88
      P1  H  6934  6947       L1    17  0.88

> <Gold.PLP.Chemscore.Internal.Correction>
1.0450

> <Gold.Rescore>
     Score         DG    S(hbond)    S(metal)    S(lipo)     H(rot)  DE(clash)    DE(int)     intcor
     17.90     -18.73       3.37        0.00      52.73       1.63       0.01       0.83       ----

> <Gold.Chemscore.Fitness>
17.9015

> <Gold.Chemscore.DG>
-18.7343

> <Gold.Chemscore.ZeroCoef>
-5.4800

> <Gold.Chemscore.Hbond>
3.3735

> <Gold.Chemscore.Metal>
0.0000

> <Gold.Chemscore.Lipo>
52.7281

> <Gold.Chemscore.Internal_Hbond>
0.0000

> <Gold.Chemscore.DEClash>
0.0069

> <Gold.Chemscore.DEInternal>
0.8259

> <Gold.Chemscore.Rot>
1.6338

> <Gold.Chemscore.Internal.Correction>
   9.000000E+99

> <Gold.Chemscore.Hbonds>
donor molecule, donor type, donor heavy atom, donor atom, acceptor molecule, acceptor atom, score
      L1  H     3    37       P1  7948  1.00
      P1  H  6896  6907       L1    10  0.31
      P1  H  6896  6908       L1    11  0.32
      P1  H  6931  6943       L1    17  0.27
      P1  H  6934  6947       L1    17  0.83

> <Gold.Chemscore.Hbond.Weighted>
-11.2676

> <Gold.Chemscore.Metal.Weighted>
-0.0000

> <Gold.Chemscore.Lipo.Weighted>
-6.1692

> <Gold.Chemscore.Internal_Hbond.Weighted>
0.0000

> <Gold.Chemscore.DEClash.Weighted>
0.0069

> <Gold.Chemscore.DEInternal.Weighted>
0.8259

> <Gold.Chemscore.Rot.Weighted>
4.1825

> <Gold.Chemscore.Internal.Correction.Weighted>
   9.000000E+99

> <Gold.Protein.RotatedTorsions>
[ 6907 6896 6895 6894 ] final -118.86 input  -60.11 | X-H torsion
[ 7974 7965 7964 7962 ] final   -4.56 input  175.53 | X-H torsion
[ 8008 7997 7996 7995 ] final  -41.62 input   59.86 | X-H torsion
[ 10167 10162 10161 10158 ] final   94.38 input  -65.29 | X-H torsion
[ 10718 10713 10712 10709 ] final  174.99 input   66.30 | X-H torsion
[ 10763 10752 10751 10750 ] final  117.51 input  -60.55 | X-H torsion
[ 11005 11000 10999 10996 ] final  -65.51 input  -57.11 | X-H torsion

> <Gold.Protein.ActiveResidues>
 VAL166  LYS551  ARG553  GLY616  TRP617  ASP618  TYR619  PRO620  LYS621  CYS622 
 ASP623  PHE694  ASN695  SER759  ASP760  ASP761  ALA762  ILE779  LEU786  VAL792 
 PHE793  MET794  SER795  GLU796  ALA797  LYS798  CYS799  TRP800  GLU811  SER814 

> <Gold.Protein.RotatedAtoms>
  150.8256  133.8178  159.3119 H   0  0  0  0  0  0  0  0  0  0  0  0  # atno 6907 bound_to 6896
  151.5923  135.1051  160.0051 H   0  0  0  0  0  0  0  0  0  0  0  0  # atno 6908 bound_to 6896
  152.4341  133.7289  159.6632 H   0  0  0  0  0  0  0  0  0  0  0  0  # atno 6909 bound_to 6896
  146.2370  140.1890  142.8332 H   0  0  0  0  0  0  0  0  0  0  0  0  # atno 7974 bound_to 7965
  154.4003  140.1495  156.3220 H   0  0  0  0  0  0  0  0  0  0  0  0  # atno 8008 bound_to 7997
  155.8521  140.3457  155.5678 H   0  0  0  0  0  0  0  0  0  0  0  0  # atno 8009 bound_to 7997
  155.7973  140.0865  157.1967 H   0  0  0  0  0  0  0  0  0  0  0  0  # atno 8010 bound_to 7997
  139.8089  144.6782  150.9666 H   0  0  0  0  0  0  0  0  0  0  0  0  # atno 10167 bound_to 10162
  156.9415  131.0002  151.2967 H   0  0  0  0  0  0  0  0  0  0  0  0  # atno 10718 bound_to 10713
  153.5535  135.3535  155.2769 H   0  0  0  0  0  0  0  0  0  0  0  0  # atno 10763 bound_to 10752
  154.8704  135.4119  154.2910 H   0  0  0  0  0  0  0  0  0  0  0  0  # atno 10764 bound_to 10752
  153.3641  135.7061  153.6758 H   0  0  0  0  0  0  0  0  0  0  0  0  # atno 10765 bound_to 10752
  141.1456  133.6683  156.5998 H   0  0  0  0  0  0  0  0  0  0  0  0  # atno 11005 bound_to 11000
  144.9873  140.8515  143.5360 LP  0  0  0  0  0  0  0  0  0  0  0  0  # atno 17320 bound_to 7965
  145.1891  139.2311  143.5252 LP  0  0  0  0  0  0  0  0  0  0  0  0  # atno 17321 bound_to 7965
  140.7818  143.4205  151.0849 LP  0  0  0  0  0  0  0  0  0  0  0  0  # atno 17342 bound_to 10162
  139.7873  143.8269  152.3147 LP  0  0  0  0  0  0  0  0  0  0  0  0  # atno 17343 bound_to 10162
  157.5782  130.8358  149.8485 LP  0  0  0  0  0  0  0  0  0  0  0  0  # atno 17370 bound_to 10713
  156.0402  130.3741  150.1454 LP  0  0  0  0  0  0  0  0  0  0  0  0  # atno 17371 bound_to 10713
  140.3697  134.7616  157.4590 LP  0  0  0  0  0  0  0  0  0  0  0  0  # atno 17394 bound_to 11000
  140.0720  134.5850  155.8632 LP  0  0  0  0  0  0  0  0  0  0  0  0  # atno 17395 bound_to 11000

$$$$
