AV-unprocessed.smi:2899|AV-procd|sdf|11145|dock9
  -GOLD-   2272016 23D 1   1.00000     0.00000
 Structure written by MMmdl.
 30 32  0  0  0  0  0  0  0  0  1 V2000
  153.2404  141.7147  160.5448 C   0  0  0  0  0  0  0  0  0  0  0  0
  152.5148  142.7160  159.6717 C   0  0  0  0  0  0  0  0  0  0  0  0
  152.6426  144.1055  159.8766 C   0  0  0  0  0  0  0  0  0  0  0  0
  151.9157  144.9322  158.9963 C   0  0  0  0  0  0  0  0  0  0  0  0
  151.1407  144.4199  158.0150 N   0  0  0  0  0  0  0  0  0  0  0  0
  151.0911  143.0894  157.9120 C   0  0  0  0  0  0  0  0  0  0  0  0
  150.2859  142.6024  156.8988 N   0  0  0  0  0  0  0  0  0  0  0  0
  149.9991  141.1902  156.6741 C   0  0  2  0  0  0  0  0  0  0  0  0
  150.6672  140.6323  155.4154 C   0  0  0  0  0  0  0  0  0  0  0  0
  149.4735  140.0104  154.6758 C   0  0  2  0  0  0  0  0  0  0  0  0
  148.5875  141.0856  154.0337 C   0  0  0  0  0  0  0  0  0  0  0  0
  147.9024  141.6932  155.2563 C   0  0  0  0  0  0  0  0  0  0  0  0
  148.5146  140.8738  156.4053 C   0  0  1  0  0  0  0  0  0  0  0  0
  148.6537  139.6170  155.7640 O   0  0  0  0  0  0  0  0  0  0  0  0
  151.7384  142.2114  158.6879 N   0  0  0  0  0  0  0  0  0  0  0  0
  153.8823  142.2161  161.2696 H   0  0  0  0  0  0  0  0  0  0  0  0
  153.8627  141.0597  159.9345 H   0  0  0  0  0  0  0  0  0  0  0  0
  152.5246  141.0994  161.0908 H   0  0  0  0  0  0  0  0  0  0  0  0
  153.2606  144.5170  160.6609 H   0  0  0  0  0  0  0  0  0  0  0  0
  151.9559  146.0082  159.0792 H   0  0  0  0  0  0  0  0  0  0  0  0
  149.7798  143.2818  156.3499 H   0  0  0  0  0  0  0  0  0  0  0  0
  150.3418  140.6162  157.5363 H   0  0  0  0  0  0  0  0  0  0  0  0
  151.1715  141.3884  154.8117 H   0  0  0  0  0  0  0  0  0  0  0  0
  151.4002  139.8706  155.6835 H   0  0  0  0  0  0  0  0  0  0  0  0
  149.7449  139.1994  153.9995 H   0  0  0  0  0  0  0  0  0  0  0  0
  149.1650  141.8152  153.4648 H   0  0  0  0  0  0  0  0  0  0  0  0
  147.8508  140.6362  153.3668 H   0  0  0  0  0  0  0  0  0  0  0  0
  148.0763  142.7649  155.3546 H   0  0  0  0  0  0  0  0  0  0  0  0
  146.8251  141.5319  155.2046 H   0  0  0  0  0  0  0  0  0  0  0  0
  147.8976  140.8466  157.3038 H   0  0  0  0  0  0  0  0  0  0  0  0
  1  2  1  0  0  0  0
  1 16  1  0  0  0  0
  1 17  1  0  0  0  0
  1 18  1  0  0  0  0
  2 15  1  0  0  0  0
  2  3  2  0  0  0  0
  3  4  1  0  0  0  0
  3 19  1  0  0  0  0
  4  5  2  0  0  0  0
  4 20  1  0  0  0  0
  5  6  1  0  0  0  0
  6  7  1  0  0  0  0
  6 15  2  0  0  0  0
  7  8  1  0  0  0  0
  7 21  1  0  0  0  0
  8 13  1  0  0  0  0
  8  9  1  0  0  0  0
  8 22  1  0  0  0  0
  9 10  1  0  0  0  0
  9 23  1  0  0  0  0
  9 24  1  0  0  0  0
 10 14  1  0  0  0  0
 10 11  1  0  0  0  0
 10 25  1  0  0  0  0
 11 12  1  0  0  0  0
 11 26  1  0  0  0  0
 11 27  1  0  0  0  0
 12 13  1  0  0  0  0
 12 28  1  0  0  0  0
 12 29  1  0  0  0  0
 13 14  1  0  0  0  0
 13 30  1  0  0  0  0
M  END
> <s_m_source_file>
AV-unprocessed.smi

> <i_m_source_file_index>
2899

> <i_lp_mmshare_version>
43012

> <i_f3d_flags>
0

> <s_epik_input>
W0NIM11jMVtjSF1bY0hdbmMobjEpW05IXVtDQEhdKFtDSDJdW0NAQEhdMjMpW0NAQEhdKE8zKVtDSDJdW0NIMl0y

> <s_epik_cmdline>
J2VwaWtfcHl0aG9uJywgJy1waCcsICc3LjAnLCAnLXRuJywgJzgnLCAnLW1hJywgJzIwMCcsICctbWV0YWxfYmluZGluZycsICctaW1hZScsICc8aW5maWxlLm1hZT4nLCAnLW9tYWUnLCAnPG91dGZpbGUubWFlPic=

> <r_lp_tautomer_probability>
1

> <r_epik_Ionization_Penalty>
0.00589655

> <r_epik_Ionization_Penalty_Charging>
0

> <r_epik_Ionization_Penalty_Neutral>
0.00589655

> <r_epik_State_Penalty>
0.00375391

> <r_epik_Charging_Adjusted_Penalty>
0.00375391

> <i_epik_Tot_Q>
0

> <i_epik_Tot_abs_Q>
0

> <r_epik_Metal_State_Penalty>
-0

> <b_epik_Metal_Only>
0

> <s_lp_Force_Field>
OPLS_2005

> <r_lp_Energy>
31.8412

> <b_lp_Chiralities_Consistent>
1

> <s_lp_Variant>
AV-unprocessed.smi:2899-3

> <Gold.Version>
5.8.1

> <Gold.Id.Protein>
6NUR|6NUR_protein|mol2

> <Gold.PLP.Fitness>
35.2346

> <Gold.PLP.PLP>
-32.5199

> <Gold.PLP.part.hbond>
-1.0000

> <Gold.PLP.part.metal>
0.0000

> <Gold.PLP.part.buried>
-2.8486

> <Gold.PLP.part.nonpolar>
-29.0523

> <Gold.PLP.part.repulsive>
0.2074

> <Gold.PLP.ligand.clash>
0.0000

> <Gold.PLP.ligand.torsion>
0.1469

> <Gold.PLP.Chemscore.Hbond>
1.0000

> <Gold.PLP.Chemscore.CHOScore>
0.0000

> <Gold.PLP.Chemscore.Metal>
0.0000

> <Gold.Chemscore.Hbonds>
donor molecule, donor type, donor heavy atom, donor atom, acceptor molecule, acceptor atom, score
      L1  H     7    21       P1  8028  1.00

> <Gold.PLP.Chemscore.Internal.Correction>
0.0086

> <Gold.Rescore>
     Score         DG    S(hbond)    S(metal)    S(lipo)     H(rot)  DE(clash)    DE(int)     intcor
     15.69     -15.94       1.00        0.00      82.74       1.00       0.09       0.16       ----

> <Gold.Chemscore.Fitness>
15.6946

> <Gold.Chemscore.DG>
-15.9393

> <Gold.Chemscore.ZeroCoef>
-5.4800

> <Gold.Chemscore.Hbond>
0.9997

> <Gold.Chemscore.Metal>
0.0000

> <Gold.Chemscore.Lipo>
82.7384

> <Gold.Chemscore.Internal_Hbond>
0.0000

> <Gold.Chemscore.DEClash>
0.0861

> <Gold.Chemscore.DEInternal>
0.1586

> <Gold.Chemscore.Rot>
1.0000

> <Gold.Chemscore.Internal.Correction>
   9.000000E+99

> <Gold.Chemscore.Hbonds>
donor molecule, donor type, donor heavy atom, donor atom, acceptor molecule, acceptor atom, score
      L1  H     7    21       P1  8028  1.00

> <Gold.Chemscore.Hbond.Weighted>
-3.3389

> <Gold.Chemscore.Metal.Weighted>
-0.0000

> <Gold.Chemscore.Lipo.Weighted>
-9.6804

> <Gold.Chemscore.Internal_Hbond.Weighted>
0.0000

> <Gold.Chemscore.DEClash.Weighted>
0.0861

> <Gold.Chemscore.DEInternal.Weighted>
0.1586

> <Gold.Chemscore.Rot.Weighted>
2.5600

> <Gold.Chemscore.Internal.Correction.Weighted>
   9.000000E+99

> <Gold.Protein.RotatedTorsions>
[ 6907 6896 6895 6894 ] final   52.54 input  -60.11 | X-H torsion
[ 7974 7965 7964 7962 ] final   56.81 input  175.53 | X-H torsion
[ 8008 7997 7996 7995 ] final  143.59 input   59.86 | X-H torsion
[ 10167 10162 10161 10158 ] final  175.28 input  -65.29 | X-H torsion
[ 10718 10713 10712 10709 ] final   -4.68 input   66.30 | X-H torsion
[ 10763 10752 10751 10750 ] final   37.94 input  -60.55 | X-H torsion
[ 11005 11000 10999 10996 ] final  145.87 input  -57.11 | X-H torsion

> <Gold.Protein.ActiveResidues>
 VAL166  LYS551  ARG553  GLY616  TRP617  ASP618  TYR619  PRO620  LYS621  CYS622 
 ASP623  PHE694  ASN695  SER759  ASP760  ASP761  ALA762  ILE779  LEU786  VAL792 
 PHE793  MET794  SER795  GLU796  ALA797  LYS798  CYS799  TRP800  GLU811  SER814 

> <Gold.Protein.RotatedAtoms>
  152.3243  134.7340  160.0305 H   0  0  0  0  0  0  0  0  0  0  0  0  # atno 6907 bound_to 6896
  151.7778  133.3341  159.3471 H   0  0  0  0  0  0  0  0  0  0  0  0  # atno 6908 bound_to 6896
  150.7387  134.5890  159.6022 H   0  0  0  0  0  0  0  0  0  0  0  0  # atno 6909 bound_to 6896
  145.9358  139.3846  143.0393 H   0  0  0  0  0  0  0  0  0  0  0  0  # atno 7974 bound_to 7965
  156.2927  140.2258  156.4916 H   0  0  0  0  0  0  0  0  0  0  0  0  # atno 8008 bound_to 7997
  154.7766  140.0463  157.1115 H   0  0  0  0  0  0  0  0  0  0  0  0  # atno 8009 bound_to 7997
  154.9809  140.3078  155.4950 H   0  0  0  0  0  0  0  0  0  0  0  0  # atno 8010 bound_to 7997
  139.5172  144.3049  152.0345 H   0  0  0  0  0  0  0  0  0  0  0  0  # atno 10167 bound_to 10162
  156.7577  130.5260  149.5791 H   0  0  0  0  0  0  0  0  0  0  0  0  # atno 10718 bound_to 10713
  153.0019  135.6263  154.2225 H   0  0  0  0  0  0  0  0  0  0  0  0  # atno 10763 bound_to 10752
  154.1967  135.2806  155.3006 H   0  0  0  0  0  0  0  0  0  0  0  0  # atno 10764 bound_to 10752
  154.5716  135.5675  153.7159 H   0  0  0  0  0  0  0  0  0  0  0  0  # atno 10765 bound_to 10752
  140.0747  134.9131  157.1403 H   0  0  0  0  0  0  0  0  0  0  0  0  # atno 11005 bound_to 11000
  145.8365  140.9603  143.0821 LP  0  0  0  0  0  0  0  0  0  0  0  0  # atno 17320 bound_to 7965
  144.6771  140.0230  143.7483 LP  0  0  0  0  0  0  0  0  0  0  0  0  # atno 17321 bound_to 7965
  140.2495  144.4184  150.6227 LP  0  0  0  0  0  0  0  0  0  0  0  0  # atno 17342 bound_to 10162
  140.6234  143.2178  151.6646 LP  0  0  0  0  0  0  0  0  0  0  0  0  # atno 17343 bound_to 10162
  156.1359  130.6211  151.0400 LP  0  0  0  0  0  0  0  0  0  0  0  0  # atno 17370 bound_to 10713
  157.6748  131.0853  150.7521 LP  0  0  0  0  0  0  0  0  0  0  0  0  # atno 17371 bound_to 10713
  140.3575  134.2531  155.7191 LP  0  0  0  0  0  0  0  0  0  0  0  0  # atno 17394 bound_to 11000
  141.2025  133.7936  157.0387 LP  0  0  0  0  0  0  0  0  0  0  0  0  # atno 17395 bound_to 11000

$$$$
