AV-unprocessed.smi:2813|AV-procd|sdf|10837|dock7
  -GOLD-   2272015273D 1   1.00000     0.00000
 Structure written by MMmdl.
 41 42  0  0  0  0  0  0  0  0  1 V2000
  144.5159  139.6304  159.2889 C   0  0  0  0  0  0  0  0  0  0  0  0
  145.5175  139.5450  158.1511 C   0  0  0  0  0  0  0  0  0  0  0  0
  146.7347  138.9319  158.4626 N   0  0  0  0  0  0  0  0  0  0  0  0
  147.6518  138.8225  157.5578 C   0  0  0  0  0  0  0  0  0  0  0  0
  147.4635  139.3095  156.2544 N   0  0  0  0  0  0  0  0  0  0  0  0
  148.5878  139.1290  155.3219 C   0  0  0  0  0  0  0  0  0  0  0  0
  149.0873  140.4752  154.7493 C   0  0  2  0  0  0  0  0  0  0  0  0
  150.1041  140.2161  153.8020 O   0  0  0  0  0  0  0  0  0  0  0  0
  149.6929  141.3816  155.8320 C   0  0  0  0  0  0  0  0  0  0  0  0
  150.7733  140.6922  156.4471 O   0  0  0  0  0  0  0  0  0  0  0  0
  151.3472  141.2423  157.5725 C   0  0  0  0  0  0  0  0  0  0  0  0
  152.1025  140.3780  158.3900 C   0  0  0  0  0  0  0  0  0  0  0  0
  152.7262  140.8552  159.5575 C   0  0  0  0  0  0  0  0  0  0  0  0
  152.5980  142.2080  159.9224 C   0  0  0  0  0  0  0  0  0  0  0  0
  151.8419  143.0895  159.1199 C   0  0  0  0  0  0  0  0  0  0  0  0
  151.6893  144.5569  159.4918 C   0  0  0  0  0  0  0  0  0  0  0  0
  150.3992  144.8923  159.4791 F   0  0  0  0  0  0  0  0  0  0  0  0
  152.1793  144.8181  160.7042 F   0  0  0  0  0  0  0  0  0  0  0  0
  152.3364  145.3080  158.6012 F   0  0  0  0  0  0  0  0  0  0  0  0
  151.2224  142.6035  157.9483 C   0  0  0  0  0  0  0  0  0  0  0  0
  146.2991  139.9019  155.8601 C   0  0  0  0  0  0  0  0  0  0  0  0
  146.1352  140.3011  154.7055 O   0  0  0  0  0  0  0  0  0  0  0  0
  145.2674  140.0266  156.9027 C   0  0  0  0  0  0  0  0  0  0  0  0
  143.9605  140.7015  156.5054 C   0  0  0  0  0  0  0  0  0  0  0  0
  144.2850  140.6715  159.5154 H   0  0  0  0  0  0  0  0  0  0  0  0
  144.9054  139.1693  160.1976 H   0  0  0  0  0  0  0  0  0  0  0  0
  143.5912  139.1171  159.0242 H   0  0  0  0  0  0  0  0  0  0  0  0
  148.6162  138.3480  157.7476 H   0  0  0  0  0  0  0  0  0  0  0  0
  149.3985  138.6352  155.8612 H   0  0  0  0  0  0  0  0  0  0  0  0
  148.3487  138.4307  154.5169 H   0  0  0  0  0  0  0  0  0  0  0  0
  148.2810  141.0157  154.2514 H   0  0  0  0  0  0  0  0  0  0  0  0
  149.7105  140.1630  152.9445 H   0  0  0  0  0  0  0  0  0  0  0  0
  150.0319  142.3209  155.3911 H   0  0  0  0  0  0  0  0  0  0  0  0
  148.9371  141.6123  156.5850 H   0  0  0  0  0  0  0  0  0  0  0  0
  152.2067  139.3380  158.1171 H   0  0  0  0  0  0  0  0  0  0  0  0
  153.3044  140.1824  160.1737 H   0  0  0  0  0  0  0  0  0  0  0  0
  153.0847  142.5594  160.8201 H   0  0  0  0  0  0  0  0  0  0  0  0
  150.6526  143.2991  157.3515 H   0  0  0  0  0  0  0  0  0  0  0  0
  143.4691  140.1330  155.7151 H   0  0  0  0  0  0  0  0  0  0  0  0
  144.1552  141.7062  156.1287 H   0  0  0  0  0  0  0  0  0  0  0  0
  143.2560  140.7936  157.3305 H   0  0  0  0  0  0  0  0  0  0  0  0
  1  2  1  0  0  0  0
  1 25  1  0  0  0  0
  1 26  1  0  0  0  0
  1 27  1  0  0  0  0
  2 23  2  0  0  0  0
  2  3  1  0  0  0  0
  3  4  2  0  0  0  0
  4  5  1  0  0  0  0
  4 28  1  0  0  0  0
  5  6  1  0  0  0  0
  5 21  1  0  0  0  0
  6  7  1  0  0  0  0
  6 29  1  0  0  0  0
  6 30  1  0  0  0  0
  7  8  1  0  0  0  0
  7  9  1  0  0  0  0
  7 31  1  0  0  0  0
  8 32  1  0  0  0  0
  9 10  1  0  0  0  0
  9 33  1  0  0  0  0
  9 34  1  0  0  0  0
 10 11  1  0  0  0  0
 11 20  1  0  0  0  0
 11 12  2  0  0  0  0
 12 13  1  0  0  0  0
 12 35  1  0  0  0  0
 13 14  2  0  0  0  0
 13 36  1  0  0  0  0
 14 15  1  0  0  0  0
 14 37  1  0  0  0  0
 15 16  1  0  0  0  0
 15 20  2  0  0  0  0
 16 17  1  0  0  0  0
 16 18  1  0  0  0  0
 16 19  1  0  0  0  0
 20 38  1  0  0  0  0
 21 22  2  0  0  0  0
 21 23  1  0  0  0  0
 23 24  1  0  0  0  0
 24 39  1  0  0  0  0
 24 40  1  0  0  0  0
 24 41  1  0  0  0  0
M  END
> <s_m_source_file>
AV-unprocessed.smi

> <i_m_source_file_index>
2813

> <i_lp_mmshare_version>
43012

> <i_f3d_flags>
0

> <s_epik_input>
W0NIM11jMW5bY0hdbihjKD1PKWMxW0NIM10pW0NIMl1bQ0BIXShbT0hdKVtDSDJdT2MyW2NIXVtjSF1bY0hdYyhDKEYpKEYpRilbY0hdMg==

> <s_epik_cmdline>
J2VwaWtfcHl0aG9uJywgJy1waCcsICc3LjAnLCAnLXRuJywgJzgnLCAnLW1hJywgJzIwMCcsICctbWV0YWxfYmluZGluZycsICctaW1hZScsICc8aW5maWxlLm1hZT4nLCAnLW9tYWUnLCAnPG91dGZpbGUubWFlPic=

> <r_lp_tautomer_probability>
1

> <r_epik_Ionization_Penalty>
3.72236e-05

> <r_epik_Ionization_Penalty_Charging>
8.38864e-08

> <r_epik_Ionization_Penalty_Neutral>
3.71397e-05

> <r_epik_State_Penalty>
-0

> <r_epik_Charging_Adjusted_Penalty>
8.38864e-08

> <i_epik_Tot_Q>
0

> <i_epik_Tot_abs_Q>
0

> <r_epik_Metal_State_Penalty>
-0

> <b_epik_Metal_Only>
0

> <s_lp_Force_Field>
OPLS_2005

> <r_lp_Energy>
22.8491

> <b_lp_Chiralities_Consistent>
1

> <s_lp_Variant>
AV-unprocessed.smi:2813-1

> <Gold.Version>
5.8.1

> <Gold.Id.Protein>
6NUR|6NUR_protein|mol2

> <Gold.PLP.Fitness>
44.6453

> <Gold.PLP.PLP>
-40.1174

> <Gold.PLP.part.hbond>
-2.9709

> <Gold.PLP.part.metal>
0.0000

> <Gold.PLP.part.buried>
-7.4223

> <Gold.PLP.part.nonpolar>
-29.5465

> <Gold.PLP.part.repulsive>
0.1190

> <Gold.PLP.ligand.clash>
0.0000

> <Gold.PLP.ligand.torsion>
0.5091

> <Gold.PLP.Chemscore.Hbond>
1.7840

> <Gold.PLP.Chemscore.CHOScore>
0.0000

> <Gold.PLP.Chemscore.Metal>
0.0000

> <Gold.Chemscore.Hbonds>
donor molecule, donor type, donor heavy atom, donor atom, acceptor molecule, acceptor atom, score
      L1  H     8    32       P1  7957  1.00
      P1  H  7989  7998       L1     8  0.78

> <Gold.PLP.Chemscore.Internal.Correction>
0.1940

> <Gold.Rescore>
     Score         DG    S(hbond)    S(metal)    S(lipo)     H(rot)  DE(clash)    DE(int)     intcor
     12.11     -12.58       1.51        0.00      77.28       2.73       0.03       0.44       ----

> <Gold.Chemscore.Fitness>
12.1059

> <Gold.Chemscore.DG>
-12.5784

> <Gold.Chemscore.ZeroCoef>
-5.4800

> <Gold.Chemscore.Hbond>
1.5107

> <Gold.Chemscore.Metal>
0.0000

> <Gold.Chemscore.Lipo>
77.2771

> <Gold.Chemscore.Internal_Hbond>
0.0000

> <Gold.Chemscore.DEClash>
0.0331

> <Gold.Chemscore.DEInternal>
0.4394

> <Gold.Chemscore.Rot>
2.7300

> <Gold.Chemscore.Internal.Correction>
   9.000000E+99

> <Gold.Chemscore.Hbonds>
donor molecule, donor type, donor heavy atom, donor atom, acceptor molecule, acceptor atom, score
      L1  H     8    32       P1  7957  0.99
      P1  H  7989  7998       L1     8  0.27

> <Gold.Chemscore.Hbond.Weighted>
-5.0457

> <Gold.Chemscore.Metal.Weighted>
-0.0000

> <Gold.Chemscore.Lipo.Weighted>
-9.0414

> <Gold.Chemscore.Internal_Hbond.Weighted>
0.0000

> <Gold.Chemscore.DEClash.Weighted>
0.0331

> <Gold.Chemscore.DEInternal.Weighted>
0.4394

> <Gold.Chemscore.Rot.Weighted>
6.9888

> <Gold.Chemscore.Internal.Correction.Weighted>
   9.000000E+99

> <Gold.Protein.RotatedTorsions>
[ 6907 6896 6895 6894 ] final   -6.52 input  -60.11 | X-H torsion
[ 7974 7965 7964 7962 ] final  114.33 input  175.53 | X-H torsion
[ 8008 7997 7996 7995 ] final -178.27 input   59.86 | X-H torsion
[ 10167 10162 10161 10158 ] final   84.68 input  -65.29 | X-H torsion
[ 10718 10713 10712 10709 ] final -152.59 input   66.30 | X-H torsion
[ 10763 10752 10751 10750 ] final  -71.17 input  -60.55 | X-H torsion
[ 11005 11000 10999 10996 ] final -148.03 input  -57.11 | X-H torsion

> <Gold.Protein.ActiveResidues>
 VAL166  LYS551  ARG553  GLY616  TRP617  ASP618  TYR619  PRO620  LYS621  CYS622 
 ASP623  PHE694  ASN695  SER759  ASP760  ASP761  ALA762  ILE779  LEU786  VAL792 
 PHE793  MET794  SER795  GLU796  ALA797  LYS798  CYS799  TRP800  GLU811  SER814 

> <Gold.Protein.RotatedAtoms>
  151.4643  135.1041  159.9733 H   0  0  0  0  0  0  0  0  0  0  0  0  # atno 6907 bound_to 6896
  152.4841  133.8324  159.7120 H   0  0  0  0  0  0  0  0  0  0  0  0  # atno 6908 bound_to 6896
  150.8936  133.7150  159.2925 H   0  0  0  0  0  0  0  0  0  0  0  0  # atno 6909 bound_to 6896
  145.2058  139.2930  143.4294 H   0  0  0  0  0  0  0  0  0  0  0  0  # atno 7974 bound_to 7965
  156.0168  140.1252  157.0398 H   0  0  0  0  0  0  0  0  0  0  0  0  # atno 8008 bound_to 7997
  154.4296  140.1076  156.5977 H   0  0  0  0  0  0  0  0  0  0  0  0  # atno 8009 bound_to 7997
  155.6001  140.3470  155.4593 H   0  0  0  0  0  0  0  0  0  0  0  0  # atno 8010 bound_to 7997
  139.9056  144.6303  150.8591 H   0  0  0  0  0  0  0  0  0  0  0  0  # atno 10167 bound_to 10162
  156.4745  130.8274  151.2503 H   0  0  0  0  0  0  0  0  0  0  0  0  # atno 10718 bound_to 10713
  154.4280  135.5971  153.6051 H   0  0  0  0  0  0  0  0  0  0  0  0  # atno 10763 bound_to 10752
  152.9797  135.5968  154.3874 H   0  0  0  0  0  0  0  0  0  0  0  0  # atno 10764 bound_to 10752
  154.3708  135.2841  155.2246 H   0  0  0  0  0  0  0  0  0  0  0  0  # atno 10765 bound_to 10752
  140.7655  134.3249  157.5090 H   0  0  0  0  0  0  0  0  0  0  0  0  # atno 11005 bound_to 11000
  146.3408  140.2318  142.8593 LP  0  0  0  0  0  0  0  0  0  0  0  0  # atno 17320 bound_to 7965
  144.9903  140.8541  143.5343 LP  0  0  0  0  0  0  0  0  0  0  0  0  # atno 17321 bound_to 7965
  140.7697  143.3404  151.2220 LP  0  0  0  0  0  0  0  0  0  0  0  0  # atno 17342 bound_to 10162
  139.6987  143.9569  152.2895 LP  0  0  0  0  0  0  0  0  0  0  0  0  # atno 17343 bound_to 10162
  157.7488  131.0065  150.3154 LP  0  0  0  0  0  0  0  0  0  0  0  0  # atno 17370 bound_to 10713
  156.3584  130.3843  149.7271 LP  0  0  0  0  0  0  0  0  0  0  0  0  # atno 17371 bound_to 10713
  139.8764  134.9228  156.3310 LP  0  0  0  0  0  0  0  0  0  0  0  0  # atno 17394 bound_to 11000
  140.9623  133.7380  156.0418 LP  0  0  0  0  0  0  0  0  0  0  0  0  # atno 17395 bound_to 11000

$$$$
