AV-unprocessed.smi:3029|AV-procd|sdf|11526|dock10
  -GOLD-   2272016473D 1   1.00000     0.00000
 Structure written by MMmdl.
 42 43  0  0  0  0  0  0  0  0  4 V2000
  147.4699  141.1958  154.8350 O   0  0  0  0  0  0  0  0  0  0  0  0
  148.5362  140.5813  154.8060 C   0  0  0  0  0  0  0  0  0  0  0  0
  149.7409  141.0765  155.4798 C   0  0  0  0  0  0  0  0  0  0  0  0
  150.8976  140.3849  155.4609 C   0  0  0  0  0  0  0  0  0  0  0  0
  150.9839  139.1149  154.7663 C   0  0  0  0  0  0  0  0  0  0  0  0
  152.2152  138.3563  154.7524 N   0  3  0  0  0  0  0  0  0  0  0  0
  152.2372  137.2686  154.1842 O   0  0  0  0  0  0  0  0  0  0  0  0
  153.2011  138.8248  155.3118 O   0  5  0  0  0  0  0  0  0  0  0  0
  149.8779  138.6672  154.1397 C   0  0  0  0  0  0  0  0  0  0  0  0
  148.6703  139.3909  154.1466 N   0  0  0  0  0  0  0  0  0  0  0  0
  147.5345  138.8008  153.4254 C   0  0  0  0  0  0  0  0  0  0  0  0
  146.8068  137.7530  154.2827 C   0  0  0  0  0  0  0  0  0  0  0  0
  147.3120  136.3960  153.9900 N   0  3  0  0  0  0  0  0  0  0  0  0
  146.3271  135.2986  154.1480 C   0  0  1  0  0  0  0  0  0  0  0  0
  145.0267  135.5897  153.3652 C   0  0  0  0  0  0  0  0  0  0  0  0
  145.2452  135.5409  151.8432 C   0  0  0  0  0  0  0  0  0  0  0  0
  145.8503  134.1972  151.4109 C   0  0  0  0  0  0  0  0  0  0  0  0
  147.1446  133.8883  152.1804 C   0  0  0  0  0  0  0  0  0  0  0  0
  146.9217  133.9335  153.7087 C   0  0  1  0  0  0  0  0  0  0  0  0
  148.1784  133.5133  154.5058 C   0  0  0  0  0  0  0  0  0  0  0  0
  149.1312  134.4440  154.4446 F   0  0  0  0  0  0  0  0  0  0  0  0
  147.8594  133.3071  155.7834 F   0  0  0  0  0  0  0  0  0  0  0  0
  148.6651  132.3759  154.0105 F   0  0  0  0  0  0  0  0  0  0  0  0
  149.6988  142.0206  156.0032 H   0  0  0  0  0  0  0  0  0  0  0  0
  151.7590  140.7902  155.9715 H   0  0  0  0  0  0  0  0  0  0  0  0
  149.8379  137.7325  153.5988 H   0  0  0  0  0  0  0  0  0  0  0  0
  146.8367  139.5800  153.1130 H   0  0  0  0  0  0  0  0  0  0  0  0
  147.8780  138.3416  152.4969 H   0  0  0  0  0  0  0  0  0  0  0  0
  146.9552  137.9725  155.3411 H   0  0  0  0  0  0  0  0  0  0  0  0
  145.7347  137.7955  154.0912 H   0  0  0  0  0  0  0  0  0  0  0  0
  147.6788  136.3712  153.0490 H   0  0  0  0  0  0  0  0  0  0  0  0
  146.0789  135.2289  155.2080 H   0  0  0  0  0  0  0  0  0  0  0  0
  144.2763  134.8456  153.6357 H   0  0  0  0  0  0  0  0  0  0  0  0
  144.5999  136.5508  153.6502 H   0  0  0  0  0  0  0  0  0  0  0  0
  144.2974  135.7015  151.3284 H   0  0  0  0  0  0  0  0  0  0  0  0
  145.9017  136.3558  151.5360 H   0  0  0  0  0  0  0  0  0  0  0  0
  145.1260  133.4003  151.5832 H   0  0  0  0  0  0  0  0  0  0  0  0
  146.0481  134.2056  150.3386 H   0  0  0  0  0  0  0  0  0  0  0  0
  147.5093  132.9045  151.8841 H   0  0  0  0  0  0  0  0  0  0  0  0
  147.9206  134.5986  151.8933 H   0  0  0  0  0  0  0  0  0  0  0  0
  146.1625  133.1821  153.9337 H   0  0  0  0  0  0  0  0  0  0  0  0
  148.0714  136.2164  154.6317 H   0  0  0  0  0  0  0  0  0  0  0  0
  1  2  2  0  0  0  0
  2 10  1  0  0  0  0
  2  3  1  0  0  0  0
  3  4  2  0  0  0  0
  3 24  1  0  0  0  0
  4  5  1  0  0  0  0
  4 25  1  0  0  0  0
  5  6  1  0  0  0  0
  5  9  2  0  0  0  0
  6  7  2  0  0  0  0
  6  8  1  0  0  0  0
  9 10  1  0  0  0  0
  9 26  1  0  0  0  0
 10 11  1  0  0  0  0
 11 12  1  0  0  0  0
 11 27  1  0  0  0  0
 11 28  1  0  0  0  0
 12 13  1  0  0  0  0
 12 29  1  0  0  0  0
 12 30  1  0  0  0  0
 13 14  1  0  0  0  0
 13 31  1  0  0  0  0
 13 42  1  0  0  0  0
 14 19  1  0  0  0  0
 14 15  1  0  0  0  0
 14 32  1  0  0  0  0
 15 16  1  0  0  0  0
 15 33  1  0  0  0  0
 15 34  1  0  0  0  0
 16 17  1  0  0  0  0
 16 35  1  0  0  0  0
 16 36  1  0  0  0  0
 17 18  1  0  0  0  0
 17 37  1  0  0  0  0
 17 38  1  0  0  0  0
 18 19  1  0  0  0  0
 18 39  1  0  0  0  0
 18 40  1  0  0  0  0
 19 20  1  0  0  0  0
 19 41  1  0  0  0  0
 20 21  1  0  0  0  0
 20 22  1  0  0  0  0
 20 23  1  0  0  0  0
M  CHG  1   6   1
M  CHG  1   8  -1
M  CHG  1  13   1
M  END
> <s_m_source_file>
AV-unprocessed.smi

> <i_m_source_file_index>
3029

> <i_lp_mmshare_version>
43012

> <i_f3d_flags>
0

> <s_epik_input>
Tz1jMVtjSF1bY0hdYyhbTitdKD1PKVtPLV0pW2NIXW4xW0NIMl1bQ0gyXVtOSF1bQ0BASF0yW0NIMl1bQ0gyXVtDSDJdW0NIMl1bQ0BIXTJDKEYpKEYpRg==

> <s_epik_cmdline>
J2VwaWtfcHl0aG9uJywgJy1waCcsICc3LjAnLCAnLXRuJywgJzgnLCAnLW1hJywgJzIwMCcsICctbWV0YWxfYmluZGluZycsICctaW1hZScsICc8aW5maWxlLm1hZT4nLCAnLW9tYWUnLCAnPG91dGZpbGUubWFlPic=

> <r_lp_tautomer_probability>
1

> <r_epik_Ionization_Penalty>
0.037386

> <r_epik_Ionization_Penalty_Charging>
0.037386

> <r_epik_Ionization_Penalty_Neutral>
0

> <r_epik_State_Penalty>
0.0312892

> <r_epik_Charging_Adjusted_Penalty>
0.0686752

> <i_epik_Tot_Q>
1

> <i_epik_Tot_abs_Q>
3

> <r_epik_Metal_State_Penalty>
0.0312892

> <b_epik_Metal_Only>
0

> <s_lp_Force_Field>
OPLS_2005

> <r_lp_Energy>
34.3569

> <b_lp_Chiralities_Consistent>
1

> <s_lp_Variant>
AV-unprocessed.smi:3029-2

> <Gold.Version>
5.8.1

> <Gold.Id.Protein>
6NUR|6NUR_protein|mol2

> <Gold.PLP.Fitness>
47.9451

> <Gold.PLP.PLP>
-35.2699

> <Gold.PLP.part.hbond>
-3.0000

> <Gold.PLP.part.metal>
0.0000

> <Gold.PLP.part.buried>
1.1208

> <Gold.PLP.part.nonpolar>
-32.9244

> <Gold.PLP.part.repulsive>
0.2661

> <Gold.PLP.ligand.clash>
0.0000

> <Gold.PLP.ligand.torsion>
0.8951

> <Gold.PLP.Chemscore.Hbond>
3.7840

> <Gold.PLP.Chemscore.CHOScore>
1.0000

> <Gold.PLP.Chemscore.Metal>
0.0000

> <Gold.Chemscore.Hbonds>
donor molecule, donor type, donor heavy atom, donor atom, acceptor molecule, acceptor atom, score
      L1  H    13    31       P1  7948  2.00
      P1  H  7997  8010       L1     8  1.00
      P1  H 10752 10764       L1     7  0.78
      L1  C     9    26       P1  7948  1.00

> <Gold.PLP.Chemscore.Internal.Correction>
0.1133

> <Gold.Rescore>
     Score         DG    S(hbond)    S(metal)    S(lipo)     H(rot)  DE(clash)    DE(int)     intcor
     13.90     -17.24       2.72        0.00      64.40       1.90       0.97       2.36       ----

> <Gold.Chemscore.Fitness>
13.8970

> <Gold.Chemscore.DG>
-17.2353

> <Gold.Chemscore.ZeroCoef>
-5.4800

> <Gold.Chemscore.Hbond>
2.7226

> <Gold.Chemscore.Metal>
0.0000

> <Gold.Chemscore.Lipo>
64.4046

> <Gold.Chemscore.Internal_Hbond>
0.0000

> <Gold.Chemscore.DEClash>
0.9745

> <Gold.Chemscore.DEInternal>
2.3639

> <Gold.Chemscore.Rot>
1.9037

> <Gold.Chemscore.Internal.Correction>
   9.000000E+99

> <Gold.Chemscore.Hbonds>
donor molecule, donor type, donor heavy atom, donor atom, acceptor molecule, acceptor atom, score
      L1  H    13    31       P1  7948  0.98
      P1  H  7997  8010       L1     8  0.97
      P1  H 10752 10764       L1     7  0.78

> <Gold.Chemscore.Hbond.Weighted>
-9.0936

> <Gold.Chemscore.Metal.Weighted>
-0.0000

> <Gold.Chemscore.Lipo.Weighted>
-7.5353

> <Gold.Chemscore.Internal_Hbond.Weighted>
0.0000

> <Gold.Chemscore.DEClash.Weighted>
0.9745

> <Gold.Chemscore.DEInternal.Weighted>
2.3639

> <Gold.Chemscore.Rot.Weighted>
4.8736

> <Gold.Chemscore.Internal.Correction.Weighted>
   9.000000E+99

> <Gold.Protein.RotatedTorsions>
[ 6907 6896 6895 6894 ] final   27.44 input  -60.11 | X-H torsion
[ 7974 7965 7964 7962 ] final -153.97 input  175.53 | X-H torsion
[ 8008 7997 7996 7995 ] final  102.68 input   59.86 | X-H torsion
[ 10167 10162 10161 10158 ] final    0.68 input  -65.29 | X-H torsion
[ 10718 10713 10712 10709 ] final -156.89 input   66.30 | X-H torsion
[ 10763 10752 10751 10750 ] final  -99.08 input  -60.55 | X-H torsion
[ 11005 11000 10999 10996 ] final  -52.19 input  -57.11 | X-H torsion

> <Gold.Protein.ActiveResidues>
 VAL166  LYS551  ARG553  GLY616  TRP617  ASP618  TYR619  PRO620  LYS621  CYS622 
 ASP623  PHE694  ASN695  SER759  ASP760  ASP761  ALA762  ILE779  LEU786  VAL792 
 PHE793  MET794  SER795  GLU796  ALA797  LYS798  CYS799  TRP800  GLU811  SER814 

> <Gold.Protein.RotatedAtoms>
  152.0022  134.9922  160.0565 H   0  0  0  0  0  0  0  0  0  0  0  0  # atno 6907 bound_to 6896
  152.1508  133.4516  159.4821 H   0  0  0  0  0  0  0  0  0  0  0  0  # atno 6908 bound_to 6896
  150.6875  134.2109  159.4402 H   0  0  0  0  0  0  0  0  0  0  0  0  # atno 6909 bound_to 6896
  144.7713  140.4452  143.5905 H   0  0  0  0  0  0  0  0  0  0  0  0  # atno 7974 bound_to 7965
  156.1415  140.3177  155.8502 H   0  0  0  0  0  0  0  0  0  0  0  0  # atno 8008 bound_to 7997
  155.4146  140.0508  157.3046 H   0  0  0  0  0  0  0  0  0  0  0  0  # atno 8009 bound_to 7997
  154.4980  140.2118  155.9418 H   0  0  0  0  0  0  0  0  0  0  0  0  # atno 8010 bound_to 7997
  140.6717  143.7029  150.7938 H   0  0  0  0  0  0  0  0  0  0  0  0  # atno 10167 bound_to 10162
  156.5327  130.8528  151.2722 H   0  0  0  0  0  0  0  0  0  0  0  0  # atno 10718 bound_to 10713
  154.7468  135.4985  153.9219 H   0  0  0  0  0  0  0  0  0  0  0  0  # atno 10763 bound_to 10752
  153.1101  135.6707  153.9524 H   0  0  0  0  0  0  0  0  0  0  0  0  # atno 10764 bound_to 10752
  153.9286  135.3080  155.3425 H   0  0  0  0  0  0  0  0  0  0  0  0  # atno 10765 bound_to 10752
  141.0911  133.6632  156.3988 H   0  0  0  0  0  0  0  0  0  0  0  0  # atno 11005 bound_to 11000
  145.6315  139.1537  143.2966 LP  0  0  0  0  0  0  0  0  0  0  0  0  # atno 17320 bound_to 7965
  146.1861  140.6419  142.9167 LP  0  0  0  0  0  0  0  0  0  0  0  0  # atno 17321 bound_to 7965
  140.0715  143.5056  152.2577 LP  0  0  0  0  0  0  0  0  0  0  0  0  # atno 17342 bound_to 10162
  139.5989  144.7576  151.3219 LP  0  0  0  0  0  0  0  0  0  0  0  0  # atno 17343 bound_to 10162
  157.7419  130.9879  150.2477 LP  0  0  0  0  0  0  0  0  0  0  0  0  # atno 17370 bound_to 10713
  156.3045  130.3763  149.7719 LP  0  0  0  0  0  0  0  0  0  0  0  0  # atno 17371 bound_to 10713
  140.5249  134.6268  157.5331 LP  0  0  0  0  0  0  0  0  0  0  0  0  # atno 17394 bound_to 11000
  139.9737  134.7250  155.9990 LP  0  0  0  0  0  0  0  0  0  0  0  0  # atno 17395 bound_to 11000

$$$$
