AV-unprocessed.smi:1295|AV-procd|sdf|5412|dock4
  -GOLD-   22720 4573D 1   1.00000     0.00000
 Structure written by MMmdl.
 42 43  0  0  0  0  0  0  0  0  2 V2000
  149.9328  134.2221  154.9331 C   0  0  0  0  0  0  0  0  0  0  0  0
  150.0610  135.7299  154.9614 C   0  0  0  0  0  0  0  0  0  0  0  0
  149.0202  136.4424  155.1701 N   0  0  0  0  0  0  0  0  0  0  0  0
  149.1343  137.8428  155.1925 C   0  0  0  0  0  0  0  0  0  0  0  0
  147.8478  138.6092  155.4480 C   0  0  0  0  0  0  0  0  0  0  0  0
  150.3361  138.4564  154.9932 C   0  0  0  0  0  0  0  0  0  0  0  0
  150.5103  139.9746  155.0074 C   0  0  0  0  0  0  0  0  0  0  0  0
  151.4801  140.5196  156.0579 C   0  0  0  0  0  0  0  0  0  0  0  0
  152.5039  139.8975  156.3408 O   0  0  0  0  0  0  0  0  0  0  0  0
  151.1420  141.6887  156.6241 N   0  0  0  0  0  0  0  0  0  0  0  0
  151.9275  142.4238  157.6139 C   0  0  1  0  0  0  0  0  0  0  0  0
  151.5653  143.9186  157.5130 C   0  0  0  0  0  0  0  0  0  0  0  0
  152.2992  144.7566  158.5696 C   0  0  0  0  0  0  0  0  0  0  0  0
  152.0252  144.2221  159.9815 C   0  0  0  0  0  0  0  0  0  0  0  0
  152.4077  142.7389  160.0907 C   0  0  0  0  0  0  0  0  0  0  0  0
  151.6760  141.8758  159.0428 C   0  0  2  0  0  0  0  0  0  0  0  0
  152.0769  140.3972  159.1931 C   0  0  0  0  0  0  0  0  0  0  0  0
  151.5109  137.5989  154.7541 C   0  0  0  0  0  0  0  0  0  0  0  0
  152.6173  138.1002  154.5581 O   0  0  0  0  0  0  0  0  0  0  0  0
  151.3196  136.2489  154.7572 N   0  5  0  0  0  0  0  0  0  0  0  0
  148.8858  133.9171  154.9099 H   0  0  0  0  0  0  0  0  0  0  0  0
  150.3979  133.7890  155.8187 H   0  0  0  0  0  0  0  0  0  0  0  0
  150.4248  133.8148  154.0491 H   0  0  0  0  0  0  0  0  0  0  0  0
  147.9230  139.1870  156.3694 H   0  0  0  0  0  0  0  0  0  0  0  0
  146.9981  137.9323  155.5458 H   0  0  0  0  0  0  0  0  0  0  0  0
  147.6368  139.2919  154.6246 H   0  0  0  0  0  0  0  0  0  0  0  0
  150.8483  140.2857  154.0185 H   0  0  0  0  0  0  0  0  0  0  0  0
  149.5513  140.4760  155.1395 H   0  0  0  0  0  0  0  0  0  0  0  0
  150.2776  142.1173  156.3272 H   0  0  0  0  0  0  0  0  0  0  0  0
  152.9924  142.3279  157.3934 H   0  0  0  0  0  0  0  0  0  0  0  0
  151.8074  144.2934  156.5175 H   0  0  0  0  0  0  0  0  0  0  0  0
  150.4890  144.0479  157.6372 H   0  0  0  0  0  0  0  0  0  0  0  0
  153.3718  144.7386  158.3720 H   0  0  0  0  0  0  0  0  0  0  0  0
  151.9879  145.7991  158.4993 H   0  0  0  0  0  0  0  0  0  0  0  0
  152.5836  144.8052  160.7145 H   0  0  0  0  0  0  0  0  0  0  0  0
  150.9693  144.3482  160.2245 H   0  0  0  0  0  0  0  0  0  0  0  0
  153.4863  142.6336  159.9647 H   0  0  0  0  0  0  0  0  0  0  0  0
  152.1794  142.3796  161.0947 H   0  0  0  0  0  0  0  0  0  0  0  0
  150.6066  141.9464  159.2485 H   0  0  0  0  0  0  0  0  0  0  0  0
  153.1298  140.2475  158.9526 H   0  0  0  0  0  0  0  0  0  0  0  0
  151.4913  139.7515  158.5387 H   0  0  0  0  0  0  0  0  0  0  0  0
  151.9165  140.0493  160.2139 H   0  0  0  0  0  0  0  0  0  0  0  0
  1  2  1  0  0  0  0
  1 21  1  0  0  0  0
  1 22  1  0  0  0  0
  1 23  1  0  0  0  0
  2 20  1  0  0  0  0
  2  3  2  0  0  0  0
  3  4  1  0  0  0  0
  4  5  1  0  0  0  0
  4  6  2  0  0  0  0
  5 24  1  0  0  0  0
  5 25  1  0  0  0  0
  5 26  1  0  0  0  0
  6  7  1  0  0  0  0
  6 18  1  0  0  0  0
  7  8  1  0  0  0  0
  7 27  1  0  0  0  0
  7 28  1  0  0  0  0
  8  9  2  0  0  0  0
  8 10  1  0  0  0  0
 10 11  1  0  0  0  0
 10 29  1  0  0  0  0
 11 16  1  0  0  0  0
 11 12  1  0  0  0  0
 11 30  1  0  0  0  0
 12 13  1  0  0  0  0
 12 31  1  0  0  0  0
 12 32  1  0  0  0  0
 13 14  1  0  0  0  0
 13 33  1  0  0  0  0
 13 34  1  0  0  0  0
 14 15  1  0  0  0  0
 14 35  1  0  0  0  0
 14 36  1  0  0  0  0
 15 16  1  0  0  0  0
 15 37  1  0  0  0  0
 15 38  1  0  0  0  0
 16 17  1  0  0  0  0
 16 39  1  0  0  0  0
 17 40  1  0  0  0  0
 17 41  1  0  0  0  0
 17 42  1  0  0  0  0
 18 19  2  0  0  0  0
 18 20  1  0  0  0  0
M  CHG  1  20  -1
M  END
> <s_m_source_file>
AV-unprocessed.smi

> <i_m_source_file_index>
1295

> <i_lp_mmshare_version>
43012

> <i_f3d_flags>
0

> <s_epik_input>
W0NIM11jMW5jKFtDSDNdKWMoYyg9TylbbkhdMSlbQ0gyXUMoPU8pW05IXVtDQEBIXTJbQ0gyXVtDSDJdW0NIMl1bQ0gyXVtDQEhdMltDSDNd

> <s_epik_cmdline>
J2VwaWtfcHl0aG9uJywgJy1waCcsICc3LjAnLCAnLXRuJywgJzgnLCAnLW1hJywgJzIwMCcsICctbWV0YWxfYmluZGluZycsICctaW1hZScsICc8aW5maWxlLm1hZT4nLCAnLW9tYWUnLCAnPG91dGZpbGUubWFlPic=

> <r_lp_tautomer_probability>
0.839158

> <r_epik_Ionization_Penalty>
6.67742

> <r_epik_Ionization_Penalty_Charging>
7.78154e-08

> <r_epik_Ionization_Penalty_Neutral>
6.67742

> <r_epik_State_Penalty>
4.51991

> <r_epik_Charging_Adjusted_Penalty>
4.51991

> <i_epik_Tot_Q>
-1

> <i_epik_Tot_abs_Q>
1

> <r_epik_Metal_State_Penalty>
0.853272

> <b_epik_Metal_Only>
1

> <s_lp_Force_Field>
OPLS_2005

> <r_lp_Energy>
15.3241

> <b_lp_Chiralities_Consistent>
1

> <s_lp_Variant>
AV-unprocessed.smi:1295-12

> <Gold.Version>
5.8.1

> <Gold.Id.Protein>
6NUR|6NUR_protein|mol2

> <Gold.PLP.Fitness>
46.8494

> <Gold.PLP.PLP>
-39.1938

> <Gold.PLP.part.hbond>
-2.6635

> <Gold.PLP.part.metal>
0.0000

> <Gold.PLP.part.buried>
-4.3481

> <Gold.PLP.part.nonpolar>
-32.3847

> <Gold.PLP.part.repulsive>
0.4381

> <Gold.PLP.ligand.clash>
0.0000

> <Gold.PLP.ligand.torsion>
0.6747

> <Gold.PLP.Chemscore.Hbond>
3.0000

> <Gold.PLP.Chemscore.CHOScore>
0.0000

> <Gold.PLP.Chemscore.Metal>
0.0000

> <Gold.Chemscore.Hbonds>
donor molecule, donor type, donor heavy atom, donor atom, acceptor molecule, acceptor atom, score
      P1  H  7997  8008       L1     9  1.00
      P1  H 10752 10764       L1    20  2.00

> <Gold.PLP.Chemscore.Internal.Correction>
0.0050

> <Gold.Rescore>
     Score         DG    S(hbond)    S(metal)    S(lipo)     H(rot)  DE(clash)    DE(int)     intcor
     14.96     -18.78       1.89        0.00      91.42       1.45       0.55       3.27       ----

> <Gold.Chemscore.Fitness>
14.9561

> <Gold.Chemscore.DG>
-18.7778

> <Gold.Chemscore.ZeroCoef>
-5.4800

> <Gold.Chemscore.Hbond>
1.8866

> <Gold.Chemscore.Metal>
0.0000

> <Gold.Chemscore.Lipo>
91.4162

> <Gold.Chemscore.Internal_Hbond>
0.0000

> <Gold.Chemscore.DEClash>
0.5504

> <Gold.Chemscore.DEInternal>
3.2713

> <Gold.Chemscore.Rot>
1.4450

> <Gold.Chemscore.Internal.Correction>
   9.000000E+99

> <Gold.Chemscore.Hbonds>
donor molecule, donor type, donor heavy atom, donor atom, acceptor molecule, acceptor atom, score
      P1  H  7997  8008       L1     9  0.99
      P1  H 10752 10764       L1    20  0.50

> <Gold.Chemscore.Hbond.Weighted>
-6.3014

> <Gold.Chemscore.Metal.Weighted>
-0.0000

> <Gold.Chemscore.Lipo.Weighted>
-10.6957

> <Gold.Chemscore.Internal_Hbond.Weighted>
0.0000

> <Gold.Chemscore.DEClash.Weighted>
0.5504

> <Gold.Chemscore.DEInternal.Weighted>
3.2713

> <Gold.Chemscore.Rot.Weighted>
3.6992

> <Gold.Chemscore.Internal.Correction.Weighted>
   9.000000E+99

> <Gold.Protein.RotatedTorsions>
[ 6907 6896 6895 6894 ] final  -76.65 input  -60.11 | X-H torsion
[ 7974 7965 7964 7962 ] final  105.82 input  175.53 | X-H torsion
[ 8008 7997 7996 7995 ] final  -34.06 input   59.86 | X-H torsion
[ 10167 10162 10161 10158 ] final  -85.87 input  -65.29 | X-H torsion
[ 10718 10713 10712 10709 ] final -158.32 input   66.30 | X-H torsion
[ 10763 10752 10751 10750 ] final  -52.03 input  -60.55 | X-H torsion
[ 11005 11000 10999 10996 ] final  -49.21 input  -57.11 | X-H torsion

> <Gold.Protein.ActiveResidues>
 VAL166  LYS551  ARG553  GLY616  TRP617  ASP618  TYR619  PRO620  LYS621  CYS622 
 ASP623  PHE694  ASN695  SER759  ASP760  ASP761  ALA762  ILE779  LEU786  VAL792 
 PHE793  MET794  SER795  GLU796  ALA797  LYS798  CYS799  TRP800  GLU811  SER814 

> <Gold.Protein.RotatedAtoms>
  150.7021  134.4540  159.5349 H   0  0  0  0  0  0  0  0  0  0  0  0  # atno 6907 bound_to 6896
  152.2227  134.8395  160.0493 H   0  0  0  0  0  0  0  0  0  0  0  0  # atno 6908 bound_to 6896
  151.9239  133.3558  159.3944 H   0  0  0  0  0  0  0  0  0  0  0  0  # atno 6909 bound_to 6896
  145.3146  139.2530  143.3744 H   0  0  0  0  0  0  0  0  0  0  0  0  # atno 7974 bound_to 7965
  154.4131  140.1694  156.1988 H   0  0  0  0  0  0  0  0  0  0  0  0  # atno 8008 bound_to 7997
  155.9541  140.3398  155.6410 H   0  0  0  0  0  0  0  0  0  0  0  0  # atno 8009 bound_to 7997
  155.6832  140.0725  157.2467 H   0  0  0  0  0  0  0  0  0  0  0  0  # atno 8010 bound_to 7997
  140.3996  143.2669  151.9160 H   0  0  0  0  0  0  0  0  0  0  0  0  # atno 10167 bound_to 10162
  156.5525  130.8611  151.2784 H   0  0  0  0  0  0  0  0  0  0  0  0  # atno 10718 bound_to 10713
  154.1362  135.6512  153.4932 H   0  0  0  0  0  0  0  0  0  0  0  0  # atno 10763 bound_to 10752
  153.0180  135.5304  154.6951 H   0  0  0  0  0  0  0  0  0  0  0  0  # atno 10764 bound_to 10752
  154.6200  135.2963  155.0307 H   0  0  0  0  0  0  0  0  0  0  0  0  # atno 10765 bound_to 10752
  141.0746  133.6669  156.3553 H   0  0  0  0  0  0  0  0  0  0  0  0  # atno 11005 bound_to 11000
  146.3105  140.3690  142.8672 LP  0  0  0  0  0  0  0  0  0  0  0  0  # atno 17320 bound_to 7965
  144.8988  140.7616  143.5880 LP  0  0  0  0  0  0  0  0  0  0  0  0  # atno 17321 bound_to 7965
  139.4785  144.5647  151.8184 LP  0  0  0  0  0  0  0  0  0  0  0  0  # atno 17342 bound_to 10162
  140.4754  144.1526  150.5924 LP  0  0  0  0  0  0  0  0  0  0  0  0  # atno 17343 bound_to 10162
  157.7385  130.9814  150.2254 LP  0  0  0  0  0  0  0  0  0  0  0  0  # atno 17370 bound_to 10713
  156.2872  130.3741  149.7877 LP  0  0  0  0  0  0  0  0  0  0  0  0  # atno 17371 bound_to 10713
  140.5601  134.5943  157.5431 LP  0  0  0  0  0  0  0  0  0  0  0  0  # atno 17394 bound_to 11000
  139.9558  134.7537  156.0344 LP  0  0  0  0  0  0  0  0  0  0  0  0  # atno 17395 bound_to 11000

$$$$
