AV-unprocessed.smi:1946|AV-procd|sdf|7864|dock6
  -GOLD-   2272010 13D 1   1.00000     0.00000
 Structure written by MMmdl.
 39 41  0  0  0  0  0  0  0  0  2 V2000
  149.0820  134.6492  159.4852 C   0  0  0  0  0  0  0  0  0  0  0  0
  148.2091  136.2543  159.6921 S   0  0  0  0  0  0  0  0  0  0  0  0
  146.8409  136.1002  159.1737 O   0  0  0  0  0  0  0  0  0  0  0  0
  148.4169  136.7112  161.0749 O   0  0  0  0  0  0  0  0  0  0  0  0
  149.0964  137.3602  158.6017 C   0  0  0  0  0  0  0  0  0  0  0  0
  148.3845  138.3045  157.8361 C   0  0  0  0  0  0  0  0  0  0  0  0
  149.0864  139.1958  157.0019 C   0  0  0  0  0  0  0  0  0  0  0  0
  150.4970  139.1519  156.9376 C   0  0  0  0  0  0  0  0  0  0  0  0
  151.2608  140.1213  156.0463 C   0  0  1  0  0  0  0  0  0  0  0  0
  150.7137  140.1894  154.7464 O   0  0  0  0  0  0  0  0  0  0  0  0
  151.2970  141.5500  156.6255 C   0  0  0  0  0  0  0  0  0  0  0  0
  151.9364  141.6097  157.9460 N   0  0  0  0  0  0  0  0  0  0  0  0
  152.6774  140.6746  158.6004 C   0  0  0  0  0  0  0  0  0  0  0  0
  153.0553  141.2116  159.7936 N   0  3  0  0  0  0  0  0  0  0  0  0
  152.5451  142.5070  159.9045 C   0  0  0  0  0  0  0  0  0  0  0  0
  152.6572  143.4473  160.9241 C   0  0  0  0  0  0  0  0  0  0  0  0
  152.0102  144.6838  160.7186 C   0  0  0  0  0  0  0  0  0  0  0  0
  151.2867  144.9476  159.5373 C   0  0  0  0  0  0  0  0  0  0  0  0
  151.1791  143.9869  158.5100 C   0  0  0  0  0  0  0  0  0  0  0  0
  151.8228  142.7682  158.7208 C   0  0  0  0  0  0  0  0  0  0  0  0
  151.2013  138.2129  157.7228 C   0  0  0  0  0  0  0  0  0  0  0  0
  150.5040  137.3192  158.5585 C   0  0  0  0  0  0  0  0  0  0  0  0
  148.6116  133.8975  160.1186 H   0  0  0  0  0  0  0  0  0  0  0  0
  150.1271  134.7631  159.7728 H   0  0  0  0  0  0  0  0  0  0  0  0
  149.0233  134.3338  158.4438 H   0  0  0  0  0  0  0  0  0  0  0  0
  147.3066  138.3494  157.8840 H   0  0  0  0  0  0  0  0  0  0  0  0
  148.5382  139.9176  156.4141 H   0  0  0  0  0  0  0  0  0  0  0  0
  152.2819  139.7565  155.9304 H   0  0  0  0  0  0  0  0  0  0  0  0
  149.8217  139.8783  154.7796 H   0  0  0  0  0  0  0  0  0  0  0  0
  151.8302  142.2294  155.9589 H   0  0  0  0  0  0  0  0  0  0  0  0
  150.2868  141.9487  156.7302 H   0  0  0  0  0  0  0  0  0  0  0  0
  152.9254  139.6879  158.2359 H   0  0  0  0  0  0  0  0  0  0  0  0
  153.2091  143.2480  161.8311 H   0  0  0  0  0  0  0  0  0  0  0  0
  152.0691  145.4451  161.4828 H   0  0  0  0  0  0  0  0  0  0  0  0
  150.8032  145.9063  159.4167 H   0  0  0  0  0  0  0  0  0  0  0  0
  150.6216  144.1981  157.6094 H   0  0  0  0  0  0  0  0  0  0  0  0
  152.2806  138.1773  157.6907 H   0  0  0  0  0  0  0  0  0  0  0  0
  151.0509  136.6086  159.1604 H   0  0  0  0  0  0  0  0  0  0  0  0
  153.6185  140.7263  160.4803 H   0  0  0  0  0  0  0  0  0  0  0  0
  1  2  1  0  0  0  0
  1 23  1  0  0  0  0
  1 24  1  0  0  0  0
  1 25  1  0  0  0  0
  2  3  2  0  0  0  0
  2  4  2  0  0  0  0
  2  5  1  0  0  0  0
  5 22  1  0  0  0  0
  5  6  2  0  0  0  0
  6  7  1  0  0  0  0
  6 26  1  0  0  0  0
  7  8  2  0  0  0  0
  7 27  1  0  0  0  0
  8  9  1  0  0  0  0
  8 21  1  0  0  0  0
  9 10  1  0  0  0  0
  9 11  1  0  0  0  0
  9 28  1  0  0  0  0
 10 29  1  0  0  0  0
 11 12  1  0  0  0  0
 11 30  1  0  0  0  0
 11 31  1  0  0  0  0
 12 20  1  0  0  0  0
 12 13  1  0  0  0  0
 13 14  2  0  0  0  0
 13 32  1  0  0  0  0
 14 15  1  0  0  0  0
 14 39  1  0  0  0  0
 15 20  2  0  0  0  0
 15 16  1  0  0  0  0
 16 17  2  0  0  0  0
 16 33  1  0  0  0  0
 17 18  1  0  0  0  0
 17 34  1  0  0  0  0
 18 19  2  0  0  0  0
 18 35  1  0  0  0  0
 19 20  1  0  0  0  0
 19 36  1  0  0  0  0
 21 22  2  0  0  0  0
 21 37  1  0  0  0  0
 22 38  1  0  0  0  0
M  CHG  1  14   1
M  END
> <s_m_source_file>
AV-unprocessed.smi

> <i_m_source_file_index>
1946

> <i_lp_mmshare_version>
43012

> <i_f3d_flags>
0

> <s_epik_input>
W0NIM11TKD1PKSg9TyljMVtjSF1bY0hdYyhbY0hdW2NIXTEpW0NASF0oW09IXSlbQ0gyXW4oW2NIXW4yKWMoYzIzKVtjSF1bY0hdW2NIXVtjSF0z

> <s_epik_cmdline>
J2VwaWtfcHl0aG9uJywgJy1waCcsICc3LjAnLCAnLXRuJywgJzgnLCAnLW1hJywgJzIwMCcsICctbWV0YWxfYmluZGluZycsICctaW1hZScsICc8aW5maWxlLm1hZT4nLCAnLW9tYWUnLCAnPG91dGZpbGUubWFlPic=

> <r_epik_Ionization_Penalty>
1.3029

> <r_epik_Ionization_Penalty_Charging>
1.3029

> <r_epik_Ionization_Penalty_Neutral>
1.34362e-06

> <r_epik_State_Penalty>
1.377

> <r_epik_Charging_Adjusted_Penalty>
2.6799

> <i_epik_Tot_Q>
1

> <i_epik_Tot_abs_Q>
1

> <r_epik_Metal_State_Penalty>
5.40879

> <b_epik_Metal_Only>
0

> <s_lp_Force_Field>
OPLS_2005

> <r_lp_Energy>
16.9066

> <b_lp_Chiralities_Consistent>
1

> <s_lp_Variant>
AV-unprocessed.smi:1946-4

> <Gold.Version>
5.8.1

> <Gold.Id.Protein>
6NUR|6NUR_protein|mol2

> <Gold.PLP.Fitness>
48.3090

> <Gold.PLP.PLP>
-40.9995

> <Gold.PLP.part.hbond>
-3.0000

> <Gold.PLP.part.metal>
0.0000

> <Gold.PLP.part.buried>
-7.4335

> <Gold.PLP.part.nonpolar>
-30.4948

> <Gold.PLP.part.repulsive>
0.1154

> <Gold.PLP.ligand.clash>
0.0000

> <Gold.PLP.ligand.torsion>
1.6054

> <Gold.PLP.Chemscore.Hbond>
2.8240

> <Gold.PLP.Chemscore.CHOScore>
0.0000

> <Gold.PLP.Chemscore.Metal>
0.0000

> <Gold.Chemscore.Hbonds>
donor molecule, donor type, donor heavy atom, donor atom, acceptor molecule, acceptor atom, score
      P1  H  6931  6943       L1     4  1.00
      P1  H  7989  7998       L1    10  1.00

> <Gold.PLP.Chemscore.Internal.Correction>
2.0482

> <Gold.Rescore>
     Score         DG    S(hbond)    S(metal)    S(lipo)     H(rot)  DE(clash)    DE(int)     intcor
     18.75     -20.57       2.59        0.00      99.75       2.04       0.06       1.76       ----

> <Gold.Chemscore.Fitness>
18.7465

> <Gold.Chemscore.DG>
-20.5727

> <Gold.Chemscore.ZeroCoef>
-5.4800

> <Gold.Chemscore.Hbond>
2.5868

> <Gold.Chemscore.Metal>
0.0000

> <Gold.Chemscore.Lipo>
99.7467

> <Gold.Chemscore.Internal_Hbond>
0.0000

> <Gold.Chemscore.DEClash>
0.0647

> <Gold.Chemscore.DEInternal>
1.7616

> <Gold.Chemscore.Rot>
2.0382

> <Gold.Chemscore.Internal.Correction>
   9.000000E+99

> <Gold.Chemscore.Hbonds>
donor molecule, donor type, donor heavy atom, donor atom, acceptor molecule, acceptor atom, score
      P1  H  6931  6943       L1     4  0.99
      P1  H  7989  7998       L1    10  0.97

> <Gold.Chemscore.Hbond.Weighted>
-8.6400

> <Gold.Chemscore.Metal.Weighted>
-0.0000

> <Gold.Chemscore.Lipo.Weighted>
-11.6704

> <Gold.Chemscore.Internal_Hbond.Weighted>
0.0000

> <Gold.Chemscore.DEClash.Weighted>
0.0647

> <Gold.Chemscore.DEInternal.Weighted>
1.7616

> <Gold.Chemscore.Rot.Weighted>
5.2177

> <Gold.Chemscore.Internal.Correction.Weighted>
   9.000000E+99

> <Gold.Protein.RotatedTorsions>
[ 6907 6896 6895 6894 ] final  -50.84 input  -60.11 | X-H torsion
[ 7974 7965 7964 7962 ] final   47.71 input  175.53 | X-H torsion
[ 8008 7997 7996 7995 ] final   62.70 input   59.86 | X-H torsion
[ 10167 10162 10161 10158 ] final   83.50 input  -65.29 | X-H torsion
[ 10718 10713 10712 10709 ] final -133.63 input   66.30 | X-H torsion
[ 10763 10752 10751 10750 ] final   28.91 input  -60.55 | X-H torsion
[ 11005 11000 10999 10996 ] final  -17.98 input  -57.11 | X-H torsion

> <Gold.Protein.ActiveResidues>
 VAL166  LYS551  ARG553  GLY616  TRP617  ASP618  TYR619  PRO620  LYS621  CYS622 
 ASP623  PHE694  ASN695  SER759  ASP760  ASP761  ALA762  ILE779  LEU786  VAL792 
 PHE793  MET794  SER795  GLU796  ALA797  LYS798  CYS799  TRP800  GLU811  SER814 

> <Gold.Protein.RotatedAtoms>
  150.8668  134.8034  159.7124 H   0  0  0  0  0  0  0  0  0  0  0  0  # atno 6907 bound_to 6896
  152.4687  134.5010  159.9734 H   0  0  0  0  0  0  0  0  0  0  0  0  # atno 6908 bound_to 6896
  151.5105  133.3447  159.2919 H   0  0  0  0  0  0  0  0  0  0  0  0  # atno 6909 bound_to 6896
  146.0273  139.4721  142.9860 H   0  0  0  0  0  0  0  0  0  0  0  0  # atno 7974 bound_to 7965
  155.6185  140.3495  155.4644 H   0  0  0  0  0  0  0  0  0  0  0  0  # atno 8008 bound_to 7997
  156.0098  140.1231  157.0489 H   0  0  0  0  0  0  0  0  0  0  0  0  # atno 8009 bound_to 7997
  154.4277  140.1084  156.5799 H   0  0  0  0  0  0  0  0  0  0  0  0  # atno 8010 bound_to 7997
  139.9178  144.6232  150.8471 H   0  0  0  0  0  0  0  0  0  0  0  0  # atno 10167 bound_to 10162
  156.2469  130.7130  151.1013 H   0  0  0  0  0  0  0  0  0  0  0  0  # atno 10718 bound_to 10713
  153.0462  135.6502  154.0810 H   0  0  0  0  0  0  0  0  0  0  0  0  # atno 10763 bound_to 10752
  154.0507  135.2896  155.3342 H   0  0  0  0  0  0  0  0  0  0  0  0  # atno 10764 bound_to 10752
  154.6722  135.5352  153.8218 H   0  0  0  0  0  0  0  0  0  0  0  0  # atno 10765 bound_to 10752
  140.8223  133.8059  155.9672 H   0  0  0  0  0  0  0  0  0  0  0  0  # atno 11005 bound_to 11000
  145.7098  141.0110  143.1459 LP  0  0  0  0  0  0  0  0  0  0  0  0  # atno 17320 bound_to 7965
  144.7015  139.8743  143.7443 LP  0  0  0  0  0  0  0  0  0  0  0  0  # atno 17321 bound_to 7965
  140.7670  143.3319  151.2392 LP  0  0  0  0  0  0  0  0  0  0  0  0  # atno 17342 bound_to 10162
  139.6888  143.9728  152.2848 LP  0  0  0  0  0  0  0  0  0  0  0  0  # atno 17343 bound_to 10162
  157.7199  131.0688  150.6179 LP  0  0  0  0  0  0  0  0  0  0  0  0  # atno 17370 bound_to 10713
  156.6256  130.4418  149.5805 LP  0  0  0  0  0  0  0  0  0  0  0  0  # atno 17371 bound_to 10713
  140.9086  134.2289  157.4999 LP  0  0  0  0  0  0  0  0  0  0  0  0  # atno 17394 bound_to 11000
  139.8708  134.9740  156.4829 LP  0  0  0  0  0  0  0  0  0  0  0  0  # atno 17395 bound_to 11000

$$$$
