AV-unprocessed.smi:311|AV-procd|sdf|2300|dock4
  -GOLD-   2262022203D 1   1.00000     0.00000
 Structure written by MMmdl.
 44 46  0  0  0  0  0  0  0  0  2 V2000
  145.6001  148.8176  157.2349 C   0  0  0  0  0  0  0  0  0  0  0  0
  144.6255  147.7787  156.7588 C   0  0  0  0  0  0  0  0  0  0  0  0
  144.0238  147.9314  155.5912 N   0  0  0  0  0  0  0  0  0  0  0  0
  143.1900  146.8192  155.4411 O   0  0  0  0  0  0  0  0  0  0  0  0
  143.3258  146.0295  156.5363 C   0  0  0  0  0  0  0  0  0  0  0  0
  142.5021  144.7865  156.5698 C   0  0  0  0  0  0  0  0  0  0  0  0
  144.2212  146.5794  157.4127 C   0  0  0  0  0  0  0  0  0  0  0  0
  144.6760  146.0577  158.7520 C   0  0  0  0  0  0  0  0  0  0  0  0
  145.0420  144.5775  158.6403 C   0  0  0  0  0  0  0  0  0  0  0  0
  144.1561  143.7243  158.6063 O   0  0  0  0  0  0  0  0  0  0  0  0
  146.3519  144.2856  158.5956 N   0  0  0  0  0  0  0  0  0  0  0  0
  146.9179  142.9447  158.4676 C   0  0  1  0  0  0  0  0  0  0  0  0
  146.6042  142.2900  157.1087 C   0  0  0  0  0  0  0  0  0  0  0  0
  147.9043  141.5837  156.7101 C   0  0  0  0  0  0  0  0  0  0  0  0
  148.9387  142.4614  157.2695 N   0  3  2  0  0  0  0  0  0  0  0  0
  150.3349  141.9801  157.2976 C   0  0  0  0  0  0  0  0  0  0  0  0
  151.2428  143.1416  157.7575 C   0  0  0  0  0  0  0  0  0  0  0  0
  150.7569  143.7793  159.0792 C   0  0  0  0  0  0  0  0  0  0  0  0
  149.2569  144.1423  159.0242 C   0  0  0  0  0  0  0  0  0  0  0  0
  148.4590  142.8993  158.5918 C   0  0  1  0  0  0  0  0  0  0  0  0
  145.4004  149.0943  158.2703 H   0  0  0  0  0  0  0  0  0  0  0  0
  145.5471  149.7268  156.6348 H   0  0  0  0  0  0  0  0  0  0  0  0
  146.6229  148.4444  157.1826 H   0  0  0  0  0  0  0  0  0  0  0  0
  143.0197  143.9900  157.1044 H   0  0  0  0  0  0  0  0  0  0  0  0
  142.2899  144.4308  155.5612 H   0  0  0  0  0  0  0  0  0  0  0  0
  141.5520  144.9687  157.0719 H   0  0  0  0  0  0  0  0  0  0  0  0
  145.5418  146.6064  159.1242 H   0  0  0  0  0  0  0  0  0  0  0  0
  143.8970  146.1775  159.5063 H   0  0  0  0  0  0  0  0  0  0  0  0
  147.0043  145.0557  158.6292 H   0  0  0  0  0  0  0  0  0  0  0  0
  146.4945  142.3076  159.2469 H   0  0  0  0  0  0  0  0  0  0  0  0
  145.7567  141.6055  157.1578 H   0  0  0  0  0  0  0  0  0  0  0  0
  146.3673  143.0530  156.3652 H   0  0  0  0  0  0  0  0  0  0  0  0
  147.9649  140.5985  157.1757 H   0  0  0  0  0  0  0  0  0  0  0  0
  148.0069  141.4655  155.6309 H   0  0  0  0  0  0  0  0  0  0  0  0
  150.4253  141.1244  157.9685 H   0  0  0  0  0  0  0  0  0  0  0  0
  150.6285  141.6448  156.3022 H   0  0  0  0  0  0  0  0  0  0  0  0
  152.2702  142.7927  157.8664 H   0  0  0  0  0  0  0  0  0  0  0  0
  151.2612  143.9076  156.9813 H   0  0  0  0  0  0  0  0  0  0  0  0
  150.9270  143.0790  159.8979 H   0  0  0  0  0  0  0  0  0  0  0  0
  151.3492  144.6661  159.3069 H   0  0  0  0  0  0  0  0  0  0  0  0
  148.9262  144.4898  160.0034 H   0  0  0  0  0  0  0  0  0  0  0  0
  149.0953  144.9621  158.3230 H   0  0  0  0  0  0  0  0  0  0  0  0
  148.6817  142.0989  159.3010 H   0  0  0  0  0  0  0  0  0  0  0  0
  148.9333  143.2855  156.6856 H   0  0  0  0  0  0  0  0  0  0  0  0
  1  2  1  0  0  0  0
  1 21  1  0  0  0  0
  1 22  1  0  0  0  0
  1 23  1  0  0  0  0
  2  7  1  0  0  0  0
  2  3  2  0  0  0  0
  3  4  1  0  0  0  0
  4  5  1  0  0  0  0
  5  6  1  0  0  0  0
  5  7  2  0  0  0  0
  6 24  1  0  0  0  0
  6 25  1  0  0  0  0
  6 26  1  0  0  0  0
  7  8  1  0  0  0  0
  8  9  1  0  0  0  0
  8 27  1  0  0  0  0
  8 28  1  0  0  0  0
  9 10  2  0  0  0  0
  9 11  1  0  0  0  0
 11 12  1  0  0  0  0
 11 29  1  0  0  0  0
 12 20  1  0  0  0  0
 12 13  1  0  0  0  0
 12 30  1  0  0  0  0
 13 14  1  0  0  0  0
 13 31  1  0  0  0  0
 13 32  1  0  0  0  0
 14 15  1  0  0  0  0
 14 33  1  0  0  0  0
 14 34  1  0  0  0  0
 15 20  1  0  0  0  0
 15 16  1  0  0  0  0
 15 44  1  0  0  0  0
 16 17  1  0  0  0  0
 16 35  1  0  0  0  0
 16 36  1  0  0  0  0
 17 18  1  0  0  0  0
 17 37  1  0  0  0  0
 17 38  1  0  0  0  0
 18 19  1  0  0  0  0
 18 39  1  0  0  0  0
 18 40  1  0  0  0  0
 19 20  1  0  0  0  0
 19 41  1  0  0  0  0
 19 42  1  0  0  0  0
 20 43  1  0  0  0  0
M  CHG  1  15   1
M  END
> <s_m_source_file>
AV-unprocessed.smi

> <i_m_source_file_index>
311

> <i_lp_mmshare_version>
43012

> <i_f3d_flags>
0

> <s_epik_input>
W0NIM11jMW5vYyhbQ0gzXSljMVtDSDJdQyg9TylbTkhdW0NASF0oW0NIMl1bQ0gyXTIpW0NAQEhdKE4yMylbQ0gyXVtDSDJdW0NIMl1bQ0gyXTM=

> <s_epik_cmdline>
J2VwaWtfcHl0aG9uJywgJy1waCcsICc3LjAnLCAnLXRuJywgJzgnLCAnLW1hJywgJzIwMCcsICctbWV0YWxfYmluZGluZycsICctaW1hZScsICc8aW5maWxlLm1hZT4nLCAnLW9tYWUnLCAnPG91dGZpbGUubWFlPic=

> <r_epik_Ionization_Penalty>
0.00173669

> <r_epik_Ionization_Penalty_Charging>
0.0017366

> <r_epik_Ionization_Penalty_Neutral>
9.2145e-08

> <r_epik_State_Penalty>
0.00117499

> <r_epik_Charging_Adjusted_Penalty>
0.00291159

> <i_epik_Tot_Q>
1

> <i_epik_Tot_abs_Q>
1

> <r_epik_Metal_State_Penalty>
-0

> <b_epik_Metal_Only>
0

> <s_lp_Force_Field>
OPLS_2005

> <r_lp_Energy>
35.4626

> <b_lp_Chiralities_Consistent>
1

> <s_lp_Variant>
AV-unprocessed.smi:311-4

> <Gold.Version>
5.8.1

> <Gold.Id.Protein>
6NUR|6NUR_protein|mol2

> <Gold.PLP.Fitness>
36.4923

> <Gold.PLP.PLP>
-29.4878

> <Gold.PLP.part.hbond>
-2.7914

> <Gold.PLP.part.metal>
0.0000

> <Gold.PLP.part.buried>
-4.4715

> <Gold.PLP.part.nonpolar>
-23.4142

> <Gold.PLP.part.repulsive>
0.1222

> <Gold.PLP.ligand.clash>
0.0000

> <Gold.PLP.ligand.torsion>
0.4101

> <Gold.PLP.Chemscore.Hbond>
2.6080

> <Gold.PLP.Chemscore.CHOScore>
0.0000

> <Gold.PLP.Chemscore.Metal>
0.0000

> <Gold.Chemscore.Hbonds>
donor molecule, donor type, donor heavy atom, donor atom, acceptor molecule, acceptor atom, score
      L1  H    11    29       P1  8029  0.61
      L1  H    15    44       P1  8028  2.00

> <Gold.PLP.Chemscore.Internal.Correction>
0.0006

> <Gold.Rescore>
     Score         DG    S(hbond)    S(metal)    S(lipo)     H(rot)  DE(clash)    DE(int)     intcor
     13.28     -15.81       1.59        0.00      72.67       1.36       0.88       1.65       ----

> <Gold.Chemscore.Fitness>
13.2806

> <Gold.Chemscore.DG>
-15.8100

> <Gold.Chemscore.ZeroCoef>
-5.4800

> <Gold.Chemscore.Hbond>
1.5870

> <Gold.Chemscore.Metal>
0.0000

> <Gold.Chemscore.Lipo>
72.6718

> <Gold.Chemscore.Internal_Hbond>
0.0000

> <Gold.Chemscore.DEClash>
0.8832

> <Gold.Chemscore.DEInternal>
1.6463

> <Gold.Chemscore.Rot>
1.3567

> <Gold.Chemscore.Internal.Correction>
   9.000000E+99

> <Gold.Chemscore.Hbonds>
donor molecule, donor type, donor heavy atom, donor atom, acceptor molecule, acceptor atom, score
      L1  H    11    29       P1  8029  0.60
      L1  H    15    44       P1  8028  0.91

> <Gold.Chemscore.Hbond.Weighted>
-5.3005

> <Gold.Chemscore.Metal.Weighted>
-0.0000

> <Gold.Chemscore.Lipo.Weighted>
-8.5026

> <Gold.Chemscore.Internal_Hbond.Weighted>
0.0000

> <Gold.Chemscore.DEClash.Weighted>
0.8832

> <Gold.Chemscore.DEInternal.Weighted>
1.6463

> <Gold.Chemscore.Rot.Weighted>
3.4731

> <Gold.Chemscore.Internal.Correction.Weighted>
   9.000000E+99

> <Gold.Protein.RotatedTorsions>
[ 6907 6896 6895 6894 ] final  144.83 input  -60.11 | X-H torsion
[ 7974 7965 7964 7962 ] final  -32.54 input  175.53 | X-H torsion
[ 8008 7997 7996 7995 ] final    2.12 input   59.86 | X-H torsion
[ 10167 10162 10161 10158 ] final  139.00 input  -65.29 | X-H torsion
[ 10718 10713 10712 10709 ] final  137.83 input   66.30 | X-H torsion
[ 10763 10752 10751 10750 ] final  100.16 input  -60.55 | X-H torsion
[ 11005 11000 10999 10996 ] final   35.64 input  -57.11 | X-H torsion

> <Gold.Protein.ActiveResidues>
 VAL166  LYS551  ARG553  GLY616  TRP617  ASP618  TYR619  PRO620  LYS621  CYS622 
 ASP623  PHE694  ASN695  SER759  ASP760  ASP761  ALA762  ILE779  LEU786  VAL792 
 PHE793  MET794  SER795  GLU796  ALA797  LYS798  CYS799  TRP800  GLU811  SER814 

> <Gold.Protein.RotatedAtoms>
  152.1886  133.4757  159.4995 H   0  0  0  0  0  0  0  0  0  0  0  0  # atno 6907 bound_to 6896
  150.6947  134.1741  159.4232 H   0  0  0  0  0  0  0  0  0  0  0  0  # atno 6908 bound_to 6896
  151.9655  135.0102  160.0600 H   0  0  0  0  0  0  0  0  0  0  0  0  # atno 6909 bound_to 6896
  146.0981  140.5805  142.8833 H   0  0  0  0  0  0  0  0  0  0  0  0  # atno 7974 bound_to 7965
  154.6879  140.2647  155.6842 H   0  0  0  0  0  0  0  0  0  0  0  0  # atno 8008 bound_to 7997
  156.2721  140.2797  156.1369 H   0  0  0  0  0  0  0  0  0  0  0  0  # atno 8009 bound_to 7997
  155.0939  140.0373  157.2667 H   0  0  0  0  0  0  0  0  0  0  0  0  # atno 8010 bound_to 7997
  139.5092  144.6320  151.5793 H   0  0  0  0  0  0  0  0  0  0  0  0  # atno 10167 bound_to 10162
  157.4319  131.1049  151.0241 H   0  0  0  0  0  0  0  0  0  0  0  0  # atno 10718 bound_to 10713
  153.3104  135.4088  155.1331 H   0  0  0  0  0  0  0  0  0  0  0  0  # atno 10763 bound_to 10752
  154.8574  135.3563  154.5730 H   0  0  0  0  0  0  0  0  0  0  0  0  # atno 10764 bound_to 10752
  153.6159  135.7066  153.5387 H   0  0  0  0  0  0  0  0  0  0  0  0  # atno 10765 bound_to 10752
  140.2406  134.3420  155.7927 H   0  0  0  0  0  0  0  0  0  0  0  0  # atno 11005 bound_to 11000
  144.7411  140.4945  143.6868 LP  0  0  0  0  0  0  0  0  0  0  0  0  # atno 17320 bound_to 7965
  145.5908  139.1495  143.3183 LP  0  0  0  0  0  0  0  0  0  0  0  0  # atno 17321 bound_to 7965
  140.6056  143.9530  150.6416 LP  0  0  0  0  0  0  0  0  0  0  0  0  # atno 17342 bound_to 10162
  140.2756  143.3425  152.1198 LP  0  0  0  0  0  0  0  0  0  0  0  0  # atno 17343 bound_to 10162
  157.1134  130.6031  149.5487 LP  0  0  0  0  0  0  0  0  0  0  0  0  # atno 17370 bound_to 10713
  155.9916  130.4971  150.7306 LP  0  0  0  0  0  0  0  0  0  0  0  0  # atno 17371 bound_to 10713
  141.2211  133.7296  156.8878 LP  0  0  0  0  0  0  0  0  0  0  0  0  # atno 17394 bound_to 11000
  140.1657  134.9134  157.2771 LP  0  0  0  0  0  0  0  0  0  0  0  0  # atno 17395 bound_to 11000

$$$$
