AV-unprocessed.smi:1995|AV-procd|sdf|8079|dock6
  -GOLD-   2272010293D 1   1.00000     0.00000
 Structure written by MMmdl.
 43 44  0  0  0  0  0  0  0  0  2 V2000
  147.2127  139.0201  156.7578 C   0  0  0  0  0  0  0  0  0  0  0  0
  147.7206  139.8365  155.5556 C   0  0  0  0  0  0  0  0  0  0  0  0
  147.8628  139.0503  154.2160 C   0  0  2  0  0  0  0  0  0  0  0  0
  148.0749  140.0955  153.0893 C   0  0  0  0  0  0  0  0  0  0  0  0
  146.5523  138.2548  153.9232 C   0  0  0  0  0  0  0  0  0  0  0  0
  146.7465  137.0940  153.0543 N   0  0  0  0  0  0  0  0  0  0  0  0
  145.7894  136.2310  152.6822 C   0  0  0  0  0  0  0  0  0  0  0  0
  144.6093  136.3418  153.0155 O   0  0  0  0  0  0  0  0  0  0  0  0
  146.2902  135.2536  151.9070 N   0  0  0  0  0  0  0  0  0  0  0  0
  145.6018  134.1585  151.3221 C   0  0  0  0  0  0  0  0  0  0  0  0
  144.2699  134.0649  151.2336 N   0  0  0  0  0  0  0  0  0  0  0  0
  143.8677  132.8804  150.6112 C   0  0  0  0  0  0  0  0  0  0  0  0
  144.9142  132.0781  150.2292 C   0  0  0  0  0  0  0  0  0  0  0  0
  146.4556  132.7829  150.6383 S   0  0  0  0  0  0  0  0  0  0  0  0
  149.0442  138.1150  154.2940 N   0  3  0  0  0  0  0  0  0  0  0  0
  150.3846  138.7640  154.3647 C   0  0  0  0  0  0  0  0  0  0  0  0
  151.4981  137.7149  154.2193 C   0  0  0  0  0  0  0  0  0  0  0  0
  151.3663  136.7399  155.2442 O   0  0  0  0  0  0  0  0  0  0  0  0
  150.1297  136.0469  155.1541 C   0  0  0  0  0  0  0  0  0  0  0  0
  148.9619  137.0348  155.3179 C   0  0  0  0  0  0  0  0  0  0  0  0
  147.1500  139.6518  157.6442 H   0  0  0  0  0  0  0  0  0  0  0  0
  147.8805  138.1933  156.9985 H   0  0  0  0  0  0  0  0  0  0  0  0
  146.2179  138.6106  156.5828 H   0  0  0  0  0  0  0  0  0  0  0  0
  147.0763  140.7051  155.4213 H   0  0  0  0  0  0  0  0  0  0  0  0
  148.6863  140.2576  155.8369 H   0  0  0  0  0  0  0  0  0  0  0  0
  147.3559  140.9127  153.1564 H   0  0  0  0  0  0  0  0  0  0  0  0
  147.9491  139.6603  152.0977 H   0  0  0  0  0  0  0  0  0  0  0  0
  149.0696  140.5401  153.1300 H   0  0  0  0  0  0  0  0  0  0  0  0
  146.1251  137.8737  154.8501 H   0  0  0  0  0  0  0  0  0  0  0  0
  145.7886  138.9018  153.4918 H   0  0  0  0  0  0  0  0  0  0  0  0
  147.6868  136.9251  152.7276 H   0  0  0  0  0  0  0  0  0  0  0  0
  147.2805  135.2924  151.7167 H   0  0  0  0  0  0  0  0  0  0  0  0
  142.8130  132.6887  150.4802 H   0  0  0  0  0  0  0  0  0  0  0  0
  144.8714  131.1194  149.7336 H   0  0  0  0  0  0  0  0  0  0  0  0
  150.5139  139.5063  153.5795 H   0  0  0  0  0  0  0  0  0  0  0  0
  150.5084  139.2790  155.3173 H   0  0  0  0  0  0  0  0  0  0  0  0
  151.4640  137.2411  153.2367 H   0  0  0  0  0  0  0  0  0  0  0  0
  152.4750  138.1904  154.3103 H   0  0  0  0  0  0  0  0  0  0  0  0
  150.0627  135.5205  154.2006 H   0  0  0  0  0  0  0  0  0  0  0  0
  150.0928  135.2897  155.9377 H   0  0  0  0  0  0  0  0  0  0  0  0
  148.9844  137.4618  156.3208 H   0  0  0  0  0  0  0  0  0  0  0  0
  148.0384  136.4658  155.2303 H   0  0  0  0  0  0  0  0  0  0  0  0
  149.0341  137.6308  153.4076 H   0  0  0  0  0  0  0  0  0  0  0  0
  1  2  1  0  0  0  0
  1 21  1  0  0  0  0
  1 22  1  0  0  0  0
  1 23  1  0  0  0  0
  2  3  1  0  0  0  0
  2 24  1  0  0  0  0
  2 25  1  0  0  0  0
  3  4  1  0  0  0  0
  3  5  1  0  0  0  0
  3 15  1  0  0  0  0
  4 26  1  0  0  0  0
  4 27  1  0  0  0  0
  4 28  1  0  0  0  0
  5  6  1  0  0  0  0
  5 29  1  0  0  0  0
  5 30  1  0  0  0  0
  6  7  1  0  0  0  0
  6 31  1  0  0  0  0
  7  8  2  0  0  0  0
  7  9  1  0  0  0  0
  9 10  1  0  0  0  0
  9 32  1  0  0  0  0
 10 14  1  0  0  0  0
 10 11  2  0  0  0  0
 11 12  1  0  0  0  0
 12 13  2  0  0  0  0
 12 33  1  0  0  0  0
 13 14  1  0  0  0  0
 13 34  1  0  0  0  0
 15 20  1  0  0  0  0
 15 16  1  0  0  0  0
 15 43  1  0  0  0  0
 16 17  1  0  0  0  0
 16 35  1  0  0  0  0
 16 36  1  0  0  0  0
 17 18  1  0  0  0  0
 17 37  1  0  0  0  0
 17 38  1  0  0  0  0
 18 19  1  0  0  0  0
 19 20  1  0  0  0  0
 19 39  1  0  0  0  0
 19 40  1  0  0  0  0
 20 41  1  0  0  0  0
 20 42  1  0  0  0  0
M  CHG  1  15   1
M  END
> <s_m_source_file>
AV-unprocessed.smi

> <i_m_source_file_index>
1995

> <i_lp_mmshare_version>
43012

> <i_f3d_flags>
0

> <s_epik_input>
W0NIMl0xW0NIMl1PW0NIMl1bQ0gyXU4xW0NAQF0oW0NIM10pKFtDSDJdW0NIM10pW0NIMl1bTkhdQyg9TylbTkhdYzJuW2NIXVtjSF1zMg==

> <s_epik_cmdline>
J2VwaWtfcHl0aG9uJywgJy1waCcsICc3LjAnLCAnLXRuJywgJzgnLCAnLW1hJywgJzIwMCcsICctbWV0YWxfYmluZGluZycsICctaW1hZScsICc8aW5maWxlLm1hZT4nLCAnLW9tYWUnLCAnPG91dGZpbGUubWFlPic=

> <r_lp_tautomer_probability>
0.999

> <r_epik_Ionization_Penalty>
0.55406

> <r_epik_Ionization_Penalty_Charging>
0.553838

> <r_epik_Ionization_Penalty_Neutral>
0.000222147

> <r_epik_State_Penalty>
0.564424

> <r_epik_Charging_Adjusted_Penalty>
1.11826

> <i_epik_Tot_Q>
1

> <i_epik_Tot_abs_Q>
1

> <r_epik_Metal_State_Penalty>
0.573776

> <b_epik_Metal_Only>
0

> <s_lp_Force_Field>
OPLS_2005

> <r_lp_Energy>
26.593

> <b_lp_Chiralities_Consistent>
1

> <s_lp_Variant>
AV-unprocessed.smi:1995-4

> <Gold.Version>
5.8.1

> <Gold.Id.Protein>
6NUR|6NUR_protein|mol2

> <Gold.PLP.Fitness>
43.0318

> <Gold.PLP.PLP>
-26.3247

> <Gold.PLP.part.hbond>
-4.0000

> <Gold.PLP.part.metal>
0.0000

> <Gold.PLP.part.buried>
-0.1228

> <Gold.PLP.part.nonpolar>
-23.4693

> <Gold.PLP.part.repulsive>
0.4861

> <Gold.PLP.ligand.clash>
0.0000

> <Gold.PLP.ligand.torsion>
0.6382

> <Gold.PLP.Chemscore.Hbond>
4.9913

> <Gold.PLP.Chemscore.CHOScore>
0.9590

> <Gold.PLP.Chemscore.Metal>
0.0000

> <Gold.Chemscore.Hbonds>
donor molecule, donor type, donor heavy atom, donor atom, acceptor molecule, acceptor atom, score
      L1  H     6    31       P1  7948  1.00
      L1  H     9    32       P1  7948  1.00
      L1  H    15    43       P1  7948  1.82
      P1  H 10752 10763       L1    18  0.84
      L1  C    12    33       P1 10186  0.61

> <Gold.PLP.Chemscore.Internal.Correction>
0.1326

> <Gold.Rescore>
     Score         DG    S(hbond)    S(metal)    S(lipo)     H(rot)  DE(clash)    DE(int)     intcor
     17.56     -21.26       3.60        0.00      71.46       1.79       1.73       1.97       ----

> <Gold.Chemscore.Fitness>
17.5624

> <Gold.Chemscore.DG>
-21.2633

> <Gold.Chemscore.ZeroCoef>
-5.4800

> <Gold.Chemscore.Hbond>
3.5975

> <Gold.Chemscore.Metal>
0.0000

> <Gold.Chemscore.Lipo>
71.4580

> <Gold.Chemscore.Internal_Hbond>
0.0000

> <Gold.Chemscore.DEClash>
1.7274

> <Gold.Chemscore.DEInternal>
1.9735

> <Gold.Chemscore.Rot>
1.7942

> <Gold.Chemscore.Internal.Correction>
   9.000000E+99

> <Gold.Chemscore.Hbonds>
donor molecule, donor type, donor heavy atom, donor atom, acceptor molecule, acceptor atom, score
      L1  H     6    31       P1  7948  0.99
      L1  H     9    32       P1  7948  0.92
      L1  H    15    43       P1  7948  0.87
      P1  H 10752 10763       L1    18  0.21

> <Gold.Chemscore.Hbond.Weighted>
-12.0158

> <Gold.Chemscore.Metal.Weighted>
-0.0000

> <Gold.Chemscore.Lipo.Weighted>
-8.3606

> <Gold.Chemscore.Internal_Hbond.Weighted>
0.0000

> <Gold.Chemscore.DEClash.Weighted>
1.7274

> <Gold.Chemscore.DEInternal.Weighted>
1.9735

> <Gold.Chemscore.Rot.Weighted>
4.5931

> <Gold.Chemscore.Internal.Correction.Weighted>
   9.000000E+99

> <Gold.Protein.RotatedTorsions>
[ 6907 6896 6895 6894 ] final -162.15 input  -60.11 | X-H torsion
[ 7974 7965 7964 7962 ] final  160.10 input  175.53 | X-H torsion
[ 8008 7997 7996 7995 ] final   36.72 input   59.86 | X-H torsion
[ 10167 10162 10161 10158 ] final -169.74 input  -65.29 | X-H torsion
[ 10718 10713 10712 10709 ] final  -58.87 input   66.30 | X-H torsion
[ 10763 10752 10751 10750 ] final   78.85 input  -60.55 | X-H torsion
[ 11005 11000 10999 10996 ] final -127.28 input  -57.11 | X-H torsion

> <Gold.Protein.ActiveResidues>
 VAL166  LYS551  ARG553  GLY616  TRP617  ASP618  TYR619  PRO620  LYS621  CYS622 
 ASP623  PHE694  ASN695  SER759  ASP760  ASP761  ALA762  ILE779  LEU786  VAL792 
 PHE793  MET794  SER795  GLU796  ALA797  LYS798  CYS799  TRP800  GLU811  SER814 

> <Gold.Protein.RotatedAtoms>
  151.3758  133.3838  159.2704 H   0  0  0  0  0  0  0  0  0  0  0  0  # atno 6907 bound_to 6896
  150.9616  134.9004  159.7744 H   0  0  0  0  0  0  0  0  0  0  0  0  # atno 6908 bound_to 6896
  152.5151  134.3717  159.9372 H   0  0  0  0  0  0  0  0  0  0  0  0  # atno 6909 bound_to 6896
  144.7755  139.7709  143.6280 H   0  0  0  0  0  0  0  0  0  0  0  0  # atno 7974 bound_to 7965
  155.1920  140.3308  155.4357 H   0  0  0  0  0  0  0  0  0  0  0  0  # atno 8008 bound_to 7997
  156.2439  140.1908  156.6962 H   0  0  0  0  0  0  0  0  0  0  0  0  # atno 8009 bound_to 7997
  154.6199  140.0597  156.9588 H   0  0  0  0  0  0  0  0  0  0  0  0  # atno 8010 bound_to 7997
  139.5904  144.1226  152.1627 H   0  0  0  0  0  0  0  0  0  0  0  0  # atno 10167 bound_to 10162
  156.1103  130.4176  150.0636 H   0  0  0  0  0  0  0  0  0  0  0  0  # atno 10718 bound_to 10713
  153.0906  135.4862  154.8683 H   0  0  0  0  0  0  0  0  0  0  0  0  # atno 10763 bound_to 10752
  154.7265  135.3050  154.8965 H   0  0  0  0  0  0  0  0  0  0  0  0  # atno 10764 bound_to 10752
  153.9614  135.6812  153.4798 H   0  0  0  0  0  0  0  0  0  0  0  0  # atno 10765 bound_to 10752
  140.9612  134.0934  157.3966 H   0  0  0  0  0  0  0  0  0  0  0  0  # atno 11005 bound_to 11000
  146.1931  139.5182  142.9792 LP  0  0  0  0  0  0  0  0  0  0  0  0  # atno 17320 bound_to 7965
  145.6199  141.0324  143.1920 LP  0  0  0  0  0  0  0  0  0  0  0  0  # atno 17321 bound_to 7965
  140.0799  144.5709  150.7130 LP  0  0  0  0  0  0  0  0  0  0  0  0  # atno 17342 bound_to 10162
  140.7168  143.2552  151.4408 LP  0  0  0  0  0  0  0  0  0  0  0  0  # atno 17343 bound_to 10162
  156.8601  130.9489  151.3618 LP  0  0  0  0  0  0  0  0  0  0  0  0  # atno 17370 bound_to 10713
  157.6284  130.8710  149.9230 LP  0  0  0  0  0  0  0  0  0  0  0  0  # atno 17371 bound_to 10713
  139.8879  135.0093  156.6586 LP  0  0  0  0  0  0  0  0  0  0  0  0  # atno 17394 bound_to 11000
  140.7465  133.8934  155.8315 LP  0  0  0  0  0  0  0  0  0  0  0  0  # atno 17395 bound_to 11000

$$$$
