AV-unprocessed.smi:2344|AV-procd|sdf|9359|dock3
  -GOLD-   2272012583D 1   1.00000     0.00000
 Structure written by MMmdl.
 35 36  0  0  0  0  0  0  0  0  1 V2000
  153.9446  141.7136  161.2752 C   0  0  0  0  0  0  0  0  0  0  0  0
  152.9979  141.9219  160.1118 C   0  0  0  0  0  0  0  0  0  0  0  0
  152.4499  140.8252  159.4208 C   0  0  0  0  0  0  0  0  0  0  0  0
  151.5767  141.0694  158.3435 C   0  0  0  0  0  0  0  0  0  0  0  0
  151.2727  142.4012  157.9820 C   0  0  0  0  0  0  0  0  0  0  0  0
  150.3818  142.5367  156.8841 N   0  0  0  0  0  0  0  0  0  0  0  0
  150.1407  141.6587  155.8947 C   0  0  0  0  0  0  0  0  0  0  0  0
  150.6665  140.5511  155.7795 O   0  0  0  0  0  0  0  0  0  0  0  0
  149.2385  142.1408  155.0279 N   0  0  0  0  0  0  0  0  0  0  0  0
  148.7544  141.4315  153.8490 C   0  0  2  0  0  0  0  0  0  0  0  0
  147.3727  141.8978  153.4814 C   0  0  0  0  0  0  0  0  0  0  0  0
  146.4768  140.9136  153.4970 C   0  0  0  0  0  0  0  0  0  0  0  0
  147.0673  139.5892  153.9037 C   0  0  1  0  0  0  0  0  0  0  0  0
  146.7910  138.4902  152.8646 C   0  0  0  0  0  0  0  0  0  0  0  0
  147.4518  138.7877  151.6529 O   0  0  0  0  0  0  0  0  0  0  0  0
  148.5728  139.9107  154.0951 C   0  0  0  0  0  0  0  0  0  0  0  0
  151.8069  143.4516  158.6534 N   0  0  0  0  0  0  0  0  0  0  0  0
  152.6441  143.2170  159.6856 C   0  0  0  0  0  0  0  0  0  0  0  0
  149.4178  141.6116  153.0010 H   0  0  0  0  0  0  0  0  0  0  0  0
  146.6206  139.3134  154.8599 H   0  0  0  0  0  0  0  0  0  0  0  0
  153.6239  140.8689  161.8856 H   0  0  0  0  0  0  0  0  0  0  0  0
  153.9809  142.5976  161.9125 H   0  0  0  0  0  0  0  0  0  0  0  0
  154.9514  141.5119  160.9088 H   0  0  0  0  0  0  0  0  0  0  0  0
  152.6930  139.8129  159.7087 H   0  0  0  0  0  0  0  0  0  0  0  0
  151.1468  140.2384  157.8031 H   0  0  0  0  0  0  0  0  0  0  0  0
  149.8701  143.4056  156.8461 H   0  0  0  0  0  0  0  0  0  0  0  0
  148.8551  143.0591  155.1968 H   0  0  0  0  0  0  0  0  0  0  0  0
  147.1618  142.9254  153.2240 H   0  0  0  0  0  0  0  0  0  0  0  0
  145.4282  141.0272  153.2643 H   0  0  0  0  0  0  0  0  0  0  0  0
  147.1516  137.5264  153.2254 H   0  0  0  0  0  0  0  0  0  0  0  0
  145.7212  138.3871  152.6787 H   0  0  0  0  0  0  0  0  0  0  0  0
  148.1442  139.4053  151.8318 H   0  0  0  0  0  0  0  0  0  0  0  0
  149.1876  139.3515  153.3887 H   0  0  0  0  0  0  0  0  0  0  0  0
  148.9007  139.6131  155.0921 H   0  0  0  0  0  0  0  0  0  0  0  0
  153.0416  144.0894  160.1830 H   0  0  0  0  0  0  0  0  0  0  0  0
  1  2  1  0  0  0  0
  1 21  1  0  0  0  0
  1 22  1  0  0  0  0
  1 23  1  0  0  0  0
  2 18  1  0  0  0  0
  2  3  2  0  0  0  0
  3  4  1  0  0  0  0
  3 24  1  0  0  0  0
  4  5  2  0  0  0  0
  4 25  1  0  0  0  0
  5  6  1  0  0  0  0
  5 17  1  0  0  0  0
  6  7  1  0  0  0  0
  6 26  1  0  0  0  0
  7  8  2  0  0  0  0
  7  9  1  0  0  0  0
  9 10  1  0  0  0  0
  9 27  1  0  0  0  0
 10 19  1  0  0  0  0
 10 16  1  0  0  0  0
 10 11  1  0  0  0  0
 11 12  2  0  0  0  0
 11 28  1  0  0  0  0
 12 13  1  0  0  0  0
 12 29  1  0  0  0  0
 13 20  1  0  0  0  0
 13 14  1  0  0  0  0
 13 16  1  0  0  0  0
 14 15  1  0  0  0  0
 14 30  1  0  0  0  0
 14 31  1  0  0  0  0
 15 32  1  0  0  0  0
 16 33  1  0  0  0  0
 16 34  1  0  0  0  0
 17 18  2  0  0  0  0
 18 35  1  0  0  0  0
M  END
> <s_m_source_file>
AV-unprocessed.smi

> <i_m_source_file_index>
2344

> <i_lp_mmshare_version>
43012

> <i_f3d_flags>
0

> <s_epik_input>
W0NIM11jMVtjSF1bY0hdYyhuW2NIXTEpW05IXUMoPU8pW05IXVtDQEBIXTJbQ0hdPVtDSF1bQ0BASF0oW0NIMl0yKVtDSDJdW09IXQ==

> <s_epik_cmdline>
J2VwaWtfcHl0aG9uJywgJy1waCcsICc3LjAnLCAnLXRuJywgJzgnLCAnLW1hJywgJzIwMCcsICctbWV0YWxfYmluZGluZycsICctaW1hZScsICc8aW5maWxlLm1hZT4nLCAnLW9tYWUnLCAnPG91dGZpbGUubWFlPic=

> <r_lp_tautomer_probability>
1

> <r_epik_Ionization_Penalty>
5.7643e-05

> <r_epik_Ionization_Penalty_Charging>
0

> <r_epik_Ionization_Penalty_Neutral>
5.7643e-05

> <r_epik_State_Penalty>
-0

> <r_epik_Charging_Adjusted_Penalty>
0

> <i_epik_Tot_Q>
0

> <i_epik_Tot_abs_Q>
0

> <r_epik_Metal_State_Penalty>
-0

> <b_epik_Metal_Only>
0

> <s_lp_Force_Field>
OPLS_2005

> <r_lp_Energy>
17.7036

> <b_lp_Chiralities_Consistent>
1

> <s_lp_Variant>
AV-unprocessed.smi:2344-3

> <Gold.Version>
5.8.1

> <Gold.Id.Protein>
6NUR|6NUR_protein|mol2

> <Gold.PLP.Fitness>
45.5241

> <Gold.PLP.PLP>
-36.0465

> <Gold.PLP.part.hbond>
-4.9367

> <Gold.PLP.part.metal>
0.0000

> <Gold.PLP.part.buried>
-0.1962

> <Gold.PLP.part.nonpolar>
-30.2391

> <Gold.PLP.part.repulsive>
0.3181

> <Gold.PLP.ligand.clash>
0.0000

> <Gold.PLP.ligand.torsion>
0.4877

> <Gold.PLP.Chemscore.Hbond>
3.4797

> <Gold.PLP.Chemscore.CHOScore>
0.0000

> <Gold.PLP.Chemscore.Metal>
0.0000

> <Gold.Chemscore.Hbonds>
donor molecule, donor type, donor heavy atom, donor atom, acceptor molecule, acceptor atom, score
      L1  H     6    26       P1  8028  0.93
      L1  H     9    27       P1  8028  1.00
      L1  H    15    32       P1  7957  0.80
      P1  H  7954  7966       L1    15  0.78

> <Gold.PLP.Chemscore.Internal.Correction>
0.0140

> <Gold.Rescore>
     Score         DG    S(hbond)    S(metal)    S(lipo)     H(rot)  DE(clash)    DE(int)     intcor
     15.18     -20.39       2.76        0.00      88.40       1.82       1.78       3.43       ----

> <Gold.Chemscore.Fitness>
15.1809

> <Gold.Chemscore.DG>
-20.3862

> <Gold.Chemscore.ZeroCoef>
-5.4800

> <Gold.Chemscore.Hbond>
2.7598

> <Gold.Chemscore.Metal>
0.0000

> <Gold.Chemscore.Lipo>
88.4049

> <Gold.Chemscore.Internal_Hbond>
0.0000

> <Gold.Chemscore.DEClash>
1.7754

> <Gold.Chemscore.DEInternal>
3.4299

> <Gold.Chemscore.Rot>
1.8184

> <Gold.Chemscore.Internal.Correction>
   9.000000E+99

> <Gold.Chemscore.Hbonds>
donor molecule, donor type, donor heavy atom, donor atom, acceptor molecule, acceptor atom, score
      L1  H     6    26       P1  8028  0.86
      L1  H     9    27       P1  8028  0.99
      L1  H    15    32       P1  7957  0.79
      P1  H  7954  7966       L1    15  0.19

> <Gold.Chemscore.Hbond.Weighted>
-9.2179

> <Gold.Chemscore.Metal.Weighted>
-0.0000

> <Gold.Chemscore.Lipo.Weighted>
-10.3434

> <Gold.Chemscore.Internal_Hbond.Weighted>
0.0000

> <Gold.Chemscore.DEClash.Weighted>
1.7754

> <Gold.Chemscore.DEInternal.Weighted>
3.4299

> <Gold.Chemscore.Rot.Weighted>
4.6551

> <Gold.Chemscore.Internal.Correction.Weighted>
   9.000000E+99

> <Gold.Protein.RotatedTorsions>
[ 6907 6896 6895 6894 ] final  154.60 input  -60.11 | X-H torsion
[ 7974 7965 7964 7962 ] final -179.40 input  175.53 | X-H torsion
[ 8008 7997 7996 7995 ] final -147.79 input   59.86 | X-H torsion
[ 10167 10162 10161 10158 ] final   -9.52 input  -65.29 | X-H torsion
[ 10718 10713 10712 10709 ] final  163.01 input   66.30 | X-H torsion
[ 10763 10752 10751 10750 ] final   81.86 input  -60.55 | X-H torsion
[ 11005 11000 10999 10996 ] final -138.23 input  -57.11 | X-H torsion

> <Gold.Protein.ActiveResidues>
 VAL166  LYS551  ARG553  GLY616  TRP617  ASP618  TYR619  PRO620  LYS621  CYS622 
 ASP623  PHE694  ASN695  SER759  ASP760  ASP761  ALA762  ILE779  LEU786  VAL792 
 PHE793  MET794  SER795  GLU796  ALA797  LYS798  CYS799  TRP800  GLU811  SER814 

> <Gold.Protein.RotatedAtoms>
  152.0562  133.4041  159.4397 H   0  0  0  0  0  0  0  0  0  0  0  0  # atno 6907 bound_to 6896
  150.6868  134.3252  159.4812 H   0  0  0  0  0  0  0  0  0  0  0  0  # atno 6908 bound_to 6896
  152.1068  134.9302  160.0618 H   0  0  0  0  0  0  0  0  0  0  0  0  # atno 6909 bound_to 6896
  144.7136  140.0723  143.6429 H   0  0  0  0  0  0  0  0  0  0  0  0  # atno 7974 bound_to 7965
  155.5812  140.0643  157.2783 H   0  0  0  0  0  0  0  0  0  0  0  0  # atno 8008 bound_to 7997
  154.4332  140.1852  156.1024 H   0  0  0  0  0  0  0  0  0  0  0  0  # atno 8009 bound_to 7997
  156.0304  140.3307  155.7137 H   0  0  0  0  0  0  0  0  0  0  0  0  # atno 8010 bound_to 7997
  140.7089  143.5849  150.8953 H   0  0  0  0  0  0  0  0  0  0  0  0  # atno 10167 bound_to 10162
  157.1146  131.0476  151.2442 H   0  0  0  0  0  0  0  0  0  0  0  0  # atno 10718 bound_to 10713
  153.1152  135.4750  154.9104 H   0  0  0  0  0  0  0  0  0  0  0  0  # atno 10763 bound_to 10752
  154.7521  135.3109  154.8540 H   0  0  0  0  0  0  0  0  0  0  0  0  # atno 10764 bound_to 10752
  153.9118  135.6864  153.4804 H   0  0  0  0  0  0  0  0  0  0  0  0  # atno 10765 bound_to 10752
  140.8636  134.2138  157.4693 H   0  0  0  0  0  0  0  0  0  0  0  0  # atno 11005 bound_to 11000
  145.9772  139.2914  143.1063 LP  0  0  0  0  0  0  0  0  0  0  0  0  # atno 17320 bound_to 7965
  145.9050  140.9217  143.0483 LP  0  0  0  0  0  0  0  0  0  0  0  0  # atno 17321 bound_to 7965
  139.9575  143.6202  152.3012 LP  0  0  0  0  0  0  0  0  0  0  0  0  # atno 17342 bound_to 10162
  139.6742  144.7659  151.1726 LP  0  0  0  0  0  0  0  0  0  0  0  0  # atno 17343 bound_to 10162
  157.4530  130.7609  149.7168 LP  0  0  0  0  0  0  0  0  0  0  0  0  # atno 17370 bound_to 10713
  155.9842  130.3993  150.3321 LP  0  0  0  0  0  0  0  0  0  0  0  0  # atno 17371 bound_to 10713
  139.8708  134.9741  156.4834 LP  0  0  0  0  0  0  0  0  0  0  0  0  # atno 17394 bound_to 11000
  140.8655  133.8028  155.9309 LP  0  0  0  0  0  0  0  0  0  0  0  0  # atno 17395 bound_to 11000

$$$$
