AV-unprocessed.smi:753|AV-procd|sdf|3601|dock5
  -GOLD-   22720 0593D 1   1.00000     0.00000
 Structure written by MMmdl.
 43 45  0  0  0  0  0  0  0  0  1 V2000
  154.5559  142.8867  164.3285 C   0  0  0  0  0  0  0  0  0  0  0  0
  153.9553  142.7547  162.9446 C   0  0  0  0  0  0  0  0  0  0  0  0
  154.2548  141.6418  162.1310 C   0  0  0  0  0  0  0  0  0  0  0  0
  153.6710  141.5702  160.8518 C   0  0  0  0  0  0  0  0  0  0  0  0
  152.8137  142.6099  160.4362 C   0  0  0  0  0  0  0  0  0  0  0  0
  152.1780  142.5964  159.0572 C   0  0  0  0  0  0  0  0  0  0  0  0
  151.2464  143.7949  158.7956 C   0  0  0  0  0  0  0  0  0  0  0  0
  150.2742  143.5200  157.7408 N   0  0  0  0  0  0  0  0  0  0  0  0
  149.6538  142.3454  157.5342 C   0  0  0  0  0  0  0  0  0  0  0  0
  149.8469  141.3433  158.2198 O   0  0  0  0  0  0  0  0  0  0  0  0
  148.7815  142.3459  156.5115 N   0  0  0  0  0  0  0  0  0  0  0  0
  147.9546  141.2342  156.0349 C   0  0  2  0  0  0  0  0  0  0  0  0
  148.0912  141.0549  154.5066 C   0  0  0  0  0  0  0  0  0  0  0  0
  146.6430  141.2062  154.0058 C   0  0  2  0  0  0  0  0  0  0  0  0
  146.2027  142.6775  154.1323 C   0  0  0  0  0  0  0  0  0  0  0  0
  146.0070  142.8453  155.6509 C   0  0  0  0  0  0  0  0  0  0  0  0
  146.4291  141.4650  156.1993 C   0  0  1  0  0  0  0  0  0  0  0  0
  145.8578  140.5420  155.1283 C   0  0  0  0  0  0  0  0  0  0  0  0
  152.5765  143.6763  161.3290 C   0  0  0  0  0  0  0  0  0  0  0  0
  153.1306  143.7529  162.5579 N   0  0  0  0  0  0  0  0  0  0  0  0
  155.4194  142.2312  164.4452 H   0  0  0  0  0  0  0  0  0  0  0  0
  153.8187  142.6208  165.0861 H   0  0  0  0  0  0  0  0  0  0  0  0
  154.8833  143.9107  164.5112 H   0  0  0  0  0  0  0  0  0  0  0  0
  154.9178  140.8617  162.4749 H   0  0  0  0  0  0  0  0  0  0  0  0
  153.8862  140.7360  160.2003 H   0  0  0  0  0  0  0  0  0  0  0  0
  152.9640  142.5716  158.3011 H   0  0  0  0  0  0  0  0  0  0  0  0
  151.6186  141.6674  158.9416 H   0  0  0  0  0  0  0  0  0  0  0  0
  150.6977  144.0349  159.7065 H   0  0  0  0  0  0  0  0  0  0  0  0
  151.8347  144.6821  158.5552 H   0  0  0  0  0  0  0  0  0  0  0  0
  150.0467  144.2858  157.1237 H   0  0  0  0  0  0  0  0  0  0  0  0
  148.6674  143.2197  156.0185 H   0  0  0  0  0  0  0  0  0  0  0  0
  148.2541  140.3078  156.5293 H   0  0  0  0  0  0  0  0  0  0  0  0
  148.7606  141.7808  154.0421 H   0  0  0  0  0  0  0  0  0  0  0  0
  148.4756  140.0607  154.2748 H   0  0  0  0  0  0  0  0  0  0  0  0
  146.4783  140.7840  153.0142 H   0  0  0  0  0  0  0  0  0  0  0  0
  146.9479  143.3655  153.7312 H   0  0  0  0  0  0  0  0  0  0  0  0
  145.2651  142.8534  153.6034 H   0  0  0  0  0  0  0  0  0  0  0  0
  146.5827  143.6750  156.0609 H   0  0  0  0  0  0  0  0  0  0  0  0
  144.9575  143.0387  155.8771 H   0  0  0  0  0  0  0  0  0  0  0  0
  146.0631  141.2693  157.2077 H   0  0  0  0  0  0  0  0  0  0  0  0
  144.7760  140.6294  155.0112 H   0  0  0  0  0  0  0  0  0  0  0  0
  146.1178  139.4925  155.2771 H   0  0  0  0  0  0  0  0  0  0  0  0
  151.9310  144.4949  161.0463 H   0  0  0  0  0  0  0  0  0  0  0  0
  1  2  1  0  0  0  0
  1 21  1  0  0  0  0
  1 22  1  0  0  0  0
  1 23  1  0  0  0  0
  2 20  1  0  0  0  0
  2  3  2  0  0  0  0
  3  4  1  0  0  0  0
  3 24  1  0  0  0  0
  4  5  2  0  0  0  0
  4 25  1  0  0  0  0
  5  6  1  0  0  0  0
  5 19  1  0  0  0  0
  6  7  1  0  0  0  0
  6 26  1  0  0  0  0
  6 27  1  0  0  0  0
  7  8  1  0  0  0  0
  7 28  1  0  0  0  0
  7 29  1  0  0  0  0
  8  9  1  0  0  0  0
  8 30  1  0  0  0  0
  9 10  2  0  0  0  0
  9 11  1  0  0  0  0
 11 12  1  0  0  0  0
 11 31  1  0  0  0  0
 12 17  1  0  0  0  0
 12 13  1  0  0  0  0
 12 32  1  0  0  0  0
 13 14  1  0  0  0  0
 13 33  1  0  0  0  0
 13 34  1  0  0  0  0
 14 18  1  0  0  0  0
 14 15  1  0  0  0  0
 14 35  1  0  0  0  0
 15 16  1  0  0  0  0
 15 36  1  0  0  0  0
 15 37  1  0  0  0  0
 16 17  1  0  0  0  0
 16 38  1  0  0  0  0
 16 39  1  0  0  0  0
 17 18  1  0  0  0  0
 17 40  1  0  0  0  0
 18 41  1  0  0  0  0
 18 42  1  0  0  0  0
 19 20  2  0  0  0  0
 19 43  1  0  0  0  0
M  END
> <s_m_source_file>
AV-unprocessed.smi

> <i_m_source_file_index>
753

> <i_lp_mmshare_version>
43012

> <i_f3d_flags>
0

> <s_epik_input>
W0NIM11jMVtjSF1bY0hdYyhbY0hdbjEpW0NIMl1bQ0gyXVtOSF1DKD1PKVtOSF1bQ0BIXShbQ0gyXVtDQEBIXTIzKVtDQEBIXShbQ0gyXTMpW0NIMl1bQ0gyXTI=

> <s_epik_cmdline>
J2VwaWtfcHl0aG9uJywgJy1waCcsICc3LjAnLCAnLXRuJywgJzgnLCAnLW1hJywgJzIwMCcsICctbWV0YWxfYmluZGluZycsICctaW1hZScsICc8aW5maWxlLm1hZT4nLCAnLW9tYWUnLCAnPG91dGZpbGUubWFlPic=

> <r_epik_Ionization_Penalty>
0.0569047

> <r_epik_Ionization_Penalty_Charging>
0

> <r_epik_Ionization_Penalty_Neutral>
0.0569047

> <r_epik_State_Penalty>
0.0490541

> <r_epik_Charging_Adjusted_Penalty>
0.0490541

> <i_epik_Tot_Q>
0

> <i_epik_Tot_abs_Q>
0

> <r_epik_Metal_State_Penalty>
0.0447357

> <b_epik_Metal_Only>
0

> <s_lp_Force_Field>
OPLS_2005

> <r_lp_Energy>
52.9013

> <b_lp_Chiralities_Consistent>
1

> <s_lp_Variant>
AV-unprocessed.smi:753-3

> <Gold.Version>
5.8.1

> <Gold.Id.Protein>
6NUR|6NUR_protein|mol2

> <Gold.PLP.Fitness>
48.5491

> <Gold.PLP.PLP>
-43.6101

> <Gold.PLP.part.hbond>
-1.9943

> <Gold.PLP.part.metal>
0.0000

> <Gold.PLP.part.buried>
-1.8975

> <Gold.PLP.part.nonpolar>
-39.0077

> <Gold.PLP.part.repulsive>
0.2751

> <Gold.PLP.ligand.clash>
0.0000

> <Gold.PLP.ligand.torsion>
0.3362

> <Gold.PLP.Chemscore.Hbond>
1.8640

> <Gold.PLP.Chemscore.CHOScore>
0.0000

> <Gold.PLP.Chemscore.Metal>
0.0000

> <Gold.Chemscore.Hbonds>
donor molecule, donor type, donor heavy atom, donor atom, acceptor molecule, acceptor atom, score
      L1  H     8    30       P1  8028  0.85
      L1  H    11    31       P1  8028  1.00

> <Gold.PLP.Chemscore.Internal.Correction>
0.0193

> <Gold.Rescore>
     Score         DG    S(hbond)    S(metal)    S(lipo)     H(rot)  DE(clash)    DE(int)     intcor
     20.03     -21.97       1.88        0.00     118.62       1.43       0.07       1.87       ----

> <Gold.Chemscore.Fitness>
20.0287

> <Gold.Chemscore.DG>
-21.9715

> <Gold.Chemscore.ZeroCoef>
-5.4800

> <Gold.Chemscore.Hbond>
1.8776

> <Gold.Chemscore.Metal>
0.0000

> <Gold.Chemscore.Lipo>
118.6231

> <Gold.Chemscore.Internal_Hbond>
0.0000

> <Gold.Chemscore.DEClash>
0.0683

> <Gold.Chemscore.DEInternal>
1.8745

> <Gold.Chemscore.Rot>
1.4291

> <Gold.Chemscore.Internal.Correction>
   9.000000E+99

> <Gold.Chemscore.Hbonds>
donor molecule, donor type, donor heavy atom, donor atom, acceptor molecule, acceptor atom, score
      L1  H     8    30       P1  8028  0.58
      L1  H    11    31       P1  8028  0.94

> <Gold.Chemscore.Hbond.Weighted>
-6.2711

> <Gold.Chemscore.Metal.Weighted>
-0.0000

> <Gold.Chemscore.Lipo.Weighted>
-13.8789

> <Gold.Chemscore.Internal_Hbond.Weighted>
0.0000

> <Gold.Chemscore.DEClash.Weighted>
0.0683

> <Gold.Chemscore.DEInternal.Weighted>
1.8745

> <Gold.Chemscore.Rot.Weighted>
3.6585

> <Gold.Chemscore.Internal.Correction.Weighted>
   9.000000E+99

> <Gold.Protein.RotatedTorsions>
[ 6907 6896 6895 6894 ] final -160.71 input  -60.11 | X-H torsion
[ 7974 7965 7964 7962 ] final -176.48 input  175.53 | X-H torsion
[ 8008 7997 7996 7995 ] final    1.84 input   59.86 | X-H torsion
[ 10167 10162 10161 10158 ] final  154.67 input  -65.29 | X-H torsion
[ 10718 10713 10712 10709 ] final   71.61 input   66.30 | X-H torsion
[ 10763 10752 10751 10750 ] final -129.41 input  -60.55 | X-H torsion
[ 11005 11000 10999 10996 ] final -168.38 input  -57.11 | X-H torsion

> <Gold.Protein.ActiveResidues>
 VAL166  LYS551  ARG553  GLY616  TRP617  ASP618  TYR619  PRO620  LYS621  CYS622 
 ASP623  PHE694  ASN695  SER759  ASP760  ASP761  ALA762  ILE779  LEU786  VAL792 
 PHE793  MET794  SER795  GLU796  ALA797  LYS798  CYS799  TRP800  GLU811  SER814 

> <Gold.Protein.RotatedAtoms>
  151.3534  133.3917  159.2682 H   0  0  0  0  0  0  0  0  0  0  0  0  # atno 6907 bound_to 6896
  150.9783  134.9144  159.7839 H   0  0  0  0  0  0  0  0  0  0  0  0  # atno 6908 bound_to 6896
  152.5208  134.3497  159.9299 H   0  0  0  0  0  0  0  0  0  0  0  0  # atno 6909 bound_to 6896
  144.7127  140.1164  143.6408 H   0  0  0  0  0  0  0  0  0  0  0  0  # atno 7974 bound_to 7965
  154.6846  140.2640  155.6874 H   0  0  0  0  0  0  0  0  0  0  0  0  # atno 8008 bound_to 7997
  156.2709  140.2803  156.1325 H   0  0  0  0  0  0  0  0  0  0  0  0  # atno 8009 bound_to 7997
  155.0983  140.0374  157.2679 H   0  0  0  0  0  0  0  0  0  0  0  0  # atno 8010 bound_to 7997
  139.4823  144.5166  151.7941 H   0  0  0  0  0  0  0  0  0  0  0  0  # atno 10167 bound_to 10162
  157.6460  130.9537  150.0813 H   0  0  0  0  0  0  0  0  0  0  0  0  # atno 10718 bound_to 10713
  154.8757  135.3896  154.3915 H   0  0  0  0  0  0  0  0  0  0  0  0  # atno 10763 bound_to 10752
  153.4651  135.7029  153.6032 H   0  0  0  0  0  0  0  0  0  0  0  0  # atno 10764 bound_to 10752
  153.4514  135.3833  155.2254 H   0  0  0  0  0  0  0  0  0  0  0  0  # atno 10765 bound_to 10752
  140.5426  134.5507  157.5103 H   0  0  0  0  0  0  0  0  0  0  0  0  # atno 11005 bound_to 11000
  145.9410  139.2669  143.1269 LP  0  0  0  0  0  0  0  0  0  0  0  0  # atno 17320 bound_to 7965
  145.9424  140.8970  143.0301 LP  0  0  0  0  0  0  0  0  0  0  0  0  # atno 17321 bound_to 7965
  140.4676  144.1633  150.5913 LP  0  0  0  0  0  0  0  0  0  0  0  0  # atno 17342 bound_to 10162
  140.4418  143.2523  151.9463 LP  0  0  0  0  0  0  0  0  0  0  0  0  # atno 17343 bound_to 10162
  156.1789  130.3649  149.9063 LP  0  0  0  0  0  0  0  0  0  0  0  0  # atno 17370 bound_to 10713
  156.7020  130.8937  151.3600 LP  0  0  0  0  0  0  0  0  0  0  0  0  # atno 17371 bound_to 10713
  139.9496  134.7641  156.0480 LP  0  0  0  0  0  0  0  0  0  0  0  0  # atno 17394 bound_to 11000
  141.1218  133.6610  156.3234 LP  0  0  0  0  0  0  0  0  0  0  0  0  # atno 17395 bound_to 11000

$$$$
