AV-unprocessed.smi:3290|AV-procd|sdf|12616|dock5
  -GOLD-   2272018553D 1   1.00000     0.00000
 Structure written by MMmdl.
 43 44  0  0  0  0  0  0  0  0  2 V2000
  150.6209  145.4301  159.7982 C   0  0  0  0  0  0  0  0  0  0  0  0
  151.8160  144.4676  159.8972 C   0  0  1  0  0  0  0  0  0  0  0  0
  151.8530  143.7502  161.2631 C   0  0  0  0  0  0  0  0  0  0  0  0
  153.1063  142.8733  161.4086 C   0  0  0  0  0  0  0  0  0  0  0  0
  153.2393  141.8842  160.2422 C   0  0  0  0  0  0  0  0  0  0  0  0
  153.2107  142.6163  158.8900 C   0  0  0  0  0  0  0  0  0  0  0  0
  151.9348  143.4683  158.7095 C   0  0  1  0  0  0  0  0  0  0  0  0
  150.6963  142.5669  158.4813 C   0  0  0  0  0  0  0  0  0  0  0  0
  150.3074  142.5036  157.0584 N   0  3  0  0  0  0  0  0  0  0  0  0
  149.2499  141.5162  156.7634 C   0  0  0  0  0  0  0  0  0  0  0  0
  149.2959  141.0650  155.2933 C   0  0  1  0  0  0  0  0  0  0  0  0
  149.5907  142.1852  154.4817 O   0  0  0  0  0  0  0  0  0  0  0  0
  150.3037  139.9442  155.0927 C   0  0  0  0  0  0  0  0  0  0  0  0
  151.6214  140.0466  155.5898 C   0  0  0  0  0  0  0  0  0  0  0  0
  152.5072  138.9713  155.3774 C   0  0  0  0  0  0  0  0  0  0  0  0
  152.1593  137.8429  154.7232 N   0  0  0  0  0  0  0  0  0  0  0  0
  150.8977  137.7492  154.2517 C   0  0  0  0  0  0  0  0  0  0  0  0
  149.9350  138.7662  154.4100 C   0  0  0  0  0  0  0  0  0  0  0  0
  149.6730  144.9161  159.9563 H   0  0  0  0  0  0  0  0  0  0  0  0
  150.5860  145.9193  158.8246 H   0  0  0  0  0  0  0  0  0  0  0  0
  150.6918  146.2130  160.5541 H   0  0  0  0  0  0  0  0  0  0  0  0
  152.7056  145.0985  159.8545 H   0  0  0  0  0  0  0  0  0  0  0  0
  151.8369  144.4859  162.0682 H   0  0  0  0  0  0  0  0  0  0  0  0
  150.9596  143.1400  161.3960 H   0  0  0  0  0  0  0  0  0  0  0  0
  153.9916  143.5094  161.4474 H   0  0  0  0  0  0  0  0  0  0  0  0
  153.0746  142.3321  162.3547 H   0  0  0  0  0  0  0  0  0  0  0  0
  154.1694  141.3233  160.3391 H   0  0  0  0  0  0  0  0  0  0  0  0
  152.4340  141.1504  160.2868 H   0  0  0  0  0  0  0  0  0  0  0  0
  154.0868  143.2627  158.8195 H   0  0  0  0  0  0  0  0  0  0  0  0
  153.3077  141.8973  158.0757 H   0  0  0  0  0  0  0  0  0  0  0  0
  152.0826  144.0491  157.7974 H   0  0  0  0  0  0  0  0  0  0  0  0
  150.9175  141.5471  158.7988 H   0  0  0  0  0  0  0  0  0  0  0  0
  149.8509  142.9008  159.0824 H   0  0  0  0  0  0  0  0  0  0  0  0
  149.9785  143.4163  156.7774 H   0  0  0  0  0  0  0  0  0  0  0  0
  149.3510  140.6587  157.4305 H   0  0  0  0  0  0  0  0  0  0  0  0
  148.2830  141.9746  156.9758 H   0  0  0  0  0  0  0  0  0  0  0  0
  148.3111  140.6997  154.9977 H   0  0  0  0  0  0  0  0  0  0  0  0
  149.4336  142.9696  154.9860 H   0  0  0  0  0  0  0  0  0  0  0  0
  151.9505  140.9264  156.1234 H   0  0  0  0  0  0  0  0  0  0  0  0
  153.5215  139.0183  155.7451 H   0  0  0  0  0  0  0  0  0  0  0  0
  150.6464  136.8353  153.7342 H   0  0  0  0  0  0  0  0  0  0  0  0
  148.9381  138.6385  154.0145 H   0  0  0  0  0  0  0  0  0  0  0  0
  151.1230  142.2718  156.5092 H   0  0  0  0  0  0  0  0  0  0  0  0
  1  2  1  0  0  0  0
  1 19  1  0  0  0  0
  1 20  1  0  0  0  0
  1 21  1  0  0  0  0
  2  7  1  0  0  0  0
  2  3  1  0  0  0  0
  2 22  1  0  0  0  0
  3  4  1  0  0  0  0
  3 23  1  0  0  0  0
  3 24  1  0  0  0  0
  4  5  1  0  0  0  0
  4 25  1  0  0  0  0
  4 26  1  0  0  0  0
  5  6  1  0  0  0  0
  5 27  1  0  0  0  0
  5 28  1  0  0  0  0
  6  7  1  0  0  0  0
  6 29  1  0  0  0  0
  6 30  1  0  0  0  0
  7  8  1  0  0  0  0
  7 31  1  0  0  0  0
  8  9  1  0  0  0  0
  8 32  1  0  0  0  0
  8 33  1  0  0  0  0
  9 10  1  0  0  0  0
  9 34  1  0  0  0  0
  9 43  1  0  0  0  0
 10 11  1  0  0  0  0
 10 35  1  0  0  0  0
 10 36  1  0  0  0  0
 11 12  1  0  0  0  0
 11 13  1  0  0  0  0
 11 37  1  0  0  0  0
 12 38  1  0  0  0  0
 13 18  1  0  0  0  0
 13 14  2  0  0  0  0
 14 15  1  0  0  0  0
 14 39  1  0  0  0  0
 15 16  2  0  0  0  0
 15 40  1  0  0  0  0
 16 17  1  0  0  0  0
 17 18  2  0  0  0  0
 17 41  1  0  0  0  0
 18 42  1  0  0  0  0
M  CHG  1   9   1
M  END
> <s_m_source_file>
AV-unprocessed.smi

> <i_m_source_file_index>
3290

> <i_lp_mmshare_version>
43012

> <i_f3d_flags>
0

> <s_epik_input>
W0NIM11bQ0BASF0xW0NIMl1bQ0gyXVtDSDJdW0NIMl1bQ0BIXTFbQ0gyXVtOSF1bQ0gyXVtDQEhdKFtPSF0pYzJbY0hdW2NIXW5bY0hdW2NIXTI=

> <s_epik_cmdline>
J2VwaWtfcHl0aG9uJywgJy1waCcsICc3LjAnLCAnLXRuJywgJzgnLCAnLW1hJywgJzIwMCcsICctbWV0YWxfYmluZGluZycsICctaW1hZScsICc8aW5maWxlLm1hZT4nLCAnLW9tYWUnLCAnPG91dGZpbGUubWFlPic=

> <r_lp_tautomer_probability>
1

> <r_epik_Ionization_Penalty>
0.00420552

> <r_epik_Ionization_Penalty_Charging>
0.00207255

> <r_epik_Ionization_Penalty_Neutral>
0.00213297

> <r_epik_State_Penalty>
-0

> <r_epik_Charging_Adjusted_Penalty>
0.00207255

> <i_epik_Tot_Q>
1

> <i_epik_Tot_abs_Q>
1

> <r_epik_Metal_State_Penalty>
-0

> <b_epik_Metal_Only>
0

> <s_lp_Force_Field>
OPLS_2005

> <r_lp_Energy>
19.3007

> <b_lp_Chiralities_Consistent>
1

> <s_lp_Variant>
AV-unprocessed.smi:3290-6

> <Gold.Version>
5.8.1

> <Gold.Id.Protein>
6NUR|6NUR_protein|mol2

> <Gold.PLP.Fitness>
55.6857

> <Gold.PLP.PLP>
-44.7485

> <Gold.PLP.part.hbond>
-4.6644

> <Gold.PLP.part.metal>
0.0000

> <Gold.PLP.part.buried>
-0.2624

> <Gold.PLP.part.nonpolar>
-38.2419

> <Gold.PLP.part.repulsive>
0.0997

> <Gold.PLP.ligand.clash>
0.0000

> <Gold.PLP.ligand.torsion>
1.2228

> <Gold.PLP.Chemscore.Hbond>
3.3549

> <Gold.PLP.Chemscore.CHOScore>
1.0660

> <Gold.PLP.Chemscore.Metal>
0.0000

> <Gold.Chemscore.Hbonds>
donor molecule, donor type, donor heavy atom, donor atom, acceptor molecule, acceptor atom, score
      L1  H     9    34       P1  8028  2.00
      L1  H    12    38       P1  8028  1.00
      P1  H  8011  8017       L1    12  0.15
      P1  H 10752 10765       L1    16  0.16
      L1  C    17    41       P1  7948  0.43
      L1  C    17    41       P1  7949  0.65

> <Gold.PLP.Chemscore.Internal.Correction>
0.1201

> <Gold.Rescore>
     Score         DG    S(hbond)    S(metal)    S(lipo)     H(rot)  DE(clash)    DE(int)     intcor
     21.93     -23.80       2.43        0.00     131.91       2.05       0.53       1.34       ----

> <Gold.Chemscore.Fitness>
21.9321

> <Gold.Chemscore.DG>
-23.7961

> <Gold.Chemscore.ZeroCoef>
-5.4800

> <Gold.Chemscore.Hbond>
2.4343

> <Gold.Chemscore.Metal>
0.0000

> <Gold.Chemscore.Lipo>
131.9053

> <Gold.Chemscore.Internal_Hbond>
0.0000

> <Gold.Chemscore.DEClash>
0.5253

> <Gold.Chemscore.DEInternal>
1.3387

> <Gold.Chemscore.Rot>
2.0498

> <Gold.Chemscore.Internal.Correction>
   9.000000E+99

> <Gold.Chemscore.Hbonds>
donor molecule, donor type, donor heavy atom, donor atom, acceptor molecule, acceptor atom, score
      L1  H     9    34       P1  8028  0.92
      L1  H    12    38       P1  8028  0.99
      P1  H  8011  8017       L1    12  0.15
      P1  H 10752 10765       L1    16  0.06

> <Gold.Chemscore.Hbond.Weighted>
-8.1307

> <Gold.Chemscore.Metal.Weighted>
-0.0000

> <Gold.Chemscore.Lipo.Weighted>
-15.4329

> <Gold.Chemscore.Internal_Hbond.Weighted>
0.0000

> <Gold.Chemscore.DEClash.Weighted>
0.5253

> <Gold.Chemscore.DEInternal.Weighted>
1.3387

> <Gold.Chemscore.Rot.Weighted>
5.2475

> <Gold.Chemscore.Internal.Correction.Weighted>
   9.000000E+99

> <Gold.Protein.RotatedTorsions>
[ 6907 6896 6895 6894 ] final  122.92 input  -60.11 | X-H torsion
[ 7974 7965 7964 7962 ] final -134.14 input  175.53 | X-H torsion
[ 8008 7997 7996 7995 ] final   27.36 input   59.86 | X-H torsion
[ 10167 10162 10161 10158 ] final   73.84 input  -65.29 | X-H torsion
[ 10718 10713 10712 10709 ] final   75.76 input   66.30 | X-H torsion
[ 10763 10752 10751 10750 ] final  168.50 input  -60.55 | X-H torsion
[ 11005 11000 10999 10996 ] final -145.60 input  -57.11 | X-H torsion

> <Gold.Protein.ActiveResidues>
 VAL166  LYS551  ARG553  GLY616  TRP617  ASP618  TYR619  PRO620  LYS621  CYS622 
 ASP623  PHE694  ASN695  SER759  ASP760  ASP761  ALA762  ILE779  LEU786  VAL792 
 PHE793  MET794  SER795  GLU796  ALA797  LYS798  CYS799  TRP800  GLU811  SER814 

> <Gold.Protein.RotatedAtoms>
  152.4204  133.7106  159.6476 H   0  0  0  0  0  0  0  0  0  0  0  0  # atno 6907 bound_to 6896
  150.8080  133.8464  159.3202 H   0  0  0  0  0  0  0  0  0  0  0  0  # atno 6908 bound_to 6896
  151.6182  135.1036  160.0147 H   0  0  0  0  0  0  0  0  0  0  0  0  # atno 6909 bound_to 6896
  144.9129  140.6918  143.5013 H   0  0  0  0  0  0  0  0  0  0  0  0  # atno 7974 bound_to 7965
  155.0418  140.3170  155.4722 H   0  0  0  0  0  0  0  0  0  0  0  0  # atno 8008 bound_to 7997
  156.2853  140.2162  156.5485 H   0  0  0  0  0  0  0  0  0  0  0  0  # atno 8009 bound_to 7997
  154.7284  140.0483  157.0691 H   0  0  0  0  0  0  0  0  0  0  0  0  # atno 8010 bound_to 7997
  140.0201  144.5547  150.7589 H   0  0  0  0  0  0  0  0  0  0  0  0  # atno 10167 bound_to 10162
  157.6647  130.9742  150.1400 H   0  0  0  0  0  0  0  0  0  0  0  0  # atno 10718 bound_to 10713
  154.3695  135.2753  155.2274 H   0  0  0  0  0  0  0  0  0  0  0  0  # atno 10763 bound_to 10752
  154.4428  135.5950  153.6144 H   0  0  0  0  0  0  0  0  0  0  0  0  # atno 10764 bound_to 10752
  152.9839  135.6023  154.3924 H   0  0  0  0  0  0  0  0  0  0  0  0  # atno 10765 bound_to 10752
  140.7905  134.2973  157.5015 H   0  0  0  0  0  0  0  0  0  0  0  0  # atno 11005 bound_to 11000
  145.3424  139.1728  143.4479 LP  0  0  0  0  0  0  0  0  0  0  0  0  # atno 17320 bound_to 7965
  146.3167  140.3466  142.8652 LP  0  0  0  0  0  0  0  0  0  0  0  0  # atno 17321 bound_to 7965
  140.7346  143.2731  151.3827 LP  0  0  0  0  0  0  0  0  0  0  0  0  # atno 17342 bound_to 10162
  139.6146  144.1030  152.2332 LP  0  0  0  0  0  0  0  0  0  0  0  0  # atno 17343 bound_to 10162
  156.2225  130.3675  149.8539 LP  0  0  0  0  0  0  0  0  0  0  0  0  # atno 17370 bound_to 10713
  156.6388  130.8696  151.3510 LP  0  0  0  0  0  0  0  0  0  0  0  0  # atno 17371 bound_to 10713
  139.8732  134.9372  156.3681 LP  0  0  0  0  0  0  0  0  0  0  0  0  # atno 17394 bound_to 11000
  140.9394  133.7525  156.0126 LP  0  0  0  0  0  0  0  0  0  0  0  0  # atno 17395 bound_to 11000

$$$$
