AV-unprocessed.smi:2880|AV-procd|sdf|11054|dock10
  -GOLD-   2272015523D 1   1.00000     0.00000
 Structure written by MMmdl.
 47 48  0  0  0  0  0  0  0  0  1 V2000
  150.7325  142.3383  156.5565 C   0  0  0  0  0  0  0  0  0  0  0  0
  150.5867  140.8039  156.5535 C   0  0  0  0  0  0  0  0  0  0  0  0
  151.9865  140.1802  156.3394 C   0  0  0  0  0  0  0  0  0  0  0  0
  150.0432  140.3294  157.9151 C   0  0  0  0  0  0  0  0  0  0  0  0
  149.6383  140.4164  155.5006 N   0  0  0  0  0  0  0  0  0  0  0  0
  148.8579  141.2461  154.7128 C   0  0  0  0  0  0  0  0  0  0  0  0
  148.1227  140.4631  153.8695 C   0  0  0  0  0  0  0  0  0  0  0  0
  148.5221  139.1458  154.2192 C   0  0  0  0  0  0  0  0  0  0  0  0
  147.9753  138.0211  153.5507 N   0  0  0  0  0  0  0  0  0  0  0  0
  146.8536  137.3485  153.8598 C   0  0  0  0  0  0  0  0  0  0  0  0
  146.0881  137.6330  154.7817 O   0  0  0  0  0  0  0  0  0  0  0  0
  146.6718  136.3083  153.0325 N   0  0  0  0  0  0  0  0  0  0  0  0
  145.5801  135.3374  153.0994 C   0  0  1  0  0  0  0  0  0  0  0  0
  144.2418  136.1028  153.0920 C   0  0  0  0  0  0  0  0  0  0  0  0
  143.0410  135.1476  153.1265 C   0  0  0  0  0  0  0  0  0  0  0  0
  143.1047  134.1511  151.9626 C   0  0  0  0  0  0  0  0  0  0  0  0
  144.4312  133.3770  151.9737 C   0  0  0  0  0  0  0  0  0  0  0  0
  145.6566  134.3159  151.9295 C   0  0  2  0  0  0  0  0  0  0  0  0
  146.9573  133.4793  151.9232 C   0  0  0  0  0  0  0  0  0  0  0  0
  147.0201  132.6088  150.8118 O   0  0  0  0  0  0  0  0  0  0  0  0
  149.4214  139.1151  155.1911 N   0  0  0  0  0  0  0  0  0  0  0  0
  151.4377  142.6673  157.3204 H   0  0  0  0  0  0  0  0  0  0  0  0
  149.7833  142.8360  156.7571 H   0  0  0  0  0  0  0  0  0  0  0  0
  151.0974  142.7014  155.5949 H   0  0  0  0  0  0  0  0  0  0  0  0
  152.4246  140.4902  155.3899 H   0  0  0  0  0  0  0  0  0  0  0  0
  151.9484  139.0900  156.3489 H   0  0  0  0  0  0  0  0  0  0  0  0
  152.6773  140.4841  157.1267 H   0  0  0  0  0  0  0  0  0  0  0  0
  150.7245  140.5891  158.7261 H   0  0  0  0  0  0  0  0  0  0  0  0
  149.9107  139.2469  157.9317 H   0  0  0  0  0  0  0  0  0  0  0  0
  149.0782  140.7815  158.1460 H   0  0  0  0  0  0  0  0  0  0  0  0
  148.8899  142.3206  154.8156 H   0  0  0  0  0  0  0  0  0  0  0  0
  147.4130  140.7843  153.1219 H   0  0  0  0  0  0  0  0  0  0  0  0
  148.5063  137.6783  152.7638 H   0  0  0  0  0  0  0  0  0  0  0  0
  147.3605  136.1575  152.3102 H   0  0  0  0  0  0  0  0  0  0  0  0
  145.6348  134.7786  154.0356 H   0  0  0  0  0  0  0  0  0  0  0  0
  144.1935  136.7791  153.9465 H   0  0  0  0  0  0  0  0  0  0  0  0
  144.1789  136.7281  152.2000 H   0  0  0  0  0  0  0  0  0  0  0  0
  143.0285  134.6068  154.0737 H   0  0  0  0  0  0  0  0  0  0  0  0
  142.1112  135.7151  153.0812 H   0  0  0  0  0  0  0  0  0  0  0  0
  142.2670  133.4555  152.0220 H   0  0  0  0  0  0  0  0  0  0  0  0
  142.9986  134.6832  151.0164 H   0  0  0  0  0  0  0  0  0  0  0  0
  144.4790  132.7532  152.8675 H   0  0  0  0  0  0  0  0  0  0  0  0
  144.4527  132.6955  151.1225 H   0  0  0  0  0  0  0  0  0  0  0  0
  145.6029  134.8635  150.9868 H   0  0  0  0  0  0  0  0  0  0  0  0
  147.8353  134.1261  151.9325 H   0  0  0  0  0  0  0  0  0  0  0  0
  147.0142  132.8563  152.8161 H   0  0  0  0  0  0  0  0  0  0  0  0
  147.8782  132.2133  150.7889 H   0  0  0  0  0  0  0  0  0  0  0  0
  1  2  1  0  0  0  0
  1 22  1  0  0  0  0
  1 23  1  0  0  0  0
  1 24  1  0  0  0  0
  2  3  1  0  0  0  0
  2  4  1  0  0  0  0
  2  5  1  0  0  0  0
  3 25  1  0  0  0  0
  3 26  1  0  0  0  0
  3 27  1  0  0  0  0
  4 28  1  0  0  0  0
  4 29  1  0  0  0  0
  4 30  1  0  0  0  0
  5 21  1  0  0  0  0
  5  6  1  0  0  0  0
  6  7  2  0  0  0  0
  6 31  1  0  0  0  0
  7  8  1  0  0  0  0
  7 32  1  0  0  0  0
  8  9  1  0  0  0  0
  8 21  2  0  0  0  0
  9 10  1  0  0  0  0
  9 33  1  0  0  0  0
 10 11  2  0  0  0  0
 10 12  1  0  0  0  0
 12 13  1  0  0  0  0
 12 34  1  0  0  0  0
 13 18  1  0  0  0  0
 13 14  1  0  0  0  0
 13 35  1  0  0  0  0
 14 15  1  0  0  0  0
 14 36  1  0  0  0  0
 14 37  1  0  0  0  0
 15 16  1  0  0  0  0
 15 38  1  0  0  0  0
 15 39  1  0  0  0  0
 16 17  1  0  0  0  0
 16 40  1  0  0  0  0
 16 41  1  0  0  0  0
 17 18  1  0  0  0  0
 17 42  1  0  0  0  0
 17 43  1  0  0  0  0
 18 19  1  0  0  0  0
 18 44  1  0  0  0  0
 19 20  1  0  0  0  0
 19 45  1  0  0  0  0
 19 46  1  0  0  0  0
 20 47  1  0  0  0  0
M  END
> <s_m_source_file>
AV-unprocessed.smi

> <i_m_source_file_index>
2880

> <i_lp_mmshare_version>
43012

> <i_f3d_flags>
0

> <s_epik_input>
W0NIM11DKFtDSDNdKShbQ0gzXSluMVtjSF1bY0hdYyhuMSlbTkhdQyg9TylbTkhdW0NAQEhdMltDSDJdW0NIMl1bQ0gyXVtDSDJdW0NASF0yW0NIMl1bT0hd

> <s_epik_cmdline>
J2VwaWtfcHl0aG9uJywgJy1waCcsICc3LjAnLCAnLXRuJywgJzgnLCAnLW1hJywgJzIwMCcsICctbWV0YWxfYmluZGluZycsICctaW1hZScsICc8aW5maWxlLm1hZT4nLCAnLW9tYWUnLCAnPG91dGZpbGUubWFlPic=

> <r_lp_tautomer_probability>
1

> <r_epik_Ionization_Penalty>
3.89283e-05

> <r_epik_Ionization_Penalty_Charging>
0

> <r_epik_Ionization_Penalty_Neutral>
3.89283e-05

> <r_epik_State_Penalty>
-0

> <r_epik_Charging_Adjusted_Penalty>
0

> <i_epik_Tot_Q>
0

> <i_epik_Tot_abs_Q>
0

> <r_epik_Metal_State_Penalty>
-0

> <b_epik_Metal_Only>
0

> <s_lp_Force_Field>
OPLS_2005

> <r_lp_Energy>
21.9333

> <b_lp_Chiralities_Consistent>
1

> <s_lp_Variant>
AV-unprocessed.smi:2880-4

> <Gold.Version>
5.8.1

> <Gold.Id.Protein>
6NUR|6NUR_protein|mol2

> <Gold.PLP.Fitness>
39.6706

> <Gold.PLP.PLP>
-29.8137

> <Gold.PLP.part.hbond>
-3.0000

> <Gold.PLP.part.metal>
0.0000

> <Gold.PLP.part.buried>
-2.5212

> <Gold.PLP.part.nonpolar>
-25.0564

> <Gold.PLP.part.repulsive>
0.1705

> <Gold.PLP.ligand.clash>
0.0000

> <Gold.PLP.ligand.torsion>
0.9083

> <Gold.PLP.Chemscore.Hbond>
2.8880

> <Gold.PLP.Chemscore.CHOScore>
1.0000

> <Gold.PLP.Chemscore.Metal>
0.0000

> <Gold.Chemscore.Hbonds>
donor molecule, donor type, donor heavy atom, donor atom, acceptor molecule, acceptor atom, score
      L1  H     9    33       P1  7948  0.91
      L1  H    12    34       P1  7948  0.98
      L1  H    20    47       P1 10747  1.00
      L1  C     6    31       P1  8028  1.00

> <Gold.PLP.Chemscore.Internal.Correction>
0.0094

> <Gold.Rescore>
     Score         DG    S(hbond)    S(metal)    S(lipo)     H(rot)  DE(clash)    DE(int)     intcor
     15.86     -17.90       2.88        0.00      67.06       1.97       0.02       2.02       ----

> <Gold.Chemscore.Fitness>
15.8619

> <Gold.Chemscore.DG>
-17.9012

> <Gold.Chemscore.ZeroCoef>
-5.4800

> <Gold.Chemscore.Hbond>
2.8775

> <Gold.Chemscore.Metal>
0.0000

> <Gold.Chemscore.Lipo>
67.0645

> <Gold.Chemscore.Internal_Hbond>
0.0000

> <Gold.Chemscore.DEClash>
0.0212

> <Gold.Chemscore.DEInternal>
2.0180

> <Gold.Chemscore.Rot>
1.9672

> <Gold.Chemscore.Internal.Correction>
   9.000000E+99

> <Gold.Chemscore.Hbonds>
donor molecule, donor type, donor heavy atom, donor atom, acceptor molecule, acceptor atom, score
      L1  H     9    33       P1  7948  0.90
      L1  H    12    34       P1  7948  0.93
      L1  H    20    47       P1 10747  0.95

> <Gold.Chemscore.Hbond.Weighted>
-9.6107

> <Gold.Chemscore.Metal.Weighted>
-0.0000

> <Gold.Chemscore.Lipo.Weighted>
-7.8465

> <Gold.Chemscore.Internal_Hbond.Weighted>
0.0000

> <Gold.Chemscore.DEClash.Weighted>
0.0212

> <Gold.Chemscore.DEInternal.Weighted>
2.0180

> <Gold.Chemscore.Rot.Weighted>
5.0360

> <Gold.Chemscore.Internal.Correction.Weighted>
   9.000000E+99

> <Gold.Protein.RotatedTorsions>
[ 6907 6896 6895 6894 ] final  -32.70 input  -60.11 | X-H torsion
[ 7974 7965 7964 7962 ] final   30.80 input  175.53 | X-H torsion
[ 8008 7997 7996 7995 ] final  -48.71 input   59.86 | X-H torsion
[ 10167 10162 10161 10158 ] final  -32.97 input  -65.29 | X-H torsion
[ 10718 10713 10712 10709 ] final -101.55 input   66.30 | X-H torsion
[ 10763 10752 10751 10750 ] final   61.11 input  -60.55 | X-H torsion
[ 11005 11000 10999 10996 ] final  162.76 input  -57.11 | X-H torsion

> <Gold.Protein.ActiveResidues>
 VAL166  LYS551  ARG553  GLY616  TRP617  ASP618  TYR619  PRO620  LYS621  CYS622 
 ASP623  PHE694  ASN695  SER759  ASP760  ASP761  ALA762  ILE779  LEU786  VAL792 
 PHE793  MET794  SER795  GLU796  ALA797  LYS798  CYS799  TRP800  GLU811  SER814 

> <Gold.Protein.RotatedAtoms>
  151.0752  134.9824  159.8328 H   0  0  0  0  0  0  0  0  0  0  0  0  # atno 6907 bound_to 6896
  152.5413  134.2249  159.8812 H   0  0  0  0  0  0  0  0  0  0  0  0  # atno 6908 bound_to 6896
  151.2276  133.4424  159.2636 H   0  0  0  0  0  0  0  0  0  0  0  0  # atno 6909 bound_to 6896
  146.1590  139.6741  142.9047 H   0  0  0  0  0  0  0  0  0  0  0  0  # atno 7974 bound_to 7965
  154.4033  140.1315  156.4383 H   0  0  0  0  0  0  0  0  0  0  0  0  # atno 8008 bound_to 7997
  155.7484  140.3488  155.5118 H   0  0  0  0  0  0  0  0  0  0  0  0  # atno 8009 bound_to 7997
  155.8973  140.1013  157.1365 H   0  0  0  0  0  0  0  0  0  0  0  0  # atno 8010 bound_to 7997
  140.7212  143.3655  151.1879 H   0  0  0  0  0  0  0  0  0  0  0  0  # atno 10167 bound_to 10162
  156.0198  130.5378  150.6979 H   0  0  0  0  0  0  0  0  0  0  0  0  # atno 10718 bound_to 10713
  152.9940  135.5512  154.5981 H   0  0  0  0  0  0  0  0  0  0  0  0  # atno 10763 bound_to 10752
  154.5328  135.2814  155.1167 H   0  0  0  0  0  0  0  0  0  0  0  0  # atno 10764 bound_to 10752
  154.2475  135.6405  153.5281 H   0  0  0  0  0  0  0  0  0  0  0  0  # atno 10765 bound_to 10752
  140.2289  134.8139  157.3297 H   0  0  0  0  0  0  0  0  0  0  0  0  # atno 11005 bound_to 11000
  145.4637  141.0434  143.2737 LP  0  0  0  0  0  0  0  0  0  0  0  0  # atno 17320 bound_to 7965
  144.8001  139.6157  143.7075 LP  0  0  0  0  0  0  0  0  0  0  0  0  # atno 17321 bound_to 7965
  139.7216  143.9214  152.2987 LP  0  0  0  0  0  0  0  0  0  0  0  0  # atno 17342 bound_to 10162
  139.8973  144.6932  150.8704 LP  0  0  0  0  0  0  0  0  0  0  0  0  # atno 17343 bound_to 10162
  157.4646  131.0887  151.0709 LP  0  0  0  0  0  0  0  0  0  0  0  0  # atno 17370 bound_to 10713
  157.1187  130.6052  149.5499 LP  0  0  0  0  0  0  0  0  0  0  0  0  # atno 17371 bound_to 10713
  140.1771  134.4536  155.7795 LP  0  0  0  0  0  0  0  0  0  0  0  0  # atno 17394 bound_to 11000
  141.2219  133.6967  156.7806 LP  0  0  0  0  0  0  0  0  0  0  0  0  # atno 17395 bound_to 11000

$$$$
