AV-unprocessed.smi:1130|AV-procd|sdf|4849|dock4
  -GOLD-   22720 3413D 1   1.00000     0.00000
 Structure written by MMmdl.
 36 37  0  0  0  0  0  0  0  0  1 V2000
  148.0104  141.2730  154.0469 C   0  0  0  0  0  0  0  0  0  0  0  0
  149.2454  140.5093  154.3843 C   0  0  0  0  0  0  0  0  0  0  0  0
  150.2791  141.0924  154.9791 N   0  0  0  0  0  0  0  0  0  0  0  0
  151.2019  140.0461  155.1220 O   0  0  0  0  0  0  0  0  0  0  0  0
  150.6130  138.9565  154.5729 C   0  0  0  0  0  0  0  0  0  0  0  0
  151.3315  137.6500  154.6147 C   0  0  0  0  0  0  0  0  0  0  0  0
  150.5102  136.5540  155.3132 C   0  0  0  0  0  0  0  0  0  0  0  0
  149.6724  135.8205  154.3712 N   0  0  0  0  0  0  0  0  0  0  0  0
  149.0497  134.6644  154.6392 C   0  0  0  0  0  0  0  0  0  0  0  0
  149.1070  134.0870  155.7251 O   0  0  0  0  0  0  0  0  0  0  0  0
  148.3565  134.2158  153.5835 N   0  0  0  0  0  0  0  0  0  0  0  0
  147.5500  133.0005  153.5679 C   0  0  0  0  0  0  0  0  0  0  0  0
  146.9347  132.7534  152.1812 C   0  0  1  0  0  0  0  0  0  0  0  0
  146.1463  131.4494  152.0858 C   0  0  0  0  0  0  0  0  0  0  0  0
  145.2332  131.7329  150.9150 C   0  0  0  0  0  0  0  0  0  0  0  0
  144.8929  133.2057  151.1284 C   0  0  0  0  0  0  0  0  0  0  0  0
  145.9883  133.7660  151.8484 O   0  0  0  0  0  0  0  0  0  0  0  0
  149.3853  139.1831  154.1122 N   0  0  0  0  0  0  0  0  0  0  0  0
  148.0774  142.3015  154.4030 H   0  0  0  0  0  0  0  0  0  0  0  0
  147.1406  140.8054  154.5085 H   0  0  0  0  0  0  0  0  0  0  0  0
  147.8629  141.2907  152.9669 H   0  0  0  0  0  0  0  0  0  0  0  0
  151.5698  137.3554  153.5920 H   0  0  0  0  0  0  0  0  0  0  0  0
  152.2830  137.7929  155.1286 H   0  0  0  0  0  0  0  0  0  0  0  0
  151.1787  135.8412  155.7967 H   0  0  0  0  0  0  0  0  0  0  0  0
  149.8921  136.9854  156.1027 H   0  0  0  0  0  0  0  0  0  0  0  0
  149.5649  136.2182  153.4495 H   0  0  0  0  0  0  0  0  0  0  0  0
  148.3734  134.7618  152.7346 H   0  0  0  0  0  0  0  0  0  0  0  0
  148.2033  132.1683  153.8304 H   0  0  0  0  0  0  0  0  0  0  0  0
  146.7735  133.0354  154.3340 H   0  0  0  0  0  0  0  0  0  0  0  0
  147.7130  132.7543  151.4161 H   0  0  0  0  0  0  0  0  0  0  0  0
  146.7821  130.5772  151.9322 H   0  0  0  0  0  0  0  0  0  0  0  0
  145.5556  131.2883  152.9889 H   0  0  0  0  0  0  0  0  0  0  0  0
  145.7779  131.6044  149.9786 H   0  0  0  0  0  0  0  0  0  0  0  0
  144.3523  131.0910  150.8898 H   0  0  0  0  0  0  0  0  0  0  0  0
  144.7266  133.7305  150.1874 H   0  0  0  0  0  0  0  0  0  0  0  0
  143.9929  133.3077  151.7356 H   0  0  0  0  0  0  0  0  0  0  0  0
  1  2  1  0  0  0  0
  1 19  1  0  0  0  0
  1 20  1  0  0  0  0
  1 21  1  0  0  0  0
  2 18  1  0  0  0  0
  2  3  2  0  0  0  0
  3  4  1  0  0  0  0
  4  5  1  0  0  0  0
  5  6  1  0  0  0  0
  5 18  2  0  0  0  0
  6  7  1  0  0  0  0
  6 22  1  0  0  0  0
  6 23  1  0  0  0  0
  7  8  1  0  0  0  0
  7 24  1  0  0  0  0
  7 25  1  0  0  0  0
  8  9  1  0  0  0  0
  8 26  1  0  0  0  0
  9 10  2  0  0  0  0
  9 11  1  0  0  0  0
 11 12  1  0  0  0  0
 11 27  1  0  0  0  0
 12 13  1  0  0  0  0
 12 28  1  0  0  0  0
 12 29  1  0  0  0  0
 13 17  1  0  0  0  0
 13 14  1  0  0  0  0
 13 30  1  0  0  0  0
 14 15  1  0  0  0  0
 14 31  1  0  0  0  0
 14 32  1  0  0  0  0
 15 16  1  0  0  0  0
 15 33  1  0  0  0  0
 15 34  1  0  0  0  0
 16 17  1  0  0  0  0
 16 35  1  0  0  0  0
 16 36  1  0  0  0  0
M  END
> <s_m_source_file>
AV-unprocessed.smi

> <i_m_source_file_index>
1130

> <i_lp_mmshare_version>
43012

> <i_f3d_flags>
0

> <s_epik_input>
W0NIM11jMW5vYyhuMSlbQ0gyXVtDSDJdW05IXUMoPU8pW05IXVtDSDJdW0NAQEhdMltDSDJdW0NIMl1bQ0gyXU8y

> <s_epik_cmdline>
J2VwaWtfcHl0aG9uJywgJy1waCcsICc3LjAnLCAnLXRuJywgJzgnLCAnLW1hJywgJzIwMCcsICctbWV0YWxfYmluZGluZycsICctaW1hZScsICc8aW5maWxlLm1hZT4nLCAnLW9tYWUnLCAnPG91dGZpbGUubWFlPic=

> <r_lp_tautomer_probability>
1

> <r_epik_Ionization_Penalty>
4.67036e-05

> <r_epik_Ionization_Penalty_Charging>
0

> <r_epik_Ionization_Penalty_Neutral>
4.67036e-05

> <r_epik_State_Penalty>
-0

> <r_epik_Charging_Adjusted_Penalty>
0

> <i_epik_Tot_Q>
0

> <i_epik_Tot_abs_Q>
0

> <r_epik_Metal_State_Penalty>
-0

> <b_epik_Metal_Only>
0

> <s_lp_Force_Field>
OPLS_2005

> <r_lp_Energy>
9.65739

> <b_lp_Chiralities_Consistent>
1

> <s_lp_Variant>
AV-unprocessed.smi:1130-2

> <Gold.Version>
5.8.1

> <Gold.Id.Protein>
6NUR|6NUR_protein|mol2

> <Gold.PLP.Fitness>
36.7715

> <Gold.PLP.PLP>
-31.3314

> <Gold.PLP.part.hbond>
-4.1970

> <Gold.PLP.part.metal>
0.0000

> <Gold.PLP.part.buried>
-3.7721

> <Gold.PLP.part.nonpolar>
-23.6808

> <Gold.PLP.part.repulsive>
0.7995

> <Gold.PLP.ligand.clash>
0.0000

> <Gold.PLP.ligand.torsion>
0.3091

> <Gold.PLP.Chemscore.Hbond>
2.0000

> <Gold.PLP.Chemscore.CHOScore>
0.0000

> <Gold.PLP.Chemscore.Metal>
0.0000

> <Gold.Chemscore.Hbonds>
donor molecule, donor type, donor heavy atom, donor atom, acceptor molecule, acceptor atom, score
      L1  H     8    26       P1  7948  1.00
      L1  H    11    27       P1  7948  0.99

> <Gold.PLP.Chemscore.Internal.Correction>
0.0584

> <Gold.Rescore>
     Score         DG    S(hbond)    S(metal)    S(lipo)     H(rot)  DE(clash)    DE(int)     intcor
     11.45     -11.72       1.79        0.00      53.21       2.33       0.00       0.27       ----

> <Gold.Chemscore.Fitness>
11.4492

> <Gold.Chemscore.DG>
-11.7194

> <Gold.Chemscore.ZeroCoef>
-5.4800

> <Gold.Chemscore.Hbond>
1.7892

> <Gold.Chemscore.Metal>
0.0000

> <Gold.Chemscore.Lipo>
53.2071

> <Gold.Chemscore.Internal_Hbond>
0.0000

> <Gold.Chemscore.DEClash>
0.0038

> <Gold.Chemscore.DEInternal>
0.2665

> <Gold.Chemscore.Rot>
2.3288

> <Gold.Chemscore.Internal.Correction>
   9.000000E+99

> <Gold.Chemscore.Hbonds>
donor molecule, donor type, donor heavy atom, donor atom, acceptor molecule, acceptor atom, score
      L1  H     8    26       P1  7948  0.44
      L1  H    11    27       P1  7948  0.42

> <Gold.Chemscore.Hbond.Weighted>
-5.9759

> <Gold.Chemscore.Metal.Weighted>
-0.0000

> <Gold.Chemscore.Lipo.Weighted>
-6.2252

> <Gold.Chemscore.Internal_Hbond.Weighted>
0.0000

> <Gold.Chemscore.DEClash.Weighted>
0.0038

> <Gold.Chemscore.DEInternal.Weighted>
0.2665

> <Gold.Chemscore.Rot.Weighted>
5.9617

> <Gold.Chemscore.Internal.Correction.Weighted>
   9.000000E+99

> <Gold.Protein.RotatedTorsions>
[ 6907 6896 6895 6894 ] final -148.07 input  -60.11 | X-H torsion
[ 7974 7965 7964 7962 ] final -141.93 input  175.53 | X-H torsion
[ 8008 7997 7996 7995 ] final   72.58 input   59.86 | X-H torsion
[ 10167 10162 10161 10158 ] final  156.32 input  -65.29 | X-H torsion
[ 10718 10713 10712 10709 ] final   70.58 input   66.30 | X-H torsion
[ 10763 10752 10751 10750 ] final  133.09 input  -60.55 | X-H torsion
[ 11005 11000 10999 10996 ] final  -29.51 input  -57.11 | X-H torsion

> <Gold.Protein.ActiveResidues>
 VAL166  LYS551  ARG553  GLY616  TRP617  ASP618  TYR619  PRO620  LYS621  CYS622 
 ASP623  PHE694  ASN695  SER759  ASP760  ASP761  ALA762  ILE779  LEU786  VAL792 
 PHE793  MET794  SER795  GLU796  ALA797  LYS798  CYS799  TRP800  GLU811  SER814 

> <Gold.Protein.RotatedAtoms>
  151.1646  133.4823  159.2593 H   0  0  0  0  0  0  0  0  0  0  0  0  # atno 6907 bound_to 6896
  151.1419  135.0183  159.8639 H   0  0  0  0  0  0  0  0  0  0  0  0  # atno 6908 bound_to 6896
  152.5462  134.1539  159.8583 H   0  0  0  0  0  0  0  0  0  0  0  0  # atno 6909 bound_to 6896
  144.8482  140.6020  143.5407 H   0  0  0  0  0  0  0  0  0  0  0  0  # atno 7974 bound_to 7965
  155.7709  140.3484  155.5246 H   0  0  0  0  0  0  0  0  0  0  0  0  # atno 8008 bound_to 7997
  155.8823  140.1004  157.1498 H   0  0  0  0  0  0  0  0  0  0  0  0  # atno 8009 bound_to 7997
  154.4026  140.1320  156.4198 H   0  0  0  0  0  0  0  0  0  0  0  0  # atno 8010 bound_to 7997
  139.4821  144.5020  151.8155 H   0  0  0  0  0  0  0  0  0  0  0  0  # atno 10167 bound_to 10162
  157.6407  130.9484  150.0670 H   0  0  0  0  0  0  0  0  0  0  0  0  # atno 10718 bound_to 10713
  153.8014  135.3141  155.3390 H   0  0  0  0  0  0  0  0  0  0  0  0  # atno 10763 bound_to 10752
  154.8087  135.4681  154.0463 H   0  0  0  0  0  0  0  0  0  0  0  0  # atno 10764 bound_to 10752
  153.1812  135.6894  153.8563 H   0  0  0  0  0  0  0  0  0  0  0  0  # atno 10765 bound_to 10752
  140.9302  133.7343  156.0926 H   0  0  0  0  0  0  0  0  0  0  0  0  # atno 11005 bound_to 11000
  145.4554  139.1519  143.3896 LP  0  0  0  0  0  0  0  0  0  0  0  0  # atno 17320 bound_to 7965
  146.2762  140.4681  142.8794 LP  0  0  0  0  0  0  0  0  0  0  0  0  # atno 17321 bound_to 7965
  140.4514  144.1850  150.5898 LP  0  0  0  0  0  0  0  0  0  0  0  0  # atno 17342 bound_to 10162
  140.4581  143.2459  151.9257 LP  0  0  0  0  0  0  0  0  0  0  0  0  # atno 17343 bound_to 10162
  156.1686  130.3646  149.9197 LP  0  0  0  0  0  0  0  0  0  0  0  0  # atno 17370 bound_to 10713
  156.7178  130.8995  151.3615 LP  0  0  0  0  0  0  0  0  0  0  0  0  # atno 17371 bound_to 10713
  140.7872  134.3658  157.5473 LP  0  0  0  0  0  0  0  0  0  0  0  0  # atno 17394 bound_to 11000
  139.8795  134.9118  156.3045 LP  0  0  0  0  0  0  0  0  0  0  0  0  # atno 17395 bound_to 11000

$$$$
