AV-unprocessed.smi:1560|AV-procd|sdf|6276|dock9
  -GOLD-   22720 6473D 1   1.00000     0.00000
 Structure written by MMmdl.
 47 48  0  0  0  0  0  0  0  0  1 V2000
  147.2733  141.9794  154.4673 C   0  0  0  0  0  0  0  0  0  0  0  0
  148.6158  141.3119  154.1181 C   0  0  0  0  0  0  0  0  0  0  0  0
  149.1284  140.2501  155.1436 C   0  0  2  0  0  0  0  0  0  0  0  0
  150.1386  139.3531  154.3759 C   0  0  0  0  0  0  0  0  0  0  0  0
  147.9160  139.3657  155.5741 C   0  0  0  0  0  0  0  0  0  0  0  0
  147.3404  138.6287  154.4545 N   0  0  0  0  0  0  0  0  0  0  0  0
  146.2121  137.9019  154.4785 C   0  0  0  0  0  0  0  0  0  0  0  0
  145.5382  137.7461  155.4960 O   0  0  0  0  0  0  0  0  0  0  0  0
  145.7552  137.2451  153.1638 C   0  0  0  0  0  0  0  0  0  0  0  0
  144.5056  136.4720  153.2700 N   0  0  0  0  0  0  0  0  0  0  0  0
  143.3330  136.9623  152.7125 C   0  0  0  0  0  0  0  0  0  0  0  0
  142.1423  136.3236  152.7987 C   0  0  0  0  0  0  0  0  0  0  0  0
  142.0357  135.0515  153.5048 C   0  0  0  0  0  0  0  0  0  0  0  0
  141.0029  134.3996  153.6398 O   0  0  0  0  0  0  0  0  0  0  0  0
  143.2366  134.5903  154.0506 N   0  0  0  0  0  0  0  0  0  0  0  0
  144.4674  135.2427  153.9646 C   0  0  0  0  0  0  0  0  0  0  0  0
  145.4648  134.7531  154.4926 O   0  0  0  0  0  0  0  0  0  0  0  0
  149.7882  140.9042  156.3091 N   0  0  0  0  0  0  0  0  0  0  0  0
  150.7130  141.9935  155.9740 C   0  0  0  0  0  0  0  0  0  0  0  0
  151.2400  142.7083  157.2299 C   0  0  0  0  0  0  0  0  0  0  0  0
  151.8702  141.7666  158.0896 O   0  0  0  0  0  0  0  0  0  0  0  0
  150.9924  140.7191  158.4848 C   0  0  0  0  0  0  0  0  0  0  0  0
  150.4620  139.9892  157.2390 C   0  0  0  0  0  0  0  0  0  0  0  0
  143.2109  133.7126  154.5495 H   0  0  0  0  0  0  0  0  0  0  0  0
  146.9948  142.6992  153.6976 H   0  0  0  0  0  0  0  0  0  0  0  0
  147.3234  142.5204  155.4115 H   0  0  0  0  0  0  0  0  0  0  0  0
  146.4648  141.2521  154.5391 H   0  0  0  0  0  0  0  0  0  0  0  0
  148.5413  140.8720  153.1237 H   0  0  0  0  0  0  0  0  0  0  0  0
  149.3522  142.1082  154.0049 H   0  0  0  0  0  0  0  0  0  0  0  0
  149.7638  139.0560  153.3955 H   0  0  0  0  0  0  0  0  0  0  0  0
  150.3546  138.4300  154.9141 H   0  0  0  0  0  0  0  0  0  0  0  0
  151.0880  139.8639  154.2131 H   0  0  0  0  0  0  0  0  0  0  0  0
  148.2103  138.6299  156.3221 H   0  0  0  0  0  0  0  0  0  0  0  0
  147.1408  139.9819  156.0303 H   0  0  0  0  0  0  0  0  0  0  0  0
  147.8281  138.7009  153.5733 H   0  0  0  0  0  0  0  0  0  0  0  0
  145.6428  138.0310  152.4155 H   0  0  0  0  0  0  0  0  0  0  0  0
  146.5622  136.6125  152.7898 H   0  0  0  0  0  0  0  0  0  0  0  0
  143.3636  137.9056  152.1855 H   0  0  0  0  0  0  0  0  0  0  0  0
  141.2630  136.7578  152.3451 H   0  0  0  0  0  0  0  0  0  0  0  0
  151.5620  141.6099  155.4085 H   0  0  0  0  0  0  0  0  0  0  0  0
  150.2260  142.7395  155.3482 H   0  0  0  0  0  0  0  0  0  0  0  0
  151.9626  143.4763  156.9535 H   0  0  0  0  0  0  0  0  0  0  0  0
  150.4270  143.2083  157.7589 H   0  0  0  0  0  0  0  0  0  0  0  0
  151.5346  140.0256  159.1275 H   0  0  0  0  0  0  0  0  0  0  0  0
  150.1692  141.1255  159.0744 H   0  0  0  0  0  0  0  0  0  0  0  0
  149.7862  139.2049  157.5748 H   0  0  0  0  0  0  0  0  0  0  0  0
  151.2985  139.4956  156.7446 H   0  0  0  0  0  0  0  0  0  0  0  0
  1  2  1  0  0  0  0
  1 25  1  0  0  0  0
  1 26  1  0  0  0  0
  1 27  1  0  0  0  0
  2  3  1  0  0  0  0
  2 28  1  0  0  0  0
  2 29  1  0  0  0  0
  3  4  1  0  0  0  0
  3  5  1  0  0  0  0
  3 18  1  0  0  0  0
  4 30  1  0  0  0  0
  4 31  1  0  0  0  0
  4 32  1  0  0  0  0
  5  6  1  0  0  0  0
  5 33  1  0  0  0  0
  5 34  1  0  0  0  0
  6  7  1  0  0  0  0
  6 35  1  0  0  0  0
  7  8  2  0  0  0  0
  7  9  1  0  0  0  0
  9 10  1  0  0  0  0
  9 36  1  0  0  0  0
  9 37  1  0  0  0  0
 10 16  1  0  0  0  0
 10 11  1  0  0  0  0
 11 12  2  0  0  0  0
 11 38  1  0  0  0  0
 12 13  1  0  0  0  0
 12 39  1  0  0  0  0
 13 14  2  0  0  0  0
 13 15  1  0  0  0  0
 15 24  1  0  0  0  0
 15 16  1  0  0  0  0
 16 17  2  0  0  0  0
 18 23  1  0  0  0  0
 18 19  1  0  0  0  0
 19 20  1  0  0  0  0
 19 40  1  0  0  0  0
 19 41  1  0  0  0  0
 20 21  1  0  0  0  0
 20 42  1  0  0  0  0
 20 43  1  0  0  0  0
 21 22  1  0  0  0  0
 22 23  1  0  0  0  0
 22 44  1  0  0  0  0
 22 45  1  0  0  0  0
 23 46  1  0  0  0  0
 23 47  1  0  0  0  0
M  END
> <s_m_source_file>
AV-unprocessed.smi

> <i_m_source_file_index>
1560

> <i_lp_mmshare_version>
43012

> <i_f3d_flags>
0

> <s_epik_input>
W0NIMl0xW0NIMl1PW0NIMl1bQ0gyXU4xW0NAQF0oW0NIM10pKFtDSDJdW0NIM10pW0NIMl1bTkhdQyg9TylbQ0gyXW4yW2NIXVtjSF1jKD1PKVtuSF1jMj1P

> <s_epik_cmdline>
J2VwaWtfcHl0aG9uJywgJy1waCcsICc3LjAnLCAnLXRuJywgJzgnLCAnLW1hJywgJzIwMCcsICctbWV0YWxfYmluZGluZycsICctaW1hZScsICc8aW5maWxlLm1hZT4nLCAnLW9tYWUnLCAnPG91dGZpbGUubWFlPic=

> <r_lp_tautomer_probability>
0.999537

> <r_epik_Ionization_Penalty>
0.321965

> <r_epik_Ionization_Penalty_Charging>
0.00329831

> <r_epik_Ionization_Penalty_Neutral>
0.318667

> <r_epik_State_Penalty>
0.288097

> <r_epik_Charging_Adjusted_Penalty>
0.291396

> <i_epik_Tot_Q>
0

> <i_epik_Tot_abs_Q>
0

> <r_epik_Metal_State_Penalty>
0.654595

> <b_epik_Metal_Only>
0

> <s_lp_Force_Field>
OPLS_2005

> <r_lp_Energy>
43.0709

> <b_lp_Chiralities_Consistent>
1

> <s_lp_Variant>
AV-unprocessed.smi:1560-2

> <Gold.Version>
5.8.1

> <Gold.Id.Protein>
6NUR|6NUR_protein|mol2

> <Gold.PLP.Fitness>
40.8747

> <Gold.PLP.PLP>
-30.4853

> <Gold.PLP.part.hbond>
-3.0000

> <Gold.PLP.part.metal>
0.0000

> <Gold.PLP.part.buried>
-6.5661

> <Gold.PLP.part.nonpolar>
-20.7170

> <Gold.PLP.part.repulsive>
0.3646

> <Gold.PLP.ligand.clash>
0.0000

> <Gold.PLP.ligand.torsion>
0.6303

> <Gold.PLP.Chemscore.Hbond>
1.9425

> <Gold.PLP.Chemscore.CHOScore>
1.9057

> <Gold.PLP.Chemscore.Metal>
0.0000

> <Gold.Chemscore.Hbonds>
donor molecule, donor type, donor heavy atom, donor atom, acceptor molecule, acceptor atom, score
      L1  H    15    24       P1 10957  0.99
      P1  H 11000 11005       L1    14  0.70
      L1  C    11    38       P1 10171  1.00
      L1  C    11    38       P1 10175  0.95

> <Gold.PLP.Chemscore.Internal.Correction>
0.1051

> <Gold.Rescore>
     Score         DG    S(hbond)    S(metal)    S(lipo)     H(rot)  DE(clash)    DE(int)     intcor
     12.43     -13.12       1.89        0.00      65.70       2.49       0.02       0.67       ----

> <Gold.Chemscore.Fitness>
12.4341

> <Gold.Chemscore.DG>
-13.1214

> <Gold.Chemscore.ZeroCoef>
-5.4800

> <Gold.Chemscore.Hbond>
1.8918

> <Gold.Chemscore.Metal>
0.0000

> <Gold.Chemscore.Lipo>
65.7040

> <Gold.Chemscore.Internal_Hbond>
0.0000

> <Gold.Chemscore.DEClash>
0.0174

> <Gold.Chemscore.DEInternal>
0.6699

> <Gold.Chemscore.Rot>
2.4862

> <Gold.Chemscore.Internal.Correction>
   9.000000E+99

> <Gold.Chemscore.Hbonds>
donor molecule, donor type, donor heavy atom, donor atom, acceptor molecule, acceptor atom, score
      L1  H    15    24       P1 10957  0.90
      P1  H 10995 11001       L1    14  0.01
      P1  H 11000 11005       L1    14  0.59

> <Gold.Chemscore.Hbond.Weighted>
-6.3187

> <Gold.Chemscore.Metal.Weighted>
-0.0000

> <Gold.Chemscore.Lipo.Weighted>
-7.6874

> <Gold.Chemscore.Internal_Hbond.Weighted>
0.0000

> <Gold.Chemscore.DEClash.Weighted>
0.0174

> <Gold.Chemscore.DEInternal.Weighted>
0.6699

> <Gold.Chemscore.Rot.Weighted>
6.3646

> <Gold.Chemscore.Internal.Correction.Weighted>
   9.000000E+99

> <Gold.Protein.RotatedTorsions>
[ 6907 6896 6895 6894 ] final  -21.97 input  -60.11 | X-H torsion
[ 7974 7965 7964 7962 ] final  -41.92 input  175.53 | X-H torsion
[ 8008 7997 7996 7995 ] final  -52.32 input   59.86 | X-H torsion
[ 10167 10162 10161 10158 ] final  -59.75 input  -65.29 | X-H torsion
[ 10718 10713 10712 10709 ] final   56.28 input   66.30 | X-H torsion
[ 10763 10752 10751 10750 ] final -126.97 input  -60.55 | X-H torsion
[ 11005 11000 10999 10996 ] final   19.84 input  -57.11 | X-H torsion

> <Gold.Protein.ActiveResidues>
 VAL166  LYS551  ARG553  GLY616  TRP617  ASP618  TYR619  PRO620  LYS621  CYS622 
 ASP623  PHE694  ASN695  SER759  ASP760  ASP761  ALA762  ILE779  LEU786  VAL792 
 PHE793  MET794  SER795  GLU796  ALA797  LYS798  CYS799  TRP800  GLU811  SER814 

> <Gold.Protein.RotatedAtoms>
  151.2255  135.0535  159.8966 H   0  0  0  0  0  0  0  0  0  0  0  0  # atno 6907 bound_to 6896
  152.5411  134.0594  159.8155 H   0  0  0  0  0  0  0  0  0  0  0  0  # atno 6908 bound_to 6896
  151.0766  133.5375  159.2655 H   0  0  0  0  0  0  0  0  0  0  0  0  # atno 6909 bound_to 6896
  146.0165  140.6902  142.9199 H   0  0  0  0  0  0  0  0  0  0  0  0  # atno 7974 bound_to 7965
  154.4104  140.1227  156.4972 H   0  0  0  0  0  0  0  0  0  0  0  0  # atno 8008 bound_to 7997
  155.6931  140.3495  155.4882 H   0  0  0  0  0  0  0  0  0  0  0  0  # atno 8009 bound_to 7997
  155.9451  140.1094  157.1013 H   0  0  0  0  0  0  0  0  0  0  0  0  # atno 8010 bound_to 7997
  140.6115  143.2389  151.5697 H   0  0  0  0  0  0  0  0  0  0  0  0  # atno 10167 bound_to 10162
  157.5417  130.8702  149.8832 H   0  0  0  0  0  0  0  0  0  0  0  0  # atno 10718 bound_to 10713
  154.8749  135.3977  154.3517 H   0  0  0  0  0  0  0  0  0  0  0  0  # atno 10763 bound_to 10752
  153.4302  135.7025  153.6241 H   0  0  0  0  0  0  0  0  0  0  0  0  # atno 10764 bound_to 10752
  153.4866  135.3757  155.2439 H   0  0  0  0  0  0  0  0  0  0  0  0  # atno 10765 bound_to 10752
  140.4093  134.1635  155.7666 H   0  0  0  0  0  0  0  0  0  0  0  0  # atno 11005 bound_to 11000
  144.6973  140.3490  143.7185 LP  0  0  0  0  0  0  0  0  0  0  0  0  # atno 17320 bound_to 7965
  145.7260  139.1723  143.2457 LP  0  0  0  0  0  0  0  0  0  0  0  0  # atno 17321 bound_to 7965
  139.5365  144.2766  152.1262 LP  0  0  0  0  0  0  0  0  0  0  0  0  # atno 17342 bound_to 10162
  140.1966  144.4699  150.6452 LP  0  0  0  0  0  0  0  0  0  0  0  0  # atno 17343 bound_to 10162
  156.0502  130.3719  150.1219 LP  0  0  0  0  0  0  0  0  0  0  0  0  # atno 17370 bound_to 10713
  156.9399  130.9741  151.3518 LP  0  0  0  0  0  0  0  0  0  0  0  0  # atno 17371 bound_to 10713
  141.1827  133.8379  157.1199 LP  0  0  0  0  0  0  0  0  0  0  0  0  # atno 17394 bound_to 11000
  140.0279  134.9915  157.0723 LP  0  0  0  0  0  0  0  0  0  0  0  0  # atno 17395 bound_to 11000

$$$$
