AV-unprocessed.smi:753|AV-procd|sdf|3600|dock6
  -GOLD-   22720 0593D 1   1.00000     0.00000
 Structure written by MMmdl.
 43 45  0  0  0  0  0  0  0  0  1 V2000
  154.5297  133.4996  164.8182 C   0  0  0  0  0  0  0  0  0  0  0  0
  154.3837  134.6839  163.8857 C   0  0  0  0  0  0  0  0  0  0  0  0
  153.9271  135.9303  164.3639 C   0  0  0  0  0  0  0  0  0  0  0  0
  153.8085  136.9959  163.4512 C   0  0  0  0  0  0  0  0  0  0  0  0
  154.1518  136.7761  162.1014 C   0  0  0  0  0  0  0  0  0  0  0  0
  154.0376  137.8892  161.0791 C   0  0  0  0  0  0  0  0  0  0  0  0
  154.8486  139.1299  161.4839 C   0  0  0  0  0  0  0  0  0  0  0  0
  154.1100  140.3576  161.2193 N   0  0  0  0  0  0  0  0  0  0  0  0
  153.7268  140.7812  160.0032 C   0  0  0  0  0  0  0  0  0  0  0  0
  153.9746  140.1727  158.9639 O   0  0  0  0  0  0  0  0  0  0  0  0
  153.0372  141.9353  160.0031 N   0  0  0  0  0  0  0  0  0  0  0  0
  152.4856  142.6520  158.8501 C   0  0  1  0  0  0  0  0  0  0  0  0
  150.9517  142.4870  158.7709 C   0  0  0  0  0  0  0  0  0  0  0  0
  150.4414  143.9396  158.8017 C   0  0  1  0  0  0  0  0  0  0  0  0
  150.6341  144.5239  160.2139 C   0  0  0  0  0  0  0  0  0  0  0  0
  152.1573  144.7396  160.2886 C   0  0  0  0  0  0  0  0  0  0  0  0
  152.6426  144.1931  158.9286 C   0  0  2  0  0  0  0  0  0  0  0  0
  151.5208  144.6647  158.0092 C   0  0  0  0  0  0  0  0  0  0  0  0
  154.5979  135.4916  161.7259 C   0  0  0  0  0  0  0  0  0  0  0  0
  154.7130  134.4633  162.5937 N   0  0  0  0  0  0  0  0  0  0  0  0
  154.2834  133.7719  165.8449 H   0  0  0  0  0  0  0  0  0  0  0  0
  155.5544  133.1276  164.8022 H   0  0  0  0  0  0  0  0  0  0  0  0
  153.8652  132.6916  164.5114 H   0  0  0  0  0  0  0  0  0  0  0  0
  153.6720  136.0696  165.4042 H   0  0  0  0  0  0  0  0  0  0  0  0
  153.4591  137.9629  163.7828 H   0  0  0  0  0  0  0  0  0  0  0  0
  154.3741  137.5159  160.1108 H   0  0  0  0  0  0  0  0  0  0  0  0
  152.9856  138.1518  160.9587 H   0  0  0  0  0  0  0  0  0  0  0  0
  155.0750  139.0953  162.5499 H   0  0  0  0  0  0  0  0  0  0  0  0
  155.8071  139.1485  160.9621 H   0  0  0  0  0  0  0  0  0  0  0  0
  153.8620  140.9230  162.0181 H   0  0  0  0  0  0  0  0  0  0  0  0
  152.8857  142.3686  160.9025 H   0  0  0  0  0  0  0  0  0  0  0  0
  152.9300  142.2728  157.9280 H   0  0  0  0  0  0  0  0  0  0  0  0
  150.6708  141.9998  157.8362 H   0  0  0  0  0  0  0  0  0  0  0  0
  150.5365  141.8934  159.5869 H   0  0  0  0  0  0  0  0  0  0  0  0
  149.4288  144.0549  158.4144 H   0  0  0  0  0  0  0  0  0  0  0  0
  150.1070  145.4728  160.3197 H   0  0  0  0  0  0  0  0  0  0  0  0
  150.2713  143.8504  160.9912 H   0  0  0  0  0  0  0  0  0  0  0  0
  152.3838  145.8033  160.3724 H   0  0  0  0  0  0  0  0  0  0  0  0
  152.6114  144.2449  161.1471 H   0  0  0  0  0  0  0  0  0  0  0  0
  153.6357  144.5465  158.6497 H   0  0  0  0  0  0  0  0  0  0  0  0
  151.6211  144.3046  156.9837 H   0  0  0  0  0  0  0  0  0  0  0  0
  151.3949  145.7489  157.9966 H   0  0  0  0  0  0  0  0  0  0  0  0
  154.8666  135.2813  160.7010 H   0  0  0  0  0  0  0  0  0  0  0  0
  1  2  1  0  0  0  0
  1 21  1  0  0  0  0
  1 22  1  0  0  0  0
  1 23  1  0  0  0  0
  2 20  1  0  0  0  0
  2  3  2  0  0  0  0
  3  4  1  0  0  0  0
  3 24  1  0  0  0  0
  4  5  2  0  0  0  0
  4 25  1  0  0  0  0
  5  6  1  0  0  0  0
  5 19  1  0  0  0  0
  6  7  1  0  0  0  0
  6 26  1  0  0  0  0
  6 27  1  0  0  0  0
  7  8  1  0  0  0  0
  7 28  1  0  0  0  0
  7 29  1  0  0  0  0
  8  9  1  0  0  0  0
  8 30  1  0  0  0  0
  9 10  2  0  0  0  0
  9 11  1  0  0  0  0
 11 12  1  0  0  0  0
 11 31  1  0  0  0  0
 12 17  1  0  0  0  0
 12 13  1  0  0  0  0
 12 32  1  0  0  0  0
 13 14  1  0  0  0  0
 13 33  1  0  0  0  0
 13 34  1  0  0  0  0
 14 18  1  0  0  0  0
 14 15  1  0  0  0  0
 14 35  1  0  0  0  0
 15 16  1  0  0  0  0
 15 36  1  0  0  0  0
 15 37  1  0  0  0  0
 16 17  1  0  0  0  0
 16 38  1  0  0  0  0
 16 39  1  0  0  0  0
 17 18  1  0  0  0  0
 17 40  1  0  0  0  0
 18 41  1  0  0  0  0
 18 42  1  0  0  0  0
 19 20  2  0  0  0  0
 19 43  1  0  0  0  0
M  END
> <s_m_source_file>
AV-unprocessed.smi

> <i_m_source_file_index>
753

> <i_lp_mmshare_version>
43012

> <i_f3d_flags>
0

> <s_epik_input>
W0NIM11jMVtjSF1bY0hdYyhbY0hdbjEpW0NIMl1bQ0gyXVtOSF1DKD1PKVtOSF1bQ0BIXShbQ0gyXVtDQEBIXTIzKVtDQEBIXShbQ0gyXTMpW0NIMl1bQ0gyXTI=

> <s_epik_cmdline>
J2VwaWtfcHl0aG9uJywgJy1waCcsICc3LjAnLCAnLXRuJywgJzgnLCAnLW1hJywgJzIwMCcsICctbWV0YWxfYmluZGluZycsICctaW1hZScsICc8aW5maWxlLm1hZT4nLCAnLW9tYWUnLCAnPG91dGZpbGUubWFlPic=

> <r_epik_Ionization_Penalty>
0.0569047

> <r_epik_Ionization_Penalty_Charging>
0

> <r_epik_Ionization_Penalty_Neutral>
0.0569047

> <r_epik_State_Penalty>
0.0490541

> <r_epik_Charging_Adjusted_Penalty>
0.0490541

> <i_epik_Tot_Q>
0

> <i_epik_Tot_abs_Q>
0

> <r_epik_Metal_State_Penalty>
0.0447357

> <b_epik_Metal_Only>
0

> <s_lp_Force_Field>
OPLS_2005

> <r_lp_Energy>
50.4095

> <b_lp_Chiralities_Consistent>
1

> <s_lp_Variant>
AV-unprocessed.smi:753-2

> <Gold.Version>
5.8.1

> <Gold.Id.Protein>
6NUR|6NUR_protein|mol2

> <Gold.PLP.Fitness>
48.6504

> <Gold.PLP.PLP>
-46.8926

> <Gold.PLP.part.hbond>
-1.0000

> <Gold.PLP.part.metal>
0.0000

> <Gold.PLP.part.buried>
-5.7638

> <Gold.PLP.part.nonpolar>
-39.7529

> <Gold.PLP.part.repulsive>
0.0741

> <Gold.PLP.ligand.clash>
0.0000

> <Gold.PLP.ligand.torsion>
0.5457

> <Gold.PLP.Chemscore.Hbond>
0.9440

> <Gold.PLP.Chemscore.CHOScore>
0.0000

> <Gold.PLP.Chemscore.Metal>
0.0000

> <Gold.Chemscore.Hbonds>
donor molecule, donor type, donor heavy atom, donor atom, acceptor molecule, acceptor atom, score
      P1  H  7997  8008       L1    10  0.94

> <Gold.PLP.Chemscore.Internal.Correction>
0.0172

> <Gold.Rescore>
     Score         DG    S(hbond)    S(metal)    S(lipo)     H(rot)  DE(clash)    DE(int)     intcor
     20.65     -21.41       0.95        0.00     140.16       1.43       0.20       0.55       ----

> <Gold.Chemscore.Fitness>
20.6495

> <Gold.Chemscore.DG>
-21.4060

> <Gold.Chemscore.ZeroCoef>
-5.4800

> <Gold.Chemscore.Hbond>
0.9537

> <Gold.Chemscore.Metal>
0.0000

> <Gold.Chemscore.Lipo>
140.1632

> <Gold.Chemscore.Internal_Hbond>
0.0000

> <Gold.Chemscore.DEClash>
0.2045

> <Gold.Chemscore.DEInternal>
0.5520

> <Gold.Chemscore.Rot>
1.4291

> <Gold.Chemscore.Internal.Correction>
   9.000000E+99

> <Gold.Chemscore.Hbonds>
donor molecule, donor type, donor heavy atom, donor atom, acceptor molecule, acceptor atom, score
      P1  H  7997  8008       L1    10  0.90

> <Gold.Chemscore.Hbond.Weighted>
-3.1854

> <Gold.Chemscore.Metal.Weighted>
-0.0000

> <Gold.Chemscore.Lipo.Weighted>
-16.3991

> <Gold.Chemscore.Internal_Hbond.Weighted>
0.0000

> <Gold.Chemscore.DEClash.Weighted>
0.2045

> <Gold.Chemscore.DEInternal.Weighted>
0.5520

> <Gold.Chemscore.Rot.Weighted>
3.6585

> <Gold.Chemscore.Internal.Correction.Weighted>
   9.000000E+99

> <Gold.Protein.RotatedTorsions>
[ 6907 6896 6895 6894 ] final  138.42 input  -60.11 | X-H torsion
[ 7974 7965 7964 7962 ] final   91.54 input  175.53 | X-H torsion
[ 8008 7997 7996 7995 ] final -110.67 input   59.86 | X-H torsion
[ 10167 10162 10161 10158 ] final  -74.07 input  -65.29 | X-H torsion
[ 10718 10713 10712 10709 ] final -147.15 input   66.30 | X-H torsion
[ 10763 10752 10751 10750 ] final -108.76 input  -60.55 | X-H torsion
[ 11005 11000 10999 10996 ] final  112.95 input  -57.11 | X-H torsion

> <Gold.Protein.ActiveResidues>
 VAL166  LYS551  ARG553  GLY616  TRP617  ASP618  TYR619  PRO620  LYS621  CYS622 
 ASP623  PHE694  ASN695  SER759  ASP760  ASP761  ALA762  ILE779  LEU786  VAL792 
 PHE793  MET794  SER795  GLU796  ALA797  LYS798  CYS799  TRP800  GLU811  SER814 

> <Gold.Protein.RotatedAtoms>
  152.2667  133.5346  159.5414 H   0  0  0  0  0  0  0  0  0  0  0  0  # atno 6907 bound_to 6896
  150.7144  134.0754  159.3888 H   0  0  0  0  0  0  0  0  0  0  0  0  # atno 6908 bound_to 6896
  151.8670  135.0503  160.0526 H   0  0  0  0  0  0  0  0  0  0  0  0  # atno 6909 bound_to 6896
  145.5043  139.2276  143.2760 H   0  0  0  0  0  0  0  0  0  0  0  0  # atno 7974 bound_to 7965
  154.9780  140.0396  157.2265 H   0  0  0  0  0  0  0  0  0  0  0  0  # atno 8008 bound_to 7997
  154.7740  140.2807  155.6093 H   0  0  0  0  0  0  0  0  0  0  0  0  # atno 8009 bound_to 7997
  156.2925  140.2604  156.2549 H   0  0  0  0  0  0  0  0  0  0  0  0  # atno 8010 bound_to 7997
  140.5057  143.2353  151.7677 H   0  0  0  0  0  0  0  0  0  0  0  0  # atno 10167 bound_to 10162
  156.4039  130.7947  151.2160 H   0  0  0  0  0  0  0  0  0  0  0  0  # atno 10718 bound_to 10713
  154.8154  135.4626  154.0629 H   0  0  0  0  0  0  0  0  0  0  0  0  # atno 10763 bound_to 10752
  153.2026  135.6871  153.8218 H   0  0  0  0  0  0  0  0  0  0  0  0  # atno 10764 bound_to 10752
  153.7698  135.3272  155.3327 H   0  0  0  0  0  0  0  0  0  0  0  0  # atno 10765 bound_to 10752
  139.8940  134.9540  156.6665 H   0  0  0  0  0  0  0  0  0  0  0  0  # atno 11005 bound_to 11000
  146.2206  140.5846  142.9019 LP  0  0  0  0  0  0  0  0  0  0  0  0  # atno 17320 bound_to 7965
  144.7762  140.5745  143.6636 LP  0  0  0  0  0  0  0  0  0  0  0  0  # atno 17321 bound_to 7965
  139.4883  144.4460  151.9709 LP  0  0  0  0  0  0  0  0  0  0  0  0  # atno 17342 bound_to 10162
  140.3550  144.3042  150.5942 LP  0  0  0  0  0  0  0  0  0  0  0  0  # atno 17343 bound_to 10162
  157.7505  131.0278  150.4023 LP  0  0  0  0  0  0  0  0  0  0  0  0  # atno 17370 bound_to 10713
  156.4307  130.3971  149.6762 LP  0  0  0  0  0  0  0  0  0  0  0  0  # atno 17371 bound_to 10713
  140.7407  133.8980  155.8276 LP  0  0  0  0  0  0  0  0  0  0  0  0  # atno 17394 bound_to 11000
  141.0080  134.1059  157.4250 LP  0  0  0  0  0  0  0  0  0  0  0  0  # atno 17395 bound_to 11000

$$$$
