AV-unprocessed.smi:596|AV-procd|sdf|3019|dock9
  -GOLD-   2262023533D 1   1.00000     0.00000
 Structure written by MMmdl.
 41 42  0  0  0  0  0  0  0  0  3 V2000
  148.3646  140.2367  156.0974 O   0  0  0  0  0  0  0  0  0  0  0  0
  148.2570  141.4503  155.9260 C   0  0  0  0  0  0  0  0  0  0  0  0
  146.9958  141.9949  155.2327 C   0  0  0  0  0  0  0  0  0  0  0  0
  146.1183  142.8136  156.0892 N   0  0  0  0  0  0  0  0  0  0  0  0
  146.4493  142.8840  157.4569 C   0  0  0  0  0  0  0  0  0  0  0  0
  145.7251  143.6079  158.3326 C   0  0  0  0  0  0  0  0  0  0  0  0
  146.0874  143.6788  159.7311 N   0  3  0  0  0  0  0  0  0  0  0  0
  145.4862  144.4655  160.4553 O   0  0  0  0  0  0  0  0  0  0  0  0
  146.9842  142.9537  160.1512 O   0  5  0  0  0  0  0  0  0  0  0  0
  144.5708  144.3230  157.8239 C   0  0  0  0  0  0  0  0  0  0  0  0
  144.2514  144.2632  156.5161 C   0  0  0  0  0  0  0  0  0  0  0  0
  145.0466  143.4822  155.5631 C   0  0  0  0  0  0  0  0  0  0  0  0
  144.7697  143.4370  154.3648 O   0  0  0  0  0  0  0  0  0  0  0  0
  149.1955  142.3255  156.3263 N   0  0  0  0  0  0  0  0  0  0  0  0
  150.4355  141.9782  157.0089 C   0  0  0  0  0  0  0  0  0  0  0  0
  151.4320  143.1502  156.9929 C   0  0  0  0  0  0  0  0  0  0  0  0
  151.7703  143.6517  158.3867 C   0  0  0  0  0  0  0  0  0  0  0  0
  151.5379  144.9247  158.7620 C   0  0  0  0  0  0  0  0  0  0  0  0
  151.8388  145.4755  160.1451 C   0  0  0  0  0  0  0  0  0  0  0  0
  152.1149  144.3643  161.1717 C   0  0  0  0  0  0  0  0  0  0  0  0
  153.0219  143.2776  160.5812 C   0  0  0  0  0  0  0  0  0  0  0  0
  152.3854  142.6308  159.3376 C   0  0  0  0  0  0  0  0  0  0  0  0
  147.3040  142.5580  154.3503 H   0  0  0  0  0  0  0  0  0  0  0  0
  146.4376  141.1450  154.8373 H   0  0  0  0  0  0  0  0  0  0  0  0
  147.3303  142.3223  157.7328 H   0  0  0  0  0  0  0  0  0  0  0  0
  143.9539  144.9111  158.4874 H   0  0  0  0  0  0  0  0  0  0  0  0
  143.3875  144.8039  156.1583 H   0  0  0  0  0  0  0  0  0  0  0  0
  149.0352  143.3064  156.1484 H   0  0  0  0  0  0  0  0  0  0  0  0
  150.2266  141.6664  158.0337 H   0  0  0  0  0  0  0  0  0  0  0  0
  150.8596  141.1123  156.5005 H   0  0  0  0  0  0  0  0  0  0  0  0
  152.3558  142.8532  156.4949 H   0  0  0  0  0  0  0  0  0  0  0  0
  151.0203  143.9734  156.4073 H   0  0  0  0  0  0  0  0  0  0  0  0
  151.1175  145.6253  158.0552 H   0  0  0  0  0  0  0  0  0  0  0  0
  152.7023  146.1363  160.0637 H   0  0  0  0  0  0  0  0  0  0  0  0
  151.0008  146.0879  160.4787 H   0  0  0  0  0  0  0  0  0  0  0  0
  152.5640  144.7895  162.0696 H   0  0  0  0  0  0  0  0  0  0  0  0
  151.1719  143.9121  161.4825 H   0  0  0  0  0  0  0  0  0  0  0  0
  153.9809  143.7213  160.3099 H   0  0  0  0  0  0  0  0  0  0  0  0
  153.2361  142.5141  161.3293 H   0  0  0  0  0  0  0  0  0  0  0  0
  151.6032  141.9362  159.6453 H   0  0  0  0  0  0  0  0  0  0  0  0
  153.1376  142.0451  158.8081 H   0  0  0  0  0  0  0  0  0  0  0  0
  1  2  2  0  0  0  0
  2  3  1  0  0  0  0
  2 14  1  0  0  0  0
  3  4  1  0  0  0  0
  3 23  1  0  0  0  0
  3 24  1  0  0  0  0
  4 12  1  0  0  0  0
  4  5  1  0  0  0  0
  5  6  2  0  0  0  0
  5 25  1  0  0  0  0
  6  7  1  0  0  0  0
  6 10  1  0  0  0  0
  7  8  2  0  0  0  0
  7  9  1  0  0  0  0
 10 11  2  0  0  0  0
 10 26  1  0  0  0  0
 11 12  1  0  0  0  0
 11 27  1  0  0  0  0
 12 13  2  0  0  0  0
 14 15  1  0  0  0  0
 14 28  1  0  0  0  0
 15 16  1  0  0  0  0
 15 29  1  0  0  0  0
 15 30  1  0  0  0  0
 16 17  1  0  0  0  0
 16 31  1  0  0  0  0
 16 32  1  0  0  0  0
 17 22  1  0  0  0  0
 17 18  2  0  0  0  0
 18 19  1  0  0  0  0
 18 33  1  0  0  0  0
 19 20  1  0  0  0  0
 19 34  1  0  0  0  0
 19 35  1  0  0  0  0
 20 21  1  0  0  0  0
 20 36  1  0  0  0  0
 20 37  1  0  0  0  0
 21 22  1  0  0  0  0
 21 38  1  0  0  0  0
 21 39  1  0  0  0  0
 22 40  1  0  0  0  0
 22 41  1  0  0  0  0
M  CHG  1   7   1
M  CHG  1   9  -1
M  END
> <s_m_source_file>
AV-unprocessed.smi

> <i_m_source_file_index>
596

> <i_lp_mmshare_version>
43012

> <i_f3d_flags>
0

> <s_epik_input>
Tz1jMVtjSF1bY0hdYyhbTitdKD1PKVtPLV0pW2NIXW4xW0NIMl1DKD1PKVtOSF1bQ0gyXVtDSDJdQzI9W0NIXVtDSDJdW0NIMl1bQ0gyXVtDSDJdMg==

> <s_epik_cmdline>
J2VwaWtfcHl0aG9uJywgJy1waCcsICc3LjAnLCAnLXRuJywgJzgnLCAnLW1hJywgJzIwMCcsICctbWV0YWxfYmluZGluZycsICctaW1hZScsICc8aW5maWxlLm1hZT4nLCAnLW9tYWUnLCAnPG91dGZpbGUubWFlPic=

> <r_lp_tautomer_probability>
1

> <r_epik_Ionization_Penalty>
1.81809e-08

> <r_epik_Ionization_Penalty_Charging>
7.7346e-11

> <r_epik_Ionization_Penalty_Neutral>
1.81035e-08

> <r_epik_State_Penalty>
-0

> <r_epik_Charging_Adjusted_Penalty>
7.7346e-11

> <i_epik_Tot_Q>
0

> <i_epik_Tot_abs_Q>
2

> <r_epik_Metal_State_Penalty>
-0

> <b_epik_Metal_Only>
0

> <s_lp_Force_Field>
OPLS_2005

> <r_lp_Energy>
18.9868

> <b_lp_Chiralities_Consistent>
1

> <s_lp_Variant>
AV-unprocessed.smi:596-1

> <Gold.Version>
5.8.1

> <Gold.Id.Protein>
6NUR|6NUR_protein|mol2

> <Gold.PLP.Fitness>
48.2501

> <Gold.PLP.PLP>
-41.1070

> <Gold.PLP.part.hbond>
-3.0000

> <Gold.PLP.part.metal>
0.0000

> <Gold.PLP.part.buried>
-7.2875

> <Gold.PLP.part.nonpolar>
-32.3606

> <Gold.PLP.part.repulsive>
0.4119

> <Gold.PLP.ligand.clash>
0.0000

> <Gold.PLP.ligand.torsion>
0.5875

> <Gold.PLP.Chemscore.Hbond>
2.7440

> <Gold.PLP.Chemscore.CHOScore>
0.0000

> <Gold.PLP.Chemscore.Metal>
0.0000

> <Gold.Chemscore.Hbonds>
donor molecule, donor type, donor heavy atom, donor atom, acceptor molecule, acceptor atom, score
      L1  H    14    28       P1  8028  0.93
      P1  H  6933  6944       L1     9  0.83
      P1  H  6934  6946       L1     9  0.60

> <Gold.PLP.Chemscore.Internal.Correction>
0.0861

> <Gold.Rescore>
     Score         DG    S(hbond)    S(metal)    S(lipo)     H(rot)  DE(clash)    DE(int)     intcor
     19.69     -21.05       2.71        0.00      98.98       1.98       0.11       1.25       ----

> <Gold.Chemscore.Fitness>
19.6894

> <Gold.Chemscore.DG>
-21.0468

> <Gold.Chemscore.ZeroCoef>
-5.4800

> <Gold.Chemscore.Hbond>
2.7139

> <Gold.Chemscore.Metal>
0.0000

> <Gold.Chemscore.Lipo>
98.9760

> <Gold.Chemscore.Internal_Hbond>
0.0000

> <Gold.Chemscore.DEClash>
0.1095

> <Gold.Chemscore.DEInternal>
1.2478

> <Gold.Chemscore.Rot>
1.9835

> <Gold.Chemscore.Internal.Correction>
   9.000000E+99

> <Gold.Chemscore.Hbonds>
donor molecule, donor type, donor heavy atom, donor atom, acceptor molecule, acceptor atom, score
      L1  H    14    28       P1  8028  0.89
      P1  H  6933  6944       L1     9  0.78
      P1  H  6934  6946       L1     9  0.58

> <Gold.Chemscore.Hbond.Weighted>
-9.0644

> <Gold.Chemscore.Metal.Weighted>
-0.0000

> <Gold.Chemscore.Lipo.Weighted>
-11.5802

> <Gold.Chemscore.Internal_Hbond.Weighted>
0.0000

> <Gold.Chemscore.DEClash.Weighted>
0.1095

> <Gold.Chemscore.DEInternal.Weighted>
1.2478

> <Gold.Chemscore.Rot.Weighted>
5.0778

> <Gold.Chemscore.Internal.Correction.Weighted>
   9.000000E+99

> <Gold.Protein.RotatedTorsions>
[ 6907 6896 6895 6894 ] final  133.24 input  -60.11 | X-H torsion
[ 7974 7965 7964 7962 ] final   37.52 input  175.53 | X-H torsion
[ 8008 7997 7996 7995 ] final   40.96 input   59.86 | X-H torsion
[ 10167 10162 10161 10158 ] final   54.68 input  -65.29 | X-H torsion
[ 10718 10713 10712 10709 ] final    4.36 input   66.30 | X-H torsion
[ 10763 10752 10751 10750 ] final  118.97 input  -60.55 | X-H torsion
[ 11005 11000 10999 10996 ] final  -99.29 input  -57.11 | X-H torsion

> <Gold.Protein.ActiveResidues>
 VAL166  LYS551  ARG553  GLY616  TRP617  ASP618  TYR619  PRO620  LYS621  CYS622 
 ASP623  PHE694  ASN695  SER759  ASP760  ASP761  ALA762  ILE779  LEU786  VAL792 
 PHE793  MET794  SER795  GLU796  ALA797  LYS798  CYS799  TRP800  GLU811  SER814 

> <Gold.Protein.RotatedAtoms>
  152.3240  133.5885  159.5763 H   0  0  0  0  0  0  0  0  0  0  0  0  # atno 6907 bound_to 6896
  150.7387  133.9968  159.3634 H   0  0  0  0  0  0  0  0  0  0  0  0  # atno 6908 bound_to 6896
  151.7849  135.0752  160.0430 H   0  0  0  0  0  0  0  0  0  0  0  0  # atno 6909 bound_to 6896
  146.1131  139.5883  142.9339 H   0  0  0  0  0  0  0  0  0  0  0  0  # atno 7974 bound_to 7965
  155.2617  140.3360  155.4272 H   0  0  0  0  0  0  0  0  0  0  0  0  # atno 8008 bound_to 7997
  156.2172  140.1794  156.7605 H   0  0  0  0  0  0  0  0  0  0  0  0  # atno 8009 bound_to 7997
  154.5770  140.0660  156.9034 H   0  0  0  0  0  0  0  0  0  0  0  0  # atno 8010 bound_to 7997
  140.2276  144.3722  150.6426 H   0  0  0  0  0  0  0  0  0  0  0  0  # atno 10167 bound_to 10162
  156.8915  130.5689  149.5650 H   0  0  0  0  0  0  0  0  0  0  0  0  # atno 10718 bound_to 10713
  153.5759  135.3493  155.2856 H   0  0  0  0  0  0  0  0  0  0  0  0  # atno 10763 bound_to 10752
  154.8675  135.4170  154.2674 H   0  0  0  0  0  0  0  0  0  0  0  0  # atno 10764 bound_to 10752
  153.3450  135.7052  153.6906 H   0  0  0  0  0  0  0  0  0  0  0  0  # atno 10765 bound_to 10752
  141.1314  133.8310  157.0952 H   0  0  0  0  0  0  0  0  0  0  0  0  # atno 11005 bound_to 11000
  145.5623  141.0403  143.2219 LP  0  0  0  0  0  0  0  0  0  0  0  0  # atno 17320 bound_to 7965
  144.7529  139.7148  143.7266 LP  0  0  0  0  0  0  0  0  0  0  0  0  # atno 17321 bound_to 7965
  140.6209  143.2176  151.6696 LP  0  0  0  0  0  0  0  0  0  0  0  0  # atno 17342 bound_to 10162
  139.5121  144.3485  152.0674 LP  0  0  0  0  0  0  0  0  0  0  0  0  # atno 17343 bound_to 10162
  156.0627  130.5676  150.9225 LP  0  0  0  0  0  0  0  0  0  0  0  0  # atno 17370 bound_to 10713
  157.6081  131.0938  150.8843 LP  0  0  0  0  0  0  0  0  0  0  0  0  # atno 17371 bound_to 10713
  140.0368  134.9874  157.0885 LP  0  0  0  0  0  0  0  0  0  0  0  0  # atno 17394 bound_to 11000
  140.4198  134.1892  155.7164 LP  0  0  0  0  0  0  0  0  0  0  0  0  # atno 17395 bound_to 11000

$$$$
