AV-unprocessed.smi:3117|AV-procd|sdf|11881|dock6
  -GOLD-   2272017273D 1   1.00000     0.00000
 Structure written by MMmdl.
 37 37  0  0  0  0  0  0  0  0  2 V2000
  144.1624  136.3409  152.3338 C   0  0  0  0  0  0  0  0  0  0  0  0
  145.5540  135.8574  151.8939 C   0  0  1  0  0  0  0  0  0  0  0  0
  146.5905  136.7261  152.4965 N   0  3  0  0  0  0  0  0  0  0  0  0
  146.3630  138.1780  152.3393 C   0  0  0  0  0  0  0  0  0  0  0  0
  147.2792  139.0138  153.2583 C   0  0  0  0  0  0  0  0  0  0  0  0
  147.0677  140.5144  152.9971 C   0  0  0  0  0  0  0  0  0  0  0  0
  147.0639  138.6957  154.7493 C   0  0  0  0  0  0  0  0  0  0  0  0
  148.6235  138.7249  152.9257 O   0  0  0  0  0  0  0  0  0  0  0  0
  145.8054  134.3636  152.2268 C   0  0  1  0  0  0  0  0  0  0  0  0
  145.4777  134.0117  153.6905 C   0  0  0  0  0  0  0  0  0  0  0  0
  145.1569  133.4491  151.2915 N   0  0  0  0  0  0  0  0  0  0  0  0
  145.7528  132.5462  150.4343 C   0  0  0  0  0  0  0  0  0  0  0  0
  144.7576  131.9205  149.7401 C   0  0  0  0  0  0  0  0  0  0  0  0
  143.5683  132.5161  150.2435 C   0  0  0  0  0  0  0  0  0  0  0  0
  143.8098  133.4324  151.1668 N   0  0  0  0  0  0  0  0  0  0  0  0
  143.3770  135.7203  151.9020 H   0  0  0  0  0  0  0  0  0  0  0  0
  143.9847  137.3669  152.0097 H   0  0  0  0  0  0  0  0  0  0  0  0
  144.0490  136.3147  153.4181 H   0  0  0  0  0  0  0  0  0  0  0  0
  145.5992  135.9575  150.8080 H   0  0  0  0  0  0  0  0  0  0  0  0
  146.6586  136.5126  153.4811 H   0  0  0  0  0  0  0  0  0  0  0  0
  146.5349  138.4494  151.2962 H   0  0  0  0  0  0  0  0  0  0  0  0
  145.3162  138.3956  152.5562 H   0  0  0  0  0  0  0  0  0  0  0  0
  146.0449  140.8135  153.2289 H   0  0  0  0  0  0  0  0  0  0  0  0
  147.2554  140.7686  151.9532 H   0  0  0  0  0  0  0  0  0  0  0  0
  147.7339  141.1243  153.6084 H   0  0  0  0  0  0  0  0  0  0  0  0
  146.0324  138.8874  155.0471 H   0  0  0  0  0  0  0  0  0  0  0  0
  147.7062  139.3103  155.3814 H   0  0  0  0  0  0  0  0  0  0  0  0
  147.2857  137.6534  154.9802 H   0  0  0  0  0  0  0  0  0  0  0  0
  148.6685  137.8430  152.5874 H   0  0  0  0  0  0  0  0  0  0  0  0
  146.8781  134.1987  152.1137 H   0  0  0  0  0  0  0  0  0  0  0  0
  146.0396  134.6430  154.3792 H   0  0  0  0  0  0  0  0  0  0  0  0
  145.7376  132.9758  153.9103 H   0  0  0  0  0  0  0  0  0  0  0  0
  144.4184  134.1402  153.9154 H   0  0  0  0  0  0  0  0  0  0  0  0
  146.8252  132.4247  150.3891 H   0  0  0  0  0  0  0  0  0  0  0  0
  144.8633  131.1535  148.9869 H   0  0  0  0  0  0  0  0  0  0  0  0
  142.5445  132.3136  149.9654 H   0  0  0  0  0  0  0  0  0  0  0  0
  147.4760  136.5016  152.0640 H   0  0  0  0  0  0  0  0  0  0  0  0
  1  2  1  0  0  0  0
  1 16  1  0  0  0  0
  1 17  1  0  0  0  0
  1 18  1  0  0  0  0
  2  3  1  0  0  0  0
  2  9  1  0  0  0  0
  2 19  1  0  0  0  0
  3  4  1  0  0  0  0
  3 20  1  0  0  0  0
  3 37  1  0  0  0  0
  4  5  1  0  0  0  0
  4 21  1  0  0  0  0
  4 22  1  0  0  0  0
  5  6  1  0  0  0  0
  5  7  1  0  0  0  0
  5  8  1  0  0  0  0
  6 23  1  0  0  0  0
  6 24  1  0  0  0  0
  6 25  1  0  0  0  0
  7 26  1  0  0  0  0
  7 27  1  0  0  0  0
  7 28  1  0  0  0  0
  8 29  1  0  0  0  0
  9 10  1  0  0  0  0
  9 11  1  0  0  0  0
  9 30  1  0  0  0  0
 10 31  1  0  0  0  0
 10 32  1  0  0  0  0
 10 33  1  0  0  0  0
 11 15  1  0  0  0  0
 11 12  1  0  0  0  0
 12 13  2  0  0  0  0
 12 34  1  0  0  0  0
 13 14  1  0  0  0  0
 13 35  1  0  0  0  0
 14 15  2  0  0  0  0
 14 36  1  0  0  0  0
M  CHG  1   3   1
M  END
> <s_m_source_file>
AV-unprocessed.smi

> <i_m_source_file_index>
3117

> <i_lp_mmshare_version>
43012

> <i_f3d_flags>
0

> <s_epik_input>
W0NIM11DKFtDSDNdKShbT0hdKVtDSDJdW05IXVtDQEBIXShbQ0gzXSlbQ0BIXShbQ0gzXSluMVtjSF1bY0hdW2NIXW4x

> <s_epik_cmdline>
J2VwaWtfcHl0aG9uJywgJy1waCcsICc3LjAnLCAnLXRuJywgJzgnLCAnLW1hJywgJzIwMCcsICctbWV0YWxfYmluZGluZycsICctaW1hZScsICc8aW5maWxlLm1hZT4nLCAnLW9tYWUnLCAnPG91dGZpbGUubWFlPic=

> <r_lp_tautomer_probability>
1

> <r_epik_Ionization_Penalty>
0.0164263

> <r_epik_Ionization_Penalty_Charging>
0.0164138

> <r_epik_Ionization_Penalty_Neutral>
1.24697e-05

> <r_epik_State_Penalty>
0.0129543

> <r_epik_Charging_Adjusted_Penalty>
0.0293681

> <i_epik_Tot_Q>
1

> <i_epik_Tot_abs_Q>
1

> <r_epik_Metal_State_Penalty>
0.0129806

> <b_epik_Metal_Only>
0

> <s_lp_Force_Field>
OPLS_2005

> <r_lp_Energy>
13.722

> <b_lp_Chiralities_Consistent>
1

> <s_lp_Variant>
AV-unprocessed.smi:3117-4

> <Gold.Version>
5.8.1

> <Gold.Id.Protein>
6NUR|6NUR_protein|mol2

> <Gold.PLP.Fitness>
42.3325

> <Gold.PLP.PLP>
-27.8225

> <Gold.PLP.part.hbond>
-2.6622

> <Gold.PLP.part.metal>
0.0000

> <Gold.PLP.part.buried>
-2.5214

> <Gold.PLP.part.nonpolar>
-23.3001

> <Gold.PLP.part.repulsive>
0.2267

> <Gold.PLP.ligand.clash>
0.0000

> <Gold.PLP.ligand.torsion>
0.3829

> <Gold.PLP.Chemscore.Hbond>
3.0000

> <Gold.PLP.Chemscore.CHOScore>
2.0327

> <Gold.PLP.Chemscore.Metal>
0.0000

> <Gold.Chemscore.Hbonds>
donor molecule, donor type, donor heavy atom, donor atom, acceptor molecule, acceptor atom, score
      L1  H     3    37       P1  7948  1.85
      L1  H     8    29       P1  7948  1.00
      L1  C    12    34       P1 10747  0.68
      L1  C    14    36       P1 10186  0.55
      L1  C    14    36       P1 10952  0.73

> <Gold.PLP.Chemscore.Internal.Correction>
0.1779

> <Gold.Rescore>
     Score         DG    S(hbond)    S(metal)    S(lipo)     H(rot)  DE(clash)    DE(int)     intcor
     14.11     -14.53       1.98        0.00      70.53       2.27       0.05       0.38       ----

> <Gold.Chemscore.Fitness>
14.1106

> <Gold.Chemscore.DG>
-14.5344

> <Gold.Chemscore.ZeroCoef>
-5.4800

> <Gold.Chemscore.Hbond>
1.9820

> <Gold.Chemscore.Metal>
0.0000

> <Gold.Chemscore.Lipo>
70.5302

> <Gold.Chemscore.Internal_Hbond>
0.0000

> <Gold.Chemscore.DEClash>
0.0465

> <Gold.Chemscore.DEInternal>
0.3773

> <Gold.Chemscore.Rot>
2.2725

> <Gold.Chemscore.Internal.Correction>
   9.000000E+99

> <Gold.Chemscore.Hbonds>
donor molecule, donor type, donor heavy atom, donor atom, acceptor molecule, acceptor atom, score
      L1  H     3    37       P1  7948  0.88
      L1  H     8    29       P1  7948  1.00

> <Gold.Chemscore.Hbond.Weighted>
-6.6200

> <Gold.Chemscore.Metal.Weighted>
-0.0000

> <Gold.Chemscore.Lipo.Weighted>
-8.2520

> <Gold.Chemscore.Internal_Hbond.Weighted>
0.0000

> <Gold.Chemscore.DEClash.Weighted>
0.0465

> <Gold.Chemscore.DEInternal.Weighted>
0.3773

> <Gold.Chemscore.Rot.Weighted>
5.8176

> <Gold.Chemscore.Internal.Correction.Weighted>
   9.000000E+99

> <Gold.Protein.RotatedTorsions>
[ 6907 6896 6895 6894 ] final  -28.42 input  -60.11 | X-H torsion
[ 7974 7965 7964 7962 ] final  153.16 input  175.53 | X-H torsion
[ 8008 7997 7996 7995 ] final  -35.86 input   59.86 | X-H torsion
[ 10167 10162 10161 10158 ] final -160.20 input  -65.29 | X-H torsion
[ 10718 10713 10712 10709 ] final -155.98 input   66.30 | X-H torsion
[ 10763 10752 10751 10750 ] final -124.27 input  -60.55 | X-H torsion
[ 11005 11000 10999 10996 ] final  -91.02 input  -57.11 | X-H torsion

> <Gold.Protein.ActiveResidues>
 VAL166  LYS551  ARG553  GLY616  TRP617  ASP618  TYR619  PRO620  LYS621  CYS622 
 ASP623  PHE694  ASN695  SER759  ASP760  ASP761  ALA762  ILE779  LEU786  VAL792 
 PHE793  MET794  SER795  GLU796  ALA797  LYS798  CYS799  TRP800  GLU811  SER814 

> <Gold.Protein.RotatedAtoms>
  151.1332  135.0141  159.8591 H   0  0  0  0  0  0  0  0  0  0  0  0  # atno 6907 bound_to 6896
  152.5451  134.1586  159.8558 H   0  0  0  0  0  0  0  0  0  0  0  0  # atno 6908 bound_to 6896
  151.1655  133.4772  159.2627 H   0  0  0  0  0  0  0  0  0  0  0  0  # atno 6909 bound_to 6896
  144.8173  139.6764  143.6116 H   0  0  0  0  0  0  0  0  0  0  0  0  # atno 7974 bound_to 7965
  154.4086  140.1646  156.2281 H   0  0  0  0  0  0  0  0  0  0  0  0  # atno 8008 bound_to 7997
  155.9306  140.3415  155.6223 H   0  0  0  0  0  0  0  0  0  0  0  0  # atno 8009 bound_to 7997
  155.7111  140.0756  157.2361 H   0  0  0  0  0  0  0  0  0  0  0  0  # atno 8010 bound_to 7997
  139.6557  144.0003  152.2192 H   0  0  0  0  0  0  0  0  0  0  0  0  # atno 10167 bound_to 10162
  156.5203  130.8475  151.2679 H   0  0  0  0  0  0  0  0  0  0  0  0  # atno 10718 bound_to 10713
  154.8721  135.4069  154.3078 H   0  0  0  0  0  0  0  0  0  0  0  0  # atno 10763 bound_to 10752
  153.3927  135.7015  153.6489 H   0  0  0  0  0  0  0  0  0  0  0  0  # atno 10764 bound_to 10752
  153.5264  135.3676  155.2627 H   0  0  0  0  0  0  0  0  0  0  0  0  # atno 10765 bound_to 10752
  141.1553  133.7729  156.9820 H   0  0  0  0  0  0  0  0  0  0  0  0  # atno 11005 bound_to 11000
  146.2477  139.6133  142.9448 LP  0  0  0  0  0  0  0  0  0  0  0  0  # atno 17320 bound_to 7965
  145.5185  141.0433  143.2448 LP  0  0  0  0  0  0  0  0  0  0  0  0  # atno 17321 bound_to 7965
  139.9728  144.6482  150.7973 LP  0  0  0  0  0  0  0  0  0  0  0  0  # atno 17342 bound_to 10162
  140.7558  143.3053  151.2977 LP  0  0  0  0  0  0  0  0  0  0  0  0  # atno 17343 bound_to 10162
  157.7438  130.9919  150.2619 LP  0  0  0  0  0  0  0  0  0  0  0  0  # atno 17370 bound_to 10713
  156.3156  130.3778  149.7622 LP  0  0  0  0  0  0  0  0  0  0  0  0  # atno 17371 bound_to 10713
  140.1059  134.9506  157.1994 LP  0  0  0  0  0  0  0  0  0  0  0  0  # atno 17394 bound_to 11000
  140.3256  134.2867  155.7237 LP  0  0  0  0  0  0  0  0  0  0  0  0  # atno 17395 bound_to 11000

$$$$
