AV-unprocessed.smi:2772|AV-procd|sdf|10667|dock9
  -GOLD-   2272015113D 1   1.00000     0.00000
 Structure written by MMmdl.
 55 57  0  0  0  0  0  0  0  0  3 V2000
  154.0627  141.4968  161.1471 C   0  0  0  0  0  0  0  0  0  0  0  0
  153.1230  141.8820  160.0240 C   0  0  0  0  0  0  0  0  0  0  0  0
  153.0739  143.2061  159.5422 C   0  0  0  0  0  0  0  0  0  0  0  0
  152.1860  143.5074  158.4914 C   0  0  0  0  0  0  0  0  0  0  0  0
  151.3846  142.4713  157.9539 C   0  0  0  0  0  0  0  0  0  0  0  0
  150.4453  142.6499  156.9022 N   0  0  0  0  0  0  0  0  0  0  0  0
  149.6465  141.7313  156.3319 C   0  0  0  0  0  0  0  0  0  0  0  0
  149.5985  140.5400  156.6373 O   0  0  0  0  0  0  0  0  0  0  0  0
  148.8726  142.2794  155.3835 N   0  0  0  0  0  0  0  0  0  0  0  0
  147.8867  141.5548  154.5859 C   0  0  2  0  0  0  0  0  0  0  0  0
  146.6318  141.2702  155.4310 C   0  0  0  0  0  0  0  0  0  0  0  0
  145.6271  140.3949  154.6556 C   0  0  0  0  0  0  0  0  0  0  0  0
  146.2372  139.1110  154.2030 N   0  3  2  0  0  0  0  0  0  0  0  0
  146.4952  138.1036  155.2914 C   0  0  2  0  0  0  0  0  0  0  0  0
  146.9395  136.7176  154.7630 C   0  0  0  0  0  0  0  0  0  0  0  0
  145.8071  136.0026  154.0024 C   0  0  0  0  0  0  0  0  0  0  0  0
  144.6111  135.8348  154.8655 N   0  3  2  0  0  0  0  0  0  0  0  0
  143.5318  135.0786  154.1944 C   0  0  0  0  0  0  0  0  0  0  0  0
  144.1349  137.1240  155.4269 C   0  0  0  0  0  0  0  0  0  0  0  0
  145.2618  137.8443  156.1907 C   0  0  0  0  0  0  0  0  0  0  0  0
  147.3982  139.4096  153.3159 C   0  0  0  0  0  0  0  0  0  0  0  0
  148.4762  140.2375  154.0410 C   0  0  0  0  0  0  0  0  0  0  0  0
  151.5019  141.1866  158.5255 C   0  0  0  0  0  0  0  0  0  0  0  0
  152.3512  140.8891  159.5320 N   0  0  0  0  0  0  0  0  0  0  0  0
  154.6820  142.3407  161.4521 H   0  0  0  0  0  0  0  0  0  0  0  0
  154.7230  140.6894  160.8292 H   0  0  0  0  0  0  0  0  0  0  0  0
  153.4971  141.1578  162.0152 H   0  0  0  0  0  0  0  0  0  0  0  0
  153.6990  143.9775  159.9676 H   0  0  0  0  0  0  0  0  0  0  0  0
  152.1305  144.5227  158.1311 H   0  0  0  0  0  0  0  0  0  0  0  0
  150.3163  143.6037  156.5977 H   0  0  0  0  0  0  0  0  0  0  0  0
  148.9764  143.2665  155.1988 H   0  0  0  0  0  0  0  0  0  0  0  0
  147.5876  142.1798  153.7420 H   0  0  0  0  0  0  0  0  0  0  0  0
  146.9076  140.7834  156.3669 H   0  0  0  0  0  0  0  0  0  0  0  0
  146.1552  142.2109  155.7096 H   0  0  0  0  0  0  0  0  0  0  0  0
  144.7195  140.2402  155.2341 H   0  0  0  0  0  0  0  0  0  0  0  0
  145.2972  140.9408  153.7703 H   0  0  0  0  0  0  0  0  0  0  0  0
  147.2956  138.4865  155.9238 H   0  0  0  0  0  0  0  0  0  0  0  0
  147.8422  136.7714  154.1570 H   0  0  0  0  0  0  0  0  0  0  0  0
  147.2256  136.0961  155.6131 H   0  0  0  0  0  0  0  0  0  0  0  0
  145.5399  136.5607  153.1038 H   0  0  0  0  0  0  0  0  0  0  0  0
  146.1537  135.0222  153.6731 H   0  0  0  0  0  0  0  0  0  0  0  0
  143.1528  135.6214  153.3276 H   0  0  0  0  0  0  0  0  0  0  0  0
  142.7009  134.9034  154.8788 H   0  0  0  0  0  0  0  0  0  0  0  0
  143.8940  134.1065  153.8579 H   0  0  0  0  0  0  0  0  0  0  0  0
  143.7527  137.7582  154.6255 H   0  0  0  0  0  0  0  0  0  0  0  0
  143.3009  136.9355  156.1041 H   0  0  0  0  0  0  0  0  0  0  0  0
  145.5666  137.2132  157.0267 H   0  0  0  0  0  0  0  0  0  0  0  0
  144.8902  138.7518  156.6618 H   0  0  0  0  0  0  0  0  0  0  0  0
  147.8244  138.5116  152.8746 H   0  0  0  0  0  0  0  0  0  0  0  0
  147.0320  139.9824  152.4628 H   0  0  0  0  0  0  0  0  0  0  0  0
  149.2911  140.4521  153.3487 H   0  0  0  0  0  0  0  0  0  0  0  0
  148.9147  139.6545  154.8517 H   0  0  0  0  0  0  0  0  0  0  0  0
  150.9011  140.3668  158.1596 H   0  0  0  0  0  0  0  0  0  0  0  0
  145.5473  138.6805  153.6040 H   0  0  0  0  0  0  0  0  0  0  0  0
  144.9035  135.2718  155.6521 H   0  0  0  0  0  0  0  0  0  0  0  0
  1  2  1  0  0  0  0
  1 25  1  0  0  0  0
  1 26  1  0  0  0  0
  1 27  1  0  0  0  0
  2 24  1  0  0  0  0
  2  3  2  0  0  0  0
  3  4  1  0  0  0  0
  3 28  1  0  0  0  0
  4  5  2  0  0  0  0
  4 29  1  0  0  0  0
  5  6  1  0  0  0  0
  5 23  1  0  0  0  0
  6  7  1  0  0  0  0
  6 30  1  0  0  0  0
  7  8  2  0  0  0  0
  7  9  1  0  0  0  0
  9 10  1  0  0  0  0
  9 31  1  0  0  0  0
 10 22  1  0  0  0  0
 10 11  1  0  0  0  0
 10 32  1  0  0  0  0
 11 12  1  0  0  0  0
 11 33  1  0  0  0  0
 11 34  1  0  0  0  0
 12 13  1  0  0  0  0
 12 35  1  0  0  0  0
 12 36  1  0  0  0  0
 13 14  1  0  0  0  0
 13 21  1  0  0  0  0
 13 54  1  0  0  0  0
 14 20  1  0  0  0  0
 14 15  1  0  0  0  0
 14 37  1  0  0  0  0
 15 16  1  0  0  0  0
 15 38  1  0  0  0  0
 15 39  1  0  0  0  0
 16 17  1  0  0  0  0
 16 40  1  0  0  0  0
 16 41  1  0  0  0  0
 17 18  1  0  0  0  0
 17 19  1  0  0  0  0
 17 55  1  0  0  0  0
 18 42  1  0  0  0  0
 18 43  1  0  0  0  0
 18 44  1  0  0  0  0
 19 20  1  0  0  0  0
 19 45  1  0  0  0  0
 19 46  1  0  0  0  0
 20 47  1  0  0  0  0
 20 48  1  0  0  0  0
 21 22  1  0  0  0  0
 21 49  1  0  0  0  0
 21 50  1  0  0  0  0
 22 51  1  0  0  0  0
 22 52  1  0  0  0  0
 23 24  2  0  0  0  0
 23 53  1  0  0  0  0
M  CHG  1  13   1
M  CHG  1  17   1
M  END
> <s_m_source_file>
AV-unprocessed.smi

> <i_m_source_file_index>
2772

> <i_lp_mmshare_version>
43012

> <i_f3d_flags>
0

> <s_epik_input>
W0NIM11jMVtjSF1bY0hdYyhbY0hdbjEpW05IXUMoPU8pW05IXVtDSF0yW0NIMl1bQ0gyXU4oW0NIMl1bQ0gyXTIpW0NIXTNbQ0gyXVtDSDJdTihbQ0gzXSlbQ0gyXVtDSDJdMw==

> <s_epik_cmdline>
J2VwaWtfcHl0aG9uJywgJy1waCcsICc3LjAnLCAnLXRuJywgJzgnLCAnLW1hJywgJzIwMCcsICctbWV0YWxfYmluZGluZycsICctaW1hZScsICc8aW5maWxlLm1hZT4nLCAnLW9tYWUnLCAnPG91dGZpbGUubWFlPic=

> <r_epik_Ionization_Penalty>
0.196786

> <r_epik_Ionization_Penalty_Charging>
0.180787

> <r_epik_Ionization_Penalty_Neutral>
0.0159988

> <r_epik_State_Penalty>
0.163322

> <r_epik_Charging_Adjusted_Penalty>
0.344109

> <i_epik_Tot_Q>
2

> <i_epik_Tot_abs_Q>
2

> <r_epik_Metal_State_Penalty>
0.163596

> <b_epik_Metal_Only>
0

> <s_lp_Force_Field>
OPLS_2005

> <r_lp_Energy>
49.9042

> <b_lp_Chiralities_Consistent>
1

> <s_lp_Variant>
AV-unprocessed.smi:2772-4

> <Gold.Version>
5.8.1

> <Gold.Id.Protein>
6NUR|6NUR_protein|mol2

> <Gold.PLP.Fitness>
36.5335

> <Gold.PLP.PLP>
-31.6207

> <Gold.PLP.part.hbond>
-1.7360

> <Gold.PLP.part.metal>
0.0000

> <Gold.PLP.part.buried>
-0.8059

> <Gold.PLP.part.nonpolar>
-29.0735

> <Gold.PLP.part.repulsive>
0.2267

> <Gold.PLP.ligand.clash>
0.0000

> <Gold.PLP.ligand.torsion>
0.2183

> <Gold.PLP.Chemscore.Hbond>
1.7684

> <Gold.PLP.Chemscore.CHOScore>
0.0000

> <Gold.PLP.Chemscore.Metal>
0.0000

> <Gold.Chemscore.Hbonds>
donor molecule, donor type, donor heavy atom, donor atom, acceptor molecule, acceptor atom, score
      L1  H     6    30       P1  8028  0.78
      L1  H     9    31       P1  8028  0.96

> <Gold.PLP.Chemscore.Internal.Correction>
0.0441

> <Gold.Rescore>
     Score         DG    S(hbond)    S(metal)    S(lipo)     H(rot)  DE(clash)    DE(int)     intcor
     16.42     -19.40       1.87        0.00      92.13       1.21       0.13       2.85       ----

> <Gold.Chemscore.Fitness>
16.4194

> <Gold.Chemscore.DG>
-19.4000

> <Gold.Chemscore.ZeroCoef>
-5.4800

> <Gold.Chemscore.Hbond>
1.8673

> <Gold.Chemscore.Metal>
0.0000

> <Gold.Chemscore.Lipo>
92.1250

> <Gold.Chemscore.Internal_Hbond>
0.0000

> <Gold.Chemscore.DEClash>
0.1328

> <Gold.Chemscore.DEInternal>
2.8478

> <Gold.Chemscore.Rot>
1.2092

> <Gold.Chemscore.Internal.Correction>
   9.000000E+99

> <Gold.Chemscore.Hbonds>
donor molecule, donor type, donor heavy atom, donor atom, acceptor molecule, acceptor atom, score
      L1  H     6    30       P1  8028  0.72
      L1  H     9    31       P1  8028  0.87

> <Gold.Chemscore.Hbond.Weighted>
-6.2369

> <Gold.Chemscore.Metal.Weighted>
-0.0000

> <Gold.Chemscore.Lipo.Weighted>
-10.7786

> <Gold.Chemscore.Internal_Hbond.Weighted>
0.0000

> <Gold.Chemscore.DEClash.Weighted>
0.1328

> <Gold.Chemscore.DEInternal.Weighted>
2.8478

> <Gold.Chemscore.Rot.Weighted>
3.0955

> <Gold.Chemscore.Internal.Correction.Weighted>
   9.000000E+99

> <Gold.Protein.RotatedTorsions>
[ 6907 6896 6895 6894 ] final  174.21 input  -60.11 | X-H torsion
[ 7974 7965 7964 7962 ] final -111.65 input  175.53 | X-H torsion
[ 8008 7997 7996 7995 ] final   49.43 input   59.86 | X-H torsion
[ 10167 10162 10161 10158 ] final  -22.41 input  -65.29 | X-H torsion
[ 10718 10713 10712 10709 ] final -140.76 input   66.30 | X-H torsion
[ 10763 10752 10751 10750 ] final  124.78 input  -60.55 | X-H torsion
[ 11005 11000 10999 10996 ] final -177.21 input  -57.11 | X-H torsion

> <Gold.Protein.ActiveResidues>
 VAL166  LYS551  ARG553  GLY616  TRP617  ASP618  TYR619  PRO620  LYS621  CYS622 
 ASP623  PHE694  ASN695  SER759  ASP760  ASP761  ALA762  ILE779  LEU786  VAL792 
 PHE793  MET794  SER795  GLU796  ALA797  LYS798  CYS799  TRP800  GLU811  SER814 

> <Gold.Protein.RotatedAtoms>
  151.7559  133.3330  159.3404 H   0  0  0  0  0  0  0  0  0  0  0  0  # atno 6907 bound_to 6896
  150.7517  134.6150  159.6115 H   0  0  0  0  0  0  0  0  0  0  0  0  # atno 6908 bound_to 6896
  152.3437  134.7101  160.0308 H   0  0  0  0  0  0  0  0  0  0  0  0  # atno 6909 bound_to 6896
  145.1535  140.8842  143.3632 H   0  0  0  0  0  0  0  0  0  0  0  0  # atno 7974 bound_to 7965
  155.4021  140.3438  155.4257 H   0  0  0  0  0  0  0  0  0  0  0  0  # atno 8008 bound_to 7997
  156.1498  140.1567  156.8821 H   0  0  0  0  0  0  0  0  0  0  0  0  # atno 8009 bound_to 7997
  154.5042  140.0806  156.7841 H   0  0  0  0  0  0  0  0  0  0  0  0  # atno 8010 bound_to 7997
  140.7286  143.4537  151.0479 H   0  0  0  0  0  0  0  0  0  0  0  0  # atno 10167 bound_to 10162
  156.3261  130.7560  151.1669 H   0  0  0  0  0  0  0  0  0  0  0  0  # atno 10718 bound_to 10713
  153.6668  135.3337  155.3142 H   0  0  0  0  0  0  0  0  0  0  0  0  # atno 10763 bound_to 10752
  154.8501  135.4376  154.1747 H   0  0  0  0  0  0  0  0  0  0  0  0  # atno 10764 bound_to 10752
  153.2728  135.7002  153.7539 H   0  0  0  0  0  0  0  0  0  0  0  0  # atno 10765 bound_to 10752
  140.4435  134.6409  157.4768 H   0  0  0  0  0  0  0  0  0  0  0  0  # atno 11005 bound_to 11000
  145.0405  139.3264  143.5979 LP  0  0  0  0  0  0  0  0  0  0  0  0  # atno 17320 bound_to 7965
  146.3491  139.9777  142.8699 LP  0  0  0  0  0  0  0  0  0  0  0  0  # atno 17321 bound_to 7965
  139.8216  143.7812  152.3177 LP  0  0  0  0  0  0  0  0  0  0  0  0  # atno 17342 bound_to 10162
  139.7897  144.7415  150.9972 LP  0  0  0  0  0  0  0  0  0  0  0  0  # atno 17343 bound_to 10162
  157.7421  131.0494  150.5046 LP  0  0  0  0  0  0  0  0  0  0  0  0  # atno 17370 bound_to 10713
  156.5205  130.4161  149.6253 LP  0  0  0  0  0  0  0  0  0  0  0  0  # atno 17371 bound_to 10713
  140.0054  134.6772  155.9464 LP  0  0  0  0  0  0  0  0  0  0  0  0  # atno 17394 bound_to 11000
  141.1695  133.6537  156.4600 LP  0  0  0  0  0  0  0  0  0  0  0  0  # atno 17395 bound_to 11000

$$$$
