AV-unprocessed.smi:3249|AV-procd|sdf|12423|dock2
  -GOLD-   2272018303D 1   1.00000     0.00000
 Structure written by MMmdl.
 44 45  0  0  0  0  0  0  0  0  2 V2000
  151.2632  142.4871  157.7719 C   0  0  0  0  0  0  0  0  0  0  0  0
  150.7807  141.6788  156.6022 C   0  0  0  0  0  0  0  0  0  0  0  0
  151.4448  140.6027  155.9487 C   0  0  0  0  0  0  0  0  0  0  0  0
  150.7391  140.0933  154.9525 N   0  0  0  0  0  0  0  0  0  0  0  0
  149.6099  140.8335  154.9201 N   0  0  0  0  0  0  0  0  0  0  0  0
  148.5700  140.5204  153.9457 C   0  0  2  0  0  0  0  0  0  0  0  0
  147.3528  141.4372  154.1703 C   0  0  0  0  0  0  0  0  0  0  0  0
  148.2237  139.0089  153.9825 C   0  0  1  0  0  0  0  0  0  0  0  0
  147.0502  138.6914  154.9284 C   0  0  0  0  0  0  0  0  0  0  0  0
  147.9088  138.5343  152.6142 N   0  3  0  0  0  0  0  0  0  0  0  0
  146.4818  138.5889  152.2348 C   0  0  0  0  0  0  0  0  0  0  0  0
  145.8620  137.1851  152.2432 C   0  0  1  0  0  0  0  0  0  0  0  0
  144.3907  137.2083  152.7010 C   0  0  0  0  0  0  0  0  0  0  0  0
  143.7770  135.8063  152.6133 C   0  0  0  0  0  0  0  0  0  0  0  0
  143.9873  135.2372  151.2065 C   0  0  0  0  0  0  0  0  0  0  0  0
  145.4704  135.3199  150.8124 C   0  0  0  0  0  0  0  0  0  0  0  0
  145.9264  136.6656  150.9165 O   0  0  0  0  0  0  0  0  0  0  0  0
  149.6065  141.7924  155.9137 C   0  0  0  0  0  0  0  0  0  0  0  0
  152.3068  142.2771  158.0071 H   0  0  0  0  0  0  0  0  0  0  0  0
  150.6832  142.2782  158.6710 H   0  0  0  0  0  0  0  0  0  0  0  0
  151.1872  143.5574  157.5803 H   0  0  0  0  0  0  0  0  0  0  0  0
  152.4109  140.1742  156.1723 H   0  0  0  0  0  0  0  0  0  0  0  0
  148.9670  140.7538  152.9555 H   0  0  0  0  0  0  0  0  0  0  0  0
  146.6325  141.3570  153.3568 H   0  0  0  0  0  0  0  0  0  0  0  0
  147.6572  142.4832  154.2204 H   0  0  0  0  0  0  0  0  0  0  0  0
  146.8352  141.1973  155.0995 H   0  0  0  0  0  0  0  0  0  0  0  0
  149.1069  138.4729  154.3344 H   0  0  0  0  0  0  0  0  0  0  0  0
  147.2857  138.9453  155.9614 H   0  0  0  0  0  0  0  0  0  0  0  0
  146.8026  137.6301  154.9200 H   0  0  0  0  0  0  0  0  0  0  0  0
  146.1529  139.2426  154.6455 H   0  0  0  0  0  0  0  0  0  0  0  0
  148.4545  139.0613  151.9470 H   0  0  0  0  0  0  0  0  0  0  0  0
  145.9554  139.2224  152.9501 H   0  0  0  0  0  0  0  0  0  0  0  0
  146.3660  139.0472  151.2524 H   0  0  0  0  0  0  0  0  0  0  0  0
  146.4392  136.5450  152.9134 H   0  0  0  0  0  0  0  0  0  0  0  0
  144.3164  137.5830  153.7224 H   0  0  0  0  0  0  0  0  0  0  0  0
  143.8207  137.8955  152.0740 H   0  0  0  0  0  0  0  0  0  0  0  0
  144.2473  135.1522  153.3488 H   0  0  0  0  0  0  0  0  0  0  0  0
  142.7146  135.8389  152.8562 H   0  0  0  0  0  0  0  0  0  0  0  0
  143.6404  134.2045  151.1604 H   0  0  0  0  0  0  0  0  0  0  0  0
  143.3888  135.8008  150.4896 H   0  0  0  0  0  0  0  0  0  0  0  0
  146.0781  134.6687  151.4426 H   0  0  0  0  0  0  0  0  0  0  0  0
  145.6036  134.9819  149.7846 H   0  0  0  0  0  0  0  0  0  0  0  0
  148.7753  142.4684  156.0509 H   0  0  0  0  0  0  0  0  0  0  0  0
  148.1936  137.5662  152.5601 H   0  0  0  0  0  0  0  0  0  0  0  0
  1  2  1  0  0  0  0
  1 19  1  0  0  0  0
  1 20  1  0  0  0  0
  1 21  1  0  0  0  0
  2 18  2  0  0  0  0
  2  3  1  0  0  0  0
  3  4  2  0  0  0  0
  3 22  1  0  0  0  0
  4  5  1  0  0  0  0
  5  6  1  0  0  0  0
  5 18  1  0  0  0  0
  6  7  1  0  0  0  0
  6  8  1  0  0  0  0
  6 23  1  0  0  0  0
  7 24  1  0  0  0  0
  7 25  1  0  0  0  0
  7 26  1  0  0  0  0
  8  9  1  0  0  0  0
  8 10  1  0  0  0  0
  8 27  1  0  0  0  0
  9 28  1  0  0  0  0
  9 29  1  0  0  0  0
  9 30  1  0  0  0  0
 10 11  1  0  0  0  0
 10 31  1  0  0  0  0
 10 44  1  0  0  0  0
 11 12  1  0  0  0  0
 11 32  1  0  0  0  0
 11 33  1  0  0  0  0
 12 17  1  0  0  0  0
 12 13  1  0  0  0  0
 12 34  1  0  0  0  0
 13 14  1  0  0  0  0
 13 35  1  0  0  0  0
 13 36  1  0  0  0  0
 14 15  1  0  0  0  0
 14 37  1  0  0  0  0
 14 38  1  0  0  0  0
 15 16  1  0  0  0  0
 15 39  1  0  0  0  0
 15 40  1  0  0  0  0
 16 17  1  0  0  0  0
 16 41  1  0  0  0  0
 16 42  1  0  0  0  0
 18 43  1  0  0  0  0
M  CHG  1  10   1
M  END
> <s_m_source_file>
AV-unprocessed.smi

> <i_m_source_file_index>
3249

> <i_lp_mmshare_version>
43012

> <i_f3d_flags>
0

> <s_epik_input>
W0NIM11jMVtjSF1ubihbY0hdMSlbQ0BIXShbQ0gzXSlbQ0BIXShbQ0gzXSlbTkhdW0NIMl1bQ0BASF0yW0NIMl1bQ0gyXVtDSDJdW0NIMl1PMg==

> <s_epik_cmdline>
J2VwaWtfcHl0aG9uJywgJy1waCcsICc3LjAnLCAnLXRuJywgJzgnLCAnLW1hJywgJzIwMCcsICctbWV0YWxfYmluZGluZycsICctaW1hZScsICc8aW5maWxlLm1hZT4nLCAnLW9tYWUnLCAnPG91dGZpbGUubWFlPic=

> <r_lp_tautomer_probability>
1

> <r_epik_Ionization_Penalty>
0.00659207

> <r_epik_Ionization_Penalty_Charging>
0.00656881

> <r_epik_Ionization_Penalty_Neutral>
2.32662e-05

> <r_epik_State_Penalty>
0.0048654

> <r_epik_Charging_Adjusted_Penalty>
0.0114342

> <i_epik_Tot_Q>
1

> <i_epik_Tot_abs_Q>
1

> <r_epik_Metal_State_Penalty>
-0

> <b_epik_Metal_Only>
0

> <s_lp_Force_Field>
OPLS_2005

> <r_lp_Energy>
17.4327

> <b_lp_Chiralities_Consistent>
1

> <s_lp_Variant>
AV-unprocessed.smi:3249-7

> <Gold.Version>
5.8.1

> <Gold.Id.Protein>
6NUR|6NUR_protein|mol2

> <Gold.PLP.Fitness>
46.1909

> <Gold.PLP.PLP>
-35.5858

> <Gold.PLP.part.hbond>
-3.0000

> <Gold.PLP.part.metal>
0.0000

> <Gold.PLP.part.buried>
0.0590

> <Gold.PLP.part.nonpolar>
-33.9517

> <Gold.PLP.part.repulsive>
0.9456

> <Gold.PLP.ligand.clash>
0.0000

> <Gold.PLP.ligand.torsion>
2.0684

> <Gold.PLP.Chemscore.Hbond>
4.0000

> <Gold.PLP.Chemscore.CHOScore>
0.8776

> <Gold.PLP.Chemscore.Metal>
0.0000

> <Gold.Chemscore.Hbonds>
donor molecule, donor type, donor heavy atom, donor atom, acceptor molecule, acceptor atom, score
      L1  H    10    31       P1  7957  1.00
      L1  H    10    44       P1  7948  2.00
      P1  H  7989  7998       L1     4  0.95
      L1  C    18    43       P1  8028  0.89

> <Gold.PLP.Chemscore.Internal.Correction>
0.1091

> <Gold.Rescore>
     Score         DG    S(hbond)    S(metal)    S(lipo)     H(rot)  DE(clash)    DE(int)     intcor
     17.48     -19.84       2.79        0.00      76.81       1.53       0.43       1.93       ----

> <Gold.Chemscore.Fitness>
17.4826

> <Gold.Chemscore.DG>
-19.8446

> <Gold.Chemscore.ZeroCoef>
-5.4800

> <Gold.Chemscore.Hbond>
2.7853

> <Gold.Chemscore.Metal>
0.0000

> <Gold.Chemscore.Lipo>
76.8100

> <Gold.Chemscore.Internal_Hbond>
0.0000

> <Gold.Chemscore.DEClash>
0.4321

> <Gold.Chemscore.DEInternal>
1.9299

> <Gold.Chemscore.Rot>
1.5333

> <Gold.Chemscore.Internal.Correction>
   9.000000E+99

> <Gold.Chemscore.Hbonds>
donor molecule, donor type, donor heavy atom, donor atom, acceptor molecule, acceptor atom, score
      L1  H    10    31       P1  7957  0.97
      L1  H    10    44       P1  7948  0.97
      P1  H  7989  7998       L1     4  0.06

> <Gold.Chemscore.Hbond.Weighted>
-9.3030

> <Gold.Chemscore.Metal.Weighted>
-0.0000

> <Gold.Chemscore.Lipo.Weighted>
-8.9868

> <Gold.Chemscore.Internal_Hbond.Weighted>
0.0000

> <Gold.Chemscore.DEClash.Weighted>
0.4321

> <Gold.Chemscore.DEInternal.Weighted>
1.9299

> <Gold.Chemscore.Rot.Weighted>
3.9252

> <Gold.Chemscore.Internal.Correction.Weighted>
   9.000000E+99

> <Gold.Protein.RotatedTorsions>
[ 6907 6896 6895 6894 ] final   70.84 input  -60.11 | X-H torsion
[ 7974 7965 7964 7962 ] final   90.80 input  175.53 | X-H torsion
[ 8008 7997 7996 7995 ] final  -62.84 input   59.86 | X-H torsion
[ 10167 10162 10161 10158 ] final  -80.81 input  -65.29 | X-H torsion
[ 10718 10713 10712 10709 ] final  125.85 input   66.30 | X-H torsion
[ 10763 10752 10751 10750 ] final  -32.16 input  -60.55 | X-H torsion
[ 11005 11000 10999 10996 ] final   17.41 input  -57.11 | X-H torsion

> <Gold.Protein.ActiveResidues>
 VAL166  LYS551  ARG553  GLY616  TRP617  ASP618  TYR619  PRO620  LYS621  CYS622 
 ASP623  PHE694  ASN695  SER759  ASP760  ASP761  ALA762  ILE779  LEU786  VAL792 
 PHE793  MET794  SER795  GLU796  ALA797  LYS798  CYS799  TRP800  GLU811  SER814 

> <Gold.Protein.RotatedAtoms>
  152.4774  134.4809  159.9665 H   0  0  0  0  0  0  0  0  0  0  0  0  # atno 6907 bound_to 6896
  151.4823  133.3538  159.2848 H   0  0  0  0  0  0  0  0  0  0  0  0  # atno 6908 bound_to 6896
  150.8821  134.8240  159.7294 H   0  0  0  0  0  0  0  0  0  0  0  0  # atno 6909 bound_to 6896
  145.5142  139.2277  143.2707 H   0  0  0  0  0  0  0  0  0  0  0  0  # atno 7974 bound_to 7965
  154.4521  140.0987  156.6649 H   0  0  0  0  0  0  0  0  0  0  0  0  # atno 8008 bound_to 7997
  155.5252  140.3480  155.4396 H   0  0  0  0  0  0  0  0  0  0  0  0  # atno 8009 bound_to 7997
  156.0703  140.1348  156.9826 H   0  0  0  0  0  0  0  0  0  0  0  0  # atno 8010 bound_to 7997
  140.4469  143.2496  151.8545 H   0  0  0  0  0  0  0  0  0  0  0  0  # atno 10167 bound_to 10162
  157.5468  131.1095  150.8768 H   0  0  0  0  0  0  0  0  0  0  0  0  # atno 10718 bound_to 10713
  153.8092  135.6884  153.4843 H   0  0  0  0  0  0  0  0  0  0  0  0  # atno 10763 bound_to 10752
  153.1639  135.4569  154.9808 H   0  0  0  0  0  0  0  0  0  0  0  0  # atno 10764 bound_to 10752
  154.7974  135.3324  154.7574 H   0  0  0  0  0  0  0  0  0  0  0  0  # atno 10765 bound_to 10752
  140.4363  134.1368  155.7685 H   0  0  0  0  0  0  0  0  0  0  0  0  # atno 11005 bound_to 11000
  146.2147  140.5951  142.9044 LP  0  0  0  0  0  0  0  0  0  0  0  0  # atno 17320 bound_to 7965
  144.7711  140.5639  143.6670 LP  0  0  0  0  0  0  0  0  0  0  0  0  # atno 17321 bound_to 7965
  139.4793  144.5165  151.8861 LP  0  0  0  0  0  0  0  0  0  0  0  0  # atno 17342 bound_to 10162
  140.4253  144.2188  150.5887 LP  0  0  0  0  0  0  0  0  0  0  0  0  # atno 17343 bound_to 10162
  156.9305  130.5348  149.5279 LP  0  0  0  0  0  0  0  0  0  0  0  0  # atno 17370 bound_to 10713
  156.0542  130.5607  150.9056 LP  0  0  0  0  0  0  0  0  0  0  0  0  # atno 17371 bound_to 10713
  141.1724  133.8581  157.1528 LP  0  0  0  0  0  0  0  0  0  0  0  0  # atno 17394 bound_to 11000
  140.0100  134.9992  157.0375 LP  0  0  0  0  0  0  0  0  0  0  0  0  # atno 17395 bound_to 11000

$$$$
