AV-unprocessed.smi:1399|AV-procd|sdf|5683|dock10
  -GOLD-   22720 5303D 1   1.00000     0.00000
 Structure written by MMmdl.
 38 39  0  0  0  0  0  0  0  0  2 V2000
  142.2446  138.0987  152.9172 N   0  0  0  0  0  0  0  0  0  0  0  0
  142.9346  137.1729  153.5870 C   0  0  0  0  0  0  0  0  0  0  0  0
  142.6640  135.9754  153.5167 O   0  0  0  0  0  0  0  0  0  0  0  0
  144.0806  137.6711  154.4734 C   0  0  0  0  0  0  0  0  0  0  0  0
  145.0508  138.5279  153.7436 N   0  3  2  0  0  0  0  0  0  0  0  0
  145.7480  137.7941  152.6570 C   0  0  0  0  0  0  0  0  0  0  0  0
  146.6275  138.7417  151.8212 C   0  0  0  0  0  0  0  0  0  0  0  0
  147.6323  139.5172  152.6908 C   0  0  2  0  0  0  0  0  0  0  0  0
  148.6819  138.6257  153.1863 N   0  0  0  0  0  0  0  0  0  0  0  0
  149.7373  138.9873  153.9307 C   0  0  0  0  0  0  0  0  0  0  0  0
  149.9527  140.1416  154.2986 O   0  0  0  0  0  0  0  0  0  0  0  0
  150.5139  137.9295  154.2149 N   0  0  0  0  0  0  0  0  0  0  0  0
  151.7170  137.9248  154.9642 C   0  0  0  0  0  0  0  0  0  0  0  0
  152.9629  138.5558  154.6759 C   0  0  0  0  0  0  0  0  0  0  0  0
  153.8541  138.3129  155.6266 N   0  0  0  0  0  0  0  0  0  0  0  0
  153.1932  137.5358  156.5139 N   0  0  0  0  0  0  0  0  0  0  0  0
  151.8910  137.2749  156.1496 C   0  0  0  0  0  0  0  0  0  0  0  0
  146.9009  140.2009  153.8593 C   0  0  0  0  0  0  0  0  0  0  0  0
  146.0155  139.2157  154.6434 C   0  0  0  0  0  0  0  0  0  0  0  0
  153.6400  137.1954  157.3535 H   0  0  0  0  0  0  0  0  0  0  0  0
  141.4760  137.8175  152.3248 H   0  0  0  0  0  0  0  0  0  0  0  0
  142.4834  139.0760  153.0050 H   0  0  0  0  0  0  0  0  0  0  0  0
  143.6907  138.2035  155.3426 H   0  0  0  0  0  0  0  0  0  0  0  0
  144.5880  136.7826  154.8517 H   0  0  0  0  0  0  0  0  0  0  0  0
  146.3513  136.9923  153.0860 H   0  0  0  0  0  0  0  0  0  0  0  0
  145.0152  137.3210  152.0024 H   0  0  0  0  0  0  0  0  0  0  0  0
  147.1517  138.1821  151.0452 H   0  0  0  0  0  0  0  0  0  0  0  0
  145.9855  139.4524  151.2988 H   0  0  0  0  0  0  0  0  0  0  0  0
  148.0772  140.2976  152.0716 H   0  0  0  0  0  0  0  0  0  0  0  0
  148.6005  137.6508  152.9388 H   0  0  0  0  0  0  0  0  0  0  0  0
  150.2162  137.0342  153.8564 H   0  0  0  0  0  0  0  0  0  0  0  0
  153.2534  139.1659  153.8336 H   0  0  0  0  0  0  0  0  0  0  0  0
  151.2260  136.6693  156.7478 H   0  0  0  0  0  0  0  0  0  0  0  0
  147.6191  140.6759  154.5290 H   0  0  0  0  0  0  0  0  0  0  0  0
  146.2754  141.0044  153.4681 H   0  0  0  0  0  0  0  0  0  0  0  0
  145.4816  139.7624  155.4209 H   0  0  0  0  0  0  0  0  0  0  0  0
  146.6331  138.4741  155.1523 H   0  0  0  0  0  0  0  0  0  0  0  0
  144.5025  139.2477  153.2937 H   0  0  0  0  0  0  0  0  0  0  0  0
  1  2  1  0  0  0  0
  1 21  1  0  0  0  0
  1 22  1  0  0  0  0
  2  3  2  0  0  0  0
  2  4  1  0  0  0  0
  4  5  1  0  0  0  0
  4 23  1  0  0  0  0
  4 24  1  0  0  0  0
  5 19  1  0  0  0  0
  5  6  1  0  0  0  0
  5 38  1  0  0  0  0
  6  7  1  0  0  0  0
  6 25  1  0  0  0  0
  6 26  1  0  0  0  0
  7  8  1  0  0  0  0
  7 27  1  0  0  0  0
  7 28  1  0  0  0  0
  8  9  1  0  0  0  0
  8 18  1  0  0  0  0
  8 29  1  0  0  0  0
  9 10  1  0  0  0  0
  9 30  1  0  0  0  0
 10 11  2  0  0  0  0
 10 12  1  0  0  0  0
 12 13  1  0  0  0  0
 12 31  1  0  0  0  0
 13 17  2  0  0  0  0
 13 14  1  0  0  0  0
 14 15  2  0  0  0  0
 14 32  1  0  0  0  0
 15 16  1  0  0  0  0
 16 20  1  0  0  0  0
 16 17  1  0  0  0  0
 17 33  1  0  0  0  0
 18 19  1  0  0  0  0
 18 34  1  0  0  0  0
 18 35  1  0  0  0  0
 19 36  1  0  0  0  0
 19 37  1  0  0  0  0
M  CHG  1   5   1
M  END
> <s_m_source_file>
AV-unprocessed.smi

> <i_m_source_file_index>
1399

> <i_lp_mmshare_version>
43012

> <i_f3d_flags>
0

> <s_epik_input>
W05IMl1DKD1PKVtDSDJdTjFbQ0gyXVtDSDJdW0NIXShbQ0gyXVtDSDJdMSlbTkhdQyg9TylbTkhdYzJbY0hdbltuSF1bY0hdMg==

> <s_epik_cmdline>
J2VwaWtfcHl0aG9uJywgJy1waCcsICc3LjAnLCAnLXRuJywgJzgnLCAnLW1hJywgJzIwMCcsICctbWV0YWxfYmluZGluZycsICctaW1hZScsICc8aW5maWxlLm1hZT4nLCAnLW9tYWUnLCAnPG91dGZpbGUubWFlPic=

> <r_lp_tautomer_probability>
0.5

> <r_epik_Ionization_Penalty>
0.838927

> <r_epik_Ionization_Penalty_Charging>
0.838844

> <r_epik_Ionization_Penalty_Neutral>
8.28742e-05

> <r_epik_State_Penalty>
0.8734

> <r_epik_Charging_Adjusted_Penalty>
1.71224

> <i_epik_Tot_Q>
1

> <i_epik_Tot_abs_Q>
1

> <r_epik_Metal_State_Penalty>
0.890702

> <b_epik_Metal_Only>
0

> <s_lp_Force_Field>
OPLS_2005

> <r_lp_Energy>
14.6422

> <b_lp_Chiralities_Consistent>
1

> <s_lp_Variant>
AV-unprocessed.smi:1399-3

> <Gold.Version>
5.8.1

> <Gold.Id.Protein>
6NUR|6NUR_protein|mol2

> <Gold.PLP.Fitness>
42.7125

> <Gold.PLP.PLP>
-27.5658

> <Gold.PLP.part.hbond>
-6.2463

> <Gold.PLP.part.metal>
0.0000

> <Gold.PLP.part.buried>
-0.9209

> <Gold.PLP.part.nonpolar>
-22.3779

> <Gold.PLP.part.repulsive>
0.5827

> <Gold.PLP.ligand.clash>
0.0000

> <Gold.PLP.ligand.torsion>
0.6850

> <Gold.PLP.Chemscore.Hbond>
5.4960

> <Gold.PLP.Chemscore.CHOScore>
0.0000

> <Gold.PLP.Chemscore.Metal>
0.0000

> <Gold.Chemscore.Hbonds>
donor molecule, donor type, donor heavy atom, donor atom, acceptor molecule, acceptor atom, score
      L1  H     1    22       P1 10175  0.94
      L1  H     5    38       P1 10175  2.00
      L1  H     9    30       P1  7948  1.00
      P1  H  7989  7998       L1    11  0.96
      P1  H  7997  8008       L1    15  0.58

> <Gold.PLP.Chemscore.Internal.Correction>
0.0286

> <Gold.Rescore>
     Score         DG    S(hbond)    S(metal)    S(lipo)     H(rot)  DE(clash)    DE(int)     intcor
     17.26     -20.43       4.07        0.00      57.31       2.09       2.53       0.64       ----

> <Gold.Chemscore.Fitness>
17.2583

> <Gold.Chemscore.DG>
-20.4293

> <Gold.Chemscore.ZeroCoef>
-5.4800

> <Gold.Chemscore.Hbond>
4.0674

> <Gold.Chemscore.Metal>
0.0000

> <Gold.Chemscore.Lipo>
57.3125

> <Gold.Chemscore.Internal_Hbond>
0.0000

> <Gold.Chemscore.DEClash>
2.5328

> <Gold.Chemscore.DEInternal>
0.6382

> <Gold.Chemscore.Rot>
2.0865

> <Gold.Chemscore.Internal.Correction>
   9.000000E+99

> <Gold.Chemscore.Hbonds>
donor molecule, donor type, donor heavy atom, donor atom, acceptor molecule, acceptor atom, score
      L1  H     1    22       P1 10175  0.91
      L1  H     5    38       P1 10175  1.00
      L1  H     9    30       P1  7948  0.95
      L1  H    12    31       P1  7948  0.01
      P1  H  7989  7998       L1    11  0.74
      P1  H  7997  8008       L1    15  0.24

> <Gold.Chemscore.Hbond.Weighted>
-13.5852

> <Gold.Chemscore.Metal.Weighted>
-0.0000

> <Gold.Chemscore.Lipo.Weighted>
-6.7056

> <Gold.Chemscore.Internal_Hbond.Weighted>
0.0000

> <Gold.Chemscore.DEClash.Weighted>
2.5328

> <Gold.Chemscore.DEInternal.Weighted>
0.6382

> <Gold.Chemscore.Rot.Weighted>
5.3415

> <Gold.Chemscore.Internal.Correction.Weighted>
   9.000000E+99

> <Gold.Protein.RotatedTorsions>
[ 6907 6896 6895 6894 ] final   27.44 input  -60.11 | X-H torsion
[ 7974 7965 7964 7962 ] final   77.25 input  175.53 | X-H torsion
[ 8008 7997 7996 7995 ] final  -38.30 input   59.86 | X-H torsion
[ 10167 10162 10161 10158 ] final -152.37 input  -65.29 | X-H torsion
[ 10718 10713 10712 10709 ] final  -25.86 input   66.30 | X-H torsion
[ 10763 10752 10751 10750 ] final  126.32 input  -60.55 | X-H torsion
[ 11005 11000 10999 10996 ] final  -91.57 input  -57.11 | X-H torsion

> <Gold.Protein.ActiveResidues>
 VAL166  LYS551  ARG553  GLY616  TRP617  ASP618  TYR619  PRO620  LYS621  CYS622 
 ASP623  PHE694  ASN695  SER759  ASP760  ASP761  ALA762  ILE779  LEU786  VAL792 
 PHE793  MET794  SER795  GLU796  ALA797  LYS798  CYS799  TRP800  GLU811  SER814 

> <Gold.Protein.RotatedAtoms>
  152.0023  134.9921  160.0565 H   0  0  0  0  0  0  0  0  0  0  0  0  # atno 6907 bound_to 6896
  152.1507  133.4515  159.4820 H   0  0  0  0  0  0  0  0  0  0  0  0  # atno 6908 bound_to 6896
  150.6875  134.2110  159.4402 H   0  0  0  0  0  0  0  0  0  0  0  0  # atno 6909 bound_to 6896
  145.6924  139.2556  143.1752 H   0  0  0  0  0  0  0  0  0  0  0  0  # atno 7974 bound_to 7965
  154.4039  140.1581  156.2678 H   0  0  0  0  0  0  0  0  0  0  0  0  # atno 8008 bound_to 7997
  155.8980  140.3435  155.5983 H   0  0  0  0  0  0  0  0  0  0  0  0  # atno 8009 bound_to 7997
  155.7481  140.0801  157.2205 H   0  0  0  0  0  0  0  0  0  0  0  0  # atno 8010 bound_to 7997
  139.7188  143.8991  152.2495 H   0  0  0  0  0  0  0  0  0  0  0  0  # atno 10167 bound_to 10162
  156.4588  130.4499  149.6942 H   0  0  0  0  0  0  0  0  0  0  0  0  # atno 10718 bound_to 10713
  153.6915  135.3298  155.3203 H   0  0  0  0  0  0  0  0  0  0  0  0  # atno 10763 bound_to 10752
  154.8438  135.4432  154.1504 H   0  0  0  0  0  0  0  0  0  0  0  0  # atno 10764 bound_to 10752
  153.2547  135.6985  153.7720 H   0  0  0  0  0  0  0  0  0  0  0  0  # atno 10765 bound_to 10752
  141.1542  133.7764  156.9897 H   0  0  0  0  0  0  0  0  0  0  0  0  # atno 11005 bound_to 11000
  146.0870  140.7700  142.9614 LP  0  0  0  0  0  0  0  0  0  0  0  0  # atno 17320 bound_to 7965
  144.6992  140.3577  143.7170 LP  0  0  0  0  0  0  0  0  0  0  0  0  # atno 17321 bound_to 7965
  139.8881  144.6981  150.8801 LP  0  0  0  0  0  0  0  0  0  0  0  0  # atno 17342 bound_to 10162
  140.7749  143.3608  151.1832 LP  0  0  0  0  0  0  0  0  0  0  0  0  # atno 17343 bound_to 10162
  156.3738  130.7544  151.2530 LP  0  0  0  0  0  0  0  0  0  0  0  0  # atno 17370 bound_to 10713
  157.7499  131.0315  150.4186 LP  0  0  0  0  0  0  0  0  0  0  0  0  # atno 17371 bound_to 10713
  140.1011  134.9535  157.1924 LP  0  0  0  0  0  0  0  0  0  0  0  0  # atno 17394 bound_to 11000
  140.3318  134.2802  155.7227 LP  0  0  0  0  0  0  0  0  0  0  0  0  # atno 17395 bound_to 11000

$$$$
