AV-unprocessed.smi:281|AV-procd|sdf|2115|dock5
  -GOLD-   2262021413D 1   1.00000     0.00000
 Structure written by MMmdl.
 55 59  0  0  0  0  0  0  0  0  1 V2000
  152.4528  138.9928  154.9561 C   0  0  0  0  0  0  0  0  0  0  0  0
  150.9512  139.0590  155.2508 C   0  0  2  0  0  0  0  0  0  0  0  0
  150.2084  137.8075  154.7603 C   0  0  0  0  0  0  0  0  0  0  0  0
  148.7796  137.9656  154.9945 N   0  0  0  0  0  0  0  0  0  0  0  0
  148.0527  136.8217  154.9219 C   0  0  0  0  0  0  0  0  0  0  0  0
  148.3624  135.7672  155.7234 N   0  0  0  0  0  0  0  0  0  0  0  0
  147.6490  134.6391  155.6620 C   0  0  0  0  0  0  0  0  0  0  0  0
  146.6041  134.3544  154.8831 N   0  0  0  0  0  0  0  0  0  0  0  0
  146.2907  135.4051  154.0722 C   0  0  0  0  0  0  0  0  0  0  0  0
  146.9587  136.6615  154.0247 C   0  0  0  0  0  0  0  0  0  0  0  0
  146.3711  137.4716  153.0599 N   0  0  0  0  0  0  0  0  0  0  0  0
  145.4066  136.7401  152.5727 C   0  0  0  0  0  0  0  0  0  0  0  0
  145.2788  135.4881  153.1310 N   0  0  0  0  0  0  0  0  0  0  0  0
  144.2986  134.4700  152.7829 C   0  0  0  0  0  0  0  0  0  0  0  0
  144.4411  133.9372  151.3371 C   0  0  2  0  0  0  0  0  0  0  0  0
  143.9104  134.8918  150.4339 O   0  0  0  0  0  0  0  0  0  0  0  0
  143.7104  132.6174  151.1207 C   0  0  0  0  0  0  0  0  0  0  0  0
  144.5352  131.9498  150.0287 C   0  0  0  0  0  0  0  0  0  0  0  0
  145.8646  132.2783  150.3938 O   0  0  0  0  0  0  0  0  0  0  0  0
  145.8861  133.6073  150.9069 C   0  0  0  0  0  0  0  0  0  0  0  0
  148.2351  139.1689  154.3735 C   0  0  0  0  0  0  0  0  0  0  0  0
  149.0226  140.4304  154.8086 C   0  0  1  0  0  0  0  0  0  0  0  0
  148.5905  141.6337  153.9858 C   0  0  0  0  0  0  0  0  0  0  0  0
  147.3323  142.1041  154.7078 C   0  0  0  0  0  0  0  0  0  0  0  0
  147.5106  141.7411  156.0732 O   0  0  0  0  0  0  0  0  0  0  0  0
  148.6609  140.9117  156.2329 C   0  0  2  0  0  0  0  0  0  0  0  0
  149.7254  141.7951  156.9126 C   0  0  0  0  0  0  0  0  0  0  0  0
  150.4222  140.2157  154.6000 O   0  0  0  0  0  0  0  0  0  0  0  0
  152.9111  138.1323  155.4444 H   0  0  0  0  0  0  0  0  0  0  0  0
  152.9597  139.8881  155.3169 H   0  0  0  0  0  0  0  0  0  0  0  0
  152.6416  138.9113  153.8854 H   0  0  0  0  0  0  0  0  0  0  0  0
  150.8172  139.1444  156.3290 H   0  0  0  0  0  0  0  0  0  0  0  0
  150.3786  137.6614  153.6926 H   0  0  0  0  0  0  0  0  0  0  0  0
  150.6025  136.9271  155.2664 H   0  0  0  0  0  0  0  0  0  0  0  0
  147.9598  133.8522  156.3332 H   0  0  0  0  0  0  0  0  0  0  0  0
  144.7589  137.0985  151.7860 H   0  0  0  0  0  0  0  0  0  0  0  0
  144.3937  133.6505  153.4965 H   0  0  0  0  0  0  0  0  0  0  0  0
  143.3024  134.8892  152.9322 H   0  0  0  0  0  0  0  0  0  0  0  0
  143.0208  134.6485  150.2285 H   0  0  0  0  0  0  0  0  0  0  0  0
  143.7572  132.0068  152.0234 H   0  0  0  0  0  0  0  0  0  0  0  0
  142.6589  132.7346  150.8547 H   0  0  0  0  0  0  0  0  0  0  0  0
  144.3846  130.8710  149.9833 H   0  0  0  0  0  0  0  0  0  0  0  0
  144.3073  132.3734  149.0494 H   0  0  0  0  0  0  0  0  0  0  0  0
  146.2587  134.2960  150.1470 H   0  0  0  0  0  0  0  0  0  0  0  0
  146.5852  133.6334  151.7420 H   0  0  0  0  0  0  0  0  0  0  0  0
  148.2929  139.0536  153.2900 H   0  0  0  0  0  0  0  0  0  0  0  0
  147.1801  139.2766  154.6289 H   0  0  0  0  0  0  0  0  0  0  0  0
  149.3510  142.4143  154.0302 H   0  0  0  0  0  0  0  0  0  0  0  0
  148.4175  141.4061  152.9335 H   0  0  0  0  0  0  0  0  0  0  0  0
  147.1693  143.1766  154.5998 H   0  0  0  0  0  0  0  0  0  0  0  0
  146.4518  141.5890  154.3223 H   0  0  0  0  0  0  0  0  0  0  0  0
  148.4251  140.0723  156.8880 H   0  0  0  0  0  0  0  0  0  0  0  0
  150.6511  141.2535  157.1007 H   0  0  0  0  0  0  0  0  0  0  0  0
  149.3637  142.1557  157.8756 H   0  0  0  0  0  0  0  0  0  0  0  0
  149.9720  142.6689  156.3096 H   0  0  0  0  0  0  0  0  0  0  0  0
  1  2  1  0  0  0  0
  1 29  1  0  0  0  0
  1 30  1  0  0  0  0
  1 31  1  0  0  0  0
  2 28  1  0  0  0  0
  2  3  1  0  0  0  0
  2 32  1  0  0  0  0
  3  4  1  0  0  0  0
  3 33  1  0  0  0  0
  3 34  1  0  0  0  0
  4  5  1  0  0  0  0
  4 21  1  0  0  0  0
  5 10  1  0  0  0  0
  5  6  2  0  0  0  0
  6  7  1  0  0  0  0
  7  8  2  0  0  0  0
  7 35  1  0  0  0  0
  8  9  1  0  0  0  0
  9 13  1  0  0  0  0
  9 10  2  0  0  0  0
 10 11  1  0  0  0  0
 11 12  2  0  0  0  0
 12 13  1  0  0  0  0
 12 36  1  0  0  0  0
 13 14  1  0  0  0  0
 14 15  1  0  0  0  0
 14 37  1  0  0  0  0
 14 38  1  0  0  0  0
 15 20  1  0  0  0  0
 15 16  1  0  0  0  0
 15 17  1  0  0  0  0
 16 39  1  0  0  0  0
 17 18  1  0  0  0  0
 17 40  1  0  0  0  0
 17 41  1  0  0  0  0
 18 19  1  0  0  0  0
 18 42  1  0  0  0  0
 18 43  1  0  0  0  0
 19 20  1  0  0  0  0
 20 44  1  0  0  0  0
 20 45  1  0  0  0  0
 21 22  1  0  0  0  0
 21 46  1  0  0  0  0
 21 47  1  0  0  0  0
 22 26  1  0  0  0  0
 22 23  1  0  0  0  0
 22 28  1  0  0  0  0
 23 24  1  0  0  0  0
 23 48  1  0  0  0  0
 23 49  1  0  0  0  0
 24 25  1  0  0  0  0
 24 50  1  0  0  0  0
 24 51  1  0  0  0  0
 25 26  1  0  0  0  0
 26 27  1  0  0  0  0
 26 52  1  0  0  0  0
 27 53  1  0  0  0  0
 27 54  1  0  0  0  0
 27 55  1  0  0  0  0
M  END
> <s_m_source_file>
AV-unprocessed.smi

> <i_m_source_file_index>
281

> <i_lp_mmshare_version>
43012

> <i_f3d_flags>
0

> <s_epik_input>
W0NIM11bQ0BASF0xT1tDSDJdW0NIMl1bQ0BAXTEyW0NIMl1OKFtDSDJdW0NASF0oTzIpW0NIM10pYyhuW2NIXW4zKWMoYzM0KW5bY0hdbjRbQ0gyXVtDQEBdNShbT0hdKVtDSDJdW0NIMl1PW0NIMl01

> <s_epik_cmdline>
J2VwaWtfcHl0aG9uJywgJy1waCcsICc3LjAnLCAnLXRuJywgJzgnLCAnLW1hJywgJzIwMCcsICctbWV0YWxfYmluZGluZycsICctaW1hZScsICc8aW5maWxlLm1hZT4nLCAnLW9tYWUnLCAnPG91dGZpbGUubWFlPic=

> <r_lp_tautomer_probability>
1

> <r_epik_Ionization_Penalty>
0.00571331

> <r_epik_Ionization_Penalty_Charging>
0

> <r_epik_Ionization_Penalty_Neutral>
0.00571331

> <r_epik_State_Penalty>
0.00399586

> <r_epik_Charging_Adjusted_Penalty>
0.00399586

> <i_epik_Tot_Q>
0

> <i_epik_Tot_abs_Q>
0

> <r_epik_Metal_State_Penalty>
-0

> <b_epik_Metal_Only>
0

> <s_lp_Force_Field>
OPLS_2005

> <r_lp_Energy>
55.4075

> <b_lp_Chiralities_Consistent>
1

> <s_lp_Variant>
AV-unprocessed.smi:281-15

> <Gold.Version>
5.8.1

> <Gold.Id.Protein>
6NUR|6NUR_protein|mol2

> <Gold.PLP.Fitness>
43.7972

> <Gold.PLP.PLP>
-35.3154

> <Gold.PLP.part.hbond>
-2.0000

> <Gold.PLP.part.metal>
0.0000

> <Gold.PLP.part.buried>
-3.0093

> <Gold.PLP.part.nonpolar>
-31.8524

> <Gold.PLP.part.repulsive>
0.8127

> <Gold.PLP.ligand.clash>
0.0000

> <Gold.PLP.ligand.torsion>
0.4056

> <Gold.PLP.Chemscore.Hbond>
2.0000

> <Gold.PLP.Chemscore.CHOScore>
0.9981

> <Gold.PLP.Chemscore.Metal>
0.0000

> <Gold.Chemscore.Hbonds>
donor molecule, donor type, donor heavy atom, donor atom, acceptor molecule, acceptor atom, score
      L1  H    16    39       P1 10186  0.76
      P1  H  7989  7998       L1    28  1.00
      L1  C    12    36       P1 10171  0.76

> <Gold.PLP.Chemscore.Internal.Correction>
0.2987

> <Gold.Rescore>
     Score         DG    S(hbond)    S(metal)    S(lipo)     H(rot)  DE(clash)    DE(int)     intcor
     13.99     -16.65       1.79        0.00      90.31       2.09       0.59       2.07       ----

> <Gold.Chemscore.Fitness>
13.9905

> <Gold.Chemscore.DG>
-16.6509

> <Gold.Chemscore.ZeroCoef>
-5.4800

> <Gold.Chemscore.Hbond>
1.7850

> <Gold.Chemscore.Metal>
0.0000

> <Gold.Chemscore.Lipo>
90.3106

> <Gold.Chemscore.Internal_Hbond>
0.0000

> <Gold.Chemscore.DEClash>
0.5883

> <Gold.Chemscore.DEInternal>
2.0722

> <Gold.Chemscore.Rot>
2.0927

> <Gold.Chemscore.Internal.Correction>
   9.000000E+99

> <Gold.Chemscore.Hbonds>
donor molecule, donor type, donor heavy atom, donor atom, acceptor molecule, acceptor atom, score
      L1  H    16    39       P1 10186  0.45
      P1  H  7989  7998       L1    28  0.74

> <Gold.Chemscore.Hbond.Weighted>
-5.9620

> <Gold.Chemscore.Metal.Weighted>
-0.0000

> <Gold.Chemscore.Lipo.Weighted>
-10.5663

> <Gold.Chemscore.Internal_Hbond.Weighted>
0.0000

> <Gold.Chemscore.DEClash.Weighted>
0.5883

> <Gold.Chemscore.DEInternal.Weighted>
2.0722

> <Gold.Chemscore.Rot.Weighted>
5.3573

> <Gold.Chemscore.Internal.Correction.Weighted>
   9.000000E+99

> <Gold.Protein.RotatedTorsions>
[ 6907 6896 6895 6894 ] final    4.61 input  -60.11 | X-H torsion
[ 7974 7965 7964 7962 ] final  -23.61 input  175.53 | X-H torsion
[ 8008 7997 7996 7995 ] final  129.17 input   59.86 | X-H torsion
[ 10167 10162 10161 10158 ] final  -49.14 input  -65.29 | X-H torsion
[ 10718 10713 10712 10709 ] final   49.43 input   66.30 | X-H torsion
[ 10763 10752 10751 10750 ] final   66.86 input  -60.55 | X-H torsion
[ 11005 11000 10999 10996 ] final  164.52 input  -57.11 | X-H torsion

> <Gold.Protein.ActiveResidues>
 VAL166  LYS551  ARG553  GLY616  TRP617  ASP618  TYR619  PRO620  LYS621  CYS622 
 ASP623  PHE694  ASN695  SER759  ASP760  ASP761  ALA762  ILE779  LEU786  VAL792 
 PHE793  MET794  SER795  GLU796  ALA797  LYS798  CYS799  TRP800  GLU811  SER814 

> <Gold.Protein.RotatedAtoms>
  151.6441  135.1009  160.0147 H   0  0  0  0  0  0  0  0  0  0  0  0  # atno 6907 bound_to 6896
  152.4038  133.6853  159.6347 H   0  0  0  0  0  0  0  0  0  0  0  0  # atno 6908 bound_to 6896
  150.7934  133.8662  159.3287 H   0  0  0  0  0  0  0  0  0  0  0  0  # atno 6909 bound_to 6896
  146.1605  140.4639  142.8573 H   0  0  0  0  0  0  0  0  0  0  0  0  # atno 7974 bound_to 7965
  156.2930  140.2627  156.2555 H   0  0  0  0  0  0  0  0  0  0  0  0  # atno 8008 bound_to 7997
  154.9841  140.0389  157.2309 H   0  0  0  0  0  0  0  0  0  0  0  0  # atno 8009 bound_to 7997
  154.7745  140.2784  155.6116 H   0  0  0  0  0  0  0  0  0  0  0  0  # atno 8010 bound_to 7997
  140.6699  143.2710  151.4171 H   0  0  0  0  0  0  0  0  0  0  0  0  # atno 10167 bound_to 10162
  157.4786  130.8300  149.8067 H   0  0  0  0  0  0  0  0  0  0  0  0  # atno 10718 bound_to 10713
  153.0159  135.5305  154.6889 H   0  0  0  0  0  0  0  0  0  0  0  0  # atno 10763 bound_to 10752
  154.6029  135.2870  155.0518 H   0  0  0  0  0  0  0  0  0  0  0  0  # atno 10764 bound_to 10752
  154.1569  135.6554  153.5029 H   0  0  0  0  0  0  0  0  0  0  0  0  # atno 10765 bound_to 10752
  140.2468  134.8008  157.3464 H   0  0  0  0  0  0  0  0  0  0  0  0  # atno 11005 bound_to 11000
  144.8021  140.6232  143.6471 LP  0  0  0  0  0  0  0  0  0  0  0  0  # atno 17320 bound_to 7965
  145.4599  139.1514  143.3872 LP  0  0  0  0  0  0  0  0  0  0  0  0  # atno 17321 bound_to 7965
  139.5963  144.1391  152.2147 LP  0  0  0  0  0  0  0  0  0  0  0  0  # atno 17342 bound_to 10162
  140.0761  144.5739  150.7156 LP  0  0  0  0  0  0  0  0  0  0  0  0  # atno 17343 bound_to 10162
  156.0109  130.3833  150.2267 LP  0  0  0  0  0  0  0  0  0  0  0  0  # atno 17370 bound_to 10713
  157.0452  131.0047  151.3271 LP  0  0  0  0  0  0  0  0  0  0  0  0  # atno 17371 bound_to 10713
  140.1598  134.4743  155.7903 LP  0  0  0  0  0  0  0  0  0  0  0  0  # atno 17394 bound_to 11000
  141.2205  133.6896  156.7524 LP  0  0  0  0  0  0  0  0  0  0  0  0  # atno 17395 bound_to 11000

$$$$
