AV-unprocessed.smi:1465|AV-procd|sdf|5951|dock4
  -GOLD-   22720 6 33D 1   1.00000     0.00000
 Structure written by MMmdl.
 54 55  0  0  0  0  0  0  0  0  2 V2000
  154.4379  139.6341  161.6814 C   0  0  0  0  0  0  0  0  0  0  0  0
  154.6830  141.0219  161.5395 O   0  0  0  0  0  0  0  0  0  0  0  0
  154.1860  141.5414  160.3169 C   0  0  0  0  0  0  0  0  0  0  0  0
  152.6992  141.1781  160.1735 C   0  0  0  0  0  0  0  0  0  0  0  0
  152.1352  141.6714  158.9088 N   0  0  0  0  0  0  0  0  0  0  0  0
  151.6776  140.7036  157.9938 C   0  0  0  0  0  0  0  0  0  0  0  0
  151.1441  141.0328  156.8008 C   0  0  0  0  0  0  0  0  0  0  0  0
  150.7008  139.9754  155.8893 C   0  0  0  0  0  0  0  0  0  0  0  0
  150.8232  140.0125  154.6639 O   0  0  0  0  0  0  0  0  0  0  0  0
  150.1281  138.9300  156.5112 N   0  0  0  0  0  0  0  0  0  0  0  0
  149.5862  137.7452  155.8528 C   0  0  2  0  0  0  0  0  0  0  0  0
  148.6316  136.9869  156.7924 C   0  0  0  0  0  0  0  0  0  0  0  0
  148.1367  135.6810  156.1489 C   0  0  0  0  0  0  0  0  0  0  0  0
  149.2761  134.8131  155.7489 N   0  3  1  0  0  0  0  0  0  0  0  0
  148.8510  133.4841  155.2379 C   0  0  0  0  0  0  0  0  0  0  0  0
  150.0236  132.4896  155.0960 C   0  0  0  0  0  0  0  0  0  0  0  0
  149.5591  131.1321  154.5421 C   0  0  0  0  0  0  0  0  0  0  0  0
  150.7378  132.3012  156.4426 C   0  0  0  0  0  0  0  0  0  0  0  0
  150.1899  135.5135  154.8099 C   0  0  0  0  0  0  0  0  0  0  0  0
  150.7320  136.8137  155.4271 C   0  0  0  0  0  0  0  0  0  0  0  0
  151.0507  142.4498  156.4810 C   0  0  0  0  0  0  0  0  0  0  0  0
  151.4955  143.3792  157.3497 C   0  0  0  0  0  0  0  0  0  0  0  0
  152.0839  143.0107  158.6407 C   0  0  0  0  0  0  0  0  0  0  0  0
  152.5051  143.8559  159.4308 O   0  0  0  0  0  0  0  0  0  0  0  0
  154.8394  139.2875  162.6337 H   0  0  0  0  0  0  0  0  0  0  0  0
  154.9196  139.0643  160.8857 H   0  0  0  0  0  0  0  0  0  0  0  0
  153.3686  139.4193  161.6686 H   0  0  0  0  0  0  0  0  0  0  0  0
  154.2963  142.6268  160.3132 H   0  0  0  0  0  0  0  0  0  0  0  0
  154.7612  141.1548  159.4740 H   0  0  0  0  0  0  0  0  0  0  0  0
  152.5754  140.0972  160.2545 H   0  0  0  0  0  0  0  0  0  0  0  0
  152.1420  141.5870  161.0180 H   0  0  0  0  0  0  0  0  0  0  0  0
  151.8020  139.6831  158.3290 H   0  0  0  0  0  0  0  0  0  0  0  0
  150.0615  138.9636  157.5181 H   0  0  0  0  0  0  0  0  0  0  0  0
  149.0413  138.0484  154.9563 H   0  0  0  0  0  0  0  0  0  0  0  0
  149.1387  136.7578  157.7309 H   0  0  0  0  0  0  0  0  0  0  0  0
  147.7771  137.6145  157.0484 H   0  0  0  0  0  0  0  0  0  0  0  0
  147.4936  135.1616  156.8582 H   0  0  0  0  0  0  0  0  0  0  0  0
  147.5235  135.9052  155.2746 H   0  0  0  0  0  0  0  0  0  0  0  0
  148.0777  133.0792  155.8927 H   0  0  0  0  0  0  0  0  0  0  0  0
  148.3852  133.5991  154.2578 H   0  0  0  0  0  0  0  0  0  0  0  0
  150.7601  132.8987  154.4051 H   0  0  0  0  0  0  0  0  0  0  0  0
  148.8190  130.6690  155.1959 H   0  0  0  0  0  0  0  0  0  0  0  0
  150.3967  130.4402  154.4485 H   0  0  0  0  0  0  0  0  0  0  0  0
  149.1125  131.2346  153.5528 H   0  0  0  0  0  0  0  0  0  0  0  0
  150.0666  131.8842  157.1941 H   0  0  0  0  0  0  0  0  0  0  0  0
  151.1162  133.2499  156.8243 H   0  0  0  0  0  0  0  0  0  0  0  0
  151.5880  131.6252  156.3462 H   0  0  0  0  0  0  0  0  0  0  0  0
  151.0291  134.8636  154.5581 H   0  0  0  0  0  0  0  0  0  0  0  0
  149.6634  135.7282  153.8784 H   0  0  0  0  0  0  0  0  0  0  0  0
  151.3791  137.3201  154.7098 H   0  0  0  0  0  0  0  0  0  0  0  0
  151.3554  136.5717  156.2895 H   0  0  0  0  0  0  0  0  0  0  0  0
  150.6277  142.7895  155.5471 H   0  0  0  0  0  0  0  0  0  0  0  0
  151.4165  144.4249  157.0900 H   0  0  0  0  0  0  0  0  0  0  0  0
  149.8177  134.6337  156.5823 H   0  0  0  0  0  0  0  0  0  0  0  0
  1  2  1  0  0  0  0
  1 25  1  0  0  0  0
  1 26  1  0  0  0  0
  1 27  1  0  0  0  0
  2  3  1  0  0  0  0
  3  4  1  0  0  0  0
  3 28  1  0  0  0  0
  3 29  1  0  0  0  0
  4  5  1  0  0  0  0
  4 30  1  0  0  0  0
  4 31  1  0  0  0  0
  5 23  1  0  0  0  0
  5  6  1  0  0  0  0
  6  7  2  0  0  0  0
  6 32  1  0  0  0  0
  7  8  1  0  0  0  0
  7 21  1  0  0  0  0
  8  9  2  0  0  0  0
  8 10  1  0  0  0  0
 10 11  1  0  0  0  0
 10 33  1  0  0  0  0
 11 20  1  0  0  0  0
 11 12  1  0  0  0  0
 11 34  1  0  0  0  0
 12 13  1  0  0  0  0
 12 35  1  0  0  0  0
 12 36  1  0  0  0  0
 13 14  1  0  0  0  0
 13 37  1  0  0  0  0
 13 38  1  0  0  0  0
 14 15  1  0  0  0  0
 14 19  1  0  0  0  0
 14 54  1  0  0  0  0
 15 16  1  0  0  0  0
 15 39  1  0  0  0  0
 15 40  1  0  0  0  0
 16 17  1  0  0  0  0
 16 18  1  0  0  0  0
 16 41  1  0  0  0  0
 17 42  1  0  0  0  0
 17 43  1  0  0  0  0
 17 44  1  0  0  0  0
 18 45  1  0  0  0  0
 18 46  1  0  0  0  0
 18 47  1  0  0  0  0
 19 20  1  0  0  0  0
 19 48  1  0  0  0  0
 19 49  1  0  0  0  0
 20 50  1  0  0  0  0
 20 51  1  0  0  0  0
 21 22  2  0  0  0  0
 21 52  1  0  0  0  0
 22 23  1  0  0  0  0
 22 53  1  0  0  0  0
 23 24  2  0  0  0  0
M  CHG  1  14   1
M  END
> <s_m_source_file>
AV-unprocessed.smi

> <i_m_source_file_index>
1465

> <i_lp_mmshare_version>
43012

> <i_f3d_flags>
0

> <s_epik_input>
W0NIM11PW0NIMl1bQ0gyXW4xW2NIXWMoW2NIXVtjSF1jMT1PKUMoPU8pW05IXVtDSF0yW0NIMl1bQ0gyXU4oW0NIMl1bQ0gyXTIpW0NIMl1bQ0hdKFtDSDNdKVtDSDNd

> <s_epik_cmdline>
J2VwaWtfcHl0aG9uJywgJy1waCcsICc3LjAnLCAnLXRuJywgJzgnLCAnLW1hJywgJzIwMCcsICctbWV0YWxfYmluZGluZycsICctaW1hZScsICc8aW5maWxlLm1hZT4nLCAnLW9tYWUnLCAnPG91dGZpbGUubWFlPic=

> <r_lp_tautomer_probability>
1

> <r_epik_Ionization_Penalty>
0.00386091

> <r_epik_Ionization_Penalty_Charging>
0.0038603

> <r_epik_Ionization_Penalty_Neutral>
6.13806e-07

> <r_epik_State_Penalty>
0.00275716

> <r_epik_Charging_Adjusted_Penalty>
0.00661746

> <i_epik_Tot_Q>
1

> <i_epik_Tot_abs_Q>
1

> <r_epik_Metal_State_Penalty>
-0

> <b_epik_Metal_Only>
0

> <s_lp_Force_Field>
OPLS_2005

> <r_lp_Energy>
35.0866

> <b_lp_Chiralities_Consistent>
1

> <s_lp_Variant>
AV-unprocessed.smi:1465-1

> <Gold.Version>
5.8.1

> <Gold.Id.Protein>
6NUR|6NUR_protein|mol2

> <Gold.PLP.Fitness>
41.0918

> <Gold.PLP.PLP>
-39.5766

> <Gold.PLP.part.hbond>
-2.0000

> <Gold.PLP.part.metal>
0.0000

> <Gold.PLP.part.buried>
-6.0193

> <Gold.PLP.part.nonpolar>
-30.7362

> <Gold.PLP.part.repulsive>
0.1207

> <Gold.PLP.ligand.clash>
0.0000

> <Gold.PLP.ligand.torsion>
0.8475

> <Gold.PLP.Chemscore.Hbond>
1.0000

> <Gold.PLP.Chemscore.CHOScore>
0.0000

> <Gold.PLP.Chemscore.Metal>
0.0000

> <Gold.Chemscore.Hbonds>
donor molecule, donor type, donor heavy atom, donor atom, acceptor molecule, acceptor atom, score
      P1  H  7989  7998       L1     9  1.00

> <Gold.PLP.Chemscore.Internal.Correction>
0.2101

> <Gold.Rescore>
     Score         DG    S(hbond)    S(metal)    S(lipo)     H(rot)  DE(clash)    DE(int)     intcor
     14.48     -15.34       1.00        0.00      94.62       1.78       0.11       0.76       ----

> <Gold.Chemscore.Fitness>
14.4752

> <Gold.Chemscore.DG>
-15.3399

> <Gold.Chemscore.ZeroCoef>
-5.4800

> <Gold.Chemscore.Hbond>
0.9994

> <Gold.Chemscore.Metal>
0.0000

> <Gold.Chemscore.Lipo>
94.6220

> <Gold.Chemscore.Internal_Hbond>
0.0000

> <Gold.Chemscore.DEClash>
0.1056

> <Gold.Chemscore.DEInternal>
0.7592

> <Gold.Chemscore.Rot>
1.7769

> <Gold.Chemscore.Internal.Correction>
   9.000000E+99

> <Gold.Chemscore.Hbonds>
donor molecule, donor type, donor heavy atom, donor atom, acceptor molecule, acceptor atom, score
      P1  H  7989  7998       L1     9  1.00

> <Gold.Chemscore.Hbond.Weighted>
-3.3381

> <Gold.Chemscore.Metal.Weighted>
-0.0000

> <Gold.Chemscore.Lipo.Weighted>
-11.0708

> <Gold.Chemscore.Internal_Hbond.Weighted>
0.0000

> <Gold.Chemscore.DEClash.Weighted>
0.1056

> <Gold.Chemscore.DEInternal.Weighted>
0.7592

> <Gold.Chemscore.Rot.Weighted>
4.5490

> <Gold.Chemscore.Internal.Correction.Weighted>
   9.000000E+99

> <Gold.Protein.RotatedTorsions>
[ 6907 6896 6895 6894 ] final   36.71 input  -60.11 | X-H torsion
[ 7974 7965 7964 7962 ] final   64.77 input  175.53 | X-H torsion
[ 8008 7997 7996 7995 ] final -150.38 input   59.86 | X-H torsion
[ 10167 10162 10161 10158 ] final   57.31 input  -65.29 | X-H torsion
[ 10718 10713 10712 10709 ] final  -24.45 input   66.30 | X-H torsion
[ 10763 10752 10751 10750 ] final  155.48 input  -60.55 | X-H torsion
[ 11005 11000 10999 10996 ] final -148.45 input  -57.11 | X-H torsion

> <Gold.Protein.ActiveResidues>
 VAL166  LYS551  ARG553  GLY616  TRP617  ASP618  TYR619  PRO620  LYS621  CYS622 
 ASP623  PHE694  ASN695  SER759  ASP760  ASP761  ALA762  ILE779  LEU786  VAL792 
 PHE793  MET794  SER795  GLU796  ALA797  LYS798  CYS799  TRP800  GLU811  SER814 

> <Gold.Protein.RotatedAtoms>
  152.1334  134.9117  160.0557 H   0  0  0  0  0  0  0  0  0  0  0  0  # atno 6907 bound_to 6896
  152.0213  133.3895  159.4267 H   0  0  0  0  0  0  0  0  0  0  0  0  # atno 6908 bound_to 6896
  150.6858  134.3544  159.4967 H   0  0  0  0  0  0  0  0  0  0  0  0  # atno 6909 bound_to 6896
  145.8463  139.3226  143.0901 H   0  0  0  0  0  0  0  0  0  0  0  0  # atno 7974 bound_to 7965
  155.6226  140.0683  157.2673 H   0  0  0  0  0  0  0  0  0  0  0  0  # atno 8008 bound_to 7997
  154.4225  140.1782  156.1436 H   0  0  0  0  0  0  0  0  0  0  0  0  # atno 8009 bound_to 7997
  155.9997  140.3337  155.6837 H   0  0  0  0  0  0  0  0  0  0  0  0  # atno 8010 bound_to 7997
  140.1994  144.4004  150.6536 H   0  0  0  0  0  0  0  0  0  0  0  0  # atno 10167 bound_to 10162
  156.4775  130.4538  149.6832 H   0  0  0  0  0  0  0  0  0  0  0  0  # atno 10718 bound_to 10713
  154.1691  135.2805  155.3086 H   0  0  0  0  0  0  0  0  0  0  0  0  # atno 10763 bound_to 10752
  154.6089  135.5505  153.7455 H   0  0  0  0  0  0  0  0  0  0  0  0  # atno 10764 bound_to 10752
  153.0170  135.6410  154.1831 H   0  0  0  0  0  0  0  0  0  0  0  0  # atno 10765 bound_to 10752
  140.7611  134.3297  157.5101 H   0  0  0  0  0  0  0  0  0  0  0  0  # atno 11005 bound_to 11000
  145.9408  140.8981  143.0309 LP  0  0  0  0  0  0  0  0  0  0  0  0  # atno 17320 bound_to 7965
  144.6731  140.1546  143.7427 LP  0  0  0  0  0  0  0  0  0  0  0  0  # atno 17321 bound_to 7965
  140.6401  143.2202  151.6309 LP  0  0  0  0  0  0  0  0  0  0  0  0  # atno 17342 bound_to 10162
  139.5223  144.3166  152.0947 LP  0  0  0  0  0  0  0  0  0  0  0  0  # atno 17343 bound_to 10162
  156.3556  130.7455  151.2420 LP  0  0  0  0  0  0  0  0  0  0  0  0  # atno 17370 bound_to 10713
  157.7486  131.0365  150.4411 LP  0  0  0  0  0  0  0  0  0  0  0  0  # atno 17371 bound_to 10713
  139.8770  134.9203  156.3247 LP  0  0  0  0  0  0  0  0  0  0  0  0  # atno 17394 bound_to 11000
  140.9662  133.7357  156.0470 LP  0  0  0  0  0  0  0  0  0  0  0  0  # atno 17395 bound_to 11000

$$$$
