AV-unprocessed.smi:649|AV-procd|sdf|3179|dock3
  -GOLD-   22720 0103D 1   1.00000     0.00000
 Structure written by MMmdl.
 35 36  0  0  0  0  0  0  0  0  1 V2000
  154.1763  140.2185  160.2367 C   0  0  0  0  0  0  0  0  0  0  0  0
  153.3209  141.4326  159.9391 C   0  0  0  0  0  0  0  0  0  0  0  0
  153.3400  142.5400  160.8073 C   0  0  0  0  0  0  0  0  0  0  0  0
  152.5364  143.6615  160.5338 C   0  0  0  0  0  0  0  0  0  0  0  0
  151.7088  143.6919  159.3910 C   0  0  0  0  0  0  0  0  0  0  0  0
  150.8479  144.9204  159.1507 C   0  0  0  0  0  0  0  0  0  0  0  0
  151.6935  142.5829  158.5036 C   0  0  0  0  0  0  0  0  0  0  0  0
  150.8075  142.5648  157.2577 C   0  0  1  0  0  0  0  0  0  0  0  0
  151.0626  143.6820  156.4281 O   0  0  0  0  0  0  0  0  0  0  0  0
  151.0324  141.2710  156.4432 C   0  0  0  0  0  0  0  0  0  0  0  0
  149.9483  140.9704  155.5381 N   0  0  0  0  0  0  0  0  0  0  0  0
  148.8394  141.7938  155.4131 C   0  0  0  0  0  0  0  0  0  0  0  0
  147.8205  141.5442  154.5557 C   0  0  0  0  0  0  0  0  0  0  0  0
  146.4729  142.6205  154.4589 Cl  0  0  0  0  0  0  0  0  0  0  0  0
  147.8577  140.3582  153.7012 C   0  0  0  0  0  0  0  0  0  0  0  0
  146.9900  140.0358  152.8922 O   0  0  0  0  0  0  0  0  0  0  0  0
  148.9960  139.5610  153.8558 N   0  0  0  0  0  0  0  0  0  0  0  0
  150.0500  139.8111  154.7351 C   0  0  0  0  0  0  0  0  0  0  0  0
  151.0071  139.0386  154.7782 O   0  0  0  0  0  0  0  0  0  0  0  0
  152.4969  141.4564  158.7968 C   0  0  0  0  0  0  0  0  0  0  0  0
  149.0611  138.7338  153.2806 H   0  0  0  0  0  0  0  0  0  0  0  0
  155.1053  140.5098  160.7276 H   0  0  0  0  0  0  0  0  0  0  0  0
  154.4319  139.6870  159.3195 H   0  0  0  0  0  0  0  0  0  0  0  0
  153.6404  139.5333  160.8936 H   0  0  0  0  0  0  0  0  0  0  0  0
  153.9663  142.5308  161.6874 H   0  0  0  0  0  0  0  0  0  0  0  0
  152.5568  144.5016  161.2124 H   0  0  0  0  0  0  0  0  0  0  0  0
  149.8050  144.6378  159.0081 H   0  0  0  0  0  0  0  0  0  0  0  0
  151.1891  145.4577  158.2655 H   0  0  0  0  0  0  0  0  0  0  0  0
  150.8909  145.6082  159.9957 H   0  0  0  0  0  0  0  0  0  0  0  0
  149.7614  142.6388  157.5514 H   0  0  0  0  0  0  0  0  0  0  0  0
  150.2358  144.0673  156.1808 H   0  0  0  0  0  0  0  0  0  0  0  0
  151.9787  141.2478  155.8977 H   0  0  0  0  0  0  0  0  0  0  0  0
  151.0656  140.4099  157.1136 H   0  0  0  0  0  0  0  0  0  0  0  0
  148.7807  142.6815  156.0268 H   0  0  0  0  0  0  0  0  0  0  0  0
  152.4808  140.5979  158.1411 H   0  0  0  0  0  0  0  0  0  0  0  0
  1  2  1  0  0  0  0
  1 22  1  0  0  0  0
  1 23  1  0  0  0  0
  1 24  1  0  0  0  0
  2 20  1  0  0  0  0
  2  3  2  0  0  0  0
  3  4  1  0  0  0  0
  3 25  1  0  0  0  0
  4  5  2  0  0  0  0
  4 26  1  0  0  0  0
  5  6  1  0  0  0  0
  5  7  1  0  0  0  0
  6 27  1  0  0  0  0
  6 28  1  0  0  0  0
  6 29  1  0  0  0  0
  7  8  1  0  0  0  0
  7 20  2  0  0  0  0
  8  9  1  0  0  0  0
  8 10  1  0  0  0  0
  8 30  1  0  0  0  0
  9 31  1  0  0  0  0
 10 11  1  0  0  0  0
 10 32  1  0  0  0  0
 10 33  1  0  0  0  0
 11 18  1  0  0  0  0
 11 12  1  0  0  0  0
 12 13  2  0  0  0  0
 12 34  1  0  0  0  0
 13 14  1  0  0  0  0
 13 15  1  0  0  0  0
 15 16  2  0  0  0  0
 15 17  1  0  0  0  0
 17 21  1  0  0  0  0
 17 18  1  0  0  0  0
 18 19  2  0  0  0  0
 20 35  1  0  0  0  0
M  END
> <s_m_source_file>
AV-unprocessed.smi

> <i_m_source_file_index>
649

> <i_lp_mmshare_version>
43012

> <i_f3d_flags>
0

> <s_epik_input>
W0NIM11jMVtjSF1bY0hdYyhbQ0gzXSljKFtjSF0xKVtDQEhdKFtPSF0pW0NIMl1uMltjSF1jKENsKWMoPU8pW25IXWMyPU8=

> <s_epik_cmdline>
J2VwaWtfcHl0aG9uJywgJy1waCcsICc3LjAnLCAnLXRuJywgJzgnLCAnLW1hJywgJzIwMCcsICctbWV0YWxfYmluZGluZycsICctaW1hZScsICc8aW5maWxlLm1hZT4nLCAnLW9tYWUnLCAnPG91dGZpbGUubWFlPic=

> <r_lp_tautomer_probability>
0.999537

> <r_epik_Ionization_Penalty>
0.0292058

> <r_epik_Ionization_Penalty_Charging>
0.0292057

> <r_epik_Ionization_Penalty_Neutral>
4.85868e-08

> <r_epik_State_Penalty>
0.0240115

> <r_epik_Charging_Adjusted_Penalty>
0.0532172

> <i_epik_Tot_Q>
0

> <i_epik_Tot_abs_Q>
0

> <r_epik_Metal_State_Penalty>
2.21956

> <b_epik_Metal_Only>
0

> <s_lp_Force_Field>
OPLS_2005

> <r_lp_Energy>
13.8297

> <b_lp_Chiralities_Consistent>
1

> <s_lp_Variant>
AV-unprocessed.smi:649-2

> <Gold.Version>
5.8.1

> <Gold.Id.Protein>
6NUR|6NUR_protein|mol2

> <Gold.PLP.Fitness>
51.4685

> <Gold.PLP.PLP>
-45.8870

> <Gold.PLP.part.hbond>
-2.3429

> <Gold.PLP.part.metal>
0.0000

> <Gold.PLP.part.buried>
-3.7436

> <Gold.PLP.part.nonpolar>
-41.8870

> <Gold.PLP.part.repulsive>
1.1255

> <Gold.PLP.ligand.clash>
0.0431

> <Gold.PLP.ligand.torsion>
0.1951

> <Gold.PLP.Chemscore.Hbond>
1.0000

> <Gold.PLP.Chemscore.CHOScore>
1.0000

> <Gold.PLP.Chemscore.Metal>
0.0000

> <Gold.Chemscore.Hbonds>
donor molecule, donor type, donor heavy atom, donor atom, acceptor molecule, acceptor atom, score
      L1  H     9    31       P1  8028  1.00
      L1  C    12    34       P1  8028  1.00

> <Gold.PLP.Chemscore.Internal.Correction>
0.0148

> <Gold.Rescore>
     Score         DG    S(hbond)    S(metal)    S(lipo)     H(rot)  DE(clash)    DE(int)     intcor
     16.30     -17.36       1.00        0.00     119.83       2.14       0.11       0.96       ----

> <Gold.Chemscore.Fitness>
16.2980

> <Gold.Chemscore.DG>
-17.3627

> <Gold.Chemscore.ZeroCoef>
-5.4800

> <Gold.Chemscore.Hbond>
0.9966

> <Gold.Chemscore.Metal>
0.0000

> <Gold.Chemscore.Lipo>
119.8298

> <Gold.Chemscore.Internal_Hbond>
0.0000

> <Gold.Chemscore.DEClash>
0.1067

> <Gold.Chemscore.DEInternal>
0.9579

> <Gold.Chemscore.Rot>
2.1351

> <Gold.Chemscore.Internal.Correction>
   9.000000E+99

> <Gold.Chemscore.Hbonds>
donor molecule, donor type, donor heavy atom, donor atom, acceptor molecule, acceptor atom, score
      L1  H     9    31       P1  8028  0.97

> <Gold.Chemscore.Hbond.Weighted>
-3.3286

> <Gold.Chemscore.Metal.Weighted>
-0.0000

> <Gold.Chemscore.Lipo.Weighted>
-14.0201

> <Gold.Chemscore.Internal_Hbond.Weighted>
0.0000

> <Gold.Chemscore.DEClash.Weighted>
0.1067

> <Gold.Chemscore.DEInternal.Weighted>
0.9579

> <Gold.Chemscore.Rot.Weighted>
5.4660

> <Gold.Chemscore.Internal.Correction.Weighted>
   9.000000E+99

> <Gold.Protein.RotatedTorsions>
[ 6907 6896 6895 6894 ] final  156.89 input  -60.11 | X-H torsion
[ 7974 7965 7964 7962 ] final  -20.44 input  175.53 | X-H torsion
[ 8008 7997 7996 7995 ] final   98.99 input   59.86 | X-H torsion
[ 10167 10162 10161 10158 ] final   -0.84 input  -65.29 | X-H torsion
[ 10718 10713 10712 10709 ] final  152.44 input   66.30 | X-H torsion
[ 10763 10752 10751 10750 ] final  -68.08 input  -60.55 | X-H torsion
[ 11005 11000 10999 10996 ] final   56.06 input  -57.11 | X-H torsion

> <Gold.Protein.ActiveResidues>
 VAL166  LYS551  ARG553  GLY616  TRP617  ASP618  TYR619  PRO620  LYS621  CYS622 
 ASP623  PHE694  ASN695  SER759  ASP760  ASP761  ALA762  ILE779  LEU786  VAL792 
 PHE793  MET794  SER795  GLU796  ALA797  LYS798  CYS799  TRP800  GLU811  SER814 

> <Gold.Protein.RotatedAtoms>
  152.0231  133.3906  159.4265 H   0  0  0  0  0  0  0  0  0  0  0  0  # atno 6907 bound_to 6896
  150.6888  134.3604  159.4957 H   0  0  0  0  0  0  0  0  0  0  0  0  # atno 6908 bound_to 6896
  152.1380  134.9084  160.0606 H   0  0  0  0  0  0  0  0  0  0  0  0  # atno 6909 bound_to 6896
  146.1788  140.4202  142.8503 H   0  0  0  0  0  0  0  0  0  0  0  0  # atno 7974 bound_to 7965
  156.1060  140.3235  155.8007 H   0  0  0  0  0  0  0  0  0  0  0  0  # atno 8008 bound_to 7997
  155.4754  140.0550  157.2991 H   0  0  0  0  0  0  0  0  0  0  0  0  # atno 8009 bound_to 7997
  154.4728  140.2019  155.9967 H   0  0  0  0  0  0  0  0  0  0  0  0  # atno 8010 bound_to 7997
  140.6784  143.6847  150.8077 H   0  0  0  0  0  0  0  0  0  0  0  0  # atno 10167 bound_to 10162
  157.2578  131.0792  151.1686 H   0  0  0  0  0  0  0  0  0  0  0  0  # atno 10718 bound_to 10713
  154.3838  135.6068  153.5805 H   0  0  0  0  0  0  0  0  0  0  0  0  # atno 10763 bound_to 10752
  152.9788  135.5867  154.4379 H   0  0  0  0  0  0  0  0  0  0  0  0  # atno 10764 bound_to 10752
  154.4152  135.2845  155.1989 H   0  0  0  0  0  0  0  0  0  0  0  0  # atno 10765 bound_to 10752
  140.0558  134.5672  155.9209 H   0  0  0  0  0  0  0  0  0  0  0  0  # atno 11005 bound_to 11000
  144.8280  140.6660  143.6309 LP  0  0  0  0  0  0  0  0  0  0  0  0  # atno 17320 bound_to 7965
  145.4136  139.1576  143.4112 LP  0  0  0  0  0  0  0  0  0  0  0  0  # atno 17321 bound_to 7965
  140.0543  143.5218  152.2658 LP  0  0  0  0  0  0  0  0  0  0  0  0  # atno 17342 bound_to 10162
  139.6091  144.7604  151.2993 LP  0  0  0  0  0  0  0  0  0  0  0  0  # atno 17343 bound_to 10162
  157.3208  130.6936  149.6268 LP  0  0  0  0  0  0  0  0  0  0  0  0  # atno 17370 bound_to 10713
  155.9664  130.4336  150.5012 LP  0  0  0  0  0  0  0  0  0  0  0  0  # atno 17371 bound_to 10713
  141.1951  133.6586  156.5628 LP  0  0  0  0  0  0  0  0  0  0  0  0  # atno 17394 bound_to 11000
  140.3846  134.7493  157.4683 LP  0  0  0  0  0  0  0  0  0  0  0  0  # atno 17395 bound_to 11000

$$$$
