AV-unprocessed.smi:2399|AV-procd|sdf|9500|dock6
  -GOLD-   2272013133D 1   1.00000     0.00000
 Structure written by MMmdl.
 53 55  0  0  0  0  0  0  0  0  2 V2000
  146.6384  133.0929  150.9143 C   0  0  0  0  0  0  0  0  0  0  0  0
  146.4886  134.2682  151.6967 O   0  0  0  0  0  0  0  0  0  0  0  0
  145.2453  134.5427  152.2327 C   0  0  0  0  0  0  0  0  0  0  0  0
  144.1332  133.6695  152.1232 C   0  0  0  0  0  0  0  0  0  0  0  0
  142.9068  134.0364  152.7037 C   0  0  0  0  0  0  0  0  0  0  0  0
  142.8323  135.2691  153.3761 C   0  0  0  0  0  0  0  0  0  0  0  0
  141.5439  135.7271  154.0263 C   0  0  0  0  0  0  0  0  0  0  0  0
  143.8828  136.1066  153.4885 N   0  0  0  0  0  0  0  0  0  0  0  0
  145.0717  135.7641  152.9337 C   0  0  0  0  0  0  0  0  0  0  0  0
  146.2246  136.5935  153.0082 N   0  0  0  0  0  0  0  0  0  0  0  0
  146.3565  137.7911  153.6045 C   0  0  0  0  0  0  0  0  0  0  0  0
  145.4683  138.3885  154.2133 O   0  0  0  0  0  0  0  0  0  0  0  0
  147.6028  138.2661  153.4652 N   0  0  0  0  0  0  0  0  0  0  0  0
  148.0880  139.5276  154.0171 C   0  0  2  0  0  0  0  0  0  0  0  0
  147.7195  139.6193  155.5082 C   0  0  0  0  0  0  0  0  0  0  0  0
  148.0943  140.9943  156.0937 C   0  0  0  0  0  0  0  0  0  0  0  0
  147.4696  142.1135  155.3349 N   0  3  2  0  0  0  0  0  0  0  0  0
  146.0006  142.2687  155.5592 C   0  0  0  0  0  0  0  0  0  0  0  0
  145.3406  143.3031  154.6375 C   0  0  0  0  0  0  0  0  0  0  0  0
  144.0199  143.6561  155.3262 C   0  0  0  0  0  0  0  0  0  0  0  0
  144.2437  143.4076  156.8239 C   0  0  0  0  0  0  0  0  0  0  0  0
  145.6474  142.8050  156.9543 C   0  0  0  0  0  0  0  0  0  0  0  0
  147.8760  142.0603  153.9035 C   0  0  0  0  0  0  0  0  0  0  0  0
  147.4942  140.7218  153.2446 C   0  0  0  0  0  0  0  0  0  0  0  0
  147.6702  133.0190  150.5713 H   0  0  0  0  0  0  0  0  0  0  0  0
  145.9985  133.1173  150.0312 H   0  0  0  0  0  0  0  0  0  0  0  0
  146.4198  132.1960  151.4954 H   0  0  0  0  0  0  0  0  0  0  0  0
  144.1954  132.7243  151.6059 H   0  0  0  0  0  0  0  0  0  0  0  0
  142.0482  133.3850  152.6327 H   0  0  0  0  0  0  0  0  0  0  0  0
  140.7033  135.1058  153.7164 H   0  0  0  0  0  0  0  0  0  0  0  0
  141.3215  136.7587  153.7515 H   0  0  0  0  0  0  0  0  0  0  0  0
  141.6290  135.6713  155.1115 H   0  0  0  0  0  0  0  0  0  0  0  0
  147.0488  136.2197  152.5613 H   0  0  0  0  0  0  0  0  0  0  0  0
  148.2670  137.7087  152.9478 H   0  0  0  0  0  0  0  0  0  0  0  0
  149.1764  139.5607  153.9357 H   0  0  0  0  0  0  0  0  0  0  0  0
  146.6529  139.4370  155.6450 H   0  0  0  0  0  0  0  0  0  0  0  0
  148.2335  138.8340  156.0640 H   0  0  0  0  0  0  0  0  0  0  0  0
  147.8385  141.0416  157.1513 H   0  0  0  0  0  0  0  0  0  0  0  0
  149.1774  141.1179  156.0512 H   0  0  0  0  0  0  0  0  0  0  0  0
  145.4967  141.3119  155.4178 H   0  0  0  0  0  0  0  0  0  0  0  0
  145.9642  144.1960  154.5687 H   0  0  0  0  0  0  0  0  0  0  0  0
  145.1779  142.9297  153.6260 H   0  0  0  0  0  0  0  0  0  0  0  0
  143.7165  144.6828  155.1192 H   0  0  0  0  0  0  0  0  0  0  0  0
  143.2267  143.0015  154.9624 H   0  0  0  0  0  0  0  0  0  0  0  0
  144.1588  144.3278  157.4031 H   0  0  0  0  0  0  0  0  0  0  0  0
  143.4917  142.7144  157.2029 H   0  0  0  0  0  0  0  0  0  0  0  0
  145.6838  142.0334  157.7241 H   0  0  0  0  0  0  0  0  0  0  0  0
  146.3488  143.5906  157.2396 H   0  0  0  0  0  0  0  0  0  0  0  0
  147.4610  142.8961  153.3418 H   0  0  0  0  0  0  0  0  0  0  0  0
  148.9584  142.1863  153.8528 H   0  0  0  0  0  0  0  0  0  0  0  0
  147.8510  140.7122  152.2141 H   0  0  0  0  0  0  0  0  0  0  0  0
  146.4088  140.6312  153.1891 H   0  0  0  0  0  0  0  0  0  0  0  0
  147.8799  142.9592  155.7050 H   0  0  0  0  0  0  0  0  0  0  0  0
  1  2  1  0  0  0  0
  1 25  1  0  0  0  0
  1 26  1  0  0  0  0
  1 27  1  0  0  0  0
  2  3  1  0  0  0  0
  3  9  1  0  0  0  0
  3  4  2  0  0  0  0
  4  5  1  0  0  0  0
  4 28  1  0  0  0  0
  5  6  2  0  0  0  0
  5 29  1  0  0  0  0
  6  7  1  0  0  0  0
  6  8  1  0  0  0  0
  7 30  1  0  0  0  0
  7 31  1  0  0  0  0
  7 32  1  0  0  0  0
  8  9  2  0  0  0  0
  9 10  1  0  0  0  0
 10 11  1  0  0  0  0
 10 33  1  0  0  0  0
 11 12  2  0  0  0  0
 11 13  1  0  0  0  0
 13 14  1  0  0  0  0
 13 34  1  0  0  0  0
 14 24  1  0  0  0  0
 14 15  1  0  0  0  0
 14 35  1  0  0  0  0
 15 16  1  0  0  0  0
 15 36  1  0  0  0  0
 15 37  1  0  0  0  0
 16 17  1  0  0  0  0
 16 38  1  0  0  0  0
 16 39  1  0  0  0  0
 17 18  1  0  0  0  0
 17 23  1  0  0  0  0
 17 53  1  0  0  0  0
 18 22  1  0  0  0  0
 18 19  1  0  0  0  0
 18 40  1  0  0  0  0
 19 20  1  0  0  0  0
 19 41  1  0  0  0  0
 19 42  1  0  0  0  0
 20 21  1  0  0  0  0
 20 43  1  0  0  0  0
 20 44  1  0  0  0  0
 21 22  1  0  0  0  0
 21 45  1  0  0  0  0
 21 46  1  0  0  0  0
 22 47  1  0  0  0  0
 22 48  1  0  0  0  0
 23 24  1  0  0  0  0
 23 49  1  0  0  0  0
 23 50  1  0  0  0  0
 24 51  1  0  0  0  0
 24 52  1  0  0  0  0
M  CHG  1  17   1
M  END
> <s_m_source_file>
AV-unprocessed.smi

> <i_m_source_file_index>
2399

> <i_lp_mmshare_version>
43012

> <i_f3d_flags>
0

> <s_epik_input>
W0NIM11PYzFbY0hdW2NIXWMoW0NIM10pbmMxW05IXUMoPU8pW05IXVtDSF0yW0NIMl1bQ0gyXU4oW0NIMl1bQ0gyXTIpW0NIXTNbQ0gyXVtDSDJdW0NIMl1bQ0gyXTM=

> <s_epik_cmdline>
J2VwaWtfcHl0aG9uJywgJy1waCcsICc3LjAnLCAnLXRuJywgJzgnLCAnLW1hJywgJzIwMCcsICctbWV0YWxfYmluZGluZycsICctaW1hZScsICc8aW5maWxlLm1hZT4nLCAnLW9tYWUnLCAnPG91dGZpbGUubWFlPic=

> <r_lp_tautomer_probability>
1

> <r_epik_Ionization_Penalty>
0.00183805

> <r_epik_Ionization_Penalty_Charging>
0.00179121

> <r_epik_Ionization_Penalty_Neutral>
4.68398e-05

> <r_epik_State_Penalty>
0.00121448

> <r_epik_Charging_Adjusted_Penalty>
0.0030057

> <i_epik_Tot_Q>
1

> <i_epik_Tot_abs_Q>
1

> <r_epik_Metal_State_Penalty>
-0

> <b_epik_Metal_Only>
0

> <s_lp_Force_Field>
OPLS_2005

> <r_lp_Energy>
44.4335

> <b_lp_Chiralities_Consistent>
1

> <s_lp_Variant>
AV-unprocessed.smi:2399-2

> <Gold.Version>
5.8.1

> <Gold.Id.Protein>
6NUR|6NUR_protein|mol2

> <Gold.PLP.Fitness>
43.4872

> <Gold.PLP.PLP>
-32.1652

> <Gold.PLP.part.hbond>
-3.0000

> <Gold.PLP.part.metal>
0.0000

> <Gold.PLP.part.buried>
-4.0607

> <Gold.PLP.part.nonpolar>
-25.4298

> <Gold.PLP.part.repulsive>
1.0587

> <Gold.PLP.ligand.clash>
0.0000

> <Gold.PLP.ligand.torsion>
0.3402

> <Gold.PLP.Chemscore.Hbond>
3.9825

> <Gold.PLP.Chemscore.CHOScore>
0.0000

> <Gold.PLP.Chemscore.Metal>
0.0000

> <Gold.Chemscore.Hbonds>
donor molecule, donor type, donor heavy atom, donor atom, acceptor molecule, acceptor atom, score
      L1  H    10    33       P1  7948  1.00
      L1  H    13    34       P1  7948  1.00
      L1  H    17    53       P1  8028  2.00

> <Gold.PLP.Chemscore.Internal.Correction>
0.0549

> <Gold.Rescore>
     Score         DG    S(hbond)    S(metal)    S(lipo)     H(rot)  DE(clash)    DE(int)     intcor
     15.69     -18.82       2.43        0.00      74.99       1.38       0.22       2.92       ----

> <Gold.Chemscore.Fitness>
15.6852

> <Gold.Chemscore.DG>
-18.8236

> <Gold.Chemscore.ZeroCoef>
-5.4800

> <Gold.Chemscore.Hbond>
2.4280

> <Gold.Chemscore.Metal>
0.0000

> <Gold.Chemscore.Lipo>
74.9900

> <Gold.Chemscore.Internal_Hbond>
0.0000

> <Gold.Chemscore.DEClash>
0.2154

> <Gold.Chemscore.DEInternal>
2.9229

> <Gold.Chemscore.Rot>
1.3828

> <Gold.Chemscore.Internal.Correction>
   9.000000E+99

> <Gold.Chemscore.Hbonds>
donor molecule, donor type, donor heavy atom, donor atom, acceptor molecule, acceptor atom, score
      L1  H    10    33       P1  7948  0.93
      L1  H    13    34       P1  7948  0.99
      L1  H    17    53       P1  8028  0.62

> <Gold.Chemscore.Hbond.Weighted>
-8.1097

> <Gold.Chemscore.Metal.Weighted>
-0.0000

> <Gold.Chemscore.Lipo.Weighted>
-8.7738

> <Gold.Chemscore.Internal_Hbond.Weighted>
0.0000

> <Gold.Chemscore.DEClash.Weighted>
0.2154

> <Gold.Chemscore.DEInternal.Weighted>
2.9229

> <Gold.Chemscore.Rot.Weighted>
3.5399

> <Gold.Chemscore.Internal.Correction.Weighted>
   9.000000E+99

> <Gold.Protein.RotatedTorsions>
[ 6907 6896 6895 6894 ] final -156.63 input  -60.11 | X-H torsion
[ 7974 7965 7964 7962 ] final  -75.75 input  175.53 | X-H torsion
[ 8008 7997 7996 7995 ] final -102.00 input   59.86 | X-H torsion
[ 10167 10162 10161 10158 ] final -162.69 input  -65.29 | X-H torsion
[ 10718 10713 10712 10709 ] final  112.70 input   66.30 | X-H torsion
[ 10763 10752 10751 10750 ] final    5.38 input  -60.55 | X-H torsion
[ 11005 11000 10999 10996 ] final  -93.39 input  -57.11 | X-H torsion

> <Gold.Protein.ActiveResidues>
 VAL166  LYS551  ARG553  GLY616  TRP617  ASP618  TYR619  PRO620  LYS621  CYS622 
 ASP623  PHE694  ASN695  SER759  ASP760  ASP761  ALA762  ILE779  LEU786  VAL792 
 PHE793  MET794  SER795  GLU796  ALA797  LYS798  CYS799  TRP800  GLU811  SER814 

> <Gold.Protein.RotatedAtoms>
  151.2906  133.4167  159.2632 H   0  0  0  0  0  0  0  0  0  0  0  0  # atno 6907 bound_to 6896
  151.0281  134.9519  159.8106 H   0  0  0  0  0  0  0  0  0  0  0  0  # atno 6908 bound_to 6896
  152.5339  134.2867  159.9080 H   0  0  0  0  0  0  0  0  0  0  0  0  # atno 6909 bound_to 6896
  145.6220  140.9360  143.1133 H   0  0  0  0  0  0  0  0  0  0  0  0  # atno 7974 bound_to 7965
  154.8505  140.0431  157.1601 H   0  0  0  0  0  0  0  0  0  0  0  0  # atno 8008 bound_to 7997
  154.8947  140.2991  155.5330 H   0  0  0  0  0  0  0  0  0  0  0  0  # atno 8009 bound_to 7997
  156.2996  140.2387  156.3968 H   0  0  0  0  0  0  0  0  0  0  0  0  # atno 8010 bound_to 7997
  139.6374  144.0324  152.2065 H   0  0  0  0  0  0  0  0  0  0  0  0  # atno 10167 bound_to 10162
  157.6378  131.0972  150.6934 H   0  0  0  0  0  0  0  0  0  0  0  0  # atno 10718 bound_to 10713
  153.2601  135.6922  153.7587 H   0  0  0  0  0  0  0  0  0  0  0  0  # atno 10763 bound_to 10752
  153.6649  135.3354  155.3138 H   0  0  0  0  0  0  0  0  0  0  0  0  # atno 10764 bound_to 10752
  154.8427  135.4486  154.1589 H   0  0  0  0  0  0  0  0  0  0  0  0  # atno 10765 bound_to 10752
  141.1498  133.7885  157.0153 H   0  0  0  0  0  0  0  0  0  0  0  0  # atno 11005 bound_to 11000
  144.7227  139.7975  143.7376 LP  0  0  0  0  0  0  0  0  0  0  0  0  # atno 17320 bound_to 7965
  146.1424  139.4484  143.0100 LP  0  0  0  0  0  0  0  0  0  0  0  0  # atno 17321 bound_to 7965
  140.0004  144.6297  150.7734 LP  0  0  0  0  0  0  0  0  0  0  0  0  # atno 17342 bound_to 10162
  140.7473  143.2904  151.3347 LP  0  0  0  0  0  0  0  0  0  0  0  0  # atno 17343 bound_to 10162
  156.7262  130.4695  149.5510 LP  0  0  0  0  0  0  0  0  0  0  0  0  # atno 17370 bound_to 10713
  156.1632  130.6388  151.0745 LP  0  0  0  0  0  0  0  0  0  0  0  0  # atno 17371 bound_to 10713
  140.0851  134.9626  157.1686 LP  0  0  0  0  0  0  0  0  0  0  0  0  # atno 17394 bound_to 11000
  140.3523  134.2585  155.7197 LP  0  0  0  0  0  0  0  0  0  0  0  0  # atno 17395 bound_to 11000

$$$$
