AV-unprocessed.smi:3219|AV-procd|sdf|12296|dock10
  -GOLD-   2272018143D 1   1.00000     0.00000
 Structure written by MMmdl.
 41 42  0  0  0  0  0  0  0  0  2 V2000
  145.6762  143.9467  152.9887 C   0  0  0  0  0  0  0  0  0  0  0  0
  145.7350  143.1804  154.2711 C   0  0  0  0  0  0  0  0  0  0  0  0
  146.7033  142.3561  154.7805 C   0  0  0  0  0  0  0  0  0  0  0  0
  148.0359  141.9712  154.1913 C   0  0  0  0  0  0  0  0  0  0  0  0
  148.9262  141.2457  155.2116 C   0  0  0  0  0  0  0  0  0  0  0  0
  150.1074  142.0573  155.5657 N   0  3  0  0  0  0  0  0  0  0  0  0
  150.9398  141.4866  156.6417 C   0  0  0  0  0  0  0  0  0  0  0  0
  151.0049  142.4300  157.8563 C   0  0  1  0  0  0  0  0  0  0  0  0
  151.8792  141.8480  158.9931 C   0  0  0  0  0  0  0  0  0  0  0  0
  152.1935  142.8691  160.0719 C   0  0  0  0  0  0  0  0  0  0  0  0
  152.0127  144.1910  159.9150 C   0  0  0  0  0  0  0  0  0  0  0  0
  151.4802  144.8130  158.6377 C   0  0  0  0  0  0  0  0  0  0  0  0
  151.5110  143.8285  157.4538 C   0  0  0  0  0  0  0  0  0  0  0  0
  146.1657  141.9378  156.0306 C   0  0  0  0  0  0  0  0  0  0  0  0
  144.9782  142.4594  156.2787 N   0  0  0  0  0  0  0  0  0  0  0  0
  144.7107  143.2207  155.1982 N   0  0  0  0  0  0  0  0  0  0  0  0
  143.4602  143.9524  155.1357 C   0  0  0  0  0  0  0  0  0  0  0  0
  146.6295  143.9142  152.4620 H   0  0  0  0  0  0  0  0  0  0  0  0
  145.4340  144.9940  153.1712 H   0  0  0  0  0  0  0  0  0  0  0  0
  144.9145  143.5335  152.3275 H   0  0  0  0  0  0  0  0  0  0  0  0
  147.8918  141.3199  153.3287 H   0  0  0  0  0  0  0  0  0  0  0  0
  148.5621  142.8457  153.8071 H   0  0  0  0  0  0  0  0  0  0  0  0
  148.3518  141.0261  156.1130 H   0  0  0  0  0  0  0  0  0  0  0  0
  149.2592  140.2909  154.8031 H   0  0  0  0  0  0  0  0  0  0  0  0
  150.6788  142.1774  154.7416 H   0  0  0  0  0  0  0  0  0  0  0  0
  150.5402  140.5157  156.9389 H   0  0  0  0  0  0  0  0  0  0  0  0
  151.9422  141.3130  156.2481 H   0  0  0  0  0  0  0  0  0  0  0  0
  149.9905  142.5553  158.2393 H   0  0  0  0  0  0  0  0  0  0  0  0
  151.3773  140.9971  159.4551 H   0  0  0  0  0  0  0  0  0  0  0  0
  152.8273  141.4803  158.5986 H   0  0  0  0  0  0  0  0  0  0  0  0
  152.5932  142.4894  161.0009 H   0  0  0  0  0  0  0  0  0  0  0  0
  152.2430  144.8656  160.7266 H   0  0  0  0  0  0  0  0  0  0  0  0
  150.4594  145.1479  158.8249 H   0  0  0  0  0  0  0  0  0  0  0  0
  152.0665  145.7006  158.3978 H   0  0  0  0  0  0  0  0  0  0  0  0
  152.5326  143.7465  157.0794 H   0  0  0  0  0  0  0  0  0  0  0  0
  150.9157  144.2311  156.6334 H   0  0  0  0  0  0  0  0  0  0  0  0
  146.6057  141.2783  156.7642 H   0  0  0  0  0  0  0  0  0  0  0  0
  142.9161  143.6726  154.2334 H   0  0  0  0  0  0  0  0  0  0  0  0
  143.6634  145.0233  155.1121 H   0  0  0  0  0  0  0  0  0  0  0  0
  142.8391  143.7304  156.0049 H   0  0  0  0  0  0  0  0  0  0  0  0
  149.7830  142.9651  155.8678 H   0  0  0  0  0  0  0  0  0  0  0  0
  1  2  1  0  0  0  0
  1 18  1  0  0  0  0
  1 19  1  0  0  0  0
  1 20  1  0  0  0  0
  2 16  1  0  0  0  0
  2  3  2  0  0  0  0
  3  4  1  0  0  0  0
  3 14  1  0  0  0  0
  4  5  1  0  0  0  0
  4 21  1  0  0  0  0
  4 22  1  0  0  0  0
  5  6  1  0  0  0  0
  5 23  1  0  0  0  0
  5 24  1  0  0  0  0
  6  7  1  0  0  0  0
  6 25  1  0  0  0  0
  6 41  1  0  0  0  0
  7  8  1  0  0  0  0
  7 26  1  0  0  0  0
  7 27  1  0  0  0  0
  8 13  1  0  0  0  0
  8  9  1  0  0  0  0
  8 28  1  0  0  0  0
  9 10  1  0  0  0  0
  9 29  1  0  0  0  0
  9 30  1  0  0  0  0
 10 11  2  0  0  0  0
 10 31  1  0  0  0  0
 11 12  1  0  0  0  0
 11 32  1  0  0  0  0
 12 13  1  0  0  0  0
 12 33  1  0  0  0  0
 12 34  1  0  0  0  0
 13 35  1  0  0  0  0
 13 36  1  0  0  0  0
 14 15  2  0  0  0  0
 14 37  1  0  0  0  0
 15 16  1  0  0  0  0
 16 17  1  0  0  0  0
 17 38  1  0  0  0  0
 17 39  1  0  0  0  0
 17 40  1  0  0  0  0
M  CHG  1   6   1
M  END
> <s_m_source_file>
AV-unprocessed.smi

> <i_m_source_file_index>
3219

> <i_lp_mmshare_version>
43012

> <i_f3d_flags>
0

> <s_epik_input>
W0NIM11uMW5bY0hdYyhjMVtDSDNdKVtDSDJdW0NIMl1bTkhdW0NIMl1bQ0BASF0yW0NIMl1bQ0hdPVtDSF1bQ0gyXVtDSDJdMg==

> <s_epik_cmdline>
J2VwaWtfcHl0aG9uJywgJy1waCcsICc3LjAnLCAnLXRuJywgJzgnLCAnLW1hJywgJzIwMCcsICctbWV0YWxfYmluZGluZycsICctaW1hZScsICc8aW5maWxlLm1hZT4nLCAnLW9tYWUnLCAnPG91dGZpbGUubWFlPic=

> <r_lp_tautomer_probability>
1

> <r_epik_Ionization_Penalty>
0.000661401

> <r_epik_Ionization_Penalty_Charging>
0.00057791

> <r_epik_Ionization_Penalty_Neutral>
8.34914e-05

> <r_epik_State_Penalty>
-0

> <r_epik_Charging_Adjusted_Penalty>
0.00057791

> <i_epik_Tot_Q>
1

> <i_epik_Tot_abs_Q>
1

> <r_epik_Metal_State_Penalty>
-0

> <b_epik_Metal_Only>
0

> <s_lp_Force_Field>
OPLS_2005

> <r_lp_Energy>
9.67125

> <b_lp_Chiralities_Consistent>
1

> <s_lp_Variant>
AV-unprocessed.smi:3219-2

> <Gold.Version>
5.8.1

> <Gold.Id.Protein>
6NUR|6NUR_protein|mol2

> <Gold.PLP.Fitness>
46.0850

> <Gold.PLP.PLP>
-41.7710

> <Gold.PLP.part.hbond>
-1.0000

> <Gold.PLP.part.metal>
0.0000

> <Gold.PLP.part.buried>
-3.3502

> <Gold.PLP.part.nonpolar>
-36.6329

> <Gold.PLP.part.repulsive>
0.2358

> <Gold.PLP.ligand.clash>
0.0000

> <Gold.PLP.ligand.torsion>
0.8591

> <Gold.PLP.Chemscore.Hbond>
2.0000

> <Gold.PLP.Chemscore.CHOScore>
0.0000

> <Gold.PLP.Chemscore.Metal>
0.0000

> <Gold.Chemscore.Hbonds>
donor molecule, donor type, donor heavy atom, donor atom, acceptor molecule, acceptor atom, score
      L1  H     6    41       P1  8028  2.00

> <Gold.PLP.Chemscore.Internal.Correction>
0.0323

> <Gold.Rescore>
     Score         DG    S(hbond)    S(metal)    S(lipo)     H(rot)  DE(clash)    DE(int)     intcor
     17.52     -18.41       0.99        0.00     114.20       1.46       0.06       0.83       ----

> <Gold.Chemscore.Fitness>
17.5215

> <Gold.Chemscore.DG>
-18.4132

> <Gold.Chemscore.ZeroCoef>
-5.4800

> <Gold.Chemscore.Hbond>
0.9906

> <Gold.Chemscore.Metal>
0.0000

> <Gold.Chemscore.Lipo>
114.2002

> <Gold.Chemscore.Internal_Hbond>
0.0000

> <Gold.Chemscore.DEClash>
0.0619

> <Gold.Chemscore.DEInternal>
0.8299

> <Gold.Chemscore.Rot>
1.4597

> <Gold.Chemscore.Internal.Correction>
   9.000000E+99

> <Gold.Chemscore.Hbonds>
donor molecule, donor type, donor heavy atom, donor atom, acceptor molecule, acceptor atom, score
      L1  H     6    41       P1  8028  0.95

> <Gold.Chemscore.Hbond.Weighted>
-3.3086

> <Gold.Chemscore.Metal.Weighted>
-0.0000

> <Gold.Chemscore.Lipo.Weighted>
-13.3614

> <Gold.Chemscore.Internal_Hbond.Weighted>
0.0000

> <Gold.Chemscore.DEClash.Weighted>
0.0619

> <Gold.Chemscore.DEInternal.Weighted>
0.8299

> <Gold.Chemscore.Rot.Weighted>
3.7368

> <Gold.Chemscore.Internal.Correction.Weighted>
   9.000000E+99

> <Gold.Protein.RotatedTorsions>
[ 6907 6896 6895 6894 ] final  176.95 input  -60.11 | X-H torsion
[ 7974 7965 7964 7962 ] final -109.30 input  175.53 | X-H torsion
[ 8008 7997 7996 7995 ] final  160.34 input   59.86 | X-H torsion
[ 10167 10162 10161 10158 ] final  114.72 input  -65.29 | X-H torsion
[ 10718 10713 10712 10709 ] final    0.44 input   66.30 | X-H torsion
[ 10763 10752 10751 10750 ] final   91.08 input  -60.55 | X-H torsion
[ 11005 11000 10999 10996 ] final   74.99 input  -57.11 | X-H torsion

> <Gold.Protein.ActiveResidues>
 VAL166  LYS551  ARG553  GLY616  TRP617  ASP618  TYR619  PRO620  LYS621  CYS622 
 ASP623  PHE694  ASN695  SER759  ASP760  ASP761  ALA762  ILE779  LEU786  VAL792 
 PHE793  MET794  SER795  GLU796  ALA797  LYS798  CYS799  TRP800  GLU811  SER814 

> <Gold.Protein.RotatedAtoms>
  151.7119  133.3312  159.3292 H   0  0  0  0  0  0  0  0  0  0  0  0  # atno 6907 bound_to 6896
  150.7690  134.6524  159.6305 H   0  0  0  0  0  0  0  0  0  0  0  0  # atno 6908 bound_to 6896
  152.3706  134.6742  160.0229 H   0  0  0  0  0  0  0  0  0  0  0  0  # atno 6909 bound_to 6896
  145.1823  140.8976  143.3473 H   0  0  0  0  0  0  0  0  0  0  0  0  # atno 7974 bound_to 7965
  156.2179  140.1807  156.7546 H   0  0  0  0  0  0  0  0  0  0  0  0  # atno 8008 bound_to 7997
  154.5819  140.0665  156.9145 H   0  0  0  0  0  0  0  0  0  0  0  0  # atno 8009 bound_to 7997
  155.2487  140.3327  155.4287 H   0  0  0  0  0  0  0  0  0  0  0  0  # atno 8010 bound_to 7997
  139.6368  144.7120  151.2318 H   0  0  0  0  0  0  0  0  0  0  0  0  # atno 10167 bound_to 10162
  156.8334  130.5496  149.5684 H   0  0  0  0  0  0  0  0  0  0  0  0  # atno 10718 bound_to 10713
  153.2044  135.4411  155.0305 H   0  0  0  0  0  0  0  0  0  0  0  0  # atno 10763 bound_to 10752
  154.8165  135.3317  154.7164 H   0  0  0  0  0  0  0  0  0  0  0  0  # atno 10764 bound_to 10752
  153.7606  135.6992  153.4982 H   0  0  0  0  0  0  0  0  0  0  0  0  # atno 10765 bound_to 10752
  139.9365  134.7480  156.1216 H   0  0  0  0  0  0  0  0  0  0  0  0  # atno 11005 bound_to 11000
  145.0124  139.3498  143.6113 LP  0  0  0  0  0  0  0  0  0  0  0  0  # atno 17320 bound_to 7965
  146.3451  139.9392  142.8743 LP  0  0  0  0  0  0  0  0  0  0  0  0  # atno 17321 bound_to 7965
  140.7469  143.6382  150.8359 LP  0  0  0  0  0  0  0  0  0  0  0  0  # atno 17342 bound_to 10162
  140.0014  143.5740  152.2874 LP  0  0  0  0  0  0  0  0  0  0  0  0  # atno 17343 bound_to 10162
  156.0921  130.5904  150.9750 LP  0  0  0  0  0  0  0  0  0  0  0  0  # atno 17370 bound_to 10713
  157.6394  131.0912  150.8282 LP  0  0  0  0  0  0  0  0  0  0  0  0  # atno 17371 bound_to 10713
  141.0980  133.6688  156.2690 LP  0  0  0  0  0  0  0  0  0  0  0  0  # atno 17394 bound_to 11000
  140.6063  134.5503  157.5526 LP  0  0  0  0  0  0  0  0  0  0  0  0  # atno 17395 bound_to 11000

$$$$
