AV-unprocessed.smi:2580|AV-procd|sdf|10130|dock8
  -GOLD-   2272014143D 1   1.00000     0.00000
 Structure written by MMmdl.
 29 30  0  0  0  0  0  0  0  0  1 V2000
  148.8463  141.3883  155.8340 C   0  0  0  0  0  0  0  0  0  0  0  0
  149.6948  140.1194  155.6533 C   0  0  1  0  0  0  0  0  0  0  0  0
  149.4200  139.3871  154.3557 C   0  0  0  0  0  0  0  0  0  0  0  0
  150.6601  138.5115  154.2166 C   0  0  0  0  0  0  0  0  0  0  0  0
  151.7224  139.2473  154.8151 O   0  0  0  0  0  0  0  0  0  0  0  0
  151.2088  140.3643  155.5435 C   0  0  2  0  0  0  0  0  0  0  0  0
  151.9489  140.5033  156.8833 C   0  0  0  0  0  0  0  0  0  0  0  0
  152.7826  139.6603  157.2158 O   0  0  0  0  0  0  0  0  0  0  0  0
  151.6075  141.5696  157.6310 N   0  0  0  0  0  0  0  0  0  0  0  0
  152.1094  141.9633  158.9017 C   0  0  0  0  0  0  0  0  0  0  0  0
  152.6707  141.0916  159.7775 N   0  0  0  0  0  0  0  0  0  0  0  0
  153.1235  141.5439  160.9652 C   0  0  0  0  0  0  0  0  0  0  0  0
  153.0450  142.8928  161.3546 C   0  0  0  0  0  0  0  0  0  0  0  0
  152.4651  143.8074  160.4583 C   0  0  0  0  0  0  0  0  0  0  0  0
  151.9905  143.3413  159.2162 C   0  0  0  0  0  0  0  0  0  0  0  0
  151.2767  144.4653  158.1112 Cl  0  0  0  0  0  0  0  0  0  0  0  0
  149.0154  142.0989  155.0245 H   0  0  0  0  0  0  0  0  0  0  0  0
  149.0783  141.8929  156.7717 H   0  0  0  0  0  0  0  0  0  0  0  0
  147.7836  141.1455  155.8465 H   0  0  0  0  0  0  0  0  0  0  0  0
  149.4944  139.4374  156.4821 H   0  0  0  0  0  0  0  0  0  0  0  0
  148.4941  138.8116  154.3751 H   0  0  0  0  0  0  0  0  0  0  0  0
  149.3672  140.0913  153.5239 H   0  0  0  0  0  0  0  0  0  0  0  0
  150.5312  137.5797  154.7685 H   0  0  0  0  0  0  0  0  0  0  0  0
  150.8816  138.2633  153.1785 H   0  0  0  0  0  0  0  0  0  0  0  0
  151.3966  141.2578  154.9463 H   0  0  0  0  0  0  0  0  0  0  0  0
  150.9094  142.1817  157.2333 H   0  0  0  0  0  0  0  0  0  0  0  0
  153.5604  140.8082  161.6239 H   0  0  0  0  0  0  0  0  0  0  0  0
  153.4190  143.2161  162.3148 H   0  0  0  0  0  0  0  0  0  0  0  0
  152.3856  144.8523  160.7201 H   0  0  0  0  0  0  0  0  0  0  0  0
  1  2  1  0  0  0  0
  1 17  1  0  0  0  0
  1 18  1  0  0  0  0
  1 19  1  0  0  0  0
  2  6  1  0  0  0  0
  2  3  1  0  0  0  0
  2 20  1  0  0  0  0
  3  4  1  0  0  0  0
  3 21  1  0  0  0  0
  3 22  1  0  0  0  0
  4  5  1  0  0  0  0
  4 23  1  0  0  0  0
  4 24  1  0  0  0  0
  5  6  1  0  0  0  0
  6  7  1  0  0  0  0
  6 25  1  0  0  0  0
  7  8  2  0  0  0  0
  7  9  1  0  0  0  0
  9 10  1  0  0  0  0
  9 26  1  0  0  0  0
 10 15  1  0  0  0  0
 10 11  2  0  0  0  0
 11 12  1  0  0  0  0
 12 13  2  0  0  0  0
 12 27  1  0  0  0  0
 13 14  1  0  0  0  0
 13 28  1  0  0  0  0
 14 15  2  0  0  0  0
 14 29  1  0  0  0  0
 15 16  1  0  0  0  0
M  END
> <s_m_source_file>
AV-unprocessed.smi

> <i_m_source_file_index>
2580

> <i_lp_mmshare_version>
43012

> <i_f3d_flags>
0

> <s_epik_input>
W0NIM11bQ0BASF0xW0NIMl1bQ0gyXU9bQ0BIXTFDKD1PKVtOSF1jMm5bY0hdW2NIXVtjSF1jMkNs

> <s_epik_cmdline>
J2VwaWtfcHl0aG9uJywgJy1waCcsICc3LjAnLCAnLXRuJywgJzgnLCAnLW1hJywgJzIwMCcsICctbWV0YWxfYmluZGluZycsICctaW1hZScsICc8aW5maWxlLm1hZT4nLCAnLW9tYWUnLCAnPG91dGZpbGUubWFlPic=

> <r_lp_tautomer_probability>
1

> <r_epik_Ionization_Penalty>
4.32497e-05

> <r_epik_Ionization_Penalty_Charging>
0

> <r_epik_Ionization_Penalty_Neutral>
4.32497e-05

> <r_epik_State_Penalty>
-0

> <r_epik_Charging_Adjusted_Penalty>
0

> <i_epik_Tot_Q>
0

> <i_epik_Tot_abs_Q>
0

> <r_epik_Metal_State_Penalty>
-0

> <b_epik_Metal_Only>
0

> <s_lp_Force_Field>
OPLS_2005

> <r_lp_Energy>
21.1194

> <b_lp_Chiralities_Consistent>
1

> <s_lp_Variant>
AV-unprocessed.smi:2580-4

> <Gold.Version>
5.8.1

> <Gold.Id.Protein>
6NUR|6NUR_protein|mol2

> <Gold.PLP.Fitness>
37.4904

> <Gold.PLP.PLP>
-34.8267

> <Gold.PLP.part.hbond>
-2.0000

> <Gold.PLP.part.metal>
0.0000

> <Gold.PLP.part.buried>
-3.7091

> <Gold.PLP.part.nonpolar>
-28.8774

> <Gold.PLP.part.repulsive>
0.1213

> <Gold.PLP.ligand.clash>
0.0000

> <Gold.PLP.ligand.torsion>
0.1690

> <Gold.PLP.Chemscore.Hbond>
1.0000

> <Gold.PLP.Chemscore.CHOScore>
0.0000

> <Gold.PLP.Chemscore.Metal>
0.0000

> <Gold.Chemscore.Hbonds>
donor molecule, donor type, donor heavy atom, donor atom, acceptor molecule, acceptor atom, score
      P1  H  7997  8009       L1     8  1.00

> <Gold.PLP.Chemscore.Internal.Correction>
0.0017

> <Gold.Rescore>
     Score         DG    S(hbond)    S(metal)    S(lipo)     H(rot)  DE(clash)    DE(int)     intcor
     15.19     -16.76       0.96        0.00      90.84       1.00       0.24       1.33       ----

> <Gold.Chemscore.Fitness>
15.1877

> <Gold.Chemscore.DG>
-16.7626

> <Gold.Chemscore.ZeroCoef>
-5.4800

> <Gold.Chemscore.Hbond>
0.9625

> <Gold.Chemscore.Metal>
0.0000

> <Gold.Chemscore.Lipo>
90.8350

> <Gold.Chemscore.Internal_Hbond>
0.0000

> <Gold.Chemscore.DEClash>
0.2422

> <Gold.Chemscore.DEInternal>
1.3327

> <Gold.Chemscore.Rot>
1.0000

> <Gold.Chemscore.Internal.Correction>
   9.000000E+99

> <Gold.Chemscore.Hbonds>
donor molecule, donor type, donor heavy atom, donor atom, acceptor molecule, acceptor atom, score
      P1  H  7997  8009       L1     8  0.90

> <Gold.Chemscore.Hbond.Weighted>
-3.2149

> <Gold.Chemscore.Metal.Weighted>
-0.0000

> <Gold.Chemscore.Lipo.Weighted>
-10.6277

> <Gold.Chemscore.Internal_Hbond.Weighted>
0.0000

> <Gold.Chemscore.DEClash.Weighted>
0.2422

> <Gold.Chemscore.DEInternal.Weighted>
1.3327

> <Gold.Chemscore.Rot.Weighted>
2.5600

> <Gold.Chemscore.Internal.Correction.Weighted>
   9.000000E+99

> <Gold.Protein.RotatedTorsions>
[ 6907 6896 6895 6894 ] final -116.45 input  -60.11 | X-H torsion
[ 7974 7965 7964 7962 ] final   41.52 input  175.53 | X-H torsion
[ 8008 7997 7996 7995 ] final  168.70 input   59.86 | X-H torsion
[ 10167 10162 10161 10158 ] final -127.24 input  -65.29 | X-H torsion
[ 10718 10713 10712 10709 ] final -158.98 input   66.30 | X-H torsion
[ 10763 10752 10751 10750 ] final   27.93 input  -60.55 | X-H torsion
[ 11005 11000 10999 10996 ] final  -32.40 input  -57.11 | X-H torsion

> <Gold.Protein.ActiveResidues>
 VAL166  LYS551  ARG553  GLY616  TRP617  ASP618  TYR619  PRO620  LYS621  CYS622 
 ASP623  PHE694  ASN695  SER759  ASP760  ASP761  ALA762  ILE779  LEU786  VAL792 
 PHE793  MET794  SER795  GLU796  ALA797  LYS798  CYS799  TRP800  GLU811  SER814 

> <Gold.Protein.RotatedAtoms>
  150.8057  133.8515  159.3206 H   0  0  0  0  0  0  0  0  0  0  0  0  # atno 6907 bound_to 6896
  151.6314  135.1021  160.0132 H   0  0  0  0  0  0  0  0  0  0  0  0  # atno 6908 bound_to 6896
  152.4147  133.6980  159.6464 H   0  0  0  0  0  0  0  0  0  0  0  0  # atno 6909 bound_to 6896
  146.0817  139.5406  142.9533 H   0  0  0  0  0  0  0  0  0  0  0  0  # atno 7974 bound_to 7965
  156.1524  140.1583  156.8749 H   0  0  0  0  0  0  0  0  0  0  0  0  # atno 8008 bound_to 7997
  154.5083  140.0807  156.7975 H   0  0  0  0  0  0  0  0  0  0  0  0  # atno 8009 bound_to 7997
  155.3871  140.3408  155.4252 H   0  0  0  0  0  0  0  0  0  0  0  0  # atno 8010 bound_to 7997
  139.9630  143.5929  152.2439 H   0  0  0  0  0  0  0  0  0  0  0  0  # atno 10167 bound_to 10162
  156.5617  130.8650  151.2811 H   0  0  0  0  0  0  0  0  0  0  0  0  # atno 10718 bound_to 10713
  153.0524  135.6525  154.0660 H   0  0  0  0  0  0  0  0  0  0  0  0  # atno 10763 bound_to 10752
  154.0345  135.2908  155.3365 H   0  0  0  0  0  0  0  0  0  0  0  0  # atno 10764 bound_to 10752
  154.6821  135.5316  153.8343 H   0  0  0  0  0  0  0  0  0  0  0  0  # atno 10765 bound_to 10752
  140.9549  133.7199  156.1277 H   0  0  0  0  0  0  0  0  0  0  0  0  # atno 11005 bound_to 11000
  145.6206  141.0323  143.1917 LP  0  0  0  0  0  0  0  0  0  0  0  0  # atno 17320 bound_to 7965
  144.7298  139.7762  143.7351 LP  0  0  0  0  0  0  0  0  0  0  0  0  # atno 17321 bound_to 7965
  139.6539  144.7661  151.2093 LP  0  0  0  0  0  0  0  0  0  0  0  0  # atno 17342 bound_to 10162
  140.7547  143.6116  150.8600 LP  0  0  0  0  0  0  0  0  0  0  0  0  # atno 17343 bound_to 10162
  157.7367  130.9783  150.2151 LP  0  0  0  0  0  0  0  0  0  0  0  0  # atno 17370 bound_to 10713
  156.2793  130.3731  149.7951 LP  0  0  0  0  0  0  0  0  0  0  0  0  # atno 17371 bound_to 10713
  140.7550  134.4002  157.5535 LP  0  0  0  0  0  0  0  0  0  0  0  0  # atno 17394 bound_to 11000
  139.8859  134.8925  156.2616 LP  0  0  0  0  0  0  0  0  0  0  0  0  # atno 17395 bound_to 11000

$$$$
