AV-unprocessed.smi:1238|AV-procd|sdf|5184|dock3
  -GOLD-   22720 4263D 1   1.00000     0.00000
 Structure written by MMmdl.
 42 43  0  0  0  0  0  0  0  0  2 V2000
  152.4984  142.3484  159.7442 C   0  0  0  0  0  0  0  0  0  0  0  0
  151.3336  141.9070  159.0690 O   0  0  0  0  0  0  0  0  0  0  0  0
  151.6339  141.1007  157.9425 C   0  0  0  0  0  0  0  0  0  0  0  0
  150.3246  140.5242  157.3774 C   0  0  0  0  0  0  0  0  0  0  0  0
  150.5577  139.2656  156.6309 N   0  0  0  0  0  0  0  0  0  0  0  0
  150.0981  138.0188  157.1551 C   0  0  0  0  0  0  0  0  0  0  0  0
  149.3194  138.1014  158.8136 S   0  0  0  0  0  0  0  0  0  0  0  0
  148.7884  136.3822  159.0553 C   0  0  0  0  0  0  0  0  0  0  0  0
  148.1124  136.1696  160.4062 C   0  0  0  0  0  0  0  0  0  0  0  0
  147.8845  137.1302  161.1413 O   0  0  0  0  0  0  0  0  0  0  0  0
  147.7958  134.9045  160.7229 N   0  0  0  0  0  0  0  0  0  0  0  0
  147.1582  134.4874  161.9684 C   0  0  0  0  0  0  0  0  0  0  0  0
  146.4614  133.1186  161.8227 C   0  0  0  0  0  0  0  0  0  0  0  0
  145.0550  133.2955  162.3973 C   0  0  0  0  0  0  0  0  0  0  0  0
  144.7293  134.7645  162.1481 C   0  0  0  0  0  0  0  0  0  0  0  0
  146.0585  135.4853  162.3756 C   0  0  0  0  0  0  0  0  0  0  0  0
  150.2541  136.9201  156.4838 N   0  0  0  0  0  0  0  0  0  0  0  0
  150.8832  136.8864  155.2400 C   0  0  0  0  0  0  0  0  0  0  0  0
  150.9201  135.7390  154.7450 O   0  5  0  0  0  0  0  0  0  0  0  0
  151.3774  138.0763  154.7317 C   0  0  0  0  0  0  0  0  0  0  0  0
  151.2402  139.3386  155.4471 C   0  0  0  0  0  0  0  0  0  0  0  0
  151.7056  140.3898  155.0033 O   0  0  0  0  0  0  0  0  0  0  0  0
  152.2162  142.9618  160.5996 H   0  0  0  0  0  0  0  0  0  0  0  0
  153.1276  142.9533  159.0899 H   0  0  0  0  0  0  0  0  0  0  0  0
  153.0846  141.5056  160.1123 H   0  0  0  0  0  0  0  0  0  0  0  0
  152.1392  141.6989  157.1827 H   0  0  0  0  0  0  0  0  0  0  0  0
  152.3141  140.2986  158.2321 H   0  0  0  0  0  0  0  0  0  0  0  0
  149.5762  140.4177  158.1611 H   0  0  0  0  0  0  0  0  0  0  0  0
  149.8688  141.2748  156.7293 H   0  0  0  0  0  0  0  0  0  0  0  0
  149.6531  135.7218  158.9783 H   0  0  0  0  0  0  0  0  0  0  0  0
  148.0997  136.1046  158.2563 H   0  0  0  0  0  0  0  0  0  0  0  0
  148.0226  134.1787  160.0584 H   0  0  0  0  0  0  0  0  0  0  0  0
  147.9071  134.4465  162.7616 H   0  0  0  0  0  0  0  0  0  0  0  0
  146.3810  132.8377  160.7711 H   0  0  0  0  0  0  0  0  0  0  0  0
  147.0108  132.3226  162.3264 H   0  0  0  0  0  0  0  0  0  0  0  0
  144.3288  132.6199  161.9443 H   0  0  0  0  0  0  0  0  0  0  0  0
  145.0682  133.1000  163.4704 H   0  0  0  0  0  0  0  0  0  0  0  0
  144.4094  134.8994  161.1140 H   0  0  0  0  0  0  0  0  0  0  0  0
  143.9342  135.1352  162.7954 H   0  0  0  0  0  0  0  0  0  0  0  0
  146.1617  135.7185  163.4363 H   0  0  0  0  0  0  0  0  0  0  0  0
  146.1083  136.4314  161.8348 H   0  0  0  0  0  0  0  0  0  0  0  0
  151.8748  138.0789  153.7728 H   0  0  0  0  0  0  0  0  0  0  0  0
  1  2  1  0  0  0  0
  1 23  1  0  0  0  0
  1 24  1  0  0  0  0
  1 25  1  0  0  0  0
  2  3  1  0  0  0  0
  3  4  1  0  0  0  0
  3 26  1  0  0  0  0
  3 27  1  0  0  0  0
  4 28  1  0  0  0  0
  4 29  1  0  0  0  0
  4  5  1  0  0  0  0
  5  6  1  0  0  0  0
  5 21  1  0  0  0  0
  6 17  2  0  0  0  0
  6  7  1  0  0  0  0
  7  8  1  0  0  0  0
  8  9  1  0  0  0  0
  8 30  1  0  0  0  0
  8 31  1  0  0  0  0
  9 10  2  0  0  0  0
  9 11  1  0  0  0  0
 11 12  1  0  0  0  0
 11 32  1  0  0  0  0
 12 16  1  0  0  0  0
 12 13  1  0  0  0  0
 12 33  1  0  0  0  0
 13 14  1  0  0  0  0
 13 34  1  0  0  0  0
 13 35  1  0  0  0  0
 14 15  1  0  0  0  0
 14 36  1  0  0  0  0
 14 37  1  0  0  0  0
 15 16  1  0  0  0  0
 15 38  1  0  0  0  0
 15 39  1  0  0  0  0
 16 40  1  0  0  0  0
 16 41  1  0  0  0  0
 17 18  1  0  0  0  0
 18 20  2  0  0  0  0
 18 19  1  0  0  0  0
 20 21  1  0  0  0  0
 20 42  1  0  0  0  0
 21 22  2  0  0  0  0
M  CHG  1  19  -1
M  END
> <s_m_source_file>
AV-unprocessed.smi

> <i_m_source_file_index>
1238

> <i_lp_mmshare_version>
43012

> <i_f3d_flags>
0

> <s_epik_input>
W0NIM11PW0NIMl1bQ0gyXW4xYyhuYyhbT0hdKVtjSF1jMT1PKVNbQ0gyXUMoPU8pW05IXVtDSF0yW0NIMl1bQ0gyXVtDSDJdW0NIMl0y

> <s_epik_cmdline>
J2VwaWtfcHl0aG9uJywgJy1waCcsICc3LjAnLCAnLXRuJywgJzgnLCAnLW1hJywgJzIwMCcsICctbWV0YWxfYmluZGluZycsICctaW1hZScsICc8aW5maWxlLm1hZT4nLCAnLW9tYWUnLCAnPG91dGZpbGUubWFlPic=

> <r_lp_tautomer_probability>
1

> <r_epik_Ionization_Penalty>
0.0116372

> <r_epik_Ionization_Penalty_Charging>
3.186e-07

> <r_epik_Ionization_Penalty_Neutral>
0.0116369

> <r_epik_State_Penalty>
0.000414464

> <r_epik_Charging_Adjusted_Penalty>
0.000414782

> <i_epik_Tot_Q>
-1

> <i_epik_Tot_abs_Q>
1

> <r_epik_Metal_State_Penalty>
-0

> <b_epik_Metal_Only>
0

> <s_lp_Force_Field>
OPLS_2005

> <r_lp_Energy>
27.578

> <b_lp_Chiralities_Consistent>
1

> <s_lp_Variant>
AV-unprocessed.smi:1238-1

> <Gold.Version>
5.8.1

> <Gold.Id.Protein>
6NUR|6NUR_protein|mol2

> <Gold.PLP.Fitness>
50.6811

> <Gold.PLP.PLP>
-37.7511

> <Gold.PLP.part.hbond>
-3.7494

> <Gold.PLP.part.metal>
0.0000

> <Gold.PLP.part.buried>
-4.2366

> <Gold.PLP.part.nonpolar>
-30.5549

> <Gold.PLP.part.repulsive>
0.2932

> <Gold.PLP.ligand.clash>
0.0000

> <Gold.PLP.ligand.torsion>
0.5684

> <Gold.PLP.Chemscore.Hbond>
4.6320

> <Gold.PLP.Chemscore.CHOScore>
0.0000

> <Gold.PLP.Chemscore.Metal>
0.0000

> <Gold.Chemscore.Hbonds>
donor molecule, donor type, donor heavy atom, donor atom, acceptor molecule, acceptor atom, score
      P1  H  6931  6943       L1    10  1.00
      P1  H  6934  6947       L1    10  0.78
      P1  H  7989  7998       L1    22  0.86
      P1  H 10752 10765       L1    19  1.80

> <Gold.PLP.Chemscore.Internal.Correction>
0.1708

> <Gold.Rescore>
     Score         DG    S(hbond)    S(metal)    S(lipo)     H(rot)  DE(clash)    DE(int)     intcor
     16.60     -18.88       3.37        0.00      73.32       2.51       0.50       1.77       ----

> <Gold.Chemscore.Fitness>
16.6031

> <Gold.Chemscore.DG>
-18.8782

> <Gold.Chemscore.ZeroCoef>
-5.4800

> <Gold.Chemscore.Hbond>
3.3687

> <Gold.Chemscore.Metal>
0.0000

> <Gold.Chemscore.Lipo>
73.3207

> <Gold.Chemscore.Internal_Hbond>
0.0000

> <Gold.Chemscore.DEClash>
0.5006

> <Gold.Chemscore.DEInternal>
1.7744

> <Gold.Chemscore.Rot>
2.5124

> <Gold.Chemscore.Internal.Correction>
   9.000000E+99

> <Gold.Chemscore.Hbonds>
donor molecule, donor type, donor heavy atom, donor atom, acceptor molecule, acceptor atom, score
      P1  H  6931  6943       L1    10  0.94
      P1  H  6934  6947       L1    10  0.73
      P1  H  7989  7998       L1    22  0.82
      P1  H 10752 10765       L1    19  0.17

> <Gold.Chemscore.Hbond.Weighted>
-11.2514

> <Gold.Chemscore.Metal.Weighted>
-0.0000

> <Gold.Chemscore.Lipo.Weighted>
-8.5785

> <Gold.Chemscore.Internal_Hbond.Weighted>
0.0000

> <Gold.Chemscore.DEClash.Weighted>
0.5006

> <Gold.Chemscore.DEInternal.Weighted>
1.7744

> <Gold.Chemscore.Rot.Weighted>
6.4318

> <Gold.Chemscore.Internal.Correction.Weighted>
   9.000000E+99

> <Gold.Protein.RotatedTorsions>
[ 6907 6896 6895 6894 ] final  113.61 input  -60.11 | X-H torsion
[ 7974 7965 7964 7962 ] final  115.07 input  175.53 | X-H torsion
[ 8008 7997 7996 7995 ] final -172.08 input   59.86 | X-H torsion
[ 10167 10162 10161 10158 ] final -144.50 input  -65.29 | X-H torsion
[ 10718 10713 10712 10709 ] final  106.25 input   66.30 | X-H torsion
[ 10763 10752 10751 10750 ] final  173.90 input  -60.55 | X-H torsion
[ 11005 11000 10999 10996 ] final  -64.32 input  -57.11 | X-H torsion

> <Gold.Protein.ActiveResidues>
 VAL166  LYS551  ARG553  GLY616  TRP617  ASP618  TYR619  PRO620  LYS621  CYS622 
 ASP623  PHE694  ASN695  SER759  ASP760  ASP761  ALA762  ILE779  LEU786  VAL792 
 PHE793  MET794  SER795  GLU796  ALA797  LYS798  CYS799  TRP800  GLU811  SER814 

> <Gold.Protein.RotatedAtoms>
  152.4851  133.8352  159.7123 H   0  0  0  0  0  0  0  0  0  0  0  0  # atno 6907 bound_to 6896
  150.8931  133.7207  159.2906 H   0  0  0  0  0  0  0  0  0  0  0  0  # atno 6908 bound_to 6896
  151.4674  135.1047  159.9794 H   0  0  0  0  0  0  0  0  0  0  0  0  # atno 6909 bound_to 6896
  145.1965  139.2973  143.4341 H   0  0  0  0  0  0  0  0  0  0  0  0  # atno 7974 bound_to 7965
  155.9399  140.1106  157.1064 H   0  0  0  0  0  0  0  0  0  0  0  0  # atno 8008 bound_to 7997
  154.4087  140.1221  156.4979 H   0  0  0  0  0  0  0  0  0  0  0  0  # atno 8009 bound_to 7997
  155.6975  140.3472  155.4921 H   0  0  0  0  0  0  0  0  0  0  0  0  # atno 8010 bound_to 7997
  139.7893  143.7989  152.2648 H   0  0  0  0  0  0  0  0  0  0  0  0  # atno 10167 bound_to 10162
  157.6675  131.0846  150.5978 H   0  0  0  0  0  0  0  0  0  0  0  0  # atno 10718 bound_to 10713
  154.4464  135.2763  155.1812 H   0  0  0  0  0  0  0  0  0  0  0  0  # atno 10763 bound_to 10752
  154.3657  135.6120  153.5717 H   0  0  0  0  0  0  0  0  0  0  0  0  # atno 10764 bound_to 10752
  152.9844  135.5845  154.4801 H   0  0  0  0  0  0  0  0  0  0  0  0  # atno 10765 bound_to 10752
  141.1421  133.6664  156.5815 H   0  0  0  0  0  0  0  0  0  0  0  0  # atno 11005 bound_to 11000
  146.3426  140.2195  142.8591 LP  0  0  0  0  0  0  0  0  0  0  0  0  # atno 17320 bound_to 7965
  144.9989  140.8614  143.5293 LP  0  0  0  0  0  0  0  0  0  0  0  0  # atno 17321 bound_to 7965
  139.8075  144.7349  150.9741 LP  0  0  0  0  0  0  0  0  0  0  0  0  # atno 17342 bound_to 10162
  140.7820  143.4283  151.0733 LP  0  0  0  0  0  0  0  0  0  0  0  0  # atno 17343 bound_to 10162
  156.6278  130.4423  149.5798 LP  0  0  0  0  0  0  0  0  0  0  0  0  # atno 17370 bound_to 10713
  156.2305  130.6791  151.1459 LP  0  0  0  0  0  0  0  0  0  0  0  0  # atno 17371 bound_to 10713
  140.3834  134.7503  157.4676 LP  0  0  0  0  0  0  0  0  0  0  0  0  # atno 17394 bound_to 11000
  140.0620  134.5982  155.8738 LP  0  0  0  0  0  0  0  0  0  0  0  0  # atno 17395 bound_to 11000

$$$$
