AV-unprocessed.smi:677|AV-procd|sdf|3312|dock8
  -GOLD-   22720 0273D 1   1.00000     0.00000
 Structure written by MMmdl.
 44 45  0  0  0  0  0  0  0  0  2 V2000
  151.3378  145.2703  159.0625 C   0  0  0  0  0  0  0  0  0  0  0  0
  151.4255  143.8252  158.6191 C   0  0  0  0  0  0  0  0  0  0  0  0
  152.1612  142.8578  159.3368 C   0  0  0  0  0  0  0  0  0  0  0  0
  152.1983  141.5298  158.8633 C   0  0  0  0  0  0  0  0  0  0  0  0
  151.4994  141.1952  157.6821 C   0  0  0  0  0  0  0  0  0  0  0  0
  151.5266  139.7770  157.1414 C   0  0  0  0  0  0  0  0  0  0  0  0
  150.8998  139.7369  155.7478 C   0  0  0  0  0  0  0  0  0  0  0  0
  151.5849  140.0031  154.7605 O   0  0  0  0  0  0  0  0  0  0  0  0
  149.6076  139.3804  155.6814 N   0  0  0  0  0  0  0  0  0  0  0  0
  148.8297  139.2410  154.4538 C   0  0  0  0  0  0  0  0  0  0  0  0
  147.5900  140.1592  154.4394 C   0  0  0  0  0  0  0  0  0  0  0  0
  147.9001  141.6019  153.9945 C   0  0  0  0  0  0  0  0  0  0  0  0
  146.6506  142.4962  154.0838 C   0  0  0  0  0  0  0  0  0  0  0  0
  146.1266  142.5104  155.4496 N   0  0  0  0  0  0  0  0  0  0  0  0
  144.9855  143.4181  155.5058 C   0  0  0  0  0  0  0  0  0  0  0  0
  144.5193  143.6578  156.8821 C   0  0  0  0  0  0  0  0  0  0  0  0
  144.1527  143.8455  157.9635 N   0  0  0  0  0  0  0  0  0  0  0  0
  145.7148  141.1582  155.8330 C   0  0  0  0  0  0  0  0  0  0  0  0
  146.9275  140.2117  155.8260 C   0  0  0  0  0  0  0  0  0  0  0  0
  150.7805  142.2053  157.0067 C   0  0  0  0  0  0  0  0  0  0  0  0
  150.7705  143.4657  157.4926 N   0  3  0  0  0  0  0  0  0  0  0  0
  151.9027  145.4353  159.9804 H   0  0  0  0  0  0  0  0  0  0  0  0
  150.2998  145.5488  159.2467 H   0  0  0  0  0  0  0  0  0  0  0  0
  151.7402  145.9285  158.2919 H   0  0  0  0  0  0  0  0  0  0  0  0
  152.6922  143.1270  160.2383 H   0  0  0  0  0  0  0  0  0  0  0  0
  152.7598  140.7789  159.4001 H   0  0  0  0  0  0  0  0  0  0  0  0
  152.5533  139.4081  157.1144 H   0  0  0  0  0  0  0  0  0  0  0  0
  150.9704  139.1148  157.8060 H   0  0  0  0  0  0  0  0  0  0  0  0
  149.1255  139.1835  156.5466 H   0  0  0  0  0  0  0  0  0  0  0  0
  149.4861  139.5019  153.6231 H   0  0  0  0  0  0  0  0  0  0  0  0
  148.5364  138.2026  154.2895 H   0  0  0  0  0  0  0  0  0  0  0  0
  146.8664  139.7381  153.7394 H   0  0  0  0  0  0  0  0  0  0  0  0
  148.6950  142.0202  154.6137 H   0  0  0  0  0  0  0  0  0  0  0  0
  148.2693  141.6130  152.9689 H   0  0  0  0  0  0  0  0  0  0  0  0
  146.9121  143.5122  153.7863 H   0  0  0  0  0  0  0  0  0  0  0  0
  145.8827  142.1478  153.3912 H   0  0  0  0  0  0  0  0  0  0  0  0
  145.2634  144.3892  155.0947 H   0  0  0  0  0  0  0  0  0  0  0  0
  144.1517  143.0375  154.9140 H   0  0  0  0  0  0  0  0  0  0  0  0
  145.2803  141.1719  156.8327 H   0  0  0  0  0  0  0  0  0  0  0  0
  144.9425  140.7929  155.1542 H   0  0  0  0  0  0  0  0  0  0  0  0
  146.6111  139.2122  156.1259 H   0  0  0  0  0  0  0  0  0  0  0  0
  147.6509  140.5431  156.5728 H   0  0  0  0  0  0  0  0  0  0  0  0
  150.2222  142.0459  156.0955 H   0  0  0  0  0  0  0  0  0  0  0  0
  150.2462  144.1787  156.9850 H   0  0  0  0  0  0  0  0  0  0  0  0
  1  2  1  0  0  0  0
  1 22  1  0  0  0  0
  1 23  1  0  0  0  0
  1 24  1  0  0  0  0
  2 21  1  0  0  0  0
  2  3  2  0  0  0  0
  3  4  1  0  0  0  0
  3 25  1  0  0  0  0
  4  5  2  0  0  0  0
  4 26  1  0  0  0  0
  5  6  1  0  0  0  0
  5 20  1  0  0  0  0
  6  7  1  0  0  0  0
  6 27  1  0  0  0  0
  6 28  1  0  0  0  0
  7  8  2  0  0  0  0
  7  9  1  0  0  0  0
  9 10  1  0  0  0  0
  9 29  1  0  0  0  0
 10 11  1  0  0  0  0
 10 30  1  0  0  0  0
 10 31  1  0  0  0  0
 11 19  1  0  0  0  0
 11 12  1  0  0  0  0
 11 32  1  0  0  0  0
 12 13  1  0  0  0  0
 12 33  1  0  0  0  0
 12 34  1  0  0  0  0
 13 14  1  0  0  0  0
 13 35  1  0  0  0  0
 13 36  1  0  0  0  0
 14 15  1  0  0  0  0
 14 18  1  0  0  0  0
 15 16  1  0  0  0  0
 15 37  1  0  0  0  0
 15 38  1  0  0  0  0
 16 17  3  0  0  0  0
 18 19  1  0  0  0  0
 18 39  1  0  0  0  0
 18 40  1  0  0  0  0
 19 41  1  0  0  0  0
 19 42  1  0  0  0  0
 20 21  2  0  0  0  0
 20 43  1  0  0  0  0
 21 44  1  0  0  0  0
M  CHG  1  21   1
M  END
> <s_m_source_file>
AV-unprocessed.smi

> <i_m_source_file_index>
677

> <i_lp_mmshare_version>
43012

> <i_f3d_flags>
0

> <s_epik_input>
W0NIM11jMVtjSF1bY0hdYyhbY0hdbjEpW0NIMl1DKD1PKVtOSF1bQ0gyXVtDSF0yW0NIMl1bQ0gyXU4oW0NIMl1DI04pW0NIMl1bQ0gyXTI=

> <s_epik_cmdline>
J2VwaWtfcHl0aG9uJywgJy1waCcsICc3LjAnLCAnLXRuJywgJzgnLCAnLW1hJywgJzIwMCcsICctbWV0YWxfYmluZGluZycsICctaW1hZScsICc8aW5maWxlLm1hZT4nLCAnLW9tYWUnLCAnPG91dGZpbGUubWFlPic=

> <r_epik_Ionization_Penalty>
2.12868

> <r_epik_Ionization_Penalty_Charging>
2.12771

> <r_epik_Ionization_Penalty_Neutral>
0.000970756

> <r_epik_State_Penalty>
2.26584

> <r_epik_Charging_Adjusted_Penalty>
4.39355

> <i_epik_Tot_Q>
1

> <i_epik_Tot_abs_Q>
1

> <r_epik_Metal_State_Penalty>
2.28211

> <b_epik_Metal_Only>
0

> <s_lp_Force_Field>
OPLS_2005

> <r_lp_Energy>
22.0212

> <b_lp_Chiralities_Consistent>
1

> <s_lp_Variant>
AV-unprocessed.smi:677-2

> <Gold.Version>
5.8.1

> <Gold.Id.Protein>
6NUR|6NUR_protein|mol2

> <Gold.PLP.Fitness>
46.0994

> <Gold.PLP.PLP>
-38.4958

> <Gold.PLP.part.hbond>
-1.8884

> <Gold.PLP.part.metal>
0.0000

> <Gold.PLP.part.buried>
-7.0061

> <Gold.PLP.part.nonpolar>
-30.7691

> <Gold.PLP.part.repulsive>
0.3326

> <Gold.PLP.ligand.clash>
0.0000

> <Gold.PLP.ligand.torsion>
0.6801

> <Gold.PLP.Chemscore.Hbond>
2.9825

> <Gold.PLP.Chemscore.CHOScore>
0.0000

> <Gold.PLP.Chemscore.Metal>
0.0000

> <Gold.Chemscore.Hbonds>
donor molecule, donor type, donor heavy atom, donor atom, acceptor molecule, acceptor atom, score
      L1  H    21    44       P1  8028  2.00
      P1  H  7989  7998       L1     8  0.99

> <Gold.PLP.Chemscore.Internal.Correction>
0.0163

> <Gold.Rescore>
     Score         DG    S(hbond)    S(metal)    S(lipo)     H(rot)  DE(clash)    DE(int)     intcor
     17.60     -18.31       1.90        0.00      96.01       1.86       0.02       0.69       ----

> <Gold.Chemscore.Fitness>
17.5952

> <Gold.Chemscore.DG>
-18.3069

> <Gold.Chemscore.ZeroCoef>
-5.4800

> <Gold.Chemscore.Hbond>
1.9026

> <Gold.Chemscore.Metal>
0.0000

> <Gold.Chemscore.Lipo>
96.0052

> <Gold.Chemscore.Internal_Hbond>
0.0000

> <Gold.Chemscore.DEClash>
0.0247

> <Gold.Chemscore.DEInternal>
0.6870

> <Gold.Chemscore.Rot>
1.8595

> <Gold.Chemscore.Internal.Correction>
   9.000000E+99

> <Gold.Chemscore.Hbonds>
donor molecule, donor type, donor heavy atom, donor atom, acceptor molecule, acceptor atom, score
      L1  H    21    44       P1  8028  0.89
      P1  H  7989  7998       L1     8  0.91

> <Gold.Chemscore.Hbond.Weighted>
-6.3546

> <Gold.Chemscore.Metal.Weighted>
-0.0000

> <Gold.Chemscore.Lipo.Weighted>
-11.2326

> <Gold.Chemscore.Internal_Hbond.Weighted>
0.0000

> <Gold.Chemscore.DEClash.Weighted>
0.0247

> <Gold.Chemscore.DEInternal.Weighted>
0.6870

> <Gold.Chemscore.Rot.Weighted>
4.7603

> <Gold.Chemscore.Internal.Correction.Weighted>
   9.000000E+99

> <Gold.Protein.RotatedTorsions>
[ 6907 6896 6895 6894 ] final -178.09 input  -60.11 | X-H torsion
[ 7974 7965 7964 7962 ] final   21.89 input  175.53 | X-H torsion
[ 8008 7997 7996 7995 ] final  -21.58 input   59.86 | X-H torsion
[ 10167 10162 10161 10158 ] final  159.61 input  -65.29 | X-H torsion
[ 10718 10713 10712 10709 ] final -112.63 input   66.30 | X-H torsion
[ 10763 10752 10751 10750 ] final   80.78 input  -60.55 | X-H torsion
[ 11005 11000 10999 10996 ] final  141.40 input  -57.11 | X-H torsion

> <Gold.Protein.ActiveResidues>
 VAL166  LYS551  ARG553  GLY616  TRP617  ASP618  TYR619  PRO620  LYS621  CYS622 
 ASP623  PHE694  ASN695  SER759  ASP760  ASP761  ALA762  ILE779  LEU786  VAL792 
 PHE793  MET794  SER795  GLU796  ALA797  LYS798  CYS799  TRP800  GLU811  SER814 

> <Gold.Protein.RotatedAtoms>
  151.6315  133.3332  159.3109 H   0  0  0  0  0  0  0  0  0  0  0  0  # atno 6907 bound_to 6896
  150.8054  134.7179  159.6651 H   0  0  0  0  0  0  0  0  0  0  0  0  # atno 6908 bound_to 6896
  152.4149  134.6064  160.0065 H   0  0  0  0  0  0  0  0  0  0  0  0  # atno 6909 bound_to 6896
  146.2052  139.7962  142.8731 H   0  0  0  0  0  0  0  0  0  0  0  0  # atno 7974 bound_to 7965
  154.4697  140.2031  156.0027 H   0  0  0  0  0  0  0  0  0  0  0  0  # atno 8008 bound_to 7997
  156.0988  140.3247  155.7885 H   0  0  0  0  0  0  0  0  0  0  0  0  # atno 8009 bound_to 7997
  155.4832  140.0540  157.2955 H   0  0  0  0  0  0  0  0  0  0  0  0  # atno 8010 bound_to 7997
  139.4833  144.4713  151.8572 H   0  0  0  0  0  0  0  0  0  0  0  0  # atno 10167 bound_to 10162
  156.0717  130.5930  150.8535 H   0  0  0  0  0  0  0  0  0  0  0  0  # atno 10718 bound_to 10713
  153.1062  135.4790  154.8954 H   0  0  0  0  0  0  0  0  0  0  0  0  # atno 10763 bound_to 10752
  154.7432  135.3087  154.8693 H   0  0  0  0  0  0  0  0  0  0  0  0  # atno 10764 bound_to 10752
  153.9296  135.6846  153.4799 H   0  0  0  0  0  0  0  0  0  0  0  0  # atno 10765 bound_to 10752
  140.0399  134.9310  157.0823 H   0  0  0  0  0  0  0  0  0  0  0  0  # atno 11005 bound_to 11000
  145.3344  141.0274  143.3428 LP  0  0  0  0  0  0  0  0  0  0  0  0  # atno 17320 bound_to 7965
  144.8776  139.4950  143.6738 LP  0  0  0  0  0  0  0  0  0  0  0  0  # atno 17321 bound_to 7965
  140.4182  144.2278  150.5887 LP  0  0  0  0  0  0  0  0  0  0  0  0  # atno 17342 bound_to 10162
  140.4899  143.2351  151.8833 LP  0  0  0  0  0  0  0  0  0  0  0  0  # atno 17343 bound_to 10162
  157.5792  131.0946  150.9298 LP  0  0  0  0  0  0  0  0  0  0  0  0  # atno 17370 bound_to 10713
  156.9497  130.5415  149.5282 LP  0  0  0  0  0  0  0  0  0  0  0  0  # atno 17371 bound_to 10713
  140.4087  134.2005  155.7163 LP  0  0  0  0  0  0  0  0  0  0  0  0  # atno 17394 bound_to 11000
  141.1877  133.8275  157.1021 LP  0  0  0  0  0  0  0  0  0  0  0  0  # atno 17395 bound_to 11000

$$$$
