AV-unprocessed.smi:99|AV-procd|sdf|877|dock8
  -GOLD-   2262017353D 1   1.00000     0.00000
 Structure written by MMmdl.
 53 56  0  0  0  0  0  0  0  0  1 V2000
  145.5251  135.3063  154.1321 O   0  0  0  0  0  0  0  0  0  0  0  0
  146.1127  134.3595  153.6046 C   0  0  0  0  0  0  0  0  0  0  0  0
  147.1488  133.7141  154.1739 O   0  0  0  0  0  0  0  0  0  0  0  0
  147.4673  133.9448  155.5357 C   0  0  0  0  0  0  0  0  0  0  0  0
  148.0284  135.3692  155.6821 C   0  0  2  0  0  0  0  0  0  0  0  0
  149.1738  135.4938  154.8384 O   0  0  0  0  0  0  0  0  0  0  0  0
  150.3637  135.3952  155.5717 C   0  0  1  0  0  0  0  0  0  0  0  0
  151.1463  136.6814  155.4206 N   0  0  0  0  0  0  0  0  0  0  0  0
  150.6899  137.7244  154.6242 C   0  0  0  0  0  0  0  0  0  0  0  0
  151.3573  138.8943  154.4855 C   0  0  0  0  0  0  0  0  0  0  0  0
  152.6154  139.1173  155.1899 C   0  0  0  0  0  0  0  0  0  0  0  0
  153.2925  140.1408  155.1246 O   0  0  0  0  0  0  0  0  0  0  0  0
  153.0297  138.0486  155.9896 N   0  0  0  0  0  0  0  0  0  0  0  0
  152.3482  136.8404  156.1449 C   0  0  0  0  0  0  0  0  0  0  0  0
  152.7955  135.9733  156.8945 O   0  0  0  0  0  0  0  0  0  0  0  0
  150.0007  135.1742  157.0472 C   0  0  2  0  0  0  0  0  0  0  0  0
  150.0914  133.8022  157.3836 O   0  0  0  0  0  0  0  0  0  0  0  0
  148.5724  135.6979  157.0731 C   0  0  2  0  0  0  0  0  0  0  0  0
  147.7929  135.2058  158.1578 O   0  0  0  0  0  0  0  0  0  0  0  0
  148.1877  135.3928  159.4352 C   0  0  0  0  0  0  0  0  0  0  0  0
  149.2354  135.9604  159.7507 O   0  0  0  0  0  0  0  0  0  0  0  0
  147.2248  134.8320  160.4258 C   0  0  0  0  0  0  0  0  0  0  0  0
  147.2624  135.2885  161.7641 C   0  0  0  0  0  0  0  0  0  0  0  0
  146.3681  134.7740  162.7229 C   0  0  0  0  0  0  0  0  0  0  0  0
  145.4255  133.7966  162.3548 C   0  0  0  0  0  0  0  0  0  0  0  0
  145.3776  133.3344  161.0267 C   0  0  0  0  0  0  0  0  0  0  0  0
  146.2708  133.8478  160.0663 C   0  0  0  0  0  0  0  0  0  0  0  0
  145.7533  133.8096  152.2657 C   0  0  0  0  0  0  0  0  0  0  0  0
  146.4440  132.6781  151.7728 C   0  0  0  0  0  0  0  0  0  0  0  0
  146.1260  132.1373  150.5117 C   0  0  0  0  0  0  0  0  0  0  0  0
  145.1148  132.7223  149.7277 C   0  0  0  0  0  0  0  0  0  0  0  0
  144.4213  133.8490  150.2062 C   0  0  0  0  0  0  0  0  0  0  0  0
  144.7370  134.3907  151.4675 C   0  0  0  0  0  0  0  0  0  0  0  0
  153.8916  138.1627  156.5030 H   0  0  0  0  0  0  0  0  0  0  0  0
  146.5597  133.8380  156.1312 H   0  0  0  0  0  0  0  0  0  0  0  0
  148.1817  133.1993  155.8855 H   0  0  0  0  0  0  0  0  0  0  0  0
  147.2656  136.0944  155.3966 H   0  0  0  0  0  0  0  0  0  0  0  0
  150.9819  134.6072  155.1366 H   0  0  0  0  0  0  0  0  0  0  0  0
  149.7597  137.6200  154.0858 H   0  0  0  0  0  0  0  0  0  0  0  0
  150.9563  139.6713  153.8508 H   0  0  0  0  0  0  0  0  0  0  0  0
  150.6595  135.7385  157.7086 H   0  0  0  0  0  0  0  0  0  0  0  0
  150.6052  133.3643  156.7222 H   0  0  0  0  0  0  0  0  0  0  0  0
  148.6166  136.7866  157.1352 H   0  0  0  0  0  0  0  0  0  0  0  0
  147.9781  136.0379  162.0702 H   0  0  0  0  0  0  0  0  0  0  0  0
  146.4067  135.1295  163.7421 H   0  0  0  0  0  0  0  0  0  0  0  0
  144.7405  133.4012  163.0905 H   0  0  0  0  0  0  0  0  0  0  0  0
  144.6547  132.5838  160.7434 H   0  0  0  0  0  0  0  0  0  0  0  0
  146.2076  133.4698  159.0563 H   0  0  0  0  0  0  0  0  0  0  0  0
  147.2240  132.2111  152.3568 H   0  0  0  0  0  0  0  0  0  0  0  0
  146.6588  131.2720  150.1462 H   0  0  0  0  0  0  0  0  0  0  0  0
  144.8713  132.3074  148.7606 H   0  0  0  0  0  0  0  0  0  0  0  0
  143.6454  134.2995  149.6052 H   0  0  0  0  0  0  0  0  0  0  0  0
  144.1864  135.2571  151.8035 H   0  0  0  0  0  0  0  0  0  0  0  0
  1  2  2  0  0  0  0
  2  3  1  0  0  0  0
  2 28  1  0  0  0  0
  3  4  1  0  0  0  0
  4  5  1  0  0  0  0
  4 35  1  0  0  0  0
  4 36  1  0  0  0  0
  5 18  1  0  0  0  0
  5  6  1  0  0  0  0
  5 37  1  0  0  0  0
  6  7  1  0  0  0  0
  7  8  1  0  0  0  0
  7 16  1  0  0  0  0
  7 38  1  0  0  0  0
  8 14  1  0  0  0  0
  8  9  1  0  0  0  0
  9 10  2  0  0  0  0
  9 39  1  0  0  0  0
 10 11  1  0  0  0  0
 10 40  1  0  0  0  0
 11 12  2  0  0  0  0
 11 13  1  0  0  0  0
 13 34  1  0  0  0  0
 13 14  1  0  0  0  0
 14 15  2  0  0  0  0
 16 17  1  0  0  0  0
 16 18  1  0  0  0  0
 16 41  1  0  0  0  0
 17 42  1  0  0  0  0
 18 19  1  0  0  0  0
 18 43  1  0  0  0  0
 19 20  1  0  0  0  0
 20 21  2  0  0  0  0
 20 22  1  0  0  0  0
 22 27  1  0  0  0  0
 22 23  2  0  0  0  0
 23 24  1  0  0  0  0
 23 44  1  0  0  0  0
 24 25  2  0  0  0  0
 24 45  1  0  0  0  0
 25 26  1  0  0  0  0
 25 46  1  0  0  0  0
 26 27  2  0  0  0  0
 26 47  1  0  0  0  0
 27 48  1  0  0  0  0
 28 33  1  0  0  0  0
 28 29  2  0  0  0  0
 29 30  1  0  0  0  0
 29 49  1  0  0  0  0
 30 31  2  0  0  0  0
 30 50  1  0  0  0  0
 31 32  1  0  0  0  0
 31 51  1  0  0  0  0
 32 33  2  0  0  0  0
 32 52  1  0  0  0  0
 33 53  1  0  0  0  0
M  END
> <s_m_source_file>
AV-unprocessed.smi

> <i_m_source_file_index>
99

> <i_lp_mmshare_version>
43012

> <i_f3d_flags>
0

> <s_epik_input>
W2NIXTFbY0hdW2NIXVtjSF1bY0hdYzFDKD1PKU9bQ0gyXVtDQEBIXTJPW0NAQEhdKG4zW2NIXVtjSF1jKD1PKVtuSF1jMz1PKVtDQEBIXShbT0hdKVtDQEhdMk9DKD1PKWM0W2NIXVtjSF1bY0hdW2NIXVtjSF00

> <s_epik_cmdline>
J2VwaWtfcHl0aG9uJywgJy1waCcsICc3LjAnLCAnLXRuJywgJzgnLCAnLW1hJywgJzIwMCcsICctbWV0YWxfYmluZGluZycsICctaW1hZScsICc8aW5maWxlLm1hZT4nLCAnLW9tYWUnLCAnPG91dGZpbGUubWFlPic=

> <r_lp_tautomer_probability>
1

> <r_epik_Ionization_Penalty>
0.00454555

> <r_epik_Ionization_Penalty_Charging>
0.0045191

> <r_epik_Ionization_Penalty_Neutral>
2.64449e-05

> <r_epik_State_Penalty>
-0

> <r_epik_Charging_Adjusted_Penalty>
0.0045191

> <i_epik_Tot_Q>
0

> <i_epik_Tot_abs_Q>
0

> <r_epik_Metal_State_Penalty>
1.27877

> <b_epik_Metal_Only>
0

> <s_epik_Chemistry_Notes>
This compound has an ester and may undergo hydrolysis at high or low pH. This compound contains an acetal/aminal-like group ( X-CH(R)-Y where X, Y are N, S, or O) that may be acid/base labile, releasing an aldehyde.

> <s_lp_Force_Field>
OPLS_2005

> <r_lp_Energy>
39.429

> <b_lp_Chiralities_Consistent>
1

> <s_lp_Variant>
AV-unprocessed.smi:99-13

> <Gold.Version>
5.8.1

> <Gold.Id.Protein>
6NUR|6NUR_protein|mol2

> <Gold.PLP.Fitness>
53.7322

> <Gold.PLP.PLP>
-42.2621

> <Gold.PLP.part.hbond>
-5.0000

> <Gold.PLP.part.metal>
0.0000

> <Gold.PLP.part.buried>
-0.9320

> <Gold.PLP.part.nonpolar>
-36.8040

> <Gold.PLP.part.repulsive>
0.4698

> <Gold.PLP.ligand.clash>
0.0000

> <Gold.PLP.ligand.torsion>
0.3470

> <Gold.PLP.Chemscore.Hbond>
3.0859

> <Gold.PLP.Chemscore.CHOScore>
0.9343

> <Gold.PLP.Chemscore.Metal>
0.0000

> <Gold.Chemscore.Hbonds>
donor molecule, donor type, donor heavy atom, donor atom, acceptor molecule, acceptor atom, score
      P1  H  6896  6908       L1    17  0.23
      P1  H  6896  6909       L1    21  1.00
      P1  H  7989  7998       L1    12  0.01
      P1  H  7997  8008       L1    12  0.63
      P1  H 10752 10763       L1    15  0.30
      L1  C     9    39       P1  7948  0.55

> <Gold.PLP.Chemscore.Internal.Correction>
0.1035

> <Gold.Rescore>
     Score         DG    S(hbond)    S(metal)    S(lipo)     H(rot)  DE(clash)    DE(int)     intcor
     12.37     -16.55       2.09        0.00     104.79       3.19       1.60       2.58       ----

> <Gold.Chemscore.Fitness>
12.3685

> <Gold.Chemscore.DG>
-16.5549

> <Gold.Chemscore.ZeroCoef>
-5.4800

> <Gold.Chemscore.Hbond>
2.0904

> <Gold.Chemscore.Metal>
0.0000

> <Gold.Chemscore.Lipo>
104.7858

> <Gold.Chemscore.Internal_Hbond>
0.0000

> <Gold.Chemscore.DEClash>
1.6023

> <Gold.Chemscore.DEInternal>
2.5841

> <Gold.Chemscore.Rot>
3.1903

> <Gold.Chemscore.Internal.Correction>
   9.000000E+99

> <Gold.Chemscore.Hbonds>
donor molecule, donor type, donor heavy atom, donor atom, acceptor molecule, acceptor atom, score
      P1  H  6896  6908       L1    17  0.06
      P1  H  6896  6909       L1    21  0.94
      P1  H  7997  8008       L1    12  0.64

> <Gold.Chemscore.Hbond.Weighted>
-6.9820

> <Gold.Chemscore.Metal.Weighted>
-0.0000

> <Gold.Chemscore.Lipo.Weighted>
-12.2599

> <Gold.Chemscore.Internal_Hbond.Weighted>
0.0000

> <Gold.Chemscore.DEClash.Weighted>
1.6023

> <Gold.Chemscore.DEInternal.Weighted>
2.5841

> <Gold.Chemscore.Rot.Weighted>
8.1671

> <Gold.Chemscore.Internal.Correction.Weighted>
   9.000000E+99

> <Gold.Protein.RotatedTorsions>
[ 6907 6896 6895 6894 ] final   79.31 input  -60.11 | X-H torsion
[ 7974 7965 7964 7962 ] final   99.92 input  175.53 | X-H torsion
[ 8008 7997 7996 7995 ] final   -9.64 input   59.86 | X-H torsion
[ 10167 10162 10161 10158 ] final -162.64 input  -65.29 | X-H torsion
[ 10718 10713 10712 10709 ] final  137.80 input   66.30 | X-H torsion
[ 10763 10752 10751 10750 ] final  130.92 input  -60.55 | X-H torsion
[ 11005 11000 10999 10996 ] final  174.29 input  -57.11 | X-H torsion

> <Gold.Protein.ActiveResidues>
 VAL166  LYS551  ARG553  GLY616  TRP617  ASP618  TYR619  PRO620  LYS621  CYS622 
 ASP623  PHE694  ASN695  SER759  ASP760  ASP761  ALA762  ILE779  LEU786  VAL792 
 PHE793  MET794  SER795  GLU796  ALA797  LYS798  CYS799  TRP800  GLU811  SER814 

> <Gold.Protein.RotatedAtoms>
  152.5193  134.3531  159.9257 H   0  0  0  0  0  0  0  0  0  0  0  0  # atno 6907 bound_to 6896
  151.3482  133.3929  159.2685 H   0  0  0  0  0  0  0  0  0  0  0  0  # atno 6908 bound_to 6896
  150.9748  134.9133  159.7867 H   0  0  0  0  0  0  0  0  0  0  0  0  # atno 6909 bound_to 6896
  145.3924  139.2360  143.3344 H   0  0  0  0  0  0  0  0  0  0  0  0  # atno 7974 bound_to 7965
  154.5628  140.2350  155.8309 H   0  0  0  0  0  0  0  0  0  0  0  0  # atno 8008 bound_to 7997
  156.2043  140.3044  155.9553 H   0  0  0  0  0  0  0  0  0  0  0  0  # atno 8009 bound_to 7997
  155.2857  140.0424  157.3009 H   0  0  0  0  0  0  0  0  0  0  0  0  # atno 8010 bound_to 7997
  139.6377  144.0318  152.2068 H   0  0  0  0  0  0  0  0  0  0  0  0  # atno 10167 bound_to 10162
  157.4322  131.1049  151.0237 H   0  0  0  0  0  0  0  0  0  0  0  0  # atno 10718 bound_to 10713
  153.7659  135.3189  155.3344 H   0  0  0  0  0  0  0  0  0  0  0  0  # atno 10763 bound_to 10752
  154.8214  135.4601  154.0792 H   0  0  0  0  0  0  0  0  0  0  0  0  # atno 10764 bound_to 10752
  153.2037  135.6926  153.8283 H   0  0  0  0  0  0  0  0  0  0  0  0  # atno 10765 bound_to 10752
  140.3497  134.7205  157.4259 H   0  0  0  0  0  0  0  0  0  0  0  0  # atno 11005 bound_to 11000
  146.2791  140.4609  142.8783 LP  0  0  0  0  0  0  0  0  0  0  0  0  # atno 17320 bound_to 7965
  144.8430  140.6887  143.6217 LP  0  0  0  0  0  0  0  0  0  0  0  0  # atno 17321 bound_to 7965
  139.9999  144.6301  150.7739 LP  0  0  0  0  0  0  0  0  0  0  0  0  # atno 17342 bound_to 10162
  140.7474  143.2906  151.3340 LP  0  0  0  0  0  0  0  0  0  0  0  0  # atno 17343 bound_to 10162
  157.1130  130.6029  149.5486 LP  0  0  0  0  0  0  0  0  0  0  0  0  # atno 17370 bound_to 10713
  155.9917  130.4973  150.7311 LP  0  0  0  0  0  0  0  0  0  0  0  0  # atno 17371 bound_to 10713
  140.0713  134.5859  155.8639 LP  0  0  0  0  0  0  0  0  0  0  0  0  # atno 17394 bound_to 11000
  141.2015  133.6619  156.5957 LP  0  0  0  0  0  0  0  0  0  0  0  0  # atno 17395 bound_to 11000

$$$$
