AV-unprocessed.smi:1879|AV-procd|sdf|7632|dock10
  -GOLD-   22720 9353D 1   1.00000     0.00000
 Structure written by MMmdl.
 46 48  0  0  0  0  0  0  0  0  1 V2000
  146.0693  134.1354  154.8063 O   0  0  0  0  0  0  0  0  0  0  0  0
  146.7565  134.7726  154.0077 C   0  0  0  0  0  0  0  0  0  0  0  0
  147.6047  135.7621  154.3337 N   0  0  0  0  0  0  0  0  0  0  0  0
  147.9021  136.2690  155.6303 C   0  0  0  0  0  0  0  0  0  0  0  0
  147.9279  135.4209  156.7645 C   0  0  0  0  0  0  0  0  0  0  0  0
  148.1543  135.9750  158.0359 C   0  0  0  0  0  0  0  0  0  0  0  0
  148.3313  137.3650  158.1324 C   0  0  0  0  0  0  0  0  0  0  0  0
  148.2959  138.1875  157.0654 N   0  0  0  0  0  0  0  0  0  0  0  0
  148.0934  137.6670  155.8296 C   0  0  0  0  0  0  0  0  0  0  0  0
  148.0822  138.5791  154.7486 N   0  0  0  0  0  0  0  0  0  0  0  0
  146.8821  139.3507  154.4429 C   0  0  0  0  0  0  0  0  0  0  0  0
  147.3529  140.4604  153.5075 C   0  0  0  0  0  0  0  0  0  0  0  0
  148.7427  140.7759  154.0514 C   0  0  0  0  0  0  0  0  0  0  0  0
  149.2590  139.4175  154.5380 C   0  0  0  0  0  0  0  0  0  0  0  0
  146.7638  134.5438  152.6870 N   0  0  0  0  0  0  0  0  0  0  0  0
  145.9673  133.5295  152.0029 C   0  0  2  0  0  0  0  0  0  0  0  0
  146.6029  133.1626  150.6469 C   0  0  0  0  0  0  0  0  0  0  0  0
  145.7458  132.1403  149.8799 C   0  0  0  0  0  0  0  0  0  0  0  0
  144.2892  132.6103  149.7054 C   0  0  2  0  0  0  0  0  0  0  0  0
  144.2335  133.6872  148.7909 O   0  0  0  0  0  0  0  0  0  0  0  0
  143.6623  133.0260  151.0498 C   0  0  0  0  0  0  0  0  0  0  0  0
  144.5301  134.0456  151.8079 C   0  0  0  0  0  0  0  0  0  0  0  0
  148.1783  136.1237  153.5858 H   0  0  0  0  0  0  0  0  0  0  0  0
  147.7539  134.3588  156.6825 H   0  0  0  0  0  0  0  0  0  0  0  0
  148.1778  135.3505  158.9166 H   0  0  0  0  0  0  0  0  0  0  0  0
  148.4993  137.8306  159.0923 H   0  0  0  0  0  0  0  0  0  0  0  0
  146.1157  138.7284  153.9803 H   0  0  0  0  0  0  0  0  0  0  0  0
  146.4655  139.7935  155.3485 H   0  0  0  0  0  0  0  0  0  0  0  0
  147.4281  140.0823  152.4869 H   0  0  0  0  0  0  0  0  0  0  0  0
  146.6878  141.3243  153.5034 H   0  0  0  0  0  0  0  0  0  0  0  0
  149.3964  141.2371  153.3107 H   0  0  0  0  0  0  0  0  0  0  0  0
  148.6580  141.4598  154.8967 H   0  0  0  0  0  0  0  0  0  0  0  0
  149.8597  139.5202  155.4427 H   0  0  0  0  0  0  0  0  0  0  0  0
  149.8816  138.9612  153.7684 H   0  0  0  0  0  0  0  0  0  0  0  0
  147.3649  135.1135  152.1095 H   0  0  0  0  0  0  0  0  0  0  0  0
  145.9224  132.6336  152.6253 H   0  0  0  0  0  0  0  0  0  0  0  0
  146.7272  134.0614  150.0412 H   0  0  0  0  0  0  0  0  0  0  0  0
  147.6030  132.7547  150.7979 H   0  0  0  0  0  0  0  0  0  0  0  0
  146.1945  131.9287  148.9086 H   0  0  0  0  0  0  0  0  0  0  0  0
  145.7507  131.1969  150.4273 H   0  0  0  0  0  0  0  0  0  0  0  0
  143.7026  131.7983  149.2745 H   0  0  0  0  0  0  0  0  0  0  0  0
  145.1119  134.0037  148.6456 H   0  0  0  0  0  0  0  0  0  0  0  0
  142.6612  133.4288  150.8930 H   0  0  0  0  0  0  0  0  0  0  0  0
  143.5375  132.1387  151.6718 H   0  0  0  0  0  0  0  0  0  0  0  0
  144.0767  134.2608  152.7764 H   0  0  0  0  0  0  0  0  0  0  0  0
  144.5461  134.9889  151.2600 H   0  0  0  0  0  0  0  0  0  0  0  0
  1  2  2  0  0  0  0
  2  3  1  0  0  0  0
  2 15  1  0  0  0  0
  3  4  1  0  0  0  0
  3 23  1  0  0  0  0
  4  9  1  0  0  0  0
  4  5  2  0  0  0  0
  5  6  1  0  0  0  0
  5 24  1  0  0  0  0
  6  7  2  0  0  0  0
  6 25  1  0  0  0  0
  7  8  1  0  0  0  0
  7 26  1  0  0  0  0
  8  9  2  0  0  0  0
  9 10  1  0  0  0  0
 10 14  1  0  0  0  0
 10 11  1  0  0  0  0
 11 12  1  0  0  0  0
 11 27  1  0  0  0  0
 11 28  1  0  0  0  0
 12 13  1  0  0  0  0
 12 29  1  0  0  0  0
 12 30  1  0  0  0  0
 13 14  1  0  0  0  0
 13 31  1  0  0  0  0
 13 32  1  0  0  0  0
 14 33  1  0  0  0  0
 14 34  1  0  0  0  0
 15 16  1  0  0  0  0
 15 35  1  0  0  0  0
 16 22  1  0  0  0  0
 16 17  1  0  0  0  0
 16 36  1  0  0  0  0
 17 18  1  0  0  0  0
 17 37  1  0  0  0  0
 17 38  1  0  0  0  0
 18 19  1  0  0  0  0
 18 39  1  0  0  0  0
 18 40  1  0  0  0  0
 19 20  1  0  0  0  0
 19 21  1  0  0  0  0
 19 41  1  0  0  0  0
 20 42  1  0  0  0  0
 21 22  1  0  0  0  0
 21 43  1  0  0  0  0
 21 44  1  0  0  0  0
 22 45  1  0  0  0  0
 22 46  1  0  0  0  0
M  END
> <s_m_source_file>
AV-unprocessed.smi

> <i_m_source_file_index>
1879

> <i_lp_mmshare_version>
43012

> <i_f3d_flags>
0

> <s_epik_input>
W0NIMl0xW0NIMl1bQ0BIXShbT0hdKVtDSDJdW0NIMl1bQ0BIXTFbTkhdQyg9TylbTkhdYzJbY0hdW2NIXVtjSF1uYzJOM1tDSDJdW0NIMl1bQ0gyXVtDSDJdMw==

> <s_epik_cmdline>
J2VwaWtfcHl0aG9uJywgJy1waCcsICc3LjAnLCAnLXRuJywgJzgnLCAnLW1hJywgJzIwMCcsICctbWV0YWxfYmluZGluZycsICctaW1hZScsICc8aW5maWxlLm1hZT4nLCAnLW9tYWUnLCAnPG91dGZpbGUubWFlPic=

> <r_lp_tautomer_probability>
1

> <r_epik_Ionization_Penalty>
0.104121

> <r_epik_Ionization_Penalty_Charging>
0

> <r_epik_Ionization_Penalty_Neutral>
0.104121

> <r_epik_State_Penalty>
0.0934704

> <r_epik_Charging_Adjusted_Penalty>
0.0934704

> <i_epik_Tot_Q>
0

> <i_epik_Tot_abs_Q>
0

> <r_epik_Metal_State_Penalty>
0.0794466

> <b_epik_Metal_Only>
0

> <s_lp_Force_Field>
OPLS_2005

> <r_lp_Energy>
39.1778

> <b_lp_Chiralities_Consistent>
1

> <s_lp_Variant>
AV-unprocessed.smi:1879-2

> <Gold.Version>
5.8.1

> <Gold.Id.Protein>
6NUR|6NUR_protein|mol2

> <Gold.PLP.Fitness>
38.9886

> <Gold.PLP.PLP>
-31.8594

> <Gold.PLP.part.hbond>
-4.0000

> <Gold.PLP.part.metal>
0.0000

> <Gold.PLP.part.buried>
-4.7714

> <Gold.PLP.part.nonpolar>
-22.3987

> <Gold.PLP.part.repulsive>
0.1720

> <Gold.PLP.ligand.clash>
0.0000

> <Gold.PLP.ligand.torsion>
0.8760

> <Gold.PLP.Chemscore.Hbond>
2.8480

> <Gold.PLP.Chemscore.CHOScore>
0.0000

> <Gold.PLP.Chemscore.Metal>
0.0000

> <Gold.Chemscore.Hbonds>
donor molecule, donor type, donor heavy atom, donor atom, acceptor molecule, acceptor atom, score
      L1  H     3    23       P1  7948  1.00
      L1  H    15    35       P1  7948  1.00
      L1  H    20    42       P1  7921  0.93

> <Gold.PLP.Chemscore.Internal.Correction>
0.3373

> <Gold.Rescore>
     Score         DG    S(hbond)    S(metal)    S(lipo)     H(rot)  DE(clash)    DE(int)     intcor
     17.87     -19.81       2.81        0.00      78.95       1.67       0.06       1.88       ----

> <Gold.Chemscore.Fitness>
17.8660

> <Gold.Chemscore.DG>
-19.8094

> <Gold.Chemscore.ZeroCoef>
-5.4800

> <Gold.Chemscore.Hbond>
2.8064

> <Gold.Chemscore.Metal>
0.0000

> <Gold.Chemscore.Lipo>
78.9506

> <Gold.Chemscore.Internal_Hbond>
0.0000

> <Gold.Chemscore.DEClash>
0.0595

> <Gold.Chemscore.DEInternal>
1.8839

> <Gold.Chemscore.Rot>
1.6723

> <Gold.Chemscore.Internal.Correction>
   9.000000E+99

> <Gold.Chemscore.Hbonds>
donor molecule, donor type, donor heavy atom, donor atom, acceptor molecule, acceptor atom, score
      L1  H     3    23       P1  7948  0.99
      L1  H    15    35       P1  7948  0.94
      L1  H    20    42       P1  7921  0.87

> <Gold.Chemscore.Hbond.Weighted>
-9.3734

> <Gold.Chemscore.Metal.Weighted>
-0.0000

> <Gold.Chemscore.Lipo.Weighted>
-9.2372

> <Gold.Chemscore.Internal_Hbond.Weighted>
0.0000

> <Gold.Chemscore.DEClash.Weighted>
0.0595

> <Gold.Chemscore.DEInternal.Weighted>
1.8839

> <Gold.Chemscore.Rot.Weighted>
4.2812

> <Gold.Chemscore.Internal.Correction.Weighted>
   9.000000E+99

> <Gold.Protein.RotatedTorsions>
[ 6907 6896 6895 6894 ] final  -28.03 input  -60.11 | X-H torsion
[ 7974 7965 7964 7962 ] final   16.75 input  175.53 | X-H torsion
[ 8008 7997 7996 7995 ] final  -69.85 input   59.86 | X-H torsion
[ 10167 10162 10161 10158 ] final  -54.17 input  -65.29 | X-H torsion
[ 10718 10713 10712 10709 ] final  171.30 input   66.30 | X-H torsion
[ 10763 10752 10751 10750 ] final  150.59 input  -60.55 | X-H torsion
[ 11005 11000 10999 10996 ] final   90.90 input  -57.11 | X-H torsion

> <Gold.Protein.ActiveResidues>
 VAL166  LYS551  ARG553  GLY616  TRP617  ASP618  TYR619  PRO620  LYS621  CYS622 
 ASP623  PHE694  ASN695  SER759  ASP760  ASP761  ALA762  ILE779  LEU786  VAL792 
 PHE793  MET794  SER795  GLU796  ALA797  LYS798  CYS799  TRP800  GLU811  SER814 

> <Gold.Protein.RotatedAtoms>
  151.1387  135.0168  159.8615 H   0  0  0  0  0  0  0  0  0  0  0  0  # atno 6907 bound_to 6896
  152.5452  134.1525  159.8534 H   0  0  0  0  0  0  0  0  0  0  0  0  # atno 6908 bound_to 6896
  151.1599  133.4807  159.2627 H   0  0  0  0  0  0  0  0  0  0  0  0  # atno 6909 bound_to 6896
  146.2240  139.8703  142.8589 H   0  0  0  0  0  0  0  0  0  0  0  0  # atno 7974 bound_to 7965
  154.4969  140.0845  156.7715 H   0  0  0  0  0  0  0  0  0  0  0  0  # atno 8008 bound_to 7997
  155.4096  140.3441  155.4244 H   0  0  0  0  0  0  0  0  0  0  0  0  # atno 8009 bound_to 7997
  156.1405  140.1528  156.8915 H   0  0  0  0  0  0  0  0  0  0  0  0  # atno 8010 bound_to 7997
  140.6445  143.2527  151.4898 H   0  0  0  0  0  0  0  0  0  0  0  0  # atno 10167 bound_to 10162
  156.9955  131.0160  151.2845 H   0  0  0  0  0  0  0  0  0  0  0  0  # atno 10718 bound_to 10713
  154.0900  135.2853  155.3273 H   0  0  0  0  0  0  0  0  0  0  0  0  # atno 10763 bound_to 10752
  154.6626  135.5329  153.8040 H   0  0  0  0  0  0  0  0  0  0  0  0  # atno 10764 bound_to 10752
  153.0417  135.6537  154.1070 H   0  0  0  0  0  0  0  0  0  0  0  0  # atno 10765 bound_to 10752
  139.8848  134.8642  156.3351 H   0  0  0  0  0  0  0  0  0  0  0  0  # atno 11005 bound_to 11000
  145.2615  141.0078  143.3823 LP  0  0  0  0  0  0  0  0  0  0  0  0  # atno 17320 bound_to 7965
  144.9295  139.4316  143.6502 LP  0  0  0  0  0  0  0  0  0  0  0  0  # atno 17321 bound_to 7965
  139.5655  144.2053  152.1758 LP  0  0  0  0  0  0  0  0  0  0  0  0  # atno 17342 bound_to 10162
  140.1333  144.5268  150.6789 LP  0  0  0  0  0  0  0  0  0  0  0  0  # atno 17343 bound_to 10162
  157.5428  130.8131  149.8049 LP  0  0  0  0  0  0  0  0  0  0  0  0  # atno 17370 bound_to 10713
  156.0191  130.3802  150.2018 LP  0  0  0  0  0  0  0  0  0  0  0  0  # atno 17371 bound_to 10713
  140.9696  133.7335  156.0516 LP  0  0  0  0  0  0  0  0  0  0  0  0  # atno 17394 bound_to 11000
  140.7887  134.3642  157.5470 LP  0  0  0  0  0  0  0  0  0  0  0  0  # atno 17395 bound_to 11000

$$$$
