AV-unprocessed.smi:3343|AV-procd|sdf|12895|dock2
  -GOLD-   2272019303D 1   1.00000     0.00000
 Structure written by MMmdl.
 42 43  0  0  0  0  0  0  0  0  2 V2000
  150.1196  141.3142  155.7891 C   0  0  0  0  0  0  0  0  0  0  0  0
  149.9163  140.3959  154.5671 C   0  0  2  0  0  0  0  0  0  0  0  0
  148.4353  140.0805  154.2877 C   0  0  0  0  0  0  0  0  0  0  0  0
  147.6755  139.7575  155.2015 O   0  0  0  0  0  0  0  0  0  0  0  0
  148.0343  140.1862  153.0106 N   0  0  0  0  0  0  0  0  0  0  0  0
  146.6882  139.9046  152.5291 C   0  0  0  0  0  0  0  0  0  0  0  0
  146.7322  138.8443  151.4170 C   0  0  0  0  0  0  0  0  0  0  0  0
  146.4035  137.4849  151.9145 N   0  3  0  0  0  0  0  0  0  0  0  0
  145.8318  136.6195  150.8546 C   0  0  0  0  0  0  0  0  0  0  0  0
  145.5911  135.1913  151.3875 C   0  0  0  0  0  0  0  0  0  0  0  0
  144.7191  135.1806  152.5631 N   0  0  0  0  0  0  0  0  0  0  0  0
  143.3278  135.4864  152.2482 C   0  0  0  0  0  0  0  0  0  0  0  0
  145.2768  136.0442  153.6050 C   0  0  0  0  0  0  0  0  0  0  0  0
  145.5153  137.4847  153.1042 C   0  0  0  0  0  0  0  0  0  0  0  0
  150.6951  139.1682  154.6852 N   0  0  0  0  0  0  0  0  0  0  0  0
  150.8065  138.1367  153.8454 C   0  0  0  0  0  0  0  0  0  0  0  0
  151.5817  137.1590  154.2930 N   0  0  0  0  0  0  0  0  0  0  0  0
  151.9437  137.6887  155.4992 C   0  0  0  0  0  0  0  0  0  0  0  0
  151.4326  138.8852  155.7882 N   0  0  0  0  0  0  0  0  0  0  0  0
  149.5978  142.2633  155.6615 H   0  0  0  0  0  0  0  0  0  0  0  0
  151.1763  141.5420  155.9319 H   0  0  0  0  0  0  0  0  0  0  0  0
  149.7542  140.8553  156.7087 H   0  0  0  0  0  0  0  0  0  0  0  0
  150.2918  140.9310  153.6933 H   0  0  0  0  0  0  0  0  0  0  0  0
  148.7181  140.4667  152.3225 H   0  0  0  0  0  0  0  0  0  0  0  0
  146.0523  139.5508  153.3425 H   0  0  0  0  0  0  0  0  0  0  0  0
  146.2592  140.8393  152.1692 H   0  0  0  0  0  0  0  0  0  0  0  0
  146.0627  139.1112  150.5977 H   0  0  0  0  0  0  0  0  0  0  0  0
  147.7411  138.8345  151.0011 H   0  0  0  0  0  0  0  0  0  0  0  0
  144.9101  137.0576  150.4693 H   0  0  0  0  0  0  0  0  0  0  0  0
  146.5261  136.5691  150.0150 H   0  0  0  0  0  0  0  0  0  0  0  0
  145.1630  134.5605  150.6075 H   0  0  0  0  0  0  0  0  0  0  0  0
  146.5457  134.7389  151.6603 H   0  0  0  0  0  0  0  0  0  0  0  0
  142.7113  135.4011  153.1434 H   0  0  0  0  0  0  0  0  0  0  0  0
  142.9429  134.7773  151.5146 H   0  0  0  0  0  0  0  0  0  0  0  0
  143.1989  136.4903  151.8454 H   0  0  0  0  0  0  0  0  0  0  0  0
  144.6146  136.0471  154.4717 H   0  0  0  0  0  0  0  0  0  0  0  0
  146.2219  135.6149  153.9408 H   0  0  0  0  0  0  0  0  0  0  0  0
  145.9707  138.0588  153.9100 H   0  0  0  0  0  0  0  0  0  0  0  0
  144.5718  137.9787  152.8685 H   0  0  0  0  0  0  0  0  0  0  0  0
  150.3056  138.0972  152.8892 H   0  0  0  0  0  0  0  0  0  0  0  0
  152.5971  137.1738  156.1881 H   0  0  0  0  0  0  0  0  0  0  0  0
  147.2748  137.0555  152.1918 H   0  0  0  0  0  0  0  0  0  0  0  0
  1  2  1  0  0  0  0
  1 20  1  0  0  0  0
  1 21  1  0  0  0  0
  1 22  1  0  0  0  0
  2  3  1  0  0  0  0
  2 15  1  0  0  0  0
  2 23  1  0  0  0  0
  3  4  2  0  0  0  0
  3  5  1  0  0  0  0
  5  6  1  0  0  0  0
  5 24  1  0  0  0  0
  6  7  1  0  0  0  0
  6 25  1  0  0  0  0
  6 26  1  0  0  0  0
  7  8  1  0  0  0  0
  7 27  1  0  0  0  0
  7 28  1  0  0  0  0
  8 14  1  0  0  0  0
  8  9  1  0  0  0  0
  8 42  1  0  0  0  0
  9 10  1  0  0  0  0
  9 29  1  0  0  0  0
  9 30  1  0  0  0  0
 10 11  1  0  0  0  0
 10 31  1  0  0  0  0
 10 32  1  0  0  0  0
 11 12  1  0  0  0  0
 11 13  1  0  0  0  0
 12 33  1  0  0  0  0
 12 34  1  0  0  0  0
 12 35  1  0  0  0  0
 13 14  1  0  0  0  0
 13 36  1  0  0  0  0
 13 37  1  0  0  0  0
 14 38  1  0  0  0  0
 14 39  1  0  0  0  0
 15 19  1  0  0  0  0
 15 16  1  0  0  0  0
 16 17  2  0  0  0  0
 16 40  1  0  0  0  0
 17 18  1  0  0  0  0
 18 19  2  0  0  0  0
 18 41  1  0  0  0  0
M  CHG  1   8   1
M  END
> <s_m_source_file>
AV-unprocessed.smi

> <i_m_source_file_index>
3343

> <i_lp_mmshare_version>
43012

> <i_f3d_flags>
0

> <s_epik_input>
bjFbY0hdbltjSF1uMVtDQEhdKFtDSDNdKUMoPU8pW05IXVtDSDJdW0NIMl1OMltDSDJdW0NIMl1OKFtDSDNdKVtDSDJdW0NIMl0y

> <s_epik_cmdline>
J2VwaWtfcHl0aG9uJywgJy1waCcsICc3LjAnLCAnLXRuJywgJzgnLCAnLW1hJywgJzIwMCcsICctbWV0YWxfYmluZGluZycsICctaW1hZScsICc8aW5maWxlLm1hZT4nLCAnLW9tYWUnLCAnPG91dGZpbGUubWFlPic=

> <r_epik_Ionization_Penalty>
0.559944

> <r_epik_Ionization_Penalty_Charging>
0.558624

> <r_epik_Ionization_Penalty_Neutral>
0.00131959

> <r_epik_State_Penalty>
2.08679

> <r_epik_Charging_Adjusted_Penalty>
2.64542

> <i_epik_Tot_Q>
1

> <i_epik_Tot_abs_Q>
1

> <r_epik_Metal_State_Penalty>
2.0868

> <b_epik_Metal_Only>
0

> <s_lp_Force_Field>
OPLS_2005

> <r_lp_Energy>
23.1114

> <b_lp_Chiralities_Consistent>
1

> <s_lp_Variant>
AV-unprocessed.smi:3343-5

> <Gold.Version>
5.8.1

> <Gold.Id.Protein>
6NUR|6NUR_protein|mol2

> <Gold.PLP.Fitness>
43.5425

> <Gold.PLP.PLP>
-29.8102

> <Gold.PLP.part.hbond>
-2.7118

> <Gold.PLP.part.metal>
0.0000

> <Gold.PLP.part.buried>
1.9148

> <Gold.PLP.part.nonpolar>
-30.2056

> <Gold.PLP.part.repulsive>
0.4728

> <Gold.PLP.ligand.clash>
0.0004

> <Gold.PLP.ligand.torsion>
1.1375

> <Gold.PLP.Chemscore.Hbond>
3.8865

> <Gold.PLP.Chemscore.CHOScore>
1.4005

> <Gold.PLP.Chemscore.Metal>
0.0000

> <Gold.Chemscore.Hbonds>
donor molecule, donor type, donor heavy atom, donor atom, acceptor molecule, acceptor atom, score
      L1  H     5    24       P1  7957  0.91
      L1  H     8    42       P1  7948  2.00
      P1  H 10752 10763       L1    17  0.80
      L1  C    16    40       P1  7948  0.76
      L1  C    16    40       P1  7949  0.13
      L1  C    16    40       P1  7957  0.54

> <Gold.PLP.Chemscore.Internal.Correction>
0.1466

> <Gold.Rescore>
     Score         DG    S(hbond)    S(metal)    S(lipo)     H(rot)  DE(clash)    DE(int)     intcor
     13.14     -14.33       2.71        0.00      55.86       2.63       0.19       1.01       ----

> <Gold.Chemscore.Fitness>
13.1377

> <Gold.Chemscore.DG>
-14.3340

> <Gold.Chemscore.ZeroCoef>
-5.4800

> <Gold.Chemscore.Hbond>
2.7082

> <Gold.Chemscore.Metal>
0.0000

> <Gold.Chemscore.Lipo>
55.8614

> <Gold.Chemscore.Internal_Hbond>
0.0000

> <Gold.Chemscore.DEClash>
0.1871

> <Gold.Chemscore.DEInternal>
1.0092

> <Gold.Chemscore.Rot>
2.6278

> <Gold.Chemscore.Internal.Correction>
   9.000000E+99

> <Gold.Chemscore.Hbonds>
donor molecule, donor type, donor heavy atom, donor atom, acceptor molecule, acceptor atom, score
      L1  H     5    24       P1  7957  0.83
      L1  H     8    42       P1  7948  0.97
      P1  H 10752 10763       L1    17  0.11

> <Gold.Chemscore.Hbond.Weighted>
-9.0453

> <Gold.Chemscore.Metal.Weighted>
-0.0000

> <Gold.Chemscore.Lipo.Weighted>
-6.5358

> <Gold.Chemscore.Internal_Hbond.Weighted>
0.0000

> <Gold.Chemscore.DEClash.Weighted>
0.1871

> <Gold.Chemscore.DEInternal.Weighted>
1.0092

> <Gold.Chemscore.Rot.Weighted>
6.7271

> <Gold.Chemscore.Internal.Correction.Weighted>
   9.000000E+99

> <Gold.Protein.RotatedTorsions>
[ 6907 6896 6895 6894 ] final  136.15 input  -60.11 | X-H torsion
[ 7974 7965 7964 7962 ] final   40.43 input  175.53 | X-H torsion
[ 8008 7997 7996 7995 ] final -126.91 input   59.86 | X-H torsion
[ 10167 10162 10161 10158 ] final  136.61 input  -65.29 | X-H torsion
[ 10718 10713 10712 10709 ] final -115.13 input   66.30 | X-H torsion
[ 10763 10752 10751 10750 ] final   43.00 input  -60.55 | X-H torsion
[ 11005 11000 10999 10996 ] final  -56.81 input  -57.11 | X-H torsion

> <Gold.Protein.ActiveResidues>
 VAL166  LYS551  ARG553  GLY616  TRP617  ASP618  TYR619  PRO620  LYS621  CYS622 
 ASP623  PHE694  ASN695  SER759  ASP760  ASP761  ALA762  ILE779  LEU786  VAL792 
 PHE793  MET794  SER795  GLU796  ALA797  LYS798  CYS799  TRP800  GLU811  SER814 

> <Gold.Protein.RotatedAtoms>
  152.2926  133.5576  159.5566 H   0  0  0  0  0  0  0  0  0  0  0  0  # atno 6907 bound_to 6896
  150.7242  134.0407  159.3773 H   0  0  0  0  0  0  0  0  0  0  0  0  # atno 6908 bound_to 6896
  151.8312  135.0621  160.0488 H   0  0  0  0  0  0  0  0  0  0  0  0  # atno 6909 bound_to 6896
  146.0905  139.5533  142.9479 H   0  0  0  0  0  0  0  0  0  0  0  0  # atno 7974 bound_to 7965
  155.2374  140.0427  157.2970 H   0  0  0  0  0  0  0  0  0  0  0  0  # atno 8008 bound_to 7997
  154.5850  140.2411  155.7970 H   0  0  0  0  0  0  0  0  0  0  0  0  # atno 8009 bound_to 7997
  156.2219  140.2967  155.9982 H   0  0  0  0  0  0  0  0  0  0  0  0  # atno 8010 bound_to 7997
  139.5174  144.6455  151.5451 H   0  0  0  0  0  0  0  0  0  0  0  0  # atno 10167 bound_to 10162
  156.0875  130.6064  150.8865 H   0  0  0  0  0  0  0  0  0  0  0  0  # atno 10718 bound_to 10713
  152.9870  135.6115  154.3040 H   0  0  0  0  0  0  0  0  0  0  0  0  # atno 10763 bound_to 10752
  154.2759  135.2778  155.2720 H   0  0  0  0  0  0  0  0  0  0  0  0  # atno 10764 bound_to 10752
  154.5081  135.5848  153.6640 H   0  0  0  0  0  0  0  0  0  0  0  0  # atno 10765 bound_to 10752
  141.1137  133.6610  156.4675 H   0  0  0  0  0  0  0  0  0  0  0  0  # atno 11005 bound_to 11000
  145.6048  141.0349  143.1998 LP  0  0  0  0  0  0  0  0  0  0  0  0  # atno 17320 bound_to 7965
  144.7357  139.7594  143.7330 LP  0  0  0  0  0  0  0  0  0  0  0  0  # atno 17321 bound_to 7965
  140.6238  143.9207  150.6548 LP  0  0  0  0  0  0  0  0  0  0  0  0  # atno 17342 bound_to 10162
  140.2489  143.3608  152.1422 LP  0  0  0  0  0  0  0  0  0  0  0  0  # atno 17343 bound_to 10162
  157.6014  131.0941  150.8953 LP  0  0  0  0  0  0  0  0  0  0  0  0  # atno 17370 bound_to 10713
  156.9110  130.5280  149.5280 LP  0  0  0  0  0  0  0  0  0  0  0  0  # atno 17371 bound_to 10713
  140.4706  134.6757  157.5127 LP  0  0  0  0  0  0  0  0  0  0  0  0  # atno 17394 bound_to 11000
  140.0045  134.6784  155.9476 LP  0  0  0  0  0  0  0  0  0  0  0  0  # atno 17395 bound_to 11000

$$$$
