AV-unprocessed.smi:3058|AV-procd|sdf|11672|dock2
  -GOLD-   2272017 73D 1   1.00000     0.00000
 Structure written by MMmdl.
 38 40  0  0  0  0  0  0  0  0  1 V2000
  143.9213  135.9594  151.6714 O   0  0  0  0  0  0  0  0  0  0  0  0
  145.1062  135.7202  151.4372 C   0  0  0  0  0  0  0  0  0  0  0  0
  146.1010  136.5653  151.7525 N   0  0  0  0  0  0  0  0  0  0  0  0
  145.9501  137.8148  152.4946 C   0  0  0  0  0  0  0  0  0  0  0  0
  146.7260  138.9727  151.8361 C   0  0  0  0  0  0  0  0  0  0  0  0
  147.3627  139.9245  152.8351 C   0  0  0  0  0  0  0  0  0  0  0  0
  146.7890  141.1845  153.1054 C   0  0  0  0  0  0  0  0  0  0  0  0
  147.4360  142.0443  154.0132 C   0  0  0  0  0  0  0  0  0  0  0  0
  148.6309  141.6050  154.6168 C   0  0  0  0  0  0  0  0  0  0  0  0
  149.1869  140.3993  154.3700 N   0  0  0  0  0  0  0  0  0  0  0  0
  148.5615  139.5816  153.4958 C   0  0  0  0  0  0  0  0  0  0  0  0
  145.5296  134.3926  150.7864 C   0  0  1  0  0  0  0  0  0  0  0  0
  146.3244  133.4793  151.7521 C   0  0  0  0  0  0  0  0  0  0  0  0
  145.5362  132.1556  151.7153 C   0  0  2  0  0  0  0  0  0  0  0  0
  145.7007  131.4985  150.3315 C   0  0  0  0  0  0  0  0  0  0  0  0
  144.8420  132.4000  149.4229 C   0  0  0  0  0  0  0  0  0  0  0  0
  144.3380  133.4798  150.3997 C   0  0  1  0  0  0  0  0  0  0  0  0
  144.0965  132.6465  151.6587 C   0  0  0  0  0  0  0  0  0  0  0  0
  147.0432  136.2905  151.5155 H   0  0  0  0  0  0  0  0  0  0  0  0
  144.8897  138.0630  152.5388 H   0  0  0  0  0  0  0  0  0  0  0  0
  146.2741  137.6906  153.5292 H   0  0  0  0  0  0  0  0  0  0  0  0
  147.5046  138.5672  151.1887 H   0  0  0  0  0  0  0  0  0  0  0  0
  146.0585  139.5401  151.1867 H   0  0  0  0  0  0  0  0  0  0  0  0
  145.8768  141.4939  152.6168 H   0  0  0  0  0  0  0  0  0  0  0  0
  147.0289  143.0190  154.2379 H   0  0  0  0  0  0  0  0  0  0  0  0
  149.1546  142.2395  155.3164 H   0  0  0  0  0  0  0  0  0  0  0  0
  149.0371  138.6297  153.3104 H   0  0  0  0  0  0  0  0  0  0  0  0
  146.1281  134.6155  149.9014 H   0  0  0  0  0  0  0  0  0  0  0  0
  147.3585  133.3477  151.4320 H   0  0  0  0  0  0  0  0  0  0  0  0
  146.3483  133.8759  152.7691 H   0  0  0  0  0  0  0  0  0  0  0  0
  145.7631  131.4882  152.5471 H   0  0  0  0  0  0  0  0  0  0  0  0
  146.7436  131.4608  150.0145 H   0  0  0  0  0  0  0  0  0  0  0  0
  145.3142  130.4786  150.3350 H   0  0  0  0  0  0  0  0  0  0  0  0
  145.4096  132.8177  148.5906 H   0  0  0  0  0  0  0  0  0  0  0  0
  144.0064  131.8367  149.0052 H   0  0  0  0  0  0  0  0  0  0  0  0
  143.4619  134.0180  150.0360 H   0  0  0  0  0  0  0  0  0  0  0  0
  143.3726  131.8429  151.5123 H   0  0  0  0  0  0  0  0  0  0  0  0
  143.8037  133.2261  152.5342 H   0  0  0  0  0  0  0  0  0  0  0  0
  1  2  2  0  0  0  0
  2  3  1  0  0  0  0
  2 12  1  0  0  0  0
  3  4  1  0  0  0  0
  3 19  1  0  0  0  0
  4  5  1  0  0  0  0
  4 20  1  0  0  0  0
  4 21  1  0  0  0  0
  5  6  1  0  0  0  0
  5 22  1  0  0  0  0
  5 23  1  0  0  0  0
  6 11  1  0  0  0  0
  6  7  2  0  0  0  0
  7  8  1  0  0  0  0
  7 24  1  0  0  0  0
  8  9  2  0  0  0  0
  8 25  1  0  0  0  0
  9 10  1  0  0  0  0
  9 26  1  0  0  0  0
 10 11  2  0  0  0  0
 11 27  1  0  0  0  0
 12 17  1  0  0  0  0
 12 13  1  0  0  0  0
 12 28  1  0  0  0  0
 13 14  1  0  0  0  0
 13 29  1  0  0  0  0
 13 30  1  0  0  0  0
 14 18  1  0  0  0  0
 14 15  1  0  0  0  0
 14 31  1  0  0  0  0
 15 16  1  0  0  0  0
 15 32  1  0  0  0  0
 15 33  1  0  0  0  0
 16 17  1  0  0  0  0
 16 34  1  0  0  0  0
 16 35  1  0  0  0  0
 17 18  1  0  0  0  0
 17 36  1  0  0  0  0
 18 37  1  0  0  0  0
 18 38  1  0  0  0  0
M  END
> <s_m_source_file>
AV-unprocessed.smi

> <i_m_source_file_index>
3058

> <i_lp_mmshare_version>
43012

> <i_f3d_flags>
0

> <s_epik_input>
W0NIMl0xW0NIMl1bQ0BIXShbQ0gyXTIpW0NAQEhdKFtDSDJdW0NAQEhdMTIpQyg9TylbTkhdW0NIMl1bQ0gyXWMzW2NIXVtjSF1bY0hdbltjSF0z

> <s_epik_cmdline>
J2VwaWtfcHl0aG9uJywgJy1waCcsICc3LjAnLCAnLXRuJywgJzgnLCAnLW1hJywgJzIwMCcsICctbWV0YWxfYmluZGluZycsICctaW1hZScsICc8aW5maWxlLm1hZT4nLCAnLW9tYWUnLCAnPG91dGZpbGUubWFlPic=

> <r_epik_Ionization_Penalty>
0.0135821

> <r_epik_Ionization_Penalty_Charging>
0

> <r_epik_Ionization_Penalty_Neutral>
0.0135821

> <r_epik_State_Penalty>
0.0105782

> <r_epik_Charging_Adjusted_Penalty>
0.0105782

> <i_epik_Tot_Q>
0

> <i_epik_Tot_abs_Q>
0

> <r_epik_Metal_State_Penalty>
0.0103407

> <b_epik_Metal_Only>
0

> <s_lp_Force_Field>
OPLS_2005

> <r_lp_Energy>
47.0399

> <b_lp_Chiralities_Consistent>
1

> <s_lp_Variant>
AV-unprocessed.smi:3058-4

> <Gold.Version>
5.8.1

> <Gold.Id.Protein>
6NUR|6NUR_protein|mol2

> <Gold.PLP.Fitness>
42.4007

> <Gold.PLP.PLP>
-37.2479

> <Gold.PLP.part.hbond>
-1.0000

> <Gold.PLP.part.metal>
0.0000

> <Gold.PLP.part.buried>
0.8942

> <Gold.PLP.part.nonpolar>
-37.4231

> <Gold.PLP.part.repulsive>
0.3869

> <Gold.PLP.ligand.clash>
0.0000

> <Gold.PLP.ligand.torsion>
0.6455

> <Gold.PLP.Chemscore.Hbond>
1.0000

> <Gold.PLP.Chemscore.CHOScore>
1.1375

> <Gold.PLP.Chemscore.Metal>
0.0000

> <Gold.Chemscore.Hbonds>
donor molecule, donor type, donor heavy atom, donor atom, acceptor molecule, acceptor atom, score
      L1  H     3    19       P1  7948  1.00
      L1  C     9    26       P1  8028  0.95
      L1  C    11    27       P1  7948  0.39

> <Gold.PLP.Chemscore.Internal.Correction>
0.0312

> <Gold.Rescore>
     Score         DG    S(hbond)    S(metal)    S(lipo)     H(rot)  DE(clash)    DE(int)     intcor
     16.40     -17.33       1.00        0.00     102.72       1.37       0.24       0.70       ----

> <Gold.Chemscore.Fitness>
16.3976

> <Gold.Chemscore.DG>
-17.3341

> <Gold.Chemscore.ZeroCoef>
-5.4800

> <Gold.Chemscore.Hbond>
0.9974

> <Gold.Chemscore.Metal>
0.0000

> <Gold.Chemscore.Lipo>
102.7188

> <Gold.Chemscore.Internal_Hbond>
0.0000

> <Gold.Chemscore.DEClash>
0.2361

> <Gold.Chemscore.DEInternal>
0.7004

> <Gold.Chemscore.Rot>
1.3653

> <Gold.Chemscore.Internal.Correction>
   9.000000E+99

> <Gold.Chemscore.Hbonds>
donor molecule, donor type, donor heavy atom, donor atom, acceptor molecule, acceptor atom, score
      L1  H     3    19       P1  7948  0.97

> <Gold.Chemscore.Hbond.Weighted>
-3.3312

> <Gold.Chemscore.Metal.Weighted>
-0.0000

> <Gold.Chemscore.Lipo.Weighted>
-12.0181

> <Gold.Chemscore.Internal_Hbond.Weighted>
0.0000

> <Gold.Chemscore.DEClash.Weighted>
0.2361

> <Gold.Chemscore.DEInternal.Weighted>
0.7004

> <Gold.Chemscore.Rot.Weighted>
3.4951

> <Gold.Chemscore.Internal.Correction.Weighted>
   9.000000E+99

> <Gold.Protein.RotatedTorsions>
[ 6907 6896 6895 6894 ] final  125.15 input  -60.11 | X-H torsion
[ 7974 7965 7964 7962 ] final  172.10 input  175.53 | X-H torsion
[ 8008 7997 7996 7995 ] final -179.04 input   59.86 | X-H torsion
[ 10167 10162 10161 10158 ] final  -19.40 input  -65.29 | X-H torsion
[ 10718 10713 10712 10709 ] final  175.75 input   66.30 | X-H torsion
[ 10763 10752 10751 10750 ] final -109.75 input  -60.55 | X-H torsion
[ 11005 11000 10999 10996 ] final  -27.97 input  -57.11 | X-H torsion

> <Gold.Protein.ActiveResidues>
 VAL166  LYS551  ARG553  GLY616  TRP617  ASP618  TYR619  PRO620  LYS621  CYS622 
 ASP623  PHE694  ASN695  SER759  ASP760  ASP761  ALA762  ILE779  LEU786  VAL792 
 PHE793  MET794  SER795  GLU796  ALA797  LYS798  CYS799  TRP800  GLU811  SER814 

> <Gold.Protein.RotatedAtoms>
  152.4017  133.6827  159.6321 H   0  0  0  0  0  0  0  0  0  0  0  0  # atno 6907 bound_to 6896
  150.7907  133.8780  159.3286 H   0  0  0  0  0  0  0  0  0  0  0  0  # atno 6908 bound_to 6896
  151.6544  135.0999  160.0218 H   0  0  0  0  0  0  0  0  0  0  0  0  # atno 6909 bound_to 6896
  144.7277  139.9448  143.6430 H   0  0  0  0  0  0  0  0  0  0  0  0  # atno 7974 bound_to 7965
  156.0259  140.1271  157.0309 H   0  0  0  0  0  0  0  0  0  0  0  0  # atno 8008 bound_to 7997
  154.4330  140.1059  156.6100 H   0  0  0  0  0  0  0  0  0  0  0  0  # atno 8009 bound_to 7997
  155.5878  140.3469  155.4560 H   0  0  0  0  0  0  0  0  0  0  0  0  # atno 8010 bound_to 7997
  140.7268  143.4822  151.0103 H   0  0  0  0  0  0  0  0  0  0  0  0  # atno 10167 bound_to 10162
  156.9303  130.9969  151.2988 H   0  0  0  0  0  0  0  0  0  0  0  0  # atno 10718 bound_to 10713
  154.8210  135.4589  154.0780 H   0  0  0  0  0  0  0  0  0  0  0  0  # atno 10763 bound_to 10752
  153.2134  135.6885  153.8093 H   0  0  0  0  0  0  0  0  0  0  0  0  # atno 10764 bound_to 10752
  153.7536  135.3294  155.3302 H   0  0  0  0  0  0  0  0  0  0  0  0  # atno 10765 bound_to 10752
  140.9166  133.7426  156.0744 H   0  0  0  0  0  0  0  0  0  0  0  0  # atno 11005 bound_to 11000
  146.0757  139.3745  143.0495 LP  0  0  0  0  0  0  0  0  0  0  0  0  # atno 17320 bound_to 7965
  145.7909  140.9815  143.1049 LP  0  0  0  0  0  0  0  0  0  0  0  0  # atno 17321 bound_to 7965
  139.8521  143.7424  152.3177 LP  0  0  0  0  0  0  0  0  0  0  0  0  # atno 17342 bound_to 10162
  139.7610  144.7506  151.0364 LP  0  0  0  0  0  0  0  0  0  0  0  0  # atno 17343 bound_to 10162
  157.5851  130.8404  149.8578 LP  0  0  0  0  0  0  0  0  0  0  0  0  # atno 17370 bound_to 10713
  156.0450  130.3730  150.1340 LP  0  0  0  0  0  0  0  0  0  0  0  0  # atno 17371 bound_to 10713
  140.8041  134.3474  157.5431 LP  0  0  0  0  0  0  0  0  0  0  0  0  # atno 17394 bound_to 11000
  139.8767  134.9215  156.3278 LP  0  0  0  0  0  0  0  0  0  0  0  0  # atno 17395 bound_to 11000

$$$$
