AV-unprocessed.smi:3350|AV-procd|sdf|12946|dock6
  -GOLD-   2272019383D 1   1.00000     0.00000
 Structure written by MMmdl.
 41 42  0  0  0  0  0  0  0  0  1 V2000
  144.6678  137.2089  152.6146 C   0  0  0  0  0  0  0  0  0  0  0  0
  144.8928  135.7191  152.3235 C   0  0  1  0  0  0  0  0  0  0  0  0
  144.6305  135.3907  150.8375 C   0  0  0  0  0  0  0  0  0  0  0  0
  144.7761  133.9764  150.5400 N   0  0  0  0  0  0  0  0  0  0  0  0
  143.7932  133.0617  150.2235 C   0  0  0  0  0  0  0  0  0  0  0  0
  144.4097  131.8642  150.0009 C   0  0  0  0  0  0  0  0  0  0  0  0
  145.7876  132.1492  150.2134 C   0  0  0  0  0  0  0  0  0  0  0  0
  146.0035  133.4131  150.5401 N   0  0  0  0  0  0  0  0  0  0  0  0
  146.2607  135.3621  152.6989 N   0  0  0  0  0  0  0  0  0  0  0  0
  146.6087  134.3401  153.4945 C   0  0  0  0  0  0  0  0  0  0  0  0
  145.8061  133.5952  154.0569 O   0  0  0  0  0  0  0  0  0  0  0  0
  147.9394  134.2093  153.5786 N   0  0  0  0  0  0  0  0  0  0  0  0
  148.6367  133.1600  154.3184 C   0  0  1  0  0  0  0  0  0  0  0  0
  148.8132  131.9187  153.4267 C   0  0  0  0  0  0  0  0  0  0  0  0
  149.9884  133.6932  154.8293 C   0  0  1  0  0  0  0  0  0  0  0  0
  149.9086  135.0143  155.5957 C   0  0  0  0  0  0  0  0  0  0  0  0
  151.1537  134.9927  156.4672 C   0  0  0  0  0  0  0  0  0  0  0  0
  151.5823  133.5220  156.4699 C   0  0  0  0  0  0  0  0  0  0  0  0
  150.5381  132.8229  155.8061 O   0  0  0  0  0  0  0  0  0  0  0  0
  143.6463  137.5045  152.3732 H   0  0  0  0  0  0  0  0  0  0  0  0
  145.3423  137.8357  152.0303 H   0  0  0  0  0  0  0  0  0  0  0  0
  144.8333  137.4327  153.6691 H   0  0  0  0  0  0  0  0  0  0  0  0
  144.1823  135.1616  152.9367 H   0  0  0  0  0  0  0  0  0  0  0  0
  143.6196  135.6919  150.5587 H   0  0  0  0  0  0  0  0  0  0  0  0
  145.3094  135.9538  150.1954 H   0  0  0  0  0  0  0  0  0  0  0  0
  142.7505  133.3390  150.1736 H   0  0  0  0  0  0  0  0  0  0  0  0
  143.9474  130.9279  149.7256 H   0  0  0  0  0  0  0  0  0  0  0  0
  146.6316  131.4793  150.1406 H   0  0  0  0  0  0  0  0  0  0  0  0
  146.9999  135.9136  152.2887 H   0  0  0  0  0  0  0  0  0  0  0  0
  148.5150  134.8706  153.0785 H   0  0  0  0  0  0  0  0  0  0  0  0
  148.0344  132.8820  155.1855 H   0  0  0  0  0  0  0  0  0  0  0  0
  149.3171  131.1159  153.9654 H   0  0  0  0  0  0  0  0  0  0  0  0
  149.4064  132.1472  152.5406 H   0  0  0  0  0  0  0  0  0  0  0  0
  147.8510  131.5300  153.0913 H   0  0  0  0  0  0  0  0  0  0  0  0
  150.6969  133.7889  154.0038 H   0  0  0  0  0  0  0  0  0  0  0  0
  149.8666  135.8838  154.9389 H   0  0  0  0  0  0  0  0  0  0  0  0
  149.0202  135.0277  156.2287 H   0  0  0  0  0  0  0  0  0  0  0  0
  151.9420  135.6182  156.0466 H   0  0  0  0  0  0  0  0  0  0  0  0
  150.9364  135.3562  157.4722 H   0  0  0  0  0  0  0  0  0  0  0  0
  152.5114  133.3927  155.9133 H   0  0  0  0  0  0  0  0  0  0  0  0
  151.7322  133.1320  157.4767 H   0  0  0  0  0  0  0  0  0  0  0  0
  1  2  1  0  0  0  0
  1 20  1  0  0  0  0
  1 21  1  0  0  0  0
  1 22  1  0  0  0  0
  2  3  1  0  0  0  0
  2  9  1  0  0  0  0
  2 23  1  0  0  0  0
  3  4  1  0  0  0  0
  3 24  1  0  0  0  0
  3 25  1  0  0  0  0
  4  8  1  0  0  0  0
  4  5  1  0  0  0  0
  5  6  2  0  0  0  0
  5 26  1  0  0  0  0
  6  7  1  0  0  0  0
  6 27  1  0  0  0  0
  7  8  2  0  0  0  0
  7 28  1  0  0  0  0
  9 10  1  0  0  0  0
  9 29  1  0  0  0  0
 10 11  2  0  0  0  0
 10 12  1  0  0  0  0
 12 13  1  0  0  0  0
 12 30  1  0  0  0  0
 13 14  1  0  0  0  0
 13 15  1  0  0  0  0
 13 31  1  0  0  0  0
 14 32  1  0  0  0  0
 14 33  1  0  0  0  0
 14 34  1  0  0  0  0
 15 19  1  0  0  0  0
 15 16  1  0  0  0  0
 15 35  1  0  0  0  0
 16 17  1  0  0  0  0
 16 36  1  0  0  0  0
 16 37  1  0  0  0  0
 17 18  1  0  0  0  0
 17 38  1  0  0  0  0
 17 39  1  0  0  0  0
 18 19  1  0  0  0  0
 18 40  1  0  0  0  0
 18 41  1  0  0  0  0
M  END
> <s_m_source_file>
AV-unprocessed.smi

> <i_m_source_file_index>
3350

> <i_lp_mmshare_version>
43012

> <i_f3d_flags>
0

> <s_epik_input>
bjFbY0hdW2NIXVtjSF1uMVtDSDJdW0NAQEhdKFtDSDNdKVtOSF1DKD1PKVtOSF1bQ0BIXShbQ0gzXSlbQ0BASF0yW0NIMl1bQ0gyXVtDSDJdTzI=

> <s_epik_cmdline>
J2VwaWtfcHl0aG9uJywgJy1waCcsICc3LjAnLCAnLXRuJywgJzgnLCAnLW1hJywgJzIwMCcsICctbWV0YWxfYmluZGluZycsICctaW1hZScsICc8aW5maWxlLm1hZT4nLCAnLW9tYWUnLCAnPG91dGZpbGUubWFlPic=

> <r_lp_tautomer_probability>
1

> <r_epik_Ionization_Penalty>
6.42349e-05

> <r_epik_Ionization_Penalty_Charging>
0

> <r_epik_Ionization_Penalty_Neutral>
6.42349e-05

> <r_epik_State_Penalty>
-0

> <r_epik_Charging_Adjusted_Penalty>
0

> <i_epik_Tot_Q>
0

> <i_epik_Tot_abs_Q>
0

> <r_epik_Metal_State_Penalty>
-0

> <b_epik_Metal_Only>
0

> <s_lp_Force_Field>
OPLS_2005

> <r_lp_Energy>
15.5841

> <b_lp_Chiralities_Consistent>
1

> <s_lp_Variant>
AV-unprocessed.smi:3350-8

> <Gold.Version>
5.8.1

> <Gold.Id.Protein>
6NUR|6NUR_protein|mol2

> <Gold.PLP.Fitness>
42.7576

> <Gold.PLP.PLP>
-32.0801

> <Gold.PLP.part.hbond>
-2.0000

> <Gold.PLP.part.metal>
0.0000

> <Gold.PLP.part.buried>
-4.3515

> <Gold.PLP.part.nonpolar>
-26.0732

> <Gold.PLP.part.repulsive>
0.2813

> <Gold.PLP.ligand.clash>
0.0000

> <Gold.PLP.ligand.torsion>
0.6827

> <Gold.PLP.Chemscore.Hbond>
2.0000

> <Gold.PLP.Chemscore.CHOScore>
2.0000

> <Gold.PLP.Chemscore.Metal>
0.0000

> <Gold.Chemscore.Hbonds>
donor molecule, donor type, donor heavy atom, donor atom, acceptor molecule, acceptor atom, score
      L1  H     9    29       P1  7948  1.00
      L1  H    12    30       P1  7948  1.00
      L1  C     5    26       P1 10186  1.00
      L1  C     7    28       P1 10747  1.00

> <Gold.PLP.Chemscore.Internal.Correction>
0.0429

> <Gold.Rescore>
     Score         DG    S(hbond)    S(metal)    S(lipo)     H(rot)  DE(clash)    DE(int)     intcor
     14.80     -15.34       1.72        0.00      74.92       1.82       0.01       0.53       ----

> <Gold.Chemscore.Fitness>
14.7975

> <Gold.Chemscore.DG>
-15.3385

> <Gold.Chemscore.ZeroCoef>
-5.4800

> <Gold.Chemscore.Hbond>
1.7220

> <Gold.Chemscore.Metal>
0.0000

> <Gold.Chemscore.Lipo>
74.9178

> <Gold.Chemscore.Internal_Hbond>
0.0000

> <Gold.Chemscore.DEClash>
0.0147

> <Gold.Chemscore.DEInternal>
0.5264

> <Gold.Chemscore.Rot>
1.8197

> <Gold.Chemscore.Internal.Correction>
   9.000000E+99

> <Gold.Chemscore.Hbonds>
donor molecule, donor type, donor heavy atom, donor atom, acceptor molecule, acceptor atom, score
      L1  H     9    29       P1  7948  0.92
      L1  H    12    30       P1  7948  0.55

> <Gold.Chemscore.Hbond.Weighted>
-5.7515

> <Gold.Chemscore.Metal.Weighted>
-0.0000

> <Gold.Chemscore.Lipo.Weighted>
-8.7654

> <Gold.Chemscore.Internal_Hbond.Weighted>
0.0000

> <Gold.Chemscore.DEClash.Weighted>
0.0147

> <Gold.Chemscore.DEInternal.Weighted>
0.5264

> <Gold.Chemscore.Rot.Weighted>
4.6583

> <Gold.Chemscore.Internal.Correction.Weighted>
   9.000000E+99

> <Gold.Protein.RotatedTorsions>
[ 6907 6896 6895 6894 ] final   51.59 input  -60.11 | X-H torsion
[ 7974 7965 7964 7962 ] final   31.87 input  175.53 | X-H torsion
[ 8008 7997 7996 7995 ] final  -48.86 input   59.86 | X-H torsion
[ 10167 10162 10161 10158 ] final   79.57 input  -65.29 | X-H torsion
[ 10718 10713 10712 10709 ] final  -72.27 input   66.30 | X-H torsion
[ 10763 10752 10751 10750 ] final  -57.89 input  -60.55 | X-H torsion
[ 11005 11000 10999 10996 ] final  -24.62 input  -57.11 | X-H torsion

> <Gold.Protein.ActiveResidues>
 VAL166  LYS551  ARG553  GLY616  TRP617  ASP618  TYR619  PRO620  LYS621  CYS622 
 ASP623  PHE694  ASN695  SER759  ASP760  ASP761  ALA762  ILE779  LEU786  VAL792 
 PHE793  MET794  SER795  GLU796  ALA797  LYS798  CYS799  TRP800  GLU811  SER814 

> <Gold.Protein.RotatedAtoms>
  152.3143  134.7459  160.0328 H   0  0  0  0  0  0  0  0  0  0  0  0  # atno 6907 bound_to 6896
  151.7929  133.3356  159.3512 H   0  0  0  0  0  0  0  0  0  0  0  0  # atno 6908 bound_to 6896
  150.7336  134.5756  159.5957 H   0  0  0  0  0  0  0  0  0  0  0  0  # atno 6909 bound_to 6896
  146.1523  139.6600  142.9090 H   0  0  0  0  0  0  0  0  0  0  0  0  # atno 7974 bound_to 7965
  154.4035  140.1311  156.4408 H   0  0  0  0  0  0  0  0  0  0  0  0  # atno 8008 bound_to 7997
  155.7460  140.3489  155.5107 H   0  0  0  0  0  0  0  0  0  0  0  0  # atno 8009 bound_to 7997
  155.8994  140.1017  157.1351 H   0  0  0  0  0  0  0  0  0  0  0  0  # atno 8010 bound_to 7997
  139.9589  144.5974  150.8090 H   0  0  0  0  0  0  0  0  0  0  0  0  # atno 10167 bound_to 10162
  156.0327  130.4369  150.2568 H   0  0  0  0  0  0  0  0  0  0  0  0  # atno 10718 bound_to 10713
  154.2296  135.6363  153.5171 H   0  0  0  0  0  0  0  0  0  0  0  0  # atno 10763 bound_to 10752
  152.9952  135.5516  154.6027 H   0  0  0  0  0  0  0  0  0  0  0  0  # atno 10764 bound_to 10752
  154.5507  135.2901  155.0986 H   0  0  0  0  0  0  0  0  0  0  0  0  # atno 10765 bound_to 10752
  140.8862  133.7620  156.0363 H   0  0  0  0  0  0  0  0  0  0  0  0  # atno 11005 bound_to 11000
  145.4794  141.0437  143.2654 LP  0  0  0  0  0  0  0  0  0  0  0  0  # atno 17320 bound_to 7965
  144.7919  139.6311  143.7109 LP  0  0  0  0  0  0  0  0  0  0  0  0  # atno 17321 bound_to 7965
  140.7559  143.3056  151.2971 LP  0  0  0  0  0  0  0  0  0  0  0  0  # atno 17342 bound_to 10162
  139.6569  144.0260  152.2666 LP  0  0  0  0  0  0  0  0  0  0  0  0  # atno 17343 bound_to 10162
  157.0669  131.0106  151.3203 LP  0  0  0  0  0  0  0  0  0  0  0  0  # atno 17370 bound_to 10713
  157.5028  130.7891  149.7623 LP  0  0  0  0  0  0  0  0  0  0  0  0  # atno 17371 bound_to 10713
  140.8402  134.3075  157.5316 LP  0  0  0  0  0  0  0  0  0  0  0  0  # atno 17394 bound_to 11000
  139.8724  134.9412  156.3790 LP  0  0  0  0  0  0  0  0  0  0  0  0  # atno 17395 bound_to 11000

$$$$
