AV-unprocessed.smi:304|AV-procd|sdf|2278|dock9
  -GOLD-   2262022173D 1   1.00000     0.00000
 Structure written by MMmdl.
 37 39  0  0  0  0  0  0  0  0  2 V2000
  151.0400  140.0237  154.7957 O   0  0  0  0  0  0  0  0  0  0  0  0
  150.1788  140.9322  155.4527 C   0  0  2  0  0  0  0  0  0  0  0  0
  149.2034  141.5297  154.4256 C   0  0  0  0  0  0  0  0  0  0  0  0
  148.4972  140.4829  153.7818 O   0  0  0  0  0  0  0  0  0  0  0  0
  147.3236  140.0883  154.4710 C   0  0  0  0  0  0  0  0  0  0  0  0
  146.6655  139.0061  153.6731 C   0  0  0  0  0  0  0  0  0  0  0  0
  145.9403  137.9508  154.1653 C   0  0  0  0  0  0  0  0  0  0  0  0
  145.4341  137.0895  153.1479 C   0  0  0  0  0  0  0  0  0  0  0  0
  145.7746  137.4994  151.8868 C   0  0  0  0  0  0  0  0  0  0  0  0
  146.7277  138.9564  151.9244 S   0  0  0  0  0  0  0  0  0  0  0  0
  150.9636  141.9988  156.2451 C   0  0  0  0  0  0  0  0  0  0  0  0
  151.5948  141.4627  157.4589 N   0  0  0  0  0  0  0  0  0  0  0  0
  152.0326  140.2026  157.7274 C   0  0  0  0  0  0  0  0  0  0  0  0
  152.5315  140.2021  158.9946 N   0  3  0  0  0  0  0  0  0  0  0  0
  152.4111  141.4805  159.5443 C   0  0  0  0  0  0  0  0  0  0  0  0
  152.7722  141.9728  160.7942 C   0  0  0  0  0  0  0  0  0  0  0  0
  152.5130  143.3375  161.0391 C   0  0  0  0  0  0  0  0  0  0  0  0
  152.8457  143.8679  162.2397 F   0  0  0  0  0  0  0  0  0  0  0  0
  151.9167  144.1586  160.0585 C   0  0  0  0  0  0  0  0  0  0  0  0
  151.6885  145.4645  160.3338 F   0  0  0  0  0  0  0  0  0  0  0  0
  151.5541  143.6477  158.7948 C   0  0  0  0  0  0  0  0  0  0  0  0
  151.8116  142.2968  158.5623 C   0  0  0  0  0  0  0  0  0  0  0  0
  150.8557  139.1532  155.1129 H   0  0  0  0  0  0  0  0  0  0  0  0
  149.5977  140.3366  156.1577 H   0  0  0  0  0  0  0  0  0  0  0  0
  148.5156  142.2303  154.9022 H   0  0  0  0  0  0  0  0  0  0  0  0
  149.7662  142.0885  153.6764 H   0  0  0  0  0  0  0  0  0  0  0  0
  147.5750  139.7228  155.4675 H   0  0  0  0  0  0  0  0  0  0  0  0
  146.6444  140.9344  154.5835 H   0  0  0  0  0  0  0  0  0  0  0  0
  145.7577  137.7680  155.2137 H   0  0  0  0  0  0  0  0  0  0  0  0
  144.8456  136.2124  153.3735 H   0  0  0  0  0  0  0  0  0  0  0  0
  145.5247  137.0377  150.9430 H   0  0  0  0  0  0  0  0  0  0  0  0
  151.7289  142.4741  155.6315 H   0  0  0  0  0  0  0  0  0  0  0  0
  150.2890  142.7971  156.5566 H   0  0  0  0  0  0  0  0  0  0  0  0
  151.9887  139.3554  157.0580 H   0  0  0  0  0  0  0  0  0  0  0  0
  153.2298  141.3485  161.5474 H   0  0  0  0  0  0  0  0  0  0  0  0
  151.1029  144.2879  158.0510 H   0  0  0  0  0  0  0  0  0  0  0  0
  152.9231  139.3868  159.4491 H   0  0  0  0  0  0  0  0  0  0  0  0
  1  2  1  0  0  0  0
  1 23  1  0  0  0  0
  2  3  1  0  0  0  0
  2 11  1  0  0  0  0
  2 24  1  0  0  0  0
  3  4  1  0  0  0  0
  3 25  1  0  0  0  0
  3 26  1  0  0  0  0
  4  5  1  0  0  0  0
  5  6  1  0  0  0  0
  5 27  1  0  0  0  0
  5 28  1  0  0  0  0
  6 10  1  0  0  0  0
  6  7  2  0  0  0  0
  7  8  1  0  0  0  0
  7 29  1  0  0  0  0
  8  9  2  0  0  0  0
  8 30  1  0  0  0  0
  9 10  1  0  0  0  0
  9 31  1  0  0  0  0
 11 12  1  0  0  0  0
 11 32  1  0  0  0  0
 11 33  1  0  0  0  0
 12 22  1  0  0  0  0
 12 13  1  0  0  0  0
 13 14  2  0  0  0  0
 13 34  1  0  0  0  0
 14 15  1  0  0  0  0
 14 37  1  0  0  0  0
 15 22  2  0  0  0  0
 15 16  1  0  0  0  0
 16 17  2  0  0  0  0
 16 35  1  0  0  0  0
 17 18  1  0  0  0  0
 17 19  1  0  0  0  0
 19 20  1  0  0  0  0
 19 21  2  0  0  0  0
 21 22  1  0  0  0  0
 21 36  1  0  0  0  0
M  CHG  1  14   1
M  END
> <s_m_source_file>
AV-unprocessed.smi

> <i_m_source_file_index>
304

> <i_lp_mmshare_version>
43012

> <i_f3d_flags>
0

> <s_epik_input>
W2NIXTFjKEYpYyhGKVtjSF1jKGMxMiluKFtjSF1uMilbQ0gyXVtDQEhdKFtPSF0pW0NIMl1PW0NIMl1jM1tjSF1bY0hdW2NIXXMz

> <s_epik_cmdline>
J2VwaWtfcHl0aG9uJywgJy1waCcsICc3LjAnLCAnLXRuJywgJzgnLCAnLW1hJywgJzIwMCcsICctbWV0YWxfYmluZGluZycsICctaW1hZScsICc8aW5maWxlLm1hZT4nLCAnLW9tYWUnLCAnPG91dGZpbGUubWFlPic=

> <r_epik_Ionization_Penalty>
2.17745

> <r_epik_Ionization_Penalty_Charging>
2.17744

> <r_epik_Ionization_Penalty_Neutral>
1.26231e-06

> <r_epik_State_Penalty>
2.31922

> <r_epik_Charging_Adjusted_Penalty>
4.49666

> <i_epik_Tot_Q>
1

> <i_epik_Tot_abs_Q>
1

> <r_epik_Metal_State_Penalty>
6.40003

> <b_epik_Metal_Only>
0

> <s_lp_Force_Field>
OPLS_2005

> <r_lp_Energy>
12.8656

> <b_lp_Chiralities_Consistent>
1

> <s_lp_Variant>
AV-unprocessed.smi:304-3

> <Gold.Version>
5.8.1

> <Gold.Id.Protein>
6NUR|6NUR_protein|mol2

> <Gold.PLP.Fitness>
49.7934

> <Gold.PLP.PLP>
-47.1662

> <Gold.PLP.part.hbond>
-1.0000

> <Gold.PLP.part.metal>
0.0000

> <Gold.PLP.part.buried>
-3.3826

> <Gold.PLP.part.nonpolar>
-42.5551

> <Gold.PLP.part.repulsive>
1.8740

> <Gold.PLP.ligand.clash>
0.0000

> <Gold.PLP.ligand.torsion>
1.0067

> <Gold.PLP.Chemscore.Hbond>
1.0000

> <Gold.PLP.Chemscore.CHOScore>
0.5168

> <Gold.PLP.Chemscore.Metal>
0.0000

> <Gold.Chemscore.Hbonds>
donor molecule, donor type, donor heavy atom, donor atom, acceptor molecule, acceptor atom, score
      P1  H  7989  7998       L1     1  1.00
      L1  C     9    31       P1 10171  0.53

> <Gold.PLP.Chemscore.Internal.Correction>
0.0902

> <Gold.Rescore>
     Score         DG    S(hbond)    S(metal)    S(lipo)     H(rot)  DE(clash)    DE(int)     intcor
     14.03     -15.31       0.90        0.00     117.90       2.73       0.28       1.00       ----

> <Gold.Chemscore.Fitness>
14.0268

> <Gold.Chemscore.DG>
-15.3115

> <Gold.Chemscore.ZeroCoef>
-5.4800

> <Gold.Chemscore.Hbond>
0.9027

> <Gold.Chemscore.Metal>
0.0000

> <Gold.Chemscore.Lipo>
117.9022

> <Gold.Chemscore.Internal_Hbond>
0.0000

> <Gold.Chemscore.DEClash>
0.2820

> <Gold.Chemscore.DEInternal>
1.0027

> <Gold.Chemscore.Rot>
2.7258

> <Gold.Chemscore.Internal.Correction>
   9.000000E+99

> <Gold.Chemscore.Hbonds>
donor molecule, donor type, donor heavy atom, donor atom, acceptor molecule, acceptor atom, score
      P1  H  7989  7998       L1     1  0.50

> <Gold.Chemscore.Hbond.Weighted>
-3.0150

> <Gold.Chemscore.Metal.Weighted>
-0.0000

> <Gold.Chemscore.Lipo.Weighted>
-13.7946

> <Gold.Chemscore.Internal_Hbond.Weighted>
0.0000

> <Gold.Chemscore.DEClash.Weighted>
0.2820

> <Gold.Chemscore.DEInternal.Weighted>
1.0027

> <Gold.Chemscore.Rot.Weighted>
6.9781

> <Gold.Chemscore.Internal.Correction.Weighted>
   9.000000E+99

> <Gold.Protein.RotatedTorsions>
[ 6907 6896 6895 6894 ] final  152.56 input  -60.11 | X-H torsion
[ 7974 7965 7964 7962 ] final  -30.44 input  175.53 | X-H torsion
[ 8008 7997 7996 7995 ] final   -8.57 input   59.86 | X-H torsion
[ 10167 10162 10161 10158 ] final  -94.64 input  -65.29 | X-H torsion
[ 10718 10713 10712 10709 ] final  -92.46 input   66.30 | X-H torsion
[ 10763 10752 10751 10750 ] final   25.38 input  -60.55 | X-H torsion
[ 11005 11000 10999 10996 ] final  -38.91 input  -57.11 | X-H torsion

> <Gold.Protein.ActiveResidues>
 VAL166  LYS551  ARG553  GLY616  TRP617  ASP618  TYR619  PRO620  LYS621  CYS622 
 ASP623  PHE694  ASN695  SER759  ASP760  ASP761  ALA762  ILE779  LEU786  VAL792 
 PHE793  MET794  SER795  GLU796  ALA797  LYS798  CYS799  TRP800  GLU811  SER814 

> <Gold.Protein.RotatedAtoms>
  152.0851  133.4172  159.4518 H   0  0  0  0  0  0  0  0  0  0  0  0  # atno 6907 bound_to 6896
  150.6862  134.2937  159.4686 H   0  0  0  0  0  0  0  0  0  0  0  0  # atno 6908 bound_to 6896
  152.0783  134.9488  160.0624 H   0  0  0  0  0  0  0  0  0  0  0  0  # atno 6909 bound_to 6896
  146.1142  140.5541  142.8764 H   0  0  0  0  0  0  0  0  0  0  0  0  # atno 7974 bound_to 7965
  154.5729  140.2378  155.8165 H   0  0  0  0  0  0  0  0  0  0  0  0  # atno 8008 bound_to 7997
  156.2121  140.3023  155.9713 H   0  0  0  0  0  0  0  0  0  0  0  0  # atno 8009 bound_to 7997
  155.2680  140.0417  157.2994 H   0  0  0  0  0  0  0  0  0  0  0  0  # atno 8010 bound_to 7997
  140.3124  143.3097  152.0134 H   0  0  0  0  0  0  0  0  0  0  0  0  # atno 10167 bound_to 10162
  156.0002  130.4988  150.5628 H   0  0  0  0  0  0  0  0  0  0  0  0  # atno 10718 bound_to 10713
  153.0696  135.6584  154.0277 H   0  0  0  0  0  0  0  0  0  0  0  0  # atno 10763 bound_to 10752
  153.9926  135.2944  155.3412 H   0  0  0  0  0  0  0  0  0  0  0  0  # atno 10764 bound_to 10752
  154.7066  135.5223  153.8673 H   0  0  0  0  0  0  0  0  0  0  0  0  # atno 10765 bound_to 10752
  141.0063  133.6930  156.2116 H   0  0  0  0  0  0  0  0  0  0  0  0  # atno 11005 bound_to 11000
  144.7538  140.5258  143.6783 LP  0  0  0  0  0  0  0  0  0  0  0  0  # atno 17320 bound_to 7965
  145.5600  139.1479  143.3346 LP  0  0  0  0  0  0  0  0  0  0  0  0  # atno 17321 bound_to 7965
  139.4891  144.6374  151.6947 LP  0  0  0  0  0  0  0  0  0  0  0  0  # atno 17342 bound_to 10162
  140.5556  144.0353  150.6146 LP  0  0  0  0  0  0  0  0  0  0  0  0  # atno 17343 bound_to 10162
  157.3535  131.0737  151.1694 LP  0  0  0  0  0  0  0  0  0  0  0  0  # atno 17370 bound_to 10713
  157.2503  130.6610  149.5928 LP  0  0  0  0  0  0  0  0  0  0  0  0  # atno 17371 bound_to 10713
  140.6807  134.4770  157.5589 LP  0  0  0  0  0  0  0  0  0  0  0  0  # atno 17394 bound_to 11000
  139.9065  134.8438  156.1687 LP  0  0  0  0  0  0  0  0  0  0  0  0  # atno 17395 bound_to 11000

$$$$
