AV-unprocessed.smi:1867|AV-procd|sdf|7569|dock3
  -GOLD-   22720 9283D 1   1.00000     0.00000
 Structure written by MMmdl.
 53 56  0  0  0  0  0  0  0  0  3 V2000
  147.3661  140.4267  154.4016 O   0  0  0  0  0  0  0  0  0  0  0  0
  148.1670  139.5400  154.1168 C   0  0  0  0  0  0  0  0  0  0  0  0
  149.4226  139.4535  154.5992 N   0  0  0  0  0  0  0  0  0  0  0  0
  150.0943  140.3140  155.5097 C   0  0  0  0  0  0  0  0  0  0  0  0
  151.0851  139.8916  156.4309 C   0  0  0  0  0  0  0  0  0  0  0  0
  151.6942  140.8385  157.2797 C   0  0  0  0  0  0  0  0  0  0  0  0
  151.3166  142.1994  157.2024 C   0  0  0  0  0  0  0  0  0  0  0  0
  151.8873  143.1955  158.0170 N   0  0  0  0  0  0  0  0  0  0  0  0
  151.3673  144.5536  158.0351 C   0  0  0  0  0  0  0  0  0  0  0  0
  152.1337  145.2440  159.1624 C   0  0  0  0  0  0  0  0  0  0  0  0
  152.3693  144.1125  160.1632 C   0  0  0  0  0  0  0  0  0  0  0  0
  152.5172  142.8627  159.2872 C   0  0  0  0  0  0  0  0  0  0  0  0
  150.3783  142.5584  156.2943 N   0  3  0  0  0  0  0  0  0  0  0  0
  149.7698  141.6853  155.4635 C   0  0  0  0  0  0  0  0  0  0  0  0
  147.8411  138.5701  153.2427 N   0  0  0  0  0  0  0  0  0  0  0  0
  146.5756  138.3597  152.5319 C   0  0  1  0  0  0  0  0  0  0  0  0
  146.7279  138.4907  151.0034 C   0  0  0  0  0  0  0  0  0  0  0  0
  145.8755  137.3565  150.4256 C   0  0  0  0  0  0  0  0  0  0  0  0
  146.0077  136.3008  151.4356 N   0  3  2  0  0  0  0  0  0  0  0  0
  145.1202  135.1237  151.3458 C   0  0  0  0  0  0  0  0  0  0  0  0
  145.5785  134.0867  152.3931 C   0  0  0  0  0  0  0  0  0  0  0  0
  145.6884  134.6958  153.8094 C   0  0  0  0  0  0  0  0  0  0  0  0
  146.5212  135.9961  153.8126 C   0  0  0  0  0  0  0  0  0  0  0  0
  145.9541  136.9585  152.7529 C   0  0  1  0  0  0  0  0  0  0  0  0
  149.9840  138.7022  154.2263 H   0  0  0  0  0  0  0  0  0  0  0  0
  151.4054  138.8642  156.4988 H   0  0  0  0  0  0  0  0  0  0  0  0
  152.4536  140.5089  157.9736 H   0  0  0  0  0  0  0  0  0  0  0  0
  151.5174  145.0561  157.0789 H   0  0  0  0  0  0  0  0  0  0  0  0
  150.2986  144.5332  158.2530 H   0  0  0  0  0  0  0  0  0  0  0  0
  153.0912  145.6103  158.7893 H   0  0  0  0  0  0  0  0  0  0  0  0
  151.5924  146.0885  159.5896 H   0  0  0  0  0  0  0  0  0  0  0  0
  153.2345  144.2840  160.8042 H   0  0  0  0  0  0  0  0  0  0  0  0
  151.4935  144.0072  160.8052 H   0  0  0  0  0  0  0  0  0  0  0  0
  152.0568  141.9964  159.7638 H   0  0  0  0  0  0  0  0  0  0  0  0
  153.5692  142.6379  159.1095 H   0  0  0  0  0  0  0  0  0  0  0  0
  149.0403  142.1123  154.7904 H   0  0  0  0  0  0  0  0  0  0  0  0
  148.5716  137.9050  153.0321 H   0  0  0  0  0  0  0  0  0  0  0  0
  145.8517  139.1130  152.8482 H   0  0  0  0  0  0  0  0  0  0  0  0
  146.4230  139.4700  150.6324 H   0  0  0  0  0  0  0  0  0  0  0  0
  147.7686  138.3396  150.7116 H   0  0  0  0  0  0  0  0  0  0  0  0
  144.8312  137.6622  150.3444 H   0  0  0  0  0  0  0  0  0  0  0  0
  146.2189  137.0285  149.4440 H   0  0  0  0  0  0  0  0  0  0  0  0
  144.0840  135.4191  151.5170 H   0  0  0  0  0  0  0  0  0  0  0  0
  145.1745  134.6962  150.3440 H   0  0  0  0  0  0  0  0  0  0  0  0
  144.8942  133.2379  152.4033 H   0  0  0  0  0  0  0  0  0  0  0  0
  146.5519  133.6905  152.1009 H   0  0  0  0  0  0  0  0  0  0  0  0
  144.6870  134.9094  154.1851 H   0  0  0  0  0  0  0  0  0  0  0  0
  146.1246  133.9698  154.4962 H   0  0  0  0  0  0  0  0  0  0  0  0
  146.4859  136.4486  154.8036 H   0  0  0  0  0  0  0  0  0  0  0  0
  147.5675  135.7704  153.6018 H   0  0  0  0  0  0  0  0  0  0  0  0
  144.9014  137.1284  152.9893 H   0  0  0  0  0  0  0  0  0  0  0  0
  146.9512  135.9541  151.3369 H   0  0  0  0  0  0  0  0  0  0  0  0
  150.1163  143.5426  156.2349 H   0  0  0  0  0  0  0  0  0  0  0  0
  1  2  2  0  0  0  0
  2  3  1  0  0  0  0
  2 15  1  0  0  0  0
  3  4  1  0  0  0  0
  3 25  1  0  0  0  0
  4 14  1  0  0  0  0
  4  5  2  0  0  0  0
  5  6  1  0  0  0  0
  5 26  1  0  0  0  0
  6  7  2  0  0  0  0
  6 27  1  0  0  0  0
  7  8  1  0  0  0  0
  7 13  1  0  0  0  0
  8 12  1  0  0  0  0
  8  9  1  0  0  0  0
  9 10  1  0  0  0  0
  9 28  1  0  0  0  0
  9 29  1  0  0  0  0
 10 11  1  0  0  0  0
 10 30  1  0  0  0  0
 10 31  1  0  0  0  0
 11 12  1  0  0  0  0
 11 32  1  0  0  0  0
 11 33  1  0  0  0  0
 12 34  1  0  0  0  0
 12 35  1  0  0  0  0
 13 14  2  0  0  0  0
 13 53  1  0  0  0  0
 14 36  1  0  0  0  0
 15 16  1  0  0  0  0
 15 37  1  0  0  0  0
 16 24  1  0  0  0  0
 16 17  1  0  0  0  0
 16 38  1  0  0  0  0
 17 18  1  0  0  0  0
 17 39  1  0  0  0  0
 17 40  1  0  0  0  0
 18 19  1  0  0  0  0
 18 41  1  0  0  0  0
 18 42  1  0  0  0  0
 19 24  1  0  0  0  0
 19 20  1  0  0  0  0
 19 52  1  0  0  0  0
 20 21  1  0  0  0  0
 20 43  1  0  0  0  0
 20 44  1  0  0  0  0
 21 22  1  0  0  0  0
 21 45  1  0  0  0  0
 21 46  1  0  0  0  0
 22 23  1  0  0  0  0
 22 47  1  0  0  0  0
 22 48  1  0  0  0  0
 23 24  1  0  0  0  0
 23 49  1  0  0  0  0
 23 50  1  0  0  0  0
 24 51  1  0  0  0  0
M  CHG  1  13   1
M  CHG  1  19   1
M  END
> <s_m_source_file>
AV-unprocessed.smi

> <i_m_source_file_index>
1867

> <i_lp_mmshare_version>
43012

> <i_f3d_flags>
0

> <s_epik_input>
W0NIMl0xW0NIMl1bQ0gyXVtDSDJdW0NASF0oTjEyKVtDQEBIXShbQ0gyXVtDSDJdMilbTkhdQyg9TylbTkhdYzNbY0hdW2NIXWMobltjSF0zKU40W0NIMl1bQ0gyXVtDSDJdW0NIMl00

> <s_epik_cmdline>
J2VwaWtfcHl0aG9uJywgJy1waCcsICc3LjAnLCAnLXRuJywgJzgnLCAnLW1hJywgJzIwMCcsICctbWV0YWxfYmluZGluZycsICctaW1hZScsICc8aW5maWxlLm1hZT4nLCAnLW9tYWUnLCAnPG91dGZpbGUubWFlPic=

> <r_lp_tautomer_probability>
0.999994

> <r_epik_Ionization_Penalty>
1.27347

> <r_epik_Ionization_Penalty_Charging>
1.27345

> <r_epik_Ionization_Penalty_Neutral>
1.96458e-05

> <r_epik_State_Penalty>
1.34393

> <r_epik_Charging_Adjusted_Penalty>
2.61738

> <i_epik_Tot_Q>
2

> <i_epik_Tot_abs_Q>
2

> <r_epik_Metal_State_Penalty>
1.41094

> <b_epik_Metal_Only>
0

> <s_lp_Force_Field>
OPLS_2005

> <r_lp_Energy>
85.4694

> <b_lp_Chiralities_Consistent>
1

> <s_lp_Variant>
AV-unprocessed.smi:1867-10

> <Gold.Version>
5.8.1

> <Gold.Id.Protein>
6NUR|6NUR_protein|mol2

> <Gold.PLP.Fitness>
56.7413

> <Gold.PLP.PLP>
-43.5615

> <Gold.PLP.part.hbond>
-3.8875

> <Gold.PLP.part.metal>
0.0000

> <Gold.PLP.part.buried>
6.6738

> <Gold.PLP.part.nonpolar>
-46.2317

> <Gold.PLP.part.repulsive>
0.4016

> <Gold.PLP.ligand.clash>
0.0000

> <Gold.PLP.ligand.torsion>
0.3546

> <Gold.PLP.Chemscore.Hbond>
4.5602

> <Gold.PLP.Chemscore.CHOScore>
0.0000

> <Gold.PLP.Chemscore.Metal>
0.0000

> <Gold.Chemscore.Hbonds>
donor molecule, donor type, donor heavy atom, donor atom, acceptor molecule, acceptor atom, score
      L1  H    13    53       P1  8028  1.86
      L1  H    15    37       P1  7948  0.77
      L1  H    19    52       P1  7948  1.81

> <Gold.PLP.Chemscore.Internal.Correction>
0.2086

> <Gold.Rescore>
     Score         DG    S(hbond)    S(metal)    S(lipo)     H(rot)  DE(clash)    DE(int)     intcor
     21.12     -25.77       2.55        0.00     122.54       1.00       3.08       1.57       ----

> <Gold.Chemscore.Fitness>
21.1216

> <Gold.Chemscore.DG>
-25.7676

> <Gold.Chemscore.ZeroCoef>
-5.4800

> <Gold.Chemscore.Hbond>
2.5482

> <Gold.Chemscore.Metal>
0.0000

> <Gold.Chemscore.Lipo>
122.5352

> <Gold.Chemscore.Internal_Hbond>
0.0000

> <Gold.Chemscore.DEClash>
3.0774

> <Gold.Chemscore.DEInternal>
1.5686

> <Gold.Chemscore.Rot>
1.0000

> <Gold.Chemscore.Internal.Correction>
   9.000000E+99

> <Gold.Chemscore.Hbonds>
donor molecule, donor type, donor heavy atom, donor atom, acceptor molecule, acceptor atom, score
      L1  H    13    53       P1  8028  0.91
      L1  H    15    37       P1  7948  0.74
      L1  H    19    52       P1  7948  0.83

> <Gold.Chemscore.Hbond.Weighted>
-8.5110

> <Gold.Chemscore.Metal.Weighted>
-0.0000

> <Gold.Chemscore.Lipo.Weighted>
-14.3366

> <Gold.Chemscore.Internal_Hbond.Weighted>
0.0000

> <Gold.Chemscore.DEClash.Weighted>
3.0774

> <Gold.Chemscore.DEInternal.Weighted>
1.5686

> <Gold.Chemscore.Rot.Weighted>
2.5600

> <Gold.Chemscore.Internal.Correction.Weighted>
   9.000000E+99

> <Gold.Protein.RotatedTorsions>
[ 6907 6896 6895 6894 ] final   96.21 input  -60.11 | X-H torsion
[ 7974 7965 7964 7962 ] final  178.53 input  175.53 | X-H torsion
[ 8008 7997 7996 7995 ] final   21.26 input   59.86 | X-H torsion
[ 10167 10162 10161 10158 ] final   83.19 input  -65.29 | X-H torsion
[ 10718 10713 10712 10709 ] final -174.02 input   66.30 | X-H torsion
[ 10763 10752 10751 10750 ] final   27.97 input  -60.55 | X-H torsion
[ 11005 11000 10999 10996 ] final -122.92 input  -57.11 | X-H torsion

> <Gold.Protein.ActiveResidues>
 VAL166  LYS551  ARG553  GLY616  TRP617  ASP618  TYR619  PRO620  LYS621  CYS622 
 ASP623  PHE694  ASN695  SER759  ASP760  ASP761  ALA762  ILE779  LEU786  VAL792 
 PHE793  MET794  SER795  GLU796  ALA797  LYS798  CYS799  TRP800  GLU811  SER814 

> <Gold.Protein.RotatedAtoms>
  152.5437  134.0921  159.8281 H   0  0  0  0  0  0  0  0  0  0  0  0  # atno 6907 bound_to 6896
  151.1009  133.5237  159.2617 H   0  0  0  0  0  0  0  0  0  0  0  0  # atno 6908 bound_to 6896
  151.1992  135.0444  159.8919 H   0  0  0  0  0  0  0  0  0  0  0  0  # atno 6909 bound_to 6896
  144.7155  140.0412  143.6437 H   0  0  0  0  0  0  0  0  0  0  0  0  # atno 7974 bound_to 7965
  154.9479  140.3062  155.5089 H   0  0  0  0  0  0  0  0  0  0  0  0  # atno 8008 bound_to 7997
  156.2990  140.2324  156.4492 H   0  0  0  0  0  0  0  0  0  0  0  0  # atno 8009 bound_to 7997
  154.8082  140.0430  157.1312 H   0  0  0  0  0  0  0  0  0  0  0  0  # atno 8010 bound_to 7997
  139.9210  144.6212  150.8440 H   0  0  0  0  0  0  0  0  0  0  0  0  # atno 10167 bound_to 10162
  156.7789  130.9476  151.3120 H   0  0  0  0  0  0  0  0  0  0  0  0  # atno 10718 bound_to 10713
  153.0521  135.6524  154.0667 H   0  0  0  0  0  0  0  0  0  0  0  0  # atno 10763 bound_to 10752
  154.0353  135.2908  155.3364 H   0  0  0  0  0  0  0  0  0  0  0  0  # atno 10764 bound_to 10752
  154.6816  135.5318  153.8337 H   0  0  0  0  0  0  0  0  0  0  0  0  # atno 10765 bound_to 10752
  140.9959  134.0473  157.3598 H   0  0  0  0  0  0  0  0  0  0  0  0  # atno 11005 bound_to 11000
  146.0022  139.3100  143.0921 LP  0  0  0  0  0  0  0  0  0  0  0  0  # atno 17320 bound_to 7965
  145.8780  140.9380  143.0616 LP  0  0  0  0  0  0  0  0  0  0  0  0  # atno 17321 bound_to 7965
  140.7662  143.3297  151.2438 LP  0  0  0  0  0  0  0  0  0  0  0  0  # atno 17342 bound_to 10162
  139.6862  143.9770  152.2835 LP  0  0  0  0  0  0  0  0  0  0  0  0  # atno 17343 bound_to 10162
  157.6656  130.9004  149.9924 LP  0  0  0  0  0  0  0  0  0  0  0  0  # atno 17370 bound_to 10713
  156.1231  130.3645  149.9855 LP  0  0  0  0  0  0  0  0  0  0  0  0  # atno 17371 bound_to 10713
  139.9014  135.0166  156.7287 LP  0  0  0  0  0  0  0  0  0  0  0  0  # atno 17394 bound_to 11000
  140.6967  133.9342  155.7999 LP  0  0  0  0  0  0  0  0  0  0  0  0  # atno 17395 bound_to 11000

$$$$
