AV-unprocessed.smi:196|AV-procd|sdf|1536|dock6
  -GOLD-   2262019393D 1   1.00000     0.00000
 Structure written by MMmdl.
 47 50  0  0  0  0  0  0  0  0  1 V2000
  151.5357  137.4495  155.3377 C   0  0  0  0  0  0  0  0  0  0  0  0
  151.5281  138.9686  155.1048 C   0  0  2  0  0  0  0  0  0  0  0  0
  152.2324  139.5761  156.1851 O   0  0  0  0  0  0  0  0  0  0  0  0
  151.6929  140.8649  156.4180 C   0  0  0  0  0  0  0  0  0  0  0  0
  150.2005  140.6303  156.2446 C   0  0  0  0  0  0  0  0  0  0  0  0
  150.1384  139.6661  155.0628 C   0  0  1  0  0  0  0  0  0  0  0  0
  150.0838  140.4386  153.8747 O   0  0  0  0  0  0  0  0  0  0  0  0
  148.8970  138.7362  155.0853 C   0  0  0  0  0  0  0  0  0  0  0  0
  148.5948  138.2045  156.4061 N   0  0  0  0  0  0  0  0  0  0  0  0
  148.0757  138.8991  157.4731 C   0  0  0  0  0  0  0  0  0  0  0  0
  147.8928  138.1952  158.5553 N   0  0  0  0  0  0  0  0  0  0  0  0
  148.3033  136.9102  158.2140 C   0  0  0  0  0  0  0  0  0  0  0  0
  148.3704  135.6575  158.8990 C   0  0  0  0  0  0  0  0  0  0  0  0
  147.9907  135.4409  160.1895 N   0  0  0  0  0  0  0  0  0  0  0  0
  148.0197  134.1146  160.8005 C   0  0  0  0  0  0  0  0  0  0  0  0
  147.4522  134.2962  162.2095 C   0  0  2  0  0  0  0  0  0  0  0  0
  146.1440  134.0356  162.2066 F   0  0  0  0  0  0  0  0  0  0  0  0
  147.6900  135.7786  162.4986 C   0  0  0  0  0  0  0  0  0  0  0  0
  147.5618  136.4753  161.1317 C   0  0  2  0  0  0  0  0  0  0  0  0
  146.1240  136.9596  160.8650 C   0  0  0  0  0  0  0  0  0  0  0  0
  145.1524  136.0550  161.0058 N   0  0  0  0  0  0  0  0  0  0  0  0
  145.8886  138.1217  160.5374 O   0  0  0  0  0  0  0  0  0  0  0  0
  148.8562  134.5991  158.1969 N   0  0  0  0  0  0  0  0  0  0  0  0
  149.2391  134.7371  156.9256 C   0  0  0  0  0  0  0  0  0  0  0  0
  149.2262  135.8325  156.1668 N   0  0  0  0  0  0  0  0  0  0  0  0
  148.7489  136.9054  156.8588 C   0  0  0  0  0  0  0  0  0  0  0  0
  147.9119  133.6348  162.9444 H   0  0  0  0  0  0  0  0  0  0  0  0
  148.2448  137.3247  161.1083 H   0  0  0  0  0  0  0  0  0  0  0  0
  151.0207  136.9205  154.5358 H   0  0  0  0  0  0  0  0  0  0  0  0
  151.0601  137.1863  156.2830 H   0  0  0  0  0  0  0  0  0  0  0  0
  152.5578  137.0720  155.3721 H   0  0  0  0  0  0  0  0  0  0  0  0
  152.0862  139.1774  154.1900 H   0  0  0  0  0  0  0  0  0  0  0  0
  151.9502  141.2369  157.4099 H   0  0  0  0  0  0  0  0  0  0  0  0
  152.0725  141.5660  155.6731 H   0  0  0  0  0  0  0  0  0  0  0  0
  149.8186  140.1461  157.1441 H   0  0  0  0  0  0  0  0  0  0  0  0
  149.6329  141.5501  156.0964 H   0  0  0  0  0  0  0  0  0  0  0  0
  149.7440  139.8952  153.1801 H   0  0  0  0  0  0  0  0  0  0  0  0
  148.0161  139.2690  154.7252 H   0  0  0  0  0  0  0  0  0  0  0  0
  149.0409  137.8897  154.4137 H   0  0  0  0  0  0  0  0  0  0  0  0
  147.8411  139.9525  157.4244 H   0  0  0  0  0  0  0  0  0  0  0  0
  147.4447  133.3837  160.2299 H   0  0  0  0  0  0  0  0  0  0  0  0
  149.0540  133.7717  160.8504 H   0  0  0  0  0  0  0  0  0  0  0  0
  147.0136  136.1722  163.2590 H   0  0  0  0  0  0  0  0  0  0  0  0
  148.7058  135.9113  162.8735 H   0  0  0  0  0  0  0  0  0  0  0  0
  144.1916  136.3157  160.8389 H   0  0  0  0  0  0  0  0  0  0  0  0
  145.3846  135.1098  161.2749 H   0  0  0  0  0  0  0  0  0  0  0  0
  149.6071  133.8410  156.4480 H   0  0  0  0  0  0  0  0  0  0  0  0
  1  2  1  0  0  0  0
  1 29  1  0  0  0  0
  1 30  1  0  0  0  0
  1 31  1  0  0  0  0
  2  6  1  0  0  0  0
  2  3  1  0  0  0  0
  2 32  1  0  0  0  0
  3  4  1  0  0  0  0
  4  5  1  0  0  0  0
  4 33  1  0  0  0  0
  4 34  1  0  0  0  0
  5  6  1  0  0  0  0
  5 35  1  0  0  0  0
  5 36  1  0  0  0  0
  6  7  1  0  0  0  0
  6  8  1  0  0  0  0
  7 37  1  0  0  0  0
  8  9  1  0  0  0  0
  8 38  1  0  0  0  0
  8 39  1  0  0  0  0
  9 26  1  0  0  0  0
  9 10  1  0  0  0  0
 10 11  2  0  0  0  0
 10 40  1  0  0  0  0
 11 12  1  0  0  0  0
 12 26  2  0  0  0  0
 12 13  1  0  0  0  0
 13 14  1  0  0  0  0
 13 23  2  0  0  0  0
 14 19  1  0  0  0  0
 14 15  1  0  0  0  0
 15 16  1  0  0  0  0
 15 41  1  0  0  0  0
 15 42  1  0  0  0  0
 16 27  1  0  0  0  0
 16 17  1  0  0  0  0
 16 18  1  0  0  0  0
 18 19  1  0  0  0  0
 18 43  1  0  0  0  0
 18 44  1  0  0  0  0
 19 28  1  0  0  0  0
 19 20  1  0  0  0  0
 20 21  1  0  0  0  0
 20 22  2  0  0  0  0
 21 45  1  0  0  0  0
 21 46  1  0  0  0  0
 23 24  1  0  0  0  0
 24 25  2  0  0  0  0
 24 47  1  0  0  0  0
 25 26  1  0  0  0  0
M  END
> <s_m_source_file>
AV-unprocessed.smi

> <i_m_source_file_index>
196

> <i_lp_mmshare_version>
43012

> <i_f3d_flags>
0

> <s_epik_input>
W0NIMl0xW0NIMl1PW0NAQEhdKFtDSDNdKVtDQEBdMShbT0hdKVtDSDJdbihbY0hdbjIpYyhjMjMpbltjSF1uYzNONFtDSDJdW0NASF0oRilbQ0gyXVtDQEhdNEMoPU8pW05IMl0=

> <s_epik_cmdline>
J2VwaWtfcHl0aG9uJywgJy1waCcsICc3LjAnLCAnLXRuJywgJzgnLCAnLW1hJywgJzIwMCcsICctbWV0YWxfYmluZGluZycsICctaW1hZScsICc8aW5maWxlLm1hZT4nLCAnLW9tYWUnLCAnPG91dGZpbGUubWFlPic=

> <r_lp_tautomer_probability>
1

> <r_epik_Ionization_Penalty>
0.000857933

> <r_epik_Ionization_Penalty_Charging>
0

> <r_epik_Ionization_Penalty_Neutral>
0.000857933

> <r_epik_State_Penalty>
0.000462053

> <r_epik_Charging_Adjusted_Penalty>
0.000462053

> <i_epik_Tot_Q>
0

> <i_epik_Tot_abs_Q>
0

> <r_epik_Metal_State_Penalty>
-0

> <b_epik_Metal_Only>
0

> <s_lp_Force_Field>
OPLS_2005

> <r_lp_Energy>
42.9342

> <b_lp_Chiralities_Consistent>
1

> <s_lp_Variant>
AV-unprocessed.smi:196-9

> <Gold.Version>
5.8.1

> <Gold.Id.Protein>
6NUR|6NUR_protein|mol2

> <Gold.PLP.Fitness>
47.2535

> <Gold.PLP.PLP>
-37.4161

> <Gold.PLP.part.hbond>
-4.5662

> <Gold.PLP.part.metal>
0.0000

> <Gold.PLP.part.buried>
-6.2053

> <Gold.PLP.part.nonpolar>
-26.1803

> <Gold.PLP.part.repulsive>
0.0548

> <Gold.PLP.ligand.clash>
0.0000

> <Gold.PLP.ligand.torsion>
0.4318

> <Gold.PLP.Chemscore.Hbond>
3.5569

> <Gold.PLP.Chemscore.CHOScore>
0.0000

> <Gold.PLP.Chemscore.Metal>
0.0000

> <Gold.Chemscore.Hbonds>
donor molecule, donor type, donor heavy atom, donor atom, acceptor molecule, acceptor atom, score
      L1  H     7    37       P1  7957  0.70
      P1  H  6896  6907       L1    23  0.60
      P1  H  6934  6947       L1    22  0.91
      P1  H  7989  7998       L1     7  0.72
      P1  H  7997  8008       L1     3  0.51

> <Gold.PLP.Chemscore.Internal.Correction>
0.0302

> <Gold.Rescore>
     Score         DG    S(hbond)    S(metal)    S(lipo)     H(rot)  DE(clash)    DE(int)     intcor
     10.59     -15.20       2.49        0.00      68.93       2.60       0.08       4.53       ----

> <Gold.Chemscore.Fitness>
10.5868

> <Gold.Chemscore.DG>
-15.2006

> <Gold.Chemscore.ZeroCoef>
-5.4800

> <Gold.Chemscore.Hbond>
2.4860

> <Gold.Chemscore.Metal>
0.0000

> <Gold.Chemscore.Lipo>
68.9311

> <Gold.Chemscore.Internal_Hbond>
0.0000

> <Gold.Chemscore.DEClash>
0.0835

> <Gold.Chemscore.DEInternal>
4.5303

> <Gold.Chemscore.Rot>
2.5968

> <Gold.Chemscore.Internal.Correction>
   9.000000E+99

> <Gold.Chemscore.Hbonds>
donor molecule, donor type, donor heavy atom, donor atom, acceptor molecule, acceptor atom, score
      L1  H     7    37       P1  7957  0.65
      P1  H  6896  6907       L1    23  0.11
      P1  H  6934  6947       L1    22  0.65
      P1  H  7989  7998       L1     7  0.33
      P1  H  7997  8008       L1     3  0.09

> <Gold.Chemscore.Hbond.Weighted>
-8.3034

> <Gold.Chemscore.Metal.Weighted>
-0.0000

> <Gold.Chemscore.Lipo.Weighted>
-8.0649

> <Gold.Chemscore.Internal_Hbond.Weighted>
0.0000

> <Gold.Chemscore.DEClash.Weighted>
0.0835

> <Gold.Chemscore.DEInternal.Weighted>
4.5303

> <Gold.Chemscore.Rot.Weighted>
6.6477

> <Gold.Chemscore.Internal.Correction.Weighted>
   9.000000E+99

> <Gold.Protein.RotatedTorsions>
[ 6907 6896 6895 6894 ] final  -98.66 input  -60.11 | X-H torsion
[ 7974 7965 7964 7962 ] final  101.05 input  175.53 | X-H torsion
[ 8008 7997 7996 7995 ] final  -34.82 input   59.86 | X-H torsion
[ 10167 10162 10161 10158 ] final -177.78 input  -65.29 | X-H torsion
[ 10718 10713 10712 10709 ] final -150.56 input   66.30 | X-H torsion
[ 10763 10752 10751 10750 ] final -173.80 input  -60.55 | X-H torsion
[ 11005 11000 10999 10996 ] final   87.31 input  -57.11 | X-H torsion

> <Gold.Protein.ActiveResidues>
 VAL166  LYS551  ARG553  GLY616  TRP617  ASP618  TYR619  PRO620  LYS621  CYS622 
 ASP623  PHE694  ASN695  SER759  ASP760  ASP761  ALA762  ILE779  LEU786  VAL792 
 PHE793  MET794  SER795  GLU796  ALA797  LYS798  CYS799  TRP800  GLU811  SER814 

> <Gold.Protein.RotatedAtoms>
  150.7054  134.1160  159.4017 H   0  0  0  0  0  0  0  0  0  0  0  0  # atno 6907 bound_to 6896
  151.9146  135.0322  160.0526 H   0  0  0  0  0  0  0  0  0  0  0  0  # atno 6908 bound_to 6896
  152.2307  133.5020  159.5251 H   0  0  0  0  0  0  0  0  0  0  0  0  # atno 6909 bound_to 6896
  145.3775  139.2386  143.3421 H   0  0  0  0  0  0  0  0  0  0  0  0  # atno 7974 bound_to 7965
  154.4111  140.1673  156.2112 H   0  0  0  0  0  0  0  0  0  0  0  0  # atno 8008 bound_to 7997
  155.9442  140.3406  155.6330 H   0  0  0  0  0  0  0  0  0  0  0  0  # atno 8009 bound_to 7997
  155.6950  140.0738  157.2423 H   0  0  0  0  0  0  0  0  0  0  0  0  # atno 8010 bound_to 7997
  139.5463  144.2226  152.0995 H   0  0  0  0  0  0  0  0  0  0  0  0  # atno 10167 bound_to 10162
  156.4477  130.8153  151.2383 H   0  0  0  0  0  0  0  0  0  0  0  0  # atno 10718 bound_to 10713
  154.6037  135.2857  155.0508 H   0  0  0  0  0  0  0  0  0  0  0  0  # atno 10763 bound_to 10752
  154.1763  135.6464  153.5026 H   0  0  0  0  0  0  0  0  0  0  0  0  # atno 10764 bound_to 10752
  153.0167  135.5413  154.6765 H   0  0  0  0  0  0  0  0  0  0  0  0  # atno 10765 bound_to 10752
  139.8923  134.8413  156.2842 H   0  0  0  0  0  0  0  0  0  0  0  0  # atno 11005 bound_to 11000
  146.2857  140.4437  142.8759 LP  0  0  0  0  0  0  0  0  0  0  0  0  # atno 17320 bound_to 7965
  144.8531  140.7031  143.6155 LP  0  0  0  0  0  0  0  0  0  0  0  0  # atno 17321 bound_to 7965
  140.1713  144.4933  150.6578 LP  0  0  0  0  0  0  0  0  0  0  0  0  # atno 17342 bound_to 10162
  140.6713  143.2287  151.5619 LP  0  0  0  0  0  0  0  0  0  0  0  0  # atno 17343 bound_to 10162
  157.7504  131.0148  150.3477 LP  0  0  0  0  0  0  0  0  0  0  0  0  # atno 17370 bound_to 10713
  156.3849  130.3887  149.7073 LP  0  0  0  0  0  0  0  0  0  0  0  0  # atno 17371 bound_to 10713
  141.0019  133.7146  156.0973 LP  0  0  0  0  0  0  0  0  0  0  0  0  # atno 17394 bound_to 11000
  140.7486  134.4070  157.5544 LP  0  0  0  0  0  0  0  0  0  0  0  0  # atno 17395 bound_to 11000

$$$$
