AV-unprocessed.smi:763|AV-procd|sdf|3636|dock10
  -GOLD-   22720 1 33D 1   1.00000     0.00000
 Structure written by MMmdl.
 44 45  0  0  0  0  0  0  0  0  1 V2000
  154.9306  138.6988  159.5733 C   0  0  0  0  0  0  0  0  0  0  0  0
  154.3621  138.7793  158.2782 O   0  0  0  0  0  0  0  0  0  0  0  0
  152.9464  138.7085  158.3022 C   0  0  0  0  0  0  0  0  0  0  0  0
  152.4037  139.8262  159.2068 C   0  0  0  0  0  0  0  0  0  0  0  0
  151.7060  140.8194  158.4547 O   0  0  0  0  0  0  0  0  0  0  0  0
  151.8427  142.1570  158.7790 C   0  0  0  0  0  0  0  0  0  0  0  0
  152.6208  142.4954  159.8379 N   0  0  0  0  0  0  0  0  0  0  0  0
  152.7563  143.8015  160.1459 C   0  0  0  0  0  0  0  0  0  0  0  0
  152.1342  144.8327  159.4184 C   0  0  0  0  0  0  0  0  0  0  0  0
  151.3301  144.4833  158.3182 C   0  0  0  0  0  0  0  0  0  0  0  0
  151.1759  143.1190  157.9857 C   0  0  0  0  0  0  0  0  0  0  0  0
  150.3941  142.6973  156.9033 N   0  0  0  0  0  0  0  0  0  0  0  0
  150.0791  141.0905  156.3261 S   0  0  0  0  0  0  0  0  0  0  0  0
  151.4003  140.5635  155.9539 O   0  0  0  0  0  0  0  0  0  0  0  0
  149.2867  140.4334  157.3775 O   0  0  0  0  0  0  0  0  0  0  0  0
  149.0257  141.4042  154.8115 C   0  0  2  0  0  0  0  0  0  0  0  0
  147.6460  141.9690  155.2086 C   0  0  0  0  0  0  0  0  0  0  0  0
  146.7539  140.9013  155.8665 C   0  0  0  0  0  0  0  0  0  0  0  0
  146.5715  139.6868  154.9417 C   0  0  0  0  0  0  0  0  0  0  0  0
  147.9242  139.0895  154.5209 C   0  0  0  0  0  0  0  0  0  0  0  0
  148.8376  140.1659  153.8996 C   0  0  2  0  0  0  0  0  0  0  0  0
  150.0803  139.6093  153.5215 O   0  0  0  0  0  0  0  0  0  0  0  0
  156.0167  138.7537  159.5007 H   0  0  0  0  0  0  0  0  0  0  0  0
  154.6730  137.7571  160.0595 H   0  0  0  0  0  0  0  0  0  0  0  0
  154.5935  139.5226  160.2039 H   0  0  0  0  0  0  0  0  0  0  0  0
  152.5391  138.7782  157.2931 H   0  0  0  0  0  0  0  0  0  0  0  0
  152.6442  137.7413  158.7066 H   0  0  0  0  0  0  0  0  0  0  0  0
  151.7752  139.4174  159.9994 H   0  0  0  0  0  0  0  0  0  0  0  0
  153.2351  140.3117  159.7181 H   0  0  0  0  0  0  0  0  0  0  0  0
  153.3813  144.0313  160.9961 H   0  0  0  0  0  0  0  0  0  0  0  0
  152.2706  145.8670  159.6973 H   0  0  0  0  0  0  0  0  0  0  0  0
  150.8494  145.2621  157.7469 H   0  0  0  0  0  0  0  0  0  0  0  0
  149.9177  143.4389  156.4098 H   0  0  0  0  0  0  0  0  0  0  0  0
  149.5389  142.1759  154.2382 H   0  0  0  0  0  0  0  0  0  0  0  0
  147.7581  142.8265  155.8720 H   0  0  0  0  0  0  0  0  0  0  0  0
  147.1451  142.3483  154.3169 H   0  0  0  0  0  0  0  0  0  0  0  0
  147.1887  140.5803  156.8137 H   0  0  0  0  0  0  0  0  0  0  0  0
  145.7809  141.3307  156.1064 H   0  0  0  0  0  0  0  0  0  0  0  0
  145.9685  138.9267  155.4392 H   0  0  0  0  0  0  0  0  0  0  0  0
  146.0153  139.9881  154.0531 H   0  0  0  0  0  0  0  0  0  0  0  0
  148.3961  138.6237  155.3844 H   0  0  0  0  0  0  0  0  0  0  0  0
  147.7583  138.2862  153.8020 H   0  0  0  0  0  0  0  0  0  0  0  0
  148.3655  140.5034  152.9759 H   0  0  0  0  0  0  0  0  0  0  0  0
  150.0388  139.3683  152.6088 H   0  0  0  0  0  0  0  0  0  0  0  0
  1  2  1  0  0  0  0
  1 23  1  0  0  0  0
  1 24  1  0  0  0  0
  1 25  1  0  0  0  0
  2  3  1  0  0  0  0
  3  4  1  0  0  0  0
  3 26  1  0  0  0  0
  3 27  1  0  0  0  0
  4  5  1  0  0  0  0
  4 28  1  0  0  0  0
  4 29  1  0  0  0  0
  5  6  1  0  0  0  0
  6 11  1  0  0  0  0
  6  7  2  0  0  0  0
  7  8  1  0  0  0  0
  8  9  2  0  0  0  0
  8 30  1  0  0  0  0
  9 10  1  0  0  0  0
  9 31  1  0  0  0  0
 10 11  2  0  0  0  0
 10 32  1  0  0  0  0
 11 12  1  0  0  0  0
 12 13  1  0  0  0  0
 12 33  1  0  0  0  0
 13 14  2  0  0  0  0
 13 15  2  0  0  0  0
 13 16  1  0  0  0  0
 16 21  1  0  0  0  0
 16 17  1  0  0  0  0
 16 34  1  0  0  0  0
 17 18  1  0  0  0  0
 17 35  1  0  0  0  0
 17 36  1  0  0  0  0
 18 19  1  0  0  0  0
 18 37  1  0  0  0  0
 18 38  1  0  0  0  0
 19 20  1  0  0  0  0
 19 39  1  0  0  0  0
 19 40  1  0  0  0  0
 20 21  1  0  0  0  0
 20 41  1  0  0  0  0
 20 42  1  0  0  0  0
 21 22  1  0  0  0  0
 21 43  1  0  0  0  0
 22 44  1  0  0  0  0
M  END
> <s_m_source_file>
AV-unprocessed.smi

> <i_m_source_file_index>
763

> <i_lp_mmshare_version>
43012

> <i_f3d_flags>
0

> <s_epik_input>
W0NIM11PW0NIMl1bQ0gyXU9jMW5bY0hdW2NIXVtjSF1jMVtOSF1TKD1PKSg9TylbQ0BASF0yW0NIMl1bQ0gyXVtDSDJdW0NIMl1bQ0BIXTJbT0hd

> <s_epik_cmdline>
J2VwaWtfcHl0aG9uJywgJy1waCcsICc3LjAnLCAnLXRuJywgJzgnLCAnLW1hJywgJzIwMCcsICctbWV0YWxfYmluZGluZycsICctaW1hZScsICc8aW5maWxlLm1hZT4nLCAnLW9tYWUnLCAnPG91dGZpbGUubWFlPic=

> <r_epik_Ionization_Penalty>
0.124685

> <r_epik_Ionization_Penalty_Charging>
0

> <r_epik_Ionization_Penalty_Neutral>
0.124685

> <r_epik_State_Penalty>
0.114154

> <r_epik_Charging_Adjusted_Penalty>
0.114154

> <i_epik_Tot_Q>
0

> <i_epik_Tot_abs_Q>
0

> <r_epik_Metal_State_Penalty>
0.443785

> <b_epik_Metal_Only>
0

> <s_lp_Force_Field>
OPLS_2005

> <r_lp_Energy>
4.78457

> <b_lp_Chiralities_Consistent>
1

> <s_lp_Variant>
AV-unprocessed.smi:763-3

> <Gold.Version>
5.8.1

> <Gold.Id.Protein>
6NUR|6NUR_protein|mol2

> <Gold.PLP.Fitness>
41.5970

> <Gold.PLP.PLP>
-34.7705

> <Gold.PLP.part.hbond>
-3.7499

> <Gold.PLP.part.metal>
0.0000

> <Gold.PLP.part.buried>
-2.5413

> <Gold.PLP.part.nonpolar>
-28.1894

> <Gold.PLP.part.repulsive>
0.0481

> <Gold.PLP.ligand.clash>
2.0563

> <Gold.PLP.ligand.torsion>
1.6011

> <Gold.PLP.Chemscore.Hbond>
3.5840

> <Gold.PLP.Chemscore.CHOScore>
0.0000

> <Gold.PLP.Chemscore.Metal>
0.0000

> <Gold.Chemscore.Hbonds>
donor molecule, donor type, donor heavy atom, donor atom, acceptor molecule, acceptor atom, score
      L1  H    12    33       P1  8028  1.00
      L1  H    22    44       P1  7957  0.80
      P1  H  7989  7998       L1    22  0.74
      P1  H  7997  8009       L1     2  1.00

> <Gold.PLP.Chemscore.Internal.Correction>
1.3331

> <Gold.Rescore>
     Score         DG    S(hbond)    S(metal)    S(lipo)     H(rot)  DE(clash)    DE(int)     intcor
     11.36     -18.91       2.85        0.00      86.08       2.41       0.02       7.54       ----

> <Gold.Chemscore.Fitness>
11.3555

> <Gold.Chemscore.DG>
-18.9148

> <Gold.Chemscore.ZeroCoef>
-5.4800

> <Gold.Chemscore.Hbond>
2.8504

> <Gold.Chemscore.Metal>
0.0000

> <Gold.Chemscore.Lipo>
86.0843

> <Gold.Chemscore.Internal_Hbond>
0.0000

> <Gold.Chemscore.DEClash>
0.0186

> <Gold.Chemscore.DEInternal>
7.5407

> <Gold.Chemscore.Rot>
2.4052

> <Gold.Chemscore.Internal.Correction>
   9.000000E+99

> <Gold.Chemscore.Hbonds>
donor molecule, donor type, donor heavy atom, donor atom, acceptor molecule, acceptor atom, score
      L1  H    12    33       P1  8028  1.00
      L1  H    22    44       P1  7957  0.70
      P1  H  7989  7998       L1    22  0.15
      P1  H  7997  8009       L1     2  0.77

> <Gold.Chemscore.Hbond.Weighted>
-9.5203

> <Gold.Chemscore.Metal.Weighted>
-0.0000

> <Gold.Chemscore.Lipo.Weighted>
-10.0719

> <Gold.Chemscore.Internal_Hbond.Weighted>
0.0000

> <Gold.Chemscore.DEClash.Weighted>
0.0186

> <Gold.Chemscore.DEInternal.Weighted>
7.5407

> <Gold.Chemscore.Rot.Weighted>
6.1574

> <Gold.Chemscore.Internal.Correction.Weighted>
   9.000000E+99

> <Gold.Protein.RotatedTorsions>
[ 6907 6896 6895 6894 ] final  -21.50 input  -60.11 | X-H torsion
[ 7974 7965 7964 7962 ] final   -9.76 input  175.53 | X-H torsion
[ 8008 7997 7996 7995 ] final  118.07 input   59.86 | X-H torsion
[ 10167 10162 10161 10158 ] final  -78.22 input  -65.29 | X-H torsion
[ 10718 10713 10712 10709 ] final   39.80 input   66.30 | X-H torsion
[ 10763 10752 10751 10750 ] final    7.03 input  -60.55 | X-H torsion
[ 11005 11000 10999 10996 ] final  117.33 input  -57.11 | X-H torsion

> <Gold.Protein.ActiveResidues>
 VAL166  LYS551  ARG553  GLY616  TRP617  ASP618  TYR619  PRO620  LYS621  CYS622 
 ASP623  PHE694  ASN695  SER759  ASP760  ASP761  ALA762  ILE779  LEU786  VAL792 
 PHE793  MET794  SER795  GLU796  ALA797  LYS798  CYS799  TRP800  GLU811  SER814 

> <Gold.Protein.RotatedAtoms>
  151.2324  135.0559  159.8992 H   0  0  0  0  0  0  0  0  0  0  0  0  # atno 6907 bound_to 6896
  152.5403  134.0523  159.8125 H   0  0  0  0  0  0  0  0  0  0  0  0  # atno 6908 bound_to 6896
  151.0704  133.5422  159.2659 H   0  0  0  0  0  0  0  0  0  0  0  0  # atno 6909 bound_to 6896
  146.2242  140.2665  142.8354 H   0  0  0  0  0  0  0  0  0  0  0  0  # atno 7974 bound_to 7965
  156.2527  140.2882  156.0777 H   0  0  0  0  0  0  0  0  0  0  0  0  # atno 8008 bound_to 7997
  155.1601  140.0399  157.2858 H   0  0  0  0  0  0  0  0  0  0  0  0  # atno 8009 bound_to 7997
  154.6399  140.2520  155.7341 H   0  0  0  0  0  0  0  0  0  0  0  0  # atno 8010 bound_to 7997
  140.4701  143.2429  151.8217 H   0  0  0  0  0  0  0  0  0  0  0  0  # atno 10167 bound_to 10162
  157.3748  130.7721  149.7147 H   0  0  0  0  0  0  0  0  0  0  0  0  # atno 10718 bound_to 10713
  153.2409  135.6903  153.7784 H   0  0  0  0  0  0  0  0  0  0  0  0  # atno 10763 bound_to 10752
  153.6914  135.3312  155.3204 H   0  0  0  0  0  0  0  0  0  0  0  0  # atno 10764 bound_to 10752
  154.8355  135.4546  154.1330 H   0  0  0  0  0  0  0  0  0  0  0  0  # atno 10765 bound_to 10752
  139.9071  134.9609  156.7335 H   0  0  0  0  0  0  0  0  0  0  0  0  # atno 11005 bound_to 11000
  144.9300  140.7964  143.5695 LP  0  0  0  0  0  0  0  0  0  0  0  0  # atno 17320 bound_to 7965
  145.2607  139.1993  143.4893 LP  0  0  0  0  0  0  0  0  0  0  0  0  # atno 17321 bound_to 7965
  139.4817  144.4902  151.9195 LP  0  0  0  0  0  0  0  0  0  0  0  0  # atno 17342 bound_to 10162
  140.3987  144.2521  150.5894 LP  0  0  0  0  0  0  0  0  0  0  0  0  # atno 17343 bound_to 10162
  155.9763  130.4077  150.3789 LP  0  0  0  0  0  0  0  0  0  0  0  0  # atno 17370 bound_to 10713
  157.1885  131.0409  151.2712 LP  0  0  0  0  0  0  0  0  0  0  0  0  # atno 17371 bound_to 10713
  140.6906  133.9393  155.7964 LP  0  0  0  0  0  0  0  0  0  0  0  0  # atno 17394 bound_to 11000
  141.0444  134.0575  157.3862 LP  0  0  0  0  0  0  0  0  0  0  0  0  # atno 17395 bound_to 11000

$$$$
