AV-unprocessed.smi:1381|AV-procd|sdf|5613|dock6
  -GOLD-   22720 5223D 1   1.00000     0.00000
 Structure written by MMmdl.
 42 43  0  0  0  0  0  0  0  0  3 V2000
  149.1622  140.7696  154.1169 C   0  0  0  0  0  0  0  0  0  0  0  0
  150.0449  139.5860  154.3191 C   0  0  0  0  0  0  0  0  0  0  0  0
  149.8033  138.2417  154.3465 C   0  0  0  0  0  0  0  0  0  0  0  0
  151.0892  137.6854  154.5873 C   0  0  0  0  0  0  0  0  0  0  0  0
  151.3771  136.3785  154.6874 N   0  5  0  0  0  0  0  0  0  0  0  0
  150.4210  135.4961  155.0560 C   0  0  0  0  0  0  0  0  0  0  0  0
  150.1479  135.1499  156.2078 O   0  0  0  0  0  0  0  0  0  0  0  0
  149.7371  134.9805  154.0244 N   0  0  0  0  0  0  0  0  0  0  0  0
  148.6552  134.0084  154.1232 C   0  0  0  0  0  0  0  0  0  0  0  0
  149.0509  132.6616  153.4896 C   0  0  0  0  0  0  0  0  0  0  0  0
  147.9443  132.0663  152.7011 N   0  3  1  0  0  0  0  0  0  0  0  0
  147.0606  131.2068  153.5238 C   0  0  0  0  0  0  0  0  0  0  0  0
  145.9608  130.5530  152.6641 C   0  0  2  0  0  0  0  0  0  0  0  0
  146.4755  129.4126  151.7675 C   0  0  0  0  0  0  0  0  0  0  0  0
  145.2569  131.5482  151.9209 O   0  0  0  0  0  0  0  0  0  0  0  0
  146.0775  132.3707  151.0949 C   0  0  1  0  0  0  0  0  0  0  0  0
  145.1690  133.3757  150.3786 C   0  0  0  0  0  0  0  0  0  0  0  0
  147.1406  133.0689  151.9615 C   0  0  0  0  0  0  0  0  0  0  0  0
  152.0305  138.6094  154.6816 N   0  0  0  0  0  0  0  0  0  0  0  0
  151.3681  139.8315  154.5165 O   0  0  0  0  0  0  0  0  0  0  0  0
  148.9229  140.8952  153.0609 H   0  0  0  0  0  0  0  0  0  0  0  0
  149.6445  141.6830  154.4657 H   0  0  0  0  0  0  0  0  0  0  0  0
  148.2269  140.6525  154.6647 H   0  0  0  0  0  0  0  0  0  0  0  0
  148.8580  137.7360  154.2187 H   0  0  0  0  0  0  0  0  0  0  0  0
  149.9915  135.2927  153.0985 H   0  0  0  0  0  0  0  0  0  0  0  0
  148.3715  133.8935  155.1697 H   0  0  0  0  0  0  0  0  0  0  0  0
  147.7852  134.4188  153.6103 H   0  0  0  0  0  0  0  0  0  0  0  0
  149.9056  132.8367  152.8346 H   0  0  0  0  0  0  0  0  0  0  0  0
  149.3850  131.9505  154.2469 H   0  0  0  0  0  0  0  0  0  0  0  0
  147.6458  130.4356  154.0266 H   0  0  0  0  0  0  0  0  0  0  0  0
  146.6029  131.8153  154.3055 H   0  0  0  0  0  0  0  0  0  0  0  0
  145.2302  130.1118  153.3427 H   0  0  0  0  0  0  0  0  0  0  0  0
  146.8889  128.6040  152.3710 H   0  0  0  0  0  0  0  0  0  0  0  0
  147.2604  129.7411  151.0868 H   0  0  0  0  0  0  0  0  0  0  0  0
  145.6661  128.9942  151.1688 H   0  0  0  0  0  0  0  0  0  0  0  0
  146.5673  131.7598  150.3360 H   0  0  0  0  0  0  0  0  0  0  0  0
  145.7461  134.0281  149.7228 H   0  0  0  0  0  0  0  0  0  0  0  0
  144.6353  134.0047  151.0916 H   0  0  0  0  0  0  0  0  0  0  0  0
  144.4269  132.8628  149.7666 H   0  0  0  0  0  0  0  0  0  0  0  0
  146.6646  133.7491  152.6700 H   0  0  0  0  0  0  0  0  0  0  0  0
  147.7823  133.6753  151.3229 H   0  0  0  0  0  0  0  0  0  0  0  0
  148.3730  131.4607  152.0159 H   0  0  0  0  0  0  0  0  0  0  0  0
  1  2  1  0  0  0  0
  1 21  1  0  0  0  0
  1 22  1  0  0  0  0
  1 23  1  0  0  0  0
  2 20  1  0  0  0  0
  2  3  2  0  0  0  0
  3  4  1  0  0  0  0
  3 24  1  0  0  0  0
  4  5  1  0  0  0  0
  4 19  2  0  0  0  0
  5  6  1  0  0  0  0
  6  7  2  0  0  0  0
  6  8  1  0  0  0  0
  8  9  1  0  0  0  0
  8 25  1  0  0  0  0
  9 10  1  0  0  0  0
  9 26  1  0  0  0  0
  9 27  1  0  0  0  0
 10 11  1  0  0  0  0
 10 28  1  0  0  0  0
 10 29  1  0  0  0  0
 11 18  1  0  0  0  0
 11 12  1  0  0  0  0
 11 42  1  0  0  0  0
 12 13  1  0  0  0  0
 12 30  1  0  0  0  0
 12 31  1  0  0  0  0
 13 14  1  0  0  0  0
 13 15  1  0  0  0  0
 13 32  1  0  0  0  0
 14 33  1  0  0  0  0
 14 34  1  0  0  0  0
 14 35  1  0  0  0  0
 15 16  1  0  0  0  0
 16 17  1  0  0  0  0
 16 18  1  0  0  0  0
 16 36  1  0  0  0  0
 17 37  1  0  0  0  0
 17 38  1  0  0  0  0
 17 39  1  0  0  0  0
 18 40  1  0  0  0  0
 18 41  1  0  0  0  0
 19 20  1  0  0  0  0
M  CHG  1   5  -1
M  CHG  1  11   1
M  END
> <s_m_source_file>
AV-unprocessed.smi

> <i_m_source_file_index>
1381

> <i_lp_mmshare_version>
43012

> <i_f3d_flags>
0

> <s_epik_input>
W0NIM11jMVtjSF1jKG5vMSlbTkhdQyg9TylbTkhdW0NIMl1bQ0gyXU4yW0NIMl1bQ0BASF0oW0NIM10pT1tDQEBIXShbQ0gzXSlbQ0gyXTI=

> <s_epik_cmdline>
J2VwaWtfcHl0aG9uJywgJy1waCcsICc3LjAnLCAnLXRuJywgJzgnLCAnLW1hJywgJzIwMCcsICctbWV0YWxfYmluZGluZycsICctaW1hZScsICc8aW5maWxlLm1hZT4nLCAnLW9tYWUnLCAnPG91dGZpbGUubWFlPic=

> <r_epik_Ionization_Penalty>
6.73511

> <r_epik_Ionization_Penalty_Charging>
6.73502

> <r_epik_Ionization_Penalty_Neutral>
9.26583e-05

> <r_epik_State_Penalty>
6.93549

> <r_epik_Charging_Adjusted_Penalty>
13.6705

> <i_epik_Tot_Q>
0

> <i_epik_Tot_abs_Q>
2

> <r_epik_Metal_State_Penalty>
2.87211

> <b_epik_Metal_Only>
1

> <s_lp_Force_Field>
OPLS_2005

> <r_lp_Energy>
5.71057

> <b_lp_Chiralities_Consistent>
1

> <s_lp_Variant>
AV-unprocessed.smi:1381-12

> <Gold.Version>
5.8.1

> <Gold.Id.Protein>
6NUR|6NUR_protein|mol2

> <Gold.PLP.Fitness>
46.5525

> <Gold.PLP.PLP>
-37.4225

> <Gold.PLP.part.hbond>
-4.8293

> <Gold.PLP.part.metal>
0.0000

> <Gold.PLP.part.buried>
-4.3428

> <Gold.PLP.part.nonpolar>
-28.7372

> <Gold.PLP.part.repulsive>
0.5104

> <Gold.PLP.ligand.clash>
0.0000

> <Gold.PLP.ligand.torsion>
1.4782

> <Gold.PLP.Chemscore.Hbond>
4.0000

> <Gold.PLP.Chemscore.CHOScore>
0.0000

> <Gold.PLP.Chemscore.Metal>
0.0000

> <Gold.Chemscore.Hbonds>
donor molecule, donor type, donor heavy atom, donor atom, acceptor molecule, acceptor atom, score
      L1  H    11    42       P1 10747  1.00
      P1  H  7989  7998       L1    20  0.86
      P1  H 10752 10765       L1     5  2.00

> <Gold.PLP.Chemscore.Internal.Correction>
0.0865

> <Gold.Rescore>
     Score         DG    S(hbond)    S(metal)    S(lipo)     H(rot)  DE(clash)    DE(int)     intcor
     17.65     -19.23       2.63        0.00      76.98       1.58       0.18       1.41       ----

> <Gold.Chemscore.Fitness>
17.6514

> <Gold.Chemscore.DG>
-19.2348

> <Gold.Chemscore.ZeroCoef>
-5.4800

> <Gold.Chemscore.Hbond>
2.6321

> <Gold.Chemscore.Metal>
0.0000

> <Gold.Chemscore.Lipo>
76.9780

> <Gold.Chemscore.Internal_Hbond>
0.0000

> <Gold.Chemscore.DEClash>
0.1762

> <Gold.Chemscore.DEInternal>
1.4073

> <Gold.Chemscore.Rot>
1.5792

> <Gold.Chemscore.Internal.Correction>
   9.000000E+99

> <Gold.Chemscore.Hbonds>
donor molecule, donor type, donor heavy atom, donor atom, acceptor molecule, acceptor atom, score
      L1  H    11    42       P1 10747  0.99
      P1  H  7989  7998       L1    20  0.29
      P1  H 10752 10765       L1     5  0.78

> <Gold.Chemscore.Hbond.Weighted>
-8.7913

> <Gold.Chemscore.Metal.Weighted>
-0.0000

> <Gold.Chemscore.Lipo.Weighted>
-9.0064

> <Gold.Chemscore.Internal_Hbond.Weighted>
0.0000

> <Gold.Chemscore.DEClash.Weighted>
0.1762

> <Gold.Chemscore.DEInternal.Weighted>
1.4073

> <Gold.Chemscore.Rot.Weighted>
4.0428

> <Gold.Chemscore.Internal.Correction.Weighted>
   9.000000E+99

> <Gold.Protein.RotatedTorsions>
[ 6907 6896 6895 6894 ] final -124.39 input  -60.11 | X-H torsion
[ 7974 7965 7964 7962 ] final   58.77 input  175.53 | X-H torsion
[ 8008 7997 7996 7995 ] final   70.22 input   59.86 | X-H torsion
[ 10167 10162 10161 10158 ] final -163.14 input  -65.29 | X-H torsion
[ 10718 10713 10712 10709 ] final -126.51 input   66.30 | X-H torsion
[ 10763 10752 10751 10750 ] final  177.43 input  -60.55 | X-H torsion
[ 11005 11000 10999 10996 ] final  -99.23 input  -57.11 | X-H torsion

> <Gold.Protein.ActiveResidues>
 VAL166  LYS551  ARG553  GLY616  TRP617  ASP618  TYR619  PRO620  LYS621  CYS622 
 ASP623  PHE694  ASN695  SER759  ASP760  ASP761  ALA762  ILE779  LEU786  VAL792 
 PHE793  MET794  SER795  GLU796  ALA797  LYS798  CYS799  TRP800  GLU811  SER814 

> <Gold.Protein.RotatedAtoms>
  150.8763  133.7434  159.2945 H   0  0  0  0  0  0  0  0  0  0  0  0  # atno 6907 bound_to 6896
  151.5029  135.1061  159.9843 H   0  0  0  0  0  0  0  0  0  0  0  0  # atno 6908 bound_to 6896
  152.4730  133.8027  159.7017 H   0  0  0  0  0  0  0  0  0  0  0  0  # atno 6909 bound_to 6896
  145.9145  139.3680  143.0515 H   0  0  0  0  0  0  0  0  0  0  0  0  # atno 7974 bound_to 7965
  155.7355  140.3491  155.5079 H   0  0  0  0  0  0  0  0  0  0  0  0  # atno 8008 bound_to 7997
  155.9143  140.1056  157.1277 H   0  0  0  0  0  0  0  0  0  0  0  0  # atno 8009 bound_to 7997
  154.4060  140.1262  156.4584 H   0  0  0  0  0  0  0  0  0  0  0  0  # atno 8010 bound_to 7997
  139.6342  144.0382  152.2040 H   0  0  0  0  0  0  0  0  0  0  0  0  # atno 10167 bound_to 10162
  156.1772  130.6707  151.0257 H   0  0  0  0  0  0  0  0  0  0  0  0  # atno 10718 bound_to 10713
  154.4944  135.2780  155.1471 H   0  0  0  0  0  0  0  0  0  0  0  0  # atno 10763 bound_to 10752
  154.3129  135.6225  153.5477 H   0  0  0  0  0  0  0  0  0  0  0  0  # atno 10764 bound_to 10752
  152.9893  135.5724  154.5373 H   0  0  0  0  0  0  0  0  0  0  0  0  # atno 10765 bound_to 10752
  141.1316  133.8305  157.0944 H   0  0  0  0  0  0  0  0  0  0  0  0  # atno 11005 bound_to 11000
  145.8629  140.9464  143.0690 LP  0  0  0  0  0  0  0  0  0  0  0  0  # atno 17320 bound_to 7965
  144.6746  140.0554  143.7477 LP  0  0  0  0  0  0  0  0  0  0  0  0  # atno 17321 bound_to 7965
  140.0055  144.6262  150.7693 LP  0  0  0  0  0  0  0  0  0  0  0  0  # atno 17342 bound_to 10162
  140.7456  143.2878  151.3415 LP  0  0  0  0  0  0  0  0  0  0  0  0  # atno 17343 bound_to 10162
  157.6843  131.0829  150.7285 LP  0  0  0  0  0  0  0  0  0  0  0  0  # atno 17370 bound_to 10713
  156.7342  130.4719  149.5492 LP  0  0  0  0  0  0  0  0  0  0  0  0  # atno 17371 bound_to 10713
  140.0372  134.9872  157.0894 LP  0  0  0  0  0  0  0  0  0  0  0  0  # atno 17394 bound_to 11000
  140.4191  134.1899  155.7164 LP  0  0  0  0  0  0  0  0  0  0  0  0  # atno 17395 bound_to 11000

$$$$
