AV-unprocessed.smi:2424|AV-procd|sdf|9569|dock4
  -GOLD-   2272013203D 1   1.00000     0.00000
 Structure written by MMmdl.
 49 50  0  0  0  0  0  0  0  0  2 V2000
  149.5480  132.9624  153.9047 C   0  0  0  0  0  0  0  0  0  0  0  0
  148.2657  132.4316  153.2367 C   0  0  0  0  0  0  0  0  0  0  0  0
  146.9127  132.8232  153.9008 C   0  0  0  0  0  0  0  0  0  0  0  0
  146.8111  132.1807  155.2976 C   0  0  0  0  0  0  0  0  0  0  0  0
  147.1138  130.6743  155.3323 C   0  0  0  0  0  0  0  0  0  0  0  0
  146.4815  134.3163  153.8355 C   0  0  1  0  0  0  0  0  0  0  0  0
  147.5683  135.2810  153.7071 N   0  0  0  0  0  0  0  0  0  0  0  0
  148.1711  135.8877  154.7385 C   0  0  0  0  0  0  0  0  0  0  0  0
  147.8603  135.6884  155.9126 O   0  0  0  0  0  0  0  0  0  0  0  0
  149.1451  136.7084  154.3069 N   0  0  0  0  0  0  0  0  0  0  0  0
  150.0122  137.5111  155.0593 C   0  0  0  0  0  0  0  0  0  0  0  0
  150.6151  138.6118  154.4850 C   0  0  0  0  0  0  0  0  0  0  0  0
  151.4713  139.4959  155.0411 N   0  5  0  0  0  0  0  0  0  0  0  0
  151.8175  139.3199  156.3485 C   0  0  0  0  0  0  0  0  0  0  0  0
  152.5930  140.0842  156.9216 O   0  0  0  0  0  0  0  0  0  0  0  0
  151.2421  138.1795  157.0899 C   0  0  0  0  0  0  0  0  0  0  0  0
  151.6258  137.9894  158.5476 C   0  0  0  0  0  0  0  0  0  0  0  0
  150.3881  137.3331  156.4617 C   0  0  0  0  0  0  0  0  0  0  0  0
  145.7782  134.0465  152.5008 C   0  0  2  0  0  0  0  0  0  0  0  0
  144.5222  134.8385  152.1615 C   0  0  0  0  0  0  0  0  0  0  0  0
  145.6617  132.6016  153.0079 C   0  0  1  0  0  0  0  0  0  0  0  0
  145.8571  131.5998  152.0204 O   0  0  0  0  0  0  0  0  0  0  0  0
  144.7664  131.4761  151.1255 C   0  0  0  0  0  0  0  0  0  0  0  0
  150.4200  132.7098  153.3015 H   0  0  0  0  0  0  0  0  0  0  0  0
  149.7068  132.5202  154.8876 H   0  0  0  0  0  0  0  0  0  0  0  0
  149.5406  134.0439  154.0216 H   0  0  0  0  0  0  0  0  0  0  0  0
  148.2791  132.7601  152.1975 H   0  0  0  0  0  0  0  0  0  0  0  0
  148.3506  131.3465  153.1777 H   0  0  0  0  0  0  0  0  0  0  0  0
  147.4452  132.7020  156.0140 H   0  0  0  0  0  0  0  0  0  0  0  0
  145.8004  132.3170  155.6842 H   0  0  0  0  0  0  0  0  0  0  0  0
  146.9491  130.2736  156.3326 H   0  0  0  0  0  0  0  0  0  0  0  0
  148.1482  130.4613  155.0642 H   0  0  0  0  0  0  0  0  0  0  0  0
  146.4687  130.1241  154.6469 H   0  0  0  0  0  0  0  0  0  0  0  0
  145.7546  134.5733  154.6105 H   0  0  0  0  0  0  0  0  0  0  0  0
  147.8841  135.4969  152.7731 H   0  0  0  0  0  0  0  0  0  0  0  0
  149.2852  136.7550  153.3083 H   0  0  0  0  0  0  0  0  0  0  0  0
  150.3752  138.8105  153.4181 H   0  0  0  0  0  0  0  0  0  0  0  0
  151.1389  137.1132  158.9764 H   0  0  0  0  0  0  0  0  0  0  0  0
  151.3316  138.8598  159.1351 H   0  0  0  0  0  0  0  0  0  0  0  0
  152.7037  137.8564  158.6434 H   0  0  0  0  0  0  0  0  0  0  0  0
  149.9855  136.5153  157.0364 H   0  0  0  0  0  0  0  0  0  0  0  0
  146.4946  134.0911  151.6785 H   0  0  0  0  0  0  0  0  0  0  0  0
  143.7620  134.7315  152.9354 H   0  0  0  0  0  0  0  0  0  0  0  0
  144.0840  134.5090  151.2197 H   0  0  0  0  0  0  0  0  0  0  0  0
  144.7447  135.9013  152.0646 H   0  0  0  0  0  0  0  0  0  0  0  0
  144.7601  132.4373  153.6038 H   0  0  0  0  0  0  0  0  0  0  0  0
  144.9635  130.6667  150.4229 H   0  0  0  0  0  0  0  0  0  0  0  0
  144.6177  132.3889  150.5494 H   0  0  0  0  0  0  0  0  0  0  0  0
  143.8440  131.2409  151.6578 H   0  0  0  0  0  0  0  0  0  0  0  0
  1  2  1  0  0  0  0
  1 24  1  0  0  0  0
  1 25  1  0  0  0  0
  1 26  1  0  0  0  0
  2  3  1  0  0  0  0
  2 27  1  0  0  0  0
  2 28  1  0  0  0  0
  3 21  1  0  0  0  0
  3  4  1  0  0  0  0
  3  6  1  0  0  0  0
  4  5  1  0  0  0  0
  4 29  1  0  0  0  0
  4 30  1  0  0  0  0
  5 31  1  0  0  0  0
  5 32  1  0  0  0  0
  5 33  1  0  0  0  0
  6  7  1  0  0  0  0
  6 19  1  0  0  0  0
  6 34  1  0  0  0  0
  7  8  1  0  0  0  0
  7 35  1  0  0  0  0
  8  9  2  0  0  0  0
  8 10  1  0  0  0  0
 10 11  1  0  0  0  0
 10 36  1  0  0  0  0
 11 18  1  0  0  0  0
 11 12  2  0  0  0  0
 12 13  1  0  0  0  0
 12 37  1  0  0  0  0
 13 14  1  0  0  0  0
 14 15  2  0  0  0  0
 14 16  1  0  0  0  0
 16 17  1  0  0  0  0
 16 18  2  0  0  0  0
 17 38  1  0  0  0  0
 17 39  1  0  0  0  0
 17 40  1  0  0  0  0
 18 41  1  0  0  0  0
 19 20  1  0  0  0  0
 19 21  1  0  0  0  0
 19 42  1  0  0  0  0
 20 43  1  0  0  0  0
 20 44  1  0  0  0  0
 20 45  1  0  0  0  0
 21 22  1  0  0  0  0
 21 46  1  0  0  0  0
 22 23  1  0  0  0  0
 23 47  1  0  0  0  0
 23 48  1  0  0  0  0
 23 49  1  0  0  0  0
M  CHG  1  13  -1
M  END
> <s_m_source_file>
AV-unprocessed.smi

> <i_m_source_file_index>
2424

> <i_lp_mmshare_version>
43012

> <i_f3d_flags>
0

> <s_epik_input>
W0NIM11PW0NAQEhdMVtDQEhdKFtDSDNdKVtDQEBIXShDMShbQ0gyXVtDSDNdKVtDSDJdW0NIM10pW05IXUMoPU8pW05IXWMyW2NIXVtuSF1jKD1PKWMoW0NIM10pW2NIXTI=

> <s_epik_cmdline>
J2VwaWtfcHl0aG9uJywgJy1waCcsICc3LjAnLCAnLXRuJywgJzgnLCAnLW1hJywgJzIwMCcsICctbWV0YWxfYmluZGluZycsICctaW1hZScsICc8aW5maWxlLm1hZT4nLCAnLW9tYWUnLCAnPG91dGZpbGUubWFlPic=

> <r_lp_tautomer_probability>
1

> <r_epik_Ionization_Penalty>
7.6122

> <r_epik_Ionization_Penalty_Charging>
1.53843

> <r_epik_Ionization_Penalty_Neutral>
6.07377

> <r_epik_State_Penalty>
6.07371

> <r_epik_Charging_Adjusted_Penalty>
7.61214

> <i_epik_Tot_Q>
-1

> <i_epik_Tot_abs_Q>
1

> <r_epik_Metal_State_Penalty>
2.02136

> <b_epik_Metal_Only>
1

> <s_lp_Force_Field>
OPLS_2005

> <r_lp_Energy>
39.7535

> <b_lp_Chiralities_Consistent>
1

> <s_lp_Variant>
AV-unprocessed.smi:2424-11

> <Gold.Version>
5.8.1

> <Gold.Id.Protein>
6NUR|6NUR_protein|mol2

> <Gold.PLP.Fitness>
38.4037

> <Gold.PLP.PLP>
-27.0917

> <Gold.PLP.part.hbond>
-3.5846

> <Gold.PLP.part.metal>
0.0000

> <Gold.PLP.part.buried>
-3.3735

> <Gold.PLP.part.nonpolar>
-19.8835

> <Gold.PLP.part.repulsive>
0.2238

> <Gold.PLP.ligand.clash>
0.0000

> <Gold.PLP.ligand.torsion>
0.6412

> <Gold.PLP.Chemscore.Hbond>
3.9920

> <Gold.PLP.Chemscore.CHOScore>
0.0000

> <Gold.PLP.Chemscore.Metal>
0.0000

> <Gold.Chemscore.Hbonds>
donor molecule, donor type, donor heavy atom, donor atom, acceptor molecule, acceptor atom, score
      L1  H     7    35       P1  7948  0.96
      L1  H    10    36       P1  7948  1.00
      P1  H  7989  7998       L1    13  0.91
      P1  H  7997  8008       L1    15  1.00

> <Gold.PLP.Chemscore.Internal.Correction>
0.6184

> <Gold.Rescore>
     Score         DG    S(hbond)    S(metal)    S(lipo)     H(rot)  DE(clash)    DE(int)     intcor
     18.94     -19.87       3.26        0.00      63.20       1.52       0.25       0.68       ----

> <Gold.Chemscore.Fitness>
18.9432

> <Gold.Chemscore.DG>
-19.8700

> <Gold.Chemscore.ZeroCoef>
-5.4800

> <Gold.Chemscore.Hbond>
3.2600

> <Gold.Chemscore.Metal>
0.0000

> <Gold.Chemscore.Lipo>
63.1960

> <Gold.Chemscore.Internal_Hbond>
0.0000

> <Gold.Chemscore.DEClash>
0.2469

> <Gold.Chemscore.DEInternal>
0.6799

> <Gold.Chemscore.Rot>
1.5204

> <Gold.Chemscore.Internal.Correction>
   9.000000E+99

> <Gold.Chemscore.Hbonds>
donor molecule, donor type, donor heavy atom, donor atom, acceptor molecule, acceptor atom, score
      L1  H     7    35       P1  7948  0.89
      L1  H    10    36       P1  7948  0.87
      P1  H  7989  7998       L1    13  0.22
      P1  H  7997  8008       L1    15  0.97

> <Gold.Chemscore.Hbond.Weighted>
-10.8883

> <Gold.Chemscore.Metal.Weighted>
-0.0000

> <Gold.Chemscore.Lipo.Weighted>
-7.3939

> <Gold.Chemscore.Internal_Hbond.Weighted>
0.0000

> <Gold.Chemscore.DEClash.Weighted>
0.2469

> <Gold.Chemscore.DEInternal.Weighted>
0.6799

> <Gold.Chemscore.Rot.Weighted>
3.8922

> <Gold.Chemscore.Internal.Correction.Weighted>
   9.000000E+99

> <Gold.Protein.RotatedTorsions>
[ 6907 6896 6895 6894 ] final -107.37 input  -60.11 | X-H torsion
[ 7974 7965 7964 7962 ] final -100.70 input  175.53 | X-H torsion
[ 8008 7997 7996 7995 ] final  -50.26 input   59.86 | X-H torsion
[ 10167 10162 10161 10158 ] final   43.42 input  -65.29 | X-H torsion
[ 10718 10713 10712 10709 ] final  142.56 input   66.30 | X-H torsion
[ 10763 10752 10751 10750 ] final  145.70 input  -60.55 | X-H torsion
[ 11005 11000 10999 10996 ] final  -65.30 input  -57.11 | X-H torsion

> <Gold.Protein.ActiveResidues>
 VAL166  LYS551  ARG553  GLY616  TRP617  ASP618  TYR619  PRO620  LYS621  CYS622 
 ASP623  PHE694  ASN695  SER759  ASP760  ASP761  ALA762  ILE779  LEU786  VAL792 
 PHE793  MET794  SER795  GLU796  ALA797  LYS798  CYS799  TRP800  GLU811  SER814 

> <Gold.Protein.RotatedAtoms>
  150.7440  133.9836  159.3584 H   0  0  0  0  0  0  0  0  0  0  0  0  # atno 6907 bound_to 6896
  151.7779  135.0767  160.0379 H   0  0  0  0  0  0  0  0  0  0  0  0  # atno 6908 bound_to 6896
  152.3294  133.5904  159.5835 H   0  0  0  0  0  0  0  0  0  0  0  0  # atno 6909 bound_to 6896
  145.2912  140.9353  143.2877 H   0  0  0  0  0  0  0  0  0  0  0  0  # atno 7974 bound_to 7965
  154.4058  140.1276  156.4636 H   0  0  0  0  0  0  0  0  0  0  0  0  # atno 8008 bound_to 7997
  155.7248  140.3492  155.5013 H   0  0  0  0  0  0  0  0  0  0  0  0  # atno 8009 bound_to 7997
  155.9181  140.1047  157.1218 H   0  0  0  0  0  0  0  0  0  0  0  0  # atno 8010 bound_to 7997
  140.3445  144.2428  150.6152 H   0  0  0  0  0  0  0  0  0  0  0  0  # atno 10167 bound_to 10162
  157.3791  131.0989  151.0755 H   0  0  0  0  0  0  0  0  0  0  0  0  # atno 10718 bound_to 10713
  154.0098  135.2915  155.3393 H   0  0  0  0  0  0  0  0  0  0  0  0  # atno 10763 bound_to 10752
  154.7110  135.5149  153.8670 H   0  0  0  0  0  0  0  0  0  0  0  0  # atno 10764 bound_to 10752
  153.0728  135.6653  154.0330 H   0  0  0  0  0  0  0  0  0  0  0  0  # atno 10765 bound_to 10752
  141.1450  133.6679  156.5965 H   0  0  0  0  0  0  0  0  0  0  0  0  # atno 11005 bound_to 11000
  144.9171  139.4457  143.6559 LP  0  0  0  0  0  0  0  0  0  0  0  0  # atno 17320 bound_to 7965
  146.3184  139.8011  142.8965 LP  0  0  0  0  0  0  0  0  0  0  0  0  # atno 17321 bound_to 7965
  140.5277  143.2250  151.8288 LP  0  0  0  0  0  0  0  0  0  0  0  0  # atno 17342 bound_to 10162
  139.4835  144.4759  151.9368 LP  0  0  0  0  0  0  0  0  0  0  0  0  # atno 17343 bound_to 10162
  157.1831  130.6318  149.5678 LP  0  0  0  0  0  0  0  0  0  0  0  0  # atno 17370 bound_to 10713
  155.9772  130.4747  150.6576 LP  0  0  0  0  0  0  0  0  0  0  0  0  # atno 17371 bound_to 10713
  140.3722  134.7596  157.4606 LP  0  0  0  0  0  0  0  0  0  0  0  0  # atno 17394 bound_to 11000
  140.0702  134.5873  155.8650 LP  0  0  0  0  0  0  0  0  0  0  0  0  # atno 17395 bound_to 11000

$$$$
