AV-unprocessed.smi:3105|AV-procd|sdf|11822|dock9
  -GOLD-   2272017193D 1   1.00000     0.00000
 Structure written by MMmdl.
 34 34  0  0  0  0  0  0  0  0  2 V2000
  149.3846  142.5390  158.1965 C   0  0  0  0  0  0  0  0  0  0  0  0
  150.6692  142.2071  157.4144 C   0  0  1  0  0  0  0  0  0  0  0  0
  150.4247  142.3594  155.9610 N   0  3  0  0  0  0  0  0  0  0  0  0
  149.8729  141.1666  155.2815 C   0  0  0  0  0  0  0  0  0  0  0  0
  150.9135  140.0348  155.1683 C   0  0  0  0  0  0  0  0  0  0  0  0
  150.3671  138.7174  154.5989 C   0  0  0  0  0  0  0  0  0  0  0  0
  149.9076  138.7541  153.3464 N   0  0  0  0  0  0  0  0  0  0  0  0
  150.3599  137.6834  155.2650 O   0  0  0  0  0  0  0  0  0  0  0  0
  151.8729  143.0909  157.8411 C   0  0  1  0  0  0  0  0  0  0  0  0
  151.5869  144.6004  157.7326 C   0  0  0  0  0  0  0  0  0  0  0  0
  152.3185  142.7749  159.1945 N   0  0  0  0  0  0  0  0  0  0  0  0
  152.2877  143.5831  160.3125 C   0  0  0  0  0  0  0  0  0  0  0  0
  152.8044  142.8638  161.3516 C   0  0  0  0  0  0  0  0  0  0  0  0
  153.1200  141.6054  160.7684 C   0  0  0  0  0  0  0  0  0  0  0  0
  152.8255  141.5538  159.4797 N   0  0  0  0  0  0  0  0  0  0  0  0
  149.5019  142.3482  159.2628 H   0  0  0  0  0  0  0  0  0  0  0  0
  148.5435  141.9312  157.8634 H   0  0  0  0  0  0  0  0  0  0  0  0
  149.1048  143.5859  158.0737 H   0  0  0  0  0  0  0  0  0  0  0  0
  150.9299  141.1656  157.6095 H   0  0  0  0  0  0  0  0  0  0  0  0
  149.8235  143.1551  155.8034 H   0  0  0  0  0  0  0  0  0  0  0  0
  148.9962  140.8089  155.8238 H   0  0  0  0  0  0  0  0  0  0  0  0
  149.5335  141.4457  154.2842 H   0  0  0  0  0  0  0  0  0  0  0  0
  151.7262  140.3711  154.5229 H   0  0  0  0  0  0  0  0  0  0  0  0
  151.3583  139.8378  156.1444 H   0  0  0  0  0  0  0  0  0  0  0  0
  149.5382  137.9183  152.9161 H   0  0  0  0  0  0  0  0  0  0  0  0
  149.9331  139.6211  152.8286 H   0  0  0  0  0  0  0  0  0  0  0  0
  152.7083  142.8673  157.1755 H   0  0  0  0  0  0  0  0  0  0  0  0
  151.4142  144.9071  156.7016 H   0  0  0  0  0  0  0  0  0  0  0  0
  152.4317  145.1842  158.0996 H   0  0  0  0  0  0  0  0  0  0  0  0
  150.7111  144.8841  158.3171 H   0  0  0  0  0  0  0  0  0  0  0  0
  151.9075  144.5935  160.2767 H   0  0  0  0  0  0  0  0  0  0  0  0
  152.9344  143.1863  162.3740 H   0  0  0  0  0  0  0  0  0  0  0  0
  153.5507  140.7343  161.2395 H   0  0  0  0  0  0  0  0  0  0  0  0
  151.3199  142.5437  155.5292 H   0  0  0  0  0  0  0  0  0  0  0  0
  1  2  1  0  0  0  0
  1 16  1  0  0  0  0
  1 17  1  0  0  0  0
  1 18  1  0  0  0  0
  2  3  1  0  0  0  0
  2  9  1  0  0  0  0
  2 19  1  0  0  0  0
  3  4  1  0  0  0  0
  3 20  1  0  0  0  0
  3 34  1  0  0  0  0
  4  5  1  0  0  0  0
  4 21  1  0  0  0  0
  4 22  1  0  0  0  0
  5  6  1  0  0  0  0
  5 23  1  0  0  0  0
  5 24  1  0  0  0  0
  6  7  1  0  0  0  0
  6  8  2  0  0  0  0
  7 25  1  0  0  0  0
  7 26  1  0  0  0  0
  9 10  1  0  0  0  0
  9 11  1  0  0  0  0
  9 27  1  0  0  0  0
 10 28  1  0  0  0  0
 10 29  1  0  0  0  0
 10 30  1  0  0  0  0
 11 15  1  0  0  0  0
 11 12  1  0  0  0  0
 12 13  2  0  0  0  0
 12 31  1  0  0  0  0
 13 14  1  0  0  0  0
 13 32  1  0  0  0  0
 14 15  2  0  0  0  0
 14 33  1  0  0  0  0
M  CHG  1   3   1
M  END
> <s_m_source_file>
AV-unprocessed.smi

> <i_m_source_file_index>
3105

> <i_lp_mmshare_version>
43012

> <i_f3d_flags>
0

> <s_epik_input>
W05IMl1DKD1PKVtDSDJdW0NIMl1bTkhdW0NAQEhdKFtDSDNdKVtDQEhdKFtDSDNdKW4xW2NIXVtjSF1bY0hdbjE=

> <s_epik_cmdline>
J2VwaWtfcHl0aG9uJywgJy1waCcsICc3LjAnLCAnLXRuJywgJzgnLCAnLW1hJywgJzIwMCcsICctbWV0YWxfYmluZGluZycsICctaW1hZScsICc8aW5maWxlLm1hZT4nLCAnLW9tYWUnLCAnPG91dGZpbGUubWFlPic=

> <r_lp_tautomer_probability>
1

> <r_epik_Ionization_Penalty>
0.00475669

> <r_epik_Ionization_Penalty_Charging>
0.00474654

> <r_epik_Ionization_Penalty_Neutral>
1.01546e-05

> <r_epik_State_Penalty>
-0

> <r_epik_Charging_Adjusted_Penalty>
0.00474654

> <i_epik_Tot_Q>
1

> <i_epik_Tot_abs_Q>
1

> <r_epik_Metal_State_Penalty>
-0

> <b_epik_Metal_Only>
0

> <s_lp_Force_Field>
OPLS_2005

> <r_lp_Energy>
4.89455

> <b_lp_Chiralities_Consistent>
1

> <s_lp_Variant>
AV-unprocessed.smi:3105-4

> <Gold.Version>
5.8.1

> <Gold.Id.Protein>
6NUR|6NUR_protein|mol2

> <Gold.PLP.Fitness>
46.3904

> <Gold.PLP.PLP>
-36.1426

> <Gold.PLP.part.hbond>
-3.0000

> <Gold.PLP.part.metal>
0.0000

> <Gold.PLP.part.buried>
-4.3803

> <Gold.PLP.part.nonpolar>
-28.8167

> <Gold.PLP.part.repulsive>
0.2980

> <Gold.PLP.ligand.clash>
0.0000

> <Gold.PLP.ligand.torsion>
0.5917

> <Gold.PLP.Chemscore.Hbond>
3.7680

> <Gold.PLP.Chemscore.CHOScore>
0.0000

> <Gold.PLP.Chemscore.Metal>
0.0000

> <Gold.Chemscore.Hbonds>
donor molecule, donor type, donor heavy atom, donor atom, acceptor molecule, acceptor atom, score
      L1  H     3    20       P1  8028  2.00
      L1  H     7    25       P1  7948  0.99
      L1  H     7    26       P1  7957  0.67

> <Gold.PLP.Chemscore.Internal.Correction>
0.1272

> <Gold.Rescore>
     Score         DG    S(hbond)    S(metal)    S(lipo)     H(rot)  DE(clash)    DE(int)     intcor
     16.51     -17.10       2.81        0.00      81.47       2.85       0.15       0.44       ----

> <Gold.Chemscore.Fitness>
16.5141

> <Gold.Chemscore.DG>
-17.1024

> <Gold.Chemscore.ZeroCoef>
-5.4800

> <Gold.Chemscore.Hbond>
2.8081

> <Gold.Chemscore.Metal>
0.0000

> <Gold.Chemscore.Lipo>
81.4750

> <Gold.Chemscore.Internal_Hbond>
0.0000

> <Gold.Chemscore.DEClash>
0.1461

> <Gold.Chemscore.DEInternal>
0.4422

> <Gold.Chemscore.Rot>
2.8473

> <Gold.Chemscore.Internal.Correction>
   9.000000E+99

> <Gold.Chemscore.Hbonds>
donor molecule, donor type, donor heavy atom, donor atom, acceptor molecule, acceptor atom, score
      L1  H     3    20       P1  8028  1.00
      L1  H     7    25       P1  7948  0.76
      L1  H     7    26       P1  7957  0.66

> <Gold.Chemscore.Hbond.Weighted>
-9.3791

> <Gold.Chemscore.Metal.Weighted>
-0.0000

> <Gold.Chemscore.Lipo.Weighted>
-9.5326

> <Gold.Chemscore.Internal_Hbond.Weighted>
0.0000

> <Gold.Chemscore.DEClash.Weighted>
0.1461

> <Gold.Chemscore.DEInternal.Weighted>
0.4422

> <Gold.Chemscore.Rot.Weighted>
7.2892

> <Gold.Chemscore.Internal.Correction.Weighted>
   9.000000E+99

> <Gold.Protein.RotatedTorsions>
[ 6907 6896 6895 6894 ] final -118.23 input  -60.11 | X-H torsion
[ 7974 7965 7964 7962 ] final   43.89 input  175.53 | X-H torsion
[ 8008 7997 7996 7995 ] final -151.44 input   59.86 | X-H torsion
[ 10167 10162 10161 10158 ] final -134.78 input  -65.29 | X-H torsion
[ 10718 10713 10712 10709 ] final  179.18 input   66.30 | X-H torsion
[ 10763 10752 10751 10750 ] final  -52.85 input  -60.55 | X-H torsion
[ 11005 11000 10999 10996 ] final  -57.27 input  -57.11 | X-H torsion

> <Gold.Protein.ActiveResidues>
 VAL166  LYS551  ARG553  GLY616  TRP617  ASP618  TYR619  PRO620  LYS621  CYS622 
 ASP623  PHE694  ASN695  SER759  ASP760  ASP761  ALA762  ILE779  LEU786  VAL792 
 PHE793  MET794  SER795  GLU796  ALA797  LYS798  CYS799  TRP800  GLU811  SER814 

> <Gold.Protein.RotatedAtoms>
  150.8203  133.8265  159.3141 H   0  0  0  0  0  0  0  0  0  0  0  0  # atno 6907 bound_to 6896
  151.6025  135.1044  160.0073 H   0  0  0  0  0  0  0  0  0  0  0  0  # atno 6908 bound_to 6896
  152.4292  133.7207  159.6588 H   0  0  0  0  0  0  0  0  0  0  0  0  # atno 6909 bound_to 6896
  146.0616  139.5136  142.9654 H   0  0  0  0  0  0  0  0  0  0  0  0  # atno 7974 bound_to 7965
  155.6394  140.0700  157.2623 H   0  0  0  0  0  0  0  0  0  0  0  0  # atno 8008 bound_to 7997
  154.4187  140.1753  156.1606 H   0  0  0  0  0  0  0  0  0  0  0  0  # atno 8009 bound_to 7997
  155.9868  140.3349  155.6718 H   0  0  0  0  0  0  0  0  0  0  0  0  # atno 8010 bound_to 7997
  139.8846  143.6797  152.2622 H   0  0  0  0  0  0  0  0  0  0  0  0  # atno 10167 bound_to 10162
  156.8796  130.9811  151.3063 H   0  0  0  0  0  0  0  0  0  0  0  0  # atno 10718 bound_to 10713
  154.1493  135.6492  153.4960 H   0  0  0  0  0  0  0  0  0  0  0  0  # atno 10763 bound_to 10752
  153.0142  135.5334  154.6824 H   0  0  0  0  0  0  0  0  0  0  0  0  # atno 10764 bound_to 10752
  154.6108  135.2953  155.0406 H   0  0  0  0  0  0  0  0  0  0  0  0  # atno 10765 bound_to 10752
  141.1157  133.6610  156.4745 H   0  0  0  0  0  0  0  0  0  0  0  0  # atno 11005 bound_to 11000
  145.6549  141.0254  143.1740 LP  0  0  0  0  0  0  0  0  0  0  0  0  # atno 17320 bound_to 7965
  144.7178  139.8134  143.7392 LP  0  0  0  0  0  0  0  0  0  0  0  0  # atno 17321 bound_to 7965
  139.7165  144.7611  151.1026 LP  0  0  0  0  0  0  0  0  0  0  0  0  # atno 17342 bound_to 10162
  140.7738  143.5263  150.9476 LP  0  0  0  0  0  0  0  0  0  0  0  0  # atno 17343 bound_to 10162
  157.6148  130.8610  149.9010 LP  0  0  0  0  0  0  0  0  0  0  0  0  # atno 17370 bound_to 10713
  156.0684  130.3689  150.0828 LP  0  0  0  0  0  0  0  0  0  0  0  0  # atno 17371 bound_to 10713
  140.4651  134.6805  157.5103 LP  0  0  0  0  0  0  0  0  0  0  0  0  # atno 17394 bound_to 11000
  140.0078  134.6736  155.9427 LP  0  0  0  0  0  0  0  0  0  0  0  0  # atno 17395 bound_to 11000

$$$$
