AV-unprocessed.smi:3337|AV-procd|sdf|12864|dock5
  -GOLD-   2272019263D 1   1.00000     0.00000
 Structure written by MMmdl.
 46 47  0  0  0  0  0  0  0  0  2 V2000
  145.5886  136.3778  151.7008 C   0  0  0  0  0  0  0  0  0  0  0  0
  145.2407  135.1076  152.4968 C   0  0  1  0  0  0  0  0  0  0  0  0
  144.9427  133.8961  151.5944 C   0  0  0  0  0  0  0  0  0  0  0  0
  146.2267  133.3229  150.9684 C   0  0  2  0  0  0  0  0  0  0  0  0
  145.9284  132.0745  150.1263 C   0  0  0  0  0  0  0  0  0  0  0  0
  147.2691  133.0260  152.0639 C   0  0  0  0  0  0  0  0  0  0  0  0
  147.5571  134.2319  152.8830 N   0  3  2  0  0  0  0  0  0  0  0  0
  148.6704  134.0055  153.8382 C   0  0  0  0  0  0  0  0  0  0  0  0
  148.7661  135.1113  154.9081 C   0  0  0  0  0  0  0  0  0  0  0  0
  149.4156  136.3070  154.3837 N   0  0  0  0  0  0  0  0  0  0  0  0
  150.4920  136.8960  154.9288 C   0  0  0  0  0  0  0  0  0  0  0  0
  151.0465  136.4689  155.9421 O   0  0  0  0  0  0  0  0  0  0  0  0
  151.0175  138.1543  154.2212 C   0  0  2  0  0  0  0  0  0  0  0  0
  152.4568  138.5066  154.6488 C   0  0  0  0  0  0  0  0  0  0  0  0
  150.0940  139.2647  154.4185 N   0  0  0  0  0  0  0  0  0  0  0  0
  148.7664  139.3093  154.2862 C   0  0  0  0  0  0  0  0  0  0  0  0
  148.2330  140.4834  154.5924 N   0  0  0  0  0  0  0  0  0  0  0  0
  149.3650  141.1640  154.9408 C   0  0  0  0  0  0  0  0  0  0  0  0
  150.5049  140.4773  154.8667 N   0  0  0  0  0  0  0  0  0  0  0  0
  146.3251  134.7541  153.5336 C   0  0  0  0  0  0  0  0  0  0  0  0
  146.5122  136.2657  151.1330 H   0  0  0  0  0  0  0  0  0  0  0  0
  145.7155  137.2320  152.3663 H   0  0  0  0  0  0  0  0  0  0  0  0
  144.7947  136.6281  150.9967 H   0  0  0  0  0  0  0  0  0  0  0  0
  144.3260  135.3330  153.0466 H   0  0  0  0  0  0  0  0  0  0  0  0
  144.4574  133.1215  152.1899 H   0  0  0  0  0  0  0  0  0  0  0  0
  144.2298  134.1719  150.8164 H   0  0  0  0  0  0  0  0  0  0  0  0
  146.6463  134.0717  150.2958 H   0  0  0  0  0  0  0  0  0  0  0  0
  145.5180  131.2704  150.7382 H   0  0  0  0  0  0  0  0  0  0  0  0
  146.8321  131.6989  149.6458 H   0  0  0  0  0  0  0  0  0  0  0  0
  145.2062  132.2958  149.3399 H   0  0  0  0  0  0  0  0  0  0  0  0
  146.9216  132.2213  152.7141 H   0  0  0  0  0  0  0  0  0  0  0  0
  148.1893  132.6775  151.5933 H   0  0  0  0  0  0  0  0  0  0  0  0
  148.5603  133.0204  154.2943 H   0  0  0  0  0  0  0  0  0  0  0  0
  149.6155  133.9863  153.2933 H   0  0  0  0  0  0  0  0  0  0  0  0
  147.7672  135.3880  155.2465 H   0  0  0  0  0  0  0  0  0  0  0  0
  149.3089  134.7728  155.7909 H   0  0  0  0  0  0  0  0  0  0  0  0
  149.0166  136.7197  153.5528 H   0  0  0  0  0  0  0  0  0  0  0  0
  151.0425  137.9478  153.1496 H   0  0  0  0  0  0  0  0  0  0  0  0
  153.1401  137.6821  154.4425 H   0  0  0  0  0  0  0  0  0  0  0  0
  152.5268  138.7333  155.7135 H   0  0  0  0  0  0  0  0  0  0  0  0
  152.8218  139.3765  154.1022 H   0  0  0  0  0  0  0  0  0  0  0  0
  148.1768  138.4643  153.9616 H   0  0  0  0  0  0  0  0  0  0  0  0
  149.3475  142.1941  155.2650 H   0  0  0  0  0  0  0  0  0  0  0  0
  146.5471  135.6359  154.1332 H   0  0  0  0  0  0  0  0  0  0  0  0
  145.9424  134.0012  154.2247 H   0  0  0  0  0  0  0  0  0  0  0  0
  147.8734  134.9413  152.2374 H   0  0  0  0  0  0  0  0  0  0  0  0
  1  2  1  0  0  0  0
  1 21  1  0  0  0  0
  1 22  1  0  0  0  0
  1 23  1  0  0  0  0
  2 20  1  0  0  0  0
  2  3  1  0  0  0  0
  2 24  1  0  0  0  0
  3  4  1  0  0  0  0
  3 25  1  0  0  0  0
  3 26  1  0  0  0  0
  4  5  1  0  0  0  0
  4  6  1  0  0  0  0
  4 27  1  0  0  0  0
  5 28  1  0  0  0  0
  5 29  1  0  0  0  0
  5 30  1  0  0  0  0
  6  7  1  0  0  0  0
  6 31  1  0  0  0  0
  6 32  1  0  0  0  0
  7  8  1  0  0  0  0
  7 20  1  0  0  0  0
  7 46  1  0  0  0  0
  8  9  1  0  0  0  0
  8 33  1  0  0  0  0
  8 34  1  0  0  0  0
  9 10  1  0  0  0  0
  9 35  1  0  0  0  0
  9 36  1  0  0  0  0
 10 11  1  0  0  0  0
 10 37  1  0  0  0  0
 11 12  2  0  0  0  0
 11 13  1  0  0  0  0
 13 14  1  0  0  0  0
 13 15  1  0  0  0  0
 13 38  1  0  0  0  0
 14 39  1  0  0  0  0
 14 40  1  0  0  0  0
 14 41  1  0  0  0  0
 15 19  1  0  0  0  0
 15 16  1  0  0  0  0
 16 17  2  0  0  0  0
 16 42  1  0  0  0  0
 17 18  1  0  0  0  0
 18 19  2  0  0  0  0
 18 43  1  0  0  0  0
 20 44  1  0  0  0  0
 20 45  1  0  0  0  0
M  CHG  1   7   1
M  END
> <s_m_source_file>
AV-unprocessed.smi

> <i_m_source_file_index>
3337

> <i_lp_mmshare_version>
43012

> <i_f3d_flags>
0

> <s_epik_input>
W0NIM11bQ0BASF0xW0NIMl1bQ0BASF0oW0NIM10pW0NIMl1OKFtDSDJdMSlbQ0gyXVtDSDJdW05IXUMoPU8pW0NASF0oW0NIM10pbjJbY0hdbltjSF1uMg==

> <s_epik_cmdline>
J2VwaWtfcHl0aG9uJywgJy1waCcsICc3LjAnLCAnLXRuJywgJzgnLCAnLW1hJywgJzIwMCcsICctbWV0YWxfYmluZGluZycsICctaW1hZScsICc8aW5maWxlLm1hZT4nLCAnLW9tYWUnLCAnPG91dGZpbGUubWFlPic=

> <r_lp_tautomer_probability>
1

> <r_epik_Ionization_Penalty>
0.00175613

> <r_epik_Ionization_Penalty_Charging>
0.00174812

> <r_epik_Ionization_Penalty_Neutral>
8.01354e-06

> <r_epik_State_Penalty>
0.00118332

> <r_epik_Charging_Adjusted_Penalty>
0.00293143

> <i_epik_Tot_Q>
1

> <i_epik_Tot_abs_Q>
1

> <r_epik_Metal_State_Penalty>
-0

> <b_epik_Metal_Only>
0

> <s_lp_Force_Field>
OPLS_2005

> <r_lp_Energy>
24.6468

> <b_lp_Chiralities_Consistent>
1

> <s_lp_Variant>
AV-unprocessed.smi:3337-4

> <Gold.Version>
5.8.1

> <Gold.Id.Protein>
6NUR|6NUR_protein|mol2

> <Gold.PLP.Fitness>
48.9665

> <Gold.PLP.PLP>
-36.4624

> <Gold.PLP.part.hbond>
-3.0000

> <Gold.PLP.part.metal>
0.0000

> <Gold.PLP.part.buried>
-3.0874

> <Gold.PLP.part.nonpolar>
-30.4173

> <Gold.PLP.part.repulsive>
0.2538

> <Gold.PLP.ligand.clash>
0.0000

> <Gold.PLP.ligand.torsion>
0.7169

> <Gold.PLP.Chemscore.Hbond>
3.7360

> <Gold.PLP.Chemscore.CHOScore>
0.8660

> <Gold.PLP.Chemscore.Metal>
0.0000

> <Gold.Chemscore.Hbonds>
donor molecule, donor type, donor heavy atom, donor atom, acceptor molecule, acceptor atom, score
      L1  H     7    46       P1  7948  2.00
      L1  H    10    37       P1  7948  0.66
      P1  H  7989  7998       L1    19  0.90
      L1  C    18    43       P1  8028  0.85

> <Gold.PLP.Chemscore.Internal.Correction>
0.1317

> <Gold.Rescore>
     Score         DG    S(hbond)    S(metal)    S(lipo)     H(rot)  DE(clash)    DE(int)     intcor
     12.49     -13.55       2.04        0.00      65.73       2.51       0.28       0.78       ----

> <Gold.Chemscore.Fitness>
12.4875

> <Gold.Chemscore.DG>
-13.5491

> <Gold.Chemscore.ZeroCoef>
-5.4800

> <Gold.Chemscore.Hbond>
2.0396

> <Gold.Chemscore.Metal>
0.0000

> <Gold.Chemscore.Lipo>
65.7261

> <Gold.Chemscore.Internal_Hbond>
0.0000

> <Gold.Chemscore.DEClash>
0.2831

> <Gold.Chemscore.DEInternal>
0.7784

> <Gold.Chemscore.Rot>
2.5129

> <Gold.Chemscore.Internal.Correction>
   9.000000E+99

> <Gold.Chemscore.Hbonds>
donor molecule, donor type, donor heavy atom, donor atom, acceptor molecule, acceptor atom, score
      L1  H     7    46       P1  7948  0.74
      L1  H    10    37       P1  7948  0.66
      P1  H  7989  7998       L1    19  0.16
      P1  H 10752 10765       L1    12  0.01

> <Gold.Chemscore.Hbond.Weighted>
-6.8122

> <Gold.Chemscore.Metal.Weighted>
-0.0000

> <Gold.Chemscore.Lipo.Weighted>
-7.6900

> <Gold.Chemscore.Internal_Hbond.Weighted>
0.0000

> <Gold.Chemscore.DEClash.Weighted>
0.2831

> <Gold.Chemscore.DEInternal.Weighted>
0.7784

> <Gold.Chemscore.Rot.Weighted>
6.4331

> <Gold.Chemscore.Internal.Correction.Weighted>
   9.000000E+99

> <Gold.Protein.RotatedTorsions>
[ 6907 6896 6895 6894 ] final   37.24 input  -60.11 | X-H torsion
[ 7974 7965 7964 7962 ] final  172.71 input  175.53 | X-H torsion
[ 8008 7997 7996 7995 ] final   28.43 input   59.86 | X-H torsion
[ 10167 10162 10161 10158 ] final   94.62 input  -65.29 | X-H torsion
[ 10718 10713 10712 10709 ] final  103.64 input   66.30 | X-H torsion
[ 10763 10752 10751 10750 ] final -171.18 input  -60.55 | X-H torsion
[ 11005 11000 10999 10996 ] final -172.10 input  -57.11 | X-H torsion

> <Gold.Protein.ActiveResidues>
 VAL166  LYS551  ARG553  GLY616  TRP617  ASP618  TYR619  PRO620  LYS621  CYS622 
 ASP623  PHE694  ASN695  SER759  ASP760  ASP761  ALA762  ILE779  LEU786  VAL792 
 PHE793  MET794  SER795  GLU796  ALA797  LYS798  CYS799  TRP800  GLU811  SER814 

> <Gold.Protein.RotatedAtoms>
  152.1405  134.9066  160.0553 H   0  0  0  0  0  0  0  0  0  0  0  0  # atno 6907 bound_to 6896
  152.0135  133.3866  159.4237 H   0  0  0  0  0  0  0  0  0  0  0  0  # atno 6908 bound_to 6896
  150.6865  134.3625  159.5000 H   0  0  0  0  0  0  0  0  0  0  0  0  # atno 6909 bound_to 6896
  144.7261  139.9539  143.6433 H   0  0  0  0  0  0  0  0  0  0  0  0  # atno 7974 bound_to 7965
  155.0586  140.3187  155.4668 H   0  0  0  0  0  0  0  0  0  0  0  0  # atno 8008 bound_to 7997
  156.2818  140.2133  156.5657 H   0  0  0  0  0  0  0  0  0  0  0  0  # atno 8009 bound_to 7997
  154.7151  140.0494  157.0574 H   0  0  0  0  0  0  0  0  0  0  0  0  # atno 8010 bound_to 7997
  139.8067  144.6791  150.9694 H   0  0  0  0  0  0  0  0  0  0  0  0  # atno 10167 bound_to 10162
  157.6766  131.0784  150.5586 H   0  0  0  0  0  0  0  0  0  0  0  0  # atno 10718 bound_to 10713
  154.6334  135.2889  155.0190 H   0  0  0  0  0  0  0  0  0  0  0  0  # atno 10763 bound_to 10752
  154.1342  135.6528  153.4932 H   0  0  0  0  0  0  0  0  0  0  0  0  # atno 10764 bound_to 10752
  153.0290  135.5317  154.7170 H   0  0  0  0  0  0  0  0  0  0  0  0  # atno 10765 bound_to 10752
  140.5008  134.5895  157.4987 H   0  0  0  0  0  0  0  0  0  0  0  0  # atno 11005 bound_to 11000
  146.0690  139.3679  143.0535 LP  0  0  0  0  0  0  0  0  0  0  0  0  # atno 17320 bound_to 7965
  145.7993  140.9778  143.1007 LP  0  0  0  0  0  0  0  0  0  0  0  0  # atno 17321 bound_to 7965
  140.7819  143.4227  151.0817 LP  0  0  0  0  0  0  0  0  0  0  0  0  # atno 17342 bound_to 10162
  139.7896  143.8238  152.3150 LP  0  0  0  0  0  0  0  0  0  0  0  0  # atno 17343 bound_to 10162
  156.5889  130.4324  149.5945 LP  0  0  0  0  0  0  0  0  0  0  0  0  # atno 17370 bound_to 10713
  156.2600  130.6957  151.1722 LP  0  0  0  0  0  0  0  0  0  0  0  0  # atno 17371 bound_to 10713
  139.9714  134.7286  156.0033 LP  0  0  0  0  0  0  0  0  0  0  0  0  # atno 17394 bound_to 11000
  141.1436  133.6560  156.3803 LP  0  0  0  0  0  0  0  0  0  0  0  0  # atno 17395 bound_to 11000

$$$$
