AV-unprocessed.smi:809|AV-procd|sdf|3805|dock9
  -GOLD-   22720 1243D 1   1.00000     0.00000
 Structure written by MMmdl.
 40 41  0  0  0  0  0  0  0  0  2 V2000
  152.3399  144.3631  159.8028 C   0  0  0  0  0  0  0  0  0  0  0  0
  151.9608  143.2508  158.8763 C   0  0  0  0  0  0  0  0  0  0  0  0
  152.5492  142.0127  158.7871 C   0  0  0  0  0  0  0  0  0  0  0  0
  151.7922  141.0147  157.5746 S   0  0  0  0  0  0  0  0  0  0  0  0
  150.6901  142.3383  157.2298 C   0  0  0  0  0  0  0  0  0  0  0  0
  149.6740  142.2310  156.2446 N   0  0  0  0  0  0  0  0  0  0  0  0
  149.6052  141.3725  155.2125 C   0  0  0  0  0  0  0  0  0  0  0  0
  150.4254  140.4880  154.9661 O   0  0  0  0  0  0  0  0  0  0  0  0
  148.5150  141.6002  154.4664 N   0  0  0  0  0  0  0  0  0  0  0  0
  148.1556  140.8676  153.2546 C   0  0  0  0  0  0  0  0  0  0  0  0
  147.2250  139.6536  153.5142 C   0  0  1  0  0  0  0  0  0  0  0  0
  146.0564  140.1497  154.1425 O   0  0  0  0  0  0  0  0  0  0  0  0
  146.7902  139.0313  152.1685 C   0  0  0  0  0  0  0  0  0  0  0  0
  145.9468  137.7553  152.3437 C   0  0  0  0  0  0  0  0  0  0  0  0
  146.6617  136.7558  153.1729 N   0  3  2  0  0  0  0  0  0  0  0  0
  145.9386  135.4682  153.2501 C   0  0  0  0  0  0  0  0  0  0  0  0
  147.0017  137.2943  154.5119 C   0  0  0  0  0  0  0  0  0  0  0  0
  147.8704  138.5610  154.4002 C   0  0  0  0  0  0  0  0  0  0  0  0
  150.8999  143.4241  157.9829 N   0  0  0  0  0  0  0  0  0  0  0  0
  153.2802  144.1541  160.3134 H   0  0  0  0  0  0  0  0  0  0  0  0
  151.5762  144.5149  160.5658 H   0  0  0  0  0  0  0  0  0  0  0  0
  152.4607  145.3027  159.2632 H   0  0  0  0  0  0  0  0  0  0  0  0
  153.3792  141.6277  159.3608 H   0  0  0  0  0  0  0  0  0  0  0  0
  148.9175  142.8936  156.3298 H   0  0  0  0  0  0  0  0  0  0  0  0
  147.8923  142.3422  154.7501 H   0  0  0  0  0  0  0  0  0  0  0  0
  147.7333  141.5363  152.5019 H   0  0  0  0  0  0  0  0  0  0  0  0
  149.0983  140.5137  152.8363 H   0  0  0  0  0  0  0  0  0  0  0  0
  145.3367  140.1098  153.5322 H   0  0  0  0  0  0  0  0  0  0  0  0
  146.2374  139.7605  151.5741 H   0  0  0  0  0  0  0  0  0  0  0  0
  147.6764  138.7787  151.5846 H   0  0  0  0  0  0  0  0  0  0  0  0
  144.9845  137.9921  152.8007 H   0  0  0  0  0  0  0  0  0  0  0  0
  145.7318  137.3280  151.3635 H   0  0  0  0  0  0  0  0  0  0  0  0
  144.9746  135.5889  153.7461 H   0  0  0  0  0  0  0  0  0  0  0  0
  146.5201  134.7320  153.8060 H   0  0  0  0  0  0  0  0  0  0  0  0
  145.7618  135.0655  152.2523 H   0  0  0  0  0  0  0  0  0  0  0  0
  146.0853  137.5101  155.0637 H   0  0  0  0  0  0  0  0  0  0  0  0
  147.5405  136.5374  155.0829 H   0  0  0  0  0  0  0  0  0  0  0  0
  148.8403  138.2875  153.9822 H   0  0  0  0  0  0  0  0  0  0  0  0
  148.0678  138.9439  155.4023 H   0  0  0  0  0  0  0  0  0  0  0  0
  147.5371  136.5647  152.7063 H   0  0  0  0  0  0  0  0  0  0  0  0
  1  2  1  0  0  0  0
  1 20  1  0  0  0  0
  1 21  1  0  0  0  0
  1 22  1  0  0  0  0
  2 19  1  0  0  0  0
  2  3  2  0  0  0  0
  3  4  1  0  0  0  0
  3 23  1  0  0  0  0
  4  5  1  0  0  0  0
  5  6  1  0  0  0  0
  5 19  2  0  0  0  0
  6  7  1  0  0  0  0
  6 24  1  0  0  0  0
  7  8  2  0  0  0  0
  7  9  1  0  0  0  0
  9 10  1  0  0  0  0
  9 25  1  0  0  0  0
 10 11  1  0  0  0  0
 10 26  1  0  0  0  0
 10 27  1  0  0  0  0
 11 18  1  0  0  0  0
 11 12  1  0  0  0  0
 11 13  1  0  0  0  0
 12 28  1  0  0  0  0
 13 14  1  0  0  0  0
 13 29  1  0  0  0  0
 13 30  1  0  0  0  0
 14 15  1  0  0  0  0
 14 31  1  0  0  0  0
 14 32  1  0  0  0  0
 15 16  1  0  0  0  0
 15 17  1  0  0  0  0
 15 40  1  0  0  0  0
 16 33  1  0  0  0  0
 16 34  1  0  0  0  0
 16 35  1  0  0  0  0
 17 18  1  0  0  0  0
 17 36  1  0  0  0  0
 17 37  1  0  0  0  0
 18 38  1  0  0  0  0
 18 39  1  0  0  0  0
M  CHG  1  15   1
M  END
> <s_m_source_file>
AV-unprocessed.smi

> <i_m_source_file_index>
809

> <i_lp_mmshare_version>
43012

> <i_f3d_flags>
0

> <s_epik_input>
W0NIM11jMVtjSF1zYyhuMSlbTkhdQyg9TylbTkhdW0NIMl1DMihbT0hdKVtDSDJdW0NIMl1OKFtDSDNdKVtDSDJdW0NIMl0y

> <s_epik_cmdline>
J2VwaWtfcHl0aG9uJywgJy1waCcsICc3LjAnLCAnLXRuJywgJzgnLCAnLW1hJywgJzIwMCcsICctbWV0YWxfYmluZGluZycsICctaW1hZScsICc8aW5maWxlLm1hZT4nLCAnLW9tYWUnLCAnPG91dGZpbGUubWFlPic=

> <r_lp_tautomer_probability>
0.999

> <r_epik_Ionization_Penalty>
0.00116503

> <r_epik_Ionization_Penalty_Charging>
0.000767707

> <r_epik_Ionization_Penalty_Neutral>
0.00039732

> <r_epik_State_Penalty>
0.000177984

> <r_epik_Charging_Adjusted_Penalty>
0.00094569

> <i_epik_Tot_Q>
1

> <i_epik_Tot_abs_Q>
1

> <r_epik_Metal_State_Penalty>
0.00775393

> <b_epik_Metal_Only>
0

> <s_lp_Force_Field>
OPLS_2005

> <r_lp_Energy>
16.8218

> <b_lp_Chiralities_Consistent>
1

> <s_lp_Variant>
AV-unprocessed.smi:809-1

> <Gold.Version>
5.8.1

> <Gold.Id.Protein>
6NUR|6NUR_protein|mol2

> <Gold.PLP.Fitness>
45.7790

> <Gold.PLP.PLP>
-32.6645

> <Gold.PLP.part.hbond>
-4.0000

> <Gold.PLP.part.metal>
0.0000

> <Gold.PLP.part.buried>
-1.6772

> <Gold.PLP.part.nonpolar>
-28.1907

> <Gold.PLP.part.repulsive>
0.5104

> <Gold.PLP.ligand.clash>
0.0000

> <Gold.PLP.ligand.torsion>
0.2850

> <Gold.PLP.Chemscore.Hbond>
4.5600

> <Gold.PLP.Chemscore.CHOScore>
0.0000

> <Gold.PLP.Chemscore.Metal>
0.0000

> <Gold.Chemscore.Hbonds>
donor molecule, donor type, donor heavy atom, donor atom, acceptor molecule, acceptor atom, score
      L1  H     6    24       P1  8028  0.54
      L1  H    12    28       P1 10175  1.00
      L1  H    15    40       P1  7948  2.00
      P1  H  7989  7998       L1     8  1.00

> <Gold.PLP.Chemscore.Internal.Correction>
0.0045

> <Gold.Rescore>
     Score         DG    S(hbond)    S(metal)    S(lipo)     H(rot)  DE(clash)    DE(int)     intcor
     19.04     -21.83       3.48        0.00      80.94       1.85       1.47       1.33       ----

> <Gold.Chemscore.Fitness>
19.0381

> <Gold.Chemscore.DG>
-21.8348

> <Gold.Chemscore.ZeroCoef>
-5.4800

> <Gold.Chemscore.Hbond>
3.4772

> <Gold.Chemscore.Metal>
0.0000

> <Gold.Chemscore.Lipo>
80.9365

> <Gold.Chemscore.Internal_Hbond>
0.0000

> <Gold.Chemscore.DEClash>
1.4701

> <Gold.Chemscore.DEInternal>
1.3266

> <Gold.Chemscore.Rot>
1.8471

> <Gold.Chemscore.Internal.Correction>
   9.000000E+99

> <Gold.Chemscore.Hbonds>
donor molecule, donor type, donor heavy atom, donor atom, acceptor molecule, acceptor atom, score
      L1  H     6    24       P1  8028  0.53
      L1  H    12    28       P1 10175  0.97
      L1  H    15    40       P1  7948  1.00
      P1  H  7989  7998       L1     8  0.83

> <Gold.Chemscore.Hbond.Weighted>
-11.6138

> <Gold.Chemscore.Metal.Weighted>
-0.0000

> <Gold.Chemscore.Lipo.Weighted>
-9.4696

> <Gold.Chemscore.Internal_Hbond.Weighted>
0.0000

> <Gold.Chemscore.DEClash.Weighted>
1.4701

> <Gold.Chemscore.DEInternal.Weighted>
1.3266

> <Gold.Chemscore.Rot.Weighted>
4.7286

> <Gold.Chemscore.Internal.Correction.Weighted>
   9.000000E+99

> <Gold.Protein.RotatedTorsions>
[ 6907 6896 6895 6894 ] final  105.02 input  -60.11 | X-H torsion
[ 7974 7965 7964 7962 ] final -166.94 input  175.53 | X-H torsion
[ 8008 7997 7996 7995 ] final   75.47 input   59.86 | X-H torsion
[ 10167 10162 10161 10158 ] final   55.42 input  -65.29 | X-H torsion
[ 10718 10713 10712 10709 ] final   23.69 input   66.30 | X-H torsion
[ 10763 10752 10751 10750 ] final  171.99 input  -60.55 | X-H torsion
[ 11005 11000 10999 10996 ] final  109.59 input  -57.11 | X-H torsion

> <Gold.Protein.ActiveResidues>
 VAL166  LYS551  ARG553  GLY616  TRP617  ASP618  TYR619  PRO620  LYS621  CYS622 
 ASP623  PHE694  ASN695  SER759  ASP760  ASP761  ALA762  ILE779  LEU786  VAL792 
 PHE793  MET794  SER795  GLU796  ALA797  LYS798  CYS799  TRP800  GLU811  SER814 

> <Gold.Protein.RotatedAtoms>
  152.5245  133.9590  159.7707 H   0  0  0  0  0  0  0  0  0  0  0  0  # atno 6907 bound_to 6896
  150.9885  133.6165  159.2719 H   0  0  0  0  0  0  0  0  0  0  0  0  # atno 6908 bound_to 6896
  151.3317  135.0849  159.9394 H   0  0  0  0  0  0  0  0  0  0  0  0  # atno 6909 bound_to 6896
  144.7234  140.2593  143.6267 H   0  0  0  0  0  0  0  0  0  0  0  0  # atno 7974 bound_to 7965
  155.8134  140.3472  155.5471 H   0  0  0  0  0  0  0  0  0  0  0  0  # atno 8008 bound_to 7997
  155.8417  140.0942  157.1750 H   0  0  0  0  0  0  0  0  0  0  0  0  # atno 8009 bound_to 7997
  154.4005  140.1393  156.3725 H   0  0  0  0  0  0  0  0  0  0  0  0  # atno 8010 bound_to 7997
  140.2197  144.3802  150.6455 H   0  0  0  0  0  0  0  0  0  0  0  0  # atno 10167 bound_to 10162
  157.1696  130.6753  149.6073 H   0  0  0  0  0  0  0  0  0  0  0  0  # atno 10718 bound_to 10713
  154.4197  135.2757  155.1984 H   0  0  0  0  0  0  0  0  0  0  0  0  # atno 10763 bound_to 10752
  154.3935  135.6061  153.5860 H   0  0  0  0  0  0  0  0  0  0  0  0  # atno 10764 bound_to 10752
  152.9833  135.5909  154.4491 H   0  0  0  0  0  0  0  0  0  0  0  0  # atno 10765 bound_to 10752
  139.8865  134.9462  156.6148 H   0  0  0  0  0  0  0  0  0  0  0  0  # atno 11005 bound_to 11000
  145.8152  139.2020  143.1970 LP  0  0  0  0  0  0  0  0  0  0  0  0  # atno 17320 bound_to 7965
  146.0562  140.8018  142.9757 LP  0  0  0  0  0  0  0  0  0  0  0  0  # atno 17321 bound_to 7965
  140.6264  143.2182  151.6588 LP  0  0  0  0  0  0  0  0  0  0  0  0  # atno 17342 bound_to 10162
  139.5149  144.3396  152.0752 LP  0  0  0  0  0  0  0  0  0  0  0  0  # atno 17343 bound_to 10162
  155.9740  130.4684  150.6357 LP  0  0  0  0  0  0  0  0  0  0  0  0  # atno 17370 bound_to 10713
  157.4056  131.0816  151.1268 LP  0  0  0  0  0  0  0  0  0  0  0  0  # atno 17371 bound_to 10713
  140.7784  133.8680  155.8547 LP  0  0  0  0  0  0  0  0  0  0  0  0  # atno 17394 bound_to 11000
  140.9782  134.1441  157.4518 LP  0  0  0  0  0  0  0  0  0  0  0  0  # atno 17395 bound_to 11000

$$$$
