AV-unprocessed.smi:3073|AV-procd|sdf|11719|dock5
  -GOLD-   2272017123D 1   1.00000     0.00000
 Structure written by MMmdl.
 24 25  0  0  0  0  0  0  0  0  2 V2000
  154.4845  140.3386  160.7139 C   0  0  0  0  0  0  0  0  0  0  0  0
  153.6368  139.4833  160.0576 C   0  0  0  0  0  0  0  0  0  0  0  0
  152.4816  140.3442  159.0778 S   0  0  0  0  0  0  0  0  0  0  0  0
  153.2060  141.8596  159.6071 C   0  0  0  0  0  0  0  0  0  0  0  0
  152.7189  143.2011  159.1578 C   0  0  2  0  0  0  0  0  0  0  0  0
  152.3267  144.1113  160.3366 C   0  0  0  0  0  0  0  0  0  0  0  0
  151.8353  145.4735  159.8234 C   0  0  0  0  0  0  0  0  0  0  0  0
  150.7052  145.2989  158.7949 C   0  0  0  0  0  0  0  0  0  0  0  0
  151.1452  144.4380  157.6755 N   0  3  0  0  0  0  0  0  0  0  0  0
  151.5877  143.0961  158.1150 C   0  0  0  0  0  0  0  0  0  0  0  0
  154.2292  141.6864  160.4498 N   0  0  0  0  0  0  0  0  0  0  0  0
  155.2907  140.0769  161.3834 H   0  0  0  0  0  0  0  0  0  0  0  0
  153.6223  138.4038  160.0906 H   0  0  0  0  0  0  0  0  0  0  0  0
  153.5637  143.6792  158.6591 H   0  0  0  0  0  0  0  0  0  0  0  0
  151.5375  143.6398  160.9241 H   0  0  0  0  0  0  0  0  0  0  0  0
  153.1753  144.2494  161.0079 H   0  0  0  0  0  0  0  0  0  0  0  0
  151.4894  146.0837  160.6584 H   0  0  0  0  0  0  0  0  0  0  0  0
  152.6655  146.0152  159.3678 H   0  0  0  0  0  0  0  0  0  0  0  0
  149.8268  144.8561  159.2664 H   0  0  0  0  0  0  0  0  0  0  0  0
  150.4006  146.2679  158.3991 H   0  0  0  0  0  0  0  0  0  0  0  0
  150.3819  144.3331  157.0223 H   0  0  0  0  0  0  0  0  0  0  0  0
  151.9236  142.5334  157.2437 H   0  0  0  0  0  0  0  0  0  0  0  0
  150.7325  142.5610  158.5301 H   0  0  0  0  0  0  0  0  0  0  0  0
  151.9153  144.8923  157.2055 H   0  0  0  0  0  0  0  0  0  0  0  0
  1 11  1  0  0  0  0
  1  2  2  0  0  0  0
  1 12  1  0  0  0  0
  2  3  1  0  0  0  0
  2 13  1  0  0  0  0
  3  4  1  0  0  0  0
  4  5  1  0  0  0  0
  4 11  2  0  0  0  0
  5 10  1  0  0  0  0
  5  6  1  0  0  0  0
  5 14  1  0  0  0  0
  6  7  1  0  0  0  0
  6 15  1  0  0  0  0
  6 16  1  0  0  0  0
  7  8  1  0  0  0  0
  7 17  1  0  0  0  0
  7 18  1  0  0  0  0
  8  9  1  0  0  0  0
  8 19  1  0  0  0  0
  8 20  1  0  0  0  0
  9 10  1  0  0  0  0
  9 21  1  0  0  0  0
  9 24  1  0  0  0  0
 10 22  1  0  0  0  0
 10 23  1  0  0  0  0
M  CHG  1   9   1
M  END
> <s_m_source_file>
AV-unprocessed.smi

> <i_m_source_file_index>
3073

> <i_lp_mmshare_version>
43012

> <i_f3d_flags>
0

> <s_epik_input>
bjFbY0hdW2NIXXNjMVtDQEBIXTJbQ0gyXVtDSDJdW0NIMl1bTkhdW0NIMl0y

> <s_epik_cmdline>
J2VwaWtfcHl0aG9uJywgJy1waCcsICc3LjAnLCAnLXRuJywgJzgnLCAnLW1hJywgJzIwMCcsICctbWV0YWxfYmluZGluZycsICctaW1hZScsICc8aW5maWxlLm1hZT4nLCAnLW9tYWUnLCAnPG91dGZpbGUubWFlPic=

> <r_lp_tautomer_probability>
1

> <r_epik_Ionization_Penalty>
0.00043192

> <r_epik_Ionization_Penalty_Charging>
0.000426856

> <r_epik_Ionization_Penalty_Neutral>
5.06388e-06

> <r_epik_State_Penalty>
-0

> <r_epik_Charging_Adjusted_Penalty>
0.000426856

> <i_epik_Tot_Q>
1

> <i_epik_Tot_abs_Q>
1

> <r_epik_Metal_State_Penalty>
-0

> <b_epik_Metal_Only>
0

> <s_lp_Force_Field>
OPLS_2005

> <r_lp_Energy>
4.76757

> <b_lp_Chiralities_Consistent>
1

> <s_lp_Variant>
AV-unprocessed.smi:3073-1

> <Gold.Version>
5.8.1

> <Gold.Id.Protein>
6NUR|6NUR_protein|mol2

> <Gold.PLP.Fitness>
34.9601

> <Gold.PLP.PLP>
-28.9603

> <Gold.PLP.part.hbond>
-1.0000

> <Gold.PLP.part.metal>
0.0000

> <Gold.PLP.part.buried>
-3.4364

> <Gold.PLP.part.nonpolar>
-24.2800

> <Gold.PLP.part.repulsive>
0.0535

> <Gold.PLP.ligand.clash>
0.0000

> <Gold.PLP.ligand.torsion>
0.0267

> <Gold.PLP.Chemscore.Hbond>
2.0000

> <Gold.PLP.Chemscore.CHOScore>
0.0000

> <Gold.PLP.Chemscore.Metal>
0.0000

> <Gold.Chemscore.Hbonds>
donor molecule, donor type, donor heavy atom, donor atom, acceptor molecule, acceptor atom, score
      L1  H     9    21       P1  8028  1.98

> <Gold.PLP.Chemscore.Internal.Correction>
0.0531

> <Gold.Rescore>
     Score         DG    S(hbond)    S(metal)    S(lipo)     H(rot)  DE(clash)    DE(int)     intcor
     16.48     -16.52       0.92        0.00      89.91       1.00       0.01       0.03       ----

> <Gold.Chemscore.Fitness>
16.4811

> <Gold.Chemscore.DG>
-16.5231

> <Gold.Chemscore.ZeroCoef>
-5.4800

> <Gold.Chemscore.Hbond>
0.9232

> <Gold.Chemscore.Metal>
0.0000

> <Gold.Chemscore.Lipo>
89.9104

> <Gold.Chemscore.Internal_Hbond>
0.0000

> <Gold.Chemscore.DEClash>
0.0149

> <Gold.Chemscore.DEInternal>
0.0272

> <Gold.Chemscore.Rot>
1.0000

> <Gold.Chemscore.Internal.Correction>
   9.000000E+99

> <Gold.Chemscore.Hbonds>
donor molecule, donor type, donor heavy atom, donor atom, acceptor molecule, acceptor atom, score
      L1  H     9    21       P1  8028  0.82

> <Gold.Chemscore.Hbond.Weighted>
-3.0836

> <Gold.Chemscore.Metal.Weighted>
-0.0000

> <Gold.Chemscore.Lipo.Weighted>
-10.5195

> <Gold.Chemscore.Internal_Hbond.Weighted>
0.0000

> <Gold.Chemscore.DEClash.Weighted>
0.0149

> <Gold.Chemscore.DEInternal.Weighted>
0.0272

> <Gold.Chemscore.Rot.Weighted>
2.5600

> <Gold.Chemscore.Internal.Correction.Weighted>
   9.000000E+99

> <Gold.Protein.RotatedTorsions>
[ 6907 6896 6895 6894 ] final  -29.68 input  -60.11 | X-H torsion
[ 7974 7965 7964 7962 ] final  -46.85 input  175.53 | X-H torsion
[ 8008 7997 7996 7995 ] final   43.48 input   59.86 | X-H torsion
[ 10167 10162 10161 10158 ] final -177.11 input  -65.29 | X-H torsion
[ 10718 10713 10712 10709 ] final   40.39 input   66.30 | X-H torsion
[ 10763 10752 10751 10750 ] final -162.09 input  -60.55 | X-H torsion
[ 11005 11000 10999 10996 ] final  -35.08 input  -57.11 | X-H torsion

> <Gold.Protein.ActiveResidues>
 VAL166  LYS551  ARG553  GLY616  TRP617  ASP618  TYR619  PRO620  LYS621  CYS622 
 ASP623  PHE694  ASN695  SER759  ASP760  ASP761  ALA762  ILE779  LEU786  VAL792 
 PHE793  MET794  SER795  GLU796  ALA797  LYS798  CYS799  TRP800  GLU811  SER814 

> <Gold.Protein.RotatedAtoms>
  151.1158  135.0052  159.8515 H   0  0  0  0  0  0  0  0  0  0  0  0  # atno 6907 bound_to 6896
  152.5445  134.1781  159.8634 H   0  0  0  0  0  0  0  0  0  0  0  0  # atno 6908 bound_to 6896
  151.1835  133.4666  159.2627 H   0  0  0  0  0  0  0  0  0  0  0  0  # atno 6909 bound_to 6896
  145.9677  140.7415  142.9426 H   0  0  0  0  0  0  0  0  0  0  0  0  # atno 7974 bound_to 7965
  155.3034  140.3386  155.4247 H   0  0  0  0  0  0  0  0  0  0  0  0  # atno 8008 bound_to 7997
  156.1990  140.1726  156.7976 H   0  0  0  0  0  0  0  0  0  0  0  0  # atno 8009 bound_to 7997
  154.5535  140.0701  156.8691 H   0  0  0  0  0  0  0  0  0  0  0  0  # atno 8010 bound_to 7997
  139.5496  144.2143  152.1053 H   0  0  0  0  0  0  0  0  0  0  0  0  # atno 10167 bound_to 10162
  157.3815  130.7756  149.7197 H   0  0  0  0  0  0  0  0  0  0  0  0  # atno 10718 bound_to 10713
  154.7245  135.3033  154.8993 H   0  0  0  0  0  0  0  0  0  0  0  0  # atno 10763 bound_to 10752
  153.9854  135.6725  153.4756 H   0  0  0  0  0  0  0  0  0  0  0  0  # atno 10764 bound_to 10752
  153.0863  135.4982  154.8522 H   0  0  0  0  0  0  0  0  0  0  0  0  # atno 10765 bound_to 10752
  140.9768  133.7079  156.1615 H   0  0  0  0  0  0  0  0  0  0  0  0  # atno 11005 bound_to 11000
  144.6829  140.2696  143.7308 LP  0  0  0  0  0  0  0  0  0  0  0  0  # atno 17320 bound_to 7965
  145.7951  139.1942  143.2080 LP  0  0  0  0  0  0  0  0  0  0  0  0  # atno 17321 bound_to 7965
  140.1636  144.5002  150.6618 LP  0  0  0  0  0  0  0  0  0  0  0  0  # atno 17342 bound_to 10162
  140.6755  143.2303  151.5517 LP  0  0  0  0  0  0  0  0  0  0  0  0  # atno 17343 bound_to 10162
  155.9777  130.4060  150.3696 LP  0  0  0  0  0  0  0  0  0  0  0  0  # atno 17370 bound_to 10713
  157.1800  131.0390  151.2753 LP  0  0  0  0  0  0  0  0  0  0  0  0  # atno 17371 bound_to 10713
  140.7247  134.4320  157.5571 LP  0  0  0  0  0  0  0  0  0  0  0  0  # atno 17394 bound_to 11000
  139.8934  134.8732  156.2227 LP  0  0  0  0  0  0  0  0  0  0  0  0  # atno 17395 bound_to 11000

$$$$
