AV-unprocessed.smi:2889|AV-procd|sdf|11108|dock5
  -GOLD-   2272015573D 1   1.00000     0.00000
 Structure written by MMmdl.
 36 37  0  0  0  0  0  0  0  0  1 V2000
  150.4979  145.2671  160.0713 C   0  0  0  0  0  0  0  0  0  0  0  0
  151.5166  144.3388  158.8925 S   0  0  0  0  0  0  0  0  0  0  0  0
  151.9709  142.8814  159.8867 C   0  0  2  0  0  0  0  0  0  0  0  0
  153.1994  143.2153  160.7543 C   0  0  0  0  0  0  0  0  0  0  0  0
  153.6611  142.0086  161.5843 C   0  0  0  0  0  0  0  0  0  0  0  0
  153.9610  140.8043  160.6812 C   0  0  0  0  0  0  0  0  0  0  0  0
  152.7391  140.4423  159.8247 C   0  0  0  0  0  0  0  0  0  0  0  0
  152.2462  141.6453  158.9971 C   0  0  1  0  0  0  0  0  0  0  0  0
  151.0324  141.2612  158.2718 N   0  0  0  0  0  0  0  0  0  0  0  0
  151.1430  140.0792  157.0216 S   0  0  0  0  0  0  0  0  0  0  0  0
  152.5661  139.7574  156.8333 O   0  0  0  0  0  0  0  0  0  0  0  0
  150.1829  139.0100  157.3351 O   0  0  0  0  0  0  0  0  0  0  0  0
  150.5540  141.0105  155.5460 C   0  0  0  0  0  0  0  0  0  0  0  0
  149.4854  140.2206  154.8470 C   0  0  0  0  0  0  0  0  0  0  0  0
  149.5496  138.8858  154.3596 C   0  0  0  0  0  0  0  0  0  0  0  0
  148.3110  138.6833  153.8222 C   0  0  0  0  0  0  0  0  0  0  0  0
  147.5457  139.7954  153.9597 O   0  0  0  0  0  0  0  0  0  0  0  0
  148.3047  140.7724  154.6140 N   0  0  0  0  0  0  0  0  0  0  0  0
  150.1606  146.1991  159.6180 H   0  0  0  0  0  0  0  0  0  0  0  0
  151.0736  145.5084  160.9649 H   0  0  0  0  0  0  0  0  0  0  0  0
  149.6194  144.6946  160.3662 H   0  0  0  0  0  0  0  0  0  0  0  0
  151.1406  142.6609  160.5592 H   0  0  0  0  0  0  0  0  0  0  0  0
  154.0196  143.5476  160.1162 H   0  0  0  0  0  0  0  0  0  0  0  0
  152.9696  144.0492  161.4184 H   0  0  0  0  0  0  0  0  0  0  0  0
  154.5493  142.2718  162.1596 H   0  0  0  0  0  0  0  0  0  0  0  0
  152.8900  141.7434  162.3088 H   0  0  0  0  0  0  0  0  0  0  0  0
  154.8082  141.0328  160.0332 H   0  0  0  0  0  0  0  0  0  0  0  0
  154.2569  139.9481  161.2880 H   0  0  0  0  0  0  0  0  0  0  0  0
  152.9896  139.6105  159.1653 H   0  0  0  0  0  0  0  0  0  0  0  0
  151.9377  140.0891  160.4754 H   0  0  0  0  0  0  0  0  0  0  0  0
  153.0206  141.9114  158.2763 H   0  0  0  0  0  0  0  0  0  0  0  0
  150.2705  141.0489  158.9154 H   0  0  0  0  0  0  0  0  0  0  0  0
  150.1843  141.9822  155.8749 H   0  0  0  0  0  0  0  0  0  0  0  0
  151.4053  141.1829  154.8874 H   0  0  0  0  0  0  0  0  0  0  0  0
  150.3721  138.1873  154.4020 H   0  0  0  0  0  0  0  0  0  0  0  0
  147.8441  137.8434  153.3296 H   0  0  0  0  0  0  0  0  0  0  0  0
  1  2  1  0  0  0  0
  1 19  1  0  0  0  0
  1 20  1  0  0  0  0
  1 21  1  0  0  0  0
  2  3  1  0  0  0  0
  3  8  1  0  0  0  0
  3  4  1  0  0  0  0
  3 22  1  0  0  0  0
  4  5  1  0  0  0  0
  4 23  1  0  0  0  0
  4 24  1  0  0  0  0
  5  6  1  0  0  0  0
  5 25  1  0  0  0  0
  5 26  1  0  0  0  0
  6  7  1  0  0  0  0
  6 27  1  0  0  0  0
  6 28  1  0  0  0  0
  7  8  1  0  0  0  0
  7 29  1  0  0  0  0
  7 30  1  0  0  0  0
  8  9  1  0  0  0  0
  8 31  1  0  0  0  0
  9 10  1  0  0  0  0
  9 32  1  0  0  0  0
 10 11  2  0  0  0  0
 10 12  2  0  0  0  0
 10 13  1  0  0  0  0
 13 14  1  0  0  0  0
 13 33  1  0  0  0  0
 13 34  1  0  0  0  0
 14 18  2  0  0  0  0
 14 15  1  0  0  0  0
 15 16  2  0  0  0  0
 15 35  1  0  0  0  0
 16 17  1  0  0  0  0
 16 36  1  0  0  0  0
 17 18  1  0  0  0  0
M  END
> <s_m_source_file>
AV-unprocessed.smi

> <i_m_source_file_index>
2889

> <i_lp_mmshare_version>
43012

> <i_f3d_flags>
0

> <s_epik_input>
W0NIM11TW0NAQEhdMVtDSDJdW0NIMl1bQ0gyXVtDSDJdW0NASF0xW05IXVMoPU8pKD1PKVtDSDJdYzJbY0hdW2NIXW9uMg==

> <s_epik_cmdline>
J2VwaWtfcHl0aG9uJywgJy1waCcsICc3LjAnLCAnLXRuJywgJzgnLCAnLW1hJywgJzIwMCcsICctbWV0YWxfYmluZGluZycsICctaW1hZScsICc8aW5maWxlLm1hZT4nLCAnLW9tYWUnLCAnPG91dGZpbGUubWFlPic=

> <r_lp_tautomer_probability>
1

> <r_epik_Ionization_Penalty>
0.000229547

> <r_epik_Ionization_Penalty_Charging>
0

> <r_epik_Ionization_Penalty_Neutral>
0.000229547

> <r_epik_State_Penalty>
-0

> <r_epik_Charging_Adjusted_Penalty>
0

> <i_epik_Tot_Q>
0

> <i_epik_Tot_abs_Q>
0

> <r_epik_Metal_State_Penalty>
0.145979

> <b_epik_Metal_Only>
0

> <s_lp_Force_Field>
OPLS_2005

> <r_lp_Energy>
3.33114

> <b_lp_Chiralities_Consistent>
1

> <s_lp_Variant>
AV-unprocessed.smi:2889-1

> <Gold.Version>
5.8.1

> <Gold.Id.Protein>
6NUR|6NUR_protein|mol2

> <Gold.PLP.Fitness>
38.8315

> <Gold.PLP.PLP>
-33.9871

> <Gold.PLP.part.hbond>
-1.0000

> <Gold.PLP.part.metal>
0.0000

> <Gold.PLP.part.buried>
-3.2355

> <Gold.PLP.part.nonpolar>
-29.6774

> <Gold.PLP.part.repulsive>
0.2658

> <Gold.PLP.ligand.clash>
0.0000

> <Gold.PLP.ligand.torsion>
0.5236

> <Gold.PLP.Chemscore.Hbond>
1.0000

> <Gold.PLP.Chemscore.CHOScore>
0.9110

> <Gold.PLP.Chemscore.Metal>
0.0000

> <Gold.Chemscore.Hbonds>
donor molecule, donor type, donor heavy atom, donor atom, acceptor molecule, acceptor atom, score
      P1  H  7997  8008       L1    11  1.00
      L1  C    16    36       P1  7948  0.91

> <Gold.PLP.Chemscore.Internal.Correction>
0.1586

> <Gold.Rescore>
     Score         DG    S(hbond)    S(metal)    S(lipo)     H(rot)  DE(clash)    DE(int)     intcor
     15.33     -16.27       1.00        0.00     103.19       1.81       0.11       0.83       ----

> <Gold.Chemscore.Fitness>
15.3293

> <Gold.Chemscore.DG>
-16.2673

> <Gold.Chemscore.ZeroCoef>
-5.4800

> <Gold.Chemscore.Hbond>
0.9991

> <Gold.Chemscore.Metal>
0.0000

> <Gold.Chemscore.Lipo>
103.1897

> <Gold.Chemscore.Internal_Hbond>
0.0000

> <Gold.Chemscore.DEClash>
0.1072

> <Gold.Chemscore.DEInternal>
0.8308

> <Gold.Chemscore.Rot>
1.8058

> <Gold.Chemscore.Internal.Correction>
   9.000000E+99

> <Gold.Chemscore.Hbonds>
donor molecule, donor type, donor heavy atom, donor atom, acceptor molecule, acceptor atom, score
      P1  H  7997  8008       L1    11  0.98

> <Gold.Chemscore.Hbond.Weighted>
-3.3369

> <Gold.Chemscore.Metal.Weighted>
-0.0000

> <Gold.Chemscore.Lipo.Weighted>
-12.0732

> <Gold.Chemscore.Internal_Hbond.Weighted>
0.0000

> <Gold.Chemscore.DEClash.Weighted>
0.1072

> <Gold.Chemscore.DEInternal.Weighted>
0.8308

> <Gold.Chemscore.Rot.Weighted>
4.6228

> <Gold.Chemscore.Internal.Correction.Weighted>
   9.000000E+99

> <Gold.Protein.RotatedTorsions>
[ 6907 6896 6895 6894 ] final -147.74 input  -60.11 | X-H torsion
[ 7974 7965 7964 7962 ] final  115.51 input  175.53 | X-H torsion
[ 8008 7997 7996 7995 ] final  -40.03 input   59.86 | X-H torsion
[ 10167 10162 10161 10158 ] final   66.52 input  -65.29 | X-H torsion
[ 10718 10713 10712 10709 ] final  -35.53 input   66.30 | X-H torsion
[ 10763 10752 10751 10750 ] final  -35.79 input  -60.55 | X-H torsion
[ 11005 11000 10999 10996 ] final  107.43 input  -57.11 | X-H torsion

> <Gold.Protein.ActiveResidues>
 VAL166  LYS551  ARG553  GLY616  TRP617  ASP618  TYR619  PRO620  LYS621  CYS622 
 ASP623  PHE694  ASN695  SER759  ASP760  ASP761  ALA762  ILE779  LEU786  VAL792 
 PHE793  MET794  SER795  GLU796  ALA797  LYS798  CYS799  TRP800  GLU811  SER814 

> <Gold.Protein.RotatedAtoms>
  151.1599  133.4852  159.2594 H   0  0  0  0  0  0  0  0  0  0  0  0  # atno 6907 bound_to 6896
  151.1465  135.0206  159.8659 H   0  0  0  0  0  0  0  0  0  0  0  0  # atno 6908 bound_to 6896
  152.5463  134.1487  159.8562 H   0  0  0  0  0  0  0  0  0  0  0  0  # atno 6909 bound_to 6896
  145.1911  139.3000  143.4367 H   0  0  0  0  0  0  0  0  0  0  0  0  # atno 7974 bound_to 7965
  154.4016  140.1536  156.2961 H   0  0  0  0  0  0  0  0  0  0  0  0  # atno 8008 bound_to 7997
  155.8742  140.3447  155.5821 H   0  0  0  0  0  0  0  0  0  0  0  0  # atno 8009 bound_to 7997
  155.7740  140.0834  157.2084 H   0  0  0  0  0  0  0  0  0  0  0  0  # atno 8010 bound_to 7997
  140.0995  144.4917  150.7047 H   0  0  0  0  0  0  0  0  0  0  0  0  # atno 10167 bound_to 10162
  156.3375  130.4288  149.7817 H   0  0  0  0  0  0  0  0  0  0  0  0  # atno 10718 bound_to 10713
  153.8690  135.6833  153.4776 H   0  0  0  0  0  0  0  0  0  0  0  0  # atno 10763 bound_to 10752
  153.1298  135.4703  154.9328 H   0  0  0  0  0  0  0  0  0  0  0  0  # atno 10764 bound_to 10752
  154.7723  135.3242  154.8115 H   0  0  0  0  0  0  0  0  0  0  0  0  # atno 10765 bound_to 10752
  139.8828  134.9400  156.5817 H   0  0  0  0  0  0  0  0  0  0  0  0  # atno 11005 bound_to 11000
  146.3436  140.2124  142.8590 LP  0  0  0  0  0  0  0  0  0  0  0  0  # atno 17320 bound_to 7965
  145.0040  140.8657  143.5264 LP  0  0  0  0  0  0  0  0  0  0  0  0  # atno 17321 bound_to 7965
  140.6986  143.2419  151.4931 LP  0  0  0  0  0  0  0  0  0  0  0  0  # atno 17342 bound_to 10162
  139.5679  144.1997  152.1793 LP  0  0  0  0  0  0  0  0  0  0  0  0  # atno 17343 bound_to 10162
  156.5066  130.8153  151.3153 LP  0  0  0  0  0  0  0  0  0  0  0  0  # atno 17370 bound_to 10713
  157.7441  130.9927  150.2647 LP  0  0  0  0  0  0  0  0  0  0  0  0  # atno 17371 bound_to 10713
  140.8022  133.8496  155.8736 LP  0  0  0  0  0  0  0  0  0  0  0  0  # atno 17394 bound_to 11000
  140.9582  134.1690  157.4674 LP  0  0  0  0  0  0  0  0  0  0  0  0  # atno 17395 bound_to 11000

$$$$
