AV-unprocessed.smi:2973|AV-procd|sdf|11344|dock6
  -GOLD-   2272016253D 1   1.00000     0.00000
 Structure written by MMmdl.
 50 52  0  0  0  0  0  0  0  0  2 V2000
  147.6993  142.0237  154.8858 C   0  0  0  0  0  0  0  0  0  0  0  0
  149.0390  141.2667  154.7688 C   0  0  1  0  0  0  0  0  0  0  0  0
  149.8896  141.4599  156.0431 C   0  0  0  0  0  0  0  0  0  0  0  0
  151.2699  140.7979  155.9096 C   0  0  0  0  0  0  0  0  0  0  0  0
  151.1472  139.3055  155.5720 C   0  0  0  0  0  0  0  0  0  0  0  0
  150.3019  139.0893  154.3040 C   0  0  0  0  0  0  0  0  0  0  0  0
  148.9067  139.7595  154.3813 C   0  0  2  0  0  0  0  0  0  0  0  0
  148.2203  139.6016  153.1106 N   0  0  0  0  0  0  0  0  0  0  0  0
  147.1065  138.8650  153.1995 C   0  0  0  0  0  0  0  0  0  0  0  0
  146.3685  138.5779  152.2584 O   0  0  0  0  0  0  0  0  0  0  0  0
  146.9429  138.4998  154.4831 N   0  0  0  0  0  0  0  0  0  0  0  0
  145.8392  137.6594  154.9645 C   0  0  0  0  0  0  0  0  0  0  0  0
  145.4205  136.5813  153.9551 C   0  0  0  0  0  0  0  0  0  0  0  0
  146.0700  135.5419  153.8317 O   0  0  0  0  0  0  0  0  0  0  0  0
  144.3153  136.8436  153.2417 N   0  0  0  0  0  0  0  0  0  0  0  0
  143.7432  135.9631  152.2303 C   0  0  0  0  0  0  0  0  0  0  0  0
  143.8140  134.4863  152.6550 C   0  0  0  0  0  0  0  0  0  0  0  0
  144.3229  133.5929  151.5411 C   0  0  0  0  0  0  0  0  0  0  0  0
  145.5125  132.8429  151.6652 C   0  0  0  0  0  0  0  0  0  0  0  0
  145.9261  132.0251  150.5929 C   0  0  0  0  0  0  0  0  0  0  0  0
  145.1421  131.9740  149.4215 C   0  0  0  0  0  0  0  0  0  0  0  0
  143.9617  132.7419  149.3525 C   0  0  0  0  0  0  0  0  0  0  0  0
  143.5985  133.5122  150.4014 N   0  3  0  0  0  0  0  0  0  0  0  0
  147.9357  138.9622  155.2553 C   0  0  0  0  0  0  0  0  0  0  0  0
  148.0679  138.7849  156.4663 O   0  0  0  0  0  0  0  0  0  0  0  0
  147.0913  141.6475  155.7088 H   0  0  0  0  0  0  0  0  0  0  0  0
  147.1107  141.9454  153.9719 H   0  0  0  0  0  0  0  0  0  0  0  0
  147.8702  143.0850  155.0672 H   0  0  0  0  0  0  0  0  0  0  0  0
  149.5839  141.7492  153.9558 H   0  0  0  0  0  0  0  0  0  0  0  0
  150.0225  142.5239  156.2407 H   0  0  0  0  0  0  0  0  0  0  0  0
  149.3702  141.0558  156.9122 H   0  0  0  0  0  0  0  0  0  0  0  0
  151.8422  141.3017  155.1296 H   0  0  0  0  0  0  0  0  0  0  0  0
  151.8332  140.9235  156.8346 H   0  0  0  0  0  0  0  0  0  0  0  0
  152.1398  138.8776  155.4295 H   0  0  0  0  0  0  0  0  0  0  0  0
  150.7082  138.7726  156.4153 H   0  0  0  0  0  0  0  0  0  0  0  0
  150.8456  139.4902  153.4473 H   0  0  0  0  0  0  0  0  0  0  0  0
  150.2016  138.0187  154.1171 H   0  0  0  0  0  0  0  0  0  0  0  0
  148.5694  139.9988  152.2505 H   0  0  0  0  0  0  0  0  0  0  0  0
  146.1134  137.1688  155.8999 H   0  0  0  0  0  0  0  0  0  0  0  0
  144.9791  138.2883  155.2014 H   0  0  0  0  0  0  0  0  0  0  0  0
  143.8382  137.7174  153.4122 H   0  0  0  0  0  0  0  0  0  0  0  0
  142.7109  136.2533  152.0271 H   0  0  0  0  0  0  0  0  0  0  0  0
  144.2966  136.1128  151.3030 H   0  0  0  0  0  0  0  0  0  0  0  0
  144.4665  134.3772  153.5225 H   0  0  0  0  0  0  0  0  0  0  0  0
  142.8299  134.1322  152.9654 H   0  0  0  0  0  0  0  0  0  0  0  0
  146.1008  132.8907  152.5704 H   0  0  0  0  0  0  0  0  0  0  0  0
  146.8334  131.4437  150.6682 H   0  0  0  0  0  0  0  0  0  0  0  0
  145.4415  131.3541  148.5890 H   0  0  0  0  0  0  0  0  0  0  0  0
  143.3021  132.7634  148.4973 H   0  0  0  0  0  0  0  0  0  0  0  0
  142.7405  134.0595  150.3293 H   0  0  0  0  0  0  0  0  0  0  0  0
  1  2  1  0  0  0  0
  1 26  1  0  0  0  0
  1 27  1  0  0  0  0
  1 28  1  0  0  0  0
  2  7  1  0  0  0  0
  2  3  1  0  0  0  0
  2 29  1  0  0  0  0
  3  4  1  0  0  0  0
  3 30  1  0  0  0  0
  3 31  1  0  0  0  0
  4  5  1  0  0  0  0
  4 32  1  0  0  0  0
  4 33  1  0  0  0  0
  5  6  1  0  0  0  0
  5 34  1  0  0  0  0
  5 35  1  0  0  0  0
  6  7  1  0  0  0  0
  6 36  1  0  0  0  0
  6 37  1  0  0  0  0
  7 24  1  0  0  0  0
  7  8  1  0  0  0  0
  8  9  1  0  0  0  0
  8 38  1  0  0  0  0
  9 10  2  0  0  0  0
  9 11  1  0  0  0  0
 11 12  1  0  0  0  0
 11 24  1  0  0  0  0
 12 13  1  0  0  0  0
 12 39  1  0  0  0  0
 12 40  1  0  0  0  0
 13 14  2  0  0  0  0
 13 15  1  0  0  0  0
 15 16  1  0  0  0  0
 15 41  1  0  0  0  0
 16 17  1  0  0  0  0
 16 42  1  0  0  0  0
 16 43  1  0  0  0  0
 17 18  1  0  0  0  0
 17 44  1  0  0  0  0
 17 45  1  0  0  0  0
 18 23  1  0  0  0  0
 18 19  2  0  0  0  0
 19 20  1  0  0  0  0
 19 46  1  0  0  0  0
 20 21  2  0  0  0  0
 20 47  1  0  0  0  0
 21 22  1  0  0  0  0
 21 48  1  0  0  0  0
 22 23  2  0  0  0  0
 22 49  1  0  0  0  0
 23 50  1  0  0  0  0
 24 25  2  0  0  0  0
M  CHG  1  23   1
M  END
> <s_m_source_file>
AV-unprocessed.smi

> <i_m_source_file_index>
2973

> <i_lp_mmshare_version>
43012

> <i_f3d_flags>
0

> <s_epik_input>
W0NIMl0xW0NIMl1bQ0gyXVtDSDJdW0NAQEhdKFtDSDNdKVtDQF0xMltOSF1DKD1PKU4oQzI9TylbQ0gyXUMoPU8pW05IXVtDSDJdW0NIMl1jM1tjSF1bY0hdW2NIXVtjSF1uMw==

> <s_epik_cmdline>
J2VwaWtfcHl0aG9uJywgJy1waCcsICc3LjAnLCAnLXRuJywgJzgnLCAnLW1hJywgJzIwMCcsICctbWV0YWxfYmluZGluZycsICctaW1hZScsICc8aW5maWxlLm1hZT4nLCAnLW9tYWUnLCAnPG91dGZpbGUubWFlPic=

> <r_lp_tautomer_probability>
1

> <r_epik_Ionization_Penalty>
1.90043

> <r_epik_Ionization_Penalty_Charging>
1.90039

> <r_epik_Ionization_Penalty_Neutral>
4.65525e-05

> <r_epik_State_Penalty>
2.02162

> <r_epik_Charging_Adjusted_Penalty>
3.922

> <i_epik_Tot_Q>
1

> <i_epik_Tot_abs_Q>
1

> <r_epik_Metal_State_Penalty>
2.06631

> <b_epik_Metal_Only>
0

> <s_lp_Force_Field>
OPLS_2005

> <r_lp_Energy>
22.9905

> <b_lp_Chiralities_Consistent>
1

> <s_lp_Variant>
AV-unprocessed.smi:2973-8

> <Gold.Version>
5.8.1

> <Gold.Id.Protein>
6NUR|6NUR_protein|mol2

> <Gold.PLP.Fitness>
47.5835

> <Gold.PLP.PLP>
-41.1810

> <Gold.PLP.part.hbond>
-1.5257

> <Gold.PLP.part.metal>
0.0000

> <Gold.PLP.part.buried>
-6.0346

> <Gold.PLP.part.nonpolar>
-35.3008

> <Gold.PLP.part.repulsive>
0.5372

> <Gold.PLP.ligand.clash>
0.0000

> <Gold.PLP.ligand.torsion>
1.0727

> <Gold.PLP.Chemscore.Hbond>
2.8382

> <Gold.PLP.Chemscore.CHOScore>
0.0000

> <Gold.PLP.Chemscore.Metal>
0.0000

> <Gold.Chemscore.Hbonds>
donor molecule, donor type, donor heavy atom, donor atom, acceptor molecule, acceptor atom, score
      L1  H     8    38       P1  7957  0.91
      L1  H    23    50       P1 10186  2.00

> <Gold.PLP.Chemscore.Internal.Correction>
0.0331

> <Gold.Rescore>
     Score         DG    S(hbond)    S(metal)    S(lipo)     H(rot)  DE(clash)    DE(int)     intcor
     14.06     -18.48       1.93        0.00      98.96       1.96       0.36       4.07       ----

> <Gold.Chemscore.Fitness>
14.0558

> <Gold.Chemscore.DG>
-18.4848

> <Gold.Chemscore.ZeroCoef>
-5.4800

> <Gold.Chemscore.Hbond>
1.9325

> <Gold.Chemscore.Metal>
0.0000

> <Gold.Chemscore.Lipo>
98.9553

> <Gold.Chemscore.Internal_Hbond>
0.0000

> <Gold.Chemscore.DEClash>
0.3559

> <Gold.Chemscore.DEInternal>
4.0732

> <Gold.Chemscore.Rot>
1.9638

> <Gold.Chemscore.Internal.Correction>
   9.000000E+99

> <Gold.Chemscore.Hbonds>
donor molecule, donor type, donor heavy atom, donor atom, acceptor molecule, acceptor atom, score
      L1  H     8    38       P1  7957  0.84
      L1  H    23    50       P1 10186  0.89

> <Gold.Chemscore.Hbond.Weighted>
-6.4545

> <Gold.Chemscore.Metal.Weighted>
-0.0000

> <Gold.Chemscore.Lipo.Weighted>
-11.5778

> <Gold.Chemscore.Internal_Hbond.Weighted>
0.0000

> <Gold.Chemscore.DEClash.Weighted>
0.3559

> <Gold.Chemscore.DEInternal.Weighted>
4.0732

> <Gold.Chemscore.Rot.Weighted>
5.0274

> <Gold.Chemscore.Internal.Correction.Weighted>
   9.000000E+99

> <Gold.Protein.RotatedTorsions>
[ 6907 6896 6895 6894 ] final   89.41 input  -60.11 | X-H torsion
[ 7974 7965 7964 7962 ] final -167.64 input  175.53 | X-H torsion
[ 8008 7997 7996 7995 ] final  -60.92 input   59.86 | X-H torsion
[ 10167 10162 10161 10158 ] final -149.76 input  -65.29 | X-H torsion
[ 10718 10713 10712 10709 ] final  -50.39 input   66.30 | X-H torsion
[ 10763 10752 10751 10750 ] final   55.81 input  -60.55 | X-H torsion
[ 11005 11000 10999 10996 ] final  -91.52 input  -57.11 | X-H torsion

> <Gold.Protein.ActiveResidues>
 VAL166  LYS551  ARG553  GLY616  TRP617  ASP618  TYR619  PRO620  LYS621  CYS622 
 ASP623  PHE694  ASN695  SER759  ASP760  ASP761  ALA762  ILE779  LEU786  VAL792 
 PHE793  MET794  SER795  GLU796  ALA797  LYS798  CYS799  TRP800  GLU811  SER814 

> <Gold.Protein.RotatedAtoms>
  152.5436  134.1970  159.8696 H   0  0  0  0  0  0  0  0  0  0  0  0  # atno 6907 bound_to 6896
  151.1961  133.4631  159.2603 H   0  0  0  0  0  0  0  0  0  0  0  0  # atno 6908 bound_to 6896
  151.1035  134.9998  159.8515 H   0  0  0  0  0  0  0  0  0  0  0  0  # atno 6909 bound_to 6896
  144.7219  140.2488  143.6281 H   0  0  0  0  0  0  0  0  0  0  0  0  # atno 7974 bound_to 7965
  154.4422  140.1029  156.6349 H   0  0  0  0  0  0  0  0  0  0  0  0  # atno 8008 bound_to 7997
  155.5564  140.3486  155.4462 H   0  0  0  0  0  0  0  0  0  0  0  0  # atno 8009 bound_to 7997
  156.0492  140.1300  157.0059 H   0  0  0  0  0  0  0  0  0  0  0  0  # atno 8010 bound_to 7997
  139.7414  143.8656  152.2563 H   0  0  0  0  0  0  0  0  0  0  0  0  # atno 10167 bound_to 10162
  156.1805  130.4150  149.9514 H   0  0  0  0  0  0  0  0  0  0  0  0  # atno 10718 bound_to 10713
  152.9822  135.5698  154.5127 H   0  0  0  0  0  0  0  0  0  0  0  0  # atno 10763 bound_to 10752
  154.4628  135.2782  155.1702 H   0  0  0  0  0  0  0  0  0  0  0  0  # atno 10764 bound_to 10752
  154.3282  135.6255  153.5592 H   0  0  0  0  0  0  0  0  0  0  0  0  # atno 10765 bound_to 10752
  141.1543  133.7761  156.9890 H   0  0  0  0  0  0  0  0  0  0  0  0  # atno 11005 bound_to 11000
  145.8248  139.2059  143.1917 LP  0  0  0  0  0  0  0  0  0  0  0  0  # atno 17320 bound_to 7965
  146.0483  140.8096  142.9794 LP  0  0  0  0  0  0  0  0  0  0  0  0  # atno 17321 bound_to 7965
  139.8608  144.7118  150.9102 LP  0  0  0  0  0  0  0  0  0  0  0  0  # atno 17342 bound_to 10162
  140.7786  143.3819  151.1461 LP  0  0  0  0  0  0  0  0  0  0  0  0  # atno 17343 bound_to 10162
  156.7286  130.9034  151.3624 LP  0  0  0  0  0  0  0  0  0  0  0  0  # atno 17370 bound_to 10713
  157.6865  130.9190  150.0399 LP  0  0  0  0  0  0  0  0  0  0  0  0  # atno 17371 bound_to 10713
  140.1015  134.9532  157.1930 LP  0  0  0  0  0  0  0  0  0  0  0  0  # atno 17394 bound_to 11000
  140.3312  134.2808  155.7228 LP  0  0  0  0  0  0  0  0  0  0  0  0  # atno 17395 bound_to 11000

$$$$
