AV-unprocessed.smi:1045|AV-procd|sdf|4544|dock9
  -GOLD-   22720 2573D 1   1.00000     0.00000
 Structure written by MMmdl.
 42 43  0  0  0  0  0  0  0  0  1 V2000
  151.3789  131.8203  156.0490 C   0  0  0  0  0  0  0  0  0  0  0  0
  150.5467  132.8187  155.4857 O   0  0  0  0  0  0  0  0  0  0  0  0
  149.7855  132.3385  154.3896 C   0  0  0  0  0  0  0  0  0  0  0  0
  148.5475  133.2324  154.1956 C   0  0  2  0  0  0  0  0  0  0  0  0
  147.7127  132.8038  152.9802 C   0  0  0  0  0  0  0  0  0  0  0  0
  148.9486  134.6266  154.0282 N   0  0  0  0  0  0  0  0  0  0  0  0
  149.4066  135.4264  155.0020 C   0  0  0  0  0  0  0  0  0  0  0  0
  149.5581  135.0596  156.1668 O   0  0  0  0  0  0  0  0  0  0  0  0
  149.6880  136.6517  154.5269 N   0  0  0  0  0  0  0  0  0  0  0  0
  150.1632  137.7931  155.2280 C   0  0  0  0  0  0  0  0  0  0  0  0
  150.3818  137.8445  156.6245 C   0  0  0  0  0  0  0  0  0  0  0  0
  150.8357  139.0466  157.2004 C   0  0  0  0  0  0  0  0  0  0  0  0
  151.0514  140.1722  156.3706 C   0  0  0  0  0  0  0  0  0  0  0  0
  151.5094  141.3920  156.9077 N   0  0  0  0  0  0  0  0  0  0  0  0
  150.9564  142.6697  156.4860 C   0  0  0  0  0  0  0  0  0  0  0  0
  151.6134  143.6973  157.4058 C   0  0  0  0  0  0  0  0  0  0  0  0
  151.8004  142.9233  158.7105 C   0  0  0  0  0  0  0  0  0  0  0  0
  152.0492  141.4798  158.2576 C   0  0  0  0  0  0  0  0  0  0  0  0
  150.8377  140.1214  155.0345 N   0  0  0  0  0  0  0  0  0  0  0  0
  150.4019  138.9677  154.4873 C   0  0  0  0  0  0  0  0  0  0  0  0
  151.9378  132.2391  156.8857 H   0  0  0  0  0  0  0  0  0  0  0  0
  152.0969  131.4462  155.3182 H   0  0  0  0  0  0  0  0  0  0  0  0
  150.7905  130.9817  156.4235 H   0  0  0  0  0  0  0  0  0  0  0  0
  150.4049  132.3509  153.4912 H   0  0  0  0  0  0  0  0  0  0  0  0
  149.4831  131.3040  154.5624 H   0  0  0  0  0  0  0  0  0  0  0  0
  147.9156  133.1526  155.0823 H   0  0  0  0  0  0  0  0  0  0  0  0
  147.3569  131.7788  153.0875 H   0  0  0  0  0  0  0  0  0  0  0  0
  148.2938  132.8587  152.0590 H   0  0  0  0  0  0  0  0  0  0  0  0
  146.8365  133.4421  152.8610 H   0  0  0  0  0  0  0  0  0  0  0  0
  148.8648  135.0120  153.0990 H   0  0  0  0  0  0  0  0  0  0  0  0
  149.5842  136.7726  153.5301 H   0  0  0  0  0  0  0  0  0  0  0  0
  150.2012  136.9976  157.2676 H   0  0  0  0  0  0  0  0  0  0  0  0
  151.0133  139.0865  158.2647 H   0  0  0  0  0  0  0  0  0  0  0  0
  151.1678  142.8745  155.4359 H   0  0  0  0  0  0  0  0  0  0  0  0
  149.8749  142.6629  156.6274 H   0  0  0  0  0  0  0  0  0  0  0  0
  152.5868  143.9841  157.0051 H   0  0  0  0  0  0  0  0  0  0  0  0
  151.0172  144.6021  157.5261 H   0  0  0  0  0  0  0  0  0  0  0  0
  152.6077  143.3181  159.3277 H   0  0  0  0  0  0  0  0  0  0  0  0
  150.8800  142.9691  159.2941 H   0  0  0  0  0  0  0  0  0  0  0  0
  151.5755  140.7722  158.9390 H   0  0  0  0  0  0  0  0  0  0  0  0
  153.1173  141.2631  158.2247 H   0  0  0  0  0  0  0  0  0  0  0  0
  150.2415  138.9846  153.4192 H   0  0  0  0  0  0  0  0  0  0  0  0
  1  2  1  0  0  0  0
  1 21  1  0  0  0  0
  1 22  1  0  0  0  0
  1 23  1  0  0  0  0
  2  3  1  0  0  0  0
  3  4  1  0  0  0  0
  3 24  1  0  0  0  0
  3 25  1  0  0  0  0
  4  5  1  0  0  0  0
  4  6  1  0  0  0  0
  4 26  1  0  0  0  0
  5 27  1  0  0  0  0
  5 28  1  0  0  0  0
  5 29  1  0  0  0  0
  6  7  1  0  0  0  0
  6 30  1  0  0  0  0
  7  8  2  0  0  0  0
  7  9  1  0  0  0  0
  9 10  1  0  0  0  0
  9 31  1  0  0  0  0
 10 20  1  0  0  0  0
 10 11  2  0  0  0  0
 11 12  1  0  0  0  0
 11 32  1  0  0  0  0
 12 13  2  0  0  0  0
 12 33  1  0  0  0  0
 13 14  1  0  0  0  0
 13 19  1  0  0  0  0
 14 18  1  0  0  0  0
 14 15  1  0  0  0  0
 15 16  1  0  0  0  0
 15 34  1  0  0  0  0
 15 35  1  0  0  0  0
 16 17  1  0  0  0  0
 16 36  1  0  0  0  0
 16 37  1  0  0  0  0
 17 18  1  0  0  0  0
 17 38  1  0  0  0  0
 17 39  1  0  0  0  0
 18 40  1  0  0  0  0
 18 41  1  0  0  0  0
 19 20  2  0  0  0  0
 20 42  1  0  0  0  0
M  END
> <s_m_source_file>
AV-unprocessed.smi

> <i_m_source_file_index>
1045

> <i_lp_mmshare_version>
43012

> <i_f3d_flags>
0

> <s_epik_input>
W0NIM11PW0NIMl1bQ0BIXShbQ0gzXSlbTkhdQyg9TylbTkhdYzFbY0hdW2NIXWMobltjSF0xKU4yW0NIMl1bQ0gyXVtDSDJdW0NIMl0y

> <s_epik_cmdline>
J2VwaWtfcHl0aG9uJywgJy1waCcsICc3LjAnLCAnLXRuJywgJzgnLCAnLW1hJywgJzIwMCcsICctbWV0YWxfYmluZGluZycsICctaW1hZScsICc8aW5maWxlLm1hZT4nLCAnLW9tYWUnLCAnPG91dGZpbGUubWFlPic=

> <r_lp_tautomer_probability>
1

> <r_epik_Ionization_Penalty>
0.10064

> <r_epik_Ionization_Penalty_Charging>
0

> <r_epik_Ionization_Penalty_Neutral>
0.10064

> <r_epik_State_Penalty>
0.0900987

> <r_epik_Charging_Adjusted_Penalty>
0.0900987

> <i_epik_Tot_Q>
0

> <i_epik_Tot_abs_Q>
0

> <r_epik_Metal_State_Penalty>
0.076945

> <b_epik_Metal_Only>
0

> <s_lp_Force_Field>
OPLS_2005

> <r_lp_Energy>
28.0744

> <b_lp_Chiralities_Consistent>
1

> <s_lp_Variant>
AV-unprocessed.smi:1045-1

> <Gold.Version>
5.8.1

> <Gold.Id.Protein>
6NUR|6NUR_protein|mol2

> <Gold.PLP.Fitness>
42.2774

> <Gold.PLP.PLP>
-31.8078

> <Gold.PLP.part.hbond>
-3.0000

> <Gold.PLP.part.metal>
0.0000

> <Gold.PLP.part.buried>
-3.1399

> <Gold.PLP.part.nonpolar>
-24.3136

> <Gold.PLP.part.repulsive>
0.1051

> <Gold.PLP.ligand.clash>
0.0000

> <Gold.PLP.ligand.torsion>
0.6885

> <Gold.PLP.Chemscore.Hbond>
2.9500

> <Gold.PLP.Chemscore.CHOScore>
0.9307

> <Gold.PLP.Chemscore.Metal>
0.0000

> <Gold.Chemscore.Hbonds>
donor molecule, donor type, donor heavy atom, donor atom, acceptor molecule, acceptor atom, score
      L1  H     6    30       P1  7948  1.00
      L1  H     9    31       P1  7948  1.00
      P1  H  7989  7998       L1    19  0.95
      L1  C    20    42       P1  7957  0.93

> <Gold.PLP.Chemscore.Internal.Correction>
0.2045

> <Gold.Rescore>
     Score         DG    S(hbond)    S(metal)    S(lipo)     H(rot)  DE(clash)    DE(int)     intcor
     12.95     -17.93       2.11        0.00      77.15       1.41       0.26       4.73       ----

> <Gold.Chemscore.Fitness>
12.9497

> <Gold.Chemscore.DG>
-17.9346

> <Gold.Chemscore.ZeroCoef>
-5.4800

> <Gold.Chemscore.Hbond>
2.1062

> <Gold.Chemscore.Metal>
0.0000

> <Gold.Chemscore.Lipo>
77.1459

> <Gold.Chemscore.Internal_Hbond>
0.0000

> <Gold.Chemscore.DEClash>
0.2591

> <Gold.Chemscore.DEInternal>
4.7258

> <Gold.Chemscore.Rot>
1.4086

> <Gold.Chemscore.Internal.Correction>
   9.000000E+99

> <Gold.Chemscore.Hbonds>
donor molecule, donor type, donor heavy atom, donor atom, acceptor molecule, acceptor atom, score
      L1  H     6    30       P1  7948  0.30
      L1  H     9    31       P1  7948  0.72
      P1  H  7989  7998       L1    19  0.21

> <Gold.Chemscore.Hbond.Weighted>
-7.0345

> <Gold.Chemscore.Metal.Weighted>
-0.0000

> <Gold.Chemscore.Lipo.Weighted>
-9.0261

> <Gold.Chemscore.Internal_Hbond.Weighted>
0.0000

> <Gold.Chemscore.DEClash.Weighted>
0.2591

> <Gold.Chemscore.DEInternal.Weighted>
4.7258

> <Gold.Chemscore.Rot.Weighted>
3.6060

> <Gold.Chemscore.Internal.Correction.Weighted>
   9.000000E+99

> <Gold.Protein.RotatedTorsions>
[ 6907 6896 6895 6894 ] final  159.39 input  -60.11 | X-H torsion
[ 7974 7965 7964 7962 ] final  -27.21 input  175.53 | X-H torsion
[ 8008 7997 7996 7995 ] final  -10.34 input   59.86 | X-H torsion
[ 10167 10162 10161 10158 ] final  133.50 input  -65.29 | X-H torsion
[ 10718 10713 10712 10709 ] final  173.69 input   66.30 | X-H torsion
[ 10763 10752 10751 10750 ] final    5.35 input  -60.55 | X-H torsion
[ 11005 11000 10999 10996 ] final  121.90 input  -57.11 | X-H torsion

> <Gold.Protein.ActiveResidues>
 VAL166  LYS551  ARG553  GLY616  TRP617  ASP618  TYR619  PRO620  LYS621  CYS622 
 ASP623  PHE694  ASN695  SER759  ASP760  ASP761  ALA762  ILE779  LEU786  VAL792 
 PHE793  MET794  SER795  GLU796  ALA797  LYS798  CYS799  TRP800  GLU811  SER814 

> <Gold.Protein.RotatedAtoms>
  151.9863  133.3775  159.4126 H   0  0  0  0  0  0  0  0  0  0  0  0  # atno 6907 bound_to 6896
  150.6928  134.3985  159.5117 H   0  0  0  0  0  0  0  0  0  0  0  0  # atno 6908 bound_to 6896
  152.1711  134.8833  160.0585 H   0  0  0  0  0  0  0  0  0  0  0  0  # atno 6909 bound_to 6896
  146.1373  140.5121  142.8667 H   0  0  0  0  0  0  0  0  0  0  0  0  # atno 7974 bound_to 7965
  154.5564  140.2331  155.8404 H   0  0  0  0  0  0  0  0  0  0  0  0  # atno 8008 bound_to 7997
  156.1992  140.3057  155.9450 H   0  0  0  0  0  0  0  0  0  0  0  0  # atno 8009 bound_to 7997
  155.2972  140.0429  157.3017 H   0  0  0  0  0  0  0  0  0  0  0  0  # atno 8010 bound_to 7997
  139.5294  144.6613  151.5004 H   0  0  0  0  0  0  0  0  0  0  0  0  # atno 10167 bound_to 10162
  156.9606  131.0059  151.2928 H   0  0  0  0  0  0  0  0  0  0  0  0  # atno 10718 bound_to 10713
  153.2604  135.6922  153.7585 H   0  0  0  0  0  0  0  0  0  0  0  0  # atno 10763 bound_to 10752
  153.6646  135.3354  155.3137 H   0  0  0  0  0  0  0  0  0  0  0  0  # atno 10764 bound_to 10752
  154.8428  135.4485  154.1592 H   0  0  0  0  0  0  0  0  0  0  0  0  # atno 10765 bound_to 10752
  139.9245  134.9640  156.8028 H   0  0  0  0  0  0  0  0  0  0  0  0  # atno 11005 bound_to 11000
  144.7754  140.5728  143.6642 LP  0  0  0  0  0  0  0  0  0  0  0  0  # atno 17320 bound_to 7965
  145.5126  139.1479  143.3596 LP  0  0  0  0  0  0  0  0  0  0  0  0  # atno 17321 bound_to 7965
  140.6462  143.8789  150.6740 LP  0  0  0  0  0  0  0  0  0  0  0  0  # atno 17342 bound_to 10162
  140.2139  143.3861  152.1696 LP  0  0  0  0  0  0  0  0  0  0  0  0  # atno 17343 bound_to 10162
  157.5660  130.8278  149.8328 LP  0  0  0  0  0  0  0  0  0  0  0  0  # atno 17370 bound_to 10713
  156.0324  130.3761  150.1652 LP  0  0  0  0  0  0  0  0  0  0  0  0  # atno 17371 bound_to 10713
  140.6376  133.9848  155.7692 LP  0  0  0  0  0  0  0  0  0  0  0  0  # atno 17394 bound_to 11000
  141.0792  134.0088  157.3411 LP  0  0  0  0  0  0  0  0  0  0  0  0  # atno 17395 bound_to 11000

$$$$
