AV-unprocessed.smi:3272|AV-procd|sdf|12518|dock2
  -GOLD-   2272018433D 1   1.00000     0.00000
 Structure written by MMmdl.
 35 36  0  0  0  0  0  0  0  0  1 V2000
  143.9409  132.6969  148.6371 C   0  0  0  0  0  0  0  0  0  0  0  0
  143.6327  132.4170  150.1129 C   0  0  0  0  0  0  0  0  0  0  0  0
  144.2859  133.3710  150.9875 N   0  0  0  0  0  0  0  0  0  0  0  0
  145.1678  134.3773  150.6464 C   0  0  0  0  0  0  0  0  0  0  0  0
  145.4889  134.9996  151.8195 C   0  0  0  0  0  0  0  0  0  0  0  0
  146.3472  136.1051  152.0463 N   0  0  0  0  0  0  0  0  0  0  0  0
  146.0031  137.3305  152.4746 C   0  0  0  0  0  0  0  0  0  0  0  0
  144.8537  137.6983  152.7172 O   0  0  0  0  0  0  0  0  0  0  0  0
  147.0792  138.1205  152.5992 N   0  0  0  0  0  0  0  0  0  0  0  0
  147.0626  139.5164  153.0245 C   0  0  0  0  0  0  0  0  0  0  0  0
  148.1176  139.7921  154.1116 C   0  0  2  0  0  0  0  0  0  0  0  0
  148.3808  141.2646  154.3508 C   0  0  0  0  0  0  0  0  0  0  0  0
  149.7219  141.2341  155.0782 C   0  0  0  0  0  0  0  0  0  0  0  0
  150.4050  140.0818  154.5926 O   0  0  0  0  0  0  0  0  0  0  0  0
  149.5286  139.2955  153.7911 C   0  0  0  0  0  0  0  0  0  0  0  0
  144.7645  134.3172  152.8310 C   0  0  0  0  0  0  0  0  0  0  0  0
  144.0411  133.3323  152.3207 N   0  0  0  0  0  0  0  0  0  0  0  0
  143.4540  131.9640  147.9937 H   0  0  0  0  0  0  0  0  0  0  0  0
  145.0130  132.6504  148.4440 H   0  0  0  0  0  0  0  0  0  0  0  0
  143.5887  133.6853  148.3405 H   0  0  0  0  0  0  0  0  0  0  0  0
  142.5572  132.4549  150.2910 H   0  0  0  0  0  0  0  0  0  0  0  0
  143.9637  131.4135  150.3826 H   0  0  0  0  0  0  0  0  0  0  0  0
  145.4711  134.5529  149.6248 H   0  0  0  0  0  0  0  0  0  0  0  0
  147.3271  135.9449  151.8641 H   0  0  0  0  0  0  0  0  0  0  0  0
  147.9821  137.7276  152.3766 H   0  0  0  0  0  0  0  0  0  0  0  0
  147.2000  140.1878  152.1749 H   0  0  0  0  0  0  0  0  0  0  0  0
  146.0692  139.7285  153.4202 H   0  0  0  0  0  0  0  0  0  0  0  0
  147.7942  139.3439  155.0528 H   0  0  0  0  0  0  0  0  0  0  0  0
  148.4834  141.7924  153.4013 H   0  0  0  0  0  0  0  0  0  0  0  0
  147.5961  141.7527  154.9292 H   0  0  0  0  0  0  0  0  0  0  0  0
  150.3040  142.1413  154.9137 H   0  0  0  0  0  0  0  0  0  0  0  0
  149.5703  141.1193  156.1522 H   0  0  0  0  0  0  0  0  0  0  0  0
  149.6546  138.2314  153.9924 H   0  0  0  0  0  0  0  0  0  0  0  0
  149.7716  139.4720  152.7424 H   0  0  0  0  0  0  0  0  0  0  0  0
  144.7391  134.4993  153.8953 H   0  0  0  0  0  0  0  0  0  0  0  0
  1  2  1  0  0  0  0
  1 18  1  0  0  0  0
  1 19  1  0  0  0  0
  1 20  1  0  0  0  0
  2  3  1  0  0  0  0
  2 21  1  0  0  0  0
  2 22  1  0  0  0  0
  3 17  1  0  0  0  0
  3  4  1  0  0  0  0
  4  5  2  0  0  0  0
  4 23  1  0  0  0  0
  5  6  1  0  0  0  0
  5 16  1  0  0  0  0
  6  7  1  0  0  0  0
  6 24  1  0  0  0  0
  7  8  2  0  0  0  0
  7  9  1  0  0  0  0
  9 10  1  0  0  0  0
  9 25  1  0  0  0  0
 10 11  1  0  0  0  0
 10 26  1  0  0  0  0
 10 27  1  0  0  0  0
 11 15  1  0  0  0  0
 11 12  1  0  0  0  0
 11 28  1  0  0  0  0
 12 13  1  0  0  0  0
 12 29  1  0  0  0  0
 12 30  1  0  0  0  0
 13 14  1  0  0  0  0
 13 31  1  0  0  0  0
 13 32  1  0  0  0  0
 14 15  1  0  0  0  0
 15 33  1  0  0  0  0
 15 34  1  0  0  0  0
 16 17  2  0  0  0  0
 16 35  1  0  0  0  0
M  END
> <s_m_source_file>
AV-unprocessed.smi

> <i_m_source_file_index>
3272

> <i_lp_mmshare_version>
43012

> <i_f3d_flags>
0

> <s_epik_input>
W0NIM11bQ0gyXW4xW2NIXWMoW2NIXW4xKVtOSF1DKD1PKVtOSF1bQ0gyXVtDQEBIXTJbQ0gyXVtDSDJdT1tDSDJdMg==

> <s_epik_cmdline>
J2VwaWtfcHl0aG9uJywgJy1waCcsICc3LjAnLCAnLXRuJywgJzgnLCAnLW1hJywgJzIwMCcsICctbWV0YWxfYmluZGluZycsICctaW1hZScsICc8aW5maWxlLm1hZT4nLCAnLW9tYWUnLCAnPG91dGZpbGUubWFlPic=

> <r_lp_tautomer_probability>
1

> <r_epik_Ionization_Penalty>
0.000182896

> <r_epik_Ionization_Penalty_Charging>
0

> <r_epik_Ionization_Penalty_Neutral>
0.000182896

> <r_epik_State_Penalty>
-0

> <r_epik_Charging_Adjusted_Penalty>
0

> <i_epik_Tot_Q>
0

> <i_epik_Tot_abs_Q>
0

> <r_epik_Metal_State_Penalty>
-0

> <b_epik_Metal_Only>
0

> <s_lp_Force_Field>
OPLS_2005

> <r_lp_Energy>
22.7112

> <b_lp_Chiralities_Consistent>
1

> <s_lp_Variant>
AV-unprocessed.smi:3272-1

> <Gold.Version>
5.8.1

> <Gold.Id.Protein>
6NUR|6NUR_protein|mol2

> <Gold.PLP.Fitness>
40.4814

> <Gold.PLP.PLP>
-30.1135

> <Gold.PLP.part.hbond>
-3.0000

> <Gold.PLP.part.metal>
0.0000

> <Gold.PLP.part.buried>
-0.6369

> <Gold.PLP.part.nonpolar>
-27.8982

> <Gold.PLP.part.repulsive>
1.4518

> <Gold.PLP.ligand.clash>
0.0000

> <Gold.PLP.ligand.torsion>
0.7880

> <Gold.PLP.Chemscore.Hbond>
2.9760

> <Gold.PLP.Chemscore.CHOScore>
1.0000

> <Gold.PLP.Chemscore.Metal>
0.0000

> <Gold.Chemscore.Hbonds>
donor molecule, donor type, donor heavy atom, donor atom, acceptor molecule, acceptor atom, score
      L1  H     6    24       P1  7948  1.00
      L1  H     9    25       P1  7948  0.96
      P1  H  7989  7998       L1    14  1.00
      L1  C     4    23       P1  7921  1.00

> <Gold.PLP.Chemscore.Internal.Correction>
0.0159

> <Gold.Rescore>
     Score         DG    S(hbond)    S(metal)    S(lipo)     H(rot)  DE(clash)    DE(int)     intcor
     16.14     -18.91       2.58        0.00      72.00       1.41       1.97       0.81       ----

> <Gold.Chemscore.Fitness>
16.1356

> <Gold.Chemscore.DG>
-18.9107

> <Gold.Chemscore.ZeroCoef>
-5.4800

> <Gold.Chemscore.Hbond>
2.5769

> <Gold.Chemscore.Metal>
0.0000

> <Gold.Chemscore.Lipo>
72.0015

> <Gold.Chemscore.Internal_Hbond>
0.0000

> <Gold.Chemscore.DEClash>
1.9654

> <Gold.Chemscore.DEInternal>
0.8097

> <Gold.Chemscore.Rot>
1.4064

> <Gold.Chemscore.Internal.Correction>
   9.000000E+99

> <Gold.Chemscore.Hbonds>
donor molecule, donor type, donor heavy atom, donor atom, acceptor molecule, acceptor atom, score
      L1  H     6    24       P1  7948  0.99
      L1  H     9    25       P1  7948  0.92
      P1  H  7989  7998       L1    14  0.17

> <Gold.Chemscore.Hbond.Weighted>
-8.6070

> <Gold.Chemscore.Metal.Weighted>
-0.0000

> <Gold.Chemscore.Lipo.Weighted>
-8.4242

> <Gold.Chemscore.Internal_Hbond.Weighted>
0.0000

> <Gold.Chemscore.DEClash.Weighted>
1.9654

> <Gold.Chemscore.DEInternal.Weighted>
0.8097

> <Gold.Chemscore.Rot.Weighted>
3.6004

> <Gold.Chemscore.Internal.Correction.Weighted>
   9.000000E+99

> <Gold.Protein.RotatedTorsions>
[ 6907 6896 6895 6894 ] final  148.10 input  -60.11 | X-H torsion
[ 7974 7965 7964 7962 ] final  -46.93 input  175.53 | X-H torsion
[ 8008 7997 7996 7995 ] final  -23.58 input   59.86 | X-H torsion
[ 10167 10162 10161 10158 ] final -152.32 input  -65.29 | X-H torsion
[ 10718 10713 10712 10709 ] final -177.83 input   66.30 | X-H torsion
[ 10763 10752 10751 10750 ] final  -58.13 input  -60.55 | X-H torsion
[ 11005 11000 10999 10996 ] final -175.12 input  -57.11 | X-H torsion

> <Gold.Protein.ActiveResidues>
 VAL166  LYS551  ARG553  GLY616  TRP617  ASP618  TYR619  PRO620  LYS621  CYS622 
 ASP623  PHE694  ASN695  SER759  ASP760  ASP761  ALA762  ILE779  LEU786  VAL792 
 PHE793  MET794  SER795  GLU796  ALA797  LYS798  CYS799  TRP800  GLU811  SER814 

> <Gold.Protein.RotatedAtoms>
  152.1460  133.4492  159.4789 H   0  0  0  0  0  0  0  0  0  0  0  0  # atno 6907 bound_to 6896
  150.6890  134.2247  159.4420 H   0  0  0  0  0  0  0  0  0  0  0  0  # atno 6908 bound_to 6896
  152.0141  134.9859  160.0619 H   0  0  0  0  0  0  0  0  0  0  0  0  # atno 6909 bound_to 6896
  145.9668  140.7423  142.9430 H   0  0  0  0  0  0  0  0  0  0  0  0  # atno 7974 bound_to 7965
  154.4577  140.1977  156.0332 H   0  0  0  0  0  0  0  0  0  0  0  0  # atno 8008 bound_to 7997
  156.0779  140.3275  155.7629 H   0  0  0  0  0  0  0  0  0  0  0  0  # atno 8009 bound_to 7997
  155.5159  140.0565  157.2906 H   0  0  0  0  0  0  0  0  0  0  0  0  # atno 8010 bound_to 7997
  139.7191  143.8985  152.2497 H   0  0  0  0  0  0  0  0  0  0  0  0  # atno 10167 bound_to 10162
  156.8352  130.9667  151.3104 H   0  0  0  0  0  0  0  0  0  0  0  0  # atno 10718 bound_to 10713
  154.2333  135.6357  153.5182 H   0  0  0  0  0  0  0  0  0  0  0  0  # atno 10763 bound_to 10752
  152.9944  135.5524  154.5989 H   0  0  0  0  0  0  0  0  0  0  0  0  # atno 10764 bound_to 10752
  154.5477  135.2899  155.1011 H   0  0  0  0  0  0  0  0  0  0  0  0  # atno 10765 bound_to 10752
  140.4668  134.6202  157.4866 H   0  0  0  0  0  0  0  0  0  0  0  0  # atno 11005 bound_to 11000
  144.6827  140.2683  143.7309 LP  0  0  0  0  0  0  0  0  0  0  0  0  # atno 17320 bound_to 7965
  145.7962  139.1946  143.2074 LP  0  0  0  0  0  0  0  0  0  0  0  0  # atno 17321 bound_to 7965
  139.8876  144.6983  150.8806 LP  0  0  0  0  0  0  0  0  0  0  0  0  # atno 17342 bound_to 10162
  140.7750  143.3611  151.1826 LP  0  0  0  0  0  0  0  0  0  0  0  0  # atno 17343 bound_to 10162
  157.6385  130.8786  149.9404 LP  0  0  0  0  0  0  0  0  0  0  0  0  # atno 17370 bound_to 10713
  156.0911  130.3663  150.0393 LP  0  0  0  0  0  0  0  0  0  0  0  0  # atno 17371 bound_to 10713
  139.9910  134.6985  155.9690 LP  0  0  0  0  0  0  0  0  0  0  0  0  # atno 17394 bound_to 11000
  141.1595  133.6540  156.4272 LP  0  0  0  0  0  0  0  0  0  0  0  0  # atno 17395 bound_to 11000

$$$$
