AV-unprocessed.smi:1478|AV-procd|sdf|5982|dock5
  -GOLD-   22720 6 73D 1   1.00000     0.00000
 Structure written by MMmdl.
 46 47  0  0  0  0  0  0  0  0  1 V2000
  151.9415  132.6582  156.9237 C   0  0  0  0  0  0  0  0  0  0  0  0
  151.1071  132.4812  158.0551 O   0  0  0  0  0  0  0  0  0  0  0  0
  149.7409  132.3403  157.7049 C   0  0  0  0  0  0  0  0  0  0  0  0
  148.9734  131.7835  158.9135 C   0  0  0  0  0  0  0  0  0  0  0  0
  148.4277  132.8591  159.7476 N   0  0  0  0  0  0  0  0  0  0  0  0
  148.6472  134.1312  159.2452 N   0  0  0  0  0  0  0  0  0  0  0  0
  148.2199  135.1681  159.8911 C   0  0  0  0  0  0  0  0  0  0  0  0
  148.4318  136.5527  159.3844 C   0  0  0  0  0  0  0  0  0  0  0  0
  148.1244  137.5428  160.0503 O   0  0  0  0  0  0  0  0  0  0  0  0
  148.9854  136.6386  158.1608 N   0  0  0  0  0  0  0  0  0  0  0  0
  149.2919  137.8754  157.4427 C   0  0  0  0  0  0  0  0  0  0  0  0
  150.6363  137.8402  156.6603 C   0  0  0  0  0  0  0  0  0  0  0  0
  150.4683  136.7563  155.5595 C   0  0  0  0  0  0  0  0  0  0  0  0
  149.5313  136.9327  154.6221 N   0  0  0  0  0  0  0  0  0  0  0  0
  151.1714  135.7468  155.5642 O   0  0  0  0  0  0  0  0  0  0  0  0
  150.9964  139.2345  156.0699 C   0  0  0  0  0  0  0  0  0  0  0  0
  152.4057  139.2645  155.4446 C   0  0  0  0  0  0  0  0  0  0  0  0
  153.3733  138.8863  156.4165 O   0  0  0  0  0  0  0  0  0  0  0  0
  153.1809  137.5658  156.9106 C   0  0  0  0  0  0  0  0  0  0  0  0
  151.8100  137.4643  157.6081 C   0  0  0  0  0  0  0  0  0  0  0  0
  147.5091  135.0193  161.1502 C   0  0  0  0  0  0  0  0  0  0  0  0
  147.3043  133.7724  161.6282 C   0  0  0  0  0  0  0  0  0  0  0  0
  147.7757  132.5831  160.9173 C   0  0  0  0  0  0  0  0  0  0  0  0
  147.6047  131.4380  161.3344 O   0  0  0  0  0  0  0  0  0  0  0  0
  152.9777  132.7624  157.2450 H   0  0  0  0  0  0  0  0  0  0  0  0
  151.6693  133.5572  156.3686 H   0  0  0  0  0  0  0  0  0  0  0  0
  151.8818  131.8005  156.2525 H   0  0  0  0  0  0  0  0  0  0  0  0
  149.3337  133.3076  157.4062 H   0  0  0  0  0  0  0  0  0  0  0  0
  149.6417  131.6637  156.8545 H   0  0  0  0  0  0  0  0  0  0  0  0
  148.1659  131.1382  158.5625 H   0  0  0  0  0  0  0  0  0  0  0  0
  149.6244  131.1373  159.5052 H   0  0  0  0  0  0  0  0  0  0  0  0
  149.2087  135.7744  157.6879 H   0  0  0  0  0  0  0  0  0  0  0  0
  148.4658  138.0447  156.7504 H   0  0  0  0  0  0  0  0  0  0  0  0
  149.2757  138.7249  158.1286 H   0  0  0  0  0  0  0  0  0  0  0  0
  149.4075  136.2413  153.8967 H   0  0  0  0  0  0  0  0  0  0  0  0
  148.9517  137.7592  154.6420 H   0  0  0  0  0  0  0  0  0  0  0  0
  150.2519  139.5650  155.3447 H   0  0  0  0  0  0  0  0  0  0  0  0
  150.9804  139.9858  156.8591 H   0  0  0  0  0  0  0  0  0  0  0  0
  152.4780  138.6143  154.5722 H   0  0  0  0  0  0  0  0  0  0  0  0
  152.6359  140.2729  155.1007 H   0  0  0  0  0  0  0  0  0  0  0  0
  153.2755  136.8426  156.0995 H   0  0  0  0  0  0  0  0  0  0  0  0
  153.9757  137.3421  157.6220 H   0  0  0  0  0  0  0  0  0  0  0  0
  151.8265  138.1338  158.4684 H   0  0  0  0  0  0  0  0  0  0  0  0
  151.6773  136.4636  158.0218 H   0  0  0  0  0  0  0  0  0  0  0  0
  147.1498  135.8792  161.6969 H   0  0  0  0  0  0  0  0  0  0  0  0
  146.7775  133.6473  162.5629 H   0  0  0  0  0  0  0  0  0  0  0  0
  1  2  1  0  0  0  0
  1 25  1  0  0  0  0
  1 26  1  0  0  0  0
  1 27  1  0  0  0  0
  2  3  1  0  0  0  0
  3  4  1  0  0  0  0
  3 28  1  0  0  0  0
  3 29  1  0  0  0  0
  4  5  1  0  0  0  0
  4 30  1  0  0  0  0
  4 31  1  0  0  0  0
  5 23  1  0  0  0  0
  5  6  1  0  0  0  0
  6  7  2  0  0  0  0
  7  8  1  0  0  0  0
  7 21  1  0  0  0  0
  8  9  2  0  0  0  0
  8 10  1  0  0  0  0
 10 11  1  0  0  0  0
 10 32  1  0  0  0  0
 11 12  1  0  0  0  0
 11 33  1  0  0  0  0
 11 34  1  0  0  0  0
 12 20  1  0  0  0  0
 12 13  1  0  0  0  0
 12 16  1  0  0  0  0
 13 14  1  0  0  0  0
 13 15  2  0  0  0  0
 14 35  1  0  0  0  0
 14 36  1  0  0  0  0
 16 17  1  0  0  0  0
 16 37  1  0  0  0  0
 16 38  1  0  0  0  0
 17 18  1  0  0  0  0
 17 39  1  0  0  0  0
 17 40  1  0  0  0  0
 18 19  1  0  0  0  0
 19 20  1  0  0  0  0
 19 41  1  0  0  0  0
 19 42  1  0  0  0  0
 20 43  1  0  0  0  0
 20 44  1  0  0  0  0
 21 22  2  0  0  0  0
 21 45  1  0  0  0  0
 22 23  1  0  0  0  0
 22 46  1  0  0  0  0
 23 24  2  0  0  0  0
M  END
> <s_m_source_file>
AV-unprocessed.smi

> <i_m_source_file_index>
1478

> <i_lp_mmshare_version>
43012

> <i_f3d_flags>
0

> <s_epik_input>
W0NIM11PW0NIMl1bQ0gyXW4xbmMoW2NIXVtjSF1jMT1PKUMoPU8pW05IXVtDSDJdQzIoQyg9TylbTkgyXSlbQ0gyXVtDSDJdT1tDSDJdW0NIMl0y

> <s_epik_cmdline>
J2VwaWtfcHl0aG9uJywgJy1waCcsICc3LjAnLCAnLXRuJywgJzgnLCAnLW1hJywgJzIwMCcsICctbWV0YWxfYmluZGluZycsICctaW1hZScsICc8aW5maWxlLm1hZT4nLCAnLW9tYWUnLCAnPG91dGZpbGUubWFlPic=

> <r_lp_tautomer_probability>
1

> <r_epik_Ionization_Penalty>
1.88897e-06

> <r_epik_Ionization_Penalty_Charging>
5.89949e-09

> <r_epik_Ionization_Penalty_Neutral>
1.88307e-06

> <r_epik_State_Penalty>
-0

> <r_epik_Charging_Adjusted_Penalty>
5.89949e-09

> <i_epik_Tot_Q>
0

> <i_epik_Tot_abs_Q>
0

> <r_epik_Metal_State_Penalty>
-0

> <b_epik_Metal_Only>
0

> <s_lp_Force_Field>
OPLS_2005

> <r_lp_Energy>
34.3796

> <b_lp_Chiralities_Consistent>
1

> <s_lp_Variant>
AV-unprocessed.smi:1478-1

> <Gold.Version>
5.8.1

> <Gold.Id.Protein>
6NUR|6NUR_protein|mol2

> <Gold.PLP.Fitness>
41.9857

> <Gold.PLP.PLP>
-27.9150

> <Gold.PLP.part.hbond>
-7.0000

> <Gold.PLP.part.metal>
0.0000

> <Gold.PLP.part.buried>
-3.8719

> <Gold.PLP.part.nonpolar>
-17.6437

> <Gold.PLP.part.repulsive>
0.1907

> <Gold.PLP.ligand.clash>
0.0000

> <Gold.PLP.ligand.torsion>
0.4769

> <Gold.PLP.Chemscore.Hbond>
4.9910

> <Gold.PLP.Chemscore.CHOScore>
0.0000

> <Gold.PLP.Chemscore.Metal>
0.0000

> <Gold.Chemscore.Hbonds>
donor molecule, donor type, donor heavy atom, donor atom, acceptor molecule, acceptor atom, score
      L1  H    14    35       P1  7948  0.70
      P1  H  6896  6907       L1     2  0.35
      P1  H  6896  6908       L1     6  1.00
      P1  H  6931  6943       L1     9  0.31
      P1  H  6934  6947       L1     9  0.58
      P1  H  7997  8010       L1    18  1.00
      P1  H 10752 10764       L1    15  1.00

> <Gold.PLP.Chemscore.Internal.Correction>
0.0515

> <Gold.Rescore>
     Score         DG    S(hbond)    S(metal)    S(lipo)     H(rot)  DE(clash)    DE(int)     intcor
     18.81     -20.33       4.55        0.00      56.09       2.69       0.11       1.42       ----

> <Gold.Chemscore.Fitness>
18.8074

> <Gold.Chemscore.DG>
-20.3325

> <Gold.Chemscore.ZeroCoef>
-5.4800

> <Gold.Chemscore.Hbond>
4.5472

> <Gold.Chemscore.Metal>
0.0000

> <Gold.Chemscore.Lipo>
56.0897

> <Gold.Chemscore.Internal_Hbond>
0.0000

> <Gold.Chemscore.DEClash>
0.1083

> <Gold.Chemscore.DEInternal>
1.4168

> <Gold.Chemscore.Rot>
2.6944

> <Gold.Chemscore.Internal.Correction>
   9.000000E+99

> <Gold.Chemscore.Hbonds>
donor molecule, donor type, donor heavy atom, donor atom, acceptor molecule, acceptor atom, score
      L1  H    14    35       P1  7948  0.51
      P1  H  6896  6907       L1     2  0.13
      P1  H  6896  6908       L1     6  0.10
      P1  H  6931  6943       L1     9  0.31
      P1  H  6934  6947       L1     9  0.57
      P1  H  7997  8010       L1    18  0.46
      P1  H 10752 10764       L1    15  0.98

> <Gold.Chemscore.Hbond.Weighted>
-15.1877

> <Gold.Chemscore.Metal.Weighted>
-0.0000

> <Gold.Chemscore.Lipo.Weighted>
-6.5625

> <Gold.Chemscore.Internal_Hbond.Weighted>
0.0000

> <Gold.Chemscore.DEClash.Weighted>
0.1083

> <Gold.Chemscore.DEInternal.Weighted>
1.4168

> <Gold.Chemscore.Rot.Weighted>
6.8976

> <Gold.Chemscore.Internal.Correction.Weighted>
   9.000000E+99

> <Gold.Protein.RotatedTorsions>
[ 6907 6896 6895 6894 ] final  154.85 input  -60.11 | X-H torsion
[ 7974 7965 7964 7962 ] final  177.71 input  175.53 | X-H torsion
[ 8008 7997 7996 7995 ] final   69.03 input   59.86 | X-H torsion
[ 10167 10162 10161 10158 ] final  171.45 input  -65.29 | X-H torsion
[ 10718 10713 10712 10709 ] final   35.77 input   66.30 | X-H torsion
[ 10763 10752 10751 10750 ] final  -46.85 input  -60.55 | X-H torsion
[ 11005 11000 10999 10996 ] final  -51.41 input  -57.11 | X-H torsion

> <Gold.Protein.ActiveResidues>
 VAL166  LYS551  ARG553  GLY616  TRP617  ASP618  TYR619  PRO620  LYS621  CYS622 
 ASP623  PHE694  ASN695  SER759  ASP760  ASP761  ALA762  ILE779  LEU786  VAL792 
 PHE793  MET794  SER795  GLU796  ALA797  LYS798  CYS799  TRP800  GLU811  SER814 

> <Gold.Protein.RotatedAtoms>
  152.0525  133.4025  159.4382 H   0  0  0  0  0  0  0  0  0  0  0  0  # atno 6907 bound_to 6896
  150.6869  134.3291  159.4829 H   0  0  0  0  0  0  0  0  0  0  0  0  # atno 6908 bound_to 6896
  152.1103  134.9279  160.0617 H   0  0  0  0  0  0  0  0  0  0  0  0  # atno 6909 bound_to 6896
  144.7165  140.0288  143.6439 H   0  0  0  0  0  0  0  0  0  0  0  0  # atno 7974 bound_to 7965
  155.7174  140.3493  155.5000 H   0  0  0  0  0  0  0  0  0  0  0  0  # atno 8008 bound_to 7997
  155.9301  140.1082  157.1161 H   0  0  0  0  0  0  0  0  0  0  0  0  # atno 8009 bound_to 7997
  154.4084  140.1233  156.4778 H   0  0  0  0  0  0  0  0  0  0  0  0  # atno 8010 bound_to 7997
  139.5047  144.3485  151.9947 H   0  0  0  0  0  0  0  0  0  0  0  0  # atno 10167 bound_to 10162
  157.3268  130.7477  149.6821 H   0  0  0  0  0  0  0  0  0  0  0  0  # atno 10718 bound_to 10713
  154.0518  135.6630  153.4801 H   0  0  0  0  0  0  0  0  0  0  0  0  # atno 10763 bound_to 10752
  153.0461  135.5114  154.7744 H   0  0  0  0  0  0  0  0  0  0  0  0  # atno 10764 bound_to 10752
  154.6752  135.3036  154.9654 H   0  0  0  0  0  0  0  0  0  0  0  0  # atno 10765 bound_to 10752
  141.0870  133.6640  156.3874 H   0  0  0  0  0  0  0  0  0  0  0  0  # atno 11005 bound_to 11000
  146.0120  139.3177  143.0865 LP  0  0  0  0  0  0  0  0  0  0  0  0  # atno 17320 bound_to 7965
  145.8671  140.9442  143.0670 LP  0  0  0  0  0  0  0  0  0  0  0  0  # atno 17321 bound_to 7965
  140.2922  144.3741  150.6085 LP  0  0  0  0  0  0  0  0  0  0  0  0  # atno 17342 bound_to 10162
  140.5938  143.2167  151.7203 LP  0  0  0  0  0  0  0  0  0  0  0  0  # atno 17343 bound_to 10162
  155.9691  130.4207  150.4434 LP  0  0  0  0  0  0  0  0  0  0  0  0  # atno 17370 bound_to 10713
  157.2459  131.0536  151.2408 LP  0  0  0  0  0  0  0  0  0  0  0  0  # atno 17371 bound_to 10713
  140.5341  134.6184  157.5359 LP  0  0  0  0  0  0  0  0  0  0  0  0  # atno 17394 bound_to 11000
  139.9689  134.7326  156.0081 LP  0  0  0  0  0  0  0  0  0  0  0  0  # atno 17395 bound_to 11000

$$$$
