AV-unprocessed.smi:3292|AV-procd|sdf|12623|dock1
  -GOLD-   2272018553D 1   1.00000     0.00000
 Structure written by MMmdl.
 39 40  0  0  0  0  0  0  0  0  2 V2000
  147.7074  131.6607  153.7923 C   0  0  0  0  0  0  0  0  0  0  0  0
  147.1507  132.9725  153.2231 C   0  0  2  0  0  0  0  0  0  0  0  0
  146.7651  132.8183  151.7344 C   0  0  0  0  0  0  0  0  0  0  0  0
  145.6876  133.7264  151.3230 N   0  0  0  0  0  0  0  0  0  0  0  0
  145.7410  135.0940  151.2355 C   0  0  0  0  0  0  0  0  0  0  0  0
  144.5134  135.5048  150.7833 C   0  0  0  0  0  0  0  0  0  0  0  0
  143.7601  134.3729  150.6221 N   0  3  0  0  0  0  0  0  0  0  0  0
  144.4730  133.2935  150.9591 C   0  0  0  0  0  0  0  0  0  0  0  0
  148.1471  134.0289  153.3997 N   0  0  0  0  0  0  0  0  0  0  0  0
  148.7481  134.3407  154.5574 C   0  0  0  0  0  0  0  0  0  0  0  0
  148.5852  133.7209  155.6087 O   0  0  0  0  0  0  0  0  0  0  0  0
  149.4978  135.4456  154.4490 N   0  0  0  0  0  0  0  0  0  0  0  0
  150.1359  136.1279  155.5700 C   0  0  0  0  0  0  0  0  0  0  0  0
  150.0874  137.6620  155.4136 C   0  0  1  0  0  0  0  0  0  0  0  0
  150.8553  138.4247  156.4828 C   0  0  0  0  0  0  0  0  0  0  0  0
  151.3616  139.6767  155.7566 C   0  0  0  0  0  0  0  0  0  0  0  0
  150.8901  139.5706  154.4183 O   0  0  0  0  0  0  0  0  0  0  0  0
  150.7134  138.1953  154.1277 C   0  0  0  0  0  0  0  0  0  0  0  0
  146.9771  130.8555  153.7072 H   0  0  0  0  0  0  0  0  0  0  0  0
  147.9583  131.7652  154.8483 H   0  0  0  0  0  0  0  0  0  0  0  0
  148.6092  131.3483  153.2641 H   0  0  0  0  0  0  0  0  0  0  0  0
  146.2535  133.2166  153.7954 H   0  0  0  0  0  0  0  0  0  0  0  0
  147.6293  132.9878  151.0898 H   0  0  0  0  0  0  0  0  0  0  0  0
  146.4196  131.8027  151.5370 H   0  0  0  0  0  0  0  0  0  0  0  0
  146.6292  135.6571  151.4827 H   0  0  0  0  0  0  0  0  0  0  0  0
  144.1304  136.4914  150.5674 H   0  0  0  0  0  0  0  0  0  0  0  0
  144.1378  132.2723  150.9264 H   0  0  0  0  0  0  0  0  0  0  0  0
  148.3541  134.5967  152.5908 H   0  0  0  0  0  0  0  0  0  0  0  0
  149.5814  135.8816  153.5422 H   0  0  0  0  0  0  0  0  0  0  0  0
  149.6606  135.8267  156.5051 H   0  0  0  0  0  0  0  0  0  0  0  0
  151.1707  135.7889  155.6254 H   0  0  0  0  0  0  0  0  0  0  0  0
  149.0503  138.0001  155.4463 H   0  0  0  0  0  0  0  0  0  0  0  0
  150.2208  138.6696  157.3353 H   0  0  0  0  0  0  0  0  0  0  0  0
  151.7015  137.8445  156.8529 H   0  0  0  0  0  0  0  0  0  0  0  0
  150.9976  140.5965  156.2150 H   0  0  0  0  0  0  0  0  0  0  0  0
  152.4520  139.7057  155.7573 H   0  0  0  0  0  0  0  0  0  0  0  0
  151.6821  137.7315  153.9337 H   0  0  0  0  0  0  0  0  0  0  0  0
  150.0780  138.0502  153.2541 H   0  0  0  0  0  0  0  0  0  0  0  0
  142.8025  134.3528  150.2938 H   0  0  0  0  0  0  0  0  0  0  0  0
  1  2  1  0  0  0  0
  1 19  1  0  0  0  0
  1 20  1  0  0  0  0
  1 21  1  0  0  0  0
  2  3  1  0  0  0  0
  2  9  1  0  0  0  0
  2 22  1  0  0  0  0
  3  4  1  0  0  0  0
  3 23  1  0  0  0  0
  3 24  1  0  0  0  0
  4  8  1  0  0  0  0
  4  5  1  0  0  0  0
  5  6  2  0  0  0  0
  5 25  1  0  0  0  0
  6  7  1  0  0  0  0
  6 26  1  0  0  0  0
  7  8  2  0  0  0  0
  7 39  1  0  0  0  0
  8 27  1  0  0  0  0
  9 10  1  0  0  0  0
  9 28  1  0  0  0  0
 10 11  2  0  0  0  0
 10 12  1  0  0  0  0
 12 13  1  0  0  0  0
 12 29  1  0  0  0  0
 13 14  1  0  0  0  0
 13 30  1  0  0  0  0
 13 31  1  0  0  0  0
 14 18  1  0  0  0  0
 14 15  1  0  0  0  0
 14 32  1  0  0  0  0
 15 16  1  0  0  0  0
 15 33  1  0  0  0  0
 15 34  1  0  0  0  0
 16 17  1  0  0  0  0
 16 35  1  0  0  0  0
 16 36  1  0  0  0  0
 17 18  1  0  0  0  0
 18 37  1  0  0  0  0
 18 38  1  0  0  0  0
M  CHG  1   7   1
M  END
> <s_m_source_file>
AV-unprocessed.smi

> <i_m_source_file_index>
3292

> <i_lp_mmshare_version>
43012

> <i_f3d_flags>
0

> <s_epik_input>
W2NIXTFuW2NIXVtjSF1uMVtDSDJdW0NAQEhdKFtDSDNdKVtOSF1DKD1PKVtOSF1bQ0gyXVtDQEBIXTJbQ0gyXVtDSDJdT1tDSDJdMg==

> <s_epik_cmdline>
J2VwaWtfcHl0aG9uJywgJy1waCcsICc3LjAnLCAnLXRuJywgJzgnLCAnLW1hJywgJzIwMCcsICctbWV0YWxfYmluZGluZycsICctaW1hZScsICc8aW5maWxlLm1hZT4nLCAnLW9tYWUnLCAnPG91dGZpbGUubWFlPic=

> <r_lp_tautomer_probability>
1

> <r_epik_Ionization_Penalty>
0.255703

> <r_epik_Ionization_Penalty_Charging>
0

> <r_epik_Ionization_Penalty_Neutral>
0.255703

> <r_epik_State_Penalty>
0.247169

> <r_epik_Charging_Adjusted_Penalty>
0.247169

> <i_epik_Tot_Q>
1

> <i_epik_Tot_abs_Q>
1

> <r_epik_Metal_State_Penalty>
0.536791

> <b_epik_Metal_Only>
0

> <s_lp_Force_Field>
OPLS_2005

> <r_lp_Energy>
18.6884

> <b_lp_Chiralities_Consistent>
1

> <s_lp_Variant>
AV-unprocessed.smi:3292-3

> <Gold.Version>
5.8.1

> <Gold.Id.Protein>
6NUR|6NUR_protein|mol2

> <Gold.PLP.Fitness>
47.0378

> <Gold.PLP.PLP>
-30.2441

> <Gold.PLP.part.hbond>
-4.0000

> <Gold.PLP.part.metal>
0.0000

> <Gold.PLP.part.buried>
-4.7365

> <Gold.PLP.part.nonpolar>
-22.1248

> <Gold.PLP.part.repulsive>
0.1964

> <Gold.PLP.ligand.clash>
0.0000

> <Gold.PLP.ligand.torsion>
0.5733

> <Gold.PLP.Chemscore.Hbond>
4.9500

> <Gold.PLP.Chemscore.CHOScore>
1.0000

> <Gold.PLP.Chemscore.Metal>
0.0000

> <Gold.Chemscore.Hbonds>
donor molecule, donor type, donor heavy atom, donor atom, acceptor molecule, acceptor atom, score
      L1  H     7    39       P1 10186  2.00
      L1  H     9    28       P1  7948  0.95
      L1  H    12    29       P1  7948  1.00
      P1  H  7989  7998       L1    17  1.00
      L1  C     5    25       P1  7948  1.00

> <Gold.PLP.Chemscore.Internal.Correction>
0.0903

> <Gold.Rescore>
     Score         DG    S(hbond)    S(metal)    S(lipo)     H(rot)  DE(clash)    DE(int)     intcor
     15.98     -18.08       3.74        0.00      49.82       2.24       0.03       2.07       ----

> <Gold.Chemscore.Fitness>
15.9780

> <Gold.Chemscore.DG>
-18.0817

> <Gold.Chemscore.ZeroCoef>
-5.4800

> <Gold.Chemscore.Hbond>
3.7420

> <Gold.Chemscore.Metal>
0.0000

> <Gold.Chemscore.Lipo>
49.8238

> <Gold.Chemscore.Internal_Hbond>
0.0000

> <Gold.Chemscore.DEClash>
0.0310

> <Gold.Chemscore.DEInternal>
2.0727

> <Gold.Chemscore.Rot>
2.2367

> <Gold.Chemscore.Internal.Correction>
   9.000000E+99

> <Gold.Chemscore.Hbonds>
donor molecule, donor type, donor heavy atom, donor atom, acceptor molecule, acceptor atom, score
      L1  H     7    39       P1 10186  0.78
      L1  H     9    28       P1  7948  0.21
      L1  H    12    29       P1  7948  0.25
      P1  H  7989  7998       L1    17  0.65

> <Gold.Chemscore.Hbond.Weighted>
-12.4981

> <Gold.Chemscore.Metal.Weighted>
-0.0000

> <Gold.Chemscore.Lipo.Weighted>
-5.8294

> <Gold.Chemscore.Internal_Hbond.Weighted>
0.0000

> <Gold.Chemscore.DEClash.Weighted>
0.0310

> <Gold.Chemscore.DEInternal.Weighted>
2.0727

> <Gold.Chemscore.Rot.Weighted>
5.7259

> <Gold.Chemscore.Internal.Correction.Weighted>
   9.000000E+99

> <Gold.Protein.RotatedTorsions>
[ 6907 6896 6895 6894 ] final -170.18 input  -60.11 | X-H torsion
[ 7974 7965 7964 7962 ] final -158.14 input  175.53 | X-H torsion
[ 8008 7997 7996 7995 ] final   36.41 input   59.86 | X-H torsion
[ 10167 10162 10161 10158 ] final   11.59 input  -65.29 | X-H torsion
[ 10718 10713 10712 10709 ] final  130.11 input   66.30 | X-H torsion
[ 10763 10752 10751 10750 ] final  108.46 input  -60.55 | X-H torsion
[ 11005 11000 10999 10996 ] final   40.24 input  -57.11 | X-H torsion

> <Gold.Protein.ActiveResidues>
 VAL166  LYS551  ARG553  GLY616  TRP617  ASP618  TYR619  PRO620  LYS621  CYS622 
 ASP623  PHE694  ASN695  SER759  ASP760  ASP761  ALA762  ILE779  LEU786  VAL792 
 PHE793  MET794  SER795  GLU796  ALA797  LYS798  CYS799  TRP800  GLU811  SER814 

> <Gold.Protein.RotatedAtoms>
  151.5035  133.3499  159.2872 H   0  0  0  0  0  0  0  0  0  0  0  0  # atno 6907 bound_to 6896
  150.8758  134.8142  159.7199 H   0  0  0  0  0  0  0  0  0  0  0  0  # atno 6908 bound_to 6896
  152.4729  134.4925  159.9751 H   0  0  0  0  0  0  0  0  0  0  0  0  # atno 6909 bound_to 6896
  144.7518  140.3870  143.6042 H   0  0  0  0  0  0  0  0  0  0  0  0  # atno 7974 bound_to 7965
  155.1869  140.3304  155.4365 H   0  0  0  0  0  0  0  0  0  0  0  0  # atno 8008 bound_to 7997
  156.2456  140.1917  156.6914 H   0  0  0  0  0  0  0  0  0  0  0  0  # atno 8009 bound_to 7997
  154.6233  140.0592  156.9628 H   0  0  0  0  0  0  0  0  0  0  0  0  # atno 8010 bound_to 7997
  140.6122  143.8383  150.7078 H   0  0  0  0  0  0  0  0  0  0  0  0  # atno 10167 bound_to 10162
  157.5093  131.1096  150.9316 H   0  0  0  0  0  0  0  0  0  0  0  0  # atno 10718 bound_to 10713
  153.4209  135.3811  155.2111 H   0  0  0  0  0  0  0  0  0  0  0  0  # atno 10763 bound_to 10752
  154.8744  135.3817  154.4385 H   0  0  0  0  0  0  0  0  0  0  0  0  # atno 10764 bound_to 10752
  153.4905  135.7088  153.5949 H   0  0  0  0  0  0  0  0  0  0  0  0  # atno 10765 bound_to 10752
  140.1950  134.3940  155.8126 H   0  0  0  0  0  0  0  0  0  0  0  0  # atno 11005 bound_to 11000
  145.6917  139.1640  143.2643 LP  0  0  0  0  0  0  0  0  0  0  0  0  # atno 17320 bound_to 7965
  146.1478  140.6967  142.9336 LP  0  0  0  0  0  0  0  0  0  0  0  0  # atno 17321 bound_to 7965
  140.1954  143.4002  152.1832 LP  0  0  0  0  0  0  0  0  0  0  0  0  # atno 17342 bound_to 10162
  139.5370  144.7220  151.4859 LP  0  0  0  0  0  0  0  0  0  0  0  0  # atno 17343 bound_to 10162
  156.9962  130.5582  149.5307 LP  0  0  0  0  0  0  0  0  0  0  0  0  # atno 17370 bound_to 10713
  156.0278  130.5371  150.8454 LP  0  0  0  0  0  0  0  0  0  0  0  0  # atno 17371 bound_to 10713
  141.2227  133.7065  156.8160 LP  0  0  0  0  0  0  0  0  0  0  0  0  # atno 17394 bound_to 11000
  140.2118  134.8822  157.3282 LP  0  0  0  0  0  0  0  0  0  0  0  0  # atno 17395 bound_to 11000

$$$$
