AV-unprocessed.smi:1011|AV-procd|sdf|4420|dock5
  -GOLD-   22720 2373D 1   1.00000     0.00000
 Structure written by MMmdl.
 43 45  0  0  0  0  0  0  0  0  1 V2000
  150.8125  130.1280  154.7654 C   0  0  0  0  0  0  0  0  0  0  0  0
  150.5325  131.5525  155.1484 C   0  0  0  0  0  0  0  0  0  0  0  0
  150.9267  132.2307  156.3367 C   0  0  0  0  0  0  0  0  0  0  0  0
  150.5211  133.4894  156.3694 N   0  0  0  0  0  0  0  0  0  0  0  0
  149.8565  133.6595  155.2072 N   0  0  0  0  0  0  0  0  0  0  0  0
  149.2667  134.9473  154.8982 C   0  0  0  0  0  0  0  0  0  0  0  0
  150.2698  136.0889  155.1115 C   0  0  0  0  0  0  0  0  0  0  0  0
  149.9070  137.2233  154.2784 N   0  0  0  0  0  0  0  0  0  0  0  0
  151.0650  138.0849  154.0895 C   0  0  0  0  0  0  0  0  0  0  0  0
  151.2133  139.1560  155.1334 C   0  0  0  0  0  0  0  0  0  0  0  0
  150.8264  140.4215  154.9517 N   0  0  0  0  0  0  0  0  0  0  0  0
  151.1495  141.0168  156.1553 C   0  0  0  0  0  0  0  0  0  0  0  0
  150.9876  142.3506  156.5930 C   0  0  0  0  0  0  0  0  0  0  0  0
  151.4008  142.7329  157.8864 C   0  0  0  0  0  0  0  0  0  0  0  0
  151.1951  144.3654  158.4054 Cl  0  0  0  0  0  0  0  0  0  0  0  0
  151.9816  141.7880  158.7576 C   0  0  0  0  0  0  0  0  0  0  0  0
  152.1523  140.4536  158.3410 C   0  0  0  0  0  0  0  0  0  0  0  0
  151.7359  140.0780  157.0499 C   0  0  0  0  0  0  0  0  0  0  0  0
  151.7563  138.8791  156.3450 N   0  0  0  0  0  0  0  0  0  0  0  0
  152.2663  137.6061  156.8286 C   0  0  0  0  0  0  0  0  0  0  0  0
  153.7994  137.6058  156.8990 C   0  0  0  0  0  0  0  0  0  0  0  0
  154.2761  136.2785  156.8790 O   0  0  0  0  0  0  0  0  0  0  0  0
  149.8475  132.5069  154.4508 C   0  0  0  0  0  0  0  0  0  0  0  0
  150.9567  129.4956  155.6416 H   0  0  0  0  0  0  0  0  0  0  0  0
  151.7140  130.0462  154.1581 H   0  0  0  0  0  0  0  0  0  0  0  0
  149.9945  129.6951  154.1891 H   0  0  0  0  0  0  0  0  0  0  0  0
  151.4934  131.8468  157.1722 H   0  0  0  0  0  0  0  0  0  0  0  0
  148.9205  134.9308  153.8636 H   0  0  0  0  0  0  0  0  0  0  0  0
  148.3856  135.0859  155.5268 H   0  0  0  0  0  0  0  0  0  0  0  0
  150.2765  136.3932  156.1593 H   0  0  0  0  0  0  0  0  0  0  0  0
  151.2767  135.7524  154.8605 H   0  0  0  0  0  0  0  0  0  0  0  0
  149.5893  136.8895  153.3798 H   0  0  0  0  0  0  0  0  0  0  0  0
  151.9701  137.4765  154.0988 H   0  0  0  0  0  0  0  0  0  0  0  0
  150.9981  138.5560  153.1083 H   0  0  0  0  0  0  0  0  0  0  0  0
  150.5443  143.0799  155.9313 H   0  0  0  0  0  0  0  0  0  0  0  0
  152.2964  142.0868  159.7466 H   0  0  0  0  0  0  0  0  0  0  0  0
  152.5969  139.7283  159.0061 H   0  0  0  0  0  0  0  0  0  0  0  0
  151.8431  137.4163  157.8158 H   0  0  0  0  0  0  0  0  0  0  0  0
  151.9083  136.8036  156.1828 H   0  0  0  0  0  0  0  0  0  0  0  0
  154.2274  138.1493  156.0562 H   0  0  0  0  0  0  0  0  0  0  0  0
  154.1438  138.0936  157.8116 H   0  0  0  0  0  0  0  0  0  0  0  0
  155.2170  136.2958  156.9676 H   0  0  0  0  0  0  0  0  0  0  0  0
  149.3607  132.4621  153.4877 H   0  0  0  0  0  0  0  0  0  0  0  0
  1  2  1  0  0  0  0
  1 24  1  0  0  0  0
  1 25  1  0  0  0  0
  1 26  1  0  0  0  0
  2 23  2  0  0  0  0
  2  3  1  0  0  0  0
  3  4  2  0  0  0  0
  3 27  1  0  0  0  0
  4  5  1  0  0  0  0
  5  6  1  0  0  0  0
  5 23  1  0  0  0  0
  6  7  1  0  0  0  0
  6 28  1  0  0  0  0
  6 29  1  0  0  0  0
  7  8  1  0  0  0  0
  7 30  1  0  0  0  0
  7 31  1  0  0  0  0
  8  9  1  0  0  0  0
  8 32  1  0  0  0  0
  9 10  1  0  0  0  0
  9 33  1  0  0  0  0
  9 34  1  0  0  0  0
 10 19  1  0  0  0  0
 10 11  2  0  0  0  0
 11 12  1  0  0  0  0
 12 18  2  0  0  0  0
 12 13  1  0  0  0  0
 13 14  2  0  0  0  0
 13 35  1  0  0  0  0
 14 15  1  0  0  0  0
 14 16  1  0  0  0  0
 16 17  2  0  0  0  0
 16 36  1  0  0  0  0
 17 18  1  0  0  0  0
 17 37  1  0  0  0  0
 18 19  1  0  0  0  0
 19 20  1  0  0  0  0
 20 21  1  0  0  0  0
 20 38  1  0  0  0  0
 20 39  1  0  0  0  0
 21 22  1  0  0  0  0
 21 40  1  0  0  0  0
 21 41  1  0  0  0  0
 22 42  1  0  0  0  0
 23 43  1  0  0  0  0
M  END
> <s_m_source_file>
AV-unprocessed.smi

> <i_m_source_file_index>
1011

> <i_lp_mmshare_version>
43012

> <i_f3d_flags>
0

> <s_epik_input>
W0NIM11jMVtjSF1ubihbY0hdMSlbQ0gyXVtDSDJdW05IXVtDSDJdYyhuMiluKFtDSDJdW0NIMl1bT0hdKWMoYzIzKVtjSF1bY0hdYyhDbClbY0hdMw==

> <s_epik_cmdline>
J2VwaWtfcHl0aG9uJywgJy1waCcsICc3LjAnLCAnLXRuJywgJzgnLCAnLW1hJywgJzIwMCcsICctbWV0YWxfYmluZGluZycsICctaW1hZScsICc8aW5maWxlLm1hZT4nLCAnLW9tYWUnLCAnPG91dGZpbGUubWFlPic=

> <r_lp_tautomer_probability>
1

> <r_epik_Ionization_Penalty>
0.714951

> <r_epik_Ionization_Penalty_Charging>
0

> <r_epik_Ionization_Penalty_Neutral>
0.714951

> <r_epik_State_Penalty>
0.695393

> <r_epik_Charging_Adjusted_Penalty>
0.695393

> <i_epik_Tot_Q>
0

> <i_epik_Tot_abs_Q>
0

> <r_epik_Metal_State_Penalty>
0.662708

> <b_epik_Metal_Only>
0

> <s_lp_Force_Field>
OPLS_2005

> <r_lp_Energy>
11.4797

> <b_lp_Chiralities_Consistent>
1

> <s_lp_Variant>
AV-unprocessed.smi:1011-2

> <Gold.Version>
5.8.1

> <Gold.Id.Protein>
6NUR|6NUR_protein|mol2

> <Gold.PLP.Fitness>
50.5335

> <Gold.PLP.PLP>
-43.5134

> <Gold.PLP.part.hbond>
-3.0914

> <Gold.PLP.part.metal>
0.0000

> <Gold.PLP.part.buried>
-6.0228

> <Gold.PLP.part.nonpolar>
-34.4988

> <Gold.PLP.part.repulsive>
0.0654

> <Gold.PLP.ligand.clash>
0.0000

> <Gold.PLP.ligand.torsion>
1.0745

> <Gold.PLP.Chemscore.Hbond>
3.0000

> <Gold.PLP.Chemscore.CHOScore>
0.0000

> <Gold.PLP.Chemscore.Metal>
0.0000

> <Gold.Chemscore.Hbonds>
donor molecule, donor type, donor heavy atom, donor atom, acceptor molecule, acceptor atom, score
      L1  H     8    32       P1  7948  1.00
      P1  H  7989  7998       L1    11  1.00
      P1  H 10752 10763       L1    22  1.00

> <Gold.PLP.Chemscore.Internal.Correction>
0.1692

> <Gold.Rescore>
     Score         DG    S(hbond)    S(metal)    S(lipo)     H(rot)  DE(clash)    DE(int)     intcor
     16.58     -18.01       2.20        0.00     106.51       2.84       0.26       1.16       ----

> <Gold.Chemscore.Fitness>
16.5838

> <Gold.Chemscore.DG>
-18.0113

> <Gold.Chemscore.ZeroCoef>
-5.4800

> <Gold.Chemscore.Hbond>
2.2008

> <Gold.Chemscore.Metal>
0.0000

> <Gold.Chemscore.Lipo>
106.5127

> <Gold.Chemscore.Internal_Hbond>
0.0000

> <Gold.Chemscore.DEClash>
0.2635

> <Gold.Chemscore.DEInternal>
1.1640

> <Gold.Chemscore.Rot>
2.8442

> <Gold.Chemscore.Internal.Correction>
   9.000000E+99

> <Gold.Chemscore.Hbonds>
donor molecule, donor type, donor heavy atom, donor atom, acceptor molecule, acceptor atom, score
      L1  H     8    32       P1  7948  0.70
      P1  H  7989  7998       L1    11  0.43
      P1  H 10752 10763       L1    22  0.54

> <Gold.Chemscore.Hbond.Weighted>
-7.3505

> <Gold.Chemscore.Metal.Weighted>
-0.0000

> <Gold.Chemscore.Lipo.Weighted>
-12.4620

> <Gold.Chemscore.Internal_Hbond.Weighted>
0.0000

> <Gold.Chemscore.DEClash.Weighted>
0.2635

> <Gold.Chemscore.DEInternal.Weighted>
1.1640

> <Gold.Chemscore.Rot.Weighted>
7.2812

> <Gold.Chemscore.Internal.Correction.Weighted>
   9.000000E+99

> <Gold.Protein.RotatedTorsions>
[ 6907 6896 6895 6894 ] final -102.57 input  -60.11 | X-H torsion
[ 7974 7965 7964 7962 ] final   91.56 input  175.53 | X-H torsion
[ 8008 7997 7996 7995 ] final -127.45 input   59.86 | X-H torsion
[ 10167 10162 10161 10158 ] final   45.30 input  -65.29 | X-H torsion
[ 10718 10713 10712 10709 ] final   88.23 input   66.30 | X-H torsion
[ 10763 10752 10751 10750 ] final  139.00 input  -60.55 | X-H torsion
[ 11005 11000 10999 10996 ] final  -43.76 input  -57.11 | X-H torsion

> <Gold.Protein.ActiveResidues>
 VAL166  LYS551  ARG553  GLY616  TRP617  ASP618  TYR619  PRO620  LYS621  CYS622 
 ASP623  PHE694  ASN695  SER759  ASP760  ASP761  ALA762  ILE779  LEU786  VAL792 
 PHE793  MET794  SER795  GLU796  ALA797  LYS798  CYS799  TRP800  GLU811  SER814 

> <Gold.Protein.RotatedAtoms>
  150.7202  134.0561  159.3814 H   0  0  0  0  0  0  0  0  0  0  0  0  # atno 6907 bound_to 6896
  151.8539  135.0546  160.0471 H   0  0  0  0  0  0  0  0  0  0  0  0  # atno 6908 bound_to 6896
  152.2769  133.5398  159.5510 H   0  0  0  0  0  0  0  0  0  0  0  0  # atno 6909 bound_to 6896
  145.5040  139.2276  143.2761 H   0  0  0  0  0  0  0  0  0  0  0  0  # atno 7974 bound_to 7965
  155.2464  140.0430  157.2981 H   0  0  0  0  0  0  0  0  0  0  0  0  # atno 8008 bound_to 7997
  154.5796  140.2397  155.8042 H   0  0  0  0  0  0  0  0  0  0  0  0  # atno 8009 bound_to 7997
  156.2183  140.2978  155.9900 H   0  0  0  0  0  0  0  0  0  0  0  0  # atno 8010 bound_to 7997
  140.3255  144.2652  150.6176 H   0  0  0  0  0  0  0  0  0  0  0  0  # atno 10167 bound_to 10162
  157.6947  131.0286  150.3242 H   0  0  0  0  0  0  0  0  0  0  0  0  # atno 10718 bound_to 10713
  153.8989  135.3024  155.3448 H   0  0  0  0  0  0  0  0  0  0  0  0  # atno 10763 bound_to 10752
  154.7680  135.4900  153.9595 H   0  0  0  0  0  0  0  0  0  0  0  0  # atno 10764 bound_to 10752
  153.1256  135.6792  153.9363 H   0  0  0  0  0  0  0  0  0  0  0  0  # atno 10765 bound_to 10752
  141.0405  133.6782  156.2778 H   0  0  0  0  0  0  0  0  0  0  0  0  # atno 11005 bound_to 11000
  146.2208  140.5843  142.9018 LP  0  0  0  0  0  0  0  0  0  0  0  0  # atno 17320 bound_to 7965
  144.7764  140.5748  143.6635 LP  0  0  0  0  0  0  0  0  0  0  0  0  # atno 17321 bound_to 7965
  140.5444  143.2217  151.8031 LP  0  0  0  0  0  0  0  0  0  0  0  0  # atno 17342 bound_to 10162
  139.4866  144.4558  151.9600 LP  0  0  0  0  0  0  0  0  0  0  0  0  # atno 17343 bound_to 10162
  156.3725  130.3866  149.7164 LP  0  0  0  0  0  0  0  0  0  0  0  0  # atno 17370 bound_to 10713
  156.4574  130.7935  151.2956 LP  0  0  0  0  0  0  0  0  0  0  0  0  # atno 17371 bound_to 10713
  140.6243  134.5330  157.5551 LP  0  0  0  0  0  0  0  0  0  0  0  0  # atno 17394 bound_to 11000
  139.9272  134.8032  156.1033 LP  0  0  0  0  0  0  0  0  0  0  0  0  # atno 17395 bound_to 11000

$$$$
