AV-unprocessed.smi:127|AV-procd|sdf|1153|dock9
  -GOLD-   2262018293D 1   1.00000     0.00000
 Structure written by MMmdl.
 28 29  0  0  0  0  0  0  0  0  2 V2000
  157.1447  140.9339  160.1543 O   0  0  0  0  0  0  0  0  0  0  0  0
  156.2548  140.0674  160.0109 C   0  0  0  0  0  0  0  0  0  0  0  0
  156.1487  139.2866  159.0402 O   0  5  0  0  0  0  0  0  0  0  0  0
  155.2065  139.9497  161.1215 C   0  0  0  0  0  0  0  0  0  0  0  0
  154.4619  141.1844  161.3256 N   0  0  0  0  0  0  0  0  0  0  0  0
  154.6601  141.8809  162.5450 C   0  0  0  0  0  0  0  0  0  0  0  0
  155.5210  141.5463  163.3609 O   0  0  0  0  0  0  0  0  0  0  0  0
  153.7722  143.0209  162.7462 C   0  0  0  0  0  0  0  0  0  0  0  0
  153.8936  143.7712  163.8547 F   0  0  0  0  0  0  0  0  0  0  0  0
  152.8281  143.3397  161.8355 C   0  0  0  0  0  0  0  0  0  0  0  0
  152.6309  142.6205  160.6693 N   0  0  0  0  0  0  0  0  0  0  0  0
  151.5618  143.0116  159.6731 C   0  0  2  0  0  0  0  0  0  0  0  0
  152.2038  143.5903  158.4072 C   0  0  0  0  0  0  0  0  0  0  0  0
  152.1897  145.0742  158.7026 C   0  0  0  0  0  0  0  0  0  0  0  0
  150.8881  145.2187  159.4829 C   0  0  0  0  0  0  0  0  0  0  0  0
  150.7580  144.0119  160.2309 O   0  0  0  0  0  0  0  0  0  0  0  0
  153.4575  141.5120  160.3817 C   0  0  0  0  0  0  0  0  0  0  0  0
  153.3063  140.8697  159.3396 O   0  0  0  0  0  0  0  0  0  0  0  0
  154.4976  139.1490  160.9053 H   0  0  0  0  0  0  0  0  0  0  0  0
  155.6686  139.6642  162.0679 H   0  0  0  0  0  0  0  0  0  0  0  0
  152.2066  144.1987  162.0398 H   0  0  0  0  0  0  0  0  0  0  0  0
  150.9645  142.1152  159.4991 H   0  0  0  0  0  0  0  0  0  0  0  0
  153.1978  143.1824  158.2188 H   0  0  0  0  0  0  0  0  0  0  0  0
  151.5607  143.3633  157.5560 H   0  0  0  0  0  0  0  0  0  0  0  0
  153.0404  145.3420  159.3304 H   0  0  0  0  0  0  0  0  0  0  0  0
  152.2202  145.6910  157.8042 H   0  0  0  0  0  0  0  0  0  0  0  0
  150.8823  146.0946  160.1320 H   0  0  0  0  0  0  0  0  0  0  0  0
  150.0422  145.2965  158.7987 H   0  0  0  0  0  0  0  0  0  0  0  0
  1  2  2  0  0  0  0
  2  3  1  0  0  0  0
  2  4  1  0  0  0  0
  4  5  1  0  0  0  0
  4 19  1  0  0  0  0
  4 20  1  0  0  0  0
  5 17  1  0  0  0  0
  5  6  1  0  0  0  0
  6  7  2  0  0  0  0
  6  8  1  0  0  0  0
  8  9  1  0  0  0  0
  8 10  2  0  0  0  0
 10 11  1  0  0  0  0
 10 21  1  0  0  0  0
 11 12  1  0  0  0  0
 11 17  1  0  0  0  0
 12 16  1  0  0  0  0
 12 13  1  0  0  0  0
 12 22  1  0  0  0  0
 13 14  1  0  0  0  0
 13 23  1  0  0  0  0
 13 24  1  0  0  0  0
 14 15  1  0  0  0  0
 14 25  1  0  0  0  0
 14 26  1  0  0  0  0
 15 16  1  0  0  0  0
 15 27  1  0  0  0  0
 15 28  1  0  0  0  0
 17 18  2  0  0  0  0
M  CHG  1   3  -1
M  END
> <s_m_source_file>
AV-unprocessed.smi

> <i_m_source_file_index>
127

> <i_lp_mmshare_version>
43012

> <i_f3d_flags>
0

> <s_epik_input>
Tz1DKFtPSF0pW0NIMl1uMWMoPU8pYyhGKVtjSF1uKGMxPU8pW0NAQEhdMltDSDJdW0NIMl1bQ0gyXU8y

> <s_epik_cmdline>
J2VwaWtfcHl0aG9uJywgJy1waCcsICc3LjAnLCAnLXRuJywgJzgnLCAnLW1hJywgJzIwMCcsICctbWV0YWxfYmluZGluZycsICctaW1hZScsICc8aW5maWxlLm1hZT4nLCAnLW9tYWUnLCAnPG91dGZpbGUubWFlPic=

> <r_lp_tautomer_probability>
1

> <r_epik_Ionization_Penalty>
0.00125813

> <r_epik_Ionization_Penalty_Charging>
0.00125813

> <r_epik_Ionization_Penalty_Neutral>
6.20402e-12

> <r_epik_State_Penalty>
0.000832915

> <r_epik_Charging_Adjusted_Penalty>
0.00209104

> <i_epik_Tot_Q>
-1

> <i_epik_Tot_abs_Q>
1

> <r_epik_Metal_State_Penalty>
-0

> <b_epik_Metal_Only>
0

> <s_epik_Chemistry_Notes>
This compound contains an acetal/aminal-like group ( X-CH(R)-Y where X, Y are N, S, or O) that may be acid/base labile, releasing an aldehyde.

> <s_lp_Force_Field>
OPLS_2005

> <r_lp_Energy>
23.3893

> <b_lp_Chiralities_Consistent>
1

> <s_lp_Variant>
AV-unprocessed.smi:127-1

> <Gold.Version>
5.8.1

> <Gold.Id.Protein>
6NUR|6NUR_protein|mol2

> <Gold.PLP.Fitness>
52.1728

> <Gold.PLP.PLP>
-46.7337

> <Gold.PLP.part.hbond>
-3.3181

> <Gold.PLP.part.metal>
0.0000

> <Gold.PLP.part.buried>
-3.0877

> <Gold.PLP.part.nonpolar>
-39.5954

> <Gold.PLP.part.repulsive>
0.1738

> <Gold.PLP.ligand.clash>
0.0000

> <Gold.PLP.ligand.torsion>
0.3028

> <Gold.PLP.Chemscore.Hbond>
2.0000

> <Gold.PLP.Chemscore.CHOScore>
0.0000

> <Gold.PLP.Chemscore.Metal>
0.0000

> <Gold.Chemscore.Hbonds>
donor molecule, donor type, donor heavy atom, donor atom, acceptor molecule, acceptor atom, score
      P1  H  7997  8008       L1     3  2.00

> <Gold.PLP.Chemscore.Internal.Correction>
0.0448

> <Gold.Rescore>
     Score         DG    S(hbond)    S(metal)    S(lipo)     H(rot)  DE(clash)    DE(int)     intcor
      9.91     -11.44       0.98        0.00      68.38       2.08       0.03       1.50       ----

> <Gold.Chemscore.Fitness>
9.9113

> <Gold.Chemscore.DG>
-11.4410

> <Gold.Chemscore.ZeroCoef>
-5.4800

> <Gold.Chemscore.Hbond>
0.9810

> <Gold.Chemscore.Metal>
0.0000

> <Gold.Chemscore.Lipo>
68.3791

> <Gold.Chemscore.Internal_Hbond>
0.0000

> <Gold.Chemscore.DEClash>
0.0281

> <Gold.Chemscore.DEInternal>
1.5016

> <Gold.Chemscore.Rot>
2.0765

> <Gold.Chemscore.Internal.Correction>
   9.000000E+99

> <Gold.Chemscore.Hbonds>
donor molecule, donor type, donor heavy atom, donor atom, acceptor molecule, acceptor atom, score
      P1  H  7997  8008       L1     3  0.92

> <Gold.Chemscore.Hbond.Weighted>
-3.2765

> <Gold.Chemscore.Metal.Weighted>
-0.0000

> <Gold.Chemscore.Lipo.Weighted>
-8.0004

> <Gold.Chemscore.Internal_Hbond.Weighted>
0.0000

> <Gold.Chemscore.DEClash.Weighted>
0.0281

> <Gold.Chemscore.DEInternal.Weighted>
1.5016

> <Gold.Chemscore.Rot.Weighted>
5.3159

> <Gold.Chemscore.Internal.Correction.Weighted>
   9.000000E+99

> <Gold.Protein.RotatedTorsions>
[ 6907 6896 6895 6894 ] final -100.88 input  -60.11 | X-H torsion
[ 7974 7965 7964 7962 ] final -142.09 input  175.53 | X-H torsion
[ 8008 7997 7996 7995 ] final -136.45 input   59.86 | X-H torsion
[ 10167 10162 10161 10158 ] final   77.48 input  -65.29 | X-H torsion
[ 10718 10713 10712 10709 ] final -117.13 input   66.30 | X-H torsion
[ 10763 10752 10751 10750 ] final  -23.31 input  -60.55 | X-H torsion
[ 11005 11000 10999 10996 ] final -132.54 input  -57.11 | X-H torsion

> <Gold.Protein.ActiveResidues>
 VAL166  LYS551  ARG553  GLY616  TRP617  ASP618  TYR619  PRO620  LYS621  CYS622 
 ASP623  PHE694  ASN695  SER759  ASP760  ASP761  ALA762  ILE779  LEU786  VAL792 
 PHE793  MET794  SER795  GLU796  ALA797  LYS798  CYS799  TRP800  GLU811  SER814 

> <Gold.Protein.RotatedAtoms>
  150.7133  134.0820  159.3900 H   0  0  0  0  0  0  0  0  0  0  0  0  # atno 6907 bound_to 6896
  151.8804  135.0453  160.0497 H   0  0  0  0  0  0  0  0  0  0  0  0  # atno 6908 bound_to 6896
  152.2572  133.5230  159.5397 H   0  0  0  0  0  0  0  0  0  0  0  0  # atno 6909 bound_to 6896
  144.8470  140.6001  143.5415 H   0  0  0  0  0  0  0  0  0  0  0  0  # atno 7974 bound_to 7965
  155.3954  140.0502  157.3039 H   0  0  0  0  0  0  0  0  0  0  0  0  # atno 8008 bound_to 7997
  154.5016  140.2159  155.9296 H   0  0  0  0  0  0  0  0  0  0  0  0  # atno 8009 bound_to 7997
  156.1474  140.3142  155.8598 H   0  0  0  0  0  0  0  0  0  0  0  0  # atno 8010 bound_to 7997
  139.9811  144.5825  150.7900 H   0  0  0  0  0  0  0  0  0  0  0  0  # atno 10167 bound_to 10162
  156.1012  130.6173  150.9125 H   0  0  0  0  0  0  0  0  0  0  0  0  # atno 10718 bound_to 10713
  153.6658  135.6974  153.5163 H   0  0  0  0  0  0  0  0  0  0  0  0  # atno 10763 bound_to 10752
  153.2596  135.4249  155.0880 H   0  0  0  0  0  0  0  0  0  0  0  0  # atno 10764 bound_to 10752
  154.8440  135.3551  154.6202 H   0  0  0  0  0  0  0  0  0  0  0  0  # atno 10765 bound_to 10752
  140.9161  134.1505  157.4351 H   0  0  0  0  0  0  0  0  0  0  0  0  # atno 11005 bound_to 11000
  145.4577  139.1516  143.3883 LP  0  0  0  0  0  0  0  0  0  0  0  0  # atno 17320 bound_to 7965
  146.2752  140.4706  142.8798 LP  0  0  0  0  0  0  0  0  0  0  0  0  # atno 17321 bound_to 7965
  140.7488  143.2929  151.3282 LP  0  0  0  0  0  0  0  0  0  0  0  0  # atno 17342 bound_to 10162
  139.6409  144.0541  152.2553 LP  0  0  0  0  0  0  0  0  0  0  0  0  # atno 17343 bound_to 10162
  157.6182  131.0931  150.8670 LP  0  0  0  0  0  0  0  0  0  0  0  0  # atno 17370 bound_to 10713
  156.8798  130.5175  149.5291 LP  0  0  0  0  0  0  0  0  0  0  0  0  # atno 17371 bound_to 10713
  139.8766  134.9954  156.5741 LP  0  0  0  0  0  0  0  0  0  0  0  0  # atno 17394 bound_to 11000
  140.8048  133.8476  155.8758 LP  0  0  0  0  0  0  0  0  0  0  0  0  # atno 17395 bound_to 11000

$$$$
