AV-unprocessed.smi:49|AV-procd|sdf|483|dock9
  -GOLD-   2262016343D 1   1.00000     0.00000
 Structure written by MMmdl.
 27 28  0  0  0  0  0  0  0  0  3 V2000
  149.3758  133.4435  154.5346 C   0  0  0  0  0  0  0  0  0  0  0  0
  149.9245  134.3351  155.6531 C   0  0  0  0  0  0  0  0  0  0  0  0
  150.0665  135.7764  155.2155 C   0  0  0  0  0  0  0  0  0  0  0  0
  149.0684  136.6009  154.9135 N   0  0  0  0  0  0  0  0  0  0  0  0
  149.6398  137.7782  154.6272 C   0  0  0  0  0  0  0  0  0  0  0  0
  148.8747  139.0113  154.1868 C   0  0  2  0  0  0  0  0  0  0  0  0
  147.6877  139.3205  155.1107 C   0  0  0  0  0  0  0  0  0  0  0  0
  146.4918  138.7191  154.3784 C   0  0  1  0  0  0  0  0  0  0  0  0
  145.2764  139.3369  154.7453 O   0  0  0  0  0  0  0  0  0  0  0  0
  146.8438  138.9582  152.9109 C   0  0  0  0  0  0  0  0  0  0  0  0
  148.3092  138.8151  152.8345 N   0  3  0  0  0  0  0  0  0  0  0  0
  150.9757  137.6961  154.7371 N   0  0  0  0  0  0  0  0  0  0  0  0
  151.2206  136.4592  155.1150 N   0  5  0  0  0  0  0  0  0  0  0  0
  149.5657  139.8549  154.1675 H   0  0  0  0  0  0  0  0  0  0  0  0
  146.4346  137.6480  154.5784 H   0  0  0  0  0  0  0  0  0  0  0  0
  149.2827  132.4107  154.8707 H   0  0  0  0  0  0  0  0  0  0  0  0
  150.0346  133.4542  153.6659 H   0  0  0  0  0  0  0  0  0  0  0  0
  148.3901  133.7805  154.2124 H   0  0  0  0  0  0  0  0  0  0  0  0
  149.2648  134.2936  156.5204 H   0  0  0  0  0  0  0  0  0  0  0  0
  150.8976  133.9675  155.9798 H   0  0  0  0  0  0  0  0  0  0  0  0
  147.8133  138.9434  156.1267 H   0  0  0  0  0  0  0  0  0  0  0  0
  147.5642  140.4030  155.1762 H   0  0  0  0  0  0  0  0  0  0  0  0
  144.9118  139.7603  153.9826 H   0  0  0  0  0  0  0  0  0  0  0  0
  146.3337  138.2721  152.2345 H   0  0  0  0  0  0  0  0  0  0  0  0
  146.5880  139.9774  152.6171 H   0  0  0  0  0  0  0  0  0  0  0  0
  148.7013  139.4750  152.1787 H   0  0  0  0  0  0  0  0  0  0  0  0
  148.5334  137.8733  152.5450 H   0  0  0  0  0  0  0  0  0  0  0  0
  1  2  1  0  0  0  0
  1 16  1  0  0  0  0
  1 17  1  0  0  0  0
  1 18  1  0  0  0  0
  2  3  1  0  0  0  0
  2 19  1  0  0  0  0
  2 20  1  0  0  0  0
  3 13  1  0  0  0  0
  3  4  2  0  0  0  0
  4  5  1  0  0  0  0
  5  6  1  0  0  0  0
  5 12  2  0  0  0  0
  6 14  1  0  0  0  0
  6 11  1  0  0  0  0
  6  7  1  0  0  0  0
  7  8  1  0  0  0  0
  7 21  1  0  0  0  0
  7 22  1  0  0  0  0
  8 15  1  0  0  0  0
  8  9  1  0  0  0  0
  8 10  1  0  0  0  0
  9 23  1  0  0  0  0
 10 11  1  0  0  0  0
 10 24  1  0  0  0  0
 10 25  1  0  0  0  0
 11 26  1  0  0  0  0
 11 27  1  0  0  0  0
 12 13  1  0  0  0  0
M  CHG  1  11   1
M  CHG  1  13  -1
M  END
> <s_m_source_file>
AV-unprocessed.smi

> <i_m_source_file_index>
49

> <i_lp_mmshare_version>
43012

> <i_f3d_flags>
0

> <s_epik_input>
W0NIM11bQ0gyXWMxbmMobltuSF0xKVtDQEBIXTJbQ0gyXVtDQEBIXShbT0hdKVtDSDJdW05IXTI=

> <s_epik_cmdline>
J2VwaWtfcHl0aG9uJywgJy1waCcsICc3LjAnLCAnLXRuJywgJzgnLCAnLW1hJywgJzIwMCcsICctbWV0YWxfYmluZGluZycsICctaW1hZScsICc8aW5maWxlLm1hZT4nLCAnLW9tYWUnLCAnPG91dGZpbGUubWFlPic=

> <r_lp_tautomer_probability>
0.948284

> <r_epik_Ionization_Penalty>
3.22013

> <r_epik_Ionization_Penalty_Charging>
3.22013

> <r_epik_Ionization_Penalty_Neutral>
3.9133e-08

> <r_epik_State_Penalty>
2.79459

> <r_epik_Charging_Adjusted_Penalty>
6.01472

> <i_epik_Tot_Q>
0

> <i_epik_Tot_abs_Q>
2

> <r_epik_Metal_State_Penalty>
0.589377

> <b_epik_Metal_Only>
1

> <s_lp_Force_Field>
OPLS_2005

> <r_lp_Energy>
10.361

> <b_lp_Chiralities_Consistent>
1

> <s_lp_Variant>
AV-unprocessed.smi:49-21

> <Gold.Version>
5.8.1

> <Gold.Id.Protein>
6NUR|6NUR_protein|mol2

> <Gold.PLP.Fitness>
33.8442

> <Gold.PLP.PLP>
-16.6177

> <Gold.PLP.part.hbond>
-3.7499

> <Gold.PLP.part.metal>
0.0000

> <Gold.PLP.part.buried>
-3.9125

> <Gold.PLP.part.nonpolar>
-10.9527

> <Gold.PLP.part.repulsive>
0.8707

> <Gold.PLP.ligand.clash>
0.0000

> <Gold.PLP.ligand.torsion>
0.2451

> <Gold.PLP.Chemscore.Hbond>
5.9013

> <Gold.PLP.Chemscore.CHOScore>
0.0000

> <Gold.PLP.Chemscore.Metal>
0.0000

> <Gold.Chemscore.Hbonds>
donor molecule, donor type, donor heavy atom, donor atom, acceptor molecule, acceptor atom, score
      L1  H     9    23       P1 10175  0.89
      L1  H    11    26       P1  7957  0.83
      L1  H    11    27       P1  7948  2.00
      P1  H 10752 10763       L1    13  2.00

> <Gold.PLP.Chemscore.Internal.Correction>
0.0130

> <Gold.Rescore>
     Score         DG    S(hbond)    S(metal)    S(lipo)     H(rot)  DE(clash)    DE(int)     intcor
     16.48     -16.83       3.85        0.00      27.74       1.86       0.06       0.28       ----

> <Gold.Chemscore.Fitness>
16.4842

> <Gold.Chemscore.DG>
-16.8256

> <Gold.Chemscore.ZeroCoef>
-5.4800

> <Gold.Chemscore.Hbond>
3.8481

> <Gold.Chemscore.Metal>
0.0000

> <Gold.Chemscore.Lipo>
27.7442

> <Gold.Chemscore.Internal_Hbond>
0.0000

> <Gold.Chemscore.DEClash>
0.0589

> <Gold.Chemscore.DEInternal>
0.2824

> <Gold.Chemscore.Rot>
1.8567

> <Gold.Chemscore.Internal.Correction>
   9.000000E+99

> <Gold.Chemscore.Hbonds>
donor molecule, donor type, donor heavy atom, donor atom, acceptor molecule, acceptor atom, score
      L1  H     9    23       P1 10175  0.87
      L1  H    11    26       P1  7957  0.82
      L1  H    11    27       P1  7948  1.00
      P1  H 10752 10763       L1    13  0.94

> <Gold.Chemscore.Hbond.Weighted>
-12.8526

> <Gold.Chemscore.Metal.Weighted>
-0.0000

> <Gold.Chemscore.Lipo.Weighted>
-3.2461

> <Gold.Chemscore.Internal_Hbond.Weighted>
0.0000

> <Gold.Chemscore.DEClash.Weighted>
0.0589

> <Gold.Chemscore.DEInternal.Weighted>
0.2824

> <Gold.Chemscore.Rot.Weighted>
4.7531

> <Gold.Chemscore.Internal.Correction.Weighted>
   9.000000E+99

> <Gold.Protein.RotatedTorsions>
[ 6907 6896 6895 6894 ] final  150.44 input  -60.11 | X-H torsion
[ 7974 7965 7964 7962 ] final   45.91 input  175.53 | X-H torsion
[ 8008 7997 7996 7995 ] final  -67.38 input   59.86 | X-H torsion
[ 10167 10162 10161 10158 ] final  -89.15 input  -65.29 | X-H torsion
[ 10718 10713 10712 10709 ] final  158.57 input   66.30 | X-H torsion
[ 10763 10752 10751 10750 ] final   60.91 input  -60.55 | X-H torsion
[ 11005 11000 10999 10996 ] final  -98.53 input  -57.11 | X-H torsion

> <Gold.Protein.ActiveResidues>
 VAL166  LYS551  ARG553  GLY616  TRP617  ASP618  TYR619  PRO620  LYS621  CYS622 
 ASP623  PHE694  ASN695  SER759  ASP760  ASP761  ALA762  ILE779  LEU786  VAL792 
 PHE793  MET794  SER795  GLU796  ALA797  LYS798  CYS799  TRP800  GLU811  SER814 

> <Gold.Protein.RotatedAtoms>
  152.1144  133.4318  159.4645 H   0  0  0  0  0  0  0  0  0  0  0  0  # atno 6907 bound_to 6896
  150.6869  134.2609  159.4558 H   0  0  0  0  0  0  0  0  0  0  0  0  # atno 6908 bound_to 6896
  152.0481  134.9670  160.0625 H   0  0  0  0  0  0  0  0  0  0  0  0  # atno 6909 bound_to 6896
  146.0437  139.4913  142.9762 H   0  0  0  0  0  0  0  0  0  0  0  0  # atno 7974 bound_to 7965
  154.4796  140.0894  156.7345 H   0  0  0  0  0  0  0  0  0  0  0  0  # atno 8008 bound_to 7997
  155.4506  140.3457  155.4282 H   0  0  0  0  0  0  0  0  0  0  0  0  # atno 8009 bound_to 7997
  156.1170  140.1463  156.9246 H   0  0  0  0  0  0  0  0  0  0  0  0  # atno 8010 bound_to 7997
  140.3677  143.2810  151.9538 H   0  0  0  0  0  0  0  0  0  0  0  0  # atno 10167 bound_to 10162
  157.1761  131.0621  151.2157 H   0  0  0  0  0  0  0  0  0  0  0  0  # atno 10718 bound_to 10713
  152.9935  135.5519  154.5949 H   0  0  0  0  0  0  0  0  0  0  0  0  # atno 10763 bound_to 10752
  154.5303  135.2813  155.1188 H   0  0  0  0  0  0  0  0  0  0  0  0  # atno 10764 bound_to 10752
  154.2506  135.6399  153.5291 H   0  0  0  0  0  0  0  0  0  0  0  0  # atno 10765 bound_to 10752
  141.1341  133.8252  157.0851 H   0  0  0  0  0  0  0  0  0  0  0  0  # atno 11005 bound_to 11000
  145.6841  141.0183  143.1590 LP  0  0  0  0  0  0  0  0  0  0  0  0  # atno 17320 bound_to 7965
  144.7087  139.8456  143.7421 LP  0  0  0  0  0  0  0  0  0  0  0  0  # atno 17321 bound_to 7965
  139.4807  144.5935  151.7730 LP  0  0  0  0  0  0  0  0  0  0  0  0  # atno 17342 bound_to 10162
  140.5064  144.1091  150.5984 LP  0  0  0  0  0  0  0  0  0  0  0  0  # atno 17343 bound_to 10162
  157.3997  130.7326  149.6758 LP  0  0  0  0  0  0  0  0  0  0  0  0  # atno 17370 bound_to 10713
  155.9731  130.4124  150.4030 LP  0  0  0  0  0  0  0  0  0  0  0  0  # atno 17371 bound_to 10713
  140.0427  134.9846  157.0991 LP  0  0  0  0  0  0  0  0  0  0  0  0  # atno 17394 bound_to 11000
  140.4110  134.1981  155.7163 LP  0  0  0  0  0  0  0  0  0  0  0  0  # atno 17395 bound_to 11000

$$$$
