AV-unprocessed.smi:5|AV-procd|sdf|38|dock10
  -GOLD-   2262015153D 1   1.00000     0.00000
 Structure written by MMmdl.
 43 44  0  0  0  0  0  0  0  0  2 V2000
  152.9758  142.7909  162.6192 C   0  0  0  0  0  0  0  0  0  0  0  0
  152.6694  143.2463  161.2072 C   0  0  0  0  0  0  0  0  0  0  0  0
  151.9254  144.3383  160.9449 C   0  0  0  0  0  0  0  0  0  0  0  0
  151.6318  144.8146  159.5330 C   0  0  0  0  0  0  0  0  0  0  0  0
  152.5161  144.0886  158.5017 C   0  0  0  0  0  0  0  0  0  0  0  0
  152.5545  142.6477  158.8084 N   0  0  0  0  0  0  0  0  0  0  0  0
  151.9114  141.6718  158.1178 C   0  0  0  0  0  0  0  0  0  0  0  0
  151.6295  140.5744  158.6007 O   0  0  0  0  0  0  0  0  0  0  0  0
  151.5454  142.0179  156.8712 N   0  0  0  0  0  0  0  0  0  0  0  0
  150.6513  141.2489  156.0087 C   0  0  0  0  0  0  0  0  0  0  0  0
  150.9002  139.7398  156.0573 C   0  0  0  0  0  0  0  0  0  0  0  0
  150.0955  138.8574  156.6919 C   0  0  0  0  0  0  0  0  0  0  0  0
  150.3503  137.4745  156.7331 N   0  0  0  0  0  0  0  0  0  0  0  0
  149.3954  136.6229  157.4774 C   0  0  0  0  0  0  0  0  0  0  0  0
  148.0068  136.6342  156.8136 C   0  0  0  0  0  0  0  0  0  0  0  0
  149.3352  137.0052  158.9690 C   0  0  0  0  0  0  0  0  0  0  0  0
  151.4493  136.9765  156.0889 C   0  0  0  0  0  0  0  0  0  0  0  0
  151.6667  135.7649  156.1111 O   0  0  0  0  0  0  0  0  0  0  0  0
  152.2794  137.8435  155.4332 N   0  5  0  0  0  0  0  0  0  0  0  0
  152.0763  139.1912  155.3782 C   0  0  0  0  0  0  0  0  0  0  0  0
  152.8413  139.9459  154.7784 O   0  0  0  0  0  0  0  0  0  0  0  0
  153.2347  142.3768  160.0870 C   0  0  0  0  0  0  0  0  0  0  0  0
  154.0538  142.7407  162.7735 H   0  0  0  0  0  0  0  0  0  0  0  0
  152.5561  141.8005  162.7967 H   0  0  0  0  0  0  0  0  0  0  0  0
  152.5572  143.4750  163.3581 H   0  0  0  0  0  0  0  0  0  0  0  0
  151.5088  144.9236  161.7516 H   0  0  0  0  0  0  0  0  0  0  0  0
  150.5771  144.6343  159.3232 H   0  0  0  0  0  0  0  0  0  0  0  0
  151.7928  145.8911  159.4727 H   0  0  0  0  0  0  0  0  0  0  0  0
  152.1934  144.3263  157.4880 H   0  0  0  0  0  0  0  0  0  0  0  0
  153.5351  144.4730  158.5692 H   0  0  0  0  0  0  0  0  0  0  0  0
  151.8194  142.9307  156.5384 H   0  0  0  0  0  0  0  0  0  0  0  0
  149.6263  141.4432  156.3253 H   0  0  0  0  0  0  0  0  0  0  0  0
  150.7310  141.6014  154.9788 H   0  0  0  0  0  0  0  0  0  0  0  0
  149.1993  139.1543  157.2131 H   0  0  0  0  0  0  0  0  0  0  0  0
  149.7206  135.5824  157.4622 H   0  0  0  0  0  0  0  0  0  0  0  0
  147.3322  135.9388  157.3134 H   0  0  0  0  0  0  0  0  0  0  0  0
  148.0723  136.3323  155.7678 H   0  0  0  0  0  0  0  0  0  0  0  0
  147.5428  137.6198  156.8481 H   0  0  0  0  0  0  0  0  0  0  0  0
  148.7193  136.2975  159.5241 H   0  0  0  0  0  0  0  0  0  0  0  0
  148.9102  137.9962  159.1291 H   0  0  0  0  0  0  0  0  0  0  0  0
  150.3300  136.9923  159.4153 H   0  0  0  0  0  0  0  0  0  0  0  0
  154.3020  142.5749  159.9837 H   0  0  0  0  0  0  0  0  0  0  0  0
  153.1442  141.3334  160.3915 H   0  0  0  0  0  0  0  0  0  0  0  0
  1  2  1  0  0  0  0
  1 23  1  0  0  0  0
  1 24  1  0  0  0  0
  1 25  1  0  0  0  0
  2 22  1  0  0  0  0
  2  3  2  0  0  0  0
  3  4  1  0  0  0  0
  3 26  1  0  0  0  0
  4  5  1  0  0  0  0
  4 27  1  0  0  0  0
  4 28  1  0  0  0  0
  5  6  1  0  0  0  0
  5 29  1  0  0  0  0
  5 30  1  0  0  0  0
  6  7  1  0  0  0  0
  6 22  1  0  0  0  0
  7  8  2  0  0  0  0
  7  9  1  0  0  0  0
  9 10  1  0  0  0  0
  9 31  1  0  0  0  0
 10 11  1  0  0  0  0
 10 32  1  0  0  0  0
 10 33  1  0  0  0  0
 11 20  1  0  0  0  0
 11 12  2  0  0  0  0
 12 13  1  0  0  0  0
 12 34  1  0  0  0  0
 13 14  1  0  0  0  0
 13 17  1  0  0  0  0
 14 15  1  0  0  0  0
 14 16  1  0  0  0  0
 14 35  1  0  0  0  0
 15 36  1  0  0  0  0
 15 37  1  0  0  0  0
 15 38  1  0  0  0  0
 16 39  1  0  0  0  0
 16 40  1  0  0  0  0
 16 41  1  0  0  0  0
 17 18  2  0  0  0  0
 17 19  1  0  0  0  0
 19 20  1  0  0  0  0
 20 21  2  0  0  0  0
 22 42  1  0  0  0  0
 22 43  1  0  0  0  0
M  CHG  1  19  -1
M  END
> <s_m_source_file>
AV-unprocessed.smi

> <i_m_source_file_index>
5

> <i_lp_mmshare_version>
43012

> <i_f3d_flags>
0

> <s_epik_input>
W0NIM11DMT1bQ0hdW0NIMl1bQ0gyXU4oW0NIMl0xKUMoPU8pW05IXVtDSDJdYzJbY0hdbihbQ0hdKFtDSDNdKVtDSDNdKWMoPU8pW25IXWMyPU8=

> <s_epik_cmdline>
J2VwaWtfcHl0aG9uJywgJy1waCcsICc3LjAnLCAnLXRuJywgJzgnLCAnLW1hJywgJzIwMCcsICctbWV0YWxfYmluZGluZycsICctaW1hZScsICc8aW5maWxlLm1hZT4nLCAnLW9tYWUnLCAnPG91dGZpbGUubWFlPic=

> <r_lp_tautomer_probability>
0.999537

> <r_epik_Ionization_Penalty>
3.83548

> <r_epik_Ionization_Penalty_Charging>
1.96903e-07

> <r_epik_Ionization_Penalty_Neutral>
3.83548

> <r_epik_State_Penalty>
3.83512

> <r_epik_Charging_Adjusted_Penalty>
3.83512

> <i_epik_Tot_Q>
-1

> <i_epik_Tot_abs_Q>
1

> <r_epik_Metal_State_Penalty>
0.576105

> <b_epik_Metal_Only>
1

> <s_lp_Force_Field>
OPLS_2005

> <r_lp_Energy>
38.6384

> <b_lp_Chiralities_Consistent>
1

> <s_lp_Variant>
AV-unprocessed.smi:5-2

> <Gold.Version>
5.8.1

> <Gold.Id.Protein>
6NUR|6NUR_protein|mol2

> <Gold.PLP.Fitness>
51.0685

> <Gold.PLP.PLP>
-44.5911

> <Gold.PLP.part.hbond>
-3.3828

> <Gold.PLP.part.metal>
0.0000

> <Gold.PLP.part.buried>
-3.7683

> <Gold.PLP.part.nonpolar>
-37.0638

> <Gold.PLP.part.repulsive>
0.1566

> <Gold.PLP.ligand.clash>
0.0000

> <Gold.PLP.ligand.torsion>
0.4641

> <Gold.PLP.Chemscore.Hbond>
2.4480

> <Gold.PLP.Chemscore.CHOScore>
0.0000

> <Gold.PLP.Chemscore.Metal>
0.0000

> <Gold.Chemscore.Hbonds>
donor molecule, donor type, donor heavy atom, donor atom, acceptor molecule, acceptor atom, score
      P1  H  7989  7998       L1    21  0.38
      P1  H  7997  8008       L1    21  1.00
      P1  H 10752 10765       L1    18  1.00

> <Gold.PLP.Chemscore.Internal.Correction>
0.0616

> <Gold.Rescore>
     Score         DG    S(hbond)    S(metal)    S(lipo)     H(rot)  DE(clash)    DE(int)     intcor
     17.40     -19.29       1.97        0.00      93.59       1.46       0.33       1.55       ----

> <Gold.Chemscore.Fitness>
17.4019

> <Gold.Chemscore.DG>
-19.2883

> <Gold.Chemscore.ZeroCoef>
-5.4800

> <Gold.Chemscore.Hbond>
1.9717

> <Gold.Chemscore.Metal>
0.0000

> <Gold.Chemscore.Lipo>
93.5927

> <Gold.Chemscore.Internal_Hbond>
0.0000

> <Gold.Chemscore.DEClash>
0.3343

> <Gold.Chemscore.DEInternal>
1.5521

> <Gold.Chemscore.Rot>
1.4561

> <Gold.Chemscore.Internal.Correction>
   9.000000E+99

> <Gold.Chemscore.Hbonds>
donor molecule, donor type, donor heavy atom, donor atom, acceptor molecule, acceptor atom, score
      P1  H  7989  7998       L1    21  0.17
      P1  H  7997  8008       L1    21  0.69
      P1  H 10752 10765       L1    18  0.50

> <Gold.Chemscore.Hbond.Weighted>
-6.5855

> <Gold.Chemscore.Metal.Weighted>
-0.0000

> <Gold.Chemscore.Lipo.Weighted>
-10.9504

> <Gold.Chemscore.Internal_Hbond.Weighted>
0.0000

> <Gold.Chemscore.DEClash.Weighted>
0.3343

> <Gold.Chemscore.DEInternal.Weighted>
1.5521

> <Gold.Chemscore.Rot.Weighted>
3.7276

> <Gold.Chemscore.Internal.Correction.Weighted>
   9.000000E+99

> <Gold.Protein.RotatedTorsions>
[ 6907 6896 6895 6894 ] final  110.57 input  -60.11 | X-H torsion
[ 7974 7965 7964 7962 ] final -152.31 input  175.53 | X-H torsion
[ 8008 7997 7996 7995 ] final  -15.05 input   59.86 | X-H torsion
[ 10167 10162 10161 10158 ] final  -44.29 input  -65.29 | X-H torsion
[ 10718 10713 10712 10709 ] final  -11.99 input   66.30 | X-H torsion
[ 10763 10752 10751 10750 ] final -159.40 input  -60.55 | X-H torsion
[ 11005 11000 10999 10996 ] final -131.14 input  -57.11 | X-H torsion

> <Gold.Protein.ActiveResidues>
 VAL166  LYS551  ARG553  GLY616  TRP617  ASP618  TYR619  PRO620  LYS621  CYS622 
 ASP623  PHE694  ASN695  SER759  ASP760  ASP761  ALA762  ILE779  LEU786  VAL792 
 PHE793  MET794  SER795  GLU796  ALA797  LYS798  CYS799  TRP800  GLU811  SER814 

> <Gold.Protein.RotatedAtoms>
  152.5013  133.8781  159.7332 H   0  0  0  0  0  0  0  0  0  0  0  0  # atno 6907 bound_to 6896
  150.9251  133.6825  159.2830 H   0  0  0  0  0  0  0  0  0  0  0  0  # atno 6908 bound_to 6896
  151.4189  135.0999  159.9660 H   0  0  0  0  0  0  0  0  0  0  0  0  # atno 6909 bound_to 6896
  144.7801  140.4679  143.5845 H   0  0  0  0  0  0  0  0  0  0  0  0  # atno 7974 bound_to 7965
  154.5161  140.2206  155.9063 H   0  0  0  0  0  0  0  0  0  0  0  0  # atno 8008 bound_to 7997
  156.1609  140.3142  155.8771 H   0  0  0  0  0  0  0  0  0  0  0  0  # atno 8009 bound_to 7997
  155.3753  140.0469  157.3035 H   0  0  0  0  0  0  0  0  0  0  0  0  # atno 8010 bound_to 7997
  140.6902  143.2938  151.3475 H   0  0  0  0  0  0  0  0  0  0  0  0  # atno 10167 bound_to 10162
  156.6510  130.4955  149.6062 H   0  0  0  0  0  0  0  0  0  0  0  0  # atno 10718 bound_to 10713
  154.7478  135.3084  154.8613 H   0  0  0  0  0  0  0  0  0  0  0  0  # atno 10763 bound_to 10752
  153.9409  135.6775  153.4748 H   0  0  0  0  0  0  0  0  0  0  0  0  # atno 10764 bound_to 10752
  153.1074  135.4882  154.8902 H   0  0  0  0  0  0  0  0  0  0  0  0  # atno 10765 bound_to 10752
  140.9284  134.1351  157.4255 H   0  0  0  0  0  0  0  0  0  0  0  0  # atno 11005 bound_to 11000
  145.6075  139.1510  143.3094 LP  0  0  0  0  0  0  0  0  0  0  0  0  # atno 17320 bound_to 7965
  146.2004  140.6193  142.9105 LP  0  0  0  0  0  0  0  0  0  0  0  0  # atno 17321 bound_to 7965
  139.6298  144.0744  152.2466 LP  0  0  0  0  0  0  0  0  0  0  0  0  # atno 17342 bound_to 10162
  140.0215  144.6150  150.7563 LP  0  0  0  0  0  0  0  0  0  0  0  0  # atno 17343 bound_to 10162
  156.2084  130.6663  151.1243 LP  0  0  0  0  0  0  0  0  0  0  0  0  # atno 17370 bound_to 10713
  157.7141  131.0719  150.6394 LP  0  0  0  0  0  0  0  0  0  0  0  0  # atno 17371 bound_to 10713
  139.8791  134.9996  156.5966 LP  0  0  0  0  0  0  0  0  0  0  0  0  # atno 17394 bound_to 11000
  140.7895  133.8594  155.8634 LP  0  0  0  0  0  0  0  0  0  0  0  0  # atno 17395 bound_to 11000

$$$$
