AV-unprocessed.smi:1756|AV-procd|sdf|7071|dock10
  -GOLD-   22720 8293D 1   1.00000     0.00000
 Structure written by MMmdl.
 38 39  0  0  0  0  0  0  0  0  1 V2000
  147.2289  134.3273  147.5574 O   0  0  0  0  0  0  0  0  0  0  0  0
  147.8148  134.7579  148.5502 C   0  0  0  0  0  0  0  0  0  0  0  0
  148.5659  135.8682  148.5369 N   0  0  0  0  0  0  0  0  0  0  0  0
  148.8166  136.7093  147.3699 C   0  0  0  0  0  0  0  0  0  0  0  0
  148.8482  138.2070  147.7261 C   0  0  2  0  0  0  0  0  0  0  0  0
  149.1896  139.1193  146.5280 C   0  0  0  0  0  0  0  0  0  0  0  0
  149.3145  140.5800  146.9758 C   0  0  0  0  0  0  0  0  0  0  0  0
  150.2986  140.6815  148.1451 C   0  0  0  0  0  0  0  0  0  0  0  0
  149.8992  139.7032  149.2601 C   0  0  0  0  0  0  0  0  0  0  0  0
  149.8359  138.3785  148.7407 O   0  0  0  0  0  0  0  0  0  0  0  0
  147.7844  134.2160  149.7819 N   0  0  0  0  0  0  0  0  0  0  0  0
  147.1343  133.0539  150.2323 C   0  0  0  0  0  0  0  0  0  0  0  0
  145.8430  132.7272  149.9625 C   0  0  0  0  0  0  0  0  0  0  0  0
  145.2366  131.5028  150.4588 C   0  0  0  0  0  0  0  0  0  0  0  0
  143.8081  131.1202  150.1034 C   0  0  0  0  0  0  0  0  0  0  0  0
  143.7622  129.9363  149.4909 F   0  0  0  0  0  0  0  0  0  0  0  0
  143.0716  131.0434  151.2109 F   0  0  0  0  0  0  0  0  0  0  0  0
  143.2551  132.0286  149.2994 F   0  0  0  0  0  0  0  0  0  0  0  0
  146.0303  130.6892  151.1792 C   0  0  0  0  0  0  0  0  0  0  0  0
  147.3576  131.0178  151.4627 N   0  0  0  0  0  0  0  0  0  0  0  0
  147.9693  132.1453  151.0359 C   0  0  0  0  0  0  0  0  0  0  0  0
  149.1468  132.3589  151.3230 O   0  0  0  0  0  0  0  0  0  0  0  0
  147.8845  130.3598  152.0188 H   0  0  0  0  0  0  0  0  0  0  0  0
  149.0035  136.1543  149.4005 H   0  0  0  0  0  0  0  0  0  0  0  0
  149.7849  136.4162  146.9634 H   0  0  0  0  0  0  0  0  0  0  0  0
  148.0884  136.5195  146.5796 H   0  0  0  0  0  0  0  0  0  0  0  0
  147.8764  138.4893  148.1354 H   0  0  0  0  0  0  0  0  0  0  0  0
  150.1274  138.7949  146.0754 H   0  0  0  0  0  0  0  0  0  0  0  0
  148.4259  139.0418  145.7545 H   0  0  0  0  0  0  0  0  0  0  0  0
  149.6428  141.2063  146.1460 H   0  0  0  0  0  0  0  0  0  0  0  0
  148.3375  140.9539  147.2846 H   0  0  0  0  0  0  0  0  0  0  0  0
  151.3060  140.4473  147.7990 H   0  0  0  0  0  0  0  0  0  0  0  0
  150.3274  141.7016  148.5285 H   0  0  0  0  0  0  0  0  0  0  0  0
  150.6344  139.7318  150.0643 H   0  0  0  0  0  0  0  0  0  0  0  0
  148.9390  139.9811  149.6970 H   0  0  0  0  0  0  0  0  0  0  0  0
  148.2720  134.7262  150.5042 H   0  0  0  0  0  0  0  0  0  0  0  0
  145.2218  133.3657  149.3569 H   0  0  0  0  0  0  0  0  0  0  0  0
  145.7186  129.7376  151.5841 H   0  0  0  0  0  0  0  0  0  0  0  0
  1  2  2  0  0  0  0
  2  3  1  0  0  0  0
  2 11  1  0  0  0  0
  3  4  1  0  0  0  0
  3 24  1  0  0  0  0
  4  5  1  0  0  0  0
  4 25  1  0  0  0  0
  4 26  1  0  0  0  0
  5 10  1  0  0  0  0
  5  6  1  0  0  0  0
  5 27  1  0  0  0  0
  6  7  1  0  0  0  0
  6 28  1  0  0  0  0
  6 29  1  0  0  0  0
  7  8  1  0  0  0  0
  7 30  1  0  0  0  0
  7 31  1  0  0  0  0
  8  9  1  0  0  0  0
  8 32  1  0  0  0  0
  8 33  1  0  0  0  0
  9 10  1  0  0  0  0
  9 34  1  0  0  0  0
  9 35  1  0  0  0  0
 11 12  1  0  0  0  0
 11 36  1  0  0  0  0
 12 21  1  0  0  0  0
 12 13  2  0  0  0  0
 13 14  1  0  0  0  0
 13 37  1  0  0  0  0
 14 15  1  0  0  0  0
 14 19  2  0  0  0  0
 15 16  1  0  0  0  0
 15 17  1  0  0  0  0
 15 18  1  0  0  0  0
 19 20  1  0  0  0  0
 19 38  1  0  0  0  0
 20 23  1  0  0  0  0
 20 21  1  0  0  0  0
 21 22  2  0  0  0  0
M  END
> <s_m_source_file>
AV-unprocessed.smi

> <i_m_source_file_index>
1756

> <i_lp_mmshare_version>
43012

> <i_f3d_flags>
0

> <s_epik_input>
Tz1jMVtuSF1bY0hdYyhDKEYpKEYpRilbY0hdYzFbTkhdQyg9TylbTkhdW0NIMl1bQ0BASF0yW0NIMl1bQ0gyXVtDSDJdW0NIMl1PMg==

> <s_epik_cmdline>
J2VwaWtfcHl0aG9uJywgJy1waCcsICc3LjAnLCAnLXRuJywgJzgnLCAnLW1hJywgJzIwMCcsICctbWV0YWxfYmluZGluZycsICctaW1hZScsICc8aW5maWxlLm1hZT4nLCAnLW9tYWUnLCAnPG91dGZpbGUubWFlPic=

> <r_lp_tautomer_probability>
1

> <r_epik_Ionization_Penalty>
0.00380944

> <r_epik_Ionization_Penalty_Charging>
0.00379057

> <r_epik_Ionization_Penalty_Neutral>
1.88732e-05

> <r_epik_State_Penalty>
-0

> <r_epik_Charging_Adjusted_Penalty>
0.00379057

> <i_epik_Tot_Q>
0

> <i_epik_Tot_abs_Q>
0

> <r_epik_Metal_State_Penalty>
0.371099

> <b_epik_Metal_Only>
0

> <s_lp_Force_Field>
OPLS_2005

> <r_lp_Energy>
19.4174

> <b_lp_Chiralities_Consistent>
1

> <s_lp_Variant>
AV-unprocessed.smi:1756-1

> <Gold.Version>
5.8.1

> <Gold.Id.Protein>
6NUR|6NUR_protein|mol2

> <Gold.PLP.Fitness>
38.2222

> <Gold.PLP.PLP>
-33.4165

> <Gold.PLP.part.hbond>
-2.0000

> <Gold.PLP.part.metal>
0.0000

> <Gold.PLP.part.buried>
-3.2775

> <Gold.PLP.part.nonpolar>
-28.2406

> <Gold.PLP.part.repulsive>
0.3800

> <Gold.PLP.ligand.clash>
0.0000

> <Gold.PLP.ligand.torsion>
0.6195

> <Gold.PLP.Chemscore.Hbond>
2.0000

> <Gold.PLP.Chemscore.CHOScore>
0.0000

> <Gold.PLP.Chemscore.Metal>
0.0000

> <Gold.PLP.Chemscore.Internal.Correction>
0.0447

> <Gold.Rescore>
     Score         DG    S(hbond)    S(metal)    S(lipo)     H(rot)  DE(clash)    DE(int)     intcor
     14.96     -15.84       1.70        0.00      69.24       1.33       0.18       0.69       ----

> <Gold.Chemscore.Fitness>
14.9635

> <Gold.Chemscore.DG>
-15.8361

> <Gold.Chemscore.ZeroCoef>
-5.4800

> <Gold.Chemscore.Hbond>
1.6977

> <Gold.Chemscore.Metal>
0.0000

> <Gold.Chemscore.Lipo>
69.2449

> <Gold.Chemscore.Internal_Hbond>
0.0000

> <Gold.Chemscore.DEClash>
0.1780

> <Gold.Chemscore.DEInternal>
0.6946

> <Gold.Chemscore.Rot>
1.3344

> <Gold.Chemscore.Internal.Correction>
   9.000000E+99

> <Gold.Chemscore.Hbond.Weighted>
-5.6704

> <Gold.Chemscore.Metal.Weighted>
-0.0000

> <Gold.Chemscore.Lipo.Weighted>
-8.1017

> <Gold.Chemscore.Internal_Hbond.Weighted>
0.0000

> <Gold.Chemscore.DEClash.Weighted>
0.1780

> <Gold.Chemscore.DEInternal.Weighted>
0.6946

> <Gold.Chemscore.Rot.Weighted>
3.4160

> <Gold.Chemscore.Internal.Correction.Weighted>
   9.000000E+99

> <Gold.Protein.RotatedTorsions>
[ 6907 6896 6895 6894 ] final  -86.92 input  -60.11 | X-H torsion
[ 7974 7965 7964 7962 ] final  -56.54 input  175.53 | X-H torsion
[ 8008 7997 7996 7995 ] final -174.06 input   59.86 | X-H torsion
[ 10167 10162 10161 10158 ] final -178.10 input  -65.29 | X-H torsion
[ 10718 10713 10712 10709 ] final -128.59 input   66.30 | X-H torsion
[ 10763 10752 10751 10750 ] final  124.06 input  -60.55 | X-H torsion
[ 11005 11000 10999 10996 ] final   40.23 input  -57.11 | X-H torsion

> <Gold.Protein.ActiveResidues>
 VAL166  LYS551  ARG553  GLY616  TRP617  ASP618  TYR619  PRO620  LYS621  CYS622 
 ASP623  PHE694  ASN695  SER759  ASP760  ASP761  ALA762  ILE779  LEU786  VAL792 
 PHE793  MET794  SER795  GLU796  ALA797  LYS798  CYS799  TRP800  GLU811  SER814 

> <Gold.Protein.RotatedAtoms>
  150.6866  134.2977  159.4692 H   0  0  0  0  0  0  0  0  0  0  0  0  # atno 6907 bound_to 6896
  152.0876  134.9427  160.0581 H   0  0  0  0  0  0  0  0  0  0  0  0  # atno 6908 bound_to 6896
  152.0755  133.4092  159.4515 H   0  0  0  0  0  0  0  0  0  0  0  0  # atno 6909 bound_to 6896
  145.8614  140.8282  142.9935 H   0  0  0  0  0  0  0  0  0  0  0  0  # atno 7974 bound_to 7965
  155.9654  140.1152  157.0859 H   0  0  0  0  0  0  0  0  0  0  0  0  # atno 8008 bound_to 7997
  154.4142  140.1174  156.5302 H   0  0  0  0  0  0  0  0  0  0  0  0  # atno 8009 bound_to 7997
  155.6666  140.3473  155.4805 H   0  0  0  0  0  0  0  0  0  0  0  0  # atno 8010 bound_to 7997
  139.5448  144.2264  152.0967 H   0  0  0  0  0  0  0  0  0  0  0  0  # atno 10167 bound_to 10162
  156.1965  130.6830  151.0488 H   0  0  0  0  0  0  0  0  0  0  0  0  # atno 10718 bound_to 10713
  153.6554  135.3355  155.3112 H   0  0  0  0  0  0  0  0  0  0  0  0  # atno 10763 bound_to 10752
  154.8527  135.4351  154.1860 H   0  0  0  0  0  0  0  0  0  0  0  0  # atno 10764 bound_to 10752
  153.2813  135.7009  153.7458 H   0  0  0  0  0  0  0  0  0  0  0  0  # atno 10765 bound_to 10752
  140.1951  134.3939  155.8125 H   0  0  0  0  0  0  0  0  0  0  0  0  # atno 11005 bound_to 11000
  144.6726  140.1102  143.7456 LP  0  0  0  0  0  0  0  0  0  0  0  0  # atno 17320 bound_to 7965
  145.9243  139.2565  143.1363 LP  0  0  0  0  0  0  0  0  0  0  0  0  # atno 17321 bound_to 7965
  140.1749  144.4900  150.6559 LP  0  0  0  0  0  0  0  0  0  0  0  0  # atno 17342 bound_to 10162
  140.6692  143.2279  151.5667 LP  0  0  0  0  0  0  0  0  0  0  0  0  # atno 17343 bound_to 10162
  157.6961  131.0793  150.6965 LP  0  0  0  0  0  0  0  0  0  0  0  0  # atno 17370 bound_to 10713
  156.7022  130.4626  149.5570 LP  0  0  0  0  0  0  0  0  0  0  0  0  # atno 17371 bound_to 10713
  141.2227  133.7066  156.8162 LP  0  0  0  0  0  0  0  0  0  0  0  0  # atno 17394 bound_to 11000
  140.2116  134.8823  157.3280 LP  0  0  0  0  0  0  0  0  0  0  0  0  # atno 17395 bound_to 11000

$$$$
