AV-unprocessed.smi:1052|AV-procd|sdf|4616|dock8
  -GOLD-   22720 3113D 1   1.00000     0.00000
 Structure written by MMmdl.
 40 41  0  0  0  0  0  0  0  0  1 V2000
  147.2918  140.0722  155.7065 C   0  0  0  0  0  0  0  0  0  0  0  0
  147.6584  141.5668  155.7113 C   0  0  0  0  0  0  0  0  0  0  0  0
  147.2666  142.1844  154.3528 C   0  0  0  0  0  0  0  0  0  0  0  0
  146.9029  142.2625  156.8637 C   0  0  0  0  0  0  0  0  0  0  0  0
  149.1098  141.6486  155.9145 N   0  0  0  0  0  0  0  0  0  0  0  0
  149.8304  141.2480  156.9771 C   0  0  0  0  0  0  0  0  0  0  0  0
  149.3410  140.7403  157.9866 O   0  0  0  0  0  0  0  0  0  0  0  0
  151.3443  141.4860  156.8846 C   0  0  0  0  0  0  0  0  0  0  0  0
  151.9767  141.6966  158.1952 N   0  0  0  0  0  0  0  0  0  0  0  0
  151.5956  142.8670  158.8228 N   0  0  0  0  0  0  0  0  0  0  0  0
  152.0623  143.1779  159.9852 C   0  0  0  0  0  0  0  0  0  0  0  0
  151.5902  144.4656  160.5983 C   0  0  0  0  0  0  0  0  0  0  0  0
  150.5149  145.3072  159.9517 C   0  0  0  0  0  0  0  0  0  0  0  0
  151.9374  145.8142  160.0098 C   0  0  0  0  0  0  0  0  0  0  0  0
  153.0038  142.2895  160.6368 C   0  0  0  0  0  0  0  0  0  0  0  0
  153.3876  141.1373  160.0349 C   0  0  0  0  0  0  0  0  0  0  0  0
  154.3865  140.1817  160.6826 C   0  0  0  0  0  0  0  0  0  0  0  0
  153.9011  138.9401  160.6947 F   0  0  0  0  0  0  0  0  0  0  0  0
  155.5380  140.1728  160.0100 F   0  0  0  0  0  0  0  0  0  0  0  0
  154.6554  140.5286  161.9423 F   0  0  0  0  0  0  0  0  0  0  0  0
  152.8512  140.7828  158.7123 C   0  0  0  0  0  0  0  0  0  0  0  0
  153.1519  139.7513  158.1096 O   0  0  0  0  0  0  0  0  0  0  0  0
  146.2211  139.9267  155.5579 H   0  0  0  0  0  0  0  0  0  0  0  0
  147.5591  139.5938  156.6497 H   0  0  0  0  0  0  0  0  0  0  0  0
  147.8082  139.5370  154.9084 H   0  0  0  0  0  0  0  0  0  0  0  0
  147.8142  141.7188  153.5324 H   0  0  0  0  0  0  0  0  0  0  0  0
  147.4661  143.2553  154.3165 H   0  0  0  0  0  0  0  0  0  0  0  0
  146.2030  142.0509  154.1534 H   0  0  0  0  0  0  0  0  0  0  0  0
  145.8261  142.1186  156.7694 H   0  0  0  0  0  0  0  0  0  0  0  0
  147.0785  143.3381  156.8812 H   0  0  0  0  0  0  0  0  0  0  0  0
  147.2029  141.8636  157.8334 H   0  0  0  0  0  0  0  0  0  0  0  0
  149.6288  142.0557  155.1499 H   0  0  0  0  0  0  0  0  0  0  0  0
  151.8220  140.6490  156.3714 H   0  0  0  0  0  0  0  0  0  0  0  0
  151.5084  142.3528  156.2419 H   0  0  0  0  0  0  0  0  0  0  0  0
  151.5762  144.3918  161.6842 H   0  0  0  0  0  0  0  0  0  0  0  0
  150.1351  144.9936  158.9810 H   0  0  0  0  0  0  0  0  0  0  0  0
  149.7858  145.7791  160.6071 H   0  0  0  0  0  0  0  0  0  0  0  0
  152.1537  146.6237  160.7040 H   0  0  0  0  0  0  0  0  0  0  0  0
  152.4923  145.8432  159.0739 H   0  0  0  0  0  0  0  0  0  0  0  0
  153.3878  142.5674  161.6069 H   0  0  0  0  0  0  0  0  0  0  0  0
  1  2  1  0  0  0  0
  1 23  1  0  0  0  0
  1 24  1  0  0  0  0
  1 25  1  0  0  0  0
  2  3  1  0  0  0  0
  2  4  1  0  0  0  0
  2  5  1  0  0  0  0
  3 26  1  0  0  0  0
  3 27  1  0  0  0  0
  3 28  1  0  0  0  0
  4 29  1  0  0  0  0
  4 30  1  0  0  0  0
  4 31  1  0  0  0  0
  5  6  1  0  0  0  0
  5 32  1  0  0  0  0
  6  7  2  0  0  0  0
  6  8  1  0  0  0  0
  8  9  1  0  0  0  0
  8 33  1  0  0  0  0
  8 34  1  0  0  0  0
  9 21  1  0  0  0  0
  9 10  1  0  0  0  0
 10 11  2  0  0  0  0
 11 12  1  0  0  0  0
 11 15  1  0  0  0  0
 12 14  1  0  0  0  0
 12 13  1  0  0  0  0
 12 35  1  0  0  0  0
 13 14  1  0  0  0  0
 13 36  1  0  0  0  0
 13 37  1  0  0  0  0
 14 38  1  0  0  0  0
 14 39  1  0  0  0  0
 15 16  2  0  0  0  0
 15 40  1  0  0  0  0
 16 17  1  0  0  0  0
 16 21  1  0  0  0  0
 17 18  1  0  0  0  0
 17 19  1  0  0  0  0
 17 20  1  0  0  0  0
 21 22  2  0  0  0  0
M  END
> <s_m_source_file>
AV-unprocessed.smi

> <i_m_source_file_index>
1052

> <i_lp_mmshare_version>
43012

> <i_f3d_flags>
0

> <s_epik_input>
W0NIM11DKFtDSDNdKShbQ0gzXSlbTkhdQyg9TylbQ0gyXW4xbmMoW0NIXTJbQ0gyXVtDSDJdMilbY0hdYyhDKEYpKEYpRiljMT1P

> <s_epik_cmdline>
J2VwaWtfcHl0aG9uJywgJy1waCcsICc3LjAnLCAnLXRuJywgJzgnLCAnLW1hJywgJzIwMCcsICctbWV0YWxfYmluZGluZycsICctaW1hZScsICc8aW5maWxlLm1hZT4nLCAnLW9tYWUnLCAnPG91dGZpbGUubWFlPic=

> <r_lp_tautomer_probability>
1

> <r_epik_Ionization_Penalty>
2.47799e-08

> <r_epik_Ionization_Penalty_Charging>
1.49243e-10

> <r_epik_Ionization_Penalty_Neutral>
2.46307e-08

> <r_epik_State_Penalty>
-0

> <r_epik_Charging_Adjusted_Penalty>
1.49243e-10

> <i_epik_Tot_Q>
0

> <i_epik_Tot_abs_Q>
0

> <r_epik_Metal_State_Penalty>
-0

> <b_epik_Metal_Only>
0

> <s_lp_Force_Field>
OPLS_2005

> <r_lp_Energy>
24.0208

> <b_lp_Chiralities_Consistent>
1

> <s_lp_Variant>
AV-unprocessed.smi:1052-1

> <Gold.Version>
5.8.1

> <Gold.Id.Protein>
6NUR|6NUR_protein|mol2

> <Gold.PLP.Fitness>
46.6918

> <Gold.PLP.PLP>
-44.7228

> <Gold.PLP.part.hbond>
-2.0000

> <Gold.PLP.part.metal>
0.0000

> <Gold.PLP.part.buried>
-4.8536

> <Gold.PLP.part.nonpolar>
-37.2929

> <Gold.PLP.part.repulsive>
0.1254

> <Gold.PLP.ligand.clash>
0.1958

> <Gold.PLP.ligand.torsion>
0.7221

> <Gold.PLP.Chemscore.Hbond>
1.0000

> <Gold.PLP.Chemscore.CHOScore>
0.0000

> <Gold.PLP.Chemscore.Metal>
0.0000

> <Gold.Chemscore.Hbonds>
donor molecule, donor type, donor heavy atom, donor atom, acceptor molecule, acceptor atom, score
      P1  H  7997  8009       L1    22  1.00

> <Gold.PLP.Chemscore.Internal.Correction>
0.6091

> <Gold.Rescore>
     Score         DG    S(hbond)    S(metal)    S(lipo)     H(rot)  DE(clash)    DE(int)     intcor
     12.42     -14.44       0.82        0.00      90.18       1.69       0.09       1.92       ----

> <Gold.Chemscore.Fitness>
12.4220

> <Gold.Chemscore.DG>
-14.4356

> <Gold.Chemscore.ZeroCoef>
-5.4800

> <Gold.Chemscore.Hbond>
0.8179

> <Gold.Chemscore.Metal>
0.0000

> <Gold.Chemscore.Lipo>
90.1781

> <Gold.Chemscore.Internal_Hbond>
0.0000

> <Gold.Chemscore.DEClash>
0.0906

> <Gold.Chemscore.DEInternal>
1.9231

> <Gold.Chemscore.Rot>
1.6903

> <Gold.Chemscore.Internal.Correction>
   9.000000E+99

> <Gold.Chemscore.Hbonds>
donor molecule, donor type, donor heavy atom, donor atom, acceptor molecule, acceptor atom, score
      P1  H  7997  8009       L1    22  0.78

> <Gold.Chemscore.Hbond.Weighted>
-2.7319

> <Gold.Chemscore.Metal.Weighted>
-0.0000

> <Gold.Chemscore.Lipo.Weighted>
-10.5508

> <Gold.Chemscore.Internal_Hbond.Weighted>
0.0000

> <Gold.Chemscore.DEClash.Weighted>
0.0906

> <Gold.Chemscore.DEInternal.Weighted>
1.9231

> <Gold.Chemscore.Rot.Weighted>
4.3272

> <Gold.Chemscore.Internal.Correction.Weighted>
   9.000000E+99

> <Gold.Protein.RotatedTorsions>
[ 6907 6896 6895 6894 ] final -103.36 input  -60.11 | X-H torsion
[ 7974 7965 7964 7962 ] final -112.21 input  175.53 | X-H torsion
[ 8008 7997 7996 7995 ] final  158.12 input   59.86 | X-H torsion
[ 10167 10162 10161 10158 ] final -140.77 input  -65.29 | X-H torsion
[ 10718 10713 10712 10709 ] final -138.04 input   66.30 | X-H torsion
[ 10763 10752 10751 10750 ] final  142.67 input  -60.55 | X-H torsion
[ 11005 11000 10999 10996 ] final  139.70 input  -57.11 | X-H torsion

> <Gold.Protein.ActiveResidues>
 VAL166  LYS551  ARG553  GLY616  TRP617  ASP618  TYR619  PRO620  LYS621  CYS622 
 ASP623  PHE694  ASN695  SER759  ASP760  ASP761  ALA762  ILE779  LEU786  VAL792 
 PHE793  MET794  SER795  GLU796  ALA797  LYS798  CYS799  TRP800  GLU811  SER814 

> <Gold.Protein.RotatedAtoms>
  150.7237  134.0441  159.3775 H   0  0  0  0  0  0  0  0  0  0  0  0  # atno 6907 bound_to 6896
  151.8415  135.0586  160.0458 H   0  0  0  0  0  0  0  0  0  0  0  0  # atno 6908 bound_to 6896
  152.2858  133.5478  159.5563 H   0  0  0  0  0  0  0  0  0  0  0  0  # atno 6909 bound_to 6896
  145.1467  140.8807  143.3670 H   0  0  0  0  0  0  0  0  0  0  0  0  # atno 7974 bound_to 7965
  156.2323  140.1867  156.7211 H   0  0  0  0  0  0  0  0  0  0  0  0  # atno 8008 bound_to 7997
  154.6043  140.0631  156.9438 H   0  0  0  0  0  0  0  0  0  0  0  0  # atno 8009 bound_to 7997
  155.2121  140.3301  155.4330 H   0  0  0  0  0  0  0  0  0  0  0  0  # atno 8010 bound_to 7997
  139.8249  143.7524  152.2666 H   0  0  0  0  0  0  0  0  0  0  0  0  # atno 10167 bound_to 10162
  156.2949  130.7396  151.1432 H   0  0  0  0  0  0  0  0  0  0  0  0  # atno 10718 bound_to 10713
  153.9597  135.2961  155.3434 H   0  0  0  0  0  0  0  0  0  0  0  0  # atno 10763 bound_to 10752
  154.7381  135.5037  153.9079 H   0  0  0  0  0  0  0  0  0  0  0  0  # atno 10764 bound_to 10752
  153.0953  135.6719  153.9886 H   0  0  0  0  0  0  0  0  0  0  0  0  # atno 10765 bound_to 10752
  140.0274  134.9368  157.0595 H   0  0  0  0  0  0  0  0  0  0  0  0  # atno 11005 bound_to 11000
  145.0474  139.3209  143.5946 LP  0  0  0  0  0  0  0  0  0  0  0  0  # atno 17320 bound_to 7965
  146.3499  139.9870  142.8689 LP  0  0  0  0  0  0  0  0  0  0  0  0  # atno 17321 bound_to 7965
  139.7714  144.7475  151.0219 LP  0  0  0  0  0  0  0  0  0  0  0  0  # atno 17342 bound_to 10162
  140.7811  143.4641  151.0237 LP  0  0  0  0  0  0  0  0  0  0  0  0  # atno 17343 bound_to 10162
  157.7352  131.0574  150.5480 LP  0  0  0  0  0  0  0  0  0  0  0  0  # atno 17370 bound_to 10713
  156.5600  130.4253  149.6067 LP  0  0  0  0  0  0  0  0  0  0  0  0  # atno 17371 bound_to 10713
  140.4284  134.1807  155.7167 LP  0  0  0  0  0  0  0  0  0  0  0  0  # atno 17394 bound_to 11000
  141.1811  133.8412  157.1255 LP  0  0  0  0  0  0  0  0  0  0  0  0  # atno 17395 bound_to 11000

$$$$
