AV-unprocessed.smi:1570|AV-procd|sdf|6318|dock10
  -GOLD-   22720 6523D 1   1.00000     0.00000
 Structure written by MMmdl.
 52 54  0  0  0  0  0  0  0  0  2 V2000
  155.1995  140.2070  161.0961 C   0  0  0  0  0  0  0  0  0  0  0  0
  153.8033  139.7329  160.6724 C   0  0  0  0  0  0  0  0  0  0  0  0
  153.0954  140.7728  159.9303 N   0  0  0  0  0  0  0  0  0  0  0  0
  152.6962  140.7113  158.6384 C   0  0  0  0  0  0  0  0  0  0  0  0
  152.8548  139.7578  157.8765 O   0  0  0  0  0  0  0  0  0  0  0  0
  152.1265  141.8971  158.3166 N   0  0  0  0  0  0  0  0  0  0  0  0
  151.6022  142.2897  157.0088 C   0  0  0  0  0  0  0  0  0  0  0  0
  150.1724  141.7594  156.7771 C   0  0  2  0  0  0  0  0  0  0  0  0
  149.7468  142.1974  155.5028 O   0  0  0  0  0  0  0  0  0  0  0  0
  149.1609  142.2582  157.8317 C   0  0  0  0  0  0  0  0  0  0  0  0
  147.8060  142.4743  157.2660 N   0  3  1  0  0  0  0  0  0  0  0  0
  147.1680  141.2287  156.7731 C   0  0  0  0  0  0  0  0  0  0  0  0
  145.7871  141.5327  156.1630 C   0  0  1  0  0  0  0  0  0  0  0  0
  145.0611  140.2579  155.7192 C   0  0  0  0  0  0  0  0  0  0  0  0
  144.9812  142.1858  157.1378 O   0  0  0  0  0  0  0  0  0  0  0  0
  145.5313  143.4289  157.5603 C   0  0  1  0  0  0  0  0  0  0  0  0
  144.5429  144.0825  158.5324 C   0  0  0  0  0  0  0  0  0  0  0  0
  146.9046  143.1753  158.2102 C   0  0  0  0  0  0  0  0  0  0  0  0
  152.1730  142.7448  159.4326 C   0  0  0  0  0  0  0  0  0  0  0  0
  151.7315  144.0680  159.6076 C   0  0  0  0  0  0  0  0  0  0  0  0
  151.9410  144.6570  160.8765 C   0  0  0  0  0  0  0  0  0  0  0  0
  152.5737  143.9316  161.9193 C   0  0  0  0  0  0  0  0  0  0  0  0
  153.0087  142.6009  161.7158 C   0  0  0  0  0  0  0  0  0  0  0  0
  152.7851  142.0388  160.4468 C   0  0  0  0  0  0  0  0  0  0  0  0
  155.7221  139.4263  161.6490 H   0  0  0  0  0  0  0  0  0  0  0  0
  155.1398  141.0858  161.7388 H   0  0  0  0  0  0  0  0  0  0  0  0
  155.8091  140.4653  160.2296 H   0  0  0  0  0  0  0  0  0  0  0  0
  153.8870  138.8324  160.0619 H   0  0  0  0  0  0  0  0  0  0  0  0
  153.2222  139.4492  161.5502 H   0  0  0  0  0  0  0  0  0  0  0  0
  151.6279  143.3752  156.8974 H   0  0  0  0  0  0  0  0  0  0  0  0
  152.2751  141.8961  156.2458 H   0  0  0  0  0  0  0  0  0  0  0  0
  150.2032  140.6707  156.7549 H   0  0  0  0  0  0  0  0  0  0  0  0
  149.2424  142.9901  155.6081 H   0  0  0  0  0  0  0  0  0  0  0  0
  149.0769  141.5558  158.6608 H   0  0  0  0  0  0  0  0  0  0  0  0
  149.5386  143.1874  158.2620 H   0  0  0  0  0  0  0  0  0  0  0  0
  147.7969  140.7493  156.0237 H   0  0  0  0  0  0  0  0  0  0  0  0
  147.0640  140.5227  157.5990 H   0  0  0  0  0  0  0  0  0  0  0  0
  145.9025  142.1857  155.2960 H   0  0  0  0  0  0  0  0  0  0  0  0
  145.6330  139.7244  154.9595 H   0  0  0  0  0  0  0  0  0  0  0  0
  144.0846  140.4927  155.2951 H   0  0  0  0  0  0  0  0  0  0  0  0
  144.9050  139.5794  156.5585 H   0  0  0  0  0  0  0  0  0  0  0  0
  145.6494  144.0827  156.6941 H   0  0  0  0  0  0  0  0  0  0  0  0
  144.9141  145.0461  158.8820 H   0  0  0  0  0  0  0  0  0  0  0  0
  144.3720  143.4524  159.4057 H   0  0  0  0  0  0  0  0  0  0  0  0
  143.5792  144.2528  158.0518 H   0  0  0  0  0  0  0  0  0  0  0  0
  146.7913  142.5772  159.1160 H   0  0  0  0  0  0  0  0  0  0  0  0
  147.3510  144.1257  158.5064 H   0  0  0  0  0  0  0  0  0  0  0  0
  151.2528  144.6161  158.8096 H   0  0  0  0  0  0  0  0  0  0  0  0
  151.6166  145.6720  161.0534 H   0  0  0  0  0  0  0  0  0  0  0  0
  152.7258  144.4011  162.8799 H   0  0  0  0  0  0  0  0  0  0  0  0
  153.4930  142.0452  162.5050 H   0  0  0  0  0  0  0  0  0  0  0  0
  147.9211  143.0898  156.4729 H   0  0  0  0  0  0  0  0  0  0  0  0
  1  2  1  0  0  0  0
  1 25  1  0  0  0  0
  1 26  1  0  0  0  0
  1 27  1  0  0  0  0
  2  3  1  0  0  0  0
  2 28  1  0  0  0  0
  2 29  1  0  0  0  0
  3 24  1  0  0  0  0
  3  4  1  0  0  0  0
  4  5  2  0  0  0  0
  4  6  1  0  0  0  0
  6  7  1  0  0  0  0
  6 19  1  0  0  0  0
  7  8  1  0  0  0  0
  7 30  1  0  0  0  0
  7 31  1  0  0  0  0
  8  9  1  0  0  0  0
  8 10  1  0  0  0  0
  8 32  1  0  0  0  0
  9 33  1  0  0  0  0
 10 11  1  0  0  0  0
 10 34  1  0  0  0  0
 10 35  1  0  0  0  0
 11 18  1  0  0  0  0
 11 12  1  0  0  0  0
 11 52  1  0  0  0  0
 12 13  1  0  0  0  0
 12 36  1  0  0  0  0
 12 37  1  0  0  0  0
 13 14  1  0  0  0  0
 13 15  1  0  0  0  0
 13 38  1  0  0  0  0
 14 39  1  0  0  0  0
 14 40  1  0  0  0  0
 14 41  1  0  0  0  0
 15 16  1  0  0  0  0
 16 17  1  0  0  0  0
 16 18  1  0  0  0  0
 16 42  1  0  0  0  0
 17 43  1  0  0  0  0
 17 44  1  0  0  0  0
 17 45  1  0  0  0  0
 18 46  1  0  0  0  0
 18 47  1  0  0  0  0
 19 24  2  0  0  0  0
 19 20  1  0  0  0  0
 20 21  2  0  0  0  0
 20 48  1  0  0  0  0
 21 22  1  0  0  0  0
 21 49  1  0  0  0  0
 22 23  2  0  0  0  0
 22 50  1  0  0  0  0
 23 24  1  0  0  0  0
 23 51  1  0  0  0  0
M  CHG  1  11   1
M  END
> <s_m_source_file>
AV-unprocessed.smi

> <i_m_source_file_index>
1570

> <i_lp_mmshare_version>
43012

> <i_f3d_flags>
0

> <s_epik_input>
W2NIXTFbY0hdW2NIXVtjSF1jKGMxMiluKFtDSDJdW0NIM10pYyg9TyluMltDSDJdW0NASF0oW09IXSlbQ0gyXU4zW0NIMl1bQ0BASF0oW0NIM10pT1tDQEBIXShbQ0gzXSlbQ0gyXTM=

> <s_epik_cmdline>
J2VwaWtfcHl0aG9uJywgJy1waCcsICc3LjAnLCAnLXRuJywgJzgnLCAnLW1hJywgJzIwMCcsICctbWV0YWxfYmluZGluZycsICctaW1hZScsICc8aW5maWxlLm1hZT4nLCAnLW9tYWUnLCAnPG91dGZpbGUubWFlPic=

> <r_epik_Ionization_Penalty>
0.706332

> <r_epik_Ionization_Penalty_Charging>
0.706318

> <r_epik_Ionization_Penalty_Neutral>
1.42224e-05

> <r_epik_State_Penalty>
0.729493

> <r_epik_Charging_Adjusted_Penalty>
1.43581

> <i_epik_Tot_Q>
1

> <i_epik_Tot_abs_Q>
1

> <r_epik_Metal_State_Penalty>
0.729493

> <b_epik_Metal_Only>
0

> <s_lp_Force_Field>
OPLS_2005

> <r_lp_Energy>
50.1879

> <b_lp_Chiralities_Consistent>
1

> <s_lp_Variant>
AV-unprocessed.smi:1570-7

> <Gold.Version>
5.8.1

> <Gold.Id.Protein>
6NUR|6NUR_protein|mol2

> <Gold.PLP.Fitness>
53.5220

> <Gold.PLP.PLP>
-43.1329

> <Gold.PLP.part.hbond>
-3.0000

> <Gold.PLP.part.metal>
0.0000

> <Gold.PLP.part.buried>
-4.8371

> <Gold.PLP.part.nonpolar>
-34.2313

> <Gold.PLP.part.repulsive>
0.0500

> <Gold.PLP.ligand.clash>
0.0000

> <Gold.PLP.ligand.torsion>
0.7816

> <Gold.PLP.Chemscore.Hbond>
3.9520

> <Gold.PLP.Chemscore.CHOScore>
0.0000

> <Gold.PLP.Chemscore.Metal>
0.0000

> <Gold.Chemscore.Hbonds>
donor molecule, donor type, donor heavy atom, donor atom, acceptor molecule, acceptor atom, score
      L1  H     9    33       P1  8028  1.00
      L1  H    11    52       P1  8028  1.78
      P1  H  7997  8009       L1     5  1.00

> <Gold.PLP.Chemscore.Internal.Correction>
0.0962

> <Gold.Rescore>
     Score         DG    S(hbond)    S(metal)    S(lipo)     H(rot)  DE(clash)    DE(int)     intcor
     18.72     -20.77       2.23        0.00     113.52       2.13       1.32       0.74       ----

> <Gold.Chemscore.Fitness>
18.7198

> <Gold.Chemscore.DG>
-20.7723

> <Gold.Chemscore.ZeroCoef>
-5.4800

> <Gold.Chemscore.Hbond>
2.2346

> <Gold.Chemscore.Metal>
0.0000

> <Gold.Chemscore.Lipo>
113.5236

> <Gold.Chemscore.Internal_Hbond>
0.0000

> <Gold.Chemscore.DEClash>
1.3153

> <Gold.Chemscore.DEInternal>
0.7372

> <Gold.Chemscore.Rot>
2.1303

> <Gold.Chemscore.Internal.Correction>
   9.000000E+99

> <Gold.Chemscore.Hbonds>
donor molecule, donor type, donor heavy atom, donor atom, acceptor molecule, acceptor atom, score
      L1  H     9    33       P1  8028  0.99
      L1  H    11    52       P1  8028  0.18
      P1  H  7997  8009       L1     5  0.60

> <Gold.Chemscore.Hbond.Weighted>
-7.4636

> <Gold.Chemscore.Metal.Weighted>
-0.0000

> <Gold.Chemscore.Lipo.Weighted>
-13.2823

> <Gold.Chemscore.Internal_Hbond.Weighted>
0.0000

> <Gold.Chemscore.DEClash.Weighted>
1.3153

> <Gold.Chemscore.DEInternal.Weighted>
0.7372

> <Gold.Chemscore.Rot.Weighted>
5.4535

> <Gold.Chemscore.Internal.Correction.Weighted>
   9.000000E+99

> <Gold.Protein.RotatedTorsions>
[ 6907 6896 6895 6894 ] final -106.65 input  -60.11 | X-H torsion
[ 7974 7965 7964 7962 ] final -135.45 input  175.53 | X-H torsion
[ 8008 7997 7996 7995 ] final  161.39 input   59.86 | X-H torsion
[ 10167 10162 10161 10158 ] final  -22.41 input  -65.29 | X-H torsion
[ 10718 10713 10712 10709 ] final    5.41 input   66.30 | X-H torsion
[ 10763 10752 10751 10750 ] final   -9.23 input  -60.55 | X-H torsion
[ 11005 11000 10999 10996 ] final  149.31 input  -57.11 | X-H torsion

> <Gold.Protein.ActiveResidues>
 VAL166  LYS551  ARG553  GLY616  TRP617  ASP618  TYR619  PRO620  LYS621  CYS622 
 ASP623  PHE694  ASN695  SER759  ASP760  ASP761  ALA762  ILE779  LEU786  VAL792 
 PHE793  MET794  SER795  GLU796  ALA797  LYS798  CYS799  TRP800  GLU811  SER814 

> <Gold.Protein.RotatedAtoms>
  150.7401  133.9944  159.3617 H   0  0  0  0  0  0  0  0  0  0  0  0  # atno 6907 bound_to 6896
  151.7894  135.0738  160.0394 H   0  0  0  0  0  0  0  0  0  0  0  0  # atno 6908 bound_to 6896
  152.3218  133.5825  159.5786 H   0  0  0  0  0  0  0  0  0  0  0  0  # atno 6909 bound_to 6896
  144.9013  140.6775  143.5083 H   0  0  0  0  0  0  0  0  0  0  0  0  # atno 7974 bound_to 7965
  156.2106  140.1778  156.7703 H   0  0  0  0  0  0  0  0  0  0  0  0  # atno 8008 bound_to 7997
  154.5717  140.0681  156.9004 H   0  0  0  0  0  0  0  0  0  0  0  0  # atno 8009 bound_to 7997
  155.2661  140.3339  155.4271 H   0  0  0  0  0  0  0  0  0  0  0  0  # atno 8010 bound_to 7997
  140.7286  143.4537  151.0479 H   0  0  0  0  0  0  0  0  0  0  0  0  # atno 10167 bound_to 10162
  156.9071  130.5742  149.5647 H   0  0  0  0  0  0  0  0  0  0  0  0  # atno 10718 bound_to 10713
  153.4517  135.7015  153.6104 H   0  0  0  0  0  0  0  0  0  0  0  0  # atno 10763 bound_to 10752
  153.4436  135.3774  155.2243 H   0  0  0  0  0  0  0  0  0  0  0  0  # atno 10764 bound_to 10752
  154.8728  135.3980  154.3931 H   0  0  0  0  0  0  0  0  0  0  0  0  # atno 10765 bound_to 10752
  140.1034  134.8969  157.1830 H   0  0  0  0  0  0  0  0  0  0  0  0  # atno 11005 bound_to 11000
  145.3611  139.1681  143.4383 LP  0  0  0  0  0  0  0  0  0  0  0  0  # atno 17320 bound_to 7965
  146.3110  140.3673  142.8670 LP  0  0  0  0  0  0  0  0  0  0  0  0  # atno 17321 bound_to 7965
  139.8215  143.7813  152.3177 LP  0  0  0  0  0  0  0  0  0  0  0  0  # atno 17342 bound_to 10162
  139.7897  144.7414  150.9972 LP  0  0  0  0  0  0  0  0  0  0  0  0  # atno 17343 bound_to 10162
  156.0554  130.5616  150.9080 LP  0  0  0  0  0  0  0  0  0  0  0  0  # atno 17370 bound_to 10713
  157.5991  131.0942  150.8991 LP  0  0  0  0  0  0  0  0  0  0  0  0  # atno 17371 bound_to 10713
  140.3189  134.2939  155.7250 LP  0  0  0  0  0  0  0  0  0  0  0  0  # atno 17394 bound_to 11000
  141.2112  133.7697  156.9882 LP  0  0  0  0  0  0  0  0  0  0  0  0  # atno 17395 bound_to 11000

$$$$
