AV-unprocessed.smi:118|AV-procd|sdf|1132|dock9
  -GOLD-   2262018263D 1   1.00000     0.00000
 Structure written by MMmdl.
 41 44  0  0  0  0  0  0  0  0  1 V2000
  147.9945  138.0841  160.2228 O   0  0  0  0  0  0  0  0  0  0  0  0
  148.6181  137.2738  159.5359 C   0  0  0  0  0  0  0  0  0  0  0  0
  149.3630  137.7349  158.2729 C   0  0  0  0  0  0  0  0  0  0  0  0
  150.4800  138.6614  158.5599 N   0  0  0  0  0  0  0  0  0  0  0  0
  151.6190  138.1703  159.2448 C   0  0  0  0  0  0  0  0  0  0  0  0
  151.6990  136.9899  159.5880 O   0  0  0  0  0  0  0  0  0  0  0  0
  152.6643  139.1517  159.5121 C   0  0  0  0  0  0  0  0  0  0  0  0
  153.7897  138.7707  160.1401 F   0  0  0  0  0  0  0  0  0  0  0  0
  152.5212  140.4400  159.1385 C   0  0  0  0  0  0  0  0  0  0  0  0
  151.3924  140.9113  158.4913 N   0  0  0  0  0  0  0  0  0  0  0  0
  151.2440  142.3626  158.0816 C   0  0  1  0  0  0  0  0  0  0  0  0
  150.0313  143.0068  158.7836 C   0  0  0  0  0  0  0  0  0  0  0  0
  150.6308  144.2373  159.4354 C   0  0  0  0  0  0  0  0  0  0  0  0
  152.0693  143.8026  159.6698 C   0  0  0  0  0  0  0  0  0  0  0  0
  152.3725  143.0876  158.4795 O   0  0  0  0  0  0  0  0  0  0  0  0
  150.3473  140.0165  158.1744 C   0  0  0  0  0  0  0  0  0  0  0  0
  149.3401  140.4121  157.5828 O   0  0  0  0  0  0  0  0  0  0  0  0
  148.7006  135.9577  159.8004 N   0  0  0  0  0  0  0  0  0  0  0  0
  148.1104  135.2327  160.8724 C   0  0  0  0  0  0  0  0  0  0  0  0
  147.5447  133.9401  160.7230 C   0  0  0  0  0  0  0  0  0  0  0  0
  146.9570  133.2756  161.8227 C   0  0  0  0  0  0  0  0  0  0  0  0
  146.9097  133.8881  163.0915 C   0  0  0  0  0  0  0  0  0  0  0  0
  147.4528  135.1765  163.2405 C   0  0  0  0  0  0  0  0  0  0  0  0
  148.0431  135.8455  162.1433 C   0  0  0  0  0  0  0  0  0  0  0  0
  148.5295  137.1120  162.4636 N   0  0  0  0  0  0  0  0  0  0  0  0
  148.1692  137.1787  163.9477 S   0  0  0  0  0  0  0  0  0  0  0  0
  147.4702  135.9057  164.4247 N   0  0  0  0  0  0  0  0  0  0  0  0
  149.7055  136.8483  157.7373 H   0  0  0  0  0  0  0  0  0  0  0  0
  148.6509  138.1979  157.5874 H   0  0  0  0  0  0  0  0  0  0  0  0
  153.3341  141.1131  159.3635 H   0  0  0  0  0  0  0  0  0  0  0  0
  151.1776  142.3522  156.9922 H   0  0  0  0  0  0  0  0  0  0  0  0
  149.2449  143.2428  158.0661 H   0  0  0  0  0  0  0  0  0  0  0  0
  149.6284  142.3334  159.5421 H   0  0  0  0  0  0  0  0  0  0  0  0
  150.6034  145.0796  158.7430 H   0  0  0  0  0  0  0  0  0  0  0  0
  150.1170  144.5286  160.3517 H   0  0  0  0  0  0  0  0  0  0  0  0
  152.7468  144.6435  159.8184 H   0  0  0  0  0  0  0  0  0  0  0  0
  152.1407  143.1430  160.5358 H   0  0  0  0  0  0  0  0  0  0  0  0
  149.1679  135.3953  159.1041 H   0  0  0  0  0  0  0  0  0  0  0  0
  147.5380  133.4410  159.7663 H   0  0  0  0  0  0  0  0  0  0  0  0
  146.5350  132.2905  161.6885 H   0  0  0  0  0  0  0  0  0  0  0  0
  146.4590  133.3792  163.9309 H   0  0  0  0  0  0  0  0  0  0  0  0
  1  2  2  0  0  0  0
  2  3  1  0  0  0  0
  2 18  1  0  0  0  0
  3  4  1  0  0  0  0
  3 28  1  0  0  0  0
  3 29  1  0  0  0  0
  4 16  1  0  0  0  0
  4  5  1  0  0  0  0
  5  6  2  0  0  0  0
  5  7  1  0  0  0  0
  7  8  1  0  0  0  0
  7  9  2  0  0  0  0
  9 10  1  0  0  0  0
  9 30  1  0  0  0  0
 10 11  1  0  0  0  0
 10 16  1  0  0  0  0
 11 15  1  0  0  0  0
 11 12  1  0  0  0  0
 11 31  1  0  0  0  0
 12 13  1  0  0  0  0
 12 32  1  0  0  0  0
 12 33  1  0  0  0  0
 13 14  1  0  0  0  0
 13 34  1  0  0  0  0
 13 35  1  0  0  0  0
 14 15  1  0  0  0  0
 14 36  1  0  0  0  0
 14 37  1  0  0  0  0
 16 17  2  0  0  0  0
 18 19  1  0  0  0  0
 18 38  1  0  0  0  0
 19 24  1  0  0  0  0
 19 20  2  0  0  0  0
 20 21  1  0  0  0  0
 20 39  1  0  0  0  0
 21 22  2  0  0  0  0
 21 40  1  0  0  0  0
 22 23  1  0  0  0  0
 22 41  1  0  0  0  0
 23 27  1  0  0  0  0
 23 24  2  0  0  0  0
 24 25  1  0  0  0  0
 25 26  2  0  0  0  0
 26 27  2  0  0  0  0
M  END
> <s_m_source_file>
AV-unprocessed.smi

> <i_m_source_file_index>
118

> <i_lp_mmshare_version>
43012

> <i_f3d_flags>
0

> <s_epik_input>
TjE9Uz1OYyhjMTIpYyhbY0hdW2NIXVtjSF0yKVtOSF1DKD1PKVtDSDJdbjNjKD1PKWMoRilbY0hdbihjMz1PKVtDQEBIXTRbQ0gyXVtDSDJdW0NIMl1PNA==

> <s_epik_cmdline>
J2VwaWtfcHl0aG9uJywgJy1waCcsICc3LjAnLCAnLXRuJywgJzgnLCAnLW1hJywgJzIwMCcsICctbWV0YWxfYmluZGluZycsICctaW1hZScsICc8aW5maWxlLm1hZT4nLCAnLW9tYWUnLCAnPG91dGZpbGUubWFlPic=

> <r_lp_tautomer_probability>
1

> <r_epik_Ionization_Penalty>
1.81156e-06

> <r_epik_Ionization_Penalty_Charging>
3.88729e-08

> <r_epik_Ionization_Penalty_Neutral>
1.77269e-06

> <r_epik_State_Penalty>
-0

> <r_epik_Charging_Adjusted_Penalty>
3.88729e-08

> <i_epik_Tot_Q>
0

> <i_epik_Tot_abs_Q>
0

> <r_epik_Metal_State_Penalty>
-0

> <b_epik_Metal_Only>
0

> <s_epik_Chemistry_Notes>
This compound contains an acetal/aminal-like group ( X-CH(R)-Y where X, Y are N, S, or O) that may be acid/base labile, releasing an aldehyde.

> <s_lp_Force_Field>
OPLS_2005

> <r_lp_Energy>
52.0747

> <b_lp_Chiralities_Consistent>
1

> <s_lp_Variant>
AV-unprocessed.smi:118-2

> <Gold.Version>
5.8.1

> <Gold.Id.Protein>
6NUR|6NUR_protein|mol2

> <Gold.PLP.Fitness>
49.6373

> <Gold.PLP.PLP>
-43.2726

> <Gold.PLP.part.hbond>
-4.4410

> <Gold.PLP.part.metal>
0.0000

> <Gold.PLP.part.buried>
-5.6103

> <Gold.PLP.part.nonpolar>
-34.3683

> <Gold.PLP.part.repulsive>
0.1816

> <Gold.PLP.ligand.clash>
0.0000

> <Gold.PLP.ligand.torsion>
0.3938

> <Gold.PLP.Chemscore.Hbond>
2.3800

> <Gold.PLP.Chemscore.CHOScore>
0.0000

> <Gold.PLP.Chemscore.Metal>
0.0000

> <Gold.Chemscore.Hbonds>
donor molecule, donor type, donor heavy atom, donor atom, acceptor molecule, acceptor atom, score
      P1  H  6888  6897       L1    27  0.61
      P1  H  6896  6908       L1     6  1.00
      P1  H  6931  6943       L1    25  0.54
      P1  H  6934  6947       L1     1  0.30

> <Gold.PLP.Chemscore.Internal.Correction>
0.0122

> <Gold.Rescore>
     Score         DG    S(hbond)    S(metal)    S(lipo)     H(rot)  DE(clash)    DE(int)     intcor
     10.42     -16.60       1.81        0.00      82.85       1.80       1.47       4.72       ----

> <Gold.Chemscore.Fitness>
10.4196

> <Gold.Chemscore.DG>
-16.6017

> <Gold.Chemscore.ZeroCoef>
-5.4800

> <Gold.Chemscore.Hbond>
1.8054

> <Gold.Chemscore.Metal>
0.0000

> <Gold.Chemscore.Lipo>
82.8536

> <Gold.Chemscore.Internal_Hbond>
0.0000

> <Gold.Chemscore.DEClash>
1.4662

> <Gold.Chemscore.DEInternal>
4.7160

> <Gold.Chemscore.Rot>
1.7977

> <Gold.Chemscore.Internal.Correction>
   9.000000E+99

> <Gold.Chemscore.Hbonds>
donor molecule, donor type, donor heavy atom, donor atom, acceptor molecule, acceptor atom, score
      P1  H  6888  6897       L1    27  0.46
      P1  H  6896  6908       L1     6  1.00
      P1  H  6931  6943       L1    25  0.47
      P1  H  6934  6947       L1     1  0.30

> <Gold.Chemscore.Hbond.Weighted>
-6.0300

> <Gold.Chemscore.Metal.Weighted>
-0.0000

> <Gold.Chemscore.Lipo.Weighted>
-9.6939

> <Gold.Chemscore.Internal_Hbond.Weighted>
0.0000

> <Gold.Chemscore.DEClash.Weighted>
1.4662

> <Gold.Chemscore.DEInternal.Weighted>
4.7160

> <Gold.Chemscore.Rot.Weighted>
4.6022

> <Gold.Chemscore.Internal.Correction.Weighted>
   9.000000E+99

> <Gold.Protein.RotatedTorsions>
[ 6907 6896 6895 6894 ] final -126.21 input  -60.11 | X-H torsion
[ 7974 7965 7964 7962 ] final  -86.70 input  175.53 | X-H torsion
[ 8008 7997 7996 7995 ] final  -72.69 input   59.86 | X-H torsion
[ 10167 10162 10161 10158 ] final -167.99 input  -65.29 | X-H torsion
[ 10718 10713 10712 10709 ] final -123.57 input   66.30 | X-H torsion
[ 10763 10752 10751 10750 ] final  101.30 input  -60.55 | X-H torsion
[ 11005 11000 10999 10996 ] final -150.86 input  -57.11 | X-H torsion

> <Gold.Protein.ActiveResidues>
 VAL166  LYS551  ARG553  GLY616  TRP617  ASP618  TYR619  PRO620  LYS621  CYS622 
 ASP623  PHE694  ASN695  SER759  ASP760  ASP761  ALA762  ILE779  LEU786  VAL792 
 PHE793  MET794  SER795  GLU796  ALA797  LYS798  CYS799  TRP800  GLU811  SER814 

> <Gold.Protein.RotatedAtoms>
  150.8946  133.7197  159.2895 H   0  0  0  0  0  0  0  0  0  0  0  0  # atno 6907 bound_to 6896
  151.4736  135.1046  159.9768 H   0  0  0  0  0  0  0  0  0  0  0  0  # atno 6908 bound_to 6896
  152.4841  133.8280  159.7144 H   0  0  0  0  0  0  0  0  0  0  0  0  # atno 6909 bound_to 6896
  145.4763  140.9558  143.1889 H   0  0  0  0  0  0  0  0  0  0  0  0  # atno 7974 bound_to 7965
  154.5186  140.0792  156.8129 H   0  0  0  0  0  0  0  0  0  0  0  0  # atno 8008 bound_to 7997
  155.3625  140.3418  155.4223 H   0  0  0  0  0  0  0  0  0  0  0  0  # atno 8009 bound_to 7997
  156.1656  140.1602  156.8524 H   0  0  0  0  0  0  0  0  0  0  0  0  # atno 8010 bound_to 7997
  139.6013  144.1004  152.1746 H   0  0  0  0  0  0  0  0  0  0  0  0  # atno 10167 bound_to 10162
  156.1514  130.6537  150.9918 H   0  0  0  0  0  0  0  0  0  0  0  0  # atno 10718 bound_to 10713
  153.3249  135.4049  155.1448 H   0  0  0  0  0  0  0  0  0  0  0  0  # atno 10763 bound_to 10752
  154.8609  135.3596  154.5547 H   0  0  0  0  0  0  0  0  0  0  0  0  # atno 10764 bound_to 10752
  153.5982  135.7072  153.5454 H   0  0  0  0  0  0  0  0  0  0  0  0  # atno 10765 bound_to 10752
  140.7357  134.3571  157.5158 H   0  0  0  0  0  0  0  0  0  0  0  0  # atno 11005 bound_to 11000
  144.7915  139.6319  143.7111 LP  0  0  0  0  0  0  0  0  0  0  0  0  # atno 17320 bound_to 7965
  146.2367  139.5919  142.9519 LP  0  0  0  0  0  0  0  0  0  0  0  0  # atno 17321 bound_to 7965
  140.0601  144.5863  150.7269 LP  0  0  0  0  0  0  0  0  0  0  0  0  # atno 17342 bound_to 10162
  140.7252  143.2629  151.4145 LP  0  0  0  0  0  0  0  0  0  0  0  0  # atno 17343 bound_to 10162
  157.6659  131.0871  150.7728 LP  0  0  0  0  0  0  0  0  0  0  0  0  # atno 17370 bound_to 10713
  156.7796  130.4855  149.5403 LP  0  0  0  0  0  0  0  0  0  0  0  0  # atno 17371 bound_to 10713
  139.8816  134.9048  156.2885 LP  0  0  0  0  0  0  0  0  0  0  0  0  # atno 17394 bound_to 11000
  140.9881  133.7225  156.0773 LP  0  0  0  0  0  0  0  0  0  0  0  0  # atno 17395 bound_to 11000

$$$$
