AV-unprocessed.smi:2692|AV-procd|sdf|10395|dock3
  -GOLD-   2272014433D 1   1.00000     0.00000
 Structure written by MMmdl.
 21 21  0  0  0  0  0  0  0  0  2 V2000
  143.3884  133.8807  147.8370 N   0  3  0  0  0  0  0  0  0  0  0  0
  143.7519  132.5272  148.2882 C   0  0  0  0  0  0  0  0  0  0  0  0
  143.7044  132.4170  149.8184 C   0  0  0  0  0  0  0  0  0  0  0  0
  144.7459  133.2931  150.4862 C   0  0  0  0  0  0  0  0  0  0  0  0
  145.8676  132.7235  151.1261 C   0  0  0  0  0  0  0  0  0  0  0  0
  146.8277  133.4542  151.7317 N   0  0  0  0  0  0  0  0  0  0  0  0
  146.7005  134.7987  151.7220 C   0  0  0  0  0  0  0  0  0  0  0  0
  145.6199  135.4678  151.1116 C   0  0  0  0  0  0  0  0  0  0  0  0
  145.5430  136.8302  151.1306 O   0  0  0  0  0  0  0  0  0  0  0  0
  144.6223  134.6980  150.4816 C   0  0  0  0  0  0  0  0  0  0  0  0
  142.7422  134.2928  148.4949 H   0  0  0  0  0  0  0  0  0  0  0  0
  142.9529  133.8277  146.9271 H   0  0  0  0  0  0  0  0  0  0  0  0
  143.0654  131.8118  147.8342 H   0  0  0  0  0  0  0  0  0  0  0  0
  144.7515  132.2932  147.9206 H   0  0  0  0  0  0  0  0  0  0  0  0
  142.7164  132.6988  150.1858 H   0  0  0  0  0  0  0  0  0  0  0  0
  143.8636  131.3822  150.1253 H   0  0  0  0  0  0  0  0  0  0  0  0
  146.0005  131.6518  151.1502 H   0  0  0  0  0  0  0  0  0  0  0  0
  147.4834  135.3555  152.2155 H   0  0  0  0  0  0  0  0  0  0  0  0
  144.8938  137.1775  150.5384 H   0  0  0  0  0  0  0  0  0  0  0  0
  143.7801  135.1761  150.0027 H   0  0  0  0  0  0  0  0  0  0  0  0
  144.2192  134.4524  147.7799 H   0  0  0  0  0  0  0  0  0  0  0  0
  1  2  1  0  0  0  0
  1 11  1  0  0  0  0
  1 12  1  0  0  0  0
  1 21  1  0  0  0  0
  2  3  1  0  0  0  0
  2 13  1  0  0  0  0
  2 14  1  0  0  0  0
  3  4  1  0  0  0  0
  3 15  1  0  0  0  0
  3 16  1  0  0  0  0
  4 10  1  0  0  0  0
  4  5  2  0  0  0  0
  5  6  1  0  0  0  0
  5 17  1  0  0  0  0
  6  7  2  0  0  0  0
  7  8  1  0  0  0  0
  7 18  1  0  0  0  0
  8  9  1  0  0  0  0
  8 10  2  0  0  0  0
  9 19  1  0  0  0  0
 10 20  1  0  0  0  0
M  CHG  1   1   1
M  END
> <s_m_source_file>
AV-unprocessed.smi

> <i_m_source_file_index>
2692

> <i_lp_mmshare_version>
43012

> <i_f3d_flags>
0

> <s_epik_input>
W05IMl1bQ0gyXVtDSDJdYzFbY0hdbltjSF1jKFtPSF0pW2NIXTE=

> <s_epik_cmdline>
J2VwaWtfcHl0aG9uJywgJy1waCcsICc3LjAnLCAnLXRuJywgJzgnLCAnLW1hJywgJzIwMCcsICctbWV0YWxfYmluZGluZycsICctaW1hZScsICc8aW5maWxlLm1hZT4nLCAnLW9tYWUnLCAnPG91dGZpbGUubWFlPic=

> <r_lp_tautomer_probability>
0.43658

> <r_epik_Ionization_Penalty>
0.0422097

> <r_epik_Ionization_Penalty_Charging>
0.00146569

> <r_epik_Ionization_Penalty_Neutral>
0.040744

> <r_epik_State_Penalty>
0.484136

> <r_epik_Charging_Adjusted_Penalty>
0.485601

> <i_epik_Tot_Q>
1

> <i_epik_Tot_abs_Q>
1

> <r_epik_Metal_State_Penalty>
0.40611

> <b_epik_Metal_Only>
0

> <s_lp_Force_Field>
OPLS_2005

> <r_lp_Energy>
4.65602

> <b_lp_Chiralities_Consistent>
1

> <s_lp_Variant>
AV-unprocessed.smi:2692-2

> <Gold.Version>
5.8.1

> <Gold.Id.Protein>
6NUR|6NUR_protein|mol2

> <Gold.PLP.Fitness>
40.4575

> <Gold.PLP.PLP>
-22.9883

> <Gold.PLP.part.hbond>
-4.0000

> <Gold.PLP.part.metal>
0.0000

> <Gold.PLP.part.buried>
-2.2727

> <Gold.PLP.part.nonpolar>
-18.2190

> <Gold.PLP.part.repulsive>
1.1027

> <Gold.PLP.ligand.clash>
0.0000

> <Gold.PLP.ligand.torsion>
0.1103

> <Gold.PLP.Chemscore.Hbond>
5.0000

> <Gold.PLP.Chemscore.CHOScore>
0.8966

> <Gold.PLP.Chemscore.Metal>
0.0000

> <Gold.Chemscore.Hbonds>
donor molecule, donor type, donor heavy atom, donor atom, acceptor molecule, acceptor atom, score
      L1  H     1    11       P1 10186  2.00
      L1  H     1    12       P1 10195  1.00
      L1  H     1    21       P1  7921  1.00
      L1  H     9    19       P1 10171  1.00
      L1  C     7    18       P1  7948  0.22

> <Gold.PLP.Chemscore.Internal.Correction>
0.0000

> <Gold.Rescore>
     Score         DG    S(hbond)    S(metal)    S(lipo)     H(rot)  DE(clash)    DE(int)     intcor
     18.94     -20.05       3.87        0.00      55.74       1.91       0.27       0.84       ----

> <Gold.Chemscore.Fitness>
18.9391

> <Gold.Chemscore.DG>
-20.0479

> <Gold.Chemscore.ZeroCoef>
-5.4800

> <Gold.Chemscore.Hbond>
3.8708

> <Gold.Chemscore.Metal>
0.0000

> <Gold.Chemscore.Lipo>
55.7439

> <Gold.Chemscore.Internal_Hbond>
0.0000

> <Gold.Chemscore.DEClash>
0.2659

> <Gold.Chemscore.DEInternal>
0.8429

> <Gold.Chemscore.Rot>
1.9072

> <Gold.Chemscore.Internal.Correction>
   9.000000E+99

> <Gold.Chemscore.Hbonds>
donor molecule, donor type, donor heavy atom, donor atom, acceptor molecule, acceptor atom, score
      L1  H     1    11       P1 10186  0.93
      L1  H     1    12       P1 10195  0.98
      L1  H     1    21       P1  7921  0.98
      L1  H     9    19       P1 10171  0.97

> <Gold.Chemscore.Hbond.Weighted>
-12.9283

> <Gold.Chemscore.Metal.Weighted>
-0.0000

> <Gold.Chemscore.Lipo.Weighted>
-6.5220

> <Gold.Chemscore.Internal_Hbond.Weighted>
0.0000

> <Gold.Chemscore.DEClash.Weighted>
0.2659

> <Gold.Chemscore.DEInternal.Weighted>
0.8429

> <Gold.Chemscore.Rot.Weighted>
4.8824

> <Gold.Chemscore.Internal.Correction.Weighted>
   9.000000E+99

> <Gold.Protein.RotatedTorsions>
[ 6907 6896 6895 6894 ] final  113.71 input  -60.11 | X-H torsion
[ 7974 7965 7964 7962 ] final   36.09 input  175.53 | X-H torsion
[ 8008 7997 7996 7995 ] final   89.09 input   59.86 | X-H torsion
[ 10167 10162 10161 10158 ] final -121.47 input  -65.29 | X-H torsion
[ 10718 10713 10712 10709 ] final -132.63 input   66.30 | X-H torsion
[ 10763 10752 10751 10750 ] final  -66.41 input  -60.55 | X-H torsion
[ 11005 11000 10999 10996 ] final  160.37 input  -57.11 | X-H torsion

> <Gold.Protein.ActiveResidues>
 VAL166  LYS551  ARG553  GLY616  TRP617  ASP618  TYR619  PRO620  LYS621  CYS622 
 ASP623  PHE694  ASN695  SER759  ASP760  ASP761  ALA762  ILE779  LEU786  VAL792 
 PHE793  MET794  SER795  GLU796  ALA797  LYS798  CYS799  TRP800  GLU811  SER814 

> <Gold.Protein.RotatedAtoms>
  152.4845  133.8337  159.7116 H   0  0  0  0  0  0  0  0  0  0  0  0  # atno 6907 bound_to 6896
  150.8920  133.7221  159.2909 H   0  0  0  0  0  0  0  0  0  0  0  0  # atno 6908 bound_to 6896
  151.4691  135.1048  159.9798 H   0  0  0  0  0  0  0  0  0  0  0  0  # atno 6909 bound_to 6896
  146.1236  139.6060  142.9273 H   0  0  0  0  0  0  0  0  0  0  0  0  # atno 7974 bound_to 7965
  155.9957  140.3364  155.6796 H   0  0  0  0  0  0  0  0  0  0  0  0  # atno 8008 bound_to 7997
  155.6360  140.0690  157.2652 H   0  0  0  0  0  0  0  0  0  0  0  0  # atno 8009 bound_to 7997
  154.4233  140.1751  156.1510 H   0  0  0  0  0  0  0  0  0  0  0  0  # atno 8010 bound_to 7997
  140.0247  143.5308  152.2204 H   0  0  0  0  0  0  0  0  0  0  0  0  # atno 10167 bound_to 10162
  156.2365  130.7070  151.0913 H   0  0  0  0  0  0  0  0  0  0  0  0  # atno 10718 bound_to 10713
  154.3594  135.6119  153.5683 H   0  0  0  0  0  0  0  0  0  0  0  0  # atno 10763 bound_to 10752
  152.9794  135.5811  154.4650 H   0  0  0  0  0  0  0  0  0  0  0  0  # atno 10764 bound_to 10752
  154.4385  135.2849  155.1841 H   0  0  0  0  0  0  0  0  0  0  0  0  # atno 10765 bound_to 10752
  140.2053  134.8307  157.3062 H   0  0  0  0  0  0  0  0  0  0  0  0  # atno 11005 bound_to 11000
  145.5413  141.0420  143.2329 LP  0  0  0  0  0  0  0  0  0  0  0  0  # atno 17320 bound_to 7965
  144.7620  139.6933  143.7230 LP  0  0  0  0  0  0  0  0  0  0  0  0  # atno 17321 bound_to 7965
  139.6116  144.7610  151.2939 LP  0  0  0  0  0  0  0  0  0  0  0  0  # atno 17342 bound_to 10162
  140.7327  143.6814  150.7998 LP  0  0  0  0  0  0  0  0  0  0  0  0  # atno 17343 bound_to 10162
  157.7157  131.0711  150.6337 LP  0  0  0  0  0  0  0  0  0  0  0  0  # atno 17370 bound_to 10713
  156.6407  130.4458  149.5753 LP  0  0  0  0  0  0  0  0  0  0  0  0  # atno 17371 bound_to 10713
  140.2009  134.4255  155.7663 LP  0  0  0  0  0  0  0  0  0  0  0  0  # atno 17394 bound_to 11000
  141.2227  133.7072  156.8182 LP  0  0  0  0  0  0  0  0  0  0  0  0  # atno 17395 bound_to 11000

$$$$
