AV-unprocessed.smi:655|AV-procd|sdf|3214|dock7
  -GOLD-   22720 0153D 1   1.00000     0.00000
 Structure written by MMmdl.
 35 36  0  0  0  0  0  0  0  0  1 V2000
  152.1218  143.4931  160.8919 C   0  0  0  0  0  0  0  0  0  0  0  0
  152.1944  142.8980  159.4785 C   0  0  2  0  0  0  0  0  0  0  0  0
  150.9261  143.2161  158.6679 C   0  0  0  0  0  0  0  0  0  0  0  0
  150.9917  142.6271  157.2475 C   0  0  0  0  0  0  0  0  0  0  0  0
  151.2692  141.1024  157.2318 C   0  0  1  0  0  0  0  0  0  0  0  0
  150.1706  140.4249  157.8149 O   0  0  0  0  0  0  0  0  0  0  0  0
  151.4787  140.5202  155.8035 C   0  0  0  0  0  0  0  0  0  0  0  0
  150.2751  140.3180  155.0259 N   0  0  0  0  0  0  0  0  0  0  0  0
  149.2957  141.2934  154.9057 C   0  0  0  0  0  0  0  0  0  0  0  0
  148.1544  141.1191  154.1969 C   0  0  0  0  0  0  0  0  0  0  0  0
  146.9789  142.3814  154.1034 Cl  0  0  0  0  0  0  0  0  0  0  0  0
  147.9085  139.8541  153.5062 C   0  0  0  0  0  0  0  0  0  0  0  0
  146.9111  139.5898  152.8377 O   0  0  0  0  0  0  0  0  0  0  0  0
  148.9225  138.9026  153.6498 N   0  0  0  0  0  0  0  0  0  0  0  0
  150.1002  139.0728  154.3783 C   0  0  0  0  0  0  0  0  0  0  0  0
  150.9241  138.1596  154.4285 O   0  0  0  0  0  0  0  0  0  0  0  0
  152.5054  140.7766  158.1045 C   0  0  0  0  0  0  0  0  0  0  0  0
  152.4280  141.3778  159.5195 C   0  0  0  0  0  0  0  0  0  0  0  0
  148.7923  138.0156  153.1850 H   0  0  0  0  0  0  0  0  0  0  0  0
  151.2820  143.0814  161.4527 H   0  0  0  0  0  0  0  0  0  0  0  0
  151.9992  144.5759  160.8560 H   0  0  0  0  0  0  0  0  0  0  0  0
  153.0323  143.2834  161.4538 H   0  0  0  0  0  0  0  0  0  0  0  0
  153.0440  143.3569  158.9706 H   0  0  0  0  0  0  0  0  0  0  0  0
  150.0488  142.8261  159.1856 H   0  0  0  0  0  0  0  0  0  0  0  0
  150.7871  144.2958  158.6044 H   0  0  0  0  0  0  0  0  0  0  0  0
  150.0588  142.8521  156.7290 H   0  0  0  0  0  0  0  0  0  0  0  0
  151.7794  143.1403  156.6951 H   0  0  0  0  0  0  0  0  0  0  0  0
  149.9970  139.6432  157.3131 H   0  0  0  0  0  0  0  0  0  0  0  0
  152.0708  141.2148  155.2053 H   0  0  0  0  0  0  0  0  0  0  0  0
  152.0521  139.5902  155.7981 H   0  0  0  0  0  0  0  0  0  0  0  0
  149.4428  142.2395  155.4075 H   0  0  0  0  0  0  0  0  0  0  0  0
  152.6468  139.6968  158.1727 H   0  0  0  0  0  0  0  0  0  0  0  0
  153.4016  141.1648  157.6184 H   0  0  0  0  0  0  0  0  0  0  0  0
  153.3524  141.1595  160.0554 H   0  0  0  0  0  0  0  0  0  0  0  0
  151.6284  140.8954  160.0833 H   0  0  0  0  0  0  0  0  0  0  0  0
  1  2  1  0  0  0  0
  1 20  1  0  0  0  0
  1 21  1  0  0  0  0
  1 22  1  0  0  0  0
  2 18  1  0  0  0  0
  2  3  1  0  0  0  0
  2 23  1  0  0  0  0
  3  4  1  0  0  0  0
  3 24  1  0  0  0  0
  3 25  1  0  0  0  0
  4  5  1  0  0  0  0
  4 26  1  0  0  0  0
  4 27  1  0  0  0  0
  5  6  1  0  0  0  0
  5  7  1  0  0  0  0
  5 17  1  0  0  0  0
  6 28  1  0  0  0  0
  7  8  1  0  0  0  0
  7 29  1  0  0  0  0
  7 30  1  0  0  0  0
  8 15  1  0  0  0  0
  8  9  1  0  0  0  0
  9 10  2  0  0  0  0
  9 31  1  0  0  0  0
 10 11  1  0  0  0  0
 10 12  1  0  0  0  0
 12 13  2  0  0  0  0
 12 14  1  0  0  0  0
 14 19  1  0  0  0  0
 14 15  1  0  0  0  0
 15 16  2  0  0  0  0
 17 18  1  0  0  0  0
 17 32  1  0  0  0  0
 17 33  1  0  0  0  0
 18 34  1  0  0  0  0
 18 35  1  0  0  0  0
M  END
> <s_m_source_file>
AV-unprocessed.smi

> <i_m_source_file_index>
655

> <i_lp_mmshare_version>
43012

> <i_f3d_flags>
0

> <s_epik_input>
W0NIMl0xW0NIMl1bQ0BIXShbQ0gzXSlbQ0gyXVtDSDJdW0NAQF0xKFtPSF0pW0NIMl1uMltjSF1jKENsKWMoPU8pW25IXWMyPU8=

> <s_epik_cmdline>
J2VwaWtfcHl0aG9uJywgJy1waCcsICc3LjAnLCAnLXRuJywgJzgnLCAnLW1hJywgJzIwMCcsICctbWV0YWxfYmluZGluZycsICctaW1hZScsICc8aW5maWxlLm1hZT4nLCAnLW9tYWUnLCAnPG91dGZpbGUubWFlPic=

> <r_lp_tautomer_probability>
0.999537

> <r_epik_Ionization_Penalty>
0.0114762

> <r_epik_Ionization_Penalty_Charging>
0.0114753

> <r_epik_Ionization_Penalty_Neutral>
8.25878e-07

> <r_epik_State_Penalty>
0.00883314

> <r_epik_Charging_Adjusted_Penalty>
0.0203085

> <i_epik_Tot_Q>
0

> <i_epik_Tot_abs_Q>
0

> <r_epik_Metal_State_Penalty>
1.64347

> <b_epik_Metal_Only>
0

> <s_lp_Force_Field>
OPLS_2005

> <r_lp_Energy>
18.0938

> <b_lp_Chiralities_Consistent>
1

> <s_lp_Variant>
AV-unprocessed.smi:655-1

> <Gold.Version>
5.8.1

> <Gold.Id.Protein>
6NUR|6NUR_protein|mol2

> <Gold.PLP.Fitness>
42.0435

> <Gold.PLP.PLP>
-38.2942

> <Gold.PLP.part.hbond>
-1.4849

> <Gold.PLP.part.metal>
0.0000

> <Gold.PLP.part.buried>
-1.7169

> <Gold.PLP.part.nonpolar>
-34.5540

> <Gold.PLP.part.repulsive>
0.5138

> <Gold.PLP.ligand.clash>
0.0000

> <Gold.PLP.ligand.torsion>
0.3687

> <Gold.PLP.Chemscore.Hbond>
0.5688

> <Gold.PLP.Chemscore.CHOScore>
0.9248

> <Gold.PLP.Chemscore.Metal>
0.0000

> <Gold.Chemscore.Hbonds>
donor molecule, donor type, donor heavy atom, donor atom, acceptor molecule, acceptor atom, score
      L1  H    14    19       P1  7948  0.57
      L1  C     9    31       P1  8028  0.95

> <Gold.PLP.Chemscore.Internal.Correction>
0.0060

> <Gold.Rescore>
     Score         DG    S(hbond)    S(metal)    S(lipo)     H(rot)  DE(clash)    DE(int)     intcor
     13.83     -14.53       0.97        0.00      90.04       1.84       0.29       0.40       ----

> <Gold.Chemscore.Fitness>
13.8328

> <Gold.Chemscore.DG>
-14.5292

> <Gold.Chemscore.ZeroCoef>
-5.4800

> <Gold.Chemscore.Hbond>
0.9673

> <Gold.Chemscore.Metal>
0.0000

> <Gold.Chemscore.Lipo>
90.0422

> <Gold.Chemscore.Internal_Hbond>
0.0000

> <Gold.Chemscore.DEClash>
0.2921

> <Gold.Chemscore.DEInternal>
0.4043

> <Gold.Chemscore.Rot>
1.8424

> <Gold.Chemscore.Internal.Correction>
   9.000000E+99

> <Gold.Chemscore.Hbonds>
donor molecule, donor type, donor heavy atom, donor atom, acceptor molecule, acceptor atom, score
      L1  H    14    19       P1  7948  0.56

> <Gold.Chemscore.Hbond.Weighted>
-3.2307

> <Gold.Chemscore.Metal.Weighted>
-0.0000

> <Gold.Chemscore.Lipo.Weighted>
-10.5349

> <Gold.Chemscore.Internal_Hbond.Weighted>
0.0000

> <Gold.Chemscore.DEClash.Weighted>
0.2921

> <Gold.Chemscore.DEInternal.Weighted>
0.4043

> <Gold.Chemscore.Rot.Weighted>
4.7164

> <Gold.Chemscore.Internal.Correction.Weighted>
   9.000000E+99

> <Gold.Protein.RotatedTorsions>
[ 6907 6896 6895 6894 ] final    4.30 input  -60.11 | X-H torsion
[ 7974 7965 7964 7962 ] final   64.62 input  175.53 | X-H torsion
[ 8008 7997 7996 7995 ] final -134.97 input   59.86 | X-H torsion
[ 10167 10162 10161 10158 ] final -160.45 input  -65.29 | X-H torsion
[ 10718 10713 10712 10709 ] final  -61.02 input   66.30 | X-H torsion
[ 10763 10752 10751 10750 ] final   75.40 input  -60.55 | X-H torsion
[ 11005 11000 10999 10996 ] final    7.03 input  -57.11 | X-H torsion

> <Gold.Protein.ActiveResidues>
 VAL166  LYS551  ARG553  GLY616  TRP617  ASP618  TYR619  PRO620  LYS621  CYS622 
 ASP623  PHE694  ASN695  SER759  ASP760  ASP761  ALA762  ILE779  LEU786  VAL792 
 PHE793  MET794  SER795  GLU796  ALA797  LYS798  CYS799  TRP800  GLU811  SER814 

> <Gold.Protein.RotatedAtoms>
  151.6391  135.1014  160.0137 H   0  0  0  0  0  0  0  0  0  0  0  0  # atno 6907 bound_to 6896
  152.4064  133.6891  159.6368 H   0  0  0  0  0  0  0  0  0  0  0  0  # atno 6908 bound_to 6896
  150.7958  133.8619  159.3275 H   0  0  0  0  0  0  0  0  0  0  0  0  # atno 6909 bound_to 6896
  145.8480  139.3236  143.0892 H   0  0  0  0  0  0  0  0  0  0  0  0  # atno 7974 bound_to 7965
  155.3709  140.0488  157.3045 H   0  0  0  0  0  0  0  0  0  0  0  0  # atno 8008 bound_to 7997
  154.5130  140.2198  155.9082 H   0  0  0  0  0  0  0  0  0  0  0  0  # atno 8009 bound_to 7997
  156.1604  140.3117  155.8804 H   0  0  0  0  0  0  0  0  0  0  0  0  # atno 8010 bound_to 7997
  139.6538  144.0035  152.2180 H   0  0  0  0  0  0  0  0  0  0  0  0  # atno 10167 bound_to 10162
  156.0950  130.4194  150.0936 H   0  0  0  0  0  0  0  0  0  0  0  0  # atno 10718 bound_to 10713
  153.0652  135.4990  154.8184 H   0  0  0  0  0  0  0  0  0  0  0  0  # atno 10763 bound_to 10752
  154.6943  135.2990  154.9437 H   0  0  0  0  0  0  0  0  0  0  0  0  # atno 10764 bound_to 10752
  154.0181  135.6745  153.4823 H   0  0  0  0  0  0  0  0  0  0  0  0  # atno 10765 bound_to 10752
  140.5528  134.0267  155.7943 H   0  0  0  0  0  0  0  0  0  0  0  0  # atno 11005 bound_to 11000
  145.9390  140.8993  143.0317 LP  0  0  0  0  0  0  0  0  0  0  0  0  # atno 17320 bound_to 7965
  144.6730  140.1522  143.7429 LP  0  0  0  0  0  0  0  0  0  0  0  0  # atno 17321 bound_to 7965
  139.9756  144.6463  150.7948 LP  0  0  0  0  0  0  0  0  0  0  0  0  # atno 17342 bound_to 10162
  140.7550  143.3038  151.3014 LP  0  0  0  0  0  0  0  0  0  0  0  0  # atno 17343 bound_to 10162
  156.8937  130.9597  151.3585 LP  0  0  0  0  0  0  0  0  0  0  0  0  # atno 17370 bound_to 10713
  157.6109  130.8582  149.8949 LP  0  0  0  0  0  0  0  0  0  0  0  0  # atno 17371 bound_to 10713
  141.1161  133.9537  157.2819 LP  0  0  0  0  0  0  0  0  0  0  0  0  # atno 17394 bound_to 11000
  139.9447  135.0186  156.8815 LP  0  0  0  0  0  0  0  0  0  0  0  0  # atno 17395 bound_to 11000

$$$$
