AV-unprocessed.smi:670|AV-procd|sdf|3269|dock5
  -GOLD-   22720 0223D 1   1.00000     0.00000
 Structure written by MMmdl.
 45 46  0  0  0  0  0  0  0  0  1 V2000
  153.4148  141.2471  160.2096 C   0  0  0  0  0  0  0  0  0  0  0  0
  153.0129  142.3364  159.2018 C   0  0  2  0  0  0  0  0  0  0  0  0
  152.6982  143.6596  159.9284 C   0  0  0  0  0  0  0  0  0  0  0  0
  152.2930  144.7672  158.9444 C   0  0  0  0  0  0  0  0  0  0  0  0
  151.1008  144.3280  158.0837 C   0  0  0  0  0  0  0  0  0  0  0  0
  151.4069  143.0160  157.3464 C   0  0  0  0  0  0  0  0  0  0  0  0
  151.8181  141.8952  158.3258 C   0  0  1  0  0  0  0  0  0  0  0  0
  152.2227  140.7439  157.5963 O   0  0  0  0  0  0  0  0  0  0  0  0
  151.1980  139.7865  157.3717 C   0  0  0  0  0  0  0  0  0  0  0  0
  150.5122  139.4584  158.7052 C   0  0  0  0  0  0  0  0  0  0  0  0
  149.5662  138.3568  158.5620 N   0  0  0  0  0  0  0  0  0  0  0  0
  149.8037  137.0830  158.9105 C   0  0  0  0  0  0  0  0  0  0  0  0
  150.8674  136.7045  159.4034 O   0  0  0  0  0  0  0  0  0  0  0  0
  148.6679  136.0872  158.6340 C   0  0  0  0  0  0  0  0  0  0  0  0
  148.2117  135.3768  159.8375 N   0  0  0  0  0  0  0  0  0  0  0  0
  148.3175  133.9964  159.7559 N   0  0  0  0  0  0  0  0  0  0  0  0
  147.9647  133.2625  160.7566 C   0  0  0  0  0  0  0  0  0  0  0  0
  148.0891  131.8999  160.6357 O   0  0  0  0  0  0  0  0  0  0  0  0
  147.4513  133.8523  161.9736 C   0  0  0  0  0  0  0  0  0  0  0  0
  147.3456  135.1975  162.0410 C   0  0  0  0  0  0  0  0  0  0  0  0
  147.7373  136.0599  160.9245 C   0  0  0  0  0  0  0  0  0  0  0  0
  147.6498  137.2873  160.9580 O   0  0  0  0  0  0  0  0  0  0  0  0
  148.0604  131.5652  161.5187 H   0  0  0  0  0  0  0  0  0  0  0  0
  152.5931  141.0100  160.8856 H   0  0  0  0  0  0  0  0  0  0  0  0
  154.2632  141.5668  160.8153 H   0  0  0  0  0  0  0  0  0  0  0  0
  153.7061  140.3260  159.7039 H   0  0  0  0  0  0  0  0  0  0  0  0
  153.8673  142.5107  158.5455 H   0  0  0  0  0  0  0  0  0  0  0  0
  151.8936  143.5024  160.6480 H   0  0  0  0  0  0  0  0  0  0  0  0
  153.5660  143.9851  160.5031 H   0  0  0  0  0  0  0  0  0  0  0  0
  152.0428  145.6771  159.4906 H   0  0  0  0  0  0  0  0  0  0  0  0
  153.1387  145.0143  158.3016 H   0  0  0  0  0  0  0  0  0  0  0  0
  150.2211  144.1967  158.7150 H   0  0  0  0  0  0  0  0  0  0  0  0
  150.8530  145.1095  157.3652 H   0  0  0  0  0  0  0  0  0  0  0  0
  150.5316  142.7218  156.7682 H   0  0  0  0  0  0  0  0  0  0  0  0
  152.2092  143.1832  156.6264 H   0  0  0  0  0  0  0  0  0  0  0  0
  150.9787  141.6504  158.9797 H   0  0  0  0  0  0  0  0  0  0  0  0
  150.4638  140.1977  156.6777 H   0  0  0  0  0  0  0  0  0  0  0  0
  151.5953  138.8759  156.9232 H   0  0  0  0  0  0  0  0  0  0  0  0
  151.2537  139.2444  159.4770 H   0  0  0  0  0  0  0  0  0  0  0  0
  149.9540  140.3293  159.0488 H   0  0  0  0  0  0  0  0  0  0  0  0
  148.6672  138.5778  158.1593 H   0  0  0  0  0  0  0  0  0  0  0  0
  147.8289  136.6071  158.1676 H   0  0  0  0  0  0  0  0  0  0  0  0
  149.0212  135.3740  157.8869 H   0  0  0  0  0  0  0  0  0  0  0  0
  147.1606  133.2248  162.8033 H   0  0  0  0  0  0  0  0  0  0  0  0
  146.9630  135.6517  162.9431 H   0  0  0  0  0  0  0  0  0  0  0  0
  1  2  1  0  0  0  0
  1 24  1  0  0  0  0
  1 25  1  0  0  0  0
  1 26  1  0  0  0  0
  2  7  1  0  0  0  0
  2  3  1  0  0  0  0
  2 27  1  0  0  0  0
  3  4  1  0  0  0  0
  3 28  1  0  0  0  0
  3 29  1  0  0  0  0
  4  5  1  0  0  0  0
  4 30  1  0  0  0  0
  4 31  1  0  0  0  0
  5  6  1  0  0  0  0
  5 32  1  0  0  0  0
  5 33  1  0  0  0  0
  6  7  1  0  0  0  0
  6 34  1  0  0  0  0
  6 35  1  0  0  0  0
  7  8  1  0  0  0  0
  7 36  1  0  0  0  0
  8  9  1  0  0  0  0
  9 10  1  0  0  0  0
  9 37  1  0  0  0  0
  9 38  1  0  0  0  0
 10 11  1  0  0  0  0
 10 39  1  0  0  0  0
 10 40  1  0  0  0  0
 11 12  1  0  0  0  0
 11 41  1  0  0  0  0
 12 13  2  0  0  0  0
 12 14  1  0  0  0  0
 14 42  1  0  0  0  0
 14 43  1  0  0  0  0
 14 15  1  0  0  0  0
 15 16  1  0  0  0  0
 15 21  1  0  0  0  0
 16 17  2  0  0  0  0
 17 18  1  0  0  0  0
 17 19  1  0  0  0  0
 18 23  1  0  0  0  0
 19 44  1  0  0  0  0
 19 20  2  0  0  0  0
 20 45  1  0  0  0  0
 20 21  1  0  0  0  0
 21 22  2  0  0  0  0
M  END
> <s_m_source_file>
AV-unprocessed.smi

> <i_m_source_file_index>
670

> <i_lp_mmshare_version>
43012

> <i_f3d_flags>
0

> <s_epik_input>
W0NIM11bQ0BASF0xW0NIMl1bQ0gyXVtDSDJdW0NIMl1bQ0BIXTFPW0NIMl1bQ0gyXVtOSF1DKD1PKVtDSDJdbjJbbkhdYyg9TylbY0hdW2NIXWMyPU8=

> <s_epik_cmdline>
J2VwaWtfcHl0aG9uJywgJy1waCcsICc3LjAnLCAnLXRuJywgJzgnLCAnLW1hJywgJzIwMCcsICctbWV0YWxfYmluZGluZycsICctaW1hZScsICc8aW5maWxlLm1hZT4nLCAnLW9tYWUnLCAnPG91dGZpbGUubWFlPic=

> <r_lp_tautomer_probability>
0.9996

> <r_epik_Ionization_Penalty>
2.12726

> <r_epik_Ionization_Penalty_Charging>
3.83395e-08

> <r_epik_Ionization_Penalty_Neutral>
2.12726

> <r_epik_State_Penalty>
1.70432

> <r_epik_Charging_Adjusted_Penalty>
1.70432

> <i_epik_Tot_Q>
0

> <i_epik_Tot_abs_Q>
0

> <r_epik_Metal_State_Penalty>
1.70432

> <b_epik_Metal_Only>
0

> <s_lp_Force_Field>
OPLS_2005

> <r_lp_Energy>
21.1157

> <b_lp_Chiralities_Consistent>
1

> <s_lp_Variant>
AV-unprocessed.smi:670-5

> <Gold.Version>
5.8.1

> <Gold.Id.Protein>
6NUR|6NUR_protein|mol2

> <Gold.PLP.Fitness>
51.2737

> <Gold.PLP.PLP>
-44.0816

> <Gold.PLP.part.hbond>
-3.1928

> <Gold.PLP.part.metal>
0.0000

> <Gold.PLP.part.buried>
-5.8739

> <Gold.PLP.part.nonpolar>
-36.2760

> <Gold.PLP.part.repulsive>
0.1905

> <Gold.PLP.ligand.clash>
0.0000

> <Gold.PLP.ligand.torsion>
0.6307

> <Gold.PLP.Chemscore.Hbond>
2.8080

> <Gold.PLP.Chemscore.CHOScore>
0.0000

> <Gold.PLP.Chemscore.Metal>
0.0000

> <Gold.Chemscore.Hbonds>
donor molecule, donor type, donor heavy atom, donor atom, acceptor molecule, acceptor atom, score
      P1  H  6896  6907       L1    13  1.00
      P1  H  6931  6943       L1    22  0.83
      P1  H  6934  6947       L1    22  0.91

> <Gold.PLP.Chemscore.Internal.Correction>
0.0295

> <Gold.Rescore>
     Score         DG    S(hbond)    S(metal)    S(lipo)     H(rot)  DE(clash)    DE(int)     intcor
     17.56     -19.16       2.73        0.00     106.53       3.09       0.02       1.58       ----

> <Gold.Chemscore.Fitness>
17.5582

> <Gold.Chemscore.DG>
-19.1583

> <Gold.Chemscore.ZeroCoef>
-5.4800

> <Gold.Chemscore.Hbond>
2.7320

> <Gold.Chemscore.Metal>
0.0000

> <Gold.Chemscore.Lipo>
106.5296

> <Gold.Chemscore.Internal_Hbond>
0.0000

> <Gold.Chemscore.DEClash>
0.0172

> <Gold.Chemscore.DEInternal>
1.5828

> <Gold.Chemscore.Rot>
3.0901

> <Gold.Chemscore.Internal.Correction>
   9.000000E+99

> <Gold.Chemscore.Hbonds>
donor molecule, donor type, donor heavy atom, donor atom, acceptor molecule, acceptor atom, score
      P1  H  6896  6907       L1    13  0.88
      P1  H  6931  6943       L1    22  0.77
      P1  H  6934  6947       L1    22  0.88
      P1  H  7997  8010       L1     8  0.04

> <Gold.Chemscore.Hbond.Weighted>
-9.1249

> <Gold.Chemscore.Metal.Weighted>
-0.0000

> <Gold.Chemscore.Lipo.Weighted>
-12.4640

> <Gold.Chemscore.Internal_Hbond.Weighted>
0.0000

> <Gold.Chemscore.DEClash.Weighted>
0.0172

> <Gold.Chemscore.DEInternal.Weighted>
1.5828

> <Gold.Chemscore.Rot.Weighted>
7.9106

> <Gold.Chemscore.Internal.Correction.Weighted>
   9.000000E+99

> <Gold.Protein.RotatedTorsions>
[ 6907 6896 6895 6894 ] final  -39.08 input  -60.11 | X-H torsion
[ 7974 7965 7964 7962 ] final  131.10 input  175.53 | X-H torsion
[ 8008 7997 7996 7995 ] final   63.49 input   59.86 | X-H torsion
[ 10167 10162 10161 10158 ] final -133.24 input  -65.29 | X-H torsion
[ 10718 10713 10712 10709 ] final  -66.33 input   66.30 | X-H torsion
[ 10763 10752 10751 10750 ] final   96.41 input  -60.55 | X-H torsion
[ 11005 11000 10999 10996 ] final  -42.23 input  -57.11 | X-H torsion

> <Gold.Protein.ActiveResidues>
 VAL166  LYS551  ARG553  GLY616  TRP617  ASP618  TYR619  PRO620  LYS621  CYS622 
 ASP623  PHE694  ASN695  SER759  ASP760  ASP761  ALA762  ILE779  LEU786  VAL792 
 PHE793  MET794  SER795  GLU796  ALA797  LYS798  CYS799  TRP800  GLU811  SER814 

> <Gold.Protein.RotatedAtoms>
  150.9946  134.9273  159.7919 H   0  0  0  0  0  0  0  0  0  0  0  0  # atno 6907 bound_to 6896
  152.5261  134.3235  159.9167 H   0  0  0  0  0  0  0  0  0  0  0  0  # atno 6908 bound_to 6896
  151.3241  133.3986  159.2691 H   0  0  0  0  0  0  0  0  0  0  0  0  # atno 6909 bound_to 6896
  145.0109  139.4221  143.5245 H   0  0  0  0  0  0  0  0  0  0  0  0  # atno 7974 bound_to 7965
  155.6310  140.3496  155.4683 H   0  0  0  0  0  0  0  0  0  0  0  0  # atno 8008 bound_to 7997
  156.0003  140.1212  157.0578 H   0  0  0  0  0  0  0  0  0  0  0  0  # atno 8009 bound_to 7997
  154.4246  140.1102  156.5673 H   0  0  0  0  0  0  0  0  0  0  0  0  # atno 8010 bound_to 7997
  139.9003  143.6616  152.2596 H   0  0  0  0  0  0  0  0  0  0  0  0  # atno 10167 bound_to 10162
  156.0619  130.4260  150.1693 H   0  0  0  0  0  0  0  0  0  0  0  0  # atno 10718 bound_to 10713
  153.2646  135.4219  155.0928 H   0  0  0  0  0  0  0  0  0  0  0  0  # atno 10763 bound_to 10752
  154.8433  135.3457  154.6329 H   0  0  0  0  0  0  0  0  0  0  0  0  # atno 10764 bound_to 10752
  153.6749  135.7042  153.5193 H   0  0  0  0  0  0  0  0  0  0  0  0  # atno 10765 bound_to 10752
  141.0301  133.6824  156.2565 H   0  0  0  0  0  0  0  0  0  0  0  0  # atno 11005 bound_to 11000
  146.3469  139.9552  142.8724 LP  0  0  0  0  0  0  0  0  0  0  0  0  # atno 17320 bound_to 7965
  145.2025  140.9860  143.4148 LP  0  0  0  0  0  0  0  0  0  0  0  0  # atno 17321 bound_to 7965
  139.7031  144.7632  151.1238 LP  0  0  0  0  0  0  0  0  0  0  0  0  # atno 17342 bound_to 10162
  140.7708  143.5430  150.9290 LP  0  0  0  0  0  0  0  0  0  0  0  0  # atno 17343 bound_to 10162
  156.9760  130.9849  151.3448 LP  0  0  0  0  0  0  0  0  0  0  0  0  # atno 17370 bound_to 10713
  157.5633  130.8260  149.8294 LP  0  0  0  0  0  0  0  0  0  0  0  0  # atno 17371 bound_to 10713
  140.6422  134.5154  157.5570 LP  0  0  0  0  0  0  0  0  0  0  0  0  # atno 17394 bound_to 11000
  139.9202  134.8164  156.1236 LP  0  0  0  0  0  0  0  0  0  0  0  0  # atno 17395 bound_to 11000

$$$$
