AV-unprocessed.smi:1916|AV-procd|sdf|7766|dock6
  -GOLD-   22720 9513D 1   1.00000     0.00000
 Structure written by MMmdl.
 46 48  0  0  0  0  0  0  0  0  2 V2000
  148.4770  139.1138  155.7202 O   0  0  0  0  0  0  0  0  0  0  0  0
  148.7749  139.7112  154.6859 C   0  0  0  0  0  0  0  0  0  0  0  0
  148.0154  139.6968  153.5805 N   0  0  0  0  0  0  0  0  0  0  0  0
  146.7493  138.9840  153.4334 C   0  0  0  0  0  0  0  0  0  0  0  0
  146.5286  138.4873  151.9933 C   0  0  0  0  0  0  0  0  0  0  0  0
  145.4864  137.3882  151.8783 C   0  0  0  0  0  0  0  0  0  0  0  0
  145.7924  136.1238  151.3300 C   0  0  0  0  0  0  0  0  0  0  0  0
  144.7854  135.1382  151.2646 C   0  0  0  0  0  0  0  0  0  0  0  0
  143.4952  135.4370  151.7493 C   0  0  0  0  0  0  0  0  0  0  0  0
  143.2440  136.7155  152.2877 C   0  0  0  0  0  0  0  0  0  0  0  0
  144.2356  137.6324  152.3337 N   0  3  0  0  0  0  0  0  0  0  0  0
  150.0744  140.5292  154.6116 C   0  0  2  0  0  0  0  0  0  0  0  0
  151.2874  139.6971  155.0623 C   0  0  0  0  0  0  0  0  0  0  0  0
  151.6956  140.3292  156.3819 C   0  0  0  0  0  0  0  0  0  0  0  0
  152.5390  139.8219  157.1197 O   0  0  0  0  0  0  0  0  0  0  0  0
  151.0112  141.4571  156.6207 N   0  0  0  0  0  0  0  0  0  0  0  0
  151.0912  142.2433  157.8644 C   0  0  0  0  0  0  0  0  0  0  0  0
  152.1220  143.3890  157.8519 C   0  0  0  0  0  0  0  0  0  0  0  0
  152.4956  143.5825  159.3183 C   0  0  0  0  0  0  0  0  0  0  0  0
  152.5329  142.1619  159.8757 C   0  0  0  0  0  0  0  0  0  0  0  0
  151.4559  141.3906  159.1020 C   0  0  0  0  0  0  0  0  0  0  0  0
  150.0599  141.7518  155.5538 C   0  0  0  0  0  0  0  0  0  0  0  0
  148.3354  140.2279  152.7839 H   0  0  0  0  0  0  0  0  0  0  0  0
  146.6897  138.1345  154.1156 H   0  0  0  0  0  0  0  0  0  0  0  0
  145.9456  139.6653  153.7147 H   0  0  0  0  0  0  0  0  0  0  0  0
  146.2300  139.3241  151.3600 H   0  0  0  0  0  0  0  0  0  0  0  0
  147.4716  138.1230  151.5841 H   0  0  0  0  0  0  0  0  0  0  0  0
  146.7871  135.9091  150.9664 H   0  0  0  0  0  0  0  0  0  0  0  0
  145.0007  134.1645  150.8491 H   0  0  0  0  0  0  0  0  0  0  0  0
  142.7099  134.6963  151.7086 H   0  0  0  0  0  0  0  0  0  0  0  0
  142.2879  137.0296  152.6802 H   0  0  0  0  0  0  0  0  0  0  0  0
  150.2232  140.8670  153.5845 H   0  0  0  0  0  0  0  0  0  0  0  0
  151.0678  138.6366  155.1976 H   0  0  0  0  0  0  0  0  0  0  0  0
  152.1092  139.7826  154.3508 H   0  0  0  0  0  0  0  0  0  0  0  0
  150.1094  142.6872  158.0385 H   0  0  0  0  0  0  0  0  0  0  0  0
  153.0266  143.1056  157.3134 H   0  0  0  0  0  0  0  0  0  0  0  0
  151.7326  144.2993  157.3950 H   0  0  0  0  0  0  0  0  0  0  0  0
  153.4417  144.1092  159.4461 H   0  0  0  0  0  0  0  0  0  0  0  0
  151.7200  144.1593  159.8240 H   0  0  0  0  0  0  0  0  0  0  0  0
  153.5103  141.7197  159.6781 H   0  0  0  0  0  0  0  0  0  0  0  0
  152.3718  142.1348  160.9538 H   0  0  0  0  0  0  0  0  0  0  0  0
  150.5713  141.2355  159.7208 H   0  0  0  0  0  0  0  0  0  0  0  0
  151.8340  140.4038  158.8312 H   0  0  0  0  0  0  0  0  0  0  0  0
  150.3850  142.6445  155.0180 H   0  0  0  0  0  0  0  0  0  0  0  0
  149.0670  141.9526  155.9599 H   0  0  0  0  0  0  0  0  0  0  0  0
  144.0310  138.5514  152.7272 H   0  0  0  0  0  0  0  0  0  0  0  0
  1  2  2  0  0  0  0
  2  3  1  0  0  0  0
  2 12  1  0  0  0  0
  3  4  1  0  0  0  0
  3 23  1  0  0  0  0
  4  5  1  0  0  0  0
  4 24  1  0  0  0  0
  4 25  1  0  0  0  0
  5  6  1  0  0  0  0
  5 26  1  0  0  0  0
  5 27  1  0  0  0  0
  6 11  1  0  0  0  0
  6  7  2  0  0  0  0
  7  8  1  0  0  0  0
  7 28  1  0  0  0  0
  8  9  2  0  0  0  0
  8 29  1  0  0  0  0
  9 10  1  0  0  0  0
  9 30  1  0  0  0  0
 10 11  2  0  0  0  0
 10 31  1  0  0  0  0
 11 46  1  0  0  0  0
 12 22  1  0  0  0  0
 12 13  1  0  0  0  0
 12 32  1  0  0  0  0
 13 14  1  0  0  0  0
 13 33  1  0  0  0  0
 13 34  1  0  0  0  0
 14 15  2  0  0  0  0
 14 16  1  0  0  0  0
 16 17  1  0  0  0  0
 16 22  1  0  0  0  0
 17 21  1  0  0  0  0
 17 18  1  0  0  0  0
 17 35  1  0  0  0  0
 18 19  1  0  0  0  0
 18 36  1  0  0  0  0
 18 37  1  0  0  0  0
 19 20  1  0  0  0  0
 19 38  1  0  0  0  0
 19 39  1  0  0  0  0
 20 21  1  0  0  0  0
 20 40  1  0  0  0  0
 20 41  1  0  0  0  0
 21 42  1  0  0  0  0
 21 43  1  0  0  0  0
 22 44  1  0  0  0  0
 22 45  1  0  0  0  0
M  CHG  1  11   1
M  END
> <s_m_source_file>
AV-unprocessed.smi

> <i_m_source_file_index>
1916

> <i_lp_mmshare_version>
43012

> <i_f3d_flags>
0

> <s_epik_input>
W0NIMl0xW0NIMl1bQ0gyXVtDSDJdW0NIXTFOKFtDSDJdMilDKD1PKVtDSDJdW0NASF0yQyg9TylbTkhdW0NIMl1bQ0gyXWMzW2NIXVtjSF1bY0hdW2NIXW4z

> <s_epik_cmdline>
J2VwaWtfcHl0aG9uJywgJy1waCcsICc3LjAnLCAnLXRuJywgJzgnLCAnLW1hJywgJzIwMCcsICctbWV0YWxfYmluZGluZycsICctaW1hZScsICc8aW5maWxlLm1hZT4nLCAnLW9tYWUnLCAnPG91dGZpbGUubWFlPic=

> <r_epik_Ionization_Penalty>
1.88249

> <r_epik_Ionization_Penalty_Charging>
1.88249

> <r_epik_Ionization_Penalty_Neutral>
3.64574e-08

> <r_epik_State_Penalty>
2.00238

> <r_epik_Charging_Adjusted_Penalty>
3.88487

> <i_epik_Tot_Q>
1

> <i_epik_Tot_abs_Q>
1

> <r_epik_Metal_State_Penalty>
2.02676

> <b_epik_Metal_Only>
0

> <s_lp_Force_Field>
OPLS_2005

> <r_lp_Energy>
42.8241

> <b_lp_Chiralities_Consistent>
1

> <s_lp_Variant>
AV-unprocessed.smi:1916-3

> <Gold.Version>
5.8.1

> <Gold.Id.Protein>
6NUR|6NUR_protein|mol2

> <Gold.PLP.Fitness>
53.2600

> <Gold.PLP.PLP>
-43.8136

> <Gold.PLP.part.hbond>
-4.0000

> <Gold.PLP.part.metal>
0.0000

> <Gold.PLP.part.buried>
2.3181

> <Gold.PLP.part.nonpolar>
-41.9470

> <Gold.PLP.part.repulsive>
0.0978

> <Gold.PLP.ligand.clash>
0.0000

> <Gold.PLP.ligand.torsion>
1.1049

> <Gold.PLP.Chemscore.Hbond>
3.8564

> <Gold.PLP.Chemscore.CHOScore>
0.0000

> <Gold.PLP.Chemscore.Metal>
0.0000

> <Gold.Chemscore.Hbonds>
donor molecule, donor type, donor heavy atom, donor atom, acceptor molecule, acceptor atom, score
      L1  H     3    23       P1  7957  0.74
      L1  H    11    46       P1 10175  1.95
      P1  H  7997  8010       L1    15  1.00

> <Gold.PLP.Chemscore.Internal.Correction>
0.0870

> <Gold.Rescore>
     Score         DG    S(hbond)    S(metal)    S(lipo)     H(rot)  DE(clash)    DE(int)     intcor
     18.79     -23.85       2.73        0.00     116.70       1.72       2.49       2.56       ----

> <Gold.Chemscore.Fitness>
18.7912

> <Gold.Chemscore.DG>
-23.8477

> <Gold.Chemscore.ZeroCoef>
-5.4800

> <Gold.Chemscore.Hbond>
2.7264

> <Gold.Chemscore.Metal>
0.0000

> <Gold.Chemscore.Lipo>
116.6997

> <Gold.Chemscore.Internal_Hbond>
0.0000

> <Gold.Chemscore.DEClash>
2.4922

> <Gold.Chemscore.DEInternal>
2.5642

> <Gold.Chemscore.Rot>
1.7158

> <Gold.Chemscore.Internal.Correction>
   9.000000E+99

> <Gold.Chemscore.Hbonds>
donor molecule, donor type, donor heavy atom, donor atom, acceptor molecule, acceptor atom, score
      L1  H     3    23       P1  7957  0.70
      L1  H    11    46       P1 10175  0.93
      P1  H  7997  8010       L1    15  0.90

> <Gold.Chemscore.Hbond.Weighted>
-9.1062

> <Gold.Chemscore.Metal.Weighted>
-0.0000

> <Gold.Chemscore.Lipo.Weighted>
-13.6539

> <Gold.Chemscore.Internal_Hbond.Weighted>
0.0000

> <Gold.Chemscore.DEClash.Weighted>
2.4922

> <Gold.Chemscore.DEInternal.Weighted>
2.5642

> <Gold.Chemscore.Rot.Weighted>
4.3924

> <Gold.Chemscore.Internal.Correction.Weighted>
   9.000000E+99

> <Gold.Protein.RotatedTorsions>
[ 6907 6896 6895 6894 ] final  117.04 input  -60.11 | X-H torsion
[ 7974 7965 7964 7962 ] final   -5.94 input  175.53 | X-H torsion
[ 8008 7997 7996 7995 ] final   64.31 input   59.86 | X-H torsion
[ 10167 10162 10161 10158 ] final -149.55 input  -65.29 | X-H torsion
[ 10718 10713 10712 10709 ] final   15.12 input   66.30 | X-H torsion
[ 10763 10752 10751 10750 ] final  132.08 input  -60.55 | X-H torsion
[ 11005 11000 10999 10996 ] final  127.00 input  -57.11 | X-H torsion

> <Gold.Protein.ActiveResidues>
 VAL166  LYS551  ARG553  GLY616  TRP617  ASP618  TYR619  PRO620  LYS621  CYS622 
 ASP623  PHE694  ASN695  SER759  ASP760  ASP761  ALA762  ILE779  LEU786  VAL792 
 PHE793  MET794  SER795  GLU796  ALA797  LYS798  CYS799  TRP800  GLU811  SER814 

> <Gold.Protein.RotatedAtoms>
  152.4638  133.7879  159.6885 H   0  0  0  0  0  0  0  0  0  0  0  0  # atno 6907 bound_to 6896
  150.8593  133.7657  159.3004 H   0  0  0  0  0  0  0  0  0  0  0  0  # atno 6908 bound_to 6896
  151.5228  135.1070  159.9934 H   0  0  0  0  0  0  0  0  0  0  0  0  # atno 6909 bound_to 6896
  146.2342  140.2097  142.8335 H   0  0  0  0  0  0  0  0  0  0  0  0  # atno 7974 bound_to 7965
  155.6440  140.3497  155.4725 H   0  0  0  0  0  0  0  0  0  0  0  0  # atno 8008 bound_to 7997
  155.9902  140.1192  157.0668 H   0  0  0  0  0  0  0  0  0  0  0  0  # atno 8009 bound_to 7997
  154.4217  140.1121  156.5541 H   0  0  0  0  0  0  0  0  0  0  0  0  # atno 8010 bound_to 7997
  139.7433  143.8629  152.2568 H   0  0  0  0  0  0  0  0  0  0  0  0  # atno 10167 bound_to 10162
  157.0489  130.6262  149.5764 H   0  0  0  0  0  0  0  0  0  0  0  0  # atno 10718 bound_to 10713
  153.7849  135.3163  155.3371 H   0  0  0  0  0  0  0  0  0  0  0  0  # atno 10763 bound_to 10752
  154.8148  135.4644  154.0615 H   0  0  0  0  0  0  0  0  0  0  0  0  # atno 10764 bound_to 10752
  153.1915  135.6909  153.8432 H   0  0  0  0  0  0  0  0  0  0  0  0  # atno 10765 bound_to 10752
  139.9485  134.9626  156.8790 H   0  0  0  0  0  0  0  0  0  0  0  0  # atno 11005 bound_to 11000
  144.9717  140.8374  143.5451 LP  0  0  0  0  0  0  0  0  0  0  0  0  # atno 17320 bound_to 7965
  145.2079  139.2219  143.5158 LP  0  0  0  0  0  0  0  0  0  0  0  0  # atno 17321 bound_to 7965
  139.8586  144.7128  150.9127 LP  0  0  0  0  0  0  0  0  0  0  0  0  # atno 17342 bound_to 10162
  140.7789  143.3837  151.1432 LP  0  0  0  0  0  0  0  0  0  0  0  0  # atno 17343 bound_to 10162
  156.0014  130.5093  150.7676 LP  0  0  0  0  0  0  0  0  0  0  0  0  # atno 17370 bound_to 10713
  157.5046  131.0921  151.0273 LP  0  0  0  0  0  0  0  0  0  0  0  0  # atno 17371 bound_to 10713
  140.5776  134.0383  155.7452 LP  0  0  0  0  0  0  0  0  0  0  0  0  # atno 17394 bound_to 11000
  141.1142  133.9568  157.2854 LP  0  0  0  0  0  0  0  0  0  0  0  0  # atno 17395 bound_to 11000

$$$$
