AV-unprocessed.smi:3284|AV-procd|sdf|12578|dock3
  -GOLD-   2272018503D 1   1.00000     0.00000
 Structure written by MMmdl.
 45 46  0  0  0  0  0  0  0  0  3 V2000
  153.0985  140.9038  158.8027 C   0  0  0  0  0  0  0  0  0  0  0  0
  152.7027  141.9262  159.8553 C   0  0  0  0  0  0  0  0  0  0  0  0
  153.0666  141.7398  161.1385 C   0  0  0  0  0  0  0  0  0  0  0  0
  152.7933  142.7233  162.2527 C   0  0  0  0  0  0  0  0  0  0  0  0
  152.5391  144.1256  161.6948 C   0  0  0  0  0  0  0  0  0  0  0  0
  151.4927  144.0999  160.5688 C   0  0  1  0  0  0  0  0  0  0  0  0
  151.2080  145.5405  160.1015 C   0  0  0  0  0  0  0  0  0  0  0  0
  151.9063  143.1634  159.3914 C   0  0  2  0  0  0  0  0  0  0  0  0
  150.6585  142.7884  158.5490 C   0  0  0  0  0  0  0  0  0  0  0  0
  150.8602  142.9916  157.0994 N   0  3  0  0  0  0  0  0  0  0  0  0
  151.0436  141.7420  156.3356 C   0  0  0  0  0  0  0  0  0  0  0  0
  149.7674  140.8894  156.3551 C   0  0  0  0  0  0  0  0  0  0  0  0
  148.8772  141.1469  155.1780 C   0  0  0  0  0  0  0  0  0  0  0  0
  148.2461  142.2977  154.9145 N   0  3  0  0  0  0  0  0  0  0  0  0
  147.5055  142.1846  153.7691 C   0  0  0  0  0  0  0  0  0  0  0  0
  147.6887  140.9050  153.3143 C   0  0  0  0  0  0  0  0  0  0  0  0
  148.5343  140.2897  154.2016 N   0  0  0  0  0  0  0  0  0  0  0  0
  149.0186  138.9094  154.1296 C   0  0  0  0  0  0  0  0  0  0  0  0
  153.5780  141.3933  157.9547 H   0  0  0  0  0  0  0  0  0  0  0  0
  152.2289  140.3500  158.4498 H   0  0  0  0  0  0  0  0  0  0  0  0
  153.8045  140.1758  159.2042 H   0  0  0  0  0  0  0  0  0  0  0  0
  153.6032  140.8461  161.4229 H   0  0  0  0  0  0  0  0  0  0  0  0
  151.9365  142.3718  162.8284 H   0  0  0  0  0  0  0  0  0  0  0  0
  153.6482  142.7451  162.9291 H   0  0  0  0  0  0  0  0  0  0  0  0
  152.2153  144.7827  162.5029 H   0  0  0  0  0  0  0  0  0  0  0  0
  153.4739  144.5414  161.3154 H   0  0  0  0  0  0  0  0  0  0  0  0
  150.5731  143.7065  161.0056 H   0  0  0  0  0  0  0  0  0  0  0  0
  152.0921  145.9906  159.6486 H   0  0  0  0  0  0  0  0  0  0  0  0
  150.9145  146.1714  160.9412 H   0  0  0  0  0  0  0  0  0  0  0  0
  150.4013  145.5904  159.3718 H   0  0  0  0  0  0  0  0  0  0  0  0
  152.5919  143.7279  158.7572 H   0  0  0  0  0  0  0  0  0  0  0  0
  150.3875  141.7492  158.7420 H   0  0  0  0  0  0  0  0  0  0  0  0
  149.7945  143.3864  158.8351 H   0  0  0  0  0  0  0  0  0  0  0  0
  150.0612  143.4884  156.7316 H   0  0  0  0  0  0  0  0  0  0  0  0
  151.3127  141.9908  155.3083 H   0  0  0  0  0  0  0  0  0  0  0  0
  151.8759  141.1786  156.7599 H   0  0  0  0  0  0  0  0  0  0  0  0
  150.0118  139.8264  156.3418 H   0  0  0  0  0  0  0  0  0  0  0  0
  149.1828  141.0739  157.2570 H   0  0  0  0  0  0  0  0  0  0  0  0
  146.9186  143.0014  153.3738 H   0  0  0  0  0  0  0  0  0  0  0  0
  147.2892  140.4004  152.4461 H   0  0  0  0  0  0  0  0  0  0  0  0
  148.5141  138.3869  153.3161 H   0  0  0  0  0  0  0  0  0  0  0  0
  148.8077  138.3983  155.0692 H   0  0  0  0  0  0  0  0  0  0  0  0
  150.0929  138.9145  153.9431 H   0  0  0  0  0  0  0  0  0  0  0  0
  151.6821  143.5658  156.9745 H   0  0  0  0  0  0  0  0  0  0  0  0
  148.3108  143.1351  155.4799 H   0  0  0  0  0  0  0  0  0  0  0  0
  1  2  1  0  0  0  0
  1 19  1  0  0  0  0
  1 20  1  0  0  0  0
  1 21  1  0  0  0  0
  2  8  1  0  0  0  0
  2  3  2  0  0  0  0
  3  4  1  0  0  0  0
  3 22  1  0  0  0  0
  4  5  1  0  0  0  0
  4 23  1  0  0  0  0
  4 24  1  0  0  0  0
  5  6  1  0  0  0  0
  5 25  1  0  0  0  0
  5 26  1  0  0  0  0
  6  7  1  0  0  0  0
  6  8  1  0  0  0  0
  6 27  1  0  0  0  0
  7 28  1  0  0  0  0
  7 29  1  0  0  0  0
  7 30  1  0  0  0  0
  8  9  1  0  0  0  0
  8 31  1  0  0  0  0
  9 10  1  0  0  0  0
  9 32  1  0  0  0  0
  9 33  1  0  0  0  0
 10 11  1  0  0  0  0
 10 34  1  0  0  0  0
 10 44  1  0  0  0  0
 11 12  1  0  0  0  0
 11 35  1  0  0  0  0
 11 36  1  0  0  0  0
 12 13  1  0  0  0  0
 12 37  1  0  0  0  0
 12 38  1  0  0  0  0
 13 17  1  0  0  0  0
 13 14  2  0  0  0  0
 14 15  1  0  0  0  0
 14 45  1  0  0  0  0
 15 16  2  0  0  0  0
 15 39  1  0  0  0  0
 16 17  1  0  0  0  0
 16 40  1  0  0  0  0
 17 18  1  0  0  0  0
 18 41  1  0  0  0  0
 18 42  1  0  0  0  0
 18 43  1  0  0  0  0
M  CHG  1  10   1
M  CHG  1  14   1
M  END
> <s_m_source_file>
AV-unprocessed.smi

> <i_m_source_file_index>
3284

> <i_lp_mmshare_version>
43012

> <i_f3d_flags>
0

> <s_epik_input>
W0NIM11DMT1bQ0hdW0NIMl1bQ0gyXVtDQEBIXShbQ0gzXSlbQ0BIXTFbQ0gyXVtOSF1bQ0gyXVtDSDJdYzJuW2NIXVtjSF1uMltDSDNd

> <s_epik_cmdline>
J2VwaWtfcHl0aG9uJywgJy1waCcsICc3LjAnLCAnLXRuJywgJzgnLCAnLW1hJywgJzIwMCcsICctbWV0YWxfYmluZGluZycsICctaW1hZScsICc8aW5maWxlLm1hZT4nLCAnLW9tYWUnLCAnPG91dGZpbGUubWFlPic=

> <r_lp_tautomer_probability>
1

> <r_epik_Ionization_Penalty>
0.892846

> <r_epik_Ionization_Penalty_Charging>
0.00275802

> <r_epik_Ionization_Penalty_Neutral>
0.890088

> <r_epik_State_Penalty>
0.485211

> <r_epik_Charging_Adjusted_Penalty>
0.487969

> <i_epik_Tot_Q>
2

> <i_epik_Tot_abs_Q>
2

> <r_epik_Metal_State_Penalty>
4.22898

> <b_epik_Metal_Only>
0

> <s_lp_Force_Field>
OPLS_2005

> <r_lp_Energy>
22.9484

> <b_lp_Chiralities_Consistent>
1

> <s_lp_Variant>
AV-unprocessed.smi:3284-7

> <Gold.Version>
5.8.1

> <Gold.Id.Protein>
6NUR|6NUR_protein|mol2

> <Gold.PLP.Fitness>
55.3148

> <Gold.PLP.PLP>
-45.1458

> <Gold.PLP.part.hbond>
-2.0000

> <Gold.PLP.part.metal>
0.0000

> <Gold.PLP.part.buried>
-5.2779

> <Gold.PLP.part.nonpolar>
-37.1551

> <Gold.PLP.part.repulsive>
0.1871

> <Gold.PLP.ligand.clash>
0.0000

> <Gold.PLP.ligand.torsion>
1.2225

> <Gold.PLP.Chemscore.Hbond>
3.9840

> <Gold.PLP.Chemscore.CHOScore>
0.1965

> <Gold.PLP.Chemscore.Metal>
0.0000

> <Gold.Chemscore.Hbonds>
donor molecule, donor type, donor heavy atom, donor atom, acceptor molecule, acceptor atom, score
      L1  H    10    34       P1  8028  2.00
      L1  H    14    45       P1  8028  1.95
      L1  C    16    40       P1  7957  0.25

> <Gold.PLP.Chemscore.Internal.Correction>
0.0724

> <Gold.Rescore>
     Score         DG    S(hbond)    S(metal)    S(lipo)     H(rot)  DE(clash)    DE(int)     intcor
     20.88     -22.18       1.94        0.00     124.58       1.70       0.08       1.23       ----

> <Gold.Chemscore.Fitness>
20.8758

> <Gold.Chemscore.DG>
-22.1826

> <Gold.Chemscore.ZeroCoef>
-5.4800

> <Gold.Chemscore.Hbond>
1.9396

> <Gold.Chemscore.Metal>
0.0000

> <Gold.Chemscore.Lipo>
124.5776

> <Gold.Chemscore.Internal_Hbond>
0.0000

> <Gold.Chemscore.DEClash>
0.0786

> <Gold.Chemscore.DEInternal>
1.2282

> <Gold.Chemscore.Rot>
1.6997

> <Gold.Chemscore.Internal.Correction>
   9.000000E+99

> <Gold.Chemscore.Hbonds>
donor molecule, donor type, donor heavy atom, donor atom, acceptor molecule, acceptor atom, score
      L1  H    10    34       P1  8028  0.96
      L1  H    14    45       P1  8028  0.90

> <Gold.Chemscore.Hbond.Weighted>
-6.4782

> <Gold.Chemscore.Metal.Weighted>
-0.0000

> <Gold.Chemscore.Lipo.Weighted>
-14.5756

> <Gold.Chemscore.Internal_Hbond.Weighted>
0.0000

> <Gold.Chemscore.DEClash.Weighted>
0.0786

> <Gold.Chemscore.DEInternal.Weighted>
1.2282

> <Gold.Chemscore.Rot.Weighted>
4.3512

> <Gold.Chemscore.Internal.Correction.Weighted>
   9.000000E+99

> <Gold.Protein.RotatedTorsions>
[ 6907 6896 6895 6894 ] final  -87.90 input  -60.11 | X-H torsion
[ 7974 7965 7964 7962 ] final  167.05 input  175.53 | X-H torsion
[ 8008 7997 7996 7995 ] final   91.45 input   59.86 | X-H torsion
[ 10167 10162 10161 10158 ] final   90.64 input  -65.29 | X-H torsion
[ 10718 10713 10712 10709 ] final   34.08 input   66.30 | X-H torsion
[ 10763 10752 10751 10750 ] final -119.83 input  -60.55 | X-H torsion
[ 11005 11000 10999 10996 ] final  110.57 input  -57.11 | X-H torsion

> <Gold.Protein.ActiveResidues>
 VAL166  LYS551  ARG553  GLY616  TRP617  ASP618  TYR619  PRO620  LYS621  CYS622 
 ASP623  PHE694  ASN695  SER759  ASP760  ASP761  ALA762  ILE779  LEU786  VAL792 
 PHE793  MET794  SER795  GLU796  ALA797  LYS798  CYS799  TRP800  GLU811  SER814 

> <Gold.Protein.RotatedAtoms>
  150.6867  134.2824  159.4632 H   0  0  0  0  0  0  0  0  0  0  0  0  # atno 6907 bound_to 6896
  152.0737  134.9514  160.0583 H   0  0  0  0  0  0  0  0  0  0  0  0  # atno 6908 bound_to 6896
  152.0894  133.4158  159.4574 H   0  0  0  0  0  0  0  0  0  0  0  0  # atno 6909 bound_to 6896
  144.7439  139.8705  143.6388 H   0  0  0  0  0  0  0  0  0  0  0  0  # atno 7974 bound_to 7965
  156.0239  140.3337  155.7068 H   0  0  0  0  0  0  0  0  0  0  0  0  # atno 8008 bound_to 7997
  155.5982  140.0653  157.2758 H   0  0  0  0  0  0  0  0  0  0  0  0  # atno 8009 bound_to 7997
  154.4327  140.1815  156.1133 H   0  0  0  0  0  0  0  0  0  0  0  0  # atno 8010 bound_to 7997
  139.8453  144.6620  150.9234 H   0  0  0  0  0  0  0  0  0  0  0  0  # atno 10167 bound_to 10162
  157.3059  130.7374  149.6695 H   0  0  0  0  0  0  0  0  0  0  0  0  # atno 10718 bound_to 10713
  154.8628  135.4224  154.2362 H   0  0  0  0  0  0  0  0  0  0  0  0  # atno 10763 bound_to 10752
  153.3337  135.6989  153.6931 H   0  0  0  0  0  0  0  0  0  0  0  0  # atno 10764 bound_to 10752
  153.5938  135.3550  155.2893 H   0  0  0  0  0  0  0  0  0  0  0  0  # atno 10765 bound_to 10752
  139.8885  134.9487  156.6299 H   0  0  0  0  0  0  0  0  0  0  0  0  # atno 11005 bound_to 11000
  146.1284  139.4314  143.0184 LP  0  0  0  0  0  0  0  0  0  0  0  0  # atno 17320 bound_to 7965
  145.7201  141.0078  143.1407 LP  0  0  0  0  0  0  0  0  0  0  0  0  # atno 17321 bound_to 7965
  140.7793  143.3875  151.1367 LP  0  0  0  0  0  0  0  0  0  0  0  0  # atno 17342 bound_to 10162
  139.7518  143.8767  152.3078 LP  0  0  0  0  0  0  0  0  0  0  0  0  # atno 17343 bound_to 10162
  155.9674  130.4266  150.4705 LP  0  0  0  0  0  0  0  0  0  0  0  0  # atno 17370 bound_to 10713
  157.2695  131.0584  151.2269 LP  0  0  0  0  0  0  0  0  0  0  0  0  # atno 17371 bound_to 10713
  140.7674  133.8767  155.8465 LP  0  0  0  0  0  0  0  0  0  0  0  0  # atno 17394 bound_to 11000
  140.9871  134.1329  157.4442 LP  0  0  0  0  0  0  0  0  0  0  0  0  # atno 17395 bound_to 11000

$$$$
