AV-unprocessed.smi:2691|AV-procd|sdf|10393|dock6
  -GOLD-   2272014433D 1   1.00000     0.00000
 Structure written by MMmdl.
 50 52  0  0  0  0  0  0  0  0  2 V2000
  153.8098  142.9062  163.5734 C   0  0  0  0  0  0  0  0  0  0  0  0
  153.1943  143.1287  162.2022 C   0  0  0  0  0  0  0  0  0  0  0  0
  152.2613  144.1787  162.0442 C   0  0  0  0  0  0  0  0  0  0  0  0
  151.7135  144.3553  160.7792 C   0  0  0  0  0  0  0  0  0  0  0  0
  150.7813  145.2817  160.3057 N   0  3  0  0  0  0  0  0  0  0  0  0
  150.5476  145.0557  158.9832 C   0  0  0  0  0  0  0  0  0  0  0  0
  151.3189  144.0003  158.6057 N   0  0  0  0  0  0  0  0  0  0  0  0
  151.4397  143.3407  157.2999 C   0  0  0  0  0  0  0  0  0  0  0  0
  150.8152  141.9277  157.2900 C   0  0  1  0  0  0  0  0  0  0  0  0
  150.0028  141.7360  158.4315 O   0  0  0  0  0  0  0  0  0  0  0  0
  150.0269  141.5393  156.0124 C   0  0  0  0  0  0  0  0  0  0  0  0
  149.9482  140.0887  155.7573 N   0  0  0  0  0  0  0  0  0  0  0  0
  148.6966  139.4709  155.9548 C   0  0  0  0  0  0  0  0  0  0  0  0
  148.5205  138.2045  155.7506 N   0  0  0  0  0  0  0  0  0  0  0  0
  149.5896  137.4151  155.3131 C   0  0  0  0  0  0  0  0  0  0  0  0
  149.3125  135.9338  155.0925 C   0  0  0  0  0  0  0  0  0  0  0  0
  147.8425  135.5811  155.3713 C   0  0  0  0  0  0  0  0  0  0  0  0
  150.2716  135.0558  155.9115 C   0  0  0  0  0  0  0  0  0  0  0  0
  150.8110  137.9636  155.1053 C   0  0  0  0  0  0  0  0  0  0  0  0
  151.0401  139.3909  155.3282 C   0  0  0  0  0  0  0  0  0  0  0  0
  152.1345  139.9222  155.1411 O   0  0  0  0  0  0  0  0  0  0  0  0
  152.0640  143.5314  159.6922 C   0  0  0  0  0  0  0  0  0  0  0  0
  152.9826  142.4938  159.8292 C   0  0  0  0  0  0  0  0  0  0  0  0
  153.5516  142.2981  161.1081 C   0  0  0  0  0  0  0  0  0  0  0  0
  154.5575  141.1740  161.2889 C   0  0  0  0  0  0  0  0  0  0  0  0
  153.4009  143.5974  164.3112 H   0  0  0  0  0  0  0  0  0  0  0  0
  154.8889  143.0569  163.5371 H   0  0  0  0  0  0  0  0  0  0  0  0
  153.6127  141.8928  163.9238 H   0  0  0  0  0  0  0  0  0  0  0  0
  151.9850  144.8151  162.8721 H   0  0  0  0  0  0  0  0  0  0  0  0
  149.8679  145.6075  158.3496 H   0  0  0  0  0  0  0  0  0  0  0  0
  150.9474  143.9854  156.5707 H   0  0  0  0  0  0  0  0  0  0  0  0
  152.4948  143.3065  157.0263 H   0  0  0  0  0  0  0  0  0  0  0  0
  151.6215  141.2009  157.3949 H   0  0  0  0  0  0  0  0  0  0  0  0
  150.4965  141.9838  159.1985 H   0  0  0  0  0  0  0  0  0  0  0  0
  149.0184  141.9466  156.1058 H   0  0  0  0  0  0  0  0  0  0  0  0
  150.4326  142.0578  155.1414 H   0  0  0  0  0  0  0  0  0  0  0  0
  147.8954  140.1289  156.2949 H   0  0  0  0  0  0  0  0  0  0  0  0
  149.4985  135.7185  154.0390 H   0  0  0  0  0  0  0  0  0  0  0  0
  147.1712  136.1976  154.7728 H   0  0  0  0  0  0  0  0  0  0  0  0
  147.5836  135.7278  156.4204 H   0  0  0  0  0  0  0  0  0  0  0  0
  147.6376  134.5389  155.1251 H   0  0  0  0  0  0  0  0  0  0  0  0
  151.3111  135.2901  155.6797 H   0  0  0  0  0  0  0  0  0  0  0  0
  150.1170  133.9987  155.6938 H   0  0  0  0  0  0  0  0  0  0  0  0
  150.1297  135.1966  156.9835 H   0  0  0  0  0  0  0  0  0  0  0  0
  151.6312  137.3477  154.7667 H   0  0  0  0  0  0  0  0  0  0  0  0
  153.2511  141.8607  158.9966 H   0  0  0  0  0  0  0  0  0  0  0  0
  154.7572  140.6618  160.3471 H   0  0  0  0  0  0  0  0  0  0  0  0
  154.1822  140.4354  161.9977 H   0  0  0  0  0  0  0  0  0  0  0  0
  155.5053  141.5626  161.6621 H   0  0  0  0  0  0  0  0  0  0  0  0
  150.3331  146.0125  160.8433 H   0  0  0  0  0  0  0  0  0  0  0  0
  1  2  1  0  0  0  0
  1 26  1  0  0  0  0
  1 27  1  0  0  0  0
  1 28  1  0  0  0  0
  2 24  1  0  0  0  0
  2  3  2  0  0  0  0
  3  4  1  0  0  0  0
  3 29  1  0  0  0  0
  4 22  2  0  0  0  0
  4  5  1  0  0  0  0
  5  6  2  0  0  0  0
  5 50  1  0  0  0  0
  6  7  1  0  0  0  0
  6 30  1  0  0  0  0
  7  8  1  0  0  0  0
  7 22  1  0  0  0  0
  8  9  1  0  0  0  0
  8 31  1  0  0  0  0
  8 32  1  0  0  0  0
  9 10  1  0  0  0  0
  9 11  1  0  0  0  0
  9 33  1  0  0  0  0
 10 34  1  0  0  0  0
 11 12  1  0  0  0  0
 11 35  1  0  0  0  0
 11 36  1  0  0  0  0
 12 20  1  0  0  0  0
 12 13  1  0  0  0  0
 13 14  2  0  0  0  0
 13 37  1  0  0  0  0
 14 15  1  0  0  0  0
 15 16  1  0  0  0  0
 15 19  2  0  0  0  0
 16 17  1  0  0  0  0
 16 18  1  0  0  0  0
 16 38  1  0  0  0  0
 17 39  1  0  0  0  0
 17 40  1  0  0  0  0
 17 41  1  0  0  0  0
 18 42  1  0  0  0  0
 18 43  1  0  0  0  0
 18 44  1  0  0  0  0
 19 20  1  0  0  0  0
 19 45  1  0  0  0  0
 20 21  2  0  0  0  0
 22 23  1  0  0  0  0
 23 24  2  0  0  0  0
 23 46  1  0  0  0  0
 24 25  1  0  0  0  0
 25 47  1  0  0  0  0
 25 48  1  0  0  0  0
 25 49  1  0  0  0  0
M  CHG  1   5   1
M  END
> <s_m_source_file>
AV-unprocessed.smi

> <i_m_source_file_index>
2691

> <i_lp_mmshare_version>
43012

> <i_f3d_flags>
0

> <s_epik_input>
W0NIM11jKFtjSF0xKWMoW0NIM10pW2NIXWMoYzEyKW4oW2NIXW4yKVtDSDJdW0NASF0oW09IXSlbQ0gyXW4zW2NIXW5jKFtDSF0oW0NIM10pW0NIM10pW2NIXWMzPU8=

> <s_epik_cmdline>
J2VwaWtfcHl0aG9uJywgJy1waCcsICc3LjAnLCAnLXRuJywgJzgnLCAnLW1hJywgJzIwMCcsICctbWV0YWxfYmluZGluZycsICctaW1hZScsICc8aW5maWxlLm1hZT4nLCAnLW9tYWUnLCAnPG91dGZpbGUubWFlPic=

> <r_lp_tautomer_probability>
1

> <r_epik_Ionization_Penalty>
1.0357

> <r_epik_Ionization_Penalty_Charging>
1.03568

> <r_epik_Ionization_Penalty_Neutral>
1.29543e-05

> <r_epik_State_Penalty>
1.08724

> <r_epik_Charging_Adjusted_Penalty>
2.12292

> <i_epik_Tot_Q>
1

> <i_epik_Tot_abs_Q>
1

> <r_epik_Metal_State_Penalty>
1.18376

> <b_epik_Metal_Only>
0

> <s_lp_Force_Field>
OPLS_2005

> <r_lp_Energy>
24.9035

> <b_lp_Chiralities_Consistent>
1

> <s_lp_Variant>
AV-unprocessed.smi:2691-4

> <Gold.Version>
5.8.1

> <Gold.Id.Protein>
6NUR|6NUR_protein|mol2

> <Gold.PLP.Fitness>
56.7291

> <Gold.PLP.PLP>
-53.2013

> <Gold.PLP.part.hbond>
-1.4183

> <Gold.PLP.part.metal>
0.0000

> <Gold.PLP.part.buried>
-5.9902

> <Gold.PLP.part.nonpolar>
-45.6050

> <Gold.PLP.part.repulsive>
0.2310

> <Gold.PLP.ligand.clash>
0.0000

> <Gold.PLP.ligand.torsion>
1.0822

> <Gold.PLP.Chemscore.Hbond>
0.8640

> <Gold.PLP.Chemscore.CHOScore>
0.9988

> <Gold.PLP.Chemscore.Metal>
0.0000

> <Gold.Chemscore.Hbonds>
donor molecule, donor type, donor heavy atom, donor atom, acceptor molecule, acceptor atom, score
      P1  H  7989  7998       L1    21  0.71
      L1  C     6    30       P1  8029  1.00

> <Gold.PLP.Chemscore.Internal.Correction>
0.1037

> <Gold.Rescore>
     Score         DG    S(hbond)    S(metal)    S(lipo)     H(rot)  DE(clash)    DE(int)     intcor
     14.87     -17.29       0.99        0.00     128.00       2.52       0.12       2.30       ----

> <Gold.Chemscore.Fitness>
14.8706

> <Gold.Chemscore.DG>
-17.2945

> <Gold.Chemscore.ZeroCoef>
-5.4800

> <Gold.Chemscore.Hbond>
0.9852

> <Gold.Chemscore.Metal>
0.0000

> <Gold.Chemscore.Lipo>
127.9959

> <Gold.Chemscore.Internal_Hbond>
0.0000

> <Gold.Chemscore.DEClash>
0.1215

> <Gold.Chemscore.DEInternal>
2.3024

> <Gold.Chemscore.Rot>
2.5202

> <Gold.Chemscore.Internal.Correction>
   9.000000E+99

> <Gold.Chemscore.Hbonds>
donor molecule, donor type, donor heavy atom, donor atom, acceptor molecule, acceptor atom, score
      P1  H  7989  7998       L1    21  0.14
      P1  H  7997  8010       L1    21  0.01

> <Gold.Chemscore.Hbond.Weighted>
-3.2907

> <Gold.Chemscore.Metal.Weighted>
-0.0000

> <Gold.Chemscore.Lipo.Weighted>
-14.9755

> <Gold.Chemscore.Internal_Hbond.Weighted>
0.0000

> <Gold.Chemscore.DEClash.Weighted>
0.1215

> <Gold.Chemscore.DEInternal.Weighted>
2.3024

> <Gold.Chemscore.Rot.Weighted>
6.4517

> <Gold.Chemscore.Internal.Correction.Weighted>
   9.000000E+99

> <Gold.Protein.RotatedTorsions>
[ 6907 6896 6895 6894 ] final  144.97 input  -60.11 | X-H torsion
[ 7974 7965 7964 7962 ] final  -44.69 input  175.53 | X-H torsion
[ 8008 7997 7996 7995 ] final   77.18 input   59.86 | X-H torsion
[ 10167 10162 10161 10158 ] final  162.66 input  -65.29 | X-H torsion
[ 10718 10713 10712 10709 ] final  -85.99 input   66.30 | X-H torsion
[ 10763 10752 10751 10750 ] final  148.51 input  -60.55 | X-H torsion
[ 11005 11000 10999 10996 ] final  116.46 input  -57.11 | X-H torsion

> <Gold.Protein.ActiveResidues>
 VAL166  LYS551  ARG553  GLY616  TRP617  ASP618  TYR619  PRO620  LYS621  CYS622 
 ASP623  PHE694  ASN695  SER759  ASP760  ASP761  ALA762  ILE779  LEU786  VAL792 
 PHE793  MET794  SER795  GLU796  ALA797  LYS798  CYS799  TRP800  GLU811  SER814 

> <Gold.Protein.RotatedAtoms>
  152.1869  133.4746  159.4987 H   0  0  0  0  0  0  0  0  0  0  0  0  # atno 6907 bound_to 6896
  150.6944  134.1762  159.4240 H   0  0  0  0  0  0  0  0  0  0  0  0  # atno 6908 bound_to 6896
  151.9675  135.0093  160.0601 H   0  0  0  0  0  0  0  0  0  0  0  0  # atno 6909 bound_to 6896
  145.9895  140.7196  142.9324 H   0  0  0  0  0  0  0  0  0  0  0  0  # atno 7974 bound_to 7965
  155.8380  140.3463  155.5614 H   0  0  0  0  0  0  0  0  0  0  0  0  # atno 8008 bound_to 7997
  155.8171  140.0907  157.1890 H   0  0  0  0  0  0  0  0  0  0  0  0  # atno 8009 bound_to 7997
  154.4004  140.1437  156.3443 H   0  0  0  0  0  0  0  0  0  0  0  0  # atno 8010 bound_to 7997
  139.4863  144.4415  151.8946 H   0  0  0  0  0  0  0  0  0  0  0  0  # atno 10167 bound_to 10162
  155.9992  130.4750  150.4647 H   0  0  0  0  0  0  0  0  0  0  0  0  # atno 10718 bound_to 10713
  154.0560  135.2878  155.3333 H   0  0  0  0  0  0  0  0  0  0  0  0  # atno 10763 bound_to 10752
  154.6839  135.5253  153.8303 H   0  0  0  0  0  0  0  0  0  0  0  0  # atno 10764 bound_to 10752
  153.0541  135.6588  154.0752 H   0  0  0  0  0  0  0  0  0  0  0  0  # atno 10765 bound_to 10752
  139.9042  134.9598  156.7201 H   0  0  0  0  0  0  0  0  0  0  0  0  # atno 11005 bound_to 11000
  144.6884  140.3045  143.7258 LP  0  0  0  0  0  0  0  0  0  0  0  0  # atno 17320 bound_to 7965
  145.7651  139.1838  143.2244 LP  0  0  0  0  0  0  0  0  0  0  0  0  # atno 17321 bound_to 7965
  140.3867  144.2668  150.5903 LP  0  0  0  0  0  0  0  0  0  0  0  0  # atno 17342 bound_to 10162
  140.5184  143.2272  151.8427 LP  0  0  0  0  0  0  0  0  0  0  0  0  # atno 17343 bound_to 10162
  157.2668  131.0578  151.2285 LP  0  0  0  0  0  0  0  0  0  0  0  0  # atno 17370 bound_to 10713
  157.3380  130.7019  149.6364 LP  0  0  0  0  0  0  0  0  0  0  0  0  # atno 17371 bound_to 10713
  140.7007  133.9309  155.8022 LP  0  0  0  0  0  0  0  0  0  0  0  0  # atno 17394 bound_to 11000
  141.0374  134.0670  157.3943 LP  0  0  0  0  0  0  0  0  0  0  0  0  # atno 17395 bound_to 11000

$$$$
