AV-unprocessed.smi:1824|AV-procd|sdf|7401|dock9
  -GOLD-   22720 9 73D 1   1.00000     0.00000
 Structure written by MMmdl.
 45 47  0  0  0  0  0  0  0  0  2 V2000
  150.7312  133.5609  155.2645 C   0  0  0  0  0  0  0  0  0  0  0  0
  150.0394  134.8553  154.8234 C   0  0  2  0  0  0  0  0  0  0  0  0
  151.0217  136.0379  154.7466 C   0  0  0  0  0  0  0  0  0  0  0  0
  150.2993  137.2843  154.3965 N   0  3  2  0  0  0  0  0  0  0  0  0
  151.1885  138.4578  154.2001 C   0  0  0  0  0  0  0  0  0  0  0  0
  151.9372  138.8592  155.4871 C   0  0  1  0  0  0  0  0  0  0  0  0
  153.3043  139.0557  155.1770 O   0  0  0  0  0  0  0  0  0  0  0  0
  151.3613  140.1501  156.1008 C   0  0  0  0  0  0  0  0  0  0  0  0
  151.9166  140.4435  157.4104 N   0  0  0  0  0  0  0  0  0  0  0  0
  152.6162  139.6090  158.2038 C   0  0  0  0  0  0  0  0  0  0  0  0
  153.0373  140.0874  159.3708 N   0  0  0  0  0  0  0  0  0  0  0  0
  152.5590  141.3856  159.3300 C   0  0  0  0  0  0  0  0  0  0  0  0
  152.6705  142.4341  160.2707 C   0  0  0  0  0  0  0  0  0  0  0  0
  152.0936  143.6941  160.0088 C   0  0  0  0  0  0  0  0  0  0  0  0
  152.2119  144.6885  160.9203 F   0  0  0  0  0  0  0  0  0  0  0  0
  151.3957  143.9236  158.8042 C   0  0  0  0  0  0  0  0  0  0  0  0
  150.8442  145.1360  158.5602 F   0  0  0  0  0  0  0  0  0  0  0  0
  151.2715  142.8942  157.8515 C   0  0  0  0  0  0  0  0  0  0  0  0
  151.8508  141.6396  158.1167 C   0  0  0  0  0  0  0  0  0  0  0  0
  149.2218  137.5462  155.3800 C   0  0  0  0  0  0  0  0  0  0  0  0
  148.2716  136.3383  155.4999 C   0  0  1  0  0  0  0  0  0  0  0  0
  147.3303  136.1738  154.2932 C   0  0  0  0  0  0  0  0  0  0  0  0
  149.0162  135.1505  155.7706 O   0  0  0  0  0  0  0  0  0  0  0  0
  151.5225  133.2813  154.5683 H   0  0  0  0  0  0  0  0  0  0  0  0
  150.0209  132.7348  155.3078 H   0  0  0  0  0  0  0  0  0  0  0  0
  151.1775  133.6680  156.2536 H   0  0  0  0  0  0  0  0  0  0  0  0
  149.5959  134.6824  153.8426 H   0  0  0  0  0  0  0  0  0  0  0  0
  151.5321  136.1678  155.7022 H   0  0  0  0  0  0  0  0  0  0  0  0
  151.7883  135.8198  154.0040 H   0  0  0  0  0  0  0  0  0  0  0  0
  151.9266  138.2321  153.4286 H   0  0  0  0  0  0  0  0  0  0  0  0
  150.6007  139.2953  153.8215 H   0  0  0  0  0  0  0  0  0  0  0  0
  151.8689  138.0642  156.2291 H   0  0  0  0  0  0  0  0  0  0  0  0
  153.4177  138.9793  154.2416 H   0  0  0  0  0  0  0  0  0  0  0  0
  151.5463  141.0026  155.4455 H   0  0  0  0  0  0  0  0  0  0  0  0
  150.2786  140.0668  156.2022 H   0  0  0  0  0  0  0  0  0  0  0  0
  152.8273  138.5914  157.9087 H   0  0  0  0  0  0  0  0  0  0  0  0
  153.2022  142.2692  161.1961 H   0  0  0  0  0  0  0  0  0  0  0  0
  150.7398  143.0684  156.9281 H   0  0  0  0  0  0  0  0  0  0  0  0
  149.6719  137.7574  156.3514 H   0  0  0  0  0  0  0  0  0  0  0  0
  148.6568  138.4346  155.0940 H   0  0  0  0  0  0  0  0  0  0  0  0
  147.6374  136.5010  156.3720 H   0  0  0  0  0  0  0  0  0  0  0  0
  146.6755  137.0399  154.1930 H   0  0  0  0  0  0  0  0  0  0  0  0
  146.6963  135.2951  154.4129 H   0  0  0  0  0  0  0  0  0  0  0  0
  147.8730  136.0693  153.3542 H   0  0  0  0  0  0  0  0  0  0  0  0
  149.8410  137.1242  153.5102 H   0  0  0  0  0  0  0  0  0  0  0  0
  1  2  1  0  0  0  0
  1 24  1  0  0  0  0
  1 25  1  0  0  0  0
  1 26  1  0  0  0  0
  2 23  1  0  0  0  0
  2  3  1  0  0  0  0
  2 27  1  0  0  0  0
  3  4  1  0  0  0  0
  3 28  1  0  0  0  0
  3 29  1  0  0  0  0
  4  5  1  0  0  0  0
  4 20  1  0  0  0  0
  4 45  1  0  0  0  0
  5  6  1  0  0  0  0
  5 30  1  0  0  0  0
  5 31  1  0  0  0  0
  6  7  1  0  0  0  0
  6  8  1  0  0  0  0
  6 32  1  0  0  0  0
  7 33  1  0  0  0  0
  8  9  1  0  0  0  0
  8 34  1  0  0  0  0
  8 35  1  0  0  0  0
  9 19  1  0  0  0  0
  9 10  1  0  0  0  0
 10 11  2  0  0  0  0
 10 36  1  0  0  0  0
 11 12  1  0  0  0  0
 12 19  2  0  0  0  0
 12 13  1  0  0  0  0
 13 14  2  0  0  0  0
 13 37  1  0  0  0  0
 14 15  1  0  0  0  0
 14 16  1  0  0  0  0
 16 17  1  0  0  0  0
 16 18  2  0  0  0  0
 18 19  1  0  0  0  0
 18 38  1  0  0  0  0
 20 21  1  0  0  0  0
 20 39  1  0  0  0  0
 20 40  1  0  0  0  0
 21 22  1  0  0  0  0
 21 23  1  0  0  0  0
 21 41  1  0  0  0  0
 22 42  1  0  0  0  0
 22 43  1  0  0  0  0
 22 44  1  0  0  0  0
M  CHG  1   4   1
M  END
> <s_m_source_file>
AV-unprocessed.smi

> <i_m_source_file_index>
1824

> <i_lp_mmshare_version>
43012

> <i_f3d_flags>
0

> <s_epik_input>
W0NIM11bQ0BASF0xW0NIMl1OKFtDSDJdW0NASF0oTzEpW0NIM10pW0NIMl1bQ0BIXShbT0hdKVtDSDJdbihbY0hdbjIpYyhjMjMpW2NIXWMoRiljKEYpW2NIXTM=

> <s_epik_cmdline>
J2VwaWtfcHl0aG9uJywgJy1waCcsICc3LjAnLCAnLXRuJywgJzgnLCAnLW1hJywgJzIwMCcsICctbWV0YWxfYmluZGluZycsICctaW1hZScsICc8aW5maWxlLm1hZT4nLCAnLW9tYWUnLCAnPG91dGZpbGUubWFlPic=

> <r_epik_Ionization_Penalty>
0.61967

> <r_epik_Ionization_Penalty_Charging>
0.608065

> <r_epik_Ionization_Penalty_Neutral>
0.0116057

> <r_epik_State_Penalty>
0.664205

> <r_epik_Charging_Adjusted_Penalty>
1.27227

> <i_epik_Tot_Q>
1

> <i_epik_Tot_abs_Q>
1

> <r_epik_Metal_State_Penalty>
0.654947

> <b_epik_Metal_Only>
0

> <s_lp_Force_Field>
OPLS_2005

> <r_lp_Energy>
23.0579

> <b_lp_Chiralities_Consistent>
1

> <s_lp_Variant>
AV-unprocessed.smi:1824-9

> <Gold.Version>
5.8.1

> <Gold.Id.Protein>
6NUR|6NUR_protein|mol2

> <Gold.PLP.Fitness>
50.9900

> <Gold.PLP.PLP>
-43.7609

> <Gold.PLP.part.hbond>
-2.0000

> <Gold.PLP.part.metal>
0.0000

> <Gold.PLP.part.buried>
-5.5383

> <Gold.PLP.part.nonpolar>
-36.4694

> <Gold.PLP.part.repulsive>
0.0853

> <Gold.PLP.ligand.clash>
0.0000

> <Gold.PLP.ligand.torsion>
0.8882

> <Gold.PLP.Chemscore.Hbond>
2.9920

> <Gold.PLP.Chemscore.CHOScore>
0.0000

> <Gold.PLP.Chemscore.Metal>
0.0000

> <Gold.Chemscore.Hbonds>
donor molecule, donor type, donor heavy atom, donor atom, acceptor molecule, acceptor atom, score
      L1  H     4    45       P1  7948  1.98
      P1  H  7997  8010       L1     7  0.90

> <Gold.PLP.Chemscore.Internal.Correction>
0.0296

> <Gold.Rescore>
     Score         DG    S(hbond)    S(metal)    S(lipo)     H(rot)  DE(clash)    DE(int)     intcor
     16.36     -17.30       1.77        0.00     101.26       2.33       0.06       0.88       ----

> <Gold.Chemscore.Fitness>
16.3648

> <Gold.Chemscore.DG>
-17.3001

> <Gold.Chemscore.ZeroCoef>
-5.4800

> <Gold.Chemscore.Hbond>
1.7740

> <Gold.Chemscore.Metal>
0.0000

> <Gold.Chemscore.Lipo>
101.2584

> <Gold.Chemscore.Internal_Hbond>
0.0000

> <Gold.Chemscore.DEClash>
0.0553

> <Gold.Chemscore.DEInternal>
0.8800

> <Gold.Chemscore.Rot>
2.3251

> <Gold.Chemscore.Internal.Correction>
   9.000000E+99

> <Gold.Chemscore.Hbonds>
donor molecule, donor type, donor heavy atom, donor atom, acceptor molecule, acceptor atom, score
      L1  H     4    45       P1  7948  0.46
      P1  H  7997  8010       L1     7  0.86

> <Gold.Chemscore.Hbond.Weighted>
-5.9252

> <Gold.Chemscore.Metal.Weighted>
-0.0000

> <Gold.Chemscore.Lipo.Weighted>
-11.8472

> <Gold.Chemscore.Internal_Hbond.Weighted>
0.0000

> <Gold.Chemscore.DEClash.Weighted>
0.0553

> <Gold.Chemscore.DEInternal.Weighted>
0.8800

> <Gold.Chemscore.Rot.Weighted>
5.9523

> <Gold.Chemscore.Internal.Correction.Weighted>
   9.000000E+99

> <Gold.Protein.RotatedTorsions>
[ 6907 6896 6895 6894 ] final  161.65 input  -60.11 | X-H torsion
[ 7974 7965 7964 7962 ] final   36.61 input  175.53 | X-H torsion
[ 8008 7997 7996 7995 ] final   80.79 input   59.86 | X-H torsion
[ 10167 10162 10161 10158 ] final  -68.40 input  -65.29 | X-H torsion
[ 10718 10713 10712 10709 ] final   69.25 input   66.30 | X-H torsion
[ 10763 10752 10751 10750 ] final  -68.42 input  -60.55 | X-H torsion
[ 11005 11000 10999 10996 ] final   67.04 input  -57.11 | X-H torsion

> <Gold.Protein.ActiveResidues>
 VAL166  LYS551  ARG553  GLY616  TRP617  ASP618  TYR619  PRO620  LYS621  CYS622 
 ASP623  PHE694  ASN695  SER759  ASP760  ASP761  ALA762  ILE779  LEU786  VAL792 
 PHE793  MET794  SER795  GLU796  ALA797  LYS798  CYS799  TRP800  GLU811  SER814 

> <Gold.Protein.RotatedAtoms>
  151.9524  133.3670  159.4004 H   0  0  0  0  0  0  0  0  0  0  0  0  # atno 6907 bound_to 6896
  150.6978  134.4326  159.5265 H   0  0  0  0  0  0  0  0  0  0  0  0  # atno 6908 bound_to 6896
  152.2002  134.8595  160.0559 H   0  0  0  0  0  0  0  0  0  0  0  0  # atno 6909 bound_to 6896
  146.1199  139.5996  142.9297 H   0  0  0  0  0  0  0  0  0  0  0  0  # atno 7974 bound_to 7965
  155.8884  140.3440  155.5938 H   0  0  0  0  0  0  0  0  0  0  0  0  # atno 8008 bound_to 7997
  155.7639  140.0836  157.2160 H   0  0  0  0  0  0  0  0  0  0  0  0  # atno 8009 bound_to 7997
  154.4031  140.1530  156.2852 H   0  0  0  0  0  0  0  0  0  0  0  0  # atno 8010 bound_to 7997
  140.5510  143.2312  151.6911 H   0  0  0  0  0  0  0  0  0  0  0  0  # atno 10167 bound_to 10162
  157.6335  130.9416  150.0488 H   0  0  0  0  0  0  0  0  0  0  0  0  # atno 10718 bound_to 10713
  154.3887  135.6057  153.5831 H   0  0  0  0  0  0  0  0  0  0  0  0  # atno 10763 bound_to 10752
  152.9787  135.5878  154.4323 H   0  0  0  0  0  0  0  0  0  0  0  0  # atno 10764 bound_to 10752
  154.4104  135.2844  155.2018 H   0  0  0  0  0  0  0  0  0  0  0  0  # atno 10765 bound_to 10752
  139.9795  134.6767  156.0290 H   0  0  0  0  0  0  0  0  0  0  0  0  # atno 11005 bound_to 11000
  145.5488  141.0415  143.2289 LP  0  0  0  0  0  0  0  0  0  0  0  0  # atno 17320 bound_to 7965
  144.7587  139.7010  143.7243 LP  0  0  0  0  0  0  0  0  0  0  0  0  # atno 17321 bound_to 7965
  139.5027  144.3817  152.0369 LP  0  0  0  0  0  0  0  0  0  0  0  0  # atno 17342 bound_to 10162
  140.2934  144.3728  150.6081 LP  0  0  0  0  0  0  0  0  0  0  0  0  # atno 17343 bound_to 10162
  156.1556  130.3643  149.9373 LP  0  0  0  0  0  0  0  0  0  0  0  0  # atno 17370 bound_to 10713
  156.7383  130.9070  151.3630 LP  0  0  0  0  0  0  0  0  0  0  0  0  # atno 17371 bound_to 10713
  141.1468  133.6554  156.3893 LP  0  0  0  0  0  0  0  0  0  0  0  0  # atno 17394 bound_to 11000
  140.5126  134.6381  157.5290 LP  0  0  0  0  0  0  0  0  0  0  0  0  # atno 17395 bound_to 11000

$$$$
