AV-unprocessed.smi:3237|AV-procd|sdf|12365|dock2
  -GOLD-   2272018223D 1   1.00000     0.00000
 Structure written by MMmdl.
 37 39  0  0  0  0  0  0  0  0  2 V2000
  152.2160  137.5492  157.9053 C   0  0  0  0  0  0  0  0  0  0  0  0
  151.2504  136.7113  157.1395 C   0  0  0  0  0  0  0  0  0  0  0  0
  150.8489  136.7136  155.8335 C   0  0  0  0  0  0  0  0  0  0  0  0
  149.9060  135.6454  155.7880 C   0  0  0  0  0  0  0  0  0  0  0  0
  149.1794  135.2129  154.6486 N   0  0  0  0  0  0  0  0  0  0  0  0
  148.3572  134.1564  154.5346 C   0  0  0  0  0  0  0  0  0  0  0  0
  148.0913  133.3571  155.4319 O   0  0  0  0  0  0  0  0  0  0  0  0
  147.8458  134.0691  153.2982 N   0  0  0  0  0  0  0  0  0  0  0  0
  146.9179  133.0335  152.8568 C   0  0  2  0  0  0  0  0  0  0  0  0
  147.2813  131.6210  153.3043 C   0  0  0  0  0  0  0  0  0  0  0  0
  146.5017  130.7489  152.3138 C   0  0  0  0  0  0  0  0  0  0  0  0
  146.3606  131.5409  151.0662 N   0  3  1  0  0  0  0  0  0  0  0  0
  144.9851  131.5473  150.5223 C   0  0  0  0  0  0  0  0  0  0  0  0
  144.7283  132.6650  149.5398 C   0  0  0  0  0  0  0  0  0  0  0  0
  144.1743  132.7488  150.9454 C   0  0  0  0  0  0  0  0  0  0  0  0
  146.8971  132.8935  151.3353 C   0  0  0  0  0  0  0  0  0  0  0  0
  149.7506  135.0532  156.9576 N   0  0  0  0  0  0  0  0  0  0  0  0
  150.6097  135.7306  157.8309 O   0  0  0  0  0  0  0  0  0  0  0  0
  152.7294  138.2515  157.2484 H   0  0  0  0  0  0  0  0  0  0  0  0
  152.9691  136.9268  158.3889 H   0  0  0  0  0  0  0  0  0  0  0  0
  151.7022  138.1217  158.6776 H   0  0  0  0  0  0  0  0  0  0  0  0
  151.1866  137.3785  155.0530 H   0  0  0  0  0  0  0  0  0  0  0  0
  149.3001  135.7805  153.8228 H   0  0  0  0  0  0  0  0  0  0  0  0
  148.1150  134.7670  152.6199 H   0  0  0  0  0  0  0  0  0  0  0  0
  145.9097  133.2738  153.2013 H   0  0  0  0  0  0  0  0  0  0  0  0
  148.3530  131.4497  153.1896 H   0  0  0  0  0  0  0  0  0  0  0  0
  147.0154  131.4204  154.3428 H   0  0  0  0  0  0  0  0  0  0  0  0
  147.0024  129.7999  152.1207 H   0  0  0  0  0  0  0  0  0  0  0  0
  145.5180  130.5222  152.7287 H   0  0  0  0  0  0  0  0  0  0  0  0
  144.5096  130.5764  150.3927 H   0  0  0  0  0  0  0  0  0  0  0  0
  145.5541  133.3269  149.2844 H   0  0  0  0  0  0  0  0  0  0  0  0
  144.0200  132.4745  148.7359 H   0  0  0  0  0  0  0  0  0  0  0  0
  143.1016  132.6127  151.0675 H   0  0  0  0  0  0  0  0  0  0  0  0
  144.6320  133.4669  151.6236 H   0  0  0  0  0  0  0  0  0  0  0  0
  146.3199  133.6833  150.8519 H   0  0  0  0  0  0  0  0  0  0  0  0
  147.9113  132.9364  150.9352 H   0  0  0  0  0  0  0  0  0  0  0  0
  146.9554  131.1219  150.3656 H   0  0  0  0  0  0  0  0  0  0  0  0
  1  2  1  0  0  0  0
  1 19  1  0  0  0  0
  1 20  1  0  0  0  0
  1 21  1  0  0  0  0
  2 18  1  0  0  0  0
  2  3  2  0  0  0  0
  3  4  1  0  0  0  0
  3 22  1  0  0  0  0
  4  5  1  0  0  0  0
  4 17  2  0  0  0  0
  5  6  1  0  0  0  0
  5 23  1  0  0  0  0
  6  7  2  0  0  0  0
  6  8  1  0  0  0  0
  8  9  1  0  0  0  0
  8 24  1  0  0  0  0
  9 16  1  0  0  0  0
  9 10  1  0  0  0  0
  9 25  1  0  0  0  0
 10 11  1  0  0  0  0
 10 26  1  0  0  0  0
 10 27  1  0  0  0  0
 11 12  1  0  0  0  0
 11 28  1  0  0  0  0
 11 29  1  0  0  0  0
 12 13  1  0  0  0  0
 12 16  1  0  0  0  0
 12 37  1  0  0  0  0
 13 15  1  0  0  0  0
 13 14  1  0  0  0  0
 13 30  1  0  0  0  0
 14 15  1  0  0  0  0
 14 31  1  0  0  0  0
 14 32  1  0  0  0  0
 15 33  1  0  0  0  0
 15 34  1  0  0  0  0
 16 35  1  0  0  0  0
 16 36  1  0  0  0  0
 17 18  1  0  0  0  0
M  CHG  1  12   1
M  END
> <s_m_source_file>
AV-unprocessed.smi

> <i_m_source_file_index>
3237

> <i_lp_mmshare_version>
43012

> <i_f3d_flags>
0

> <s_epik_input>
W0NIM11jMVtjSF1jKG5vMSlbTkhdQyg9TylbTkhdW0NAQEhdMltDSDJdW0NIMl1OKFtDSDJdMilbQ0hdM1tDSDJdW0NIMl0z

> <s_epik_cmdline>
J2VwaWtfcHl0aG9uJywgJy1waCcsICc3LjAnLCAnLXRuJywgJzgnLCAnLW1hJywgJzIwMCcsICctbWV0YWxfYmluZGluZycsICctaW1hZScsICc8aW5maWxlLm1hZT4nLCAnLW9tYWUnLCAnPG91dGZpbGUubWFlPic=

> <r_epik_Ionization_Penalty>
0.000720579

> <r_epik_Ionization_Penalty_Charging>
0.000680516

> <r_epik_Ionization_Penalty_Neutral>
4.00628e-05

> <r_epik_State_Penalty>
0.000432256

> <r_epik_Charging_Adjusted_Penalty>
0.00111277

> <i_epik_Tot_Q>
1

> <i_epik_Tot_abs_Q>
1

> <r_epik_Metal_State_Penalty>
0.0255091

> <b_epik_Metal_Only>
0

> <s_lp_Force_Field>
OPLS_2005

> <r_lp_Energy>
36.5214

> <b_lp_Chiralities_Consistent>
1

> <s_lp_Variant>
AV-unprocessed.smi:3237-3

> <Gold.Version>
5.8.1

> <Gold.Id.Protein>
6NUR|6NUR_protein|mol2

> <Gold.PLP.Fitness>
35.4286

> <Gold.PLP.PLP>
-26.5909

> <Gold.PLP.part.hbond>
-4.0000

> <Gold.PLP.part.metal>
0.0000

> <Gold.PLP.part.buried>
-3.1908

> <Gold.PLP.part.nonpolar>
-19.0251

> <Gold.PLP.part.repulsive>
0.0672

> <Gold.PLP.ligand.clash>
0.0000

> <Gold.PLP.ligand.torsion>
0.8868

> <Gold.PLP.Chemscore.Hbond>
3.1152

> <Gold.PLP.Chemscore.CHOScore>
0.0000

> <Gold.PLP.Chemscore.Metal>
0.0000

> <Gold.Chemscore.Hbonds>
donor molecule, donor type, donor heavy atom, donor atom, acceptor molecule, acceptor atom, score
      L1  H     5    23       P1  7948  1.00
      L1  H     8    24       P1  7948  1.00
      L1  H    12    37       P1 10747  0.65
      P1  H  6896  6909       L1    18  0.55

> <Gold.PLP.Chemscore.Internal.Correction>
1.2656

> <Gold.Rescore>
     Score         DG    S(hbond)    S(metal)    S(lipo)     H(rot)  DE(clash)    DE(int)     intcor
     16.46     -20.09       3.09        0.00      64.14       1.26       0.02       3.61       ----

> <Gold.Chemscore.Fitness>
16.4616

> <Gold.Chemscore.DG>
-20.0939

> <Gold.Chemscore.ZeroCoef>
-5.4800

> <Gold.Chemscore.Hbond>
3.0938

> <Gold.Chemscore.Metal>
0.0000

> <Gold.Chemscore.Lipo>
64.1389

> <Gold.Chemscore.Internal_Hbond>
0.0000

> <Gold.Chemscore.DEClash>
0.0209

> <Gold.Chemscore.DEInternal>
3.6115

> <Gold.Chemscore.Rot>
1.2593

> <Gold.Chemscore.Internal.Correction>
   9.000000E+99

> <Gold.Chemscore.Hbonds>
donor molecule, donor type, donor heavy atom, donor atom, acceptor molecule, acceptor atom, score
      L1  H     5    23       P1  7948  0.60
      L1  H     8    24       P1  7948  0.65
      L1  H    12    37       P1 10747  0.62
      P1  H  6896  6909       L1    18  0.33

> <Gold.Chemscore.Hbond.Weighted>
-10.3334

> <Gold.Chemscore.Metal.Weighted>
-0.0000

> <Gold.Chemscore.Lipo.Weighted>
-7.5043

> <Gold.Chemscore.Internal_Hbond.Weighted>
0.0000

> <Gold.Chemscore.DEClash.Weighted>
0.0209

> <Gold.Chemscore.DEInternal.Weighted>
3.6115

> <Gold.Chemscore.Rot.Weighted>
3.2237

> <Gold.Chemscore.Internal.Correction.Weighted>
   9.000000E+99

> <Gold.Protein.RotatedTorsions>
[ 6907 6896 6895 6894 ] final   53.12 input  -60.11 | X-H torsion
[ 7974 7965 7964 7962 ] final  100.33 input  175.53 | X-H torsion
[ 8008 7997 7996 7995 ] final  121.65 input   59.86 | X-H torsion
[ 10167 10162 10161 10158 ] final  147.05 input  -65.29 | X-H torsion
[ 10718 10713 10712 10709 ] final   47.24 input   66.30 | X-H torsion
[ 10763 10752 10751 10750 ] final   92.21 input  -60.55 | X-H torsion
[ 11005 11000 10999 10996 ] final  164.49 input  -57.11 | X-H torsion

> <Gold.Protein.ActiveResidues>
 VAL166  LYS551  ARG553  GLY616  TRP617  ASP618  TYR619  PRO620  LYS621  CYS622 
 ASP623  PHE694  ASN695  SER759  ASP760  ASP761  ALA762  ILE779  LEU786  VAL792 
 PHE793  MET794  SER795  GLU796  ALA797  LYS798  CYS799  TRP800  GLU811  SER814 

> <Gold.Protein.RotatedAtoms>
  152.3304  134.7267  160.0290 H   0  0  0  0  0  0  0  0  0  0  0  0  # atno 6907 bound_to 6896
  151.7685  133.3334  159.3446 H   0  0  0  0  0  0  0  0  0  0  0  0  # atno 6908 bound_to 6896
  150.7420  134.5972  159.6062 H   0  0  0  0  0  0  0  0  0  0  0  0  # atno 6909 bound_to 6896
  145.3870  139.2369  143.3372 H   0  0  0  0  0  0  0  0  0  0  0  0  # atno 7974 bound_to 7965
  156.2695  140.2803  156.1342 H   0  0  0  0  0  0  0  0  0  0  0  0  # atno 8008 bound_to 7997
  155.1022  140.0390  157.2718 H   0  0  0  0  0  0  0  0  0  0  0  0  # atno 8009 bound_to 7997
  154.6806  140.2608  155.6918 H   0  0  0  0  0  0  0  0  0  0  0  0  # atno 8010 bound_to 7997
  139.4896  144.5784  151.6920 H   0  0  0  0  0  0  0  0  0  0  0  0  # atno 10167 bound_to 10162
  157.4564  130.8169  149.7841 H   0  0  0  0  0  0  0  0  0  0  0  0  # atno 10718 bound_to 10713
  153.2167  135.4369  155.0442 H   0  0  0  0  0  0  0  0  0  0  0  0  # atno 10763 bound_to 10752
  154.8229  135.3346  154.6988 H   0  0  0  0  0  0  0  0  0  0  0  0  # atno 10764 bound_to 10752
  153.7422  135.7004  153.5020 H   0  0  0  0  0  0  0  0  0  0  0  0  # atno 10765 bound_to 10752
  140.2464  134.8011  157.3460 H   0  0  0  0  0  0  0  0  0  0  0  0  # atno 11005 bound_to 11000
  146.2815  140.4546  142.8774 LP  0  0  0  0  0  0  0  0  0  0  0  0  # atno 17320 bound_to 7965
  144.8467  140.6940  143.6194 LP  0  0  0  0  0  0  0  0  0  0  0  0  # atno 17321 bound_to 7965
  140.5385  144.0617  150.6079 LP  0  0  0  0  0  0  0  0  0  0  0  0  # atno 17342 bound_to 10162
  140.3631  143.2896  152.0361 LP  0  0  0  0  0  0  0  0  0  0  0  0  # atno 17343 bound_to 10162
  156.0009  130.3881  150.2610 LP  0  0  0  0  0  0  0  0  0  0  0  0  # atno 17370 bound_to 10713
  157.0784  131.0136  151.3165 LP  0  0  0  0  0  0  0  0  0  0  0  0  # atno 17371 bound_to 10713
  140.1601  134.4739  155.7900 LP  0  0  0  0  0  0  0  0  0  0  0  0  # atno 17394 bound_to 11000
  141.2206  133.6898  156.7530 LP  0  0  0  0  0  0  0  0  0  0  0  0  # atno 17395 bound_to 11000

$$$$
