AV-unprocessed.smi:3046|AV-procd|sdf|11613|dock8
  -GOLD-   2272016593D 1   1.00000     0.00000
 Structure written by MMmdl.
 38 38  0  0  0  0  0  0  0  0  2 V2000
  145.6644  133.9410  150.9517 C   0  0  0  0  0  0  0  0  0  0  0  0
  146.2241  133.8124  152.1640 C   0  0  0  0  0  0  0  0  0  0  0  0
  146.2094  134.8835  153.2331 C   0  0  0  0  0  0  0  0  0  0  0  0
  146.6362  136.1608  152.6812 N   0  0  0  0  0  0  0  0  0  0  0  0
  145.9578  137.3096  152.8174 C   0  0  0  0  0  0  0  0  0  0  0  0
  144.8966  137.3948  153.4369 O   0  0  0  0  0  0  0  0  0  0  0  0
  146.5785  138.5502  152.1638 C   0  0  2  0  0  0  0  0  0  0  0  0
  146.6903  138.3456  150.6423 C   0  0  0  0  0  0  0  0  0  0  0  0
  147.9058  138.8370  152.7585 N   0  3  0  0  0  0  0  0  0  0  0  0
  147.9010  139.4278  154.1160 C   0  0  2  0  0  0  0  0  0  0  0  0
  146.6734  140.3415  154.2662 C   0  0  0  0  0  0  0  0  0  0  0  0
  149.2274  140.1740  154.3917 C   0  0  0  0  0  0  0  0  0  0  0  0
  150.3700  139.2851  154.5020 N   0  0  0  0  0  0  0  0  0  0  0  0
  150.4088  137.9141  154.3565 C   0  0  0  0  0  0  0  0  0  0  0  0
  151.6995  137.5202  154.5654 C   0  0  0  0  0  0  0  0  0  0  0  0
  152.3835  138.7364  154.8439 C   0  0  0  0  0  0  0  0  0  0  0  0
  151.5839  139.7905  154.8099 N   0  0  0  0  0  0  0  0  0  0  0  0
  145.1512  134.8465  150.6621 H   0  0  0  0  0  0  0  0  0  0  0  0
  145.7132  133.1382  150.2306 H   0  0  0  0  0  0  0  0  0  0  0  0
  146.7319  132.8920  152.4134 H   0  0  0  0  0  0  0  0  0  0  0  0
  145.1953  134.9720  153.6247 H   0  0  0  0  0  0  0  0  0  0  0  0
  146.8594  134.5999  154.0625 H   0  0  0  0  0  0  0  0  0  0  0  0
  147.5050  136.1708  152.1661 H   0  0  0  0  0  0  0  0  0  0  0  0
  145.9111  139.3899  152.3597 H   0  0  0  0  0  0  0  0  0  0  0  0
  145.7198  138.1149  150.2011 H   0  0  0  0  0  0  0  0  0  0  0  0
  147.3676  137.5259  150.3981 H   0  0  0  0  0  0  0  0  0  0  0  0
  147.0621  139.2401  150.1428 H   0  0  0  0  0  0  0  0  0  0  0  0
  148.4292  137.9740  152.7992 H   0  0  0  0  0  0  0  0  0  0  0  0
  147.7912  138.6215  154.8417 H   0  0  0  0  0  0  0  0  0  0  0  0
  146.5853  140.7337  155.2798 H   0  0  0  0  0  0  0  0  0  0  0  0
  145.7528  139.7976  154.0521 H   0  0  0  0  0  0  0  0  0  0  0  0
  146.7246  141.1909  153.5842 H   0  0  0  0  0  0  0  0  0  0  0  0
  149.4445  140.8946  153.6032 H   0  0  0  0  0  0  0  0  0  0  0  0
  149.1484  140.7452  155.3177 H   0  0  0  0  0  0  0  0  0  0  0  0
  149.5261  137.3390  154.1178 H   0  0  0  0  0  0  0  0  0  0  0  0
  152.0943  136.5156  154.5283 H   0  0  0  0  0  0  0  0  0  0  0  0
  153.4294  138.8832  155.0704 H   0  0  0  0  0  0  0  0  0  0  0  0
  148.3875  139.4653  152.1313 H   0  0  0  0  0  0  0  0  0  0  0  0
  1  2  2  0  0  0  0
  1 18  1  0  0  0  0
  1 19  1  0  0  0  0
  2  3  1  0  0  0  0
  2 20  1  0  0  0  0
  3  4  1  0  0  0  0
  3 21  1  0  0  0  0
  3 22  1  0  0  0  0
  4  5  1  0  0  0  0
  4 23  1  0  0  0  0
  5  6  2  0  0  0  0
  5  7  1  0  0  0  0
  7  8  1  0  0  0  0
  7  9  1  0  0  0  0
  7 24  1  0  0  0  0
  8 25  1  0  0  0  0
  8 26  1  0  0  0  0
  8 27  1  0  0  0  0
  9 10  1  0  0  0  0
  9 28  1  0  0  0  0
  9 38  1  0  0  0  0
 10 11  1  0  0  0  0
 10 12  1  0  0  0  0
 10 29  1  0  0  0  0
 11 30  1  0  0  0  0
 11 31  1  0  0  0  0
 11 32  1  0  0  0  0
 12 13  1  0  0  0  0
 12 33  1  0  0  0  0
 12 34  1  0  0  0  0
 13 17  1  0  0  0  0
 13 14  1  0  0  0  0
 14 15  2  0  0  0  0
 14 35  1  0  0  0  0
 15 16  1  0  0  0  0
 15 36  1  0  0  0  0
 16 17  2  0  0  0  0
 16 37  1  0  0  0  0
M  CHG  1   9   1
M  END
> <s_m_source_file>
AV-unprocessed.smi

> <i_m_source_file_index>
3046

> <i_lp_mmshare_version>
43012

> <i_f3d_flags>
0

> <s_epik_input>
W0NIMl09W0NIXVtDSDJdW05IXUMoPU8pW0NASF0oW0NIM10pW05IXVtDQEhdKFtDSDNdKVtDSDJdbjFbY0hdW2NIXVtjSF1uMQ==

> <s_epik_cmdline>
J2VwaWtfcHl0aG9uJywgJy1waCcsICc3LjAnLCAnLXRuJywgJzgnLCAnLW1hJywgJzIwMCcsICctbWV0YWxfYmluZGluZycsICctaW1hZScsICc8aW5maWxlLm1hZT4nLCAnLW9tYWUnLCAnPG91dGZpbGUubWFlPic=

> <r_lp_tautomer_probability>
1

> <r_epik_Ionization_Penalty>
0.132961

> <r_epik_Ionization_Penalty_Charging>
0.132956

> <r_epik_Ionization_Penalty_Neutral>
5.00268e-06

> <r_epik_State_Penalty>
0.122332

> <r_epik_Charging_Adjusted_Penalty>
0.255288

> <i_epik_Tot_Q>
1

> <i_epik_Tot_abs_Q>
1

> <r_epik_Metal_State_Penalty>
0.122338

> <b_epik_Metal_Only>
0

> <s_lp_Force_Field>
OPLS_2005

> <r_lp_Energy>
6.28532

> <b_lp_Chiralities_Consistent>
1

> <s_lp_Variant>
AV-unprocessed.smi:3046-1

> <Gold.Version>
5.8.1

> <Gold.Id.Protein>
6NUR|6NUR_protein|mol2

> <Gold.PLP.Fitness>
46.2943

> <Gold.PLP.PLP>
-29.9420

> <Gold.PLP.part.hbond>
-3.9073

> <Gold.PLP.part.metal>
0.0000

> <Gold.PLP.part.buried>
2.7836

> <Gold.PLP.part.nonpolar>
-30.3298

> <Gold.PLP.part.repulsive>
0.3029

> <Gold.PLP.ligand.clash>
0.0000

> <Gold.PLP.ligand.torsion>
0.5365

> <Gold.PLP.Chemscore.Hbond>
4.8933

> <Gold.PLP.Chemscore.CHOScore>
0.8983

> <Gold.PLP.Chemscore.Metal>
0.0000

> <Gold.Chemscore.Hbonds>
donor molecule, donor type, donor heavy atom, donor atom, acceptor molecule, acceptor atom, score
      L1  H     4    23       P1  7948  0.83
      L1  H     9    28       P1  7948  1.89
      L1  H     9    38       P1  7957  1.00
      P1  H  7989  7998       L1    17  0.80
      L1  C    14    35       P1  7948  0.87

> <Gold.PLP.Chemscore.Internal.Correction>
0.0507

> <Gold.Rescore>
     Score         DG    S(hbond)    S(metal)    S(lipo)     H(rot)  DE(clash)    DE(int)     intcor
     17.18     -20.70       3.76        0.00      72.29       2.26       2.98       0.54       ----

> <Gold.Chemscore.Fitness>
17.1814

> <Gold.Chemscore.DG>
-20.6994

> <Gold.Chemscore.ZeroCoef>
-5.4800

> <Gold.Chemscore.Hbond>
3.7585

> <Gold.Chemscore.Metal>
0.0000

> <Gold.Chemscore.Lipo>
72.2916

> <Gold.Chemscore.Internal_Hbond>
0.0000

> <Gold.Chemscore.DEClash>
2.9772

> <Gold.Chemscore.DEInternal>
0.5408

> <Gold.Chemscore.Rot>
2.2626

> <Gold.Chemscore.Internal.Correction>
   9.000000E+99

> <Gold.Chemscore.Hbonds>
donor molecule, donor type, donor heavy atom, donor atom, acceptor molecule, acceptor atom, score
      L1  H     4    23       P1  7948  0.82
      L1  H     9    28       P1  7948  0.85
      L1  H     9    38       P1  7957  0.99
      P1  H  7989  7998       L1    17  0.11

> <Gold.Chemscore.Hbond.Weighted>
-12.5535

> <Gold.Chemscore.Metal.Weighted>
-0.0000

> <Gold.Chemscore.Lipo.Weighted>
-8.4581

> <Gold.Chemscore.Internal_Hbond.Weighted>
0.0000

> <Gold.Chemscore.DEClash.Weighted>
2.9772

> <Gold.Chemscore.DEInternal.Weighted>
0.5408

> <Gold.Chemscore.Rot.Weighted>
5.7922

> <Gold.Chemscore.Internal.Correction.Weighted>
   9.000000E+99

> <Gold.Protein.RotatedTorsions>
[ 6907 6896 6895 6894 ] final   40.76 input  -60.11 | X-H torsion
[ 7974 7965 7964 7962 ] final  -97.63 input  175.53 | X-H torsion
[ 8008 7997 7996 7995 ] final   17.68 input   59.86 | X-H torsion
[ 10167 10162 10161 10158 ] final  123.77 input  -65.29 | X-H torsion
[ 10718 10713 10712 10709 ] final -130.89 input   66.30 | X-H torsion
[ 10763 10752 10751 10750 ] final  173.53 input  -60.55 | X-H torsion
[ 11005 11000 10999 10996 ] final  104.04 input  -57.11 | X-H torsion

> <Gold.Protein.ActiveResidues>
 VAL166  LYS551  ARG553  GLY616  TRP617  ASP618  TYR619  PRO620  LYS621  CYS622 
 ASP623  PHE694  ASN695  SER759  ASP760  ASP761  ALA762  ILE779  LEU786  VAL792 
 PHE793  MET794  SER795  GLU796  ALA797  LYS798  CYS799  TRP800  GLU811  SER814 

> <Gold.Protein.RotatedAtoms>
  152.1867  134.8708  160.0521 H   0  0  0  0  0  0  0  0  0  0  0  0  # atno 6907 bound_to 6896
  151.9612  133.3691  159.4044 H   0  0  0  0  0  0  0  0  0  0  0  0  # atno 6908 bound_to 6896
  150.6927  134.4162  159.5228 H   0  0  0  0  0  0  0  0  0  0  0  0  # atno 6909 bound_to 6896
  145.3312  140.9442  143.2660 H   0  0  0  0  0  0  0  0  0  0  0  0  # atno 7974 bound_to 7965
  154.8950  140.2992  155.5349 H   0  0  0  0  0  0  0  0  0  0  0  0  # atno 8008 bound_to 7997
  156.3020  140.2417  156.3905 H   0  0  0  0  0  0  0  0  0  0  0  0  # atno 8009 bound_to 7997
  154.8580  140.0406  157.1635 H   0  0  0  0  0  0  0  0  0  0  0  0  # atno 8010 bound_to 7997
  139.5780  144.6973  151.3603 H   0  0  0  0  0  0  0  0  0  0  0  0  # atno 10167 bound_to 10162
  156.2190  130.6966  151.0734 H   0  0  0  0  0  0  0  0  0  0  0  0  # atno 10718 bound_to 10713
  154.4414  135.2762  155.1845 H   0  0  0  0  0  0  0  0  0  0  0  0  # atno 10763 bound_to 10752
  154.3710  135.6108  153.5744 H   0  0  0  0  0  0  0  0  0  0  0  0  # atno 10764 bound_to 10752
  152.9841  135.5857  154.4742 H   0  0  0  0  0  0  0  0  0  0  0  0  # atno 10765 bound_to 10752
  139.8788  134.9285  156.5301 H   0  0  0  0  0  0  0  0  0  0  0  0  # atno 11005 bound_to 11000
  144.8862  139.4836  143.6699 LP  0  0  0  0  0  0  0  0  0  0  0  0  # atno 17320 bound_to 7965
  146.3044  139.7533  142.9067 LP  0  0  0  0  0  0  0  0  0  0  0  0  # atno 17321 bound_to 7965
  140.7061  143.7510  150.7484 LP  0  0  0  0  0  0  0  0  0  0  0  0  # atno 17342 bound_to 10162
  140.1035  143.4765  152.2411 LP  0  0  0  0  0  0  0  0  0  0  0  0  # atno 17343 bound_to 10162
  157.7078  131.0748  150.6608 LP  0  0  0  0  0  0  0  0  0  0  0  0  # atno 17370 bound_to 10713
  156.6670  130.4528  149.5669 LP  0  0  0  0  0  0  0  0  0  0  0  0  # atno 17371 bound_to 10713
  140.8387  133.8222  155.9054 LP  0  0  0  0  0  0  0  0  0  0  0  0  # atno 17394 bound_to 11000
  140.9258  134.2084  157.4896 LP  0  0  0  0  0  0  0  0  0  0  0  0  # atno 17395 bound_to 11000

$$$$
