AV-unprocessed.smi:2893|AV-procd|sdf|11124|dock1
  -GOLD-   2272015593D 1   1.00000     0.00000
 Structure written by MMmdl.
 37 39  0  0  0  0  0  0  0  0  1 V2000
  145.9808  137.6997  152.2259 C   0  0  0  0  0  0  0  0  0  0  0  0
  146.7624  138.8971  151.6688 C   0  0  0  0  0  0  0  0  0  0  0  0
  147.6528  139.4717  152.6702 N   0  0  0  0  0  0  0  0  0  0  0  0
  147.3232  139.7257  153.9486 C   0  0  0  0  0  0  0  0  0  0  0  0
  146.2118  139.4807  154.4199 O   0  0  0  0  0  0  0  0  0  0  0  0
  148.4187  140.2970  154.8090 C   0  0  0  0  0  0  0  0  0  0  0  0
  149.7671  139.9676  154.5508 C   0  0  0  0  0  0  0  0  0  0  0  0
  150.7500  140.5161  155.3924 C   0  0  0  0  0  0  0  0  0  0  0  0
  150.3224  141.3545  156.4394 C   0  0  0  0  0  0  0  0  0  0  0  0
  151.2829  141.9168  157.2919 N   0  0  0  0  0  0  0  0  0  0  0  0
  150.9672  142.2453  158.6788 C   0  0  2  0  0  0  0  0  0  0  0  0
  150.1253  143.5161  158.8168 C   0  0  0  0  0  0  0  0  0  0  0  0
  150.9553  144.3383  159.8130 C   0  0  2  0  0  0  0  0  0  0  0  0
  152.2023  144.9360  159.1489 C   0  0  0  0  0  0  0  0  0  0  0  0
  153.0799  143.6992  158.9685 C   0  0  0  0  0  0  0  0  0  0  0  0
  152.1904  142.5885  159.5526 C   0  0  1  0  0  0  0  0  0  0  0  0
  151.5457  143.3092  160.5894 O   0  0  0  0  0  0  0  0  0  0  0  0
  149.0113  141.6343  156.6388 N   0  0  0  0  0  0  0  0  0  0  0  0
  148.0757  141.1105  155.8399 N   0  0  0  0  0  0  0  0  0  0  0  0
  145.3483  137.2582  151.4555 H   0  0  0  0  0  0  0  0  0  0  0  0
  145.3348  137.9954  153.0532 H   0  0  0  0  0  0  0  0  0  0  0  0
  146.6548  136.9226  152.5875 H   0  0  0  0  0  0  0  0  0  0  0  0
  147.3676  138.5773  150.8203 H   0  0  0  0  0  0  0  0  0  0  0  0
  146.0763  139.6575  151.2923 H   0  0  0  0  0  0  0  0  0  0  0  0
  148.5916  139.6982  152.3740 H   0  0  0  0  0  0  0  0  0  0  0  0
  150.0473  139.3179  153.7343 H   0  0  0  0  0  0  0  0  0  0  0  0
  151.7964  140.2978  155.2373 H   0  0  0  0  0  0  0  0  0  0  0  0
  152.2492  141.9410  157.0001 H   0  0  0  0  0  0  0  0  0  0  0  0
  150.4189  141.4168  159.1297 H   0  0  0  0  0  0  0  0  0  0  0  0
  149.9736  144.0487  157.8767 H   0  0  0  0  0  0  0  0  0  0  0  0
  149.1454  143.2764  159.2308 H   0  0  0  0  0  0  0  0  0  0  0  0
  150.3720  145.0585  160.3872 H   0  0  0  0  0  0  0  0  0  0  0  0
  151.9736  145.4355  158.2069 H   0  0  0  0  0  0  0  0  0  0  0  0
  152.6874  145.6554  159.8096 H   0  0  0  0  0  0  0  0  0  0  0  0
  153.3596  143.5229  157.9298 H   0  0  0  0  0  0  0  0  0  0  0  0
  153.9968  143.7991  159.5503 H   0  0  0  0  0  0  0  0  0  0  0  0
  152.7461  141.7172  159.9000 H   0  0  0  0  0  0  0  0  0  0  0  0
  1  2  1  0  0  0  0
  1 20  1  0  0  0  0
  1 21  1  0  0  0  0
  1 22  1  0  0  0  0
  2  3  1  0  0  0  0
  2 23  1  0  0  0  0
  2 24  1  0  0  0  0
  3  4  1  0  0  0  0
  3 25  1  0  0  0  0
  4  5  2  0  0  0  0
  4  6  1  0  0  0  0
  6 19  1  0  0  0  0
  6  7  2  0  0  0  0
  7  8  1  0  0  0  0
  7 26  1  0  0  0  0
  8  9  2  0  0  0  0
  8 27  1  0  0  0  0
  9 10  1  0  0  0  0
  9 18  1  0  0  0  0
 10 11  1  0  0  0  0
 10 28  1  0  0  0  0
 11 16  1  0  0  0  0
 11 12  1  0  0  0  0
 11 29  1  0  0  0  0
 12 13  1  0  0  0  0
 12 30  1  0  0  0  0
 12 31  1  0  0  0  0
 13 17  1  0  0  0  0
 13 14  1  0  0  0  0
 13 32  1  0  0  0  0
 14 15  1  0  0  0  0
 14 33  1  0  0  0  0
 14 34  1  0  0  0  0
 15 16  1  0  0  0  0
 15 35  1  0  0  0  0
 15 36  1  0  0  0  0
 16 17  1  0  0  0  0
 16 37  1  0  0  0  0
 18 19  2  0  0  0  0
M  END
> <s_m_source_file>
AV-unprocessed.smi

> <i_m_source_file_index>
2893

> <i_lp_mmshare_version>
43012

> <i_f3d_flags>
0

> <s_epik_input>
W0NIM11bQ0gyXVtOSF1DKD1PKWMxW2NIXVtjSF1jKG5uMSlbTkhdW0NASF0oW0NIMl1bQ0BASF0yMylbQ0BASF0oTzMpW0NIMl1bQ0gyXTI=

> <s_epik_cmdline>
J2VwaWtfcHl0aG9uJywgJy1waCcsICc3LjAnLCAnLXRuJywgJzgnLCAnLW1hJywgJzIwMCcsICctbWV0YWxfYmluZGluZycsICctaW1hZScsICc8aW5maWxlLm1hZT4nLCAnLW9tYWUnLCAnPG91dGZpbGUubWFlPic=

> <r_lp_tautomer_probability>
1

> <r_epik_Ionization_Penalty>
0.00432031

> <r_epik_Ionization_Penalty_Charging>
0

> <r_epik_Ionization_Penalty_Neutral>
0.00432031

> <r_epik_State_Penalty>
-0

> <r_epik_Charging_Adjusted_Penalty>
0

> <i_epik_Tot_Q>
0

> <i_epik_Tot_abs_Q>
0

> <r_epik_Metal_State_Penalty>
-0

> <b_epik_Metal_Only>
0

> <s_lp_Force_Field>
OPLS_2005

> <r_lp_Energy>
51.9869

> <b_lp_Chiralities_Consistent>
1

> <s_lp_Variant>
AV-unprocessed.smi:2893-3

> <Gold.Version>
5.8.1

> <Gold.Id.Protein>
6NUR|6NUR_protein|mol2

> <Gold.PLP.Fitness>
39.1547

> <Gold.PLP.PLP>
-37.9456

> <Gold.PLP.part.hbond>
-1.0118

> <Gold.PLP.part.metal>
0.0000

> <Gold.PLP.part.buried>
-2.7705

> <Gold.PLP.part.nonpolar>
-35.0097

> <Gold.PLP.part.repulsive>
0.8333

> <Gold.PLP.ligand.clash>
0.0000

> <Gold.PLP.ligand.torsion>
0.8261

> <Gold.PLP.Chemscore.Hbond>
0.9280

> <Gold.PLP.Chemscore.CHOScore>
0.0000

> <Gold.PLP.Chemscore.Metal>
0.0000

> <Gold.Chemscore.Hbonds>
donor molecule, donor type, donor heavy atom, donor atom, acceptor molecule, acceptor atom, score
      L1  H     3    25       P1  7957  0.94

> <Gold.PLP.Chemscore.Internal.Correction>
0.0773

> <Gold.Rescore>
     Score         DG    S(hbond)    S(metal)    S(lipo)     H(rot)  DE(clash)    DE(int)     intcor
     16.31     -17.54       0.99        0.00     101.32       1.21       0.45       0.78       ----

> <Gold.Chemscore.Fitness>
16.3095

> <Gold.Chemscore.DG>
-17.5367

> <Gold.Chemscore.ZeroCoef>
-5.4800

> <Gold.Chemscore.Hbond>
0.9850

> <Gold.Chemscore.Metal>
0.0000

> <Gold.Chemscore.Lipo>
101.3184

> <Gold.Chemscore.Internal_Hbond>
0.0000

> <Gold.Chemscore.DEClash>
0.4510

> <Gold.Chemscore.DEInternal>
0.7762

> <Gold.Chemscore.Rot>
1.2061

> <Gold.Chemscore.Internal.Correction>
   9.000000E+99

> <Gold.Chemscore.Hbonds>
donor molecule, donor type, donor heavy atom, donor atom, acceptor molecule, acceptor atom, score
      L1  H     3    25       P1  7957  0.90

> <Gold.Chemscore.Hbond.Weighted>
-3.2901

> <Gold.Chemscore.Metal.Weighted>
-0.0000

> <Gold.Chemscore.Lipo.Weighted>
-11.8543

> <Gold.Chemscore.Internal_Hbond.Weighted>
0.0000

> <Gold.Chemscore.DEClash.Weighted>
0.4510

> <Gold.Chemscore.DEInternal.Weighted>
0.7762

> <Gold.Chemscore.Rot.Weighted>
3.0876

> <Gold.Chemscore.Internal.Correction.Weighted>
   9.000000E+99

> <Gold.Protein.RotatedTorsions>
[ 6907 6896 6895 6894 ] final  158.09 input  -60.11 | X-H torsion
[ 7974 7965 7964 7962 ] final -141.84 input  175.53 | X-H torsion
[ 8008 7997 7996 7995 ] final   25.36 input   59.86 | X-H torsion
[ 10167 10162 10161 10158 ] final  124.90 input  -65.29 | X-H torsion
[ 10718 10713 10712 10709 ] final  103.85 input   66.30 | X-H torsion
[ 10763 10752 10751 10750 ] final  160.58 input  -60.55 | X-H torsion
[ 11005 11000 10999 10996 ] final -171.21 input  -57.11 | X-H torsion

> <Gold.Protein.ActiveResidues>
 VAL166  LYS551  ARG553  GLY616  TRP617  ASP618  TYR619  PRO620  LYS621  CYS622 
 ASP623  PHE694  ASN695  SER759  ASP760  ASP761  ALA762  ILE779  LEU786  VAL792 
 PHE793  MET794  SER795  GLU796  ALA797  LYS798  CYS799  TRP800  GLU811  SER814 

> <Gold.Protein.RotatedAtoms>
  152.0055  133.3841  159.4198 H   0  0  0  0  0  0  0  0  0  0  0  0  # atno 6907 bound_to 6896
  150.6905  134.3788  159.5034 H   0  0  0  0  0  0  0  0  0  0  0  0  # atno 6908 bound_to 6896
  152.1541  134.8964  160.0597 H   0  0  0  0  0  0  0  0  0  0  0  0  # atno 6909 bound_to 6896
  144.8489  140.6031  143.5403 H   0  0  0  0  0  0  0  0  0  0  0  0  # atno 7974 bound_to 7965
  155.0106  140.3136  155.4831 H   0  0  0  0  0  0  0  0  0  0  0  0  # atno 8008 bound_to 7997
  156.2910  140.2215  156.5161 H   0  0  0  0  0  0  0  0  0  0  0  0  # atno 8009 bound_to 7997
  154.7538  140.0464  157.0904 H   0  0  0  0  0  0  0  0  0  0  0  0  # atno 8010 bound_to 7997
  139.5715  144.6941  151.3765 H   0  0  0  0  0  0  0  0  0  0  0  0  # atno 10167 bound_to 10162
  157.6759  131.0789  150.5618 H   0  0  0  0  0  0  0  0  0  0  0  0  # atno 10718 bound_to 10713
  154.2496  135.2772  155.2822 H   0  0  0  0  0  0  0  0  0  0  0  0  # atno 10763 bound_to 10752
  154.5476  135.5684  153.6897 H   0  0  0  0  0  0  0  0  0  0  0  0  # atno 10764 bound_to 10752
  152.9983  135.6266  154.2643 H   0  0  0  0  0  0  0  0  0  0  0  0  # atno 10765 bound_to 10752
  140.5108  134.5804  157.5018 H   0  0  0  0  0  0  0  0  0  0  0  0  # atno 11005 bound_to 11000
  145.4540  139.1520  143.3902 LP  0  0  0  0  0  0  0  0  0  0  0  0  # atno 17320 bound_to 7965
  146.2768  140.4668  142.8792 LP  0  0  0  0  0  0  0  0  0  0  0  0  # atno 17321 bound_to 7965
  140.6999  143.7656  150.7387 LP  0  0  0  0  0  0  0  0  0  0  0  0  # atno 17342 bound_to 10162
  140.1164  143.4652  152.2339 LP  0  0  0  0  0  0  0  0  0  0  0  0  # atno 17343 bound_to 10162
  156.5921  130.4332  149.5932 LP  0  0  0  0  0  0  0  0  0  0  0  0  # atno 17370 bound_to 10713
  156.2575  130.6943  151.1701 LP  0  0  0  0  0  0  0  0  0  0  0  0  # atno 17371 bound_to 10713
  139.9660  134.7372  156.0138 LP  0  0  0  0  0  0  0  0  0  0  0  0  # atno 17394 bound_to 11000
  141.1387  133.6569  156.3666 LP  0  0  0  0  0  0  0  0  0  0  0  0  # atno 17395 bound_to 11000

$$$$
