AV-unprocessed.smi:869|AV-procd|sdf|4003|dock3
  -GOLD-   22720 1483D 1   1.00000     0.00000
 Structure written by MMmdl.
 46 48  0  0  0  0  0  0  0  0  1 V2000
  150.7946  135.3601  155.1933 C   0  0  0  0  0  0  0  0  0  0  0  0
  151.0627  136.5257  155.9521 O   0  0  0  0  0  0  0  0  0  0  0  0
  151.6150  137.5690  155.1629 C   0  0  0  0  0  0  0  0  0  0  0  0
  151.6458  138.8254  155.9864 C   0  0  0  0  0  0  0  0  0  0  0  0
  152.2625  138.9089  157.1681 N   0  0  0  0  0  0  0  0  0  0  0  0
  152.0353  140.2184  157.5418 C   0  0  0  0  0  0  0  0  0  0  0  0
  152.4313  140.9258  158.6996 C   0  0  0  0  0  0  0  0  0  0  0  0
  152.0773  142.2811  158.8638 C   0  0  0  0  0  0  0  0  0  0  0  0
  151.3246  142.9472  157.8748 C   0  0  0  0  0  0  0  0  0  0  0  0
  150.9206  142.2608  156.7136 C   0  0  0  0  0  0  0  0  0  0  0  0
  151.2756  140.9077  156.5555 C   0  0  0  0  0  0  0  0  0  0  0  0
  151.0419  139.9641  155.5604 N   0  0  0  0  0  0  0  0  0  0  0  0
  150.3005  140.1903  154.3261 C   0  0  0  0  0  0  0  0  0  0  0  0
  148.7734  140.1663  154.5390 C   0  0  2  0  0  0  0  0  0  0  0  0
  148.1462  139.7227  153.3517 O   0  0  0  0  0  0  0  0  0  0  0  0
  148.2215  141.5568  154.8904 C   0  0  0  0  0  0  0  0  0  0  0  0
  146.9248  141.4064  155.4535 O   0  0  0  0  0  0  0  0  0  0  0  0
  145.9811  142.3758  155.1896 C   0  0  0  0  0  0  0  0  0  0  0  0
  146.0873  143.0532  153.9574 C   0  0  0  0  0  0  0  0  0  0  0  0
  145.1676  144.0595  153.6050 C   0  0  0  0  0  0  0  0  0  0  0  0
  144.1250  144.4041  154.4873 C   0  0  0  0  0  0  0  0  0  0  0  0
  143.1329  145.4858  154.1131 C   0  0  0  0  0  0  0  0  0  0  0  0
  144.0071  143.7321  155.7199 C   0  0  0  0  0  0  0  0  0  0  0  0
  144.9267  142.7246  156.0710 C   0  0  0  0  0  0  0  0  0  0  0  0
  150.3740  134.5905  155.8407 H   0  0  0  0  0  0  0  0  0  0  0  0
  151.7065  134.9627  154.7453 H   0  0  0  0  0  0  0  0  0  0  0  0
  150.0741  135.5635  154.3998 H   0  0  0  0  0  0  0  0  0  0  0  0
  152.6299  137.3170  154.8519 H   0  0  0  0  0  0  0  0  0  0  0  0
  151.0075  137.7294  154.2714 H   0  0  0  0  0  0  0  0  0  0  0  0
  153.0083  140.4240  159.4622 H   0  0  0  0  0  0  0  0  0  0  0  0
  152.3848  142.8122  159.7527 H   0  0  0  0  0  0  0  0  0  0  0  0
  151.0573  143.9851  158.0083 H   0  0  0  0  0  0  0  0  0  0  0  0
  150.3437  142.7676  155.9545 H   0  0  0  0  0  0  0  0  0  0  0  0
  150.6037  141.1597  153.9291 H   0  0  0  0  0  0  0  0  0  0  0  0
  150.5948  139.4546  153.5776 H   0  0  0  0  0  0  0  0  0  0  0  0
  148.5383  139.4676  155.3430 H   0  0  0  0  0  0  0  0  0  0  0  0
  148.7115  139.9258  152.6220 H   0  0  0  0  0  0  0  0  0  0  0  0
  148.8662  142.0233  155.6372 H   0  0  0  0  0  0  0  0  0  0  0  0
  148.2092  142.2016  154.0098 H   0  0  0  0  0  0  0  0  0  0  0  0
  146.8835  142.7983  153.2735 H   0  0  0  0  0  0  0  0  0  0  0  0
  145.2668  144.5655  152.6558 H   0  0  0  0  0  0  0  0  0  0  0  0
  142.2426  145.0416  153.6680 H   0  0  0  0  0  0  0  0  0  0  0  0
  143.5659  146.1823  153.3945 H   0  0  0  0  0  0  0  0  0  0  0  0
  142.8308  146.0538  154.9935 H   0  0  0  0  0  0  0  0  0  0  0  0
  143.2093  143.9873  156.4017 H   0  0  0  0  0  0  0  0  0  0  0  0
  144.8005  142.2347  157.0243 H   0  0  0  0  0  0  0  0  0  0  0  0
  1  2  1  0  0  0  0
  1 25  1  0  0  0  0
  1 26  1  0  0  0  0
  1 27  1  0  0  0  0
  2  3  1  0  0  0  0
  3  4  1  0  0  0  0
  3 28  1  0  0  0  0
  3 29  1  0  0  0  0
  4 12  1  0  0  0  0
  4  5  2  0  0  0  0
  5  6  1  0  0  0  0
  6 11  2  0  0  0  0
  6  7  1  0  0  0  0
  7  8  2  0  0  0  0
  7 30  1  0  0  0  0
  8  9  1  0  0  0  0
  8 31  1  0  0  0  0
  9 10  2  0  0  0  0
  9 32  1  0  0  0  0
 10 11  1  0  0  0  0
 10 33  1  0  0  0  0
 11 12  1  0  0  0  0
 12 13  1  0  0  0  0
 13 14  1  0  0  0  0
 13 34  1  0  0  0  0
 13 35  1  0  0  0  0
 14 15  1  0  0  0  0
 14 16  1  0  0  0  0
 14 36  1  0  0  0  0
 15 37  1  0  0  0  0
 16 17  1  0  0  0  0
 16 38  1  0  0  0  0
 16 39  1  0  0  0  0
 17 18  1  0  0  0  0
 18 24  1  0  0  0  0
 18 19  2  0  0  0  0
 19 20  1  0  0  0  0
 19 40  1  0  0  0  0
 20 21  2  0  0  0  0
 20 41  1  0  0  0  0
 21 22  1  0  0  0  0
 21 23  1  0  0  0  0
 22 42  1  0  0  0  0
 22 43  1  0  0  0  0
 22 44  1  0  0  0  0
 23 24  2  0  0  0  0
 23 45  1  0  0  0  0
 24 46  1  0  0  0  0
M  END
> <s_m_source_file>
AV-unprocessed.smi

> <i_m_source_file_index>
869

> <i_lp_mmshare_version>
43012

> <i_f3d_flags>
0

> <s_epik_input>
W2NIXTFbY0hdW2NIXVtjSF1jKGMxMiluKGMobjIpW0NIMl1PW0NIM10pW0NIMl1bQ0BIXShbT0hdKVtDSDJdT2MzW2NIXVtjSF1jKFtDSDNdKVtjSF1bY0hdMw==

> <s_epik_cmdline>
J2VwaWtfcHl0aG9uJywgJy1waCcsICc3LjAnLCAnLXRuJywgJzgnLCAnLW1hJywgJzIwMCcsICctbWV0YWxfYmluZGluZycsICctaW1hZScsICc8aW5maWxlLm1hZT4nLCAnLW9tYWUnLCAnPG91dGZpbGUubWFlPic=

> <r_lp_tautomer_probability>
1

> <r_epik_Ionization_Penalty>
0.0446698

> <r_epik_Ionization_Penalty_Charging>
0

> <r_epik_Ionization_Penalty_Neutral>
0.0446698

> <r_epik_State_Penalty>
0.0378721

> <r_epik_Charging_Adjusted_Penalty>
0.0378721

> <i_epik_Tot_Q>
0

> <i_epik_Tot_abs_Q>
0

> <r_epik_Metal_State_Penalty>
3.91074e-05

> <b_epik_Metal_Only>
0

> <s_lp_Force_Field>
OPLS_2005

> <r_lp_Energy>
18.3229

> <b_lp_Chiralities_Consistent>
1

> <s_lp_Variant>
AV-unprocessed.smi:869-1

> <Gold.Version>
5.8.1

> <Gold.Id.Protein>
6NUR|6NUR_protein|mol2

> <Gold.PLP.Fitness>
45.4332

> <Gold.PLP.PLP>
-45.1047

> <Gold.PLP.part.hbond>
-1.0000

> <Gold.PLP.part.metal>
0.0000

> <Gold.PLP.part.buried>
-3.0109

> <Gold.PLP.part.nonpolar>
-41.9048

> <Gold.PLP.part.repulsive>
0.1295

> <Gold.PLP.ligand.clash>
0.0000

> <Gold.PLP.ligand.torsion>
1.3922

> <Gold.PLP.Chemscore.Hbond>
1.0000

> <Gold.PLP.Chemscore.CHOScore>
0.0000

> <Gold.PLP.Chemscore.Metal>
0.0000

> <Gold.Chemscore.Hbonds>
donor molecule, donor type, donor heavy atom, donor atom, acceptor molecule, acceptor atom, score
      L1  H    15    37       P1  7957  1.00

> <Gold.PLP.Chemscore.Internal.Correction>
0.1130

> <Gold.Rescore>
     Score         DG    S(hbond)    S(metal)    S(lipo)     H(rot)  DE(clash)    DE(int)     intcor
     14.17     -16.76       1.00        0.00     119.49       2.36       1.25       1.35       ----

> <Gold.Chemscore.Fitness>
14.1702

> <Gold.Chemscore.DG>
-16.7619

> <Gold.Chemscore.ZeroCoef>
-5.4800

> <Gold.Chemscore.Hbond>
1.0000

> <Gold.Chemscore.Metal>
0.0000

> <Gold.Chemscore.Lipo>
119.4850

> <Gold.Chemscore.Internal_Hbond>
0.0000

> <Gold.Chemscore.DEClash>
1.2457

> <Gold.Chemscore.DEInternal>
1.3460

> <Gold.Chemscore.Rot>
2.3585

> <Gold.Chemscore.Internal.Correction>
   9.000000E+99

> <Gold.Chemscore.Hbonds>
donor molecule, donor type, donor heavy atom, donor atom, acceptor molecule, acceptor atom, score
      L1  H    15    37       P1  7957  1.00

> <Gold.Chemscore.Hbond.Weighted>
-3.3400

> <Gold.Chemscore.Metal.Weighted>
-0.0000

> <Gold.Chemscore.Lipo.Weighted>
-13.9797

> <Gold.Chemscore.Internal_Hbond.Weighted>
0.0000

> <Gold.Chemscore.DEClash.Weighted>
1.2457

> <Gold.Chemscore.DEInternal.Weighted>
1.3460

> <Gold.Chemscore.Rot.Weighted>
6.0378

> <Gold.Chemscore.Internal.Correction.Weighted>
   9.000000E+99

> <Gold.Protein.RotatedTorsions>
[ 6907 6896 6895 6894 ] final  -31.54 input  -60.11 | X-H torsion
[ 7974 7965 7964 7962 ] final  155.46 input  175.53 | X-H torsion
[ 8008 7997 7996 7995 ] final   89.88 input   59.86 | X-H torsion
[ 10167 10162 10161 10158 ] final   -2.61 input  -65.29 | X-H torsion
[ 10718 10713 10712 10709 ] final -117.16 input   66.30 | X-H torsion
[ 10763 10752 10751 10750 ] final  -46.51 input  -60.55 | X-H torsion
[ 11005 11000 10999 10996 ] final   83.04 input  -57.11 | X-H torsion

> <Gold.Protein.ActiveResidues>
 VAL166  LYS551  ARG553  GLY616  TRP617  ASP618  TYR619  PRO620  LYS621  CYS622 
 ASP623  PHE694  ASN695  SER759  ASP760  ASP761  ALA762  ILE779  LEU786  VAL792 
 PHE793  MET794  SER795  GLU796  ALA797  LYS798  CYS799  TRP800  GLU811  SER814 

> <Gold.Protein.RotatedAtoms>
  151.0908  134.9915  159.8401 H   0  0  0  0  0  0  0  0  0  0  0  0  # atno 6907 bound_to 6896
  152.5429  134.2068  159.8744 H   0  0  0  0  0  0  0  0  0  0  0  0  # atno 6908 bound_to 6896
  151.2104  133.4515  159.2631 H   0  0  0  0  0  0  0  0  0  0  0  0  # atno 6909 bound_to 6896
  144.8023  139.7071  143.6176 H   0  0  0  0  0  0  0  0  0  0  0  0  # atno 7974 bound_to 7965
  156.0053  140.3355  155.6886 H   0  0  0  0  0  0  0  0  0  0  0  0  # atno 8008 bound_to 7997
  155.6234  140.0677  157.2689 H   0  0  0  0  0  0  0  0  0  0  0  0  # atno 8009 bound_to 7997
  154.4263  140.1772  156.1383 H   0  0  0  0  0  0  0  0  0  0  0  0  # atno 8010 bound_to 7997
  140.6858  143.6637  150.8244 H   0  0  0  0  0  0  0  0  0  0  0  0  # atno 10167 bound_to 10162
  156.1014  130.6175  150.9128 H   0  0  0  0  0  0  0  0  0  0  0  0  # atno 10718 bound_to 10713
  154.0462  135.6637  153.4795 H   0  0  0  0  0  0  0  0  0  0  0  0  # atno 10763 bound_to 10752
  153.0482  135.5101  154.7795 H   0  0  0  0  0  0  0  0  0  0  0  0  # atno 10764 bound_to 10752
  154.6787  135.3041  154.9610 H   0  0  0  0  0  0  0  0  0  0  0  0  # atno 10765 bound_to 10752
  139.9044  134.8116  156.2256 H   0  0  0  0  0  0  0  0  0  0  0  0  # atno 11005 bound_to 11000
  146.2308  139.5809  142.9557 LP  0  0  0  0  0  0  0  0  0  0  0  0  # atno 17320 bound_to 7965
  145.5522  141.0412  143.2272 LP  0  0  0  0  0  0  0  0  0  0  0  0  # atno 17321 bound_to 7965
  140.0344  143.5411  152.2746 LP  0  0  0  0  0  0  0  0  0  0  0  0  # atno 17342 bound_to 10162
  139.6215  144.7630  151.2730 LP  0  0  0  0  0  0  0  0  0  0  0  0  # atno 17343 bound_to 10162
  157.6185  131.0931  150.8667 LP  0  0  0  0  0  0  0  0  0  0  0  0  # atno 17370 bound_to 10713
  156.8794  130.5174  149.5292 LP  0  0  0  0  0  0  0  0  0  0  0  0  # atno 17371 bound_to 10713
  141.0378  133.6954  156.1543 LP  0  0  0  0  0  0  0  0  0  0  0  0  # atno 17394 bound_to 11000
  140.7001  134.4573  157.5586 LP  0  0  0  0  0  0  0  0  0  0  0  0  # atno 17395 bound_to 11000

$$$$
