AV-unprocessed.smi:625|AV-procd|sdf|3101|dock4
  -GOLD-   22720 0 23D 1   1.00000     0.00000
 Structure written by MMmdl.
 49 51  0  0  0  0  0  0  0  0  1 V2000
  145.7935  132.1479  149.9892 C   0  0  0  0  0  0  0  0  0  0  0  0
  146.7759  132.1238  151.0625 N   0  0  0  0  0  0  0  0  0  0  0  0
  146.6349  132.7588  152.2377 C   0  0  0  0  0  0  0  0  0  0  0  0
  145.6322  133.4271  152.4957 O   0  0  0  0  0  0  0  0  0  0  0  0
  147.7653  132.5724  153.1505 C   0  0  0  0  0  0  0  0  0  0  0  0
  148.0781  131.2994  153.7828 C   0  0  0  0  0  0  0  0  0  0  0  0
  149.1095  131.1971  154.6441 C   0  0  0  0  0  0  0  0  0  0  0  0
  149.9534  132.3478  154.9793 C   0  0  0  0  0  0  0  0  0  0  0  0
  150.8770  132.2660  155.7888 O   0  0  0  0  0  0  0  0  0  0  0  0
  149.6415  133.5174  154.3435 N   0  0  0  0  0  0  0  0  0  0  0  0
  150.3945  134.7557  154.6153 C   0  0  0  0  0  0  0  0  0  0  0  0
  149.5629  135.8758  155.2648 C   0  0  0  0  0  0  0  0  0  0  0  0
  149.1901  135.7484  156.4302 O   0  0  0  0  0  0  0  0  0  0  0  0
  149.2916  136.9652  154.5264 N   0  0  0  0  0  0  0  0  0  0  0  0
  148.6052  138.1703  154.9787 C   0  0  2  0  0  0  0  0  0  0  0  0
  147.3251  138.3841  154.1534 C   0  0  0  0  0  0  0  0  0  0  0  0
  149.5841  139.3634  154.8703 C   0  0  2  0  0  0  0  0  0  0  0  0
  151.0638  139.0196  155.1628 C   0  0  0  0  0  0  0  0  0  0  0  0
  151.4835  140.1180  156.1568 C   0  0  2  0  0  0  0  0  0  0  0  0
  150.8519  139.8203  157.5290 C   0  0  0  0  0  0  0  0  0  0  0  0
  149.3677  140.1581  157.2979 C   0  0  0  0  0  0  0  0  0  0  0  0
  149.3361  140.5686  155.8108 C   0  0  1  0  0  0  0  0  0  0  0  0
  150.6622  141.3131  155.6853 C   0  0  0  0  0  0  0  0  0  0  0  0
  148.5582  133.6198  153.4484 C   0  0  0  0  0  0  0  0  0  0  0  0
  146.1431  131.5444  149.1518 H   0  0  0  0  0  0  0  0  0  0  0  0
  145.6333  133.1662  149.6325 H   0  0  0  0  0  0  0  0  0  0  0  0
  144.8388  131.7421  150.3266 H   0  0  0  0  0  0  0  0  0  0  0  0
  147.6183  131.5900  150.9049 H   0  0  0  0  0  0  0  0  0  0  0  0
  147.4967  130.4124  153.5786 H   0  0  0  0  0  0  0  0  0  0  0  0
  149.3222  130.2418  155.1011 H   0  0  0  0  0  0  0  0  0  0  0  0
  151.2632  134.5594  155.2456 H   0  0  0  0  0  0  0  0  0  0  0  0
  150.8082  135.1403  153.6819 H   0  0  0  0  0  0  0  0  0  0  0  0
  149.6335  136.9779  153.5765 H   0  0  0  0  0  0  0  0  0  0  0  0
  148.3295  138.0267  156.0238 H   0  0  0  0  0  0  0  0  0  0  0  0
  146.7707  139.2552  154.5025 H   0  0  0  0  0  0  0  0  0  0  0  0
  146.6574  137.5254  154.2296 H   0  0  0  0  0  0  0  0  0  0  0  0
  147.5540  138.5350  153.0979 H   0  0  0  0  0  0  0  0  0  0  0  0
  149.5286  139.7380  153.8462 H   0  0  0  0  0  0  0  0  0  0  0  0
  151.1971  138.0232  155.5867 H   0  0  0  0  0  0  0  0  0  0  0  0
  151.6557  139.0686  154.2477 H   0  0  0  0  0  0  0  0  0  0  0  0
  152.5606  140.2829  156.1977 H   0  0  0  0  0  0  0  0  0  0  0  0
  151.0004  138.7849  157.8379 H   0  0  0  0  0  0  0  0  0  0  0  0
  151.2755  140.4638  158.3010 H   0  0  0  0  0  0  0  0  0  0  0  0
  148.7020  139.3300  157.5366 H   0  0  0  0  0  0  0  0  0  0  0  0
  149.0722  140.9981  157.9279 H   0  0  0  0  0  0  0  0  0  0  0  0
  148.4618  141.1614  155.5405 H   0  0  0  0  0  0  0  0  0  0  0  0
  150.7388  142.1786  156.3458 H   0  0  0  0  0  0  0  0  0  0  0  0
  150.8947  141.6220  154.6643 H   0  0  0  0  0  0  0  0  0  0  0  0
  148.4104  134.6125  153.0454 H   0  0  0  0  0  0  0  0  0  0  0  0
  1  2  1  0  0  0  0
  1 25  1  0  0  0  0
  1 26  1  0  0  0  0
  1 27  1  0  0  0  0
  2  3  1  0  0  0  0
  2 28  1  0  0  0  0
  3  4  2  0  0  0  0
  3  5  1  0  0  0  0
  5 24  2  0  0  0  0
  5  6  1  0  0  0  0
  6  7  2  0  0  0  0
  6 29  1  0  0  0  0
  7  8  1  0  0  0  0
  7 30  1  0  0  0  0
  8  9  2  0  0  0  0
  8 10  1  0  0  0  0
 10 11  1  0  0  0  0
 10 24  1  0  0  0  0
 11 12  1  0  0  0  0
 11 31  1  0  0  0  0
 11 32  1  0  0  0  0
 12 13  2  0  0  0  0
 12 14  1  0  0  0  0
 14 15  1  0  0  0  0
 14 33  1  0  0  0  0
 15 16  1  0  0  0  0
 15 17  1  0  0  0  0
 15 34  1  0  0  0  0
 16 35  1  0  0  0  0
 16 36  1  0  0  0  0
 16 37  1  0  0  0  0
 17 22  1  0  0  0  0
 17 18  1  0  0  0  0
 17 38  1  0  0  0  0
 18 19  1  0  0  0  0
 18 39  1  0  0  0  0
 18 40  1  0  0  0  0
 19 23  1  0  0  0  0
 19 20  1  0  0  0  0
 19 41  1  0  0  0  0
 20 21  1  0  0  0  0
 20 42  1  0  0  0  0
 20 43  1  0  0  0  0
 21 22  1  0  0  0  0
 21 44  1  0  0  0  0
 21 45  1  0  0  0  0
 22 23  1  0  0  0  0
 22 46  1  0  0  0  0
 23 47  1  0  0  0  0
 23 48  1  0  0  0  0
 24 49  1  0  0  0  0
M  END
> <s_m_source_file>
AV-unprocessed.smi

> <i_m_source_file_index>
625

> <i_lp_mmshare_version>
43012

> <i_f3d_flags>
0

> <s_epik_input>
W0NIM11bTkhdQyg9TyljMVtjSF1bY0hdYyg9TyluKFtjSF0xKVtDSDJdQyg9TylbTkhdW0NASF0oW0NIM10pW0NASF0oW0NIMl1bQ0BIXTIzKVtDQEhdKFtDSDJdMylbQ0gyXVtDSDJdMg==

> <s_epik_cmdline>
J2VwaWtfcHl0aG9uJywgJy1waCcsICc3LjAnLCAnLXRuJywgJzgnLCAnLW1hJywgJzIwMCcsICctbWV0YWxfYmluZGluZycsICctaW1hZScsICc8aW5maWxlLm1hZT4nLCAnLW9tYWUnLCAnPG91dGZpbGUubWFlPic=

> <r_lp_tautomer_probability>
1

> <r_epik_Ionization_Penalty>
3.7129e-07

> <r_epik_Ionization_Penalty_Charging>
5.04114e-08

> <r_epik_Ionization_Penalty_Neutral>
3.20879e-07

> <r_epik_State_Penalty>
-0

> <r_epik_Charging_Adjusted_Penalty>
5.04114e-08

> <i_epik_Tot_Q>
0

> <i_epik_Tot_abs_Q>
0

> <r_epik_Metal_State_Penalty>
-0

> <b_epik_Metal_Only>
0

> <s_lp_Force_Field>
OPLS_2005

> <r_lp_Energy>
63.5822

> <b_lp_Chiralities_Consistent>
1

> <s_lp_Variant>
AV-unprocessed.smi:625-1

> <Gold.Version>
5.8.1

> <Gold.Id.Protein>
6NUR|6NUR_protein|mol2

> <Gold.PLP.Fitness>
41.9977

> <Gold.PLP.PLP>
-37.7248

> <Gold.PLP.part.hbond>
-2.0000

> <Gold.PLP.part.metal>
0.0000

> <Gold.PLP.part.buried>
-4.1486

> <Gold.PLP.part.nonpolar>
-31.6161

> <Gold.PLP.part.repulsive>
0.1624

> <Gold.PLP.ligand.clash>
0.0000

> <Gold.PLP.ligand.torsion>
1.9420

> <Gold.PLP.Chemscore.Hbond>
1.6880

> <Gold.PLP.Chemscore.CHOScore>
1.0000

> <Gold.PLP.Chemscore.Metal>
0.0000

> <Gold.Chemscore.Hbonds>
donor molecule, donor type, donor heavy atom, donor atom, acceptor molecule, acceptor atom, score
      L1  H     2    28       P1 10747  1.00
      L1  H    14    33       P1  7948  0.70
      L1  C    24    49       P1  7948  1.00

> <Gold.PLP.Chemscore.Internal.Correction>
0.0928

> <Gold.Rescore>
     Score         DG    S(hbond)    S(metal)    S(lipo)     H(rot)  DE(clash)    DE(int)     intcor
     14.48     -16.22       1.72        0.00      79.31       1.67       0.04       1.69       ----

> <Gold.Chemscore.Fitness>
14.4809

> <Gold.Chemscore.DG>
-16.2155

> <Gold.Chemscore.ZeroCoef>
-5.4800

> <Gold.Chemscore.Hbond>
1.7166

> <Gold.Chemscore.Metal>
0.0000

> <Gold.Chemscore.Lipo>
79.3110

> <Gold.Chemscore.Internal_Hbond>
0.0000

> <Gold.Chemscore.DEClash>
0.0447

> <Gold.Chemscore.DEInternal>
1.6899

> <Gold.Chemscore.Rot>
1.6709

> <Gold.Chemscore.Internal.Correction>
   9.000000E+99

> <Gold.Chemscore.Hbonds>
donor molecule, donor type, donor heavy atom, donor atom, acceptor molecule, acceptor atom, score
      L1  H     2    28       P1 10747  1.00
      L1  H    14    33       P1  7948  0.51

> <Gold.Chemscore.Hbond.Weighted>
-5.7335

> <Gold.Chemscore.Metal.Weighted>
-0.0000

> <Gold.Chemscore.Lipo.Weighted>
-9.2794

> <Gold.Chemscore.Internal_Hbond.Weighted>
0.0000

> <Gold.Chemscore.DEClash.Weighted>
0.0447

> <Gold.Chemscore.DEInternal.Weighted>
1.6899

> <Gold.Chemscore.Rot.Weighted>
4.2774

> <Gold.Chemscore.Internal.Correction.Weighted>
   9.000000E+99

> <Gold.Protein.RotatedTorsions>
[ 6907 6896 6895 6894 ] final  -44.47 input  -60.11 | X-H torsion
[ 7974 7965 7964 7962 ] final   35.64 input  175.53 | X-H torsion
[ 8008 7997 7996 7995 ] final   12.21 input   59.86 | X-H torsion
[ 10167 10162 10161 10158 ] final  103.26 input  -65.29 | X-H torsion
[ 10718 10713 10712 10709 ] final  111.75 input   66.30 | X-H torsion
[ 10763 10752 10751 10750 ] final  -24.56 input  -60.55 | X-H torsion
[ 11005 11000 10999 10996 ] final -153.12 input  -57.11 | X-H torsion

> <Gold.Protein.ActiveResidues>
 VAL166  LYS551  ARG553  GLY616  TRP617  ASP618  TYR619  PRO620  LYS621  CYS622 
 ASP623  PHE694  ASN695  SER759  ASP760  ASP761  ALA762  ILE779  LEU786  VAL792 
 PHE793  MET794  SER795  GLU796  ALA797  LYS798  CYS799  TRP800  GLU811  SER814 

> <Gold.Protein.RotatedAtoms>
  150.9324  134.8739  159.7559 H   0  0  0  0  0  0  0  0  0  0  0  0  # atno 6907 bound_to 6896
  152.5044  134.4059  159.9442 H   0  0  0  0  0  0  0  0  0  0  0  0  # atno 6908 bound_to 6896
  151.4085  133.3695  159.2776 H   0  0  0  0  0  0  0  0  0  0  0  0  # atno 6909 bound_to 6896
  146.1268  139.6117  142.9253 H   0  0  0  0  0  0  0  0  0  0  0  0  # atno 7974 bound_to 7965
  154.8175  140.2878  155.5810 H   0  0  0  0  0  0  0  0  0  0  0  0  # atno 8008 bound_to 7997
  156.2994  140.2556  156.3006 H   0  0  0  0  0  0  0  0  0  0  0  0  # atno 8009 bound_to 7997
  154.9376  140.0382  157.2070 H   0  0  0  0  0  0  0  0  0  0  0  0  # atno 8010 bound_to 7997
  139.7278  144.7043  151.0769 H   0  0  0  0  0  0  0  0  0  0  0  0  # atno 10167 bound_to 10162
  157.6429  131.0956  150.6794 H   0  0  0  0  0  0  0  0  0  0  0  0  # atno 10718 bound_to 10713
  153.6858  135.6964  153.5104 H   0  0  0  0  0  0  0  0  0  0  0  0  # atno 10763 bound_to 10752
  153.2450  135.4293  155.0737 H   0  0  0  0  0  0  0  0  0  0  0  0  # atno 10764 bound_to 10752
  154.8387  135.3517  154.6401 H   0  0  0  0  0  0  0  0  0  0  0  0  # atno 10765 bound_to 10752
  140.7116  134.3827  157.5197 H   0  0  0  0  0  0  0  0  0  0  0  0  # atno 11005 bound_to 11000
  145.5347  141.0425  143.2363 LP  0  0  0  0  0  0  0  0  0  0  0  0  # atno 17320 bound_to 7965
  144.7651  139.6865  143.7218 LP  0  0  0  0  0  0  0  0  0  0  0  0  # atno 17321 bound_to 7965
  140.7766  143.5082  150.9686 LP  0  0  0  0  0  0  0  0  0  0  0  0  # atno 17342 bound_to 10162
  139.8770  143.7120  152.3161 LP  0  0  0  0  0  0  0  0  0  0  0  0  # atno 17343 bound_to 10162
  156.7115  130.4653  149.5546 LP  0  0  0  0  0  0  0  0  0  0  0  0  # atno 17370 bound_to 10713
  156.1726  130.6447  151.0856 LP  0  0  0  0  0  0  0  0  0  0  0  0  # atno 17371 bound_to 10713
  139.8870  134.8894  156.2551 LP  0  0  0  0  0  0  0  0  0  0  0  0  # atno 17394 bound_to 11000
  141.0080  133.7112  156.1065 LP  0  0  0  0  0  0  0  0  0  0  0  0  # atno 17395 bound_to 11000

$$$$
