AV-unprocessed.smi:1973|AV-procd|sdf|7978|dock7
  -GOLD-   2272010153D 1   1.00000     0.00000
 Structure written by MMmdl.
 48 50  0  0  0  0  0  0  0  0  2 V2000
  152.2475  142.4693  159.1067 C   0  0  0  0  0  0  0  0  0  0  0  0
  151.4126  142.3720  157.9667 O   0  0  0  0  0  0  0  0  0  0  0  0
  151.2939  141.0419  157.4900 C   0  0  0  0  0  0  0  0  0  0  0  0
  150.7016  141.0461  156.0713 C   0  0  0  0  0  0  0  0  0  0  0  0
  150.6454  139.6954  155.5006 N   0  0  0  0  0  0  0  0  0  0  0  0
  149.3996  139.0971  155.5970 N   0  0  0  0  0  0  0  0  0  0  0  0
  149.2165  137.8986  155.1446 C   0  0  0  0  0  0  0  0  0  0  0  0
  147.8933  137.2205  155.2322 C   0  0  0  0  0  0  0  0  0  0  0  0
  147.2691  137.1423  156.2914 O   0  0  0  0  0  0  0  0  0  0  0  0
  147.4345  136.7031  154.0796 N   0  0  0  0  0  0  0  0  0  0  0  0
  146.1698  135.9946  153.9349 C   0  0  0  0  0  0  0  0  0  0  0  0
  145.8256  135.7824  152.4518 C   0  0  2  0  0  0  0  0  0  0  0  0
  144.3371  135.9097  152.1340 C   0  0  0  0  0  0  0  0  0  0  0  0
  144.1654  135.1407  150.8182 C   0  0  0  0  0  0  0  0  0  0  0  0
  145.3371  134.2428  150.6904 N   0  3  2  0  0  0  0  0  0  0  0  0
  144.9967  132.8439  150.3550 C   0  0  0  0  0  0  0  0  0  0  0  0
  144.6293  132.0067  151.5567 C   0  0  0  0  0  0  0  0  0  0  0  0
  145.9812  131.8362  150.8983 C   0  0  0  0  0  0  0  0  0  0  0  0
  146.1467  134.3851  151.9179 C   0  0  0  0  0  0  0  0  0  0  0  0
  150.3056  137.1620  154.5266 C   0  0  0  0  0  0  0  0  0  0  0  0
  151.5154  137.7574  154.4418 C   0  0  0  0  0  0  0  0  0  0  0  0
  151.7517  139.1093  154.9501 C   0  0  0  0  0  0  0  0  0  0  0  0
  152.8468  139.6670  154.8889 O   0  0  0  0  0  0  0  0  0  0  0  0
  152.3065  143.5089  159.4287 H   0  0  0  0  0  0  0  0  0  0  0  0
  153.2594  142.1279  158.8845 H   0  0  0  0  0  0  0  0  0  0  0  0
  151.8532  141.8809  159.9361 H   0  0  0  0  0  0  0  0  0  0  0  0
  152.2658  140.5455  157.4954 H   0  0  0  0  0  0  0  0  0  0  0  0
  150.6389  140.4775  158.1551 H   0  0  0  0  0  0  0  0  0  0  0  0
  149.6901  141.4541  156.1114 H   0  0  0  0  0  0  0  0  0  0  0  0
  151.2599  141.7318  155.4319 H   0  0  0  0  0  0  0  0  0  0  0  0
  148.0010  136.8160  153.2512 H   0  0  0  0  0  0  0  0  0  0  0  0
  146.2245  135.0333  154.4488 H   0  0  0  0  0  0  0  0  0  0  0  0
  145.3829  136.5725  154.4217 H   0  0  0  0  0  0  0  0  0  0  0  0
  146.3662  136.5160  151.8506 H   0  0  0  0  0  0  0  0  0  0  0  0
  143.7459  135.4288  152.9148 H   0  0  0  0  0  0  0  0  0  0  0  0
  144.0082  136.9468  152.0612 H   0  0  0  0  0  0  0  0  0  0  0  0
  143.2201  134.5958  150.8046 H   0  0  0  0  0  0  0  0  0  0  0  0
  144.1637  135.8239  149.9686 H   0  0  0  0  0  0  0  0  0  0  0  0
  144.5083  132.6789  149.3960 H   0  0  0  0  0  0  0  0  0  0  0  0
  144.6021  132.4890  152.5322 H   0  0  0  0  0  0  0  0  0  0  0  0
  143.9014  131.2111  151.4113 H   0  0  0  0  0  0  0  0  0  0  0  0
  146.1418  130.9287  150.3198 H   0  0  0  0  0  0  0  0  0  0  0  0
  146.8530  132.2048  151.4363 H   0  0  0  0  0  0  0  0  0  0  0  0
  147.2085  134.2464  151.7114 H   0  0  0  0  0  0  0  0  0  0  0  0
  145.8446  133.6303  152.6466 H   0  0  0  0  0  0  0  0  0  0  0  0
  150.1603  136.1626  154.1426 H   0  0  0  0  0  0  0  0  0  0  0  0
  152.3345  137.2210  153.9853 H   0  0  0  0  0  0  0  0  0  0  0  0
  145.8937  134.6109  149.9322 H   0  0  0  0  0  0  0  0  0  0  0  0
  1  2  1  0  0  0  0
  1 24  1  0  0  0  0
  1 25  1  0  0  0  0
  1 26  1  0  0  0  0
  2  3  1  0  0  0  0
  3  4  1  0  0  0  0
  3 27  1  0  0  0  0
  3 28  1  0  0  0  0
  4  5  1  0  0  0  0
  4 29  1  0  0  0  0
  4 30  1  0  0  0  0
  5 22  1  0  0  0  0
  5  6  1  0  0  0  0
  6  7  2  0  0  0  0
  7  8  1  0  0  0  0
  7 20  1  0  0  0  0
  8  9  2  0  0  0  0
  8 10  1  0  0  0  0
 10 11  1  0  0  0  0
 10 31  1  0  0  0  0
 11 12  1  0  0  0  0
 11 32  1  0  0  0  0
 11 33  1  0  0  0  0
 12 19  1  0  0  0  0
 12 13  1  0  0  0  0
 12 34  1  0  0  0  0
 13 14  1  0  0  0  0
 13 35  1  0  0  0  0
 13 36  1  0  0  0  0
 14 15  1  0  0  0  0
 14 37  1  0  0  0  0
 14 38  1  0  0  0  0
 15 16  1  0  0  0  0
 15 19  1  0  0  0  0
 15 48  1  0  0  0  0
 16 18  1  0  0  0  0
 16 17  1  0  0  0  0
 16 39  1  0  0  0  0
 17 18  1  0  0  0  0
 17 40  1  0  0  0  0
 17 41  1  0  0  0  0
 18 42  1  0  0  0  0
 18 43  1  0  0  0  0
 19 44  1  0  0  0  0
 19 45  1  0  0  0  0
 20 21  2  0  0  0  0
 20 46  1  0  0  0  0
 21 22  1  0  0  0  0
 21 47  1  0  0  0  0
 22 23  2  0  0  0  0
M  CHG  1  15   1
M  END
> <s_m_source_file>
AV-unprocessed.smi

> <i_m_source_file_index>
1973

> <i_lp_mmshare_version>
43012

> <i_f3d_flags>
0

> <s_epik_input>
W0NIM11PW0NIMl1bQ0gyXW4xbmMoW2NIXVtjSF1jMT1PKUMoPU8pW05IXVtDSDJdW0NAQEhdMltDSDJdW0NIMl1OKFtDSDJdMilbQ0hdM1tDSDJdW0NIMl0z

> <s_epik_cmdline>
J2VwaWtfcHl0aG9uJywgJy1waCcsICc3LjAnLCAnLXRuJywgJzgnLCAnLW1hJywgJzIwMCcsICctbWV0YWxfYmluZGluZycsICctaW1hZScsICc8aW5maWxlLm1hZT4nLCAnLW9tYWUnLCAnPG91dGZpbGUubWFlPic=

> <r_lp_tautomer_probability>
1

> <r_epik_Ionization_Penalty>
0.000225706

> <r_epik_Ionization_Penalty_Charging>
0.000223776

> <r_epik_Ionization_Penalty_Neutral>
1.93004e-06

> <r_epik_State_Penalty>
-0

> <r_epik_Charging_Adjusted_Penalty>
0.000223776

> <i_epik_Tot_Q>
1

> <i_epik_Tot_abs_Q>
1

> <r_epik_Metal_State_Penalty>
-0

> <b_epik_Metal_Only>
0

> <s_lp_Force_Field>
OPLS_2005

> <r_lp_Energy>
60.0274

> <b_lp_Chiralities_Consistent>
1

> <s_lp_Variant>
AV-unprocessed.smi:1973-3

> <Gold.Version>
5.8.1

> <Gold.Id.Protein>
6NUR|6NUR_protein|mol2

> <Gold.PLP.Fitness>
44.1430

> <Gold.PLP.PLP>
-39.6216

> <Gold.PLP.part.hbond>
-4.0000

> <Gold.PLP.part.metal>
0.0000

> <Gold.PLP.part.buried>
-0.0873

> <Gold.PLP.part.nonpolar>
-34.2599

> <Gold.PLP.part.repulsive>
0.1839

> <Gold.PLP.ligand.clash>
0.0000

> <Gold.PLP.ligand.torsion>
2.4895

> <Gold.PLP.Chemscore.Hbond>
2.7166

> <Gold.PLP.Chemscore.CHOScore>
0.0000

> <Gold.PLP.Chemscore.Metal>
0.0000

> <Gold.Chemscore.Hbonds>
donor molecule, donor type, donor heavy atom, donor atom, acceptor molecule, acceptor atom, score
      L1  H    10    31       P1  7948  1.00
      L1  H    15    48       P1  7921  0.28
      P1  H  7997  8008       L1    23  1.00

> <Gold.PLP.Chemscore.Internal.Correction>
1.3507

> <Gold.Rescore>
     Score         DG    S(hbond)    S(metal)    S(lipo)     H(rot)  DE(clash)    DE(int)     intcor
     16.28     -19.45       2.64        0.00      87.13       1.97       0.80       2.37       ----

> <Gold.Chemscore.Fitness>
16.2817

> <Gold.Chemscore.DG>
-19.4474

> <Gold.Chemscore.ZeroCoef>
-5.4800

> <Gold.Chemscore.Hbond>
2.6404

> <Gold.Chemscore.Metal>
0.0000

> <Gold.Chemscore.Lipo>
87.1312

> <Gold.Chemscore.Internal_Hbond>
0.0000

> <Gold.Chemscore.DEClash>
0.7983

> <Gold.Chemscore.DEInternal>
2.3673

> <Gold.Chemscore.Rot>
1.9711

> <Gold.Chemscore.Internal.Correction>
   9.000000E+99

> <Gold.Chemscore.Hbonds>
donor molecule, donor type, donor heavy atom, donor atom, acceptor molecule, acceptor atom, score
      L1  H    10    31       P1  7948  0.98
      L1  H    15    48       P1  7921  0.18
      P1  H  7997  8008       L1    23  0.98

> <Gold.Chemscore.Hbond.Weighted>
-8.8190

> <Gold.Chemscore.Metal.Weighted>
-0.0000

> <Gold.Chemscore.Lipo.Weighted>
-10.1944

> <Gold.Chemscore.Internal_Hbond.Weighted>
0.0000

> <Gold.Chemscore.DEClash.Weighted>
0.7983

> <Gold.Chemscore.DEInternal.Weighted>
2.3673

> <Gold.Chemscore.Rot.Weighted>
5.0460

> <Gold.Chemscore.Internal.Correction.Weighted>
   9.000000E+99

> <Gold.Protein.RotatedTorsions>
[ 6907 6896 6895 6894 ] final   90.75 input  -60.11 | X-H torsion
[ 7974 7965 7964 7962 ] final   70.98 input  175.53 | X-H torsion
[ 8008 7997 7996 7995 ] final  -12.65 input   59.86 | X-H torsion
[ 10167 10162 10161 10158 ] final -132.04 input  -65.29 | X-H torsion
[ 10718 10713 10712 10709 ] final   41.28 input   66.30 | X-H torsion
[ 10763 10752 10751 10750 ] final    0.82 input  -60.55 | X-H torsion
[ 11005 11000 10999 10996 ] final -149.33 input  -57.11 | X-H torsion

> <Gold.Protein.ActiveResidues>
 VAL166  LYS551  ARG553  GLY616  TRP617  ASP618  TYR619  PRO620  LYS621  CYS622 
 ASP623  PHE694  ASN695  SER759  ASP760  ASP761  ALA762  ILE779  LEU786  VAL792 
 PHE793  MET794  SER795  GLU796  ALA797  LYS798  CYS799  TRP800  GLU811  SER814 

> <Gold.Protein.RotatedAtoms>
  152.5446  134.1763  159.8617 H   0  0  0  0  0  0  0  0  0  0  0  0  # atno 6907 bound_to 6896
  151.1769  133.4742  159.2601 H   0  0  0  0  0  0  0  0  0  0  0  0  # atno 6908 bound_to 6896
  151.1218  135.0094  159.8597 H   0  0  0  0  0  0  0  0  0  0  0  0  # atno 6909 bound_to 6896
  145.7715  139.2845  143.1318 H   0  0  0  0  0  0  0  0  0  0  0  0  # atno 7974 bound_to 7965
  154.5359  140.2270  155.8724 H   0  0  0  0  0  0  0  0  0  0  0  0  # atno 8008 bound_to 7997
  156.1811  140.3100  155.9112 H   0  0  0  0  0  0  0  0  0  0  0  0  # atno 8009 bound_to 7997
  155.3356  140.0447  157.3034 H   0  0  0  0  0  0  0  0  0  0  0  0  # atno 8010 bound_to 7997
  139.9127  143.6475  152.2572 H   0  0  0  0  0  0  0  0  0  0  0  0  # atno 10167 bound_to 10162
  157.3917  130.7810  149.7275 H   0  0  0  0  0  0  0  0  0  0  0  0  # atno 10718 bound_to 10713
  153.3158  135.6966  153.7074 H   0  0  0  0  0  0  0  0  0  0  0  0  # atno 10763 bound_to 10752
  153.5934  135.3475  155.2920 H   0  0  0  0  0  0  0  0  0  0  0  0  # atno 10764 bound_to 10752
  154.8586  135.4323  154.2309 H   0  0  0  0  0  0  0  0  0  0  0  0  # atno 10765 bound_to 10752
  140.7518  134.3397  157.5124 H   0  0  0  0  0  0  0  0  0  0  0  0  # atno 11005 bound_to 11000
  146.0165  140.8387  142.9944 LP  0  0  0  0  0  0  0  0  0  0  0  0  # atno 17320 bound_to 7965
  144.6812  140.2566  143.7324 LP  0  0  0  0  0  0  0  0  0  0  0  0  # atno 17321 bound_to 7965
  139.6929  144.7645  151.1407 LP  0  0  0  0  0  0  0  0  0  0  0  0  # atno 17342 bound_to 10162
  140.7681  143.5564  150.9147 LP  0  0  0  0  0  0  0  0  0  0  0  0  # atno 17343 bound_to 10162
  155.9800  130.4034  150.3554 LP  0  0  0  0  0  0  0  0  0  0  0  0  # atno 17370 bound_to 10713
  157.1671  131.0359  151.2813 LP  0  0  0  0  0  0  0  0  0  0  0  0  # atno 17371 bound_to 10713
  139.8786  134.9147  156.3113 LP  0  0  0  0  0  0  0  0  0  0  0  0  # atno 17394 bound_to 11000
  140.9743  133.7307  156.0580 LP  0  0  0  0  0  0  0  0  0  0  0  0  # atno 17395 bound_to 11000

$$$$
