AV-unprocessed.smi:1160|AV-procd|sdf|4916|dock4
  -GOLD-   22720 3493D 1   1.00000     0.00000
 Structure written by MMmdl.
 44 45  0  0  0  0  0  0  0  0  1 V2000
  144.8308  133.2784  151.3381 C   0  0  0  0  0  0  0  0  0  0  0  0
  145.5943  134.4315  150.6821 C   0  0  0  0  0  0  0  0  0  0  0  0
  145.9914  135.3513  151.6946 O   0  0  0  0  0  0  0  0  0  0  0  0
  145.0152  136.0670  152.3621 C   0  0  0  0  0  0  0  0  0  0  0  0
  143.7168  135.7293  152.1608 N   0  0  0  0  0  0  0  0  0  0  0  0
  142.7636  136.4225  152.8161 C   0  0  0  0  0  0  0  0  0  0  0  0
  143.0502  137.4748  153.7043 C   0  0  0  0  0  0  0  0  0  0  0  0
  144.3961  137.8274  153.9147 C   0  0  0  0  0  0  0  0  0  0  0  0
  145.4086  137.1190  153.2222 C   0  0  0  0  0  0  0  0  0  0  0  0
  146.8002  137.3795  153.3646 N   0  0  0  0  0  0  0  0  0  0  0  0
  147.4105  138.4644  153.8713 C   0  0  0  0  0  0  0  0  0  0  0  0
  146.8415  139.4462  154.3470 O   0  0  0  0  0  0  0  0  0  0  0  0
  148.7433  138.3508  153.7778 N   0  0  0  0  0  0  0  0  0  0  0  0
  149.7196  139.3511  154.2009 C   0  0  0  0  0  0  0  0  0  0  0  0
  151.1080  138.6919  154.3412 C   0  0  0  0  0  0  0  0  0  0  0  0
  152.1216  139.6573  154.9803 C   0  0  0  0  0  0  0  0  0  0  0  0
  151.5948  140.1089  156.2737 N   0  0  0  0  0  0  0  0  0  0  0  0
  152.1263  139.7174  157.4568 C   0  0  0  0  0  0  0  0  0  0  0  0
  151.4803  140.1897  158.7611 C   0  0  0  0  0  0  0  0  0  0  0  0
  153.1172  138.9909  157.5332 O   0  0  0  0  0  0  0  0  0  0  0  0
  150.3704  140.9034  156.1116 C   0  0  0  0  0  0  0  0  0  0  0  0
  149.2665  140.0046  155.5251 C   0  0  0  0  0  0  0  0  0  0  0  0
  144.5038  132.5538  150.5920 H   0  0  0  0  0  0  0  0  0  0  0  0
  143.9461  133.6428  151.8606 H   0  0  0  0  0  0  0  0  0  0  0  0
  145.4564  132.7550  152.0617 H   0  0  0  0  0  0  0  0  0  0  0  0
  146.4688  134.0409  150.1593 H   0  0  0  0  0  0  0  0  0  0  0  0
  144.9525  134.9233  149.9491 H   0  0  0  0  0  0  0  0  0  0  0  0
  141.7420  136.1248  152.6317 H   0  0  0  0  0  0  0  0  0  0  0  0
  142.2561  137.9974  154.2165 H   0  0  0  0  0  0  0  0  0  0  0  0
  144.6197  138.6214  154.6096 H   0  0  0  0  0  0  0  0  0  0  0  0
  147.4070  136.6835  152.9563 H   0  0  0  0  0  0  0  0  0  0  0  0
  149.1154  137.5064  153.3685 H   0  0  0  0  0  0  0  0  0  0  0  0
  149.8070  140.1405  153.4521 H   0  0  0  0  0  0  0  0  0  0  0  0
  151.0329  137.7951  154.9584 H   0  0  0  0  0  0  0  0  0  0  0  0
  151.4679  138.3654  153.3648 H   0  0  0  0  0  0  0  0  0  0  0  0
  153.0942  139.1712  155.0654 H   0  0  0  0  0  0  0  0  0  0  0  0
  152.2784  140.5206  154.3320 H   0  0  0  0  0  0  0  0  0  0  0  0
  150.4431  139.8592  158.8220 H   0  0  0  0  0  0  0  0  0  0  0  0
  151.5125  141.2768  158.8367 H   0  0  0  0  0  0  0  0  0  0  0  0
  152.0106  139.7811  159.6219 H   0  0  0  0  0  0  0  0  0  0  0  0
  150.0208  141.3625  157.0352 H   0  0  0  0  0  0  0  0  0  0  0  0
  150.5721  141.7339  155.4336 H   0  0  0  0  0  0  0  0  0  0  0  0
  148.3591  140.5876  155.3631 H   0  0  0  0  0  0  0  0  0  0  0  0
  149.0118  139.2324  156.2529 H   0  0  0  0  0  0  0  0  0  0  0  0
  1  2  1  0  0  0  0
  1 23  1  0  0  0  0
  1 24  1  0  0  0  0
  1 25  1  0  0  0  0
  2  3  1  0  0  0  0
  2 26  1  0  0  0  0
  2 27  1  0  0  0  0
  3  4  1  0  0  0  0
  4  9  1  0  0  0  0
  4  5  2  0  0  0  0
  5  6  1  0  0  0  0
  6  7  2  0  0  0  0
  6 28  1  0  0  0  0
  7  8  1  0  0  0  0
  7 29  1  0  0  0  0
  8  9  2  0  0  0  0
  8 30  1  0  0  0  0
  9 10  1  0  0  0  0
 10 11  1  0  0  0  0
 10 31  1  0  0  0  0
 11 12  2  0  0  0  0
 11 13  1  0  0  0  0
 13 14  1  0  0  0  0
 13 32  1  0  0  0  0
 14 22  1  0  0  0  0
 14 15  1  0  0  0  0
 14 33  1  0  0  0  0
 15 16  1  0  0  0  0
 15 34  1  0  0  0  0
 15 35  1  0  0  0  0
 16 17  1  0  0  0  0
 16 36  1  0  0  0  0
 16 37  1  0  0  0  0
 17 18  1  0  0  0  0
 17 21  1  0  0  0  0
 18 19  1  0  0  0  0
 18 20  2  0  0  0  0
 19 38  1  0  0  0  0
 19 39  1  0  0  0  0
 19 40  1  0  0  0  0
 21 22  1  0  0  0  0
 21 41  1  0  0  0  0
 21 42  1  0  0  0  0
 22 43  1  0  0  0  0
 22 44  1  0  0  0  0
M  END
> <s_m_source_file>
AV-unprocessed.smi

> <i_m_source_file_index>
1160

> <i_lp_mmshare_version>
43012

> <i_f3d_flags>
0

> <s_epik_input>
W0NIM11bQ0gyXU9jMW5bY0hdW2NIXVtjSF1jMVtOSF1DKD1PKVtOSF1bQ0hdMltDSDJdW0NIMl1OKEMoPU8pW0NIM10pW0NIMl1bQ0gyXTI=

> <s_epik_cmdline>
J2VwaWtfcHl0aG9uJywgJy1waCcsICc3LjAnLCAnLXRuJywgJzgnLCAnLW1hJywgJzIwMCcsICctbWV0YWxfYmluZGluZycsICctaW1hZScsICc8aW5maWxlLm1hZT4nLCAnLW9tYWUnLCAnPG91dGZpbGUubWFlPic=

> <r_lp_tautomer_probability>
1

> <r_epik_Ionization_Penalty>
0.00011666

> <r_epik_Ionization_Penalty_Charging>
0

> <r_epik_Ionization_Penalty_Neutral>
0.00011666

> <r_epik_State_Penalty>
-0

> <r_epik_Charging_Adjusted_Penalty>
0

> <i_epik_Tot_Q>
0

> <i_epik_Tot_abs_Q>
0

> <r_epik_Metal_State_Penalty>
-0

> <b_epik_Metal_Only>
0

> <s_lp_Force_Field>
OPLS_2005

> <r_lp_Energy>
24.4955

> <b_lp_Chiralities_Consistent>
1

> <s_lp_Variant>
AV-unprocessed.smi:1160-1

> <Gold.Version>
5.8.1

> <Gold.Id.Protein>
6NUR|6NUR_protein|mol2

> <Gold.PLP.Fitness>
37.3730

> <Gold.PLP.PLP>
-29.6798

> <Gold.PLP.part.hbond>
-3.2077

> <Gold.PLP.part.metal>
0.0000

> <Gold.PLP.part.buried>
-1.2652

> <Gold.PLP.part.nonpolar>
-25.6549

> <Gold.PLP.part.repulsive>
0.6887

> <Gold.PLP.ligand.clash>
0.0000

> <Gold.PLP.ligand.torsion>
0.4238

> <Gold.PLP.Chemscore.Hbond>
2.8400

> <Gold.PLP.Chemscore.CHOScore>
0.0000

> <Gold.PLP.Chemscore.Metal>
0.0000

> <Gold.Chemscore.Hbonds>
donor molecule, donor type, donor heavy atom, donor atom, acceptor molecule, acceptor atom, score
      L1  H    10    31       P1  7948  0.99
      L1  H    13    32       P1  7948  0.91
      P1  H  7997  8008       L1    20  0.94

> <Gold.PLP.Chemscore.Internal.Correction>
0.0207

> <Gold.Rescore>
     Score         DG    S(hbond)    S(metal)    S(lipo)     H(rot)  DE(clash)    DE(int)     intcor
     14.12     -18.92       2.90        0.00      63.19       1.43       1.88       2.92       ----

> <Gold.Chemscore.Fitness>
14.1193

> <Gold.Chemscore.DG>
-18.9156

> <Gold.Chemscore.ZeroCoef>
-5.4800

> <Gold.Chemscore.Hbond>
2.9049

> <Gold.Chemscore.Metal>
0.0000

> <Gold.Chemscore.Lipo>
63.1897

> <Gold.Chemscore.Internal_Hbond>
0.0000

> <Gold.Chemscore.DEClash>
1.8811

> <Gold.Chemscore.DEInternal>
2.9152

> <Gold.Chemscore.Rot>
1.4297

> <Gold.Chemscore.Internal.Correction>
   9.000000E+99

> <Gold.Chemscore.Hbonds>
donor molecule, donor type, donor heavy atom, donor atom, acceptor molecule, acceptor atom, score
      L1  H    10    31       P1  7948  0.94
      L1  H    13    32       P1  7948  0.87
      P1  H  7997  8008       L1    20  0.20

> <Gold.Chemscore.Hbond.Weighted>
-9.7024

> <Gold.Chemscore.Metal.Weighted>
-0.0000

> <Gold.Chemscore.Lipo.Weighted>
-7.3932

> <Gold.Chemscore.Internal_Hbond.Weighted>
0.0000

> <Gold.Chemscore.DEClash.Weighted>
1.8811

> <Gold.Chemscore.DEInternal.Weighted>
2.9152

> <Gold.Chemscore.Rot.Weighted>
3.6600

> <Gold.Chemscore.Internal.Correction.Weighted>
   9.000000E+99

> <Gold.Protein.RotatedTorsions>
[ 6907 6896 6895 6894 ] final   57.81 input  -60.11 | X-H torsion
[ 7974 7965 7964 7962 ] final  -58.25 input  175.53 | X-H torsion
[ 8008 7997 7996 7995 ] final  -53.21 input   59.86 | X-H torsion
[ 10167 10162 10161 10158 ] final -173.62 input  -65.29 | X-H torsion
[ 10718 10713 10712 10709 ] final -176.24 input   66.30 | X-H torsion
[ 10763 10752 10751 10750 ] final -102.28 input  -60.55 | X-H torsion
[ 11005 11000 10999 10996 ] final  100.95 input  -57.11 | X-H torsion

> <Gold.Protein.ActiveResidues>
 VAL166  LYS551  ARG553  GLY616  TRP617  ASP618  TYR619  PRO620  LYS621  CYS622 
 ASP623  PHE694  ASN695  SER759  ASP760  ASP761  ALA762  ILE779  LEU786  VAL792 
 PHE793  MET794  SER795  GLU796  ALA797  LYS798  CYS799  TRP800  GLU811  SER814 

> <Gold.Protein.RotatedAtoms>
  152.3766  134.6654  160.0157 H   0  0  0  0  0  0  0  0  0  0  0  0  # atno 6907 bound_to 6896
  151.6930  133.3305  159.3255 H   0  0  0  0  0  0  0  0  0  0  0  0  # atno 6908 bound_to 6896
  150.7714  134.6617  159.6388 H   0  0  0  0  0  0  0  0  0  0  0  0  # atno 6909 bound_to 6896
  145.8416  140.8413  143.0032 H   0  0  0  0  0  0  0  0  0  0  0  0  # atno 7974 bound_to 7965
  154.4127  140.1205  156.5117 H   0  0  0  0  0  0  0  0  0  0  0  0  # atno 8008 bound_to 7997
  155.6792  140.3496  155.4829 H   0  0  0  0  0  0  0  0  0  0  0  0  # atno 8009 bound_to 7997
  155.9566  140.1115  157.0921 H   0  0  0  0  0  0  0  0  0  0  0  0  # atno 8010 bound_to 7997
  139.5678  144.1713  152.1339 H   0  0  0  0  0  0  0  0  0  0  0  0  # atno 10167 bound_to 10162
  156.8117  130.9588  151.3115 H   0  0  0  0  0  0  0  0  0  0  0  0  # atno 10718 bound_to 10713
  154.7722  135.4866  153.9672 H   0  0  0  0  0  0  0  0  0  0  0  0  # atno 10763 bound_to 10752
  153.1382  135.6767  153.9076 H   0  0  0  0  0  0  0  0  0  0  0  0  # atno 10764 bound_to 10752
  153.8759  135.3138  155.3422 H   0  0  0  0  0  0  0  0  0  0  0  0  # atno 10765 bound_to 10752
  139.8772  134.9162  156.4833 H   0  0  0  0  0  0  0  0  0  0  0  0  # atno 11005 bound_to 11000
  144.6733  140.0820  143.7469 LP  0  0  0  0  0  0  0  0  0  0  0  0  # atno 17320 bound_to 7965
  145.9459  139.2700  143.1241 LP  0  0  0  0  0  0  0  0  0  0  0  0  # atno 17321 bound_to 7965
  140.1240  144.5348  150.6844 LP  0  0  0  0  0  0  0  0  0  0  0  0  # atno 17342 bound_to 10162
  140.6962  143.2405  151.4994 LP  0  0  0  0  0  0  0  0  0  0  0  0  # atno 17343 bound_to 10162
  157.6502  130.8878  149.9618 LP  0  0  0  0  0  0  0  0  0  0  0  0  # atno 17370 bound_to 10713
  156.1040  130.3654  150.0166 LP  0  0  0  0  0  0  0  0  0  0  0  0  # atno 17371 bound_to 10713
  140.8712  133.7987  155.9366 LP  0  0  0  0  0  0  0  0  0  0  0  0  # atno 17394 bound_to 11000
  140.8951  134.2447  157.5073 LP  0  0  0  0  0  0  0  0  0  0  0  0  # atno 17395 bound_to 11000

$$$$
