AV-unprocessed.smi:1508|AV-procd|sdf|6088|dock9
  -GOLD-   22720 6213D 1   1.00000     0.00000
 Structure written by MMmdl.
 37 38  0  0  0  0  0  0  0  0  3 V2000
  148.5440  140.1998  154.4717 C   0  0  0  0  0  0  0  0  0  0  0  0
  149.3312  138.8975  154.2574 C   0  0  0  0  0  0  0  0  0  0  0  0
  148.9878  137.7562  155.2533 C   0  0  2  0  0  0  0  0  0  0  0  0
  149.4971  138.0535  156.6902 C   0  0  0  0  0  0  0  0  0  0  0  0
  149.2019  136.9746  157.6276 N   0  0  0  0  0  0  0  0  0  0  0  0
  149.5024  136.9737  158.9340 C   0  0  0  0  0  0  0  0  0  0  0  0
  150.0576  137.9533  159.4370 O   0  0  0  0  0  0  0  0  0  0  0  0
  149.1500  135.8360  159.5725 N   0  5  0  0  0  0  0  0  0  0  0  0
  148.4927  135.9008  160.7422 C   0  0  0  0  0  0  0  0  0  0  0  0
  148.2623  137.0626  161.3746 N   0  0  0  0  0  0  0  0  0  0  0  0
  147.5667  136.9068  162.5659 N   0  0  0  0  0  0  0  0  0  0  0  0
  147.2810  135.6258  162.7979 C   0  0  0  0  0  0  0  0  0  0  0  0
  147.8341  134.4940  161.5817 S   0  0  0  0  0  0  0  0  0  0  0  0
  149.4699  136.4279  154.7741 N   0  3  0  0  0  0  0  0  0  0  0  0
  150.8761  136.1014  155.1243 C   0  0  0  0  0  0  0  0  0  0  0  0
  150.9346  134.5987  155.4314 C   0  0  0  0  0  0  0  0  0  0  0  0
  149.5736  134.0586  155.0086 C   0  0  0  0  0  0  0  0  0  0  0  0
  148.6558  135.2625  155.1832 C   0  0  0  0  0  0  0  0  0  0  0  0
  148.8670  140.9623  153.7630 H   0  0  0  0  0  0  0  0  0  0  0  0
  148.6922  140.6000  155.4746 H   0  0  0  0  0  0  0  0  0  0  0  0
  147.4748  140.0521  154.3218 H   0  0  0  0  0  0  0  0  0  0  0  0
  149.1594  138.5543  153.2370 H   0  0  0  0  0  0  0  0  0  0  0  0
  150.3980  139.1175  154.2907 H   0  0  0  0  0  0  0  0  0  0  0  0
  147.8992  137.6904  155.2915 H   0  0  0  0  0  0  0  0  0  0  0  0
  150.5730  138.2294  156.7062 H   0  0  0  0  0  0  0  0  0  0  0  0
  149.0429  138.9675  157.0727 H   0  0  0  0  0  0  0  0  0  0  0  0
  148.7425  136.1556  157.2565 H   0  0  0  0  0  0  0  0  0  0  0  0
  146.7391  135.3457  163.6887 H   0  0  0  0  0  0  0  0  0  0  0  0
  151.5255  136.3631  154.2885 H   0  0  0  0  0  0  0  0  0  0  0  0
  151.2144  136.6622  155.9971 H   0  0  0  0  0  0  0  0  0  0  0  0
  151.7570  134.0980  154.9199 H   0  0  0  0  0  0  0  0  0  0  0  0
  151.0721  134.4491  156.5032 H   0  0  0  0  0  0  0  0  0  0  0  0
  149.6011  133.7626  153.9590 H   0  0  0  0  0  0  0  0  0  0  0  0
  149.2583  133.1951  155.5952 H   0  0  0  0  0  0  0  0  0  0  0  0
  148.3725  135.3602  156.2328 H   0  0  0  0  0  0  0  0  0  0  0  0
  147.7459  135.1680  154.5901 H   0  0  0  0  0  0  0  0  0  0  0  0
  149.4316  136.4485  153.7650 H   0  0  0  0  0  0  0  0  0  0  0  0
  1  2  1  0  0  0  0
  1 19  1  0  0  0  0
  1 20  1  0  0  0  0
  1 21  1  0  0  0  0
  2  3  1  0  0  0  0
  2 22  1  0  0  0  0
  2 23  1  0  0  0  0
  3  4  1  0  0  0  0
  3 14  1  0  0  0  0
  3 24  1  0  0  0  0
  4  5  1  0  0  0  0
  4 25  1  0  0  0  0
  4 26  1  0  0  0  0
  5  6  1  0  0  0  0
  5 27  1  0  0  0  0
  6  7  2  0  0  0  0
  6  8  1  0  0  0  0
  8  9  1  0  0  0  0
  9 13  1  0  0  0  0
  9 10  2  0  0  0  0
 10 11  1  0  0  0  0
 11 12  2  0  0  0  0
 12 13  1  0  0  0  0
 12 28  1  0  0  0  0
 14 18  1  0  0  0  0
 14 15  1  0  0  0  0
 14 37  1  0  0  0  0
 15 16  1  0  0  0  0
 15 29  1  0  0  0  0
 15 30  1  0  0  0  0
 16 17  1  0  0  0  0
 16 31  1  0  0  0  0
 16 32  1  0  0  0  0
 17 18  1  0  0  0  0
 17 33  1  0  0  0  0
 17 34  1  0  0  0  0
 18 35  1  0  0  0  0
 18 36  1  0  0  0  0
M  CHG  1   8  -1
M  CHG  1  14   1
M  END
> <s_m_source_file>
AV-unprocessed.smi

> <i_m_source_file_index>
1508

> <i_lp_mmshare_version>
43012

> <i_f3d_flags>
0

> <s_epik_input>
W0NIMl0xW0NIMl1bQ0gyXVtDSDJdTjFbQ0BIXShbQ0gyXVtDSDNdKVtDSDJdW05IXUMoPU8pW05IXWMybm5bY0hdczI=

> <s_epik_cmdline>
J2VwaWtfcHl0aG9uJywgJy1waCcsICc3LjAnLCAnLXRuJywgJzgnLCAnLW1hJywgJzIwMCcsICctbWV0YWxfYmluZGluZycsICctaW1hZScsICc8aW5maWxlLm1hZT4nLCAnLW9tYWUnLCAnPG91dGZpbGUubWFlPic=

> <r_lp_tautomer_probability>
1

> <r_epik_Ionization_Penalty>
3.98086

> <r_epik_Ionization_Penalty_Charging>
3.94833

> <r_epik_Ionization_Penalty_Neutral>
0.032525

> <r_epik_State_Penalty>
3.94643

> <r_epik_Charging_Adjusted_Penalty>
7.89477

> <i_epik_Tot_Q>
0

> <i_epik_Tot_abs_Q>
2

> <r_epik_Metal_State_Penalty>
0.605555

> <b_epik_Metal_Only>
1

> <s_lp_Force_Field>
OPLS_2005

> <r_lp_Energy>
24.3568

> <b_lp_Chiralities_Consistent>
1

> <s_lp_Variant>
AV-unprocessed.smi:1508-3

> <Gold.Version>
5.8.1

> <Gold.Id.Protein>
6NUR|6NUR_protein|mol2

> <Gold.PLP.Fitness>
40.5525

> <Gold.PLP.PLP>
-28.2281

> <Gold.PLP.part.hbond>
-5.5014

> <Gold.PLP.part.metal>
0.0000

> <Gold.PLP.part.buried>
-5.6295

> <Gold.PLP.part.nonpolar>
-18.9650

> <Gold.PLP.part.repulsive>
0.0501

> <Gold.PLP.ligand.clash>
0.0000

> <Gold.PLP.ligand.torsion>
1.0910

> <Gold.PLP.Chemscore.Hbond>
4.8004

> <Gold.PLP.Chemscore.CHOScore>
0.0000

> <Gold.PLP.Chemscore.Metal>
0.0000

> <Gold.Chemscore.Hbonds>
donor molecule, donor type, donor heavy atom, donor atom, acceptor molecule, acceptor atom, score
      L1  H    14    37       P1  7948  2.00
      P1  H  6896  6908       L1     8  2.00
      P1  H  6931  6943       L1    10  0.62
      P1  H  6934  6947       L1    10  0.14

> <Gold.PLP.Chemscore.Internal.Correction>
0.1051

> <Gold.Rescore>
     Score         DG    S(hbond)    S(metal)    S(lipo)     H(rot)  DE(clash)    DE(int)     intcor
     10.38     -13.38       2.13        0.00      47.39       1.86       0.34       2.66       ----

> <Gold.Chemscore.Fitness>
10.3835

> <Gold.Chemscore.DG>
-13.3812

> <Gold.Chemscore.ZeroCoef>
-5.4800

> <Gold.Chemscore.Hbond>
2.1292

> <Gold.Chemscore.Metal>
0.0000

> <Gold.Chemscore.Lipo>
47.3911

> <Gold.Chemscore.Internal_Hbond>
0.0000

> <Gold.Chemscore.DEClash>
0.3398

> <Gold.Chemscore.DEInternal>
2.6580

> <Gold.Chemscore.Rot>
1.8575

> <Gold.Chemscore.Internal.Correction>
   9.000000E+99

> <Gold.Chemscore.Hbonds>
donor molecule, donor type, donor heavy atom, donor atom, acceptor molecule, acceptor atom, score
      L1  H    14    37       P1  7948  0.81
      P1  H  6896  6908       L1     8  0.57
      P1  H  6931  6943       L1    10  0.05
      P1  H  6934  6947       L1    10  0.01

> <Gold.Chemscore.Hbond.Weighted>
-7.1116

> <Gold.Chemscore.Metal.Weighted>
-0.0000

> <Gold.Chemscore.Lipo.Weighted>
-5.5448

> <Gold.Chemscore.Internal_Hbond.Weighted>
0.0000

> <Gold.Chemscore.DEClash.Weighted>
0.3398

> <Gold.Chemscore.DEInternal.Weighted>
2.6580

> <Gold.Chemscore.Rot.Weighted>
4.7551

> <Gold.Chemscore.Internal.Correction.Weighted>
   9.000000E+99

> <Gold.Protein.RotatedTorsions>
[ 6907 6896 6895 6894 ] final  174.25 input  -60.11 | X-H torsion
[ 7974 7965 7964 7962 ] final    6.05 input  175.53 | X-H torsion
[ 8008 7997 7996 7995 ] final  107.33 input   59.86 | X-H torsion
[ 10167 10162 10161 10158 ] final -100.86 input  -65.29 | X-H torsion
[ 10718 10713 10712 10709 ] final -152.55 input   66.30 | X-H torsion
[ 10763 10752 10751 10750 ] final   31.16 input  -60.55 | X-H torsion
[ 11005 11000 10999 10996 ] final  112.54 input  -57.11 | X-H torsion

> <Gold.Protein.ActiveResidues>
 VAL166  LYS551  ARG553  GLY616  TRP617  ASP618  TYR619  PRO620  LYS621  CYS622 
 ASP623  PHE694  ASN695  SER759  ASP760  ASP761  ALA762  ILE779  LEU786  VAL792 
 PHE793  MET794  SER795  GLU796  ALA797  LYS798  CYS799  TRP800  GLU811  SER814 

> <Gold.Protein.RotatedAtoms>
  151.7553  133.3330  159.3402 H   0  0  0  0  0  0  0  0  0  0  0  0  # atno 6907 bound_to 6896
  150.7519  134.6155  159.6118 H   0  0  0  0  0  0  0  0  0  0  0  0  # atno 6908 bound_to 6896
  152.3441  134.7096  160.0307 H   0  0  0  0  0  0  0  0  0  0  0  0  # atno 6909 bound_to 6896
  146.2437  140.0292  142.8391 H   0  0  0  0  0  0  0  0  0  0  0  0  # atno 7974 bound_to 7965
  156.1815  140.3097  155.9158 H   0  0  0  0  0  0  0  0  0  0  0  0  # atno 8008 bound_to 7997
  155.3373  140.0464  157.3061 H   0  0  0  0  0  0  0  0  0  0  0  0  # atno 8009 bound_to 7997
  154.5348  140.2242  155.8752 H   0  0  0  0  0  0  0  0  0  0  0  0  # atno 8010 bound_to 7997
  140.2475  143.3496  152.0745 H   0  0  0  0  0  0  0  0  0  0  0  0  # atno 10167 bound_to 10162
  156.4740  130.8272  151.2500 H   0  0  0  0  0  0  0  0  0  0  0  0  # atno 10718 bound_to 10713
  153.0331  135.6446  154.1156 H   0  0  0  0  0  0  0  0  0  0  0  0  # atno 10763 bound_to 10752
  154.0875  135.2869  155.3280 H   0  0  0  0  0  0  0  0  0  0  0  0  # atno 10764 bound_to 10752
  154.6488  135.5433  153.7940 H   0  0  0  0  0  0  0  0  0  0  0  0  # atno 10765 bound_to 10752
  139.8930  134.9532  156.6601 H   0  0  0  0  0  0  0  0  0  0  0  0  # atno 11005 bound_to 11000
  145.1170  140.9440  143.4622 LP  0  0  0  0  0  0  0  0  0  0  0  0  # atno 17320 bound_to 7965
  145.0519  139.3175  143.5924 LP  0  0  0  0  0  0  0  0  0  0  0  0  # atno 17321 bound_to 7965
  139.5057  144.6800  151.6033 LP  0  0  0  0  0  0  0  0  0  0  0  0  # atno 17342 bound_to 10162
  140.6066  143.9512  150.6423 LP  0  0  0  0  0  0  0  0  0  0  0  0  # atno 17343 bound_to 10162
  157.7489  131.0067  150.3161 LP  0  0  0  0  0  0  0  0  0  0  0  0  # atno 17370 bound_to 10713
  156.3589  130.3843  149.7267 LP  0  0  0  0  0  0  0  0  0  0  0  0  # atno 17371 bound_to 10713
  140.7453  133.8943  155.8307 LP  0  0  0  0  0  0  0  0  0  0  0  0  # atno 17394 bound_to 11000
  141.0044  134.1106  157.4285 LP  0  0  0  0  0  0  0  0  0  0  0  0  # atno 17395 bound_to 11000

$$$$
