AV-unprocessed.smi:1809|AV-procd|sdf|7309|dock1
  -GOLD-   22720 8563D 1   1.00000     0.00000
 Structure written by MMmdl.
 40 42  0  0  0  0  0  0  0  0  2 V2000
  151.6764  140.8793  157.0598 C   0  0  0  0  0  0  0  0  0  0  0  0
  151.1433  139.8808  156.0903 C   0  0  0  0  0  0  0  0  0  0  0  0
  150.8150  140.1988  154.8323 N   0  0  0  0  0  0  0  0  0  0  0  0
  150.3468  139.1048  154.1183 N   0  0  0  0  0  0  0  0  0  0  0  0
  150.3371  137.9898  154.8618 C   0  0  0  0  0  0  0  0  0  0  0  0
  149.9077  136.7247  154.3804 N   0  0  0  0  0  0  0  0  0  0  0  0
  150.0283  135.5245  154.9740 C   0  0  0  0  0  0  0  0  0  0  0  0
  150.5573  135.3188  156.0666 O   0  0  0  0  0  0  0  0  0  0  0  0
  149.4908  134.5525  154.2235 N   0  0  0  0  0  0  0  0  0  0  0  0
  149.4677  133.1388  154.5840 C   0  0  0  0  0  0  0  0  0  0  0  0
  148.7494  132.2839  153.5244 C   0  0  2  0  0  0  0  0  0  0  0  0
  147.6396  133.0805  152.8000 C   0  0  0  0  0  0  0  0  0  0  0  0
  146.9367  132.1624  151.8856 N   0  3  2  0  0  0  0  0  0  0  0  0
  145.8413  132.6989  151.0598 C   0  0  0  0  0  0  0  0  0  0  0  0
  144.9609  131.4762  150.7302 C   0  0  0  0  0  0  0  0  0  0  0  0
  145.5463  130.3081  151.5449 C   0  0  0  0  0  0  0  0  0  0  0  0
  146.3797  131.0164  152.6077 C   0  0  1  0  0  0  0  0  0  0  0  0
  147.5228  130.2404  153.2751 C   0  0  0  0  0  0  0  0  0  0  0  0
  148.1853  131.1361  154.1701 O   0  0  0  0  0  0  0  0  0  0  0  0
  150.9060  138.1887  156.5104 S   0  0  0  0  0  0  0  0  0  0  0  0
  151.2665  141.8682  156.8519 H   0  0  0  0  0  0  0  0  0  0  0  0
  152.7627  140.9261  156.9852 H   0  0  0  0  0  0  0  0  0  0  0  0
  151.4065  140.5978  158.0777 H   0  0  0  0  0  0  0  0  0  0  0  0
  149.4538  136.7367  153.4791 H   0  0  0  0  0  0  0  0  0  0  0  0
  149.0748  134.8047  153.3388 H   0  0  0  0  0  0  0  0  0  0  0  0
  150.4961  132.7976  154.7070 H   0  0  0  0  0  0  0  0  0  0  0  0
  148.9857  133.0223  155.5559 H   0  0  0  0  0  0  0  0  0  0  0  0
  149.4731  131.9437  152.7817 H   0  0  0  0  0  0  0  0  0  0  0  0
  146.9358  133.5059  153.5172 H   0  0  0  0  0  0  0  0  0  0  0  0
  148.0684  133.9070  152.2321 H   0  0  0  0  0  0  0  0  0  0  0  0
  145.2679  133.4323  151.6292 H   0  0  0  0  0  0  0  0  0  0  0  0
  146.2295  133.1890  150.1666 H   0  0  0  0  0  0  0  0  0  0  0  0
  143.9272  131.6706  151.0193 H   0  0  0  0  0  0  0  0  0  0  0  0
  144.9661  131.2494  149.6634 H   0  0  0  0  0  0  0  0  0  0  0  0
  144.7784  129.6617  151.9714 H   0  0  0  0  0  0  0  0  0  0  0  0
  146.1872  129.6960  150.9083 H   0  0  0  0  0  0  0  0  0  0  0  0
  145.7038  131.3870  153.3817 H   0  0  0  0  0  0  0  0  0  0  0  0
  147.1329  129.3925  153.8387 H   0  0  0  0  0  0  0  0  0  0  0  0
  148.2262  129.8479  152.5390 H   0  0  0  0  0  0  0  0  0  0  0  0
  147.6238  131.7907  151.2450 H   0  0  0  0  0  0  0  0  0  0  0  0
  1  2  1  0  0  0  0
  1 21  1  0  0  0  0
  1 22  1  0  0  0  0
  1 23  1  0  0  0  0
  2 20  1  0  0  0  0
  2  3  2  0  0  0  0
  3  4  1  0  0  0  0
  4  5  2  0  0  0  0
  5  6  1  0  0  0  0
  5 20  1  0  0  0  0
  6  7  1  0  0  0  0
  6 24  1  0  0  0  0
  7  8  2  0  0  0  0
  7  9  1  0  0  0  0
  9 10  1  0  0  0  0
  9 25  1  0  0  0  0
 10 11  1  0  0  0  0
 10 26  1  0  0  0  0
 10 27  1  0  0  0  0
 11 19  1  0  0  0  0
 11 12  1  0  0  0  0
 11 28  1  0  0  0  0
 12 13  1  0  0  0  0
 12 29  1  0  0  0  0
 12 30  1  0  0  0  0
 13 17  1  0  0  0  0
 13 14  1  0  0  0  0
 13 40  1  0  0  0  0
 14 15  1  0  0  0  0
 14 31  1  0  0  0  0
 14 32  1  0  0  0  0
 15 16  1  0  0  0  0
 15 33  1  0  0  0  0
 15 34  1  0  0  0  0
 16 17  1  0  0  0  0
 16 35  1  0  0  0  0
 16 36  1  0  0  0  0
 17 18  1  0  0  0  0
 17 37  1  0  0  0  0
 18 19  1  0  0  0  0
 18 38  1  0  0  0  0
 18 39  1  0  0  0  0
M  CHG  1  13   1
M  END
> <s_m_source_file>
AV-unprocessed.smi

> <i_m_source_file_index>
1809

> <i_lp_mmshare_version>
43012

> <i_f3d_flags>
0

> <s_epik_input>
W0NIM11jMW5uYyhzMSlbTkhdQyg9TylbTkhdW0NIMl1bQ0BIXShbQ0gyXTIpT1tDSDJdW0NAQEhdKE4yMylbQ0gyXVtDSDJdW0NIMl0z

> <s_epik_cmdline>
J2VwaWtfcHl0aG9uJywgJy1waCcsICc3LjAnLCAnLXRuJywgJzgnLCAnLW1hJywgJzIwMCcsICctbWV0YWxfYmluZGluZycsICctaW1hZScsICc8aW5maWxlLm1hZT4nLCAnLW9tYWUnLCAnPG91dGZpbGUubWFlPic=

> <r_lp_tautomer_probability>
1

> <r_epik_Ionization_Penalty>
0.112474

> <r_epik_Ionization_Penalty_Charging>
0.108916

> <r_epik_Ionization_Penalty_Neutral>
0.00355844

> <r_epik_State_Penalty>
0.0565397

> <r_epik_Charging_Adjusted_Penalty>
0.165456

> <i_epik_Tot_Q>
1

> <i_epik_Tot_abs_Q>
1

> <r_epik_Metal_State_Penalty>
0.422831

> <b_epik_Metal_Only>
0

> <s_lp_Force_Field>
OPLS_2005

> <r_lp_Energy>
33.7351

> <b_lp_Chiralities_Consistent>
1

> <s_lp_Variant>
AV-unprocessed.smi:1809-1

> <Gold.Version>
5.8.1

> <Gold.Id.Protein>
6NUR|6NUR_protein|mol2

> <Gold.PLP.Fitness>
44.1358

> <Gold.PLP.PLP>
-34.4119

> <Gold.PLP.part.hbond>
-4.8577

> <Gold.PLP.part.metal>
0.0000

> <Gold.PLP.part.buried>
-6.9404

> <Gold.PLP.part.nonpolar>
-24.3526

> <Gold.PLP.part.repulsive>
0.4397

> <Gold.PLP.ligand.clash>
0.0000

> <Gold.PLP.ligand.torsion>
0.3777

> <Gold.PLP.Chemscore.Hbond>
3.4924

> <Gold.PLP.Chemscore.CHOScore>
0.0000

> <Gold.PLP.Chemscore.Metal>
0.0000

> <Gold.Chemscore.Hbonds>
donor molecule, donor type, donor heavy atom, donor atom, acceptor molecule, acceptor atom, score
      L1  H     6    24       P1  7948  1.00
      L1  H     9    25       P1  7948  0.73
      L1  H    13    40       P1 10747  1.00
      P1  H  7989  7998       L1     3  0.70

> <Gold.PLP.Chemscore.Internal.Correction>
0.0021

> <Gold.Rescore>
     Score         DG    S(hbond)    S(metal)    S(lipo)     H(rot)  DE(clash)    DE(int)     intcor
     17.61     -19.63       2.64        0.00      74.80       1.34       0.34       1.69       ----

> <Gold.Chemscore.Fitness>
17.6108

> <Gold.Chemscore.DG>
-19.6343

> <Gold.Chemscore.ZeroCoef>
-5.4800

> <Gold.Chemscore.Hbond>
2.6439

> <Gold.Chemscore.Metal>
0.0000

> <Gold.Chemscore.Lipo>
74.8014

> <Gold.Chemscore.Internal_Hbond>
0.0000

> <Gold.Chemscore.DEClash>
0.3377

> <Gold.Chemscore.DEInternal>
1.6859

> <Gold.Chemscore.Rot>
1.3391

> <Gold.Chemscore.Internal.Correction>
   9.000000E+99

> <Gold.Chemscore.Hbonds>
donor molecule, donor type, donor heavy atom, donor atom, acceptor molecule, acceptor atom, score
      L1  H     6    24       P1  7948  0.85
      L1  H     9    25       P1  7948  0.10
      L1  H    13    40       P1 10747  1.00
      P1  H  7989  7998       L1     3  0.07

> <Gold.Chemscore.Hbond.Weighted>
-8.8307

> <Gold.Chemscore.Metal.Weighted>
-0.0000

> <Gold.Chemscore.Lipo.Weighted>
-8.7518

> <Gold.Chemscore.Internal_Hbond.Weighted>
0.0000

> <Gold.Chemscore.DEClash.Weighted>
0.3377

> <Gold.Chemscore.DEInternal.Weighted>
1.6859

> <Gold.Chemscore.Rot.Weighted>
3.4281

> <Gold.Chemscore.Internal.Correction.Weighted>
   9.000000E+99

> <Gold.Protein.RotatedTorsions>
[ 6907 6896 6895 6894 ] final  -29.95 input  -60.11 | X-H torsion
[ 7974 7965 7964 7962 ] final  167.45 input  175.53 | X-H torsion
[ 8008 7997 7996 7995 ] final  -41.01 input   59.86 | X-H torsion
[ 10167 10162 10161 10158 ] final -161.69 input  -65.29 | X-H torsion
[ 10718 10713 10712 10709 ] final   12.00 input   66.30 | X-H torsion
[ 10763 10752 10751 10750 ] final   70.31 input  -60.55 | X-H torsion
[ 11005 11000 10999 10996 ] final  136.89 input  -57.11 | X-H torsion

> <Gold.Protein.ActiveResidues>
 VAL166  LYS551  ARG553  GLY616  TRP617  ASP618  TYR619  PRO620  LYS621  CYS622 
 ASP623  PHE694  ASN695  SER759  ASP760  ASP761  ALA762  ILE779  LEU786  VAL792 
 PHE793  MET794  SER795  GLU796  ALA797  LYS798  CYS799  TRP800  GLU811  SER814 

> <Gold.Protein.RotatedAtoms>
  151.1122  135.0033  159.8499 H   0  0  0  0  0  0  0  0  0  0  0  0  # atno 6907 bound_to 6896
  152.5444  134.1822  159.8650 H   0  0  0  0  0  0  0  0  0  0  0  0  # atno 6908 bound_to 6896
  151.1873  133.4644  159.2627 H   0  0  0  0  0  0  0  0  0  0  0  0  # atno 6909 bound_to 6896
  144.7424  139.8763  143.6393 H   0  0  0  0  0  0  0  0  0  0  0  0  # atno 7974 bound_to 7965
  154.4007  140.1510  156.3120 H   0  0  0  0  0  0  0  0  0  0  0  0  # atno 8008 bound_to 7997
  155.8607  140.3453  155.5733 H   0  0  0  0  0  0  0  0  0  0  0  0  # atno 8009 bound_to 7997
  155.7883  140.0853  157.2013 H   0  0  0  0  0  0  0  0  0  0  0  0  # atno 8010 bound_to 7997
  139.6447  144.0195  152.2118 H   0  0  0  0  0  0  0  0  0  0  0  0  # atno 10167 bound_to 10162
  157.0037  130.6090  149.5699 H   0  0  0  0  0  0  0  0  0  0  0  0  # atno 10718 bound_to 10713
  153.0334  135.5178  154.7421 H   0  0  0  0  0  0  0  0  0  0  0  0  # atno 10763 bound_to 10752
  154.6417  135.2913  155.0097 H   0  0  0  0  0  0  0  0  0  0  0  0  # atno 10764 bound_to 10752
  154.1013  135.6636  153.4921 H   0  0  0  0  0  0  0  0  0  0  0  0  # atno 10765 bound_to 10752
  140.0076  134.9452  157.0209 H   0  0  0  0  0  0  0  0  0  0  0  0  # atno 11005 bound_to 11000
  146.1244  139.4267  143.0208 LP  0  0  0  0  0  0  0  0  0  0  0  0  # atno 17320 bound_to 7965
  145.7257  141.0060  143.1378 LP  0  0  0  0  0  0  0  0  0  0  0  0  # atno 17321 bound_to 7965
  139.9893  144.6373  150.7829 LP  0  0  0  0  0  0  0  0  0  0  0  0  # atno 17342 bound_to 10162
  140.7508  143.2962  151.3198 LP  0  0  0  0  0  0  0  0  0  0  0  0  # atno 17343 bound_to 10162
  156.0161  130.5255  150.8139 LP  0  0  0  0  0  0  0  0  0  0  0  0  # atno 17370 bound_to 10713
  157.5371  131.0939  150.9877 LP  0  0  0  0  0  0  0  0  0  0  0  0  # atno 17371 bound_to 10713
  140.4612  134.1482  155.7191 LP  0  0  0  0  0  0  0  0  0  0  0  0  # atno 17394 bound_to 11000
  141.1688  133.8650  157.1633 LP  0  0  0  0  0  0  0  0  0  0  0  0  # atno 17395 bound_to 11000

$$$$
