AV-unprocessed.smi:2226|AV-procd|sdf|9019|dock8
  -GOLD-   2272012223D 1   1.00000     0.00000
 Structure written by MMmdl.
 39 41  0  0  0  0  0  0  0  0  3 V2000
  145.8788  141.8696  154.7589 C   0  0  0  0  0  0  0  0  0  0  0  0
  145.9041  140.5703  154.0460 N   0  3  2  0  0  0  0  0  0  0  0  0
  145.6595  139.3845  154.9023 C   0  0  2  0  0  0  0  0  0  0  0  0
  146.8554  139.1172  155.8512 C   0  0  0  0  0  0  0  0  0  0  0  0
  148.2171  139.0442  155.1351 C   0  0  0  0  0  0  0  0  0  0  0  0
  148.3705  140.1298  154.0531 C   0  0  0  0  0  0  0  0  0  0  0  0
  147.0983  140.3483  153.1954 C   0  0  1  0  0  0  0  0  0  0  0  0
  146.7909  139.2128  152.1938 C   0  0  0  0  0  0  0  0  0  0  0  0
  146.2531  137.9101  152.8413 C   0  0  2  0  0  0  0  0  0  0  0  0
  145.5778  137.0934  151.8354 N   0  0  0  0  0  0  0  0  0  0  0  0
  145.5904  135.7541  151.7653 C   0  0  0  0  0  0  0  0  0  0  0  0
  146.2134  135.0997  152.6044 O   0  0  0  0  0  0  0  0  0  0  0  0
  144.8828  135.2598  150.7253 N   0  5  0  0  0  0  0  0  0  0  0  0
  144.8356  133.9336  150.5201 C   0  0  0  0  0  0  0  0  0  0  0  0
  143.7334  133.1899  150.4104 N   0  0  0  0  0  0  0  0  0  0  0  0
  144.1719  131.8897  150.2131 C   0  0  0  0  0  0  0  0  0  0  0  0
  145.5399  131.9030  150.2160 C   0  0  0  0  0  0  0  0  0  0  0  0
  145.9703  133.1859  150.4132 O   0  0  0  0  0  0  0  0  0  0  0  0
  145.2673  138.1918  154.0009 C   0  0  0  0  0  0  0  0  0  0  0  0
  146.6862  141.9592  155.4851 H   0  0  0  0  0  0  0  0  0  0  0  0
  144.9338  141.9934  155.2885 H   0  0  0  0  0  0  0  0  0  0  0  0
  145.9689  142.6932  154.0501 H   0  0  0  0  0  0  0  0  0  0  0  0
  144.7911  139.5974  155.5276 H   0  0  0  0  0  0  0  0  0  0  0  0
  146.8995  139.9138  156.5942 H   0  0  0  0  0  0  0  0  0  0  0  0
  146.6871  138.2015  156.4188 H   0  0  0  0  0  0  0  0  0  0  0  0
  149.0188  139.1450  155.8672 H   0  0  0  0  0  0  0  0  0  0  0  0
  148.3663  138.0575  154.7046 H   0  0  0  0  0  0  0  0  0  0  0  0
  148.6308  141.0688  154.5422 H   0  0  0  0  0  0  0  0  0  0  0  0
  149.2198  139.8928  153.4114 H   0  0  0  0  0  0  0  0  0  0  0  0
  147.2581  141.2494  152.6012 H   0  0  0  0  0  0  0  0  0  0  0  0
  146.0402  139.5871  151.4956 H   0  0  0  0  0  0  0  0  0  0  0  0
  147.6722  138.9971  151.5886 H   0  0  0  0  0  0  0  0  0  0  0  0
  147.0838  137.3239  153.2272 H   0  0  0  0  0  0  0  0  0  0  0  0
  145.0521  137.5837  151.1264 H   0  0  0  0  0  0  0  0  0  0  0  0
  143.4834  131.0674  150.0881 H   0  0  0  0  0  0  0  0  0  0  0  0
  146.3011  131.1460  150.1018 H   0  0  0  0  0  0  0  0  0  0  0  0
  145.1300  137.2917  154.6012 H   0  0  0  0  0  0  0  0  0  0  0  0
  144.2867  138.4147  153.5766 H   0  0  0  0  0  0  0  0  0  0  0  0
  145.1215  140.6117  153.4086 H   0  0  0  0  0  0  0  0  0  0  0  0
  1  2  1  0  0  0  0
  1 20  1  0  0  0  0
  1 21  1  0  0  0  0
  1 22  1  0  0  0  0
  2  7  1  0  0  0  0
  2  3  1  0  0  0  0
  2 39  1  0  0  0  0
  3 19  1  0  0  0  0
  3  4  1  0  0  0  0
  3 23  1  0  0  0  0
  4  5  1  0  0  0  0
  4 24  1  0  0  0  0
  4 25  1  0  0  0  0
  5  6  1  0  0  0  0
  5 26  1  0  0  0  0
  5 27  1  0  0  0  0
  6  7  1  0  0  0  0
  6 28  1  0  0  0  0
  6 29  1  0  0  0  0
  7  8  1  0  0  0  0
  7 30  1  0  0  0  0
  8  9  1  0  0  0  0
  8 31  1  0  0  0  0
  8 32  1  0  0  0  0
  9 10  1  0  0  0  0
  9 19  1  0  0  0  0
  9 33  1  0  0  0  0
 10 34  1  0  0  0  0
 10 11  1  0  0  0  0
 11 13  1  0  0  0  0
 11 12  2  0  0  0  0
 13 14  1  0  0  0  0
 14 18  1  0  0  0  0
 14 15  2  0  0  0  0
 15 16  1  0  0  0  0
 16 35  1  0  0  0  0
 16 17  2  0  0  0  0
 17 36  1  0  0  0  0
 17 18  1  0  0  0  0
 19 37  1  0  0  0  0
 19 38  1  0  0  0  0
M  CHG  1   2   1
M  CHG  1  13  -1
M  END
> <s_m_source_file>
AV-unprocessed.smi

> <i_m_source_file_index>
2226

> <i_lp_mmshare_version>
43012

> <i_f3d_flags>
0

> <s_epik_input>
W0NIMl0xW0NIMl1bQ0gyXVtDQEhdKE4oW0NIM10pW0NIXTEyKVtDSDJdW0NASF0oW0NIMl0yKVtOSF1DKD1PKVtOSF1jM25bY0hdW2NIXW8z

> <s_epik_cmdline>
J2VwaWtfcHl0aG9uJywgJy1waCcsICc3LjAnLCAnLXRuJywgJzgnLCAnLW1hJywgJzIwMCcsICctbWV0YWxfYmluZGluZycsICctaW1hZScsICc8aW5maWxlLm1hZT4nLCAnLW9tYWUnLCAnPG91dGZpbGUubWFlPic=

> <r_lp_tautomer_probability>
0.107061

> <r_epik_Ionization_Penalty>
10.5612

> <r_epik_Ionization_Penalty_Charging>
7.48913

> <r_epik_Ionization_Penalty_Neutral>
3.07202

> <r_epik_State_Penalty>
5.6431

> <r_epik_Charging_Adjusted_Penalty>
13.1322

> <i_epik_Tot_Q>
0

> <i_epik_Tot_abs_Q>
2

> <r_epik_Metal_State_Penalty>
1.58163

> <b_epik_Metal_Only>
1

> <s_lp_Force_Field>
OPLS_2005

> <r_lp_Energy>
24.9808

> <b_lp_Chiralities_Consistent>
1

> <s_lp_Variant>
AV-unprocessed.smi:2226-19

> <Gold.Version>
5.8.1

> <Gold.Id.Protein>
6NUR|6NUR_protein|mol2

> <Gold.PLP.Fitness>
36.0716

> <Gold.PLP.PLP>
-25.9584

> <Gold.PLP.part.hbond>
-1.9805

> <Gold.PLP.part.metal>
0.0000

> <Gold.PLP.part.buried>
-2.4121

> <Gold.PLP.part.nonpolar>
-23.3588

> <Gold.PLP.part.repulsive>
1.5297

> <Gold.PLP.ligand.clash>
0.0000

> <Gold.PLP.ligand.torsion>
0.8451

> <Gold.PLP.Chemscore.Hbond>
3.0000

> <Gold.PLP.Chemscore.CHOScore>
0.9321

> <Gold.PLP.Chemscore.Metal>
0.0000

> <Gold.Chemscore.Hbonds>
donor molecule, donor type, donor heavy atom, donor atom, acceptor molecule, acceptor atom, score
      L1  H     2    39       P1 10175  2.00
      L1  H    10    34       P1 10171  0.99
      L1  C    16    35       P1 10952  0.31
      L1  C    17    36       P1 10747  0.62

> <Gold.PLP.Chemscore.Internal.Correction>
0.0070

> <Gold.Rescore>
     Score         DG    S(hbond)    S(metal)    S(lipo)     H(rot)  DE(clash)    DE(int)     intcor
     13.17     -17.01       1.92        0.00      65.51       1.00       1.74       2.11       ----

> <Gold.Chemscore.Fitness>
13.1683

> <Gold.Chemscore.DG>
-17.0143

> <Gold.Chemscore.ZeroCoef>
-5.4800

> <Gold.Chemscore.Hbond>
1.9250

> <Gold.Chemscore.Metal>
0.0000

> <Gold.Chemscore.Lipo>
65.5119

> <Gold.Chemscore.Internal_Hbond>
0.0000

> <Gold.Chemscore.DEClash>
1.7395

> <Gold.Chemscore.DEInternal>
2.1065

> <Gold.Chemscore.Rot>
1.0000

> <Gold.Chemscore.Internal.Correction>
   9.000000E+99

> <Gold.Chemscore.Hbonds>
donor molecule, donor type, donor heavy atom, donor atom, acceptor molecule, acceptor atom, score
      L1  H     2    39       P1 10175  0.96
      L1  H    10    34       P1 10171  0.92

> <Gold.Chemscore.Hbond.Weighted>
-6.4294

> <Gold.Chemscore.Metal.Weighted>
-0.0000

> <Gold.Chemscore.Lipo.Weighted>
-7.6649

> <Gold.Chemscore.Internal_Hbond.Weighted>
0.0000

> <Gold.Chemscore.DEClash.Weighted>
1.7395

> <Gold.Chemscore.DEInternal.Weighted>
2.1065

> <Gold.Chemscore.Rot.Weighted>
2.5600

> <Gold.Chemscore.Internal.Correction.Weighted>
   9.000000E+99

> <Gold.Protein.RotatedTorsions>
[ 6907 6896 6895 6894 ] final  132.19 input  -60.11 | X-H torsion
[ 7974 7965 7964 7962 ] final -141.78 input  175.53 | X-H torsion
[ 8008 7997 7996 7995 ] final  104.89 input   59.86 | X-H torsion
[ 10167 10162 10161 10158 ] final  -69.20 input  -65.29 | X-H torsion
[ 10718 10713 10712 10709 ] final   90.27 input   66.30 | X-H torsion
[ 10763 10752 10751 10750 ] final   85.43 input  -60.55 | X-H torsion
[ 11005 11000 10999 10996 ] final  -97.24 input  -57.11 | X-H torsion

> <Gold.Protein.ActiveResidues>
 VAL166  LYS551  ARG553  GLY616  TRP617  ASP618  TYR619  PRO620  LYS621  CYS622 
 ASP623  PHE694  ASN695  SER759  ASP760  ASP761  ALA762  ILE779  LEU786  VAL792 
 PHE793  MET794  SER795  GLU796  ALA797  LYS798  CYS799  TRP800  GLU811  SER814 

> <Gold.Protein.RotatedAtoms>
  152.3349  133.6001  159.5835 H   0  0  0  0  0  0  0  0  0  0  0  0  # atno 6907 bound_to 6896
  150.7445  133.9811  159.3585 H   0  0  0  0  0  0  0  0  0  0  0  0  # atno 6908 bound_to 6896
  151.7681  135.0794  160.0407 H   0  0  0  0  0  0  0  0  0  0  0  0  # atno 6909 bound_to 6896
  144.8493  140.6039  143.5400 H   0  0  0  0  0  0  0  0  0  0  0  0  # atno 7974 bound_to 7965
  156.1612  140.3140  155.8810 H   0  0  0  0  0  0  0  0  0  0  0  0  # atno 8008 bound_to 7997
  155.3778  140.0486  157.3061 H   0  0  0  0  0  0  0  0  0  0  0  0  # atno 8009 bound_to 7997
  154.5148  140.2177  155.9097 H   0  0  0  0  0  0  0  0  0  0  0  0  # atno 8010 bound_to 7997
  140.5449  143.2313  151.7020 H   0  0  0  0  0  0  0  0  0  0  0  0  # atno 10167 bound_to 10162
  157.6958  131.0364  150.3551 H   0  0  0  0  0  0  0  0  0  0  0  0  # atno 10718 bound_to 10713
  153.1474  135.4617  154.9586 H   0  0  0  0  0  0  0  0  0  0  0  0  # atno 10763 bound_to 10752
  154.7797  135.3184  154.8019 H   0  0  0  0  0  0  0  0  0  0  0  0  # atno 10764 bound_to 10752
  153.8530  135.6919  153.4844 H   0  0  0  0  0  0  0  0  0  0  0  0  # atno 10765 bound_to 10752
  141.1385  133.8156  157.0679 H   0  0  0  0  0  0  0  0  0  0  0  0  # atno 11005 bound_to 11000
  145.4532  139.1521  143.3907 LP  0  0  0  0  0  0  0  0  0  0  0  0  # atno 17320 bound_to 7965
  146.2771  140.4658  142.8791 LP  0  0  0  0  0  0  0  0  0  0  0  0  # atno 17321 bound_to 7965
  139.5003  144.3910  152.0279 LP  0  0  0  0  0  0  0  0  0  0  0  0  # atno 17342 bound_to 10162
  140.3022  144.3633  150.6057 LP  0  0  0  0  0  0  0  0  0  0  0  0  # atno 17343 bound_to 10162
  156.3995  130.3913  149.6970 LP  0  0  0  0  0  0  0  0  0  0  0  0  # atno 17370 bound_to 10713
  156.4293  130.7807  151.2826 LP  0  0  0  0  0  0  0  0  0  0  0  0  # atno 17371 bound_to 10713
  140.0530  134.9795  157.1170 LP  0  0  0  0  0  0  0  0  0  0  0  0  # atno 17394 bound_to 11000
  140.3962  134.2132  155.7164 LP  0  0  0  0  0  0  0  0  0  0  0  0  # atno 17395 bound_to 11000

$$$$
