AV-unprocessed.smi:1990|AV-procd|sdf|8061|dock1
  -GOLD-   2272010263D 1   1.00000     0.00000
 Structure written by MMmdl.
 46 47  0  0  0  0  0  0  0  0  1 V2000
  150.8630  144.6529  159.9643 C   0  0  0  0  0  0  0  0  0  0  0  0
  152.0399  144.2886  159.0420 C   0  0  2  0  0  0  0  0  0  0  0  0
  151.6028  143.6074  157.7297 C   0  0  0  0  0  0  0  0  0  0  0  0
  151.2248  142.2161  157.9595 N   0  0  0  0  0  0  0  0  0  0  0  0
  150.5511  141.5900  156.8896 C   0  0  0  0  0  0  0  0  0  0  0  0
  150.1618  142.3454  155.7590 C   0  0  0  0  0  0  0  0  0  0  0  0
  149.4886  141.7060  154.7002 C   0  0  0  0  0  0  0  0  0  0  0  0
  149.2277  140.3188  154.7933 C   0  0  0  0  0  0  0  0  0  0  0  0
  148.5394  139.5565  153.8110 N   0  0  0  0  0  0  0  0  0  0  0  0
  147.6384  138.5699  153.9771 C   0  0  0  0  0  0  0  0  0  0  0  0
  147.2019  138.1992  155.0662 O   0  0  0  0  0  0  0  0  0  0  0  0
  147.1284  137.9159  152.6852 C   0  0  2  0  0  0  0  0  0  0  0  0
  146.5811  138.9540  151.6913 C   0  0  0  0  0  0  0  0  0  0  0  0
  145.8152  136.6681  153.0817 S   0  0  0  0  0  0  0  0  0  0  0  0
  145.3689  135.9866  151.4288 C   0  0  0  0  0  0  0  0  0  0  0  0
  146.4109  135.5825  153.8759 O   0  0  0  0  0  0  0  0  0  0  0  0
  144.6477  137.3901  153.6102 O   0  0  0  0  0  0  0  0  0  0  0  0
  149.6428  139.6552  155.9650 C   0  0  0  0  0  0  0  0  0  0  0  0
  150.2846  140.2646  156.9830 N   0  0  0  0  0  0  0  0  0  0  0  0
  152.2484  141.4522  158.6668 C   0  0  0  0  0  0  0  0  0  0  0  0
  152.6254  142.1537  159.9833 C   0  0  1  0  0  0  0  0  0  0  0  0
  153.7841  141.4474  160.6950 C   0  0  0  0  0  0  0  0  0  0  0  0
  153.0244  143.4963  159.7104 O   0  0  0  0  0  0  0  0  0  0  0  0
  150.1980  145.3662  159.4769 H   0  0  0  0  0  0  0  0  0  0  0  0
  151.2197  145.1115  160.8867 H   0  0  0  0  0  0  0  0  0  0  0  0
  150.2620  143.7841  160.2322 H   0  0  0  0  0  0  0  0  0  0  0  0
  152.5331  145.2247  158.7789 H   0  0  0  0  0  0  0  0  0  0  0  0
  150.7947  144.1797  157.2756 H   0  0  0  0  0  0  0  0  0  0  0  0
  152.4303  143.6202  157.0190 H   0  0  0  0  0  0  0  0  0  0  0  0
  150.3542  143.4068  155.7019 H   0  0  0  0  0  0  0  0  0  0  0  0
  149.1750  142.2968  153.8542 H   0  0  0  0  0  0  0  0  0  0  0  0
  148.7391  139.8127  152.8551 H   0  0  0  0  0  0  0  0  0  0  0  0
  147.9474  137.3781  152.2064 H   0  0  0  0  0  0  0  0  0  0  0  0
  147.3236  139.7210  151.4690 H   0  0  0  0  0  0  0  0  0  0  0  0
  145.6908  139.4505  152.0797 H   0  0  0  0  0  0  0  0  0  0  0  0
  146.3066  138.4809  150.7482 H   0  0  0  0  0  0  0  0  0  0  0  0
  144.5232  135.3078  151.5374 H   0  0  0  0  0  0  0  0  0  0  0  0
  146.2122  135.4364  151.0124 H   0  0  0  0  0  0  0  0  0  0  0  0
  145.0935  136.8001  150.7582 H   0  0  0  0  0  0  0  0  0  0  0  0
  149.4538  138.5993  156.0928 H   0  0  0  0  0  0  0  0  0  0  0  0
  151.8850  140.4470  158.8841 H   0  0  0  0  0  0  0  0  0  0  0  0
  153.1266  141.3514  158.0277 H   0  0  0  0  0  0  0  0  0  0  0  0
  151.7675  142.1548  160.6559 H   0  0  0  0  0  0  0  0  0  0  0  0
  153.5247  140.4168  160.9380 H   0  0  0  0  0  0  0  0  0  0  0  0
  154.0368  141.9548  161.6260 H   0  0  0  0  0  0  0  0  0  0  0  0
  154.6785  141.4292  160.0718 H   0  0  0  0  0  0  0  0  0  0  0  0
  1  2  1  0  0  0  0
  1 24  1  0  0  0  0
  1 25  1  0  0  0  0
  1 26  1  0  0  0  0
  2 23  1  0  0  0  0
  2  3  1  0  0  0  0
  2 27  1  0  0  0  0
  3  4  1  0  0  0  0
  3 28  1  0  0  0  0
  3 29  1  0  0  0  0
  4  5  1  0  0  0  0
  4 20  1  0  0  0  0
  5 19  1  0  0  0  0
  5  6  2  0  0  0  0
  6  7  1  0  0  0  0
  6 30  1  0  0  0  0
  7  8  2  0  0  0  0
  7 31  1  0  0  0  0
  8  9  1  0  0  0  0
  8 18  1  0  0  0  0
  9 10  1  0  0  0  0
  9 32  1  0  0  0  0
 10 11  2  0  0  0  0
 10 12  1  0  0  0  0
 12 13  1  0  0  0  0
 12 14  1  0  0  0  0
 12 33  1  0  0  0  0
 13 34  1  0  0  0  0
 13 35  1  0  0  0  0
 13 36  1  0  0  0  0
 14 15  1  0  0  0  0
 14 16  2  0  0  0  0
 14 17  2  0  0  0  0
 15 37  1  0  0  0  0
 15 38  1  0  0  0  0
 15 39  1  0  0  0  0
 18 19  2  0  0  0  0
 18 40  1  0  0  0  0
 20 21  1  0  0  0  0
 20 41  1  0  0  0  0
 20 42  1  0  0  0  0
 21 22  1  0  0  0  0
 21 23  1  0  0  0  0
 21 43  1  0  0  0  0
 22 44  1  0  0  0  0
 22 45  1  0  0  0  0
 22 46  1  0  0  0  0
M  END
> <s_m_source_file>
AV-unprocessed.smi

> <i_m_source_file_index>
1990

> <i_lp_mmshare_version>
43012

> <i_f3d_flags>
0

> <s_epik_input>
W0NIM11bQ0BASF0xW0NIMl1OKFtDSDJdW0NASF0oTzEpW0NIM10pYzJbY0hdW2NIXWMoW2NIXW4yKVtOSF1DKD1PKVtDQEhdKFtDSDNdKVMoPU8pKD1PKVtDSDNd

> <s_epik_cmdline>
J2VwaWtfcHl0aG9uJywgJy1waCcsICc3LjAnLCAnLXRuJywgJzgnLCAnLW1hJywgJzIwMCcsICctbWV0YWxfYmluZGluZycsICctaW1hZScsICc8aW5maWxlLm1hZT4nLCAnLW9tYWUnLCAnPG91dGZpbGUubWFlPic=

> <r_lp_tautomer_probability>
1

> <r_epik_Ionization_Penalty>
0.000334888

> <r_epik_Ionization_Penalty_Charging>
0

> <r_epik_Ionization_Penalty_Neutral>
0.000334888

> <r_epik_State_Penalty>
0.000200905

> <r_epik_Charging_Adjusted_Penalty>
0.000200905

> <i_epik_Tot_Q>
0

> <i_epik_Tot_abs_Q>
0

> <r_epik_Metal_State_Penalty>
-0

> <b_epik_Metal_Only>
0

> <s_lp_Force_Field>
OPLS_2005

> <r_lp_Energy>
21.5885

> <b_lp_Chiralities_Consistent>
1

> <s_lp_Variant>
AV-unprocessed.smi:1990-1

> <Gold.Version>
5.8.1

> <Gold.Id.Protein>
6NUR|6NUR_protein|mol2

> <Gold.PLP.Fitness>
38.1256

> <Gold.PLP.PLP>
-36.2954

> <Gold.PLP.part.hbond>
-1.0000

> <Gold.PLP.part.metal>
0.0000

> <Gold.PLP.part.buried>
3.2669

> <Gold.PLP.part.nonpolar>
-38.8111

> <Gold.PLP.part.repulsive>
0.3986

> <Gold.PLP.ligand.clash>
0.0647

> <Gold.PLP.ligand.torsion>
0.7920

> <Gold.PLP.Chemscore.Hbond>
1.0000

> <Gold.PLP.Chemscore.CHOScore>
0.0000

> <Gold.PLP.Chemscore.Metal>
0.0000

> <Gold.Chemscore.Hbonds>
donor molecule, donor type, donor heavy atom, donor atom, acceptor molecule, acceptor atom, score
      L1  H     9    32       P1  7957  1.00

> <Gold.PLP.Chemscore.Internal.Correction>
0.4788

> <Gold.Rescore>
     Score         DG    S(hbond)    S(metal)    S(lipo)     H(rot)  DE(clash)    DE(int)     intcor
     12.05     -18.21       0.95        0.00     114.94       1.52       2.45       3.71       ----

> <Gold.Chemscore.Fitness>
12.0509

> <Gold.Chemscore.DG>
-18.2062

> <Gold.Chemscore.ZeroCoef>
-5.4800

> <Gold.Chemscore.Hbond>
0.9471

> <Gold.Chemscore.Metal>
0.0000

> <Gold.Chemscore.Lipo>
114.9427

> <Gold.Chemscore.Internal_Hbond>
0.0000

> <Gold.Chemscore.DEClash>
2.4452

> <Gold.Chemscore.DEInternal>
3.7100

> <Gold.Chemscore.Rot>
1.5177

> <Gold.Chemscore.Internal.Correction>
   9.000000E+99

> <Gold.Chemscore.Hbonds>
donor molecule, donor type, donor heavy atom, donor atom, acceptor molecule, acceptor atom, score
      L1  H     9    32       P1  7957  1.00

> <Gold.Chemscore.Hbond.Weighted>
-3.1632

> <Gold.Chemscore.Metal.Weighted>
-0.0000

> <Gold.Chemscore.Lipo.Weighted>
-13.4483

> <Gold.Chemscore.Internal_Hbond.Weighted>
0.0000

> <Gold.Chemscore.DEClash.Weighted>
2.4452

> <Gold.Chemscore.DEInternal.Weighted>
3.7100

> <Gold.Chemscore.Rot.Weighted>
3.8853

> <Gold.Chemscore.Internal.Correction.Weighted>
   9.000000E+99

> <Gold.Protein.RotatedTorsions>
[ 6907 6896 6895 6894 ] final   88.16 input  -60.11 | X-H torsion
[ 7974 7965 7964 7962 ] final  -29.53 input  175.53 | X-H torsion
[ 8008 7997 7996 7995 ] final  107.86 input   59.86 | X-H torsion
[ 10167 10162 10161 10158 ] final   56.18 input  -65.29 | X-H torsion
[ 10718 10713 10712 10709 ] final   38.80 input   66.30 | X-H torsion
[ 10763 10752 10751 10750 ] final  174.12 input  -60.55 | X-H torsion
[ 11005 11000 10999 10996 ] final  -82.97 input  -57.11 | X-H torsion

> <Gold.Protein.ActiveResidues>
 VAL166  LYS551  ARG553  GLY616  TRP617  ASP618  TYR619  PRO620  LYS621  CYS622 
 ASP623  PHE694  ASN695  SER759  ASP760  ASP761  ALA762  ILE779  LEU786  VAL792 
 PHE793  MET794  SER795  GLU796  ALA797  LYS798  CYS799  TRP800  GLU811  SER814 

> <Gold.Protein.RotatedAtoms>
  152.5421  134.2164  159.8769 H   0  0  0  0  0  0  0  0  0  0  0  0  # atno 6907 bound_to 6896
  151.2143  133.4531  159.2606 H   0  0  0  0  0  0  0  0  0  0  0  0  # atno 6908 bound_to 6896
  151.0866  134.9904  159.8438 H   0  0  0  0  0  0  0  0  0  0  0  0  # atno 6909 bound_to 6896
  146.1209  140.5424  142.8735 H   0  0  0  0  0  0  0  0  0  0  0  0  # atno 7974 bound_to 7965
  156.1857  140.3087  155.9234 H   0  0  0  0  0  0  0  0  0  0  0  0  # atno 8008 bound_to 7997
  155.3285  140.0459  157.3059 H   0  0  0  0  0  0  0  0  0  0  0  0  # atno 8009 bound_to 7997
  154.5393  140.2256  155.8678 H   0  0  0  0  0  0  0  0  0  0  0  0  # atno 8010 bound_to 7997
  140.2115  144.3884  150.6487 H   0  0  0  0  0  0  0  0  0  0  0  0  # atno 10167 bound_to 10162
  157.3631  130.7660  149.7063 H   0  0  0  0  0  0  0  0  0  0  0  0  # atno 10718 bound_to 10713
  154.4495  135.2764  155.1791 H   0  0  0  0  0  0  0  0  0  0  0  0  # atno 10763 bound_to 10752
  154.3624  135.6126  153.5701 H   0  0  0  0  0  0  0  0  0  0  0  0  # atno 10764 bound_to 10752
  152.9846  135.5837  154.4837 H   0  0  0  0  0  0  0  0  0  0  0  0  # atno 10765 bound_to 10752
  141.1660  133.7271  156.8651 H   0  0  0  0  0  0  0  0  0  0  0  0  # atno 11005 bound_to 11000
  144.7597  140.5391  143.6744 LP  0  0  0  0  0  0  0  0  0  0  0  0  # atno 17320 bound_to 7965
  145.5467  139.1476  143.3417 LP  0  0  0  0  0  0  0  0  0  0  0  0  # atno 17321 bound_to 7965
  140.6320  143.2189  151.6476 LP  0  0  0  0  0  0  0  0  0  0  0  0  # atno 17342 bound_to 10162
  139.5178  144.3304  152.0831 LP  0  0  0  0  0  0  0  0  0  0  0  0  # atno 17343 bound_to 10162
  155.9741  130.4108  150.3949 LP  0  0  0  0  0  0  0  0  0  0  0  0  # atno 17370 bound_to 10713
  157.2029  131.0442  151.2641 LP  0  0  0  0  0  0  0  0  0  0  0  0  # atno 17371 bound_to 10713
  140.1821  134.9026  157.2961 LP  0  0  0  0  0  0  0  0  0  0  0  0  # atno 17394 bound_to 11000
  140.2383  134.3826  155.7491 LP  0  0  0  0  0  0  0  0  0  0  0  0  # atno 17395 bound_to 11000

$$$$
