AV-unprocessed.smi:817|AV-procd|sdf|3831|dock6
  -GOLD-   22720 1273D 1   1.00000     0.00000
 Structure written by MMmdl.
 48 49  0  0  0  0  0  0  0  0  2 V2000
  146.8519  133.0129  149.7364 C   0  0  0  0  0  0  0  0  0  0  0  0
  146.4858  132.5507  151.1538 C   0  0  1  0  0  0  0  0  0  0  0  0
  146.4405  131.0144  151.2459 C   0  0  0  0  0  0  0  0  0  0  0  0
  146.1375  130.5389  152.6742 C   0  0  0  0  0  0  0  0  0  0  0  0
  147.1251  131.1526  153.6830 C   0  0  0  0  0  0  0  0  0  0  0  0
  147.1142  132.7115  153.6654 C   0  0  2  0  0  0  0  0  0  0  0  0
  148.1990  133.2590  154.6432 C   0  0  0  0  0  0  0  0  0  0  0  0
  148.6890  134.5889  154.2750 N   0  0  0  0  0  0  0  0  0  0  0  0
  149.1136  135.5643  155.0963 C   0  0  0  0  0  0  0  0  0  0  0  0
  149.1075  135.4127  156.3154 O   0  0  0  0  0  0  0  0  0  0  0  0
  149.5073  136.6856  154.4605 N   0  0  0  0  0  0  0  0  0  0  0  0
  150.0079  137.8947  155.0151 C   0  0  0  0  0  0  0  0  0  0  0  0
  150.4067  138.0515  156.3649 C   0  0  0  0  0  0  0  0  0  0  0  0
  150.9012  139.3010  156.7863 C   0  0  0  0  0  0  0  0  0  0  0  0
  150.9876  140.3439  155.8439 C   0  0  0  0  0  0  0  0  0  0  0  0
  150.6245  140.2046  154.5515 N   0  0  0  0  0  0  0  0  0  0  0  0
  150.1508  139.0042  154.1550 C   0  0  0  0  0  0  0  0  0  0  0  0
  145.7486  133.2338  154.0487 N   0  3  0  0  0  0  0  0  0  0  0  0
  145.1963  132.7304  155.3344 C   0  0  0  0  0  0  0  0  0  0  0  0
  145.5652  134.7065  153.9518 C   0  0  0  0  0  0  0  0  0  0  0  0
  147.4674  133.1216  152.2017 C   0  0  0  0  0  0  0  0  0  0  0  0
  147.8474  132.6704  149.4522 H   0  0  0  0  0  0  0  0  0  0  0  0
  146.8405  134.1007  149.6627 H   0  0  0  0  0  0  0  0  0  0  0  0
  146.1450  132.6265  149.0016 H   0  0  0  0  0  0  0  0  0  0  0  0
  145.4865  132.9316  151.3663 H   0  0  0  0  0  0  0  0  0  0  0  0
  145.6901  130.6193  150.5602 H   0  0  0  0  0  0  0  0  0  0  0  0
  147.3974  130.5994  150.9255 H   0  0  0  0  0  0  0  0  0  0  0  0
  145.1125  130.7970  152.9420 H   0  0  0  0  0  0  0  0  0  0  0  0
  146.1961  129.4509  152.7164 H   0  0  0  0  0  0  0  0  0  0  0  0
  146.9434  130.7567  154.6811 H   0  0  0  0  0  0  0  0  0  0  0  0
  148.1197  130.7875  153.4243 H   0  0  0  0  0  0  0  0  0  0  0  0
  147.8028  133.3191  155.6569 H   0  0  0  0  0  0  0  0  0  0  0  0
  149.0584  132.5890  154.6743 H   0  0  0  0  0  0  0  0  0  0  0  0
  148.6983  134.7987  153.2869 H   0  0  0  0  0  0  0  0  0  0  0  0
  149.3821  136.6917  153.4590 H   0  0  0  0  0  0  0  0  0  0  0  0
  150.3574  137.2439  157.0783 H   0  0  0  0  0  0  0  0  0  0  0  0
  151.2119  139.4548  157.8091 H   0  0  0  0  0  0  0  0  0  0  0  0
  151.3634  141.3137  156.1349 H   0  0  0  0  0  0  0  0  0  0  0  0
  149.8723  138.9294  153.1139 H   0  0  0  0  0  0  0  0  0  0  0  0
  145.7769  133.0738  156.1901 H   0  0  0  0  0  0  0  0  0  0  0  0
  145.1320  131.6447  155.3684 H   0  0  0  0  0  0  0  0  0  0  0  0
  144.1766  133.0920  155.4714 H   0  0  0  0  0  0  0  0  0  0  0  0
  146.2103  135.2450  154.6452 H   0  0  0  0  0  0  0  0  0  0  0  0
  144.5363  134.9750  154.1935 H   0  0  0  0  0  0  0  0  0  0  0  0
  145.7402  135.0838  152.9462 H   0  0  0  0  0  0  0  0  0  0  0  0
  148.4629  132.7547  151.9486 H   0  0  0  0  0  0  0  0  0  0  0  0
  147.5473  134.2035  152.1017 H   0  0  0  0  0  0  0  0  0  0  0  0
  145.1317  132.8558  153.3435 H   0  0  0  0  0  0  0  0  0  0  0  0
  1  2  1  0  0  0  0
  1 22  1  0  0  0  0
  1 23  1  0  0  0  0
  1 24  1  0  0  0  0
  2 21  1  0  0  0  0
  2  3  1  0  0  0  0
  2 25  1  0  0  0  0
  3  4  1  0  0  0  0
  3 26  1  0  0  0  0
  3 27  1  0  0  0  0
  4  5  1  0  0  0  0
  4 28  1  0  0  0  0
  4 29  1  0  0  0  0
  5  6  1  0  0  0  0
  5 30  1  0  0  0  0
  5 31  1  0  0  0  0
  6  7  1  0  0  0  0
  6 18  1  0  0  0  0
  6 21  1  0  0  0  0
  7  8  1  0  0  0  0
  7 32  1  0  0  0  0
  7 33  1  0  0  0  0
  8  9  1  0  0  0  0
  8 34  1  0  0  0  0
  9 10  2  0  0  0  0
  9 11  1  0  0  0  0
 11 12  1  0  0  0  0
 11 35  1  0  0  0  0
 12 17  1  0  0  0  0
 12 13  2  0  0  0  0
 13 14  1  0  0  0  0
 13 36  1  0  0  0  0
 14 15  2  0  0  0  0
 14 37  1  0  0  0  0
 15 16  1  0  0  0  0
 15 38  1  0  0  0  0
 16 17  2  0  0  0  0
 17 39  1  0  0  0  0
 18 19  1  0  0  0  0
 18 20  1  0  0  0  0
 18 48  1  0  0  0  0
 19 40  1  0  0  0  0
 19 41  1  0  0  0  0
 19 42  1  0  0  0  0
 20 43  1  0  0  0  0
 20 44  1  0  0  0  0
 20 45  1  0  0  0  0
 21 46  1  0  0  0  0
 21 47  1  0  0  0  0
M  CHG  1  18   1
M  END
> <s_m_source_file>
AV-unprocessed.smi

> <i_m_source_file_index>
817

> <i_lp_mmshare_version>
43012

> <i_f3d_flags>
0

> <s_epik_input>
W0NIM11bQ0BASF0oW0NIMl0xKVtDSDJdW0NIMl1bQ0gyXVtDQF0xKE4oW0NIM10pW0NIM10pW0NIMl1bTkhdQyg9TylbTkhdYzJbY0hdW2NIXVtjSF1uW2NIXTI=

> <s_epik_cmdline>
J2VwaWtfcHl0aG9uJywgJy1waCcsICc3LjAnLCAnLXRuJywgJzgnLCAnLW1hJywgJzIwMCcsICctbWV0YWxfYmluZGluZycsICctaW1hZScsICc8aW5maWxlLm1hZT4nLCAnLW9tYWUnLCAnPG91dGZpbGUubWFlPic=

> <r_lp_tautomer_probability>
1

> <r_epik_Ionization_Penalty>
0.00584939

> <r_epik_Ionization_Penalty_Charging>
0.00160539

> <r_epik_Ionization_Penalty_Neutral>
0.004244

> <r_epik_State_Penalty>
-0

> <r_epik_Charging_Adjusted_Penalty>
0.00160539

> <i_epik_Tot_Q>
1

> <i_epik_Tot_abs_Q>
1

> <r_epik_Metal_State_Penalty>
-0

> <b_epik_Metal_Only>
0

> <s_lp_Force_Field>
OPLS_2005

> <r_lp_Energy>
44.0482

> <b_lp_Chiralities_Consistent>
1

> <s_lp_Variant>
AV-unprocessed.smi:817-4

> <Gold.Version>
5.8.1

> <Gold.Id.Protein>
6NUR|6NUR_protein|mol2

> <Gold.PLP.Fitness>
44.6345

> <Gold.PLP.PLP>
-34.6549

> <Gold.PLP.part.hbond>
-4.0000

> <Gold.PLP.part.metal>
0.0000

> <Gold.PLP.part.buried>
-1.5904

> <Gold.PLP.part.nonpolar>
-28.4374

> <Gold.PLP.part.repulsive>
0.2171

> <Gold.PLP.ligand.clash>
0.0000

> <Gold.PLP.ligand.torsion>
0.6707

> <Gold.PLP.Chemscore.Hbond>
2.7344

> <Gold.PLP.Chemscore.CHOScore>
0.9990

> <Gold.PLP.Chemscore.Metal>
0.0000

> <Gold.Chemscore.Hbonds>
donor molecule, donor type, donor heavy atom, donor atom, acceptor molecule, acceptor atom, score
      L1  H     8    34       P1  7948  0.94
      L1  H    11    35       P1  7948  1.00
      P1  H  7989  7998       L1    16  1.00
      L1  C    17    39       P1  7957  1.00

> <Gold.PLP.Chemscore.Internal.Correction>
0.1207

> <Gold.Rescore>
     Score         DG    S(hbond)    S(metal)    S(lipo)     H(rot)  DE(clash)    DE(int)     intcor
     15.28     -17.04       1.81        0.00      78.58       1.44       0.02       1.74       ----

> <Gold.Chemscore.Fitness>
15.2822

> <Gold.Chemscore.DG>
-17.0378

> <Gold.Chemscore.ZeroCoef>
-5.4800

> <Gold.Chemscore.Hbond>
1.8119

> <Gold.Chemscore.Metal>
0.0000

> <Gold.Chemscore.Lipo>
78.5795

> <Gold.Chemscore.Internal_Hbond>
0.0000

> <Gold.Chemscore.DEClash>
0.0202

> <Gold.Chemscore.DEInternal>
1.7354

> <Gold.Chemscore.Rot>
1.4405

> <Gold.Chemscore.Internal.Correction>
   9.000000E+99

> <Gold.Chemscore.Hbonds>
donor molecule, donor type, donor heavy atom, donor atom, acceptor molecule, acceptor atom, score
      L1  H     8    34       P1  7948  0.35
      L1  H    11    35       P1  7948  0.90
      P1  H  7989  7998       L1    16  0.76

> <Gold.Chemscore.Hbond.Weighted>
-6.0518

> <Gold.Chemscore.Metal.Weighted>
-0.0000

> <Gold.Chemscore.Lipo.Weighted>
-9.1938

> <Gold.Chemscore.Internal_Hbond.Weighted>
0.0000

> <Gold.Chemscore.DEClash.Weighted>
0.0202

> <Gold.Chemscore.DEInternal.Weighted>
1.7354

> <Gold.Chemscore.Rot.Weighted>
3.6878

> <Gold.Chemscore.Internal.Correction.Weighted>
   9.000000E+99

> <Gold.Protein.RotatedTorsions>
[ 6907 6896 6895 6894 ] final   98.93 input  -60.11 | X-H torsion
[ 7974 7965 7964 7962 ] final   87.48 input  175.53 | X-H torsion
[ 8008 7997 7996 7995 ] final  161.99 input   59.86 | X-H torsion
[ 10167 10162 10161 10158 ] final   67.45 input  -65.29 | X-H torsion
[ 10718 10713 10712 10709 ] final    8.70 input   66.30 | X-H torsion
[ 10763 10752 10751 10750 ] final   46.03 input  -60.55 | X-H torsion
[ 11005 11000 10999 10996 ] final  -94.79 input  -57.11 | X-H torsion

> <Gold.Protein.ActiveResidues>
 VAL166  LYS551  ARG553  GLY616  TRP617  ASP618  TYR619  PRO620  LYS621  CYS622 
 ASP623  PHE694  ASN695  SER759  ASP760  ASP761  ALA762  ILE779  LEU786  VAL792 
 PHE793  MET794  SER795  GLU796  ALA797  LYS798  CYS799  TRP800  GLU811  SER814 

> <Gold.Protein.RotatedAtoms>
  152.5401  134.0506  159.8107 H   0  0  0  0  0  0  0  0  0  0  0  0  # atno 6907 bound_to 6896
  151.0648  133.5506  159.2639 H   0  0  0  0  0  0  0  0  0  0  0  0  # atno 6908 bound_to 6896
  151.2391  135.0590  159.9072 H   0  0  0  0  0  0  0  0  0  0  0  0  # atno 6909 bound_to 6896
  145.5584  139.2301  143.2473 H   0  0  0  0  0  0  0  0  0  0  0  0  # atno 7974 bound_to 7965
  156.2064  140.1762  156.7791 H   0  0  0  0  0  0  0  0  0  0  0  0  # atno 8008 bound_to 7997
  154.5661  140.0691  156.8923 H   0  0  0  0  0  0  0  0  0  0  0  0  # atno 8009 bound_to 7997
  155.2759  140.3345  155.4264 H   0  0  0  0  0  0  0  0  0  0  0  0  # atno 8010 bound_to 7997
  140.0894  144.5002  150.7109 H   0  0  0  0  0  0  0  0  0  0  0  0  # atno 10167 bound_to 10162
  156.9555  130.5913  149.5659 H   0  0  0  0  0  0  0  0  0  0  0  0  # atno 10718 bound_to 10713
  152.9816  135.6021  154.3532 H   0  0  0  0  0  0  0  0  0  0  0  0  # atno 10763 bound_to 10752
  154.3220  135.2769  155.2516 H   0  0  0  0  0  0  0  0  0  0  0  0  # atno 10764 bound_to 10752
  154.4679  135.5949  153.6356 H   0  0  0  0  0  0  0  0  0  0  0  0  # atno 10765 bound_to 10752
  141.1460  133.7981  157.0346 H   0  0  0  0  0  0  0  0  0  0  0  0  # atno 11005 bound_to 11000
  146.1868  140.6409  142.9164 LP  0  0  0  0  0  0  0  0  0  0  0  0  # atno 17320 bound_to 7965
  144.7495  140.5154  143.6812 LP  0  0  0  0  0  0  0  0  0  0  0  0  # atno 17321 bound_to 7965
  140.7037  143.2452  151.4791 LP  0  0  0  0  0  0  0  0  0  0  0  0  # atno 17342 bound_to 10162
  139.5734  144.1876  152.1868 LP  0  0  0  0  0  0  0  0  0  0  0  0  # atno 17343 bound_to 10162
  156.0344  130.5433  150.8617 LP  0  0  0  0  0  0  0  0  0  0  0  0  # atno 17370 bound_to 10713
  157.5693  131.0946  150.9442 LP  0  0  0  0  0  0  0  0  0  0  0  0  # atno 17371 bound_to 10713
  140.0732  134.9691  157.1501 LP  0  0  0  0  0  0  0  0  0  0  0  0  # atno 17394 bound_to 11000
  140.3682  134.2420  155.7180 LP  0  0  0  0  0  0  0  0  0  0  0  0  # atno 17395 bound_to 11000

$$$$
