AV-unprocessed.smi:2710|AV-procd|sdf|10466|dock6
  -GOLD-   2272014503D 1   1.00000     0.00000
 Structure written by MMmdl.
 53 54  0  0  0  0  0  0  0  0  2 V2000
  147.4306  140.9566  153.3987 C   0  0  0  0  0  0  0  0  0  0  0  0
  148.2491  139.6548  153.4134 C   0  0  0  0  0  0  0  0  0  0  0  0
  147.4725  138.4613  152.9673 N   0  3  2  0  0  0  0  0  0  0  0  0
  146.7040  138.7385  151.7200 C   0  0  0  0  0  0  0  0  0  0  0  0
  146.0148  137.4794  151.1739 C   0  0  0  0  0  0  0  0  0  0  0  0
  145.0851  136.8429  152.2178 C   0  0  2  0  0  0  0  0  0  0  0  0
  143.9016  137.6629  152.4778 N   0  0  0  0  0  0  0  0  0  0  0  0
  142.8017  137.2497  153.1238 C   0  0  0  0  0  0  0  0  0  0  0  0
  142.6647  136.1072  153.5584 O   0  0  0  0  0  0  0  0  0  0  0  0
  141.8976  138.2393  153.2228 N   0  0  0  0  0  0  0  0  0  0  0  0
  140.6088  138.2213  153.8239 C   0  0  0  0  0  0  0  0  0  0  0  0
  139.4453  138.8449  153.3107 C   0  0  0  0  0  0  0  0  0  0  0  0
  138.2611  138.7739  153.9546 N   0  0  0  0  0  0  0  0  0  0  0  0
  138.2200  138.1178  155.1212 C   0  0  0  0  0  0  0  0  0  0  0  0
  136.8373  137.9213  155.7674 C   0  0  0  0  0  0  0  0  0  0  0  0
  136.1927  139.2800  156.1300 C   0  0  0  0  0  0  0  0  0  0  0  0
  136.9829  137.0652  157.0390 C   0  0  0  0  0  0  0  0  0  0  0  0
  135.8583  137.2323  154.7876 C   0  0  0  0  0  0  0  0  0  0  0  0
  139.2500  137.4594  155.6686 N   0  0  0  0  0  0  0  0  0  0  0  0
  140.4404  137.5230  155.0367 C   0  0  0  0  0  0  0  0  0  0  0  0
  145.8753  136.6028  153.5115 C   0  0  0  0  0  0  0  0  0  0  0  0
  146.5948  137.8702  154.0308 C   0  0  1  0  0  0  0  0  0  0  0  0
  147.3589  137.5042  155.3205 C   0  0  0  0  0  0  0  0  0  0  0  0
  148.0802  141.8145  153.5737 H   0  0  0  0  0  0  0  0  0  0  0  0
  146.6674  140.9788  154.1757 H   0  0  0  0  0  0  0  0  0  0  0  0
  146.9427  141.1068  152.4353 H   0  0  0  0  0  0  0  0  0  0  0  0
  149.0915  139.8318  152.7491 H   0  0  0  0  0  0  0  0  0  0  0  0
  148.6680  139.4783  154.4050 H   0  0  0  0  0  0  0  0  0  0  0  0
  145.9669  139.5197  151.9120 H   0  0  0  0  0  0  0  0  0  0  0  0
  147.3603  139.1162  150.9382 H   0  0  0  0  0  0  0  0  0  0  0  0
  145.4642  137.7193  150.2636 H   0  0  0  0  0  0  0  0  0  0  0  0
  146.7761  136.7553  150.8810 H   0  0  0  0  0  0  0  0  0  0  0  0
  144.7463  135.8744  151.8446 H   0  0  0  0  0  0  0  0  0  0  0  0
  143.9304  138.6207  152.1603 H   0  0  0  0  0  0  0  0  0  0  0  0
  142.1663  139.1239  152.8176 H   0  0  0  0  0  0  0  0  0  0  0  0
  139.4287  139.4009  152.3875 H   0  0  0  0  0  0  0  0  0  0  0  0
  135.1918  139.1470  156.5424 H   0  0  0  0  0  0  0  0  0  0  0  0
  136.1031  139.9235  155.2539 H   0  0  0  0  0  0  0  0  0  0  0  0
  136.7718  139.8204  156.8796 H   0  0  0  0  0  0  0  0  0  0  0  0
  137.6405  137.5446  157.7650 H   0  0  0  0  0  0  0  0  0  0  0  0
  137.4049  136.0859  156.8102 H   0  0  0  0  0  0  0  0  0  0  0  0
  136.0194  136.9035  157.5232 H   0  0  0  0  0  0  0  0  0  0  0  0
  134.8641  137.1311  155.2243 H   0  0  0  0  0  0  0  0  0  0  0  0
  136.1871  136.2275  154.5204 H   0  0  0  0  0  0  0  0  0  0  0  0
  135.7536  137.8025  153.8638 H   0  0  0  0  0  0  0  0  0  0  0  0
  141.2651  137.0043  155.5033 H   0  0  0  0  0  0  0  0  0  0  0  0
  145.2060  136.2077  154.2773 H   0  0  0  0  0  0  0  0  0  0  0  0
  146.6154  135.8218  153.3306 H   0  0  0  0  0  0  0  0  0  0  0  0
  145.8391  138.6131  154.2912 H   0  0  0  0  0  0  0  0  0  0  0  0
  146.7265  136.9289  155.9976 H   0  0  0  0  0  0  0  0  0  0  0  0
  147.6737  138.3835  155.8813 H   0  0  0  0  0  0  0  0  0  0  0  0
  148.2404  136.8994  155.1048 H   0  0  0  0  0  0  0  0  0  0  0  0
  148.1533  137.7510  152.7377 H   0  0  0  0  0  0  0  0  0  0  0  0
  1  2  1  0  0  0  0
  1 24  1  0  0  0  0
  1 25  1  0  0  0  0
  1 26  1  0  0  0  0
  2  3  1  0  0  0  0
  2 27  1  0  0  0  0
  2 28  1  0  0  0  0
  3 22  1  0  0  0  0
  3  4  1  0  0  0  0
  3 53  1  0  0  0  0
  4  5  1  0  0  0  0
  4 29  1  0  0  0  0
  4 30  1  0  0  0  0
  5  6  1  0  0  0  0
  5 31  1  0  0  0  0
  5 32  1  0  0  0  0
  6  7  1  0  0  0  0
  6 21  1  0  0  0  0
  6 33  1  0  0  0  0
  7  8  1  0  0  0  0
  7 34  1  0  0  0  0
  8  9  2  0  0  0  0
  8 10  1  0  0  0  0
 10 11  1  0  0  0  0
 10 35  1  0  0  0  0
 11 20  1  0  0  0  0
 11 12  2  0  0  0  0
 12 13  1  0  0  0  0
 12 36  1  0  0  0  0
 13 14  2  0  0  0  0
 14 15  1  0  0  0  0
 14 19  1  0  0  0  0
 15 16  1  0  0  0  0
 15 17  1  0  0  0  0
 15 18  1  0  0  0  0
 16 37  1  0  0  0  0
 16 38  1  0  0  0  0
 16 39  1  0  0  0  0
 17 40  1  0  0  0  0
 17 41  1  0  0  0  0
 17 42  1  0  0  0  0
 18 43  1  0  0  0  0
 18 44  1  0  0  0  0
 18 45  1  0  0  0  0
 19 20  2  0  0  0  0
 20 46  1  0  0  0  0
 21 22  1  0  0  0  0
 21 47  1  0  0  0  0
 21 48  1  0  0  0  0
 22 23  1  0  0  0  0
 22 49  1  0  0  0  0
 23 50  1  0  0  0  0
 23 51  1  0  0  0  0
 23 52  1  0  0  0  0
M  CHG  1   3   1
M  END
> <s_m_source_file>
AV-unprocessed.smi

> <i_m_source_file_index>
2710

> <i_lp_mmshare_version>
43012

> <i_f3d_flags>
0

> <s_epik_input>
W0NIM11bQ0gyXU4xW0NIMl1bQ0gyXVtDQEhdKFtDSDJdW0NASF0xW0NIM10pW05IXUMoPU8pW05IXWMyW2NIXW5jKEMoW0NIM10pKFtDSDNdKVtDSDNdKW5bY0hdMg==

> <s_epik_cmdline>
J2VwaWtfcHl0aG9uJywgJy1waCcsICc3LjAnLCAnLXRuJywgJzgnLCAnLW1hJywgJzIwMCcsICctbWV0YWxfYmluZGluZycsICctaW1hZScsICc8aW5maWxlLm1hZT4nLCAnLW9tYWUnLCAnPG91dGZpbGUubWFlPic=

> <r_lp_tautomer_probability>
1

> <r_epik_Ionization_Penalty>
0.00396003

> <r_epik_Ionization_Penalty_Charging>
0.0039379

> <r_epik_Ionization_Penalty_Neutral>
2.21316e-05

> <r_epik_State_Penalty>
0.00281651

> <r_epik_Charging_Adjusted_Penalty>
0.00675441

> <i_epik_Tot_Q>
1

> <i_epik_Tot_abs_Q>
1

> <r_epik_Metal_State_Penalty>
-0

> <b_epik_Metal_Only>
0

> <s_lp_Force_Field>
OPLS_2005

> <r_lp_Energy>
19.072

> <b_lp_Chiralities_Consistent>
1

> <s_lp_Variant>
AV-unprocessed.smi:2710-3

> <Gold.Version>
5.8.1

> <Gold.Id.Protein>
6NUR|6NUR_protein|mol2

> <Gold.PLP.Fitness>
45.8870

> <Gold.PLP.PLP>
-32.0732

> <Gold.PLP.part.hbond>
-4.0000

> <Gold.PLP.part.metal>
0.0000

> <Gold.PLP.part.buried>
0.8504

> <Gold.PLP.part.nonpolar>
-29.7575

> <Gold.PLP.part.repulsive>
0.2973

> <Gold.PLP.ligand.clash>
0.0000

> <Gold.PLP.ligand.torsion>
0.6707

> <Gold.PLP.Chemscore.Hbond>
4.0000

> <Gold.PLP.Chemscore.CHOScore>
1.0000

> <Gold.PLP.Chemscore.Metal>
0.0000

> <Gold.Chemscore.Hbonds>
donor molecule, donor type, donor heavy atom, donor atom, acceptor molecule, acceptor atom, score
      L1  H     3    53       P1  7948  2.00
      L1  H     7    34       P1 10175  1.00
      L1  H    10    35       P1 10175  0.98
      L1  C    12    36       P1 10160  1.00

> <Gold.PLP.Chemscore.Internal.Correction>
0.1552

> <Gold.Rescore>
     Score         DG    S(hbond)    S(metal)    S(lipo)     H(rot)  DE(clash)    DE(int)     intcor
     17.06     -22.30       2.93        0.00      88.77       1.31       3.46       1.77       ----

> <Gold.Chemscore.Fitness>
17.0621

> <Gold.Chemscore.DG>
-22.2986

> <Gold.Chemscore.ZeroCoef>
-5.4800

> <Gold.Chemscore.Hbond>
2.9285

> <Gold.Chemscore.Metal>
0.0000

> <Gold.Chemscore.Lipo>
88.7724

> <Gold.Chemscore.Internal_Hbond>
0.0000

> <Gold.Chemscore.DEClash>
3.4616

> <Gold.Chemscore.DEInternal>
1.7749

> <Gold.Chemscore.Rot>
1.3081

> <Gold.Chemscore.Internal.Correction>
   9.000000E+99

> <Gold.Chemscore.Hbonds>
donor molecule, donor type, donor heavy atom, donor atom, acceptor molecule, acceptor atom, score
      L1  H     3    53       P1  7948  0.99
      L1  H     7    34       P1 10175  0.95
      L1  H    10    35       P1 10175  0.87

> <Gold.Chemscore.Hbond.Weighted>
-9.7811

> <Gold.Chemscore.Metal.Weighted>
-0.0000

> <Gold.Chemscore.Lipo.Weighted>
-10.3864

> <Gold.Chemscore.Internal_Hbond.Weighted>
0.0000

> <Gold.Chemscore.DEClash.Weighted>
3.4616

> <Gold.Chemscore.DEInternal.Weighted>
1.7749

> <Gold.Chemscore.Rot.Weighted>
3.3488

> <Gold.Chemscore.Internal.Correction.Weighted>
   9.000000E+99

> <Gold.Protein.RotatedTorsions>
[ 6907 6896 6895 6894 ] final  157.35 input  -60.11 | X-H torsion
[ 7974 7965 7964 7962 ] final   93.50 input  175.53 | X-H torsion
[ 8008 7997 7996 7995 ] final -172.45 input   59.86 | X-H torsion
[ 10167 10162 10161 10158 ] final  118.35 input  -65.29 | X-H torsion
[ 10718 10713 10712 10709 ] final  103.60 input   66.30 | X-H torsion
[ 10763 10752 10751 10750 ] final -177.92 input  -60.55 | X-H torsion
[ 11005 11000 10999 10996 ] final  139.23 input  -57.11 | X-H torsion

> <Gold.Protein.ActiveResidues>
 VAL166  LYS551  ARG553  GLY616  TRP617  ASP618  TYR619  PRO620  LYS621  CYS622 
 ASP623  PHE694  ASN695  SER759  ASP760  ASP761  ALA762  ILE779  LEU786  VAL792 
 PHE793  MET794  SER795  GLU796  ALA797  LYS798  CYS799  TRP800  GLU811  SER814 

> <Gold.Protein.RotatedAtoms>
  152.0163  133.3881  159.4239 H   0  0  0  0  0  0  0  0  0  0  0  0  # atno 6907 bound_to 6896
  150.6894  134.3675  159.4986 H   0  0  0  0  0  0  0  0  0  0  0  0  # atno 6908 bound_to 6896
  152.1442  134.9038  160.0602 H   0  0  0  0  0  0  0  0  0  0  0  0  # atno 6909 bound_to 6896
  145.4780  139.2279  143.2898 H   0  0  0  0  0  0  0  0  0  0  0  0  # atno 7974 bound_to 7965
  155.9447  140.1115  157.1026 H   0  0  0  0  0  0  0  0  0  0  0  0  # atno 8008 bound_to 7997
  154.4096  140.1212  156.5040 H   0  0  0  0  0  0  0  0  0  0  0  0  # atno 8009 bound_to 7997
  155.6917  140.3472  155.4899 H   0  0  0  0  0  0  0  0  0  0  0  0  # atno 8010 bound_to 7997
  139.6117  144.7083  151.2829 H   0  0  0  0  0  0  0  0  0  0  0  0  # atno 10167 bound_to 10162
  157.6767  131.0783  150.5580 H   0  0  0  0  0  0  0  0  0  0  0  0  # atno 10718 bound_to 10713
  154.5541  135.2815  155.0981 H   0  0  0  0  0  0  0  0  0  0  0  0  # atno 10763 bound_to 10752
  154.2415  135.6356  153.5212 H   0  0  0  0  0  0  0  0  0  0  0  0  # atno 10764 bound_to 10752
  153.0011  135.5561  154.6116 H   0  0  0  0  0  0  0  0  0  0  0  0  # atno 10765 bound_to 10752
  140.0239  134.9383  157.0530 H   0  0  0  0  0  0  0  0  0  0  0  0  # atno 11005 bound_to 11000
  146.2357  140.5564  142.8956 LP  0  0  0  0  0  0  0  0  0  0  0  0  # atno 17320 bound_to 7965
  144.7905  140.6023  143.6544 LP  0  0  0  0  0  0  0  0  0  0  0  0  # atno 17321 bound_to 7965
  140.7324  143.6825  150.7989 LP  0  0  0  0  0  0  0  0  0  0  0  0  # atno 17342 bound_to 10162
  140.0421  143.5335  152.2713 LP  0  0  0  0  0  0  0  0  0  0  0  0  # atno 17343 bound_to 10162
  156.5883  130.4322  149.5947 LP  0  0  0  0  0  0  0  0  0  0  0  0  # atno 17370 bound_to 10713
  156.2604  130.6959  151.1726 LP  0  0  0  0  0  0  0  0  0  0  0  0  # atno 17371 bound_to 10713
  140.4339  134.1752  155.7169 LP  0  0  0  0  0  0  0  0  0  0  0  0  # atno 17394 bound_to 11000
  141.1791  133.8452  157.1320 LP  0  0  0  0  0  0  0  0  0  0  0  0  # atno 17395 bound_to 11000

$$$$
