AV-unprocessed.smi:3021|AV-procd|sdf|11498|dock10
  -GOLD-   2272016433D 1   1.00000     0.00000
 Structure written by MMmdl.
 35 37  0  0  0  0  0  0  0  0  1 V2000
  150.2912  140.0428  153.7745 O   0  0  0  0  0  0  0  0  0  0  0  0
  149.2977  140.6127  154.6045 C   0  0  2  0  0  0  0  0  0  0  0  0
  148.1573  141.1232  153.7107 C   0  0  0  0  0  0  0  0  0  0  0  0
  147.1432  141.6690  154.5375 O   0  0  0  0  0  0  0  0  0  0  0  0
  146.3704  142.6629  153.8831 C   0  0  0  0  0  0  0  0  0  0  0  0
  145.2905  143.0999  154.8221 C   0  0  0  0  0  0  0  0  0  0  0  0
  144.2796  144.0146  154.7129 C   0  0  0  0  0  0  0  0  0  0  0  0
  143.5684  143.9802  155.9443 C   0  0  0  0  0  0  0  0  0  0  0  0
  144.1968  143.0451  156.7158 C   0  0  0  0  0  0  0  0  0  0  0  0
  145.2476  142.4980  156.0470 O   0  0  0  0  0  0  0  0  0  0  0  0
  149.9303  141.7431  155.4396 C   0  0  0  0  0  0  0  0  0  0  0  0
  150.9072  141.2469  156.3934 N   0  0  0  0  0  0  0  0  0  0  0  0
  151.6757  140.1708  156.0624 N   0  0  0  0  0  0  0  0  0  0  0  0
  152.4760  139.9104  157.0526 N   0  0  0  0  0  0  0  0  0  0  0  0
  152.2322  140.8347  158.0549 C   0  0  0  0  0  0  0  0  0  0  0  0
  152.8114  141.0155  159.3306 C   0  0  0  0  0  0  0  0  0  0  0  0
  152.3712  142.0598  160.1731 C   0  0  0  0  0  0  0  0  0  0  0  0
  153.1048  142.2492  161.7260 Cl  0  0  0  0  0  0  0  0  0  0  0  0
  151.3442  142.9366  159.7472 C   0  0  0  0  0  0  0  0  0  0  0  0
  150.7940  144.2195  160.7652 Cl  0  0  0  0  0  0  0  0  0  0  0  0
  150.7578  142.7680  158.4770 C   0  0  0  0  0  0  0  0  0  0  0  0
  151.2098  141.7221  157.6547 C   0  0  0  0  0  0  0  0  0  0  0  0
  149.9322  139.9457  152.9054 H   0  0  0  0  0  0  0  0  0  0  0  0
  148.9154  139.8447  155.2784 H   0  0  0  0  0  0  0  0  0  0  0  0
  148.5274  141.9136  153.0557 H   0  0  0  0  0  0  0  0  0  0  0  0
  147.7683  140.3282  153.0717 H   0  0  0  0  0  0  0  0  0  0  0  0
  146.9954  143.5140  153.6103 H   0  0  0  0  0  0  0  0  0  0  0  0
  145.9296  142.2625  152.9693 H   0  0  0  0  0  0  0  0  0  0  0  0
  144.0764  144.6332  153.8512 H   0  0  0  0  0  0  0  0  0  0  0  0
  142.7064  144.5648  156.2293 H   0  0  0  0  0  0  0  0  0  0  0  0
  144.0360  142.6635  157.7133 H   0  0  0  0  0  0  0  0  0  0  0  0
  150.4158  142.4734  154.7907 H   0  0  0  0  0  0  0  0  0  0  0  0
  149.1584  142.2833  155.9898 H   0  0  0  0  0  0  0  0  0  0  0  0
  153.5963  140.3510  159.6606 H   0  0  0  0  0  0  0  0  0  0  0  0
  149.9759  143.4318  158.1386 H   0  0  0  0  0  0  0  0  0  0  0  0
  1  2  1  0  0  0  0
  1 23  1  0  0  0  0
  2  3  1  0  0  0  0
  2 11  1  0  0  0  0
  2 24  1  0  0  0  0
  3  4  1  0  0  0  0
  3 25  1  0  0  0  0
  3 26  1  0  0  0  0
  4  5  1  0  0  0  0
  5  6  1  0  0  0  0
  5 27  1  0  0  0  0
  5 28  1  0  0  0  0
  6 10  1  0  0  0  0
  6  7  2  0  0  0  0
  7  8  1  0  0  0  0
  7 29  1  0  0  0  0
  8  9  2  0  0  0  0
  8 30  1  0  0  0  0
  9 10  1  0  0  0  0
  9 31  1  0  0  0  0
 11 12  1  0  0  0  0
 11 32  1  0  0  0  0
 11 33  1  0  0  0  0
 12 22  1  0  0  0  0
 12 13  1  0  0  0  0
 13 14  2  0  0  0  0
 14 15  1  0  0  0  0
 15 22  2  0  0  0  0
 15 16  1  0  0  0  0
 16 17  2  0  0  0  0
 16 34  1  0  0  0  0
 17 18  1  0  0  0  0
 17 19  1  0  0  0  0
 19 20  1  0  0  0  0
 19 21  2  0  0  0  0
 21 22  1  0  0  0  0
 21 35  1  0  0  0  0
M  END
> <s_m_source_file>
AV-unprocessed.smi

> <i_m_source_file_index>
3021

> <i_lp_mmshare_version>
43012

> <i_f3d_flags>
0

> <s_epik_input>
W2NIXTFjKENsKWMoQ2wpW2NIXWMoYzEyKW4obm4yKVtDSDJdW0NASF0oW09IXSlbQ0gyXU9bQ0gyXWMzW2NIXVtjSF1bY0hdbzM=

> <s_epik_cmdline>
J2VwaWtfcHl0aG9uJywgJy1waCcsICc3LjAnLCAnLXRuJywgJzgnLCAnLW1hJywgJzIwMCcsICctbWV0YWxfYmluZGluZycsICctaW1hZScsICc8aW5maWxlLm1hZT4nLCAnLW9tYWUnLCAnPG91dGZpbGUubWFlPic=

> <r_lp_tautomer_probability>
1

> <r_epik_Ionization_Penalty>
6.1367e-06

> <r_epik_Ionization_Penalty_Charging>
0

> <r_epik_Ionization_Penalty_Neutral>
6.1367e-06

> <r_epik_State_Penalty>
-0

> <r_epik_Charging_Adjusted_Penalty>
0

> <i_epik_Tot_Q>
0

> <i_epik_Tot_abs_Q>
0

> <r_epik_Metal_State_Penalty>
-0

> <b_epik_Metal_Only>
0

> <s_lp_Force_Field>
OPLS_2005

> <r_lp_Energy>
8.1305

> <b_lp_Chiralities_Consistent>
1

> <s_lp_Variant>
AV-unprocessed.smi:3021-1

> <Gold.Version>
5.8.1

> <Gold.Id.Protein>
6NUR|6NUR_protein|mol2

> <Gold.PLP.Fitness>
54.7167

> <Gold.PLP.PLP>
-46.8847

> <Gold.PLP.part.hbond>
-3.0000

> <Gold.PLP.part.metal>
0.0000

> <Gold.PLP.part.buried>
-6.7239

> <Gold.PLP.part.nonpolar>
-36.2133

> <Gold.PLP.part.repulsive>
0.2733

> <Gold.PLP.ligand.clash>
0.0000

> <Gold.PLP.ligand.torsion>
0.5378

> <Gold.PLP.Chemscore.Hbond>
2.9440

> <Gold.PLP.Chemscore.CHOScore>
0.0000

> <Gold.PLP.Chemscore.Metal>
0.0000

> <Gold.Chemscore.Hbonds>
donor molecule, donor type, donor heavy atom, donor atom, acceptor molecule, acceptor atom, score
      L1  H     1    23       P1  7957  1.00
      P1  H  7989  7998       L1     1  0.88
      P1  H  7997  8009       L1    14  1.00

> <Gold.PLP.Chemscore.Internal.Correction>
0.0756

> <Gold.Rescore>
     Score         DG    S(hbond)    S(metal)    S(lipo)     H(rot)  DE(clash)    DE(int)     intcor
     16.85     -19.29       1.80        0.00     120.62       2.46       0.28       2.16       ----

> <Gold.Chemscore.Fitness>
16.8527

> <Gold.Chemscore.DG>
-19.2932

> <Gold.Chemscore.ZeroCoef>
-5.4800

> <Gold.Chemscore.Hbond>
1.7994

> <Gold.Chemscore.Metal>
0.0000

> <Gold.Chemscore.Lipo>
120.6221

> <Gold.Chemscore.Internal_Hbond>
0.0000

> <Gold.Chemscore.DEClash>
0.2810

> <Gold.Chemscore.DEInternal>
2.1594

> <Gold.Chemscore.Rot>
2.4647

> <Gold.Chemscore.Internal.Correction>
   9.000000E+99

> <Gold.Chemscore.Hbonds>
donor molecule, donor type, donor heavy atom, donor atom, acceptor molecule, acceptor atom, score
      L1  H     1    23       P1  7957  1.00
      P1  H  7989  7998       L1     1  0.25
      P1  H  7997  8009       L1    14  0.47

> <Gold.Chemscore.Hbond.Weighted>
-6.0101

> <Gold.Chemscore.Metal.Weighted>
-0.0000

> <Gold.Chemscore.Lipo.Weighted>
-14.1128

> <Gold.Chemscore.Internal_Hbond.Weighted>
0.0000

> <Gold.Chemscore.DEClash.Weighted>
0.2810

> <Gold.Chemscore.DEInternal.Weighted>
2.1594

> <Gold.Chemscore.Rot.Weighted>
6.3097

> <Gold.Chemscore.Internal.Correction.Weighted>
   9.000000E+99

> <Gold.Protein.RotatedTorsions>
[ 6907 6896 6895 6894 ] final  114.79 input  -60.11 | X-H torsion
[ 7974 7965 7964 7962 ] final  156.65 input  175.53 | X-H torsion
[ 8008 7997 7996 7995 ] final -171.63 input   59.86 | X-H torsion
[ 10167 10162 10161 10158 ] final  -36.76 input  -65.29 | X-H torsion
[ 10718 10713 10712 10709 ] final  114.24 input   66.30 | X-H torsion
[ 10763 10752 10751 10750 ] final  171.60 input  -60.55 | X-H torsion
[ 11005 11000 10999 10996 ] final -148.33 input  -57.11 | X-H torsion

> <Gold.Protein.ActiveResidues>
 VAL166  LYS551  ARG553  GLY616  TRP617  ASP618  TYR619  PRO620  LYS621  CYS622 
 ASP623  PHE694  ASN695  SER759  ASP760  ASP761  ALA762  ILE779  LEU786  VAL792 
 PHE793  MET794  SER795  GLU796  ALA797  LYS798  CYS799  TRP800  GLU811  SER814 

> <Gold.Protein.RotatedAtoms>
  152.4781  133.8187  159.7041 H   0  0  0  0  0  0  0  0  0  0  0  0  # atno 6907 bound_to 6896
  150.8811  133.7361  159.2938 H   0  0  0  0  0  0  0  0  0  0  0  0  # atno 6908 bound_to 6896
  151.4865  135.1058  159.9844 H   0  0  0  0  0  0  0  0  0  0  0  0  # atno 6909 bound_to 6896
  144.7950  139.7233  143.6205 H   0  0  0  0  0  0  0  0  0  0  0  0  # atno 7974 bound_to 7965
  155.9341  140.1096  157.1108 H   0  0  0  0  0  0  0  0  0  0  0  0  # atno 8008 bound_to 7997
  154.4076  140.1232  156.4907 H   0  0  0  0  0  0  0  0  0  0  0  0  # atno 8009 bound_to 7997
  155.7043  140.3471  155.4949 H   0  0  0  0  0  0  0  0  0  0  0  0  # atno 8010 bound_to 7997
  140.7135  143.3387  151.2405 H   0  0  0  0  0  0  0  0  0  0  0  0  # atno 10167 bound_to 10162
  157.6292  131.0996  150.7158 H   0  0  0  0  0  0  0  0  0  0  0  0  # atno 10718 bound_to 10713
  154.4142  135.2756  155.2017 H   0  0  0  0  0  0  0  0  0  0  0  0  # atno 10763 bound_to 10752
  154.3991  135.6048  153.5890 H   0  0  0  0  0  0  0  0  0  0  0  0  # atno 10764 bound_to 10752
  152.9831  135.5922  154.4428 H   0  0  0  0  0  0  0  0  0  0  0  0  # atno 10765 bound_to 10752
  140.7623  134.3284  157.5098 H   0  0  0  0  0  0  0  0  0  0  0  0  # atno 11005 bound_to 11000
  146.2215  139.5645  142.9615 LP  0  0  0  0  0  0  0  0  0  0  0  0  # atno 17320 bound_to 7965
  145.5696  141.0395  143.2181 LP  0  0  0  0  0  0  0  0  0  0  0  0  # atno 17321 bound_to 7965
  139.6889  143.9727  152.2848 LP  0  0  0  0  0  0  0  0  0  0  0  0  # atno 17342 bound_to 10162
  139.9381  144.6699  150.8294 LP  0  0  0  0  0  0  0  0  0  0  0  0  # atno 17343 bound_to 10162
  156.7500  130.4766  149.5458 LP  0  0  0  0  0  0  0  0  0  0  0  0  # atno 17370 bound_to 10713
  156.1484  130.6293  151.0563 LP  0  0  0  0  0  0  0  0  0  0  0  0  # atno 17371 bound_to 10713
  139.8769  134.9210  156.3264 LP  0  0  0  0  0  0  0  0  0  0  0  0  # atno 17394 bound_to 11000
  140.9651  133.7363  156.0456 LP  0  0  0  0  0  0  0  0  0  0  0  0  # atno 17395 bound_to 11000

$$$$
