AV-unprocessed.smi:1247|AV-procd|sdf|5243|dock9
  -GOLD-   22720 4353D 1   1.00000     0.00000
 Structure written by MMmdl.
 46 47  0  0  0  0  0  0  0  0  1 V2000
  146.8085  130.0862  153.1680 C   0  0  0  0  0  0  0  0  0  0  0  0
  147.8167  131.1028  153.6166 C   0  0  0  0  0  0  0  0  0  0  0  0
  148.0174  132.4211  153.1139 C   0  0  0  0  0  0  0  0  0  0  0  0
  149.0514  132.8823  153.8820 C   0  0  0  0  0  0  0  0  0  0  0  0
  149.6676  134.0939  153.8485 N   0  0  0  0  0  0  0  0  0  0  0  0
  150.0360  134.8777  154.8771 C   0  0  0  0  0  0  0  0  0  0  0  0
  149.8593  134.6225  156.0685 O   0  0  0  0  0  0  0  0  0  0  0  0
  150.6319  135.9979  154.4435 N   0  0  0  0  0  0  0  0  0  0  0  0
  151.1458  137.0582  155.3025 C   0  0  0  0  0  0  0  0  0  0  0  0
  151.8103  138.1766  154.4777 C   0  0  0  0  0  0  0  0  0  0  0  0
  151.2578  139.5128  154.6932 N   0  0  0  0  0  0  0  0  0  0  0  0
  151.4253  139.9765  156.0684 C   0  0  0  0  0  0  0  0  0  0  0  0
  150.8166  141.3756  156.2842 C   0  0  2  0  0  0  0  0  0  0  0  0
  150.9119  141.8299  157.7445 C   0  0  0  0  0  0  0  0  0  0  0  0
  149.4413  141.3505  155.9122 O   0  0  0  0  0  0  0  0  0  0  0  0
  149.2310  140.9500  154.5611 C   0  0  2  0  0  0  0  0  0  0  0  0
  147.7248  140.9726  154.2803 C   0  0  0  0  0  0  0  0  0  0  0  0
  149.8402  139.5508  154.3525 C   0  0  0  0  0  0  0  0  0  0  0  0
  149.4204  131.8961  154.7695 N   0  0  0  0  0  0  0  0  0  0  0  0
  150.4572  131.9095  155.7830 C   0  0  0  0  0  0  0  0  0  0  0  0
  148.6541  130.7967  154.6012 N   0  0  0  0  0  0  0  0  0  0  0  0
  146.1851  130.4777  152.3637 H   0  0  0  0  0  0  0  0  0  0  0  0
  146.1498  129.7982  153.9876 H   0  0  0  0  0  0  0  0  0  0  0  0
  147.2979  129.1846  152.7990 H   0  0  0  0  0  0  0  0  0  0  0  0
  147.4804  132.9233  152.3234 H   0  0  0  0  0  0  0  0  0  0  0  0
  149.8712  134.4467  152.9250 H   0  0  0  0  0  0  0  0  0  0  0  0
  150.7366  136.1289  153.4480 H   0  0  0  0  0  0  0  0  0  0  0  0
  150.3036  137.4463  155.8742 H   0  0  0  0  0  0  0  0  0  0  0  0
  151.8515  136.6451  156.0252 H   0  0  0  0  0  0  0  0  0  0  0  0
  152.8705  138.1956  154.7340 H   0  0  0  0  0  0  0  0  0  0  0  0
  151.7645  137.9260  153.4167 H   0  0  0  0  0  0  0  0  0  0  0  0
  150.9600  139.2675  156.7551 H   0  0  0  0  0  0  0  0  0  0  0  0
  152.4829  140.0149  156.3272 H   0  0  0  0  0  0  0  0  0  0  0  0
  151.3386  142.1006  155.6571 H   0  0  0  0  0  0  0  0  0  0  0  0
  151.9501  141.8748  158.0746 H   0  0  0  0  0  0  0  0  0  0  0  0
  150.3788  141.1466  158.4060 H   0  0  0  0  0  0  0  0  0  0  0  0
  150.4795  142.8224  157.8723 H   0  0  0  0  0  0  0  0  0  0  0  0
  149.7223  141.6654  153.8990 H   0  0  0  0  0  0  0  0  0  0  0  0
  147.5133  140.6818  153.2511 H   0  0  0  0  0  0  0  0  0  0  0  0
  147.3145  141.9709  154.4346 H   0  0  0  0  0  0  0  0  0  0  0  0
  147.1903  140.2872  154.9386 H   0  0  0  0  0  0  0  0  0  0  0  0
  149.7038  139.2511  153.3127 H   0  0  0  0  0  0  0  0  0  0  0  0
  149.2967  138.8246  154.9594 H   0  0  0  0  0  0  0  0  0  0  0  0
  150.2387  132.6836  156.5191 H   0  0  0  0  0  0  0  0  0  0  0  0
  151.4210  132.1198  155.3185 H   0  0  0  0  0  0  0  0  0  0  0  0
  150.5123  130.9448  156.2897 H   0  0  0  0  0  0  0  0  0  0  0  0
  1  2  1  0  0  0  0
  1 22  1  0  0  0  0
  1 23  1  0  0  0  0
  1 24  1  0  0  0  0
  2 21  2  0  0  0  0
  2  3  1  0  0  0  0
  3  4  2  0  0  0  0
  3 25  1  0  0  0  0
  4  5  1  0  0  0  0
  4 19  1  0  0  0  0
  5  6  1  0  0  0  0
  5 26  1  0  0  0  0
  6  7  2  0  0  0  0
  6  8  1  0  0  0  0
  8  9  1  0  0  0  0
  8 27  1  0  0  0  0
  9 10  1  0  0  0  0
  9 28  1  0  0  0  0
  9 29  1  0  0  0  0
 10 11  1  0  0  0  0
 10 30  1  0  0  0  0
 10 31  1  0  0  0  0
 11 18  1  0  0  0  0
 11 12  1  0  0  0  0
 12 13  1  0  0  0  0
 12 32  1  0  0  0  0
 12 33  1  0  0  0  0
 13 14  1  0  0  0  0
 13 15  1  0  0  0  0
 13 34  1  0  0  0  0
 14 35  1  0  0  0  0
 14 36  1  0  0  0  0
 14 37  1  0  0  0  0
 15 16  1  0  0  0  0
 16 17  1  0  0  0  0
 16 18  1  0  0  0  0
 16 38  1  0  0  0  0
 17 39  1  0  0  0  0
 17 40  1  0  0  0  0
 17 41  1  0  0  0  0
 18 42  1  0  0  0  0
 18 43  1  0  0  0  0
 19 20  1  0  0  0  0
 19 21  1  0  0  0  0
 20 44  1  0  0  0  0
 20 45  1  0  0  0  0
 20 46  1  0  0  0  0
M  END
> <s_m_source_file>
AV-unprocessed.smi

> <i_m_source_file_index>
1247

> <i_lp_mmshare_version>
43012

> <i_f3d_flags>
0

> <s_epik_input>
W0NIM11jMVtjSF1jKG4objEpW0NIM10pW05IXUMoPU8pW05IXVtDSDJdW0NIMl1OMltDSDJdW0NAQEhdKFtDSDNdKU9bQ0BASF0oW0NIM10pW0NIMl0y

> <s_epik_cmdline>
J2VwaWtfcHl0aG9uJywgJy1waCcsICc3LjAnLCAnLXRuJywgJzgnLCAnLW1hJywgJzIwMCcsICctbWV0YWxfYmluZGluZycsICctaW1hZScsICc8aW5maWxlLm1hZT4nLCAnLW9tYWUnLCAnPG91dGZpbGUubWFlPic=

> <r_lp_tautomer_probability>
1

> <r_epik_Ionization_Penalty>
0.233972

> <r_epik_Ionization_Penalty_Charging>
0

> <r_epik_Ionization_Penalty_Neutral>
0.233972

> <r_epik_State_Penalty>
0.224627

> <r_epik_Charging_Adjusted_Penalty>
0.224627

> <i_epik_Tot_Q>
0

> <i_epik_Tot_abs_Q>
0

> <r_epik_Metal_State_Penalty>
0.224624

> <b_epik_Metal_Only>
0

> <s_lp_Force_Field>
OPLS_2005

> <r_lp_Energy>
19.816

> <b_lp_Chiralities_Consistent>
1

> <s_lp_Variant>
AV-unprocessed.smi:1247-1

> <Gold.Version>
5.8.1

> <Gold.Id.Protein>
6NUR|6NUR_protein|mol2

> <Gold.PLP.Fitness>
42.4173

> <Gold.PLP.PLP>
-39.8131

> <Gold.PLP.part.hbond>
-4.0819

> <Gold.PLP.part.metal>
0.0000

> <Gold.PLP.part.buried>
-4.0237

> <Gold.PLP.part.nonpolar>
-33.6818

> <Gold.PLP.part.repulsive>
0.3571

> <Gold.PLP.ligand.clash>
0.0000

> <Gold.PLP.ligand.torsion>
0.7292

> <Gold.PLP.Chemscore.Hbond>
1.3500

> <Gold.PLP.Chemscore.CHOScore>
0.0000

> <Gold.PLP.Chemscore.Metal>
0.0000

> <Gold.Chemscore.Hbonds>
donor molecule, donor type, donor heavy atom, donor atom, acceptor molecule, acceptor atom, score
      L1  H     8    27       P1  7949  0.55
      P1  H  7989  7998       L1    11  0.60

> <Gold.PLP.Chemscore.Internal.Correction>
0.0127

> <Gold.Rescore>
     Score         DG    S(hbond)    S(metal)    S(lipo)     H(rot)  DE(clash)    DE(int)     intcor
     10.14     -11.12       0.07        0.00      78.59       1.48       0.10       0.88       ----

> <Gold.Chemscore.Fitness>
10.1447

> <Gold.Chemscore.DG>
-11.1221

> <Gold.Chemscore.ZeroCoef>
-5.4800

> <Gold.Chemscore.Hbond>
0.0736

> <Gold.Chemscore.Metal>
0.0000

> <Gold.Chemscore.Lipo>
78.5886

> <Gold.Chemscore.Internal_Hbond>
0.0000

> <Gold.Chemscore.DEClash>
0.0987

> <Gold.Chemscore.DEInternal>
0.8787

> <Gold.Chemscore.Rot>
1.4838

> <Gold.Chemscore.Internal.Correction>
   9.000000E+99

> <Gold.Chemscore.Hbonds>
donor molecule, donor type, donor heavy atom, donor atom, acceptor molecule, acceptor atom, score
      L1  H     8    27       P1  7949  0.03
      P1  H  7989  7998       L1    11  0.03

> <Gold.Chemscore.Hbond.Weighted>
-0.2457

> <Gold.Chemscore.Metal.Weighted>
-0.0000

> <Gold.Chemscore.Lipo.Weighted>
-9.1949

> <Gold.Chemscore.Internal_Hbond.Weighted>
0.0000

> <Gold.Chemscore.DEClash.Weighted>
0.0987

> <Gold.Chemscore.DEInternal.Weighted>
0.8787

> <Gold.Chemscore.Rot.Weighted>
3.7985

> <Gold.Chemscore.Internal.Correction.Weighted>
   9.000000E+99

> <Gold.Protein.RotatedTorsions>
[ 6907 6896 6895 6894 ] final  -37.80 input  -60.11 | X-H torsion
[ 7974 7965 7964 7962 ] final  -95.45 input  175.53 | X-H torsion
[ 8008 7997 7996 7995 ] final  -71.00 input   59.86 | X-H torsion
[ 10167 10162 10161 10158 ] final  162.93 input  -65.29 | X-H torsion
[ 10718 10713 10712 10709 ] final   -7.65 input   66.30 | X-H torsion
[ 10763 10752 10751 10750 ] final  166.66 input  -60.55 | X-H torsion
[ 11005 11000 10999 10996 ] final -141.41 input  -57.11 | X-H torsion

> <Gold.Protein.ActiveResidues>
 VAL166  LYS551  ARG553  GLY616  TRP617  ASP618  TYR619  PRO620  LYS621  CYS622 
 ASP623  PHE694  ASN695  SER759  ASP760  ASP761  ALA762  ILE779  LEU786  VAL792 
 PHE793  MET794  SER795  GLU796  ALA797  LYS798  CYS799  TRP800  GLU811  SER814 

> <Gold.Protein.RotatedAtoms>
  151.0102  134.9391  159.8002 H   0  0  0  0  0  0  0  0  0  0  0  0  # atno 6907 bound_to 6896
  152.5300  134.3038  159.9098 H   0  0  0  0  0  0  0  0  0  0  0  0  # atno 6908 bound_to 6896
  151.3044  133.4066  159.2676 H   0  0  0  0  0  0  0  0  0  0  0  0  # atno 6909 bound_to 6896
  145.3599  140.9490  143.2507 H   0  0  0  0  0  0  0  0  0  0  0  0  # atno 7974 bound_to 7965
  154.5054  140.0824  156.7883 H   0  0  0  0  0  0  0  0  0  0  0  0  # atno 8008 bound_to 7997
  155.3906  140.3432  155.4233 H   0  0  0  0  0  0  0  0  0  0  0  0  # atno 8009 bound_to 7997
  156.1509  140.1558  156.8759 H   0  0  0  0  0  0  0  0  0  0  0  0  # atno 8010 bound_to 7997
  139.4867  144.4388  151.8978 H   0  0  0  0  0  0  0  0  0  0  0  0  # atno 10167 bound_to 10162
  156.7141  130.5131  149.5884 H   0  0  0  0  0  0  0  0  0  0  0  0  # atno 10718 bound_to 10713
  154.3423  135.2754  155.2416 H   0  0  0  0  0  0  0  0  0  0  0  0  # atno 10763 bound_to 10752
  154.4681  135.5890  153.6306 H   0  0  0  0  0  0  0  0  0  0  0  0  # atno 10764 bound_to 10752
  152.9856  135.6081  154.3625 H   0  0  0  0  0  0  0  0  0  0  0  0  # atno 10765 bound_to 10752
  140.8327  134.2498  157.4849 H   0  0  0  0  0  0  0  0  0  0  0  0  # atno 11005 bound_to 11000
  144.8654  139.5115  143.6792 LP  0  0  0  0  0  0  0  0  0  0  0  0  # atno 17320 bound_to 7965
  146.2932  139.7200  142.9146 LP  0  0  0  0  0  0  0  0  0  0  0  0  # atno 17321 bound_to 7965
  140.3839  144.2701  150.5906 LP  0  0  0  0  0  0  0  0  0  0  0  0  # atno 17342 bound_to 10162
  140.5208  143.2266  151.8392 LP  0  0  0  0  0  0  0  0  0  0  0  0  # atno 17343 bound_to 10162
  156.1640  130.6393  151.0755 LP  0  0  0  0  0  0  0  0  0  0  0  0  # atno 17370 bound_to 10713
  157.6924  131.0805  150.7068 LP  0  0  0  0  0  0  0  0  0  0  0  0  # atno 17371 bound_to 10713
  139.8704  134.9594  156.4332 LP  0  0  0  0  0  0  0  0  0  0  0  0  # atno 17394 bound_to 11000
  140.8981  133.7799  155.9648 LP  0  0  0  0  0  0  0  0  0  0  0  0  # atno 17395 bound_to 11000

$$$$
