AV-unprocessed.smi:2776|AV-procd|sdf|10706|dock4
  -GOLD-   2272015143D 1   1.00000     0.00000
 Structure written by MMmdl.
 26 27  0  0  0  0  0  0  0  0  2 V2000
  153.4455  138.6711  156.7786 O   0  0  0  0  0  0  0  0  0  0  0  0
  152.3023  139.3773  156.3350 C   0  0  2  0  0  0  0  0  0  0  0  0
  151.3504  139.6371  157.5211 C   0  0  0  0  0  0  0  0  0  0  0  0
  150.9655  141.0507  157.6449 N   0  0  0  0  0  0  0  0  0  0  0  0
  150.1870  141.8129  156.8296 C   0  0  0  0  0  0  0  0  0  0  0  0
  150.1261  143.0622  157.3680 N   0  3  0  0  0  0  0  0  0  0  0  0
  150.8781  143.1002  158.5443 C   0  0  0  0  0  0  0  0  0  0  0  0
  151.1199  144.1388  159.4377 C   0  0  0  0  0  0  0  0  0  0  0  0
  151.9405  143.8449  160.5466 C   0  0  0  0  0  0  0  0  0  0  0  0
  152.2085  144.8202  161.4468 F   0  0  0  0  0  0  0  0  0  0  0  0
  152.4868  142.5575  160.7344 C   0  0  0  0  0  0  0  0  0  0  0  0
  153.2718  142.3180  161.8113 F   0  0  0  0  0  0  0  0  0  0  0  0
  152.2330  141.5122  159.8220 C   0  0  0  0  0  0  0  0  0  0  0  0
  151.4204  141.8111  158.7290 C   0  0  0  0  0  0  0  0  0  0  0  0
  151.6346  138.5885  155.1923 C   0  0  0  0  0  0  0  0  0  0  0  0
  152.5110  138.3801  154.2094 F   0  0  0  0  0  0  0  0  0  0  0  0
  151.1667  137.4188  155.6297 F   0  0  0  0  0  0  0  0  0  0  0  0
  150.6198  139.2968  154.6972 F   0  0  0  0  0  0  0  0  0  0  0  0
  153.2034  137.7673  156.9144 H   0  0  0  0  0  0  0  0  0  0  0  0
  152.6455  140.3357  155.9428 H   0  0  0  0  0  0  0  0  0  0  0  0
  150.4303  139.0666  157.3909 H   0  0  0  0  0  0  0  0  0  0  0  0
  151.7860  139.2996  158.4617 H   0  0  0  0  0  0  0  0  0  0  0  0
  149.7049  141.4857  155.9195 H   0  0  0  0  0  0  0  0  0  0  0  0
  150.7051  145.1260  159.2970 H   0  0  0  0  0  0  0  0  0  0  0  0
  152.6616  140.5327  159.9737 H   0  0  0  0  0  0  0  0  0  0  0  0
  149.6094  143.8308  156.9595 H   0  0  0  0  0  0  0  0  0  0  0  0
  1  2  1  0  0  0  0
  1 19  1  0  0  0  0
  2  3  1  0  0  0  0
  2 15  1  0  0  0  0
  2 20  1  0  0  0  0
  3  4  1  0  0  0  0
  3 21  1  0  0  0  0
  3 22  1  0  0  0  0
  4 14  1  0  0  0  0
  4  5  1  0  0  0  0
  5  6  2  0  0  0  0
  5 23  1  0  0  0  0
  6  7  1  0  0  0  0
  6 26  1  0  0  0  0
  7 14  2  0  0  0  0
  7  8  1  0  0  0  0
  8  9  2  0  0  0  0
  8 24  1  0  0  0  0
  9 10  1  0  0  0  0
  9 11  1  0  0  0  0
 11 12  1  0  0  0  0
 11 13  2  0  0  0  0
 13 14  1  0  0  0  0
 13 25  1  0  0  0  0
 15 16  1  0  0  0  0
 15 17  1  0  0  0  0
 15 18  1  0  0  0  0
M  CHG  1   6   1
M  END
> <s_m_source_file>
AV-unprocessed.smi

> <i_m_source_file_index>
2776

> <i_lp_mmshare_version>
43012

> <i_f3d_flags>
0

> <s_epik_input>
RkMoRikoRilbQ0BIXShbT0hdKVtDSDJdbihbY0hdbjEpYyhjMTIpW2NIXWMoRiljKEYpW2NIXTI=

> <s_epik_cmdline>
J2VwaWtfcHl0aG9uJywgJy1waCcsICc3LjAnLCAnLXRuJywgJzgnLCAnLW1hJywgJzIwMCcsICctbWV0YWxfYmluZGluZycsICctaW1hZScsICc8aW5maWxlLm1hZT4nLCAnLW9tYWUnLCAnPG91dGZpbGUubWFlPic=

> <r_epik_Ionization_Penalty>
2.38424

> <r_epik_Ionization_Penalty_Charging>
2.37244

> <r_epik_Ionization_Penalty_Neutral>
0.0117937

> <r_epik_State_Penalty>
2.52832

> <r_epik_Charging_Adjusted_Penalty>
4.90076

> <i_epik_Tot_Q>
1

> <i_epik_Tot_abs_Q>
1

> <r_epik_Metal_State_Penalty>
6.61271

> <b_epik_Metal_Only>
0

> <s_lp_Force_Field>
OPLS_2005

> <r_lp_Energy>
13.8942

> <b_lp_Chiralities_Consistent>
1

> <s_lp_Variant>
AV-unprocessed.smi:2776-3

> <Gold.Version>
5.8.1

> <Gold.Id.Protein>
6NUR|6NUR_protein|mol2

> <Gold.PLP.Fitness>
46.5551

> <Gold.PLP.PLP>
-39.7833

> <Gold.PLP.part.hbond>
-2.0000

> <Gold.PLP.part.metal>
0.0000

> <Gold.PLP.part.buried>
-3.5825

> <Gold.PLP.part.nonpolar>
-33.7454

> <Gold.PLP.part.repulsive>
0.0118

> <Gold.PLP.ligand.clash>
0.0000

> <Gold.PLP.ligand.torsion>
0.7962

> <Gold.PLP.Chemscore.Hbond>
2.7840

> <Gold.PLP.Chemscore.CHOScore>
0.0000

> <Gold.PLP.Chemscore.Metal>
0.0000

> <Gold.Chemscore.Hbonds>
donor molecule, donor type, donor heavy atom, donor atom, acceptor molecule, acceptor atom, score
      L1  H     6    26       P1  8028  2.00
      P1  H  7997  8009       L1     1  0.78

> <Gold.PLP.Chemscore.Internal.Correction>
0.0122

> <Gold.Rescore>
     Score         DG    S(hbond)    S(metal)    S(lipo)     H(rot)  DE(clash)    DE(int)     intcor
     13.61     -14.63       1.80        0.00      73.07       2.12       0.26       0.76       ----

> <Gold.Chemscore.Fitness>
13.6093

> <Gold.Chemscore.DG>
-14.6264

> <Gold.Chemscore.ZeroCoef>
-5.4800

> <Gold.Chemscore.Hbond>
1.8017

> <Gold.Chemscore.Metal>
0.0000

> <Gold.Chemscore.Lipo>
73.0669

> <Gold.Chemscore.Internal_Hbond>
0.0000

> <Gold.Chemscore.DEClash>
0.2591

> <Gold.Chemscore.DEInternal>
0.7581

> <Gold.Chemscore.Rot>
2.1173

> <Gold.Chemscore.Internal.Correction>
   9.000000E+99

> <Gold.Chemscore.Hbonds>
donor molecule, donor type, donor heavy atom, donor atom, acceptor molecule, acceptor atom, score
      L1  H     6    26       P1  8028  0.87
      P1  H  7997  8009       L1     1  0.20

> <Gold.Chemscore.Hbond.Weighted>
-6.0177

> <Gold.Chemscore.Metal.Weighted>
-0.0000

> <Gold.Chemscore.Lipo.Weighted>
-8.5488

> <Gold.Chemscore.Internal_Hbond.Weighted>
0.0000

> <Gold.Chemscore.DEClash.Weighted>
0.2591

> <Gold.Chemscore.DEInternal.Weighted>
0.7581

> <Gold.Chemscore.Rot.Weighted>
5.4202

> <Gold.Chemscore.Internal.Correction.Weighted>
   9.000000E+99

> <Gold.Protein.RotatedTorsions>
[ 6907 6896 6895 6894 ] final  152.11 input  -60.11 | X-H torsion
[ 7974 7965 7964 7962 ] final -145.00 input  175.53 | X-H torsion
[ 8008 7997 7996 7995 ] final  157.35 input   59.86 | X-H torsion
[ 10167 10162 10161 10158 ] final -112.68 input  -65.29 | X-H torsion
[ 10718 10713 10712 10709 ] final -135.03 input   66.30 | X-H torsion
[ 10763 10752 10751 10750 ] final  -32.32 input  -60.55 | X-H torsion
[ 11005 11000 10999 10996 ] final   16.98 input  -57.11 | X-H torsion

> <Gold.Protein.ActiveResidues>
 VAL166  LYS551  ARG553  GLY616  TRP617  ASP618  TYR619  PRO620  LYS621  CYS622 
 ASP623  PHE694  ASN695  SER759  ASP760  ASP761  ALA762  ILE779  LEU786  VAL792 
 PHE793  MET794  SER795  GLU796  ALA797  LYS798  CYS799  TRP800  GLU811  SER814 

> <Gold.Protein.RotatedAtoms>
  152.0914  133.4202  159.4545 H   0  0  0  0  0  0  0  0  0  0  0  0  # atno 6907 bound_to 6896
  150.6862  134.2868  159.4659 H   0  0  0  0  0  0  0  0  0  0  0  0  # atno 6908 bound_to 6896
  152.0719  134.9527  160.0625 H   0  0  0  0  0  0  0  0  0  0  0  0  # atno 6909 bound_to 6896
  144.8258  140.5639  143.5548 H   0  0  0  0  0  0  0  0  0  0  0  0  # atno 7974 bound_to 7965
  156.2369  140.1888  156.7095 H   0  0  0  0  0  0  0  0  0  0  0  0  # atno 8008 bound_to 7997
  154.6123  140.0620  156.9537 H   0  0  0  0  0  0  0  0  0  0  0  0  # atno 8009 bound_to 7997
  155.1995  140.3291  155.4348 H   0  0  0  0  0  0  0  0  0  0  0  0  # atno 8010 bound_to 7997
  140.1201  143.4451  152.1696 H   0  0  0  0  0  0  0  0  0  0  0  0  # atno 10167 bound_to 10162
  156.2618  130.7214  151.1151 H   0  0  0  0  0  0  0  0  0  0  0  0  # atno 10718 bound_to 10713
  153.8119  135.6881  153.4839 H   0  0  0  0  0  0  0  0  0  0  0  0  # atno 10763 bound_to 10752
  153.1623  135.4575  154.9787 H   0  0  0  0  0  0  0  0  0  0  0  0  # atno 10764 bound_to 10752
  154.7964  135.3320  154.7599 H   0  0  0  0  0  0  0  0  0  0  0  0  # atno 10765 bound_to 10752
  140.4411  134.1321  155.7690 H   0  0  0  0  0  0  0  0  0  0  0  0  # atno 11005 bound_to 11000
  145.5004  139.1483  143.3660 LP  0  0  0  0  0  0  0  0  0  0  0  0  # atno 17320 bound_to 7965
  146.2563  140.5143  142.8872 LP  0  0  0  0  0  0  0  0  0  0  0  0  # atno 17321 bound_to 7965
  139.5573  144.7382  151.4256 LP  0  0  0  0  0  0  0  0  0  0  0  0  # atno 17342 bound_to 10162
  140.6877  143.7935  150.7209 LP  0  0  0  0  0  0  0  0  0  0  0  0  # atno 17343 bound_to 10162
  157.7253  131.0654  150.5957 LP  0  0  0  0  0  0  0  0  0  0  0  0  # atno 17370 bound_to 10713
  156.6046  130.4363  149.5883 LP  0  0  0  0  0  0  0  0  0  0  0  0  # atno 17371 bound_to 10713
  141.1705  133.8618  157.1585 LP  0  0  0  0  0  0  0  0  0  0  0  0  # atno 17394 bound_to 11000
  140.0069  135.0004  157.0312 LP  0  0  0  0  0  0  0  0  0  0  0  0  # atno 17395 bound_to 11000

$$$$
