AV-unprocessed.smi:1697|AV-procd|sdf|6809|dock2
  -GOLD-   22720 7583D 1   1.00000     0.00000
 Structure written by MMmdl.
 55 57  0  0  0  0  0  0  0  0  3 V2000
  148.2278  133.3113  158.7218 C   0  0  0  0  0  0  0  0  0  0  0  0
  147.7674  133.9674  157.4130 C   0  0  0  0  0  0  0  0  0  0  0  0
  148.7014  133.7667  156.3594 O   0  0  0  0  0  0  0  0  0  0  0  0
  148.2828  134.2223  155.0766 C   0  0  2  0  0  0  0  0  0  0  0  0
  149.4532  134.0650  154.0937 C   0  0  0  0  0  0  0  0  0  0  0  0
  150.6174  135.0103  154.4367 C   0  0  0  0  0  0  0  0  0  0  0  0
  150.1636  136.4236  154.4927 N   0  3  2  0  0  0  0  0  0  0  0  0
  151.2922  137.3735  154.6721 C   0  0  0  0  0  0  0  0  0  0  0  0
  150.8146  138.8137  154.9457 C   0  0  2  0  0  0  0  0  0  0  0  0
  150.9370  139.5675  153.7546 O   0  0  0  0  0  0  0  0  0  0  0  0
  151.6285  139.4859  156.0692 C   0  0  0  0  0  0  0  0  0  0  0  0
  151.0451  140.7626  156.5071 N   0  0  0  0  0  0  0  0  0  0  0  0
  150.1135  141.5436  155.8952 C   0  0  0  0  0  0  0  0  0  0  0  0
  149.9011  142.6294  156.6888 N   0  3  0  0  0  0  0  0  0  0  0  0
  150.7080  142.5414  157.8248 C   0  0  0  0  0  0  0  0  0  0  0  0
  150.8459  143.3988  158.9098 C   0  0  0  0  0  0  0  0  0  0  0  0
  151.7652  143.0240  159.9153 C   0  0  0  0  0  0  0  0  0  0  0  0
  151.9434  143.9415  161.1131 C   0  0  0  0  0  0  0  0  0  0  0  0
  152.5084  141.8198  159.8121 C   0  0  0  0  0  0  0  0  0  0  0  0
  153.4951  141.4272  160.8989 C   0  0  0  0  0  0  0  0  0  0  0  0
  152.3522  140.9600  158.7013 C   0  0  0  0  0  0  0  0  0  0  0  0
  151.4437  141.3447  157.7173 C   0  0  0  0  0  0  0  0  0  0  0  0
  149.0744  136.6055  155.4888 C   0  0  0  0  0  0  0  0  0  0  0  0
  147.8720  135.7014  155.1675 C   0  0  0  0  0  0  0  0  0  0  0  0
  147.4631  133.4102  159.4923 H   0  0  0  0  0  0  0  0  0  0  0  0
  149.1388  133.7707  159.1050 H   0  0  0  0  0  0  0  0  0  0  0  0
  148.4209  132.2479  158.5788 H   0  0  0  0  0  0  0  0  0  0  0  0
  146.8236  133.5169  157.1057 H   0  0  0  0  0  0  0  0  0  0  0  0
  147.5697  135.0311  157.5540 H   0  0  0  0  0  0  0  0  0  0  0  0
  147.4398  133.6355  154.7067 H   0  0  0  0  0  0  0  0  0  0  0  0
  149.7996  133.0309  154.0880 H   0  0  0  0  0  0  0  0  0  0  0  0
  149.1058  134.2766  153.0817 H   0  0  0  0  0  0  0  0  0  0  0  0
  151.0645  134.7314  155.3924 H   0  0  0  0  0  0  0  0  0  0  0  0
  151.3953  134.9017  153.6800 H   0  0  0  0  0  0  0  0  0  0  0  0
  151.9331  137.0200  155.4814 H   0  0  0  0  0  0  0  0  0  0  0  0
  151.9150  137.3828  153.7761 H   0  0  0  0  0  0  0  0  0  0  0  0
  149.7648  138.8147  155.2372 H   0  0  0  0  0  0  0  0  0  0  0  0
  150.1935  139.3837  153.2007 H   0  0  0  0  0  0  0  0  0  0  0  0
  151.6581  138.8347  156.9438 H   0  0  0  0  0  0  0  0  0  0  0  0
  152.6659  139.6432  155.7730 H   0  0  0  0  0  0  0  0  0  0  0  0
  149.6312  141.3408  154.9498 H   0  0  0  0  0  0  0  0  0  0  0  0
  150.2765  144.3141  158.9812 H   0  0  0  0  0  0  0  0  0  0  0  0
  151.6833  143.4223  162.0359 H   0  0  0  0  0  0  0  0  0  0  0  0
  151.3088  144.8251  161.0372 H   0  0  0  0  0  0  0  0  0  0  0  0
  152.9773  144.2799  161.1853 H   0  0  0  0  0  0  0  0  0  0  0  0
  153.9768  140.4747  160.6765 H   0  0  0  0  0  0  0  0  0  0  0  0
  152.9877  141.3265  161.8583 H   0  0  0  0  0  0  0  0  0  0  0  0
  154.2768  142.1808  160.9971 H   0  0  0  0  0  0  0  0  0  0  0  0
  152.9218  140.0461  158.6257 H   0  0  0  0  0  0  0  0  0  0  0  0
  149.4529  136.3857  156.4884 H   0  0  0  0  0  0  0  0  0  0  0  0
  148.7393  137.6417  155.5035 H   0  0  0  0  0  0  0  0  0  0  0  0
  147.4322  136.0123  154.2192 H   0  0  0  0  0  0  0  0  0  0  0  0
  147.0956  135.8337  155.9213 H   0  0  0  0  0  0  0  0  0  0  0  0
  149.7703  136.6265  153.5844 H   0  0  0  0  0  0  0  0  0  0  0  0
  149.2531  143.3749  156.4686 H   0  0  0  0  0  0  0  0  0  0  0  0
  1  2  1  0  0  0  0
  1 25  1  0  0  0  0
  1 26  1  0  0  0  0
  1 27  1  0  0  0  0
  2  3  1  0  0  0  0
  2 28  1  0  0  0  0
  2 29  1  0  0  0  0
  3  4  1  0  0  0  0
  4 24  1  0  0  0  0
  4  5  1  0  0  0  0
  4 30  1  0  0  0  0
  5  6  1  0  0  0  0
  5 31  1  0  0  0  0
  5 32  1  0  0  0  0
  6  7  1  0  0  0  0
  6 33  1  0  0  0  0
  6 34  1  0  0  0  0
  7  8  1  0  0  0  0
  7 23  1  0  0  0  0
  7 54  1  0  0  0  0
  8  9  1  0  0  0  0
  8 35  1  0  0  0  0
  8 36  1  0  0  0  0
  9 10  1  0  0  0  0
  9 11  1  0  0  0  0
  9 37  1  0  0  0  0
 10 38  1  0  0  0  0
 11 12  1  0  0  0  0
 11 39  1  0  0  0  0
 11 40  1  0  0  0  0
 12 22  1  0  0  0  0
 12 13  1  0  0  0  0
 13 14  2  0  0  0  0
 13 41  1  0  0  0  0
 14 15  1  0  0  0  0
 14 55  1  0  0  0  0
 15 22  2  0  0  0  0
 15 16  1  0  0  0  0
 16 17  2  0  0  0  0
 16 42  1  0  0  0  0
 17 18  1  0  0  0  0
 17 19  1  0  0  0  0
 18 43  1  0  0  0  0
 18 44  1  0  0  0  0
 18 45  1  0  0  0  0
 19 20  1  0  0  0  0
 19 21  2  0  0  0  0
 20 46  1  0  0  0  0
 20 47  1  0  0  0  0
 20 48  1  0  0  0  0
 21 22  1  0  0  0  0
 21 49  1  0  0  0  0
 23 24  1  0  0  0  0
 23 50  1  0  0  0  0
 23 51  1  0  0  0  0
 24 52  1  0  0  0  0
 24 53  1  0  0  0  0
M  CHG  1   7   1
M  CHG  1  14   1
M  END
> <s_m_source_file>
AV-unprocessed.smi

> <i_m_source_file_index>
1697

> <i_lp_mmshare_version>
43012

> <i_f3d_flags>
0

> <s_epik_input>
W0NIM11bQ0gyXU9bQ0hdMVtDSDJdW0NIMl1OKFtDSDJdW0NIMl0xKVtDSDJdW0NASF0oW09IXSlbQ0gyXW4oW2NIXW4yKWMoYzIzKVtjSF1jKFtDSDNdKWMoW2NIXTMpW0NIM10=

> <s_epik_cmdline>
J2VwaWtfcHl0aG9uJywgJy1waCcsICc3LjAnLCAnLXRuJywgJzgnLCAnLW1hJywgJzIwMCcsICctbWV0YWxfYmluZGluZycsICctaW1hZScsICc8aW5maWxlLm1hZT4nLCAnLW9tYWUnLCAnPG91dGZpbGUubWFlPic=

> <r_epik_Ionization_Penalty>
1.20016

> <r_epik_Ionization_Penalty_Charging>
1.20016

> <r_epik_Ionization_Penalty_Neutral>
1.70998e-06

> <r_epik_State_Penalty>
1.27959

> <r_epik_Charging_Adjusted_Penalty>
2.47975

> <i_epik_Tot_Q>
2

> <i_epik_Tot_abs_Q>
2

> <r_epik_Metal_State_Penalty>
5.29682

> <b_epik_Metal_Only>
0

> <s_lp_Force_Field>
OPLS_2005

> <r_lp_Energy>
33.4822

> <b_lp_Chiralities_Consistent>
1

> <s_lp_Variant>
AV-unprocessed.smi:1697-7

> <Gold.Version>
5.8.1

> <Gold.Id.Protein>
6NUR|6NUR_protein|mol2

> <Gold.PLP.Fitness>
57.0722

> <Gold.PLP.PLP>
-43.3182

> <Gold.PLP.part.hbond>
-3.7729

> <Gold.PLP.part.metal>
0.0000

> <Gold.PLP.part.buried>
-2.9793

> <Gold.PLP.part.nonpolar>
-37.1427

> <Gold.PLP.part.repulsive>
0.0961

> <Gold.PLP.ligand.clash>
0.0000

> <Gold.PLP.ligand.torsion>
0.9671

> <Gold.PLP.Chemscore.Hbond>
5.1960

> <Gold.PLP.Chemscore.CHOScore>
0.0000

> <Gold.PLP.Chemscore.Metal>
0.0000

> <Gold.Chemscore.Hbonds>
donor molecule, donor type, donor heavy atom, donor atom, acceptor molecule, acceptor atom, score
      L1  H     7    54       P1  7948  2.00
      L1  H    10    38       P1  7957  0.36
      L1  H    14    55       P1  8028  2.00
      P1  H  7989  7998       L1    10  0.88

> <Gold.PLP.Chemscore.Internal.Correction>
0.1000

> <Gold.Rescore>
     Score         DG    S(hbond)    S(metal)    S(lipo)     H(rot)  DE(clash)    DE(int)     intcor
     19.69     -22.01       2.86        0.00     111.09       2.35       0.02       2.30       ----

> <Gold.Chemscore.Fitness>
19.6948

> <Gold.Chemscore.DG>
-22.0147

> <Gold.Chemscore.ZeroCoef>
-5.4800

> <Gold.Chemscore.Hbond>
2.8579

> <Gold.Chemscore.Metal>
0.0000

> <Gold.Chemscore.Lipo>
111.0860

> <Gold.Chemscore.Internal_Hbond>
0.0000

> <Gold.Chemscore.DEClash>
0.0179

> <Gold.Chemscore.DEInternal>
2.3020

> <Gold.Chemscore.Rot>
2.3468

> <Gold.Chemscore.Internal.Correction>
   9.000000E+99

> <Gold.Chemscore.Hbonds>
donor molecule, donor type, donor heavy atom, donor atom, acceptor molecule, acceptor atom, score
      L1  H     7    54       P1  7948  0.44
      L1  H    10    38       P1  7957  0.35
      L1  H    14    55       P1  8028  0.94
      P1  H  7989  7998       L1    10  0.75

> <Gold.Chemscore.Hbond.Weighted>
-9.5453

> <Gold.Chemscore.Metal.Weighted>
-0.0000

> <Gold.Chemscore.Lipo.Weighted>
-12.9971

> <Gold.Chemscore.Internal_Hbond.Weighted>
0.0000

> <Gold.Chemscore.DEClash.Weighted>
0.0179

> <Gold.Chemscore.DEInternal.Weighted>
2.3020

> <Gold.Chemscore.Rot.Weighted>
6.0077

> <Gold.Chemscore.Internal.Correction.Weighted>
   9.000000E+99

> <Gold.Protein.RotatedTorsions>
[ 6907 6896 6895 6894 ] final   50.99 input  -60.11 | X-H torsion
[ 7974 7965 7964 7962 ] final   29.18 input  175.53 | X-H torsion
[ 8008 7997 7996 7995 ] final  -50.47 input   59.86 | X-H torsion
[ 10167 10162 10161 10158 ] final  -62.23 input  -65.29 | X-H torsion
[ 10718 10713 10712 10709 ] final -163.08 input   66.30 | X-H torsion
[ 10763 10752 10751 10750 ] final   44.69 input  -60.55 | X-H torsion
[ 11005 11000 10999 10996 ] final   30.96 input  -57.11 | X-H torsion

> <Gold.Protein.ActiveResidues>
 VAL166  LYS551  ARG553  GLY616  TRP617  ASP618  TYR619  PRO620  LYS621  CYS622 
 ASP623  PHE694  ASN695  SER759  ASP760  ASP761  ALA762  ILE779  LEU786  VAL792 
 PHE793  MET794  SER795  GLU796  ALA797  LYS798  CYS799  TRP800  GLU811  SER814 

> <Gold.Protein.RotatedAtoms>
  152.3078  134.7534  160.0343 H   0  0  0  0  0  0  0  0  0  0  0  0  # atno 6907 bound_to 6896
  151.8025  133.3366  159.3539 H   0  0  0  0  0  0  0  0  0  0  0  0  # atno 6908 bound_to 6896
  150.7305  134.5670  159.5915 H   0  0  0  0  0  0  0  0  0  0  0  0  # atno 6909 bound_to 6896
  146.1686  139.6955  142.8983 H   0  0  0  0  0  0  0  0  0  0  0  0  # atno 7974 bound_to 7965
  154.4063  140.1271  156.4670 H   0  0  0  0  0  0  0  0  0  0  0  0  # atno 8008 bound_to 7997
  155.7216  140.3492  155.4999 H   0  0  0  0  0  0  0  0  0  0  0  0  # atno 8009 bound_to 7997
  155.9209  140.1052  157.1198 H   0  0  0  0  0  0  0  0  0  0  0  0  # atno 8010 bound_to 7997
  140.5953  143.2349  151.6049 H   0  0  0  0  0  0  0  0  0  0  0  0  # atno 10167 bound_to 10162
  156.6196  130.8885  151.2955 H   0  0  0  0  0  0  0  0  0  0  0  0  # atno 10718 bound_to 10713
  152.9837  135.6063  154.3314 H   0  0  0  0  0  0  0  0  0  0  0  0  # atno 10763 bound_to 10752
  154.3017  135.2772  155.2609 H   0  0  0  0  0  0  0  0  0  0  0  0  # atno 10764 bound_to 10752
  154.4859  135.5905  153.6479 H   0  0  0  0  0  0  0  0  0  0  0  0  # atno 10765 bound_to 10752
  140.2889  134.2887  155.7781 H   0  0  0  0  0  0  0  0  0  0  0  0  # atno 11005 bound_to 11000
  145.4401  141.0422  143.2862 LP  0  0  0  0  0  0  0  0  0  0  0  0  # atno 17320 bound_to 7965
  144.8129  139.5929  143.7021 LP  0  0  0  0  0  0  0  0  0  0  0  0  # atno 17321 bound_to 7965
  139.5254  144.3075  152.1021 LP  0  0  0  0  0  0  0  0  0  0  0  0  # atno 17342 bound_to 10162
  140.2247  144.4430  150.6326 LP  0  0  0  0  0  0  0  0  0  0  0  0  # atno 17343 bound_to 10162
  157.7231  130.9585  150.1521 LP  0  0  0  0  0  0  0  0  0  0  0  0  # atno 17370 bound_to 10713
  156.2322  130.3683  149.8432 LP  0  0  0  0  0  0  0  0  0  0  0  0  # atno 17371 bound_to 10713
  141.2150  133.7572  156.9594 LP  0  0  0  0  0  0  0  0  0  0  0  0  # atno 17394 bound_to 11000
  140.1214  134.9414  157.2209 LP  0  0  0  0  0  0  0  0  0  0  0  0  # atno 17395 bound_to 11000

$$$$
