AV-unprocessed.smi:283|AV-procd|sdf|2150|dock2
  -GOLD-   2262021483D 1   1.00000     0.00000
 Structure written by MMmdl.
 48 51  0  0  0  0  0  0  0  0  1 V2000
  152.8238  139.0384  159.5572 C   0  0  0  0  0  0  0  0  0  0  0  0
  153.1099  140.3657  158.8417 C   0  0  1  0  0  0  0  0  0  0  0  0
  152.3559  140.4214  157.5913 N   0  0  0  0  0  0  0  0  0  0  0  0
  152.3435  139.3842  156.7244 C   0  0  0  0  0  0  0  0  0  0  0  0
  153.0229  139.5853  155.5705 N   0  0  0  0  0  0  0  0  0  0  0  0
  153.0902  138.6163  154.6550 C   0  0  0  0  0  0  0  0  0  0  0  0
  152.5578  137.3948  154.6948 N   0  0  0  0  0  0  0  0  0  0  0  0
  151.8556  137.1839  155.8460 C   0  0  0  0  0  0  0  0  0  0  0  0
  151.6968  138.1250  156.9053 C   0  0  0  0  0  0  0  0  0  0  0  0
  150.9100  137.5625  157.9032 N   0  0  0  0  0  0  0  0  0  0  0  0
  150.6410  136.3631  157.4682 C   0  0  0  0  0  0  0  0  0  0  0  0
  151.1689  136.0488  156.2371 N   0  0  0  0  0  0  0  0  0  0  0  0
  151.0159  134.7511  155.4980 C   0  0  2  0  0  0  0  0  0  0  0  0
  149.6579  134.5146  155.2790 O   0  0  0  0  0  0  0  0  0  0  0  0
  149.3314  133.1687  155.6123 C   0  0  2  0  0  0  0  0  0  0  0  0
  147.8428  133.0316  155.9795 C   0  0  0  0  0  0  0  0  0  0  0  0
  147.0336  133.3479  154.8667 O   0  0  0  0  0  0  0  0  0  0  0  0
  150.3255  132.8070  156.7256 C   0  0  2  0  0  0  0  0  0  0  0  0
  149.8628  133.2270  157.9978 O   0  0  0  0  0  0  0  0  0  0  0  0
  151.5809  133.5487  156.2819 C   0  0  2  0  0  0  0  0  0  0  0  0
  152.4620  133.8624  157.3478 O   0  0  0  0  0  0  0  0  0  0  0  0
  152.8701  141.5437  159.7913 C   0  0  0  0  0  0  0  0  0  0  0  0
  153.4267  141.5285  161.0918 C   0  0  0  0  0  0  0  0  0  0  0  0
  153.2089  142.5989  161.9793 C   0  0  0  0  0  0  0  0  0  0  0  0
  152.4393  143.7033  161.5728 C   0  0  0  0  0  0  0  0  0  0  0  0
  151.8941  143.7375  160.2763 C   0  0  0  0  0  0  0  0  0  0  0  0
  152.1090  142.6685  159.3833 C   0  0  0  0  0  0  0  0  0  0  0  0
  151.4268  142.7729  157.7979 Cl  0  0  0  0  0  0  0  0  0  0  0  0
  151.5333  134.9209  154.5530 H   0  0  0  0  0  0  0  0  0  0  0  0
  149.5609  132.5444  154.7465 H   0  0  0  0  0  0  0  0  0  0  0  0
  150.4934  131.7305  156.7733 H   0  0  0  0  0  0  0  0  0  0  0  0
  152.1181  132.9264  155.5650 H   0  0  0  0  0  0  0  0  0  0  0  0
  153.4441  138.9299  160.4476 H   0  0  0  0  0  0  0  0  0  0  0  0
  153.0326  138.1885  158.9069 H   0  0  0  0  0  0  0  0  0  0  0  0
  151.7806  138.9721  159.8685 H   0  0  0  0  0  0  0  0  0  0  0  0
  154.1603  140.3494  158.5558 H   0  0  0  0  0  0  0  0  0  0  0  0
  152.0700  141.3489  157.3133 H   0  0  0  0  0  0  0  0  0  0  0  0
  153.6532  138.8515  153.7639 H   0  0  0  0  0  0  0  0  0  0  0  0
  150.0376  135.6699  158.0357 H   0  0  0  0  0  0  0  0  0  0  0  0
  147.6181  132.0022  156.2604 H   0  0  0  0  0  0  0  0  0  0  0  0
  147.5815  133.6652  156.8277 H   0  0  0  0  0  0  0  0  0  0  0  0
  147.5631  133.3014  154.0855 H   0  0  0  0  0  0  0  0  0  0  0  0
  149.0634  132.7651  158.1975 H   0  0  0  0  0  0  0  0  0  0  0  0
  152.7081  134.7718  157.2760 H   0  0  0  0  0  0  0  0  0  0  0  0
  154.0227  140.6900  161.4206 H   0  0  0  0  0  0  0  0  0  0  0  0
  153.6321  142.5714  162.9726 H   0  0  0  0  0  0  0  0  0  0  0  0
  152.2704  144.5252  162.2528 H   0  0  0  0  0  0  0  0  0  0  0  0
  151.3089  144.5903  159.9654 H   0  0  0  0  0  0  0  0  0  0  0  0
  1  2  1  0  0  0  0
  1 33  1  0  0  0  0
  1 34  1  0  0  0  0
  1 35  1  0  0  0  0
  2  3  1  0  0  0  0
  2 22  1  0  0  0  0
  2 36  1  0  0  0  0
  3  4  1  0  0  0  0
  3 37  1  0  0  0  0
  4  9  1  0  0  0  0
  4  5  2  0  0  0  0
  5  6  1  0  0  0  0
  6  7  2  0  0  0  0
  6 38  1  0  0  0  0
  7  8  1  0  0  0  0
  8 12  1  0  0  0  0
  8  9  2  0  0  0  0
  9 10  1  0  0  0  0
 10 11  2  0  0  0  0
 11 12  1  0  0  0  0
 11 39  1  0  0  0  0
 12 13  1  0  0  0  0
 13 29  1  0  0  0  0
 13 20  1  0  0  0  0
 13 14  1  0  0  0  0
 14 15  1  0  0  0  0
 15 30  1  0  0  0  0
 15 16  1  0  0  0  0
 15 18  1  0  0  0  0
 16 17  1  0  0  0  0
 16 40  1  0  0  0  0
 16 41  1  0  0  0  0
 17 42  1  0  0  0  0
 18 31  1  0  0  0  0
 18 19  1  0  0  0  0
 18 20  1  0  0  0  0
 19 43  1  0  0  0  0
 20 32  1  0  0  0  0
 20 21  1  0  0  0  0
 21 44  1  0  0  0  0
 22 27  1  0  0  0  0
 22 23  2  0  0  0  0
 23 24  1  0  0  0  0
 23 45  1  0  0  0  0
 24 25  2  0  0  0  0
 24 46  1  0  0  0  0
 25 26  1  0  0  0  0
 25 47  1  0  0  0  0
 26 27  2  0  0  0  0
 26 48  1  0  0  0  0
 27 28  1  0  0  0  0
M  END
> <s_m_source_file>
AV-unprocessed.smi

> <i_m_source_file_index>
283

> <i_lp_mmshare_version>
43012

> <i_f3d_flags>
0

> <s_epik_input>
Q2xjMVtjSF1bY0hdW2NIXVtjSF1jMVtDQEhdKFtDSDNdKVtOSF1jKG5bY0hdbjIpYyhjMjMpbltjSF1uM1tDQEBIXTRPW0NASF0oW0NIMl1bT0hdKVtDQEBIXShbT0hdKVtDQEhdNFtPSF0=

> <s_epik_cmdline>
J2VwaWtfcHl0aG9uJywgJy1waCcsICc3LjAnLCAnLXRuJywgJzgnLCAnLW1hJywgJzIwMCcsICctbWV0YWxfYmluZGluZycsICctaW1hZScsICc8aW5maWxlLm1hZT4nLCAnLW9tYWUnLCAnPG91dGZpbGUubWFlPic=

> <r_lp_tautomer_probability>
1

> <r_epik_Ionization_Penalty>
0.000266407

> <r_epik_Ionization_Penalty_Charging>
0

> <r_epik_Ionization_Penalty_Neutral>
0.000266407

> <r_epik_State_Penalty>
-0

> <r_epik_Charging_Adjusted_Penalty>
0

> <i_epik_Tot_Q>
0

> <i_epik_Tot_abs_Q>
0

> <r_epik_Metal_State_Penalty>
-0

> <b_epik_Metal_Only>
0

> <s_epik_Chemistry_Notes>
This compound contains an acetal/aminal-like group ( X-CH(R)-Y where X, Y are N, S, or O) that may be acid/base labile, releasing an aldehyde.

> <s_lp_Force_Field>
OPLS_2005

> <r_lp_Energy>
56.8802

> <b_lp_Chiralities_Consistent>
1

> <s_lp_Variant>
AV-unprocessed.smi:283-26

> <Gold.Version>
5.8.1

> <Gold.Id.Protein>
6NUR|6NUR_protein|mol2

> <Gold.PLP.Fitness>
52.5949

> <Gold.PLP.PLP>
-46.3912

> <Gold.PLP.part.hbond>
-4.0000

> <Gold.PLP.part.metal>
0.0000

> <Gold.PLP.part.buried>
-7.1186

> <Gold.PLP.part.nonpolar>
-34.8814

> <Gold.PLP.part.repulsive>
0.2951

> <Gold.PLP.ligand.clash>
0.0000

> <Gold.PLP.ligand.torsion>
0.9566

> <Gold.PLP.Chemscore.Hbond>
2.6720

> <Gold.PLP.Chemscore.CHOScore>
0.0000

> <Gold.PLP.Chemscore.Metal>
0.0000

> <Gold.Chemscore.Hbonds>
donor molecule, donor type, donor heavy atom, donor atom, acceptor molecule, acceptor atom, score
      P1  H  6896  6907       L1    19  1.00
      P1  H  6896  6909       L1    21  0.04
      P1  H  7997  8008       L1     5  1.00
      P1  H 10752 10763       L1     7  0.51

> <Gold.PLP.Chemscore.Internal.Correction>
0.1009

> <Gold.Rescore>
     Score         DG    S(hbond)    S(metal)    S(lipo)     H(rot)  DE(clash)    DE(int)     intcor
     10.25     -15.07       2.32        0.00     105.22       4.10       0.01       4.80       ----

> <Gold.Chemscore.Fitness>
10.2518

> <Gold.Chemscore.DG>
-15.0653

> <Gold.Chemscore.ZeroCoef>
-5.4800

> <Gold.Chemscore.Hbond>
2.3242

> <Gold.Chemscore.Metal>
0.0000

> <Gold.Chemscore.Lipo>
105.2165

> <Gold.Chemscore.Internal_Hbond>
0.0000

> <Gold.Chemscore.DEClash>
0.0106

> <Gold.Chemscore.DEInternal>
4.8029

> <Gold.Chemscore.Rot>
4.0968

> <Gold.Chemscore.Internal.Correction>
   9.000000E+99

> <Gold.Chemscore.Hbonds>
donor molecule, donor type, donor heavy atom, donor atom, acceptor molecule, acceptor atom, score
      P1  H  6896  6907       L1    19  0.97
      P1  H  6896  6909       L1    21  0.01
      P1  H  7997  8008       L1     5  0.54
      P1  H 10752 10763       L1     7  0.23

> <Gold.Chemscore.Hbond.Weighted>
-7.7629

> <Gold.Chemscore.Metal.Weighted>
-0.0000

> <Gold.Chemscore.Lipo.Weighted>
-12.3103

> <Gold.Chemscore.Internal_Hbond.Weighted>
0.0000

> <Gold.Chemscore.DEClash.Weighted>
0.0106

> <Gold.Chemscore.DEInternal.Weighted>
4.8029

> <Gold.Chemscore.Rot.Weighted>
10.4879

> <Gold.Chemscore.Internal.Correction.Weighted>
   9.000000E+99

> <Gold.Protein.RotatedTorsions>
[ 6907 6896 6895 6894 ] final -120.84 input  -60.11 | X-H torsion
[ 7974 7965 7964 7962 ] final    8.27 input  175.53 | X-H torsion
[ 8008 7997 7996 7995 ] final  -17.44 input   59.86 | X-H torsion
[ 10167 10162 10161 10158 ] final  103.09 input  -65.29 | X-H torsion
[ 10718 10713 10712 10709 ] final   82.98 input   66.30 | X-H torsion
[ 10763 10752 10751 10750 ] final   31.76 input  -60.55 | X-H torsion
[ 11005 11000 10999 10996 ] final -162.80 input  -57.11 | X-H torsion

> <Gold.Protein.ActiveResidues>
 VAL166  LYS551  ARG553  GLY616  TRP617  ASP618  TYR619  PRO620  LYS621  CYS622 
 ASP623  PHE694  ASN695  SER759  ASP760  ASP761  ALA762  ILE779  LEU786  VAL792 
 PHE793  MET794  SER795  GLU796  ALA797  LYS798  CYS799  TRP800  GLU811  SER814 

> <Gold.Protein.RotatedAtoms>
  150.8429  133.7907  159.3053 H   0  0  0  0  0  0  0  0  0  0  0  0  # atno 6907 bound_to 6896
  151.5602  135.1064  159.9980 H   0  0  0  0  0  0  0  0  0  0  0  0  # atno 6908 bound_to 6896
  152.4489  133.7548  159.6770 H   0  0  0  0  0  0  0  0  0  0  0  0  # atno 6909 bound_to 6896
  146.2418  139.9958  142.8421 H   0  0  0  0  0  0  0  0  0  0  0  0  # atno 7974 bound_to 7965
  154.4978  140.2142  155.9410 H   0  0  0  0  0  0  0  0  0  0  0  0  # atno 8008 bound_to 7997
  156.1394  140.3182  155.8439 H   0  0  0  0  0  0  0  0  0  0  0  0  # atno 8009 bound_to 7997
  155.4149  140.0493  157.3020 H   0  0  0  0  0  0  0  0  0  0  0  0  # atno 8010 bound_to 7997
  139.7293  144.7040  151.0747 H   0  0  0  0  0  0  0  0  0  0  0  0  # atno 10167 bound_to 10162
  157.6869  131.0071  150.2455 H   0  0  0  0  0  0  0  0  0  0  0  0  # atno 10718 bound_to 10713
  153.0298  135.6430  154.1250 H   0  0  0  0  0  0  0  0  0  0  0  0  # atno 10763 bound_to 10752
  154.0973  135.2862  155.3260 H   0  0  0  0  0  0  0  0  0  0  0  0  # atno 10764 bound_to 10752
  154.6423  135.5455  153.7867 H   0  0  0  0  0  0  0  0  0  0  0  0  # atno 10765 bound_to 10752
  140.6052  134.4906  157.5209 H   0  0  0  0  0  0  0  0  0  0  0  0  # atno 11005 bound_to 11000
  145.1461  140.9598  143.4460 LP  0  0  0  0  0  0  0  0  0  0  0  0  # atno 17320 bound_to 7965
  145.0249  139.3391  143.6053 LP  0  0  0  0  0  0  0  0  0  0  0  0  # atno 17321 bound_to 7965
  140.7768  143.5064  150.9707 LP  0  0  0  0  0  0  0  0  0  0  0  0  # atno 17342 bound_to 10162
  139.8752  143.7142  152.3162 LP  0  0  0  0  0  0  0  0  0  0  0  0  # atno 17343 bound_to 10162
  156.3061  130.3765  149.7705 LP  0  0  0  0  0  0  0  0  0  0  0  0  # atno 17370 bound_to 10713
  156.5319  130.8261  151.3240 LP  0  0  0  0  0  0  0  0  0  0  0  0  # atno 17371 bound_to 10713
  139.9215  134.8139  156.1196 LP  0  0  0  0  0  0  0  0  0  0  0  0  # atno 17394 bound_to 11000
  141.0845  133.6740  156.2407 LP  0  0  0  0  0  0  0  0  0  0  0  0  # atno 17395 bound_to 11000

$$$$
