AV-unprocessed.smi:1726|AV-procd|sdf|6958|dock7
  -GOLD-   22720 8173D 1   1.00000     0.00000
 Structure written by MMmdl.
 43 44  0  0  0  0  0  0  0  0  2 V2000
  150.6480  138.6764  156.3463 C   0  0  0  0  0  0  0  0  0  0  0  0
  150.5662  137.7800  155.1020 C   0  0  0  0  0  0  0  0  0  0  0  0
  149.2471  137.8704  154.4282 N   0  3  2  0  0  0  0  0  0  0  0  0
  148.9542  139.2407  153.9332 C   0  0  0  0  0  0  0  0  0  0  0  0
  147.6556  139.2693  153.1078 C   0  0  0  0  0  0  0  0  0  0  0  0
  146.4730  138.6854  153.8991 C   0  0  0  0  0  0  0  0  0  0  0  0
  146.8134  137.2874  154.4456 C   0  0  1  0  0  0  0  0  0  0  0  0
  146.9028  136.3302  153.3421 N   0  0  0  0  0  0  0  0  0  0  0  0
  145.9438  135.4642  152.9851 C   0  0  0  0  0  0  0  0  0  0  0  0
  144.8632  135.3792  153.5675 O   0  0  0  0  0  0  0  0  0  0  0  0
  146.3427  134.7082  151.9462 N   0  0  0  0  0  0  0  0  0  0  0  0
  145.6485  133.6914  151.2693 C   0  0  0  0  0  0  0  0  0  0  0  0
  145.6713  132.3759  151.6086 C   0  0  0  0  0  0  0  0  0  0  0  0
  144.9177  131.3760  150.8704 C   0  0  0  0  0  0  0  0  0  0  0  0
  145.0173  129.8962  151.2062 C   0  0  0  0  0  0  0  0  0  0  0  0
  145.7844  129.6938  152.2786 F   0  0  0  0  0  0  0  0  0  0  0  0
  143.8127  129.3788  151.4492 F   0  0  0  0  0  0  0  0  0  0  0  0
  145.5538  129.2348  150.1814 F   0  0  0  0  0  0  0  0  0  0  0  0
  144.1965  131.8194  149.8242 C   0  0  0  0  0  0  0  0  0  0  0  0
  144.1498  133.1729  149.4829 N   0  0  0  0  0  0  0  0  0  0  0  0
  144.8272  134.1445  150.1344 C   0  0  0  0  0  0  0  0  0  0  0  0
  144.7382  135.3166  149.7700 O   0  0  0  0  0  0  0  0  0  0  0  0
  148.1268  137.3504  155.2567 C   0  0  0  0  0  0  0  0  0  0  0  0
  143.5731  133.4277  148.6939 H   0  0  0  0  0  0  0  0  0  0  0  0
  151.5905  138.5182  156.8709 H   0  0  0  0  0  0  0  0  0  0  0  0
  149.8409  138.4542  157.0453 H   0  0  0  0  0  0  0  0  0  0  0  0
  150.5931  139.7353  156.0956 H   0  0  0  0  0  0  0  0  0  0  0  0
  151.3651  138.0185  154.3983 H   0  0  0  0  0  0  0  0  0  0  0  0
  150.7357  136.7518  155.4243 H   0  0  0  0  0  0  0  0  0  0  0  0
  148.8783  139.9255  154.7796 H   0  0  0  0  0  0  0  0  0  0  0  0
  149.7781  139.5947  153.3125 H   0  0  0  0  0  0  0  0  0  0  0  0
  147.4300  140.2926  152.8059 H   0  0  0  0  0  0  0  0  0  0  0  0
  147.7977  138.7043  152.1856 H   0  0  0  0  0  0  0  0  0  0  0  0
  146.2346  139.3497  154.7309 H   0  0  0  0  0  0  0  0  0  0  0  0
  145.5802  138.6465  153.2735 H   0  0  0  0  0  0  0  0  0  0  0  0
  146.0029  136.9701  155.1043 H   0  0  0  0  0  0  0  0  0  0  0  0
  147.7569  136.3370  152.8034 H   0  0  0  0  0  0  0  0  0  0  0  0
  147.2874  134.8537  151.6211 H   0  0  0  0  0  0  0  0  0  0  0  0
  146.2367  132.0311  152.4588 H   0  0  0  0  0  0  0  0  0  0  0  0
  143.6139  131.1834  149.1738 H   0  0  0  0  0  0  0  0  0  0  0  0
  148.3661  136.3614  155.6451 H   0  0  0  0  0  0  0  0  0  0  0  0
  147.9949  137.9932  156.1286 H   0  0  0  0  0  0  0  0  0  0  0  0
  149.3061  137.2815  153.6099 H   0  0  0  0  0  0  0  0  0  0  0  0
  1  2  1  0  0  0  0
  1 25  1  0  0  0  0
  1 26  1  0  0  0  0
  1 27  1  0  0  0  0
  2  3  1  0  0  0  0
  2 28  1  0  0  0  0
  2 29  1  0  0  0  0
  3 23  1  0  0  0  0
  3  4  1  0  0  0  0
  3 43  1  0  0  0  0
  4  5  1  0  0  0  0
  4 30  1  0  0  0  0
  4 31  1  0  0  0  0
  5  6  1  0  0  0  0
  5 32  1  0  0  0  0
  5 33  1  0  0  0  0
  6  7  1  0  0  0  0
  6 34  1  0  0  0  0
  6 35  1  0  0  0  0
  7  8  1  0  0  0  0
  7 23  1  0  0  0  0
  7 36  1  0  0  0  0
  8  9  1  0  0  0  0
  8 37  1  0  0  0  0
  9 10  2  0  0  0  0
  9 11  1  0  0  0  0
 11 12  1  0  0  0  0
 11 38  1  0  0  0  0
 12 21  1  0  0  0  0
 12 13  2  0  0  0  0
 13 14  1  0  0  0  0
 13 39  1  0  0  0  0
 14 15  1  0  0  0  0
 14 19  2  0  0  0  0
 15 16  1  0  0  0  0
 15 17  1  0  0  0  0
 15 18  1  0  0  0  0
 19 20  1  0  0  0  0
 19 40  1  0  0  0  0
 20 24  1  0  0  0  0
 20 21  1  0  0  0  0
 21 22  2  0  0  0  0
 23 41  1  0  0  0  0
 23 42  1  0  0  0  0
M  CHG  1   3   1
M  END
> <s_m_source_file>
AV-unprocessed.smi

> <i_m_source_file_index>
1726

> <i_lp_mmshare_version>
43012

> <i_f3d_flags>
0

> <s_epik_input>
W0NIM11bQ0gyXU4xW0NIMl1bQ0gyXVtDSDJdW0NASF0oW0NIMl0xKVtOSF1DKD1PKVtOSF1jMltjSF1jKEMoRikoRilGKVtjSF1bbkhdYzI9Tw==

> <s_epik_cmdline>
J2VwaWtfcHl0aG9uJywgJy1waCcsICc3LjAnLCAnLXRuJywgJzgnLCAnLW1hJywgJzIwMCcsICctbWV0YWxfYmluZGluZycsICctaW1hZScsICc8aW5maWxlLm1hZT4nLCAnLW9tYWUnLCAnPG91dGZpbGUubWFlPic=

> <r_lp_tautomer_probability>
1

> <r_epik_Ionization_Penalty>
0.00745721

> <r_epik_Ionization_Penalty_Charging>
0.00743804

> <r_epik_Ionization_Penalty_Neutral>
1.91703e-05

> <r_epik_State_Penalty>
-0

> <r_epik_Charging_Adjusted_Penalty>
0.00743804

> <i_epik_Tot_Q>
1

> <i_epik_Tot_abs_Q>
1

> <r_epik_Metal_State_Penalty>
0.37929

> <b_epik_Metal_Only>
0

> <s_lp_Force_Field>
OPLS_2005

> <r_lp_Energy>
34.544

> <b_lp_Chiralities_Consistent>
1

> <s_lp_Variant>
AV-unprocessed.smi:1726-2

> <Gold.Version>
5.8.1

> <Gold.Id.Protein>
6NUR|6NUR_protein|mol2

> <Gold.PLP.Fitness>
42.7622

> <Gold.PLP.PLP>
-33.3678

> <Gold.PLP.part.hbond>
-3.5486

> <Gold.PLP.part.metal>
0.0000

> <Gold.PLP.part.buried>
0.3800

> <Gold.PLP.part.nonpolar>
-30.9629

> <Gold.PLP.part.repulsive>
0.3565

> <Gold.PLP.ligand.clash>
0.0000

> <Gold.PLP.ligand.torsion>
1.0472

> <Gold.PLP.Chemscore.Hbond>
3.8130

> <Gold.PLP.Chemscore.CHOScore>
0.0000

> <Gold.PLP.Chemscore.Metal>
0.0000

> <Gold.Chemscore.Hbonds>
donor molecule, donor type, donor heavy atom, donor atom, acceptor molecule, acceptor atom, score
      L1  H     3    43       P1  7948  1.92
      L1  H     8    37       P1  7948  0.99
      L1  H    11    38       P1  7948  0.65

> <Gold.PLP.Chemscore.Internal.Correction>
0.0497

> <Gold.Rescore>
     Score         DG    S(hbond)    S(metal)    S(lipo)     H(rot)  DE(clash)    DE(int)     intcor
     16.35     -19.13       2.40        0.00      76.23       1.29       1.94       0.83       ----

> <Gold.Chemscore.Fitness>
16.3523

> <Gold.Chemscore.DG>
-19.1290

> <Gold.Chemscore.ZeroCoef>
-5.4800

> <Gold.Chemscore.Hbond>
2.4036

> <Gold.Chemscore.Metal>
0.0000

> <Gold.Chemscore.Lipo>
76.2328

> <Gold.Chemscore.Internal_Hbond>
0.0000

> <Gold.Chemscore.DEClash>
1.9418

> <Gold.Chemscore.DEInternal>
0.8348

> <Gold.Chemscore.Rot>
1.2884

> <Gold.Chemscore.Internal.Correction>
   9.000000E+99

> <Gold.Chemscore.Hbonds>
donor molecule, donor type, donor heavy atom, donor atom, acceptor molecule, acceptor atom, score
      L1  H     3    43       P1  7948  0.90
      L1  H     8    37       P1  7948  0.92
      L1  H    11    38       P1  7948  0.45

> <Gold.Chemscore.Hbond.Weighted>
-8.0281

> <Gold.Chemscore.Metal.Weighted>
-0.0000

> <Gold.Chemscore.Lipo.Weighted>
-8.9192

> <Gold.Chemscore.Internal_Hbond.Weighted>
0.0000

> <Gold.Chemscore.DEClash.Weighted>
1.9418

> <Gold.Chemscore.DEInternal.Weighted>
0.8348

> <Gold.Chemscore.Rot.Weighted>
3.2983

> <Gold.Chemscore.Internal.Correction.Weighted>
   9.000000E+99

> <Gold.Protein.RotatedTorsions>
[ 6907 6896 6895 6894 ] final -119.85 input  -60.11 | X-H torsion
[ 7974 7965 7964 7962 ] final   30.74 input  175.53 | X-H torsion
[ 8008 7997 7996 7995 ] final  -99.65 input   59.86 | X-H torsion
[ 10167 10162 10161 10158 ] final  169.51 input  -65.29 | X-H torsion
[ 10718 10713 10712 10709 ] final   98.72 input   66.30 | X-H torsion
[ 10763 10752 10751 10750 ] final   88.07 input  -60.55 | X-H torsion
[ 11005 11000 10999 10996 ] final   28.10 input  -57.11 | X-H torsion

> <Gold.Protein.ActiveResidues>
 VAL166  LYS551  ARG553  GLY616  TRP617  ASP618  TYR619  PRO620  LYS621  CYS622 
 ASP623  PHE694  ASN695  SER759  ASP760  ASP761  ALA762  ILE779  LEU786  VAL792 
 PHE793  MET794  SER795  GLU796  ALA797  LYS798  CYS799  TRP800  GLU811  SER814 

> <Gold.Protein.RotatedAtoms>
  150.8341  133.8043  159.3086 H   0  0  0  0  0  0  0  0  0  0  0  0  # atno 6907 bound_to 6896
  151.5764  135.1059  160.0016 H   0  0  0  0  0  0  0  0  0  0  0  0  # atno 6908 bound_to 6896
  152.4416  133.7417  159.6701 H   0  0  0  0  0  0  0  0  0  0  0  0  # atno 6909 bound_to 6896
  146.1593  139.6748  142.9045 H   0  0  0  0  0  0  0  0  0  0  0  0  # atno 7974 bound_to 7965
  154.8178  140.0446  157.1389 H   0  0  0  0  0  0  0  0  0  0  0  0  # atno 8008 bound_to 7997
  154.9294  140.3038  155.5155 H   0  0  0  0  0  0  0  0  0  0  0  0  # atno 8009 bound_to 7997
  156.2977  140.2326  156.4353 H   0  0  0  0  0  0  0  0  0  0  0  0  # atno 8010 bound_to 7997
  139.4994  144.3698  151.9737 H   0  0  0  0  0  0  0  0  0  0  0  0  # atno 10167 bound_to 10162
  157.6890  131.0648  150.4840 H   0  0  0  0  0  0  0  0  0  0  0  0  # atno 10718 bound_to 10713
  153.1732  135.4520  154.9930 H   0  0  0  0  0  0  0  0  0  0  0  0  # atno 10763 bound_to 10752
  154.7980  135.3245  154.7622 H   0  0  0  0  0  0  0  0  0  0  0  0  # atno 10764 bound_to 10752
  153.8096  135.6956  153.4898 H   0  0  0  0  0  0  0  0  0  0  0  0  # atno 10765 bound_to 10752
  140.3192  134.2563  155.7720 H   0  0  0  0  0  0  0  0  0  0  0  0  # atno 11005 bound_to 11000
  145.4629  141.0433  143.2741 LP  0  0  0  0  0  0  0  0  0  0  0  0  # atno 17320 bound_to 7965
  144.8005  139.6150  143.7073 LP  0  0  0  0  0  0  0  0  0  0  0  0  # atno 17321 bound_to 7965
  140.3134  144.3511  150.6028 LP  0  0  0  0  0  0  0  0  0  0  0  0  # atno 17342 bound_to 10162
  140.5780  143.2175  151.7479 LP  0  0  0  0  0  0  0  0  0  0  0  0  # atno 17343 bound_to 10162
  156.5170  130.4153  149.6271 LP  0  0  0  0  0  0  0  0  0  0  0  0  # atno 17370 bound_to 10713
  156.3189  130.7269  151.2177 LP  0  0  0  0  0  0  0  0  0  0  0  0  # atno 17371 bound_to 10713
  141.2090  133.7760  157.0021 LP  0  0  0  0  0  0  0  0  0  0  0  0  # atno 17394 bound_to 11000
  140.0957  134.9566  157.1846 LP  0  0  0  0  0  0  0  0  0  0  0  0  # atno 17395 bound_to 11000

$$$$
