AV-unprocessed.smi:3011|AV-procd|sdf|11458|dock2
  -GOLD-   2272016393D 1   1.00000     0.00000
 Structure written by MMmdl.
 46 48  0  0  0  0  0  0  0  0  1 V2000
  155.9824  139.2379  159.8792 C   0  0  0  0  0  0  0  0  0  0  0  0
  154.7893  139.6173  159.2094 O   0  0  0  0  0  0  0  0  0  0  0  0
  153.9956  140.5888  159.7831 C   0  0  0  0  0  0  0  0  0  0  0  0
  154.2657  141.1771  161.0447 C   0  0  0  0  0  0  0  0  0  0  0  0
  153.4194  142.1726  161.5652 C   0  0  0  0  0  0  0  0  0  0  0  0
  152.2968  142.5927  160.8325 C   0  0  0  0  0  0  0  0  0  0  0  0
  152.0190  142.0163  159.5799 C   0  0  0  0  0  0  0  0  0  0  0  0
  152.8636  141.0097  159.0467 C   0  0  0  0  0  0  0  0  0  0  0  0
  152.6447  140.3969  157.8302 O   0  0  0  0  0  0  0  0  0  0  0  0
  151.3660  140.5321  157.2257 C   0  0  0  0  0  0  0  0  0  0  0  0
  151.1546  139.4092  156.2009 C   0  0  0  0  0  0  0  0  0  0  0  0
  149.7455  139.1800  155.9088 N   0  0  0  0  0  0  0  0  0  0  0  0
  148.9733  138.0927  156.1769 C   0  0  0  0  0  0  0  0  0  0  0  0
  149.4910  136.8651  156.8833 C   0  0  1  0  0  0  0  0  0  0  0  0
  148.6316  136.4926  158.1001 C   0  0  0  0  0  0  0  0  0  0  0  0
  149.5193  135.7629  155.9283 N   0  0  0  0  0  0  0  0  0  0  0  0
  150.6287  135.1038  155.5727 C   0  0  0  0  0  0  0  0  0  0  0  0
  151.7408  135.3677  156.0223 O   0  0  0  0  0  0  0  0  0  0  0  0
  147.7127  138.1633  155.7404 N   0  0  0  0  0  0  0  0  0  0  0  0
  147.6510  139.4182  155.1715 C   0  0  0  0  0  0  0  0  0  0  0  0
  146.5770  140.0906  154.5458 C   0  0  0  0  0  0  0  0  0  0  0  0
  146.7523  141.3922  154.0318 C   0  0  0  0  0  0  0  0  0  0  0  0
  148.0014  142.0372  154.1355 C   0  0  0  0  0  0  0  0  0  0  0  0
  149.0849  141.3831  154.7530 C   0  0  0  0  0  0  0  0  0  0  0  0
  148.9048  140.0834  155.2644 C   0  0  0  0  0  0  0  0  0  0  0  0
  156.4818  138.4564  159.3069 H   0  0  0  0  0  0  0  0  0  0  0  0
  155.7723  138.8355  160.8711 H   0  0  0  0  0  0  0  0  0  0  0  0
  156.6749  140.0760  159.9662 H   0  0  0  0  0  0  0  0  0  0  0  0
  155.1204  140.8834  161.6349 H   0  0  0  0  0  0  0  0  0  0  0  0
  153.6337  142.6153  162.5267 H   0  0  0  0  0  0  0  0  0  0  0  0
  151.6466  143.3575  161.2312 H   0  0  0  0  0  0  0  0  0  0  0  0
  151.1460  142.3630  159.0491 H   0  0  0  0  0  0  0  0  0  0  0  0
  150.5773  140.4912  157.9782 H   0  0  0  0  0  0  0  0  0  0  0  0
  151.2994  141.4967  156.7203 H   0  0  0  0  0  0  0  0  0  0  0  0
  151.6521  139.6772  155.2685 H   0  0  0  0  0  0  0  0  0  0  0  0
  151.6261  138.4823  156.5252 H   0  0  0  0  0  0  0  0  0  0  0  0
  150.5023  137.0338  157.2496 H   0  0  0  0  0  0  0  0  0  0  0  0
  148.5871  137.3168  158.8124 H   0  0  0  0  0  0  0  0  0  0  0  0
  149.0413  135.6259  158.6193 H   0  0  0  0  0  0  0  0  0  0  0  0
  147.6081  136.2520  157.8109 H   0  0  0  0  0  0  0  0  0  0  0  0
  148.6434  135.4956  155.5035 H   0  0  0  0  0  0  0  0  0  0  0  0
  150.4181  134.3100  154.8394 H   0  0  0  0  0  0  0  0  0  0  0  0
  145.6166  139.6039  154.4619 H   0  0  0  0  0  0  0  0  0  0  0  0
  145.9248  141.8976  153.5560 H   0  0  0  0  0  0  0  0  0  0  0  0
  148.1277  143.0344  153.7400 H   0  0  0  0  0  0  0  0  0  0  0  0
  150.0422  141.8760  154.8331 H   0  0  0  0  0  0  0  0  0  0  0  0
  1  2  1  0  0  0  0
  1 26  1  0  0  0  0
  1 27  1  0  0  0  0
  1 28  1  0  0  0  0
  2  3  1  0  0  0  0
  3  8  1  0  0  0  0
  3  4  2  0  0  0  0
  4  5  1  0  0  0  0
  4 29  1  0  0  0  0
  5  6  2  0  0  0  0
  5 30  1  0  0  0  0
  6  7  1  0  0  0  0
  6 31  1  0  0  0  0
  7  8  2  0  0  0  0
  7 32  1  0  0  0  0
  8  9  1  0  0  0  0
  9 10  1  0  0  0  0
 10 11  1  0  0  0  0
 10 33  1  0  0  0  0
 10 34  1  0  0  0  0
 11 12  1  0  0  0  0
 11 35  1  0  0  0  0
 11 36  1  0  0  0  0
 12 25  1  0  0  0  0
 12 13  1  0  0  0  0
 13 14  1  0  0  0  0
 13 19  2  0  0  0  0
 14 15  1  0  0  0  0
 14 16  1  0  0  0  0
 14 37  1  0  0  0  0
 15 38  1  0  0  0  0
 15 39  1  0  0  0  0
 15 40  1  0  0  0  0
 16 17  1  0  0  0  0
 16 41  1  0  0  0  0
 17 18  2  0  0  0  0
 17 42  1  0  0  0  0
 19 20  1  0  0  0  0
 20 25  2  0  0  0  0
 20 21  1  0  0  0  0
 21 22  2  0  0  0  0
 21 43  1  0  0  0  0
 22 23  1  0  0  0  0
 22 44  1  0  0  0  0
 23 24  2  0  0  0  0
 23 45  1  0  0  0  0
 24 25  1  0  0  0  0
 24 46  1  0  0  0  0
M  END
> <s_m_source_file>
AV-unprocessed.smi

> <i_m_source_file_index>
3011

> <i_lp_mmshare_version>
43012

> <i_f3d_flags>
0

> <s_epik_input>
W0NIM11PYzFbY0hdW2NIXVtjSF1bY0hdYzFPW0NIMl1bQ0gyXW4oYyhuMilbQ0BIXShbQ0gzXSlbTkhdW0NIXT1PKWMoYzIzKVtjSF1bY0hdW2NIXVtjSF0z

> <s_epik_cmdline>
J2VwaWtfcHl0aG9uJywgJy1waCcsICc3LjAnLCAnLXRuJywgJzgnLCAnLW1hJywgJzIwMCcsICctbWV0YWxfYmluZGluZycsICctaW1hZScsICc8aW5maWxlLm1hZT4nLCAnLW9tYWUnLCAnPG91dGZpbGUubWFlPic=

> <r_lp_tautomer_probability>
1

> <r_epik_Ionization_Penalty>
0.0924205

> <r_epik_Ionization_Penalty_Charging>
0

> <r_epik_Ionization_Penalty_Neutral>
0.0924205

> <r_epik_State_Penalty>
0.0827154

> <r_epik_Charging_Adjusted_Penalty>
0.0827154

> <i_epik_Tot_Q>
0

> <i_epik_Tot_abs_Q>
0

> <r_epik_Metal_State_Penalty>
0.071464

> <b_epik_Metal_Only>
0

> <s_lp_Force_Field>
OPLS_2005

> <r_lp_Energy>
16.1318

> <b_lp_Chiralities_Consistent>
1

> <s_lp_Variant>
AV-unprocessed.smi:3011-2

> <Gold.Version>
5.8.1

> <Gold.Id.Protein>
6NUR|6NUR_protein|mol2

> <Gold.PLP.Fitness>
42.8232

> <Gold.PLP.PLP>
-37.7958

> <Gold.PLP.part.hbond>
-3.0000

> <Gold.PLP.part.metal>
0.0000

> <Gold.PLP.part.buried>
-3.0990

> <Gold.PLP.part.nonpolar>
-31.5570

> <Gold.PLP.part.repulsive>
0.0567

> <Gold.PLP.ligand.clash>
0.0000

> <Gold.PLP.ligand.torsion>
0.5511

> <Gold.PLP.Chemscore.Hbond>
2.0000

> <Gold.PLP.Chemscore.CHOScore>
0.0000

> <Gold.PLP.Chemscore.Metal>
0.0000

> <Gold.Chemscore.Hbonds>
donor molecule, donor type, donor heavy atom, donor atom, acceptor molecule, acceptor atom, score
      P1  H  7997  8010       L1     2  1.00
      P1  H 10752 10763       L1    18  1.00

> <Gold.PLP.Chemscore.Internal.Correction>
0.1295

> <Gold.Rescore>
     Score         DG    S(hbond)    S(metal)    S(lipo)     H(rot)  DE(clash)    DE(int)     intcor
     16.82     -17.86       1.79        0.00     111.31       2.59       0.40       0.64       ----

> <Gold.Chemscore.Fitness>
16.8198

> <Gold.Chemscore.DG>
-17.8584

> <Gold.Chemscore.ZeroCoef>
-5.4800

> <Gold.Chemscore.Hbond>
1.7933

> <Gold.Chemscore.Metal>
0.0000

> <Gold.Chemscore.Lipo>
111.3062

> <Gold.Chemscore.Internal_Hbond>
0.0000

> <Gold.Chemscore.DEClash>
0.4016

> <Gold.Chemscore.DEInternal>
0.6370

> <Gold.Chemscore.Rot>
2.5914

> <Gold.Chemscore.Internal.Correction>
   9.000000E+99

> <Gold.Chemscore.Hbonds>
donor molecule, donor type, donor heavy atom, donor atom, acceptor molecule, acceptor atom, score
      P1  H  7997  8010       L1     2  0.46
      P1  H 10752 10763       L1    18  0.98

> <Gold.Chemscore.Hbond.Weighted>
-5.9896

> <Gold.Chemscore.Metal.Weighted>
-0.0000

> <Gold.Chemscore.Lipo.Weighted>
-13.0228

> <Gold.Chemscore.Internal_Hbond.Weighted>
0.0000

> <Gold.Chemscore.DEClash.Weighted>
0.4016

> <Gold.Chemscore.DEInternal.Weighted>
0.6370

> <Gold.Chemscore.Rot.Weighted>
6.6340

> <Gold.Chemscore.Internal.Correction.Weighted>
   9.000000E+99

> <Gold.Protein.RotatedTorsions>
[ 6907 6896 6895 6894 ] final -138.76 input  -60.11 | X-H torsion
[ 7974 7965 7964 7962 ] final   65.87 input  175.53 | X-H torsion
[ 8008 7997 7996 7995 ] final  -11.68 input   59.86 | X-H torsion
[ 10167 10162 10161 10158 ] final  133.78 input  -65.29 | X-H torsion
[ 10718 10713 10712 10709 ] final  -99.83 input   66.30 | X-H torsion
[ 10763 10752 10751 10750 ] final   88.40 input  -60.55 | X-H torsion
[ 11005 11000 10999 10996 ] final  100.74 input  -57.11 | X-H torsion

> <Gold.Protein.ActiveResidues>
 VAL166  LYS551  ARG553  GLY616  TRP617  ASP618  TYR619  PRO620  LYS621  CYS622 
 ASP623  PHE694  ASN695  SER759  ASP760  ASP761  ALA762  ILE779  LEU786  VAL792 
 PHE793  MET794  SER795  GLU796  ALA797  LYS798  CYS799  TRP800  GLU811  SER814 

> <Gold.Protein.RotatedAtoms>
  151.0391  133.5722  159.2652 H   0  0  0  0  0  0  0  0  0  0  0  0  # atno 6907 bound_to 6896
  151.2775  135.0703  159.9167 H   0  0  0  0  0  0  0  0  0  0  0  0  # atno 6908 bound_to 6896
  152.5360  134.0111  159.7993 H   0  0  0  0  0  0  0  0  0  0  0  0  # atno 6909 bound_to 6896
  145.8333  139.3152  143.0974 H   0  0  0  0  0  0  0  0  0  0  0  0  # atno 7974 bound_to 7965
  154.5443  140.2296  155.8588 H   0  0  0  0  0  0  0  0  0  0  0  0  # atno 8008 bound_to 7997
  156.1888  140.3082  155.9253 H   0  0  0  0  0  0  0  0  0  0  0  0  # atno 8009 bound_to 7997
  155.3195  140.0440  157.3029 H   0  0  0  0  0  0  0  0  0  0  0  0  # atno 8010 bound_to 7997
  139.5283  144.6599  151.5044 H   0  0  0  0  0  0  0  0  0  0  0  0  # atno 10167 bound_to 10162
  156.0145  130.5300  150.6728 H   0  0  0  0  0  0  0  0  0  0  0  0  # atno 10718 bound_to 10713
  153.1764  135.4508  154.9971 H   0  0  0  0  0  0  0  0  0  0  0  0  # atno 10763 bound_to 10752
  154.8001  135.3252  154.7573 H   0  0  0  0  0  0  0  0  0  0  0  0  # atno 10764 bound_to 10752
  153.8043  135.6960  153.4905 H   0  0  0  0  0  0  0  0  0  0  0  0  # atno 10765 bound_to 10752
  139.8771  134.9153  156.4802 H   0  0  0  0  0  0  0  0  0  0  0  0  # atno 11005 bound_to 11000
  145.9546  140.8882  143.0241 LP  0  0  0  0  0  0  0  0  0  0  0  0  # atno 17320 bound_to 7965
  144.6738  140.1728  143.7413 LP  0  0  0  0  0  0  0  0  0  0  0  0  # atno 17321 bound_to 7965
  140.6443  143.8827  150.6722 LP  0  0  0  0  0  0  0  0  0  0  0  0  # atno 17342 bound_to 10162
  140.2171  143.3838  152.1672 LP  0  0  0  0  0  0  0  0  0  0  0  0  # atno 17343 bound_to 10162
  157.4447  131.0865  151.0907 LP  0  0  0  0  0  0  0  0  0  0  0  0  # atno 17370 bound_to 10713
  157.1441  130.6156  149.5563 LP  0  0  0  0  0  0  0  0  0  0  0  0  # atno 17371 bound_to 10713
  140.8733  133.7972  155.9387 LP  0  0  0  0  0  0  0  0  0  0  0  0  # atno 17394 bound_to 11000
  140.8930  134.2472  157.5084 LP  0  0  0  0  0  0  0  0  0  0  0  0  # atno 17395 bound_to 11000

$$$$
