AV-unprocessed.smi:100|AV-procd|sdf|899|dock4
  -GOLD-   2262017393D 1   1.00000     0.00000
 Structure written by MMmdl.
 31 33  0  0  0  0  0  0  0  0  1 V2000
  153.5827  141.7646  160.6696 N   0  0  0  0  0  0  0  0  0  0  0  0
  153.0079  140.9113  159.8108 C   0  0  0  0  0  0  0  0  0  0  0  0
  153.3581  139.6048  159.8705 N   0  0  0  0  0  0  0  0  0  0  0  0
  152.7986  138.7327  159.0250 C   0  0  0  0  0  0  0  0  0  0  0  0
  151.8918  138.9582  158.0696 N   0  0  0  0  0  0  0  0  0  0  0  0
  151.5445  140.2773  158.0105 C   0  0  0  0  0  0  0  0  0  0  0  0
  152.0521  141.3120  158.8435 C   0  0  0  0  0  0  0  0  0  0  0  0
  151.4674  142.5243  158.5003 N   0  0  0  0  0  0  0  0  0  0  0  0
  150.6612  142.2178  157.5187 C   0  0  0  0  0  0  0  0  0  0  0  0
  150.6502  140.8872  157.1582 N   0  0  0  0  0  0  0  0  0  0  0  0
  149.8469  140.2164  156.0939 C   0  0  2  0  0  0  0  0  0  0  0  0
  149.7951  138.8563  156.4063 O   0  0  0  0  0  0  0  0  0  0  0  0
  150.0085  138.0982  155.2250 C   0  0  2  0  0  0  0  0  0  0  0  0
  150.4571  136.6678  155.5627 C   0  0  0  0  0  0  0  0  0  0  0  0
  150.9237  136.0134  154.4019 O   0  0  0  0  0  0  0  0  0  0  0  0
  151.0158  138.9430  154.4427 C   0  0  2  0  0  0  0  0  0  0  0  0
  152.2505  138.7752  154.9211 F   0  0  0  0  0  0  0  0  0  0  0  0
  150.5559  140.3628  154.7348 C   0  0  1  0  0  0  0  0  0  0  0  0
  149.6785  140.8186  153.7246 O   0  0  0  0  0  0  0  0  0  0  0  0
  153.3383  142.7441  160.6442 H   0  0  0  0  0  0  0  0  0  0  0  0
  154.2607  141.4276  161.3374 H   0  0  0  0  0  0  0  0  0  0  0  0
  153.1252  137.7083  159.1275 H   0  0  0  0  0  0  0  0  0  0  0  0
  150.0487  142.9598  157.0270 H   0  0  0  0  0  0  0  0  0  0  0  0
  148.8552  140.6693  156.1396 H   0  0  0  0  0  0  0  0  0  0  0  0
  149.0626  138.0676  154.6806 H   0  0  0  0  0  0  0  0  0  0  0  0
  151.2366  136.6660  156.3246 H   0  0  0  0  0  0  0  0  0  0  0  0
  149.6177  136.0986  155.9632 H   0  0  0  0  0  0  0  0  0  0  0  0
  150.4091  136.3064  153.6653 H   0  0  0  0  0  0  0  0  0  0  0  0
  151.0486  138.6998  153.3800 H   0  0  0  0  0  0  0  0  0  0  0  0
  151.3946  141.0583  154.7978 H   0  0  0  0  0  0  0  0  0  0  0  0
  149.3555  141.6719  153.9720 H   0  0  0  0  0  0  0  0  0  0  0  0
  1  2  1  0  0  0  0
  1 20  1  0  0  0  0
  1 21  1  0  0  0  0
  2  7  1  0  0  0  0
  2  3  2  0  0  0  0
  3  4  1  0  0  0  0
  4  5  2  0  0  0  0
  4 22  1  0  0  0  0
  5  6  1  0  0  0  0
  6 10  1  0  0  0  0
  6  7  2  0  0  0  0
  7  8  1  0  0  0  0
  8  9  2  0  0  0  0
  9 10  1  0  0  0  0
  9 23  1  0  0  0  0
 10 11  1  0  0  0  0
 11 18  1  0  0  0  0
 11 12  1  0  0  0  0
 11 24  1  0  0  0  0
 12 13  1  0  0  0  0
 13 14  1  0  0  0  0
 13 16  1  0  0  0  0
 13 25  1  0  0  0  0
 14 15  1  0  0  0  0
 14 26  1  0  0  0  0
 14 27  1  0  0  0  0
 15 28  1  0  0  0  0
 16 17  1  0  0  0  0
 16 18  1  0  0  0  0
 16 29  1  0  0  0  0
 18 19  1  0  0  0  0
 18 30  1  0  0  0  0
 19 31  1  0  0  0  0
M  END
> <s_m_source_file>
AV-unprocessed.smi

> <i_m_source_file_index>
100

> <i_lp_mmshare_version>
43012

> <i_f3d_flags>
0

> <s_epik_input>
bjFbY0hdbmMoW05IMl0pYyhjMTIpbltjSF1uMltDQEBIXTNPW0NAQEhdKFtDSDJdW09IXSlbQ0BIXShGKVtDQEhdM1tPSF0=

> <s_epik_cmdline>
J2VwaWtfcHl0aG9uJywgJy1waCcsICc3LjAnLCAnLXRuJywgJzgnLCAnLW1hJywgJzIwMCcsICctbWV0YWxfYmluZGluZycsICctaW1hZScsICc8aW5maWxlLm1hZT4nLCAnLW9tYWUnLCAnPG91dGZpbGUubWFlPic=

> <r_lp_tautomer_probability>
1

> <r_epik_Ionization_Penalty>
0.000750324

> <r_epik_Ionization_Penalty_Charging>
0

> <r_epik_Ionization_Penalty_Neutral>
0.000750324

> <r_epik_State_Penalty>
-0

> <r_epik_Charging_Adjusted_Penalty>
0

> <i_epik_Tot_Q>
0

> <i_epik_Tot_abs_Q>
0

> <r_epik_Metal_State_Penalty>
-0

> <b_epik_Metal_Only>
0

> <s_epik_Chemistry_Notes>
This compound contains an acetal/aminal-like group ( X-CH(R)-Y where X, Y are N, S, or O) that may be acid/base labile, releasing an aldehyde.

> <s_lp_Force_Field>
OPLS_2005

> <r_lp_Energy>
28.7864

> <b_lp_Chiralities_Consistent>
1

> <s_lp_Variant>
AV-unprocessed.smi:100-3

> <Gold.Version>
5.8.1

> <Gold.Id.Protein>
6NUR|6NUR_protein|mol2

> <Gold.PLP.Fitness>
34.8635

> <Gold.PLP.PLP>
-29.7163

> <Gold.PLP.part.hbond>
-5.4286

> <Gold.PLP.part.metal>
0.0000

> <Gold.PLP.part.buried>
-2.6237

> <Gold.PLP.part.nonpolar>
-21.9282

> <Gold.PLP.part.repulsive>
0.0628

> <Gold.PLP.ligand.clash>
0.0000

> <Gold.PLP.ligand.torsion>
0.6858

> <Gold.PLP.Chemscore.Hbond>
1.1690

> <Gold.PLP.Chemscore.CHOScore>
1.0000

> <Gold.PLP.Chemscore.Metal>
0.0000

> <Gold.Chemscore.Hbonds>
donor molecule, donor type, donor heavy atom, donor atom, acceptor molecule, acceptor atom, score
      L1  H    15    28       P1  7948  0.16
      P1  H 10752 10763       L1    15  0.99
      L1  C     9    23       P1  8028  1.00

> <Gold.PLP.Chemscore.Internal.Correction>
0.0117

> <Gold.Rescore>
     Score         DG    S(hbond)    S(metal)    S(lipo)     H(rot)  DE(clash)    DE(int)     intcor
      1.83      -4.16       0.98        0.00      30.64       3.19       0.09       2.24       ----

> <Gold.Chemscore.Fitness>
1.8273

> <Gold.Chemscore.DG>
-4.1579

> <Gold.Chemscore.ZeroCoef>
-5.4800

> <Gold.Chemscore.Hbond>
0.9761

> <Gold.Chemscore.Metal>
0.0000

> <Gold.Chemscore.Lipo>
30.6353

> <Gold.Chemscore.Internal_Hbond>
0.0000

> <Gold.Chemscore.DEClash>
0.0901

> <Gold.Chemscore.DEInternal>
2.2404

> <Gold.Chemscore.Rot>
3.1901

> <Gold.Chemscore.Internal.Correction>
   9.000000E+99

> <Gold.Chemscore.Hbonds>
donor molecule, donor type, donor heavy atom, donor atom, acceptor molecule, acceptor atom, score
      P1  H 10752 10763       L1    15  0.79

> <Gold.Chemscore.Hbond.Weighted>
-3.2602

> <Gold.Chemscore.Metal.Weighted>
-0.0000

> <Gold.Chemscore.Lipo.Weighted>
-3.5843

> <Gold.Chemscore.Internal_Hbond.Weighted>
0.0000

> <Gold.Chemscore.DEClash.Weighted>
0.0901

> <Gold.Chemscore.DEInternal.Weighted>
2.2404

> <Gold.Chemscore.Rot.Weighted>
8.1667

> <Gold.Chemscore.Internal.Correction.Weighted>
   9.000000E+99

> <Gold.Protein.RotatedTorsions>
[ 6907 6896 6895 6894 ] final   47.52 input  -60.11 | X-H torsion
[ 7974 7965 7964 7962 ] final    7.98 input  175.53 | X-H torsion
[ 8008 7997 7996 7995 ] final  -58.53 input   59.86 | X-H torsion
[ 10167 10162 10161 10158 ] final  -69.62 input  -65.29 | X-H torsion
[ 10718 10713 10712 10709 ] final -136.22 input   66.30 | X-H torsion
[ 10763 10752 10751 10750 ] final   53.50 input  -60.55 | X-H torsion
[ 11005 11000 10999 10996 ] final   40.09 input  -57.11 | X-H torsion

> <Gold.Protein.ActiveResidues>
 VAL166  LYS551  ARG553  GLY616  TRP617  ASP618  TYR619  PRO620  LYS621  CYS622 
 ASP623  PHE694  ASN695  SER759  ASP760  ASP761  ALA762  ILE779  LEU786  VAL792 
 PHE793  MET794  SER795  GLU796  ALA797  LYS798  CYS799  TRP800  GLU811  SER814 

> <Gold.Protein.RotatedAtoms>
  152.2690  134.7953  160.0417 H   0  0  0  0  0  0  0  0  0  0  0  0  # atno 6907 bound_to 6896
  151.8572  133.3445  159.3700 H   0  0  0  0  0  0  0  0  0  0  0  0  # atno 6908 bound_to 6896
  150.7145  134.5169  159.5679 H   0  0  0  0  0  0  0  0  0  0  0  0  # atno 6909 bound_to 6896
  146.2421  140.0002  142.8416 H   0  0  0  0  0  0  0  0  0  0  0  0  # atno 7974 bound_to 7965
  154.4312  140.1082  156.5971 H   0  0  0  0  0  0  0  0  0  0  0  0  # atno 8008 bound_to 7997
  155.5951  140.3492  155.4558 H   0  0  0  0  0  0  0  0  0  0  0  0  # atno 8009 bound_to 7997
  156.0217  140.1241  157.0340 H   0  0  0  0  0  0  0  0  0  0  0  0  # atno 8010 bound_to 7997
  140.5416  143.2315  151.7078 H   0  0  0  0  0  0  0  0  0  0  0  0  # atno 10167 bound_to 10162
  156.2747  130.7286  151.1264 H   0  0  0  0  0  0  0  0  0  0  0  0  # atno 10718 bound_to 10713
  152.9796  135.5776  154.4752 H   0  0  0  0  0  0  0  0  0  0  0  0  # atno 10763 bound_to 10752
  154.4309  135.2773  155.1915 H   0  0  0  0  0  0  0  0  0  0  0  0  # atno 10764 bound_to 10752
  154.3624  135.6186  153.5751 H   0  0  0  0  0  0  0  0  0  0  0  0  # atno 10765 bound_to 10752
  140.1965  134.3923  155.8119 H   0  0  0  0  0  0  0  0  0  0  0  0  # atno 11005 bound_to 11000
  145.1422  140.9578  143.4482 LP  0  0  0  0  0  0  0  0  0  0  0  0  # atno 17320 bound_to 7965
  145.0285  139.3362  143.6037 LP  0  0  0  0  0  0  0  0  0  0  0  0  # atno 17321 bound_to 7965
  139.4991  144.3959  152.0232 LP  0  0  0  0  0  0  0  0  0  0  0  0  # atno 17342 bound_to 10162
  140.3068  144.3583  150.6044 LP  0  0  0  0  0  0  0  0  0  0  0  0  # atno 17343 bound_to 10162
  157.7295  131.0623  150.5769 LP  0  0  0  0  0  0  0  0  0  0  0  0  # atno 17370 bound_to 10713
  156.5869  130.4319  149.5953 LP  0  0  0  0  0  0  0  0  0  0  0  0  # atno 17371 bound_to 10713
  141.2227  133.7072  156.8184 LP  0  0  0  0  0  0  0  0  0  0  0  0  # atno 17394 bound_to 11000
  140.2102  134.8833  157.3266 LP  0  0  0  0  0  0  0  0  0  0  0  0  # atno 17395 bound_to 11000

$$$$
