AV-unprocessed.smi:199|AV-procd|sdf|1562|dock8
  -GOLD-   2262019433D 1   1.00000     0.00000
 Structure written by MMmdl.
 51 55  0  0  0  0  0  0  0  0  1 V2000
  149.2337  140.1379  156.2158 C   0  0  0  0  0  0  0  0  0  0  0  0
  150.4127  139.2053  155.8933 C   0  0  2  0  0  0  0  0  0  0  0  0
  150.9976  139.5481  154.6456 O   0  0  0  0  0  0  0  0  0  0  0  0
  151.7971  138.4485  154.2499 C   0  0  0  0  0  0  0  0  0  0  0  0
  150.9014  137.2532  154.5529 C   0  0  0  0  0  0  0  0  0  0  0  0
  150.1084  137.6869  155.7900 C   0  0  2  0  0  0  0  0  0  0  0  0
  148.7335  137.4442  155.5398 O   0  0  0  0  0  0  0  0  0  0  0  0
  150.5176  136.8914  157.0545 C   0  0  0  0  0  0  0  0  0  0  0  0
  149.4500  136.7770  158.0371 N   0  0  0  0  0  0  0  0  0  0  0  0
  148.9393  137.7858  158.8209 C   0  0  0  0  0  0  0  0  0  0  0  0
  147.9891  137.4262  159.6385 N   0  0  0  0  0  0  0  0  0  0  0  0
  147.8269  136.0652  159.4051 C   0  0  0  0  0  0  0  0  0  0  0  0
  146.9837  135.0501  159.9463 C   0  0  0  0  0  0  0  0  0  0  0  0
  146.0684  135.2603  160.9328 N   0  0  0  0  0  0  0  0  0  0  0  0
  146.1226  134.4866  162.1651 C   0  0  1  0  0  0  0  0  0  0  0  0
  147.3183  135.0866  162.9354 C   0  0  0  0  0  0  0  0  0  0  0  0
  147.2368  136.5622  162.5136 C   0  0  0  0  0  0  0  0  0  0  0  0
  145.9884  136.5478  161.6085 C   0  0  2  0  0  0  0  0  0  0  0  0
  144.7303  136.3958  162.4938 C   0  0  1  0  0  0  0  0  0  0  0  0
  143.4210  136.7549  161.7682 C   0  0  0  0  0  0  0  0  0  0  0  0
  143.4709  138.0830  161.2917 O   0  0  0  0  0  0  0  0  0  0  0  0
  144.8176  134.9011  162.8623 C   0  0  0  0  0  0  0  0  0  0  0  0
  147.0968  133.8029  159.4161 N   0  0  0  0  0  0  0  0  0  0  0  0
  147.9837  133.5519  158.4500 C   0  0  0  0  0  0  0  0  0  0  0  0
  148.8423  134.3902  157.8696 N   0  0  0  0  0  0  0  0  0  0  0  0
  148.7271  135.6482  158.3819 C   0  0  0  0  0  0  0  0  0  0  0  0
  148.7711  139.8745  157.1672 H   0  0  0  0  0  0  0  0  0  0  0  0
  148.4658  140.0967  155.4433 H   0  0  0  0  0  0  0  0  0  0  0  0
  149.5701  141.1721  156.2886 H   0  0  0  0  0  0  0  0  0  0  0  0
  151.1922  139.3664  156.6384 H   0  0  0  0  0  0  0  0  0  0  0  0
  152.0776  138.5098  153.1983 H   0  0  0  0  0  0  0  0  0  0  0  0
  152.7078  138.4192  154.8504 H   0  0  0  0  0  0  0  0  0  0  0  0
  150.2402  137.0868  153.7004 H   0  0  0  0  0  0  0  0  0  0  0  0
  151.4748  136.3375  154.7021 H   0  0  0  0  0  0  0  0  0  0  0  0
  148.2590  138.2518  155.6635 H   0  0  0  0  0  0  0  0  0  0  0  0
  150.8426  135.8858  156.7838 H   0  0  0  0  0  0  0  0  0  0  0  0
  151.3742  137.3672  157.5337 H   0  0  0  0  0  0  0  0  0  0  0  0
  149.3020  138.8023  158.7736 H   0  0  0  0  0  0  0  0  0  0  0  0
  146.1924  133.4069  162.0286 H   0  0  0  0  0  0  0  0  0  0  0  0
  147.2333  134.9487  164.0138 H   0  0  0  0  0  0  0  0  0  0  0  0
  148.2618  134.6456  162.6118 H   0  0  0  0  0  0  0  0  0  0  0  0
  147.1401  137.2427  163.3600 H   0  0  0  0  0  0  0  0  0  0  0  0
  148.1244  136.8504  161.9485 H   0  0  0  0  0  0  0  0  0  0  0  0
  145.9284  137.4202  160.9611 H   0  0  0  0  0  0  0  0  0  0  0  0
  144.8131  137.0108  163.3915 H   0  0  0  0  0  0  0  0  0  0  0  0
  143.2356  136.0782  160.9333 H   0  0  0  0  0  0  0  0  0  0  0  0
  142.5751  136.6676  162.4505 H   0  0  0  0  0  0  0  0  0  0  0  0
  144.3178  138.4459  161.5019 H   0  0  0  0  0  0  0  0  0  0  0  0
  143.9754  134.3404  162.4543 H   0  0  0  0  0  0  0  0  0  0  0  0
  144.8426  134.7309  163.9391 H   0  0  0  0  0  0  0  0  0  0  0  0
  148.0098  132.5330  158.0925 H   0  0  0  0  0  0  0  0  0  0  0  0
  1  2  1  0  0  0  0
  1 27  1  0  0  0  0
  1 28  1  0  0  0  0
  1 29  1  0  0  0  0
  2  6  1  0  0  0  0
  2  3  1  0  0  0  0
  2 30  1  0  0  0  0
  3  4  1  0  0  0  0
  4  5  1  0  0  0  0
  4 31  1  0  0  0  0
  4 32  1  0  0  0  0
  5  6  1  0  0  0  0
  5 33  1  0  0  0  0
  5 34  1  0  0  0  0
  6  7  1  0  0  0  0
  6  8  1  0  0  0  0
  7 35  1  0  0  0  0
  8  9  1  0  0  0  0
  8 36  1  0  0  0  0
  8 37  1  0  0  0  0
  9 26  1  0  0  0  0
  9 10  1  0  0  0  0
 10 11  2  0  0  0  0
 10 38  1  0  0  0  0
 11 12  1  0  0  0  0
 12 26  2  0  0  0  0
 12 13  1  0  0  0  0
 13 14  1  0  0  0  0
 13 23  2  0  0  0  0
 14 18  1  0  0  0  0
 14 15  1  0  0  0  0
 15 22  1  0  0  0  0
 15 16  1  0  0  0  0
 15 39  1  0  0  0  0
 16 17  1  0  0  0  0
 16 40  1  0  0  0  0
 16 41  1  0  0  0  0
 17 18  1  0  0  0  0
 17 42  1  0  0  0  0
 17 43  1  0  0  0  0
 18 19  1  0  0  0  0
 18 44  1  0  0  0  0
 19 20  1  0  0  0  0
 19 22  1  0  0  0  0
 19 45  1  0  0  0  0
 20 21  1  0  0  0  0
 20 46  1  0  0  0  0
 20 47  1  0  0  0  0
 21 48  1  0  0  0  0
 22 49  1  0  0  0  0
 22 50  1  0  0  0  0
 23 24  1  0  0  0  0
 24 25  2  0  0  0  0
 24 51  1  0  0  0  0
 25 26  1  0  0  0  0
M  END
> <s_m_source_file>
AV-unprocessed.smi

> <i_m_source_file_index>
199

> <i_lp_mmshare_version>
43012

> <i_f3d_flags>
0

> <s_epik_input>
W0NIMl0xW0NIMl1PW0NAQEhdKFtDSDNdKVtDQEBdMShbT0hdKVtDSDJdbihbY0hdbjIpYyhjMjMpbltjSF1uYzNOKFtDQEBIXTQ1KVtDQEhdKFtDSDJdW0NIMl00KVtDQEhdKFtDSDJdNSlbQ0gyXVtPSF0=

> <s_epik_cmdline>
J2VwaWtfcHl0aG9uJywgJy1waCcsICc3LjAnLCAnLXRuJywgJzgnLCAnLW1hJywgJzIwMCcsICctbWV0YWxfYmluZGluZycsICctaW1hZScsICc8aW5maWxlLm1hZT4nLCAnLW9tYWUnLCAnPG91dGZpbGUubWFlPic=

> <r_lp_tautomer_probability>
1

> <r_epik_Ionization_Penalty>
0.00583903

> <r_epik_Ionization_Penalty_Charging>
0

> <r_epik_Ionization_Penalty_Neutral>
0.00583903

> <r_epik_State_Penalty>
-0

> <r_epik_Charging_Adjusted_Penalty>
0

> <i_epik_Tot_Q>
0

> <i_epik_Tot_abs_Q>
0

> <r_epik_Metal_State_Penalty>
-0

> <b_epik_Metal_Only>
0

> <s_lp_Force_Field>
OPLS_2005

> <r_lp_Energy>
83.6045

> <b_lp_Chiralities_Consistent>
1

> <s_lp_Variant>
AV-unprocessed.smi:199-3

> <Gold.Version>
5.8.1

> <Gold.Id.Protein>
6NUR|6NUR_protein|mol2

> <Gold.PLP.Fitness>
42.2959

> <Gold.PLP.PLP>
-37.3479

> <Gold.PLP.part.hbond>
-3.8906

> <Gold.PLP.part.metal>
0.0000

> <Gold.PLP.part.buried>
-7.3149

> <Gold.PLP.part.nonpolar>
-28.3244

> <Gold.PLP.part.repulsive>
0.0588

> <Gold.PLP.ligand.clash>
0.0000

> <Gold.PLP.ligand.torsion>
0.6829

> <Gold.PLP.Chemscore.Hbond>
2.0897

> <Gold.PLP.Chemscore.CHOScore>
0.0000

> <Gold.PLP.Chemscore.Metal>
0.0000

> <Gold.Chemscore.Hbonds>
donor molecule, donor type, donor heavy atom, donor atom, acceptor molecule, acceptor atom, score
      P1  H  6896  6909       L1    25  0.04
      P1  H  6934  6947       L1    11  0.37
      P1  H  7989  7998       L1     3  1.00

> <Gold.PLP.Chemscore.Internal.Correction>
0.0446

> <Gold.Rescore>
     Score         DG    S(hbond)    S(metal)    S(lipo)     H(rot)  DE(clash)    DE(int)     intcor
      9.37     -11.75       1.36        0.00      81.97       3.07       0.37       2.01       ----

> <Gold.Chemscore.Fitness>
9.3685

> <Gold.Chemscore.DG>
-11.7491

> <Gold.Chemscore.ZeroCoef>
-5.4800

> <Gold.Chemscore.Hbond>
1.3609

> <Gold.Chemscore.Metal>
0.0000

> <Gold.Chemscore.Lipo>
81.9696

> <Gold.Chemscore.Internal_Hbond>
0.0000

> <Gold.Chemscore.DEClash>
0.3727

> <Gold.Chemscore.DEInternal>
2.0079

> <Gold.Chemscore.Rot>
3.0729

> <Gold.Chemscore.Internal.Correction>
   9.000000E+99

> <Gold.Chemscore.Hbonds>
donor molecule, donor type, donor heavy atom, donor atom, acceptor molecule, acceptor atom, score
      P1  H  6934  6947       L1    11  0.34
      P1  H  7989  7998       L1     3  0.26

> <Gold.Chemscore.Hbond.Weighted>
-4.5454

> <Gold.Chemscore.Metal.Weighted>
-0.0000

> <Gold.Chemscore.Lipo.Weighted>
-9.5904

> <Gold.Chemscore.Internal_Hbond.Weighted>
0.0000

> <Gold.Chemscore.DEClash.Weighted>
0.3727

> <Gold.Chemscore.DEInternal.Weighted>
2.0079

> <Gold.Chemscore.Rot.Weighted>
7.8667

> <Gold.Chemscore.Internal.Correction.Weighted>
   9.000000E+99

> <Gold.Protein.RotatedTorsions>
[ 6907 6896 6895 6894 ] final    8.85 input  -60.11 | X-H torsion
[ 7974 7965 7964 7962 ] final  110.95 input  175.53 | X-H torsion
[ 8008 7997 7996 7995 ] final -168.23 input   59.86 | X-H torsion
[ 10167 10162 10161 10158 ] final  104.67 input  -65.29 | X-H torsion
[ 10718 10713 10712 10709 ] final   21.15 input   66.30 | X-H torsion
[ 10763 10752 10751 10750 ] final  139.74 input  -60.55 | X-H torsion
[ 11005 11000 10999 10996 ] final   61.11 input  -57.11 | X-H torsion

> <Gold.Protein.ActiveResidues>
 VAL166  LYS551  ARG553  GLY616  TRP617  ASP618  TYR619  PRO620  LYS621  CYS622 
 ASP623  PHE694  ASN695  SER759  ASP760  ASP761  ALA762  ILE779  LEU786  VAL792 
 PHE793  MET794  SER795  GLU796  ALA797  LYS798  CYS799  TRP800  GLU811  SER814 

> <Gold.Protein.RotatedAtoms>
  151.7126  135.0910  160.0270 H   0  0  0  0  0  0  0  0  0  0  0  0  # atno 6907 bound_to 6896
  152.3652  133.6343  159.6053 H   0  0  0  0  0  0  0  0  0  0  0  0  # atno 6908 bound_to 6896
  150.7633  133.9276  159.3458 H   0  0  0  0  0  0  0  0  0  0  0  0  # atno 6909 bound_to 6896
  145.2484  139.2749  143.4080 H   0  0  0  0  0  0  0  0  0  0  0  0  # atno 7974 bound_to 7965
  155.8885  140.1021  157.1435 H   0  0  0  0  0  0  0  0  0  0  0  0  # atno 8008 bound_to 7997
  154.4012  140.1315  156.4350 H   0  0  0  0  0  0  0  0  0  0  0  0  # atno 8009 bound_to 7997
  155.7561  140.3464  155.5177 H   0  0  0  0  0  0  0  0  0  0  0  0  # atno 8010 bound_to 7997
  139.7157  144.7069  151.0954 H   0  0  0  0  0  0  0  0  0  0  0  0  # atno 10167 bound_to 10162
  157.1344  130.6605  149.5961 H   0  0  0  0  0  0  0  0  0  0  0  0  # atno 10718 bound_to 10713
  153.9111  135.3011  155.3448 H   0  0  0  0  0  0  0  0  0  0  0  0  # atno 10763 bound_to 10752
  154.7623  135.4928  153.9490 H   0  0  0  0  0  0  0  0  0  0  0  0  # atno 10764 bound_to 10752
  153.1192  135.6778  153.9466 H   0  0  0  0  0  0  0  0  0  0  0  0  # atno 10765 bound_to 10752
  140.0184  134.6189  155.9675 H   0  0  0  0  0  0  0  0  0  0  0  0  # atno 11005 bound_to 11000
  146.3309  140.2868  142.8613 LP  0  0  0  0  0  0  0  0  0  0  0  0  # atno 17320 bound_to 7965
  144.9525  140.8193  143.5563 LP  0  0  0  0  0  0  0  0  0  0  0  0  # atno 17321 bound_to 7965
  140.7743  143.5233  150.9510 LP  0  0  0  0  0  0  0  0  0  0  0  0  # atno 17342 bound_to 10162
  139.8919  143.6943  152.3144 LP  0  0  0  0  0  0  0  0  0  0  0  0  # atno 17343 bound_to 10162
  155.9801  130.4799  150.6754 LP  0  0  0  0  0  0  0  0  0  0  0  0  # atno 17370 bound_to 10713
  157.4363  131.0855  151.0988 LP  0  0  0  0  0  0  0  0  0  0  0  0  # atno 17371 bound_to 10713
  141.1758  133.6540  156.4824 LP  0  0  0  0  0  0  0  0  0  0  0  0  # atno 17394 bound_to 11000
  140.4429  134.6999  157.5001 LP  0  0  0  0  0  0  0  0  0  0  0  0  # atno 17395 bound_to 11000

$$$$
