AV-unprocessed.smi:557|AV-procd|sdf|2916|dock3
  -GOLD-   2262023403D 1   1.00000     0.00000
 Structure written by MMmdl.
 47 49  0  0  0  0  0  0  0  0  2 V2000
  151.2587  142.6126  157.1006 C   0  0  0  0  0  0  0  0  0  0  0  0
  150.7918  141.5566  156.2283 N   0  0  0  0  0  0  0  0  0  0  0  0
  149.5881  141.4598  155.5643 C   0  0  0  0  0  0  0  0  0  0  0  0
  149.6002  140.2871  154.8627 C   0  0  0  0  0  0  0  0  0  0  0  0
  148.5330  139.7135  153.9734 C   0  0  0  0  0  0  0  0  0  0  0  0
  147.9266  138.4388  154.5744 C   0  0  0  0  0  0  0  0  0  0  0  0
  147.4263  137.5610  153.5201 N   0  0  0  0  0  0  0  0  0  0  0  0
  146.1569  137.1648  153.3279 C   0  0  0  0  0  0  0  0  0  0  0  0
  145.2412  137.5277  154.0636 O   0  0  0  0  0  0  0  0  0  0  0  0
  145.9782  136.3514  152.2734 N   0  0  0  0  0  0  0  0  0  0  0  0
  144.6935  135.7929  151.8628 C   0  0  2  0  0  0  0  0  0  0  0  0
  143.9060  135.1777  153.0120 C   0  0  0  0  0  0  0  0  0  0  0  0
  142.8931  134.2801  152.2933 C   0  0  0  0  0  0  0  0  0  0  0  0
  143.5003  133.9010  150.9933 N   0  3  2  0  0  0  0  0  0  0  0  0
  143.5752  132.4327  150.7658 C   0  0  0  0  0  0  0  0  0  0  0  0
  144.5553  132.1007  149.6311 C   0  0  0  0  0  0  0  0  0  0  0  0
  145.9871  132.5551  149.9729 C   0  0  0  0  0  0  0  0  0  0  0  0
  146.0120  133.7028  151.0008 C   0  0  0  0  0  0  0  0  0  0  0  0
  144.7875  134.6386  150.8467 C   0  0  2  0  0  0  0  0  0  0  0  0
  150.8736  139.7299  155.1723 C   0  0  0  0  0  0  0  0  0  0  0  0
  151.5837  140.4911  155.9889 N   0  0  0  0  0  0  0  0  0  0  0  0
  150.6271  143.4944  156.9898 H   0  0  0  0  0  0  0  0  0  0  0  0
  152.2851  142.8798  156.8469 H   0  0  0  0  0  0  0  0  0  0  0  0
  151.2210  142.2759  158.1369 H   0  0  0  0  0  0  0  0  0  0  0  0
  148.8303  142.2254  155.6432 H   0  0  0  0  0  0  0  0  0  0  0  0
  147.7416  140.4456  153.8080 H   0  0  0  0  0  0  0  0  0  0  0  0
  148.9405  139.4895  152.9867 H   0  0  0  0  0  0  0  0  0  0  0  0
  148.6798  137.9094  155.1606 H   0  0  0  0  0  0  0  0  0  0  0  0
  147.1098  138.6995  155.2497 H   0  0  0  0  0  0  0  0  0  0  0  0
  148.1169  137.2069  152.8736 H   0  0  0  0  0  0  0  0  0  0  0  0
  146.7870  136.1009  151.7233 H   0  0  0  0  0  0  0  0  0  0  0  0
  144.0832  136.5900  151.4325 H   0  0  0  0  0  0  0  0  0  0  0  0
  144.5608  134.5691  153.6378 H   0  0  0  0  0  0  0  0  0  0  0  0
  143.4301  135.9238  153.6494 H   0  0  0  0  0  0  0  0  0  0  0  0
  142.6147  133.4212  152.9056 H   0  0  0  0  0  0  0  0  0  0  0  0
  141.9801  134.8390  152.0855 H   0  0  0  0  0  0  0  0  0  0  0  0
  143.8994  131.9264  151.6766 H   0  0  0  0  0  0  0  0  0  0  0  0
  142.5776  132.0583  150.5347 H   0  0  0  0  0  0  0  0  0  0  0  0
  144.5452  131.0317  149.4160 H   0  0  0  0  0  0  0  0  0  0  0  0
  144.2221  132.5978  148.7189 H   0  0  0  0  0  0  0  0  0  0  0  0
  146.5624  131.7161  150.3658 H   0  0  0  0  0  0  0  0  0  0  0  0
  146.4897  132.8631  149.0552 H   0  0  0  0  0  0  0  0  0  0  0  0
  146.0205  133.2840  152.0081 H   0  0  0  0  0  0  0  0  0  0  0  0
  146.9472  134.2528  150.8945 H   0  0  0  0  0  0  0  0  0  0  0  0
  144.8219  135.0594  149.8405 H   0  0  0  0  0  0  0  0  0  0  0  0
  151.3011  138.7997  154.8279 H   0  0  0  0  0  0  0  0  0  0  0  0
  142.8910  134.2726  150.2783 H   0  0  0  0  0  0  0  0  0  0  0  0
  1  2  1  0  0  0  0
  1 22  1  0  0  0  0
  1 23  1  0  0  0  0
  1 24  1  0  0  0  0
  2 21  1  0  0  0  0
  2  3  1  0  0  0  0
  3  4  2  0  0  0  0
  3 25  1  0  0  0  0
  4  5  1  0  0  0  0
  4 20  1  0  0  0  0
  5  6  1  0  0  0  0
  5 26  1  0  0  0  0
  5 27  1  0  0  0  0
  6  7  1  0  0  0  0
  6 28  1  0  0  0  0
  6 29  1  0  0  0  0
  7  8  1  0  0  0  0
  7 30  1  0  0  0  0
  8  9  2  0  0  0  0
  8 10  1  0  0  0  0
 10 11  1  0  0  0  0
 10 31  1  0  0  0  0
 11 19  1  0  0  0  0
 11 12  1  0  0  0  0
 11 32  1  0  0  0  0
 12 13  1  0  0  0  0
 12 33  1  0  0  0  0
 12 34  1  0  0  0  0
 13 14  1  0  0  0  0
 13 35  1  0  0  0  0
 13 36  1  0  0  0  0
 14 19  1  0  0  0  0
 14 15  1  0  0  0  0
 14 47  1  0  0  0  0
 15 16  1  0  0  0  0
 15 37  1  0  0  0  0
 15 38  1  0  0  0  0
 16 17  1  0  0  0  0
 16 39  1  0  0  0  0
 16 40  1  0  0  0  0
 17 18  1  0  0  0  0
 17 41  1  0  0  0  0
 17 42  1  0  0  0  0
 18 19  1  0  0  0  0
 18 43  1  0  0  0  0
 18 44  1  0  0  0  0
 19 45  1  0  0  0  0
 20 21  2  0  0  0  0
 20 46  1  0  0  0  0
M  CHG  1  14   1
M  END
> <s_m_source_file>
AV-unprocessed.smi

> <i_m_source_file_index>
557

> <i_lp_mmshare_version>
43012

> <i_f3d_flags>
0

> <s_epik_input>
W0NIM11uMVtjSF1jKFtjSF1uMSlbQ0gyXVtDSDJdW05IXUMoPU8pW05IXVtDQEhdKFtDSDJdW0NIMl0yKVtDQEhdKE4yMylbQ0gyXVtDSDJdW0NIMl1bQ0gyXTM=

> <s_epik_cmdline>
J2VwaWtfcHl0aG9uJywgJy1waCcsICc3LjAnLCAnLXRuJywgJzgnLCAnLW1hJywgJzIwMCcsICctbWV0YWxfYmluZGluZycsICctaW1hZScsICc8aW5maWxlLm1hZT4nLCAnLW9tYWUnLCAnPG91dGZpbGUubWFlPic=

> <r_lp_tautomer_probability>
1

> <r_epik_Ionization_Penalty>
0.000956547

> <r_epik_Ionization_Penalty_Charging>
0.000435796

> <r_epik_Ionization_Penalty_Neutral>
0.000520752

> <r_epik_State_Penalty>
-0

> <r_epik_Charging_Adjusted_Penalty>
0.000435796

> <i_epik_Tot_Q>
1

> <i_epik_Tot_abs_Q>
1

> <r_epik_Metal_State_Penalty>
-0

> <b_epik_Metal_Only>
0

> <s_lp_Force_Field>
OPLS_2005

> <r_lp_Energy>
46.1315

> <b_lp_Chiralities_Consistent>
1

> <s_lp_Variant>
AV-unprocessed.smi:557-3

> <Gold.Version>
5.8.1

> <Gold.Id.Protein>
6NUR|6NUR_protein|mol2

> <Gold.PLP.Fitness>
52.2360

> <Gold.PLP.PLP>
-39.4494

> <Gold.PLP.part.hbond>
-3.0283

> <Gold.PLP.part.metal>
0.0000

> <Gold.PLP.part.buried>
-4.0641

> <Gold.PLP.part.nonpolar>
-33.0954

> <Gold.PLP.part.repulsive>
0.1506

> <Gold.PLP.ligand.clash>
0.0000

> <Gold.PLP.ligand.torsion>
0.3689

> <Gold.PLP.Chemscore.Hbond>
3.5050

> <Gold.PLP.Chemscore.CHOScore>
1.0000

> <Gold.PLP.Chemscore.Metal>
0.0000

> <Gold.Chemscore.Hbonds>
donor molecule, donor type, donor heavy atom, donor atom, acceptor molecule, acceptor atom, score
      L1  H     7    30       P1  7948  1.00
      L1  H    10    31       P1  7948  0.57
      L1  H    14    47       P1 10186  1.89
      L1  C     3    25       P1  8028  1.00

> <Gold.PLP.Chemscore.Internal.Correction>
0.0095

> <Gold.Rescore>
     Score         DG    S(hbond)    S(metal)    S(lipo)     H(rot)  DE(clash)    DE(int)     intcor
     18.72     -20.53       2.33        0.00      97.06       1.60       0.27       1.54       ----

> <Gold.Chemscore.Fitness>
18.7187

> <Gold.Chemscore.DG>
-20.5314

> <Gold.Chemscore.ZeroCoef>
-5.4800

> <Gold.Chemscore.Hbond>
2.3341

> <Gold.Chemscore.Metal>
0.0000

> <Gold.Chemscore.Lipo>
97.0596

> <Gold.Chemscore.Internal_Hbond>
0.0000

> <Gold.Chemscore.DEClash>
0.2738

> <Gold.Chemscore.DEInternal>
1.5389

> <Gold.Chemscore.Rot>
1.6018

> <Gold.Chemscore.Internal.Correction>
   9.000000E+99

> <Gold.Chemscore.Hbonds>
donor molecule, donor type, donor heavy atom, donor atom, acceptor molecule, acceptor atom, score
      L1  H     7    30       P1  7948  0.99
      L1  H    10    31       P1  7948  0.56
      L1  H    14    47       P1 10186  0.77

> <Gold.Chemscore.Hbond.Weighted>
-7.7960

> <Gold.Chemscore.Metal.Weighted>
-0.0000

> <Gold.Chemscore.Lipo.Weighted>
-11.3560

> <Gold.Chemscore.Internal_Hbond.Weighted>
0.0000

> <Gold.Chemscore.DEClash.Weighted>
0.2738

> <Gold.Chemscore.DEInternal.Weighted>
1.5389

> <Gold.Chemscore.Rot.Weighted>
4.1006

> <Gold.Chemscore.Internal.Correction.Weighted>
   9.000000E+99

> <Gold.Protein.RotatedTorsions>
[ 6907 6896 6895 6894 ] final -152.43 input  -60.11 | X-H torsion
[ 7974 7965 7964 7962 ] final  156.39 input  175.53 | X-H torsion
[ 8008 7997 7996 7995 ] final  -50.98 input   59.86 | X-H torsion
[ 10167 10162 10161 10158 ] final    1.09 input  -65.29 | X-H torsion
[ 10718 10713 10712 10709 ] final   40.99 input   66.30 | X-H torsion
[ 10763 10752 10751 10750 ] final  171.17 input  -60.55 | X-H torsion
[ 11005 11000 10999 10996 ] final  -52.07 input  -57.11 | X-H torsion

> <Gold.Protein.ActiveResidues>
 VAL166  LYS551  ARG553  GLY616  TRP617  ASP618  TYR619  PRO620  LYS621  CYS622 
 ASP623  PHE694  ASN695  SER759  ASP760  ASP761  ALA762  ILE779  LEU786  VAL792 
 PHE793  MET794  SER795  GLU796  ALA797  LYS798  CYS799  TRP800  GLU811  SER814 

> <Gold.Protein.RotatedAtoms>
  151.2277  133.4467  159.2602 H   0  0  0  0  0  0  0  0  0  0  0  0  # atno 6907 bound_to 6896
  151.0824  134.9866  159.8372 H   0  0  0  0  0  0  0  0  0  0  0  0  # atno 6908 bound_to 6896
  152.5425  134.2216  159.8843 H   0  0  0  0  0  0  0  0  0  0  0  0  # atno 6909 bound_to 6896
  144.7966  139.7197  143.6199 H   0  0  0  0  0  0  0  0  0  0  0  0  # atno 7974 bound_to 7965
  154.4073  140.1259  156.4754 H   0  0  0  0  0  0  0  0  0  0  0  0  # atno 8008 bound_to 7997
  155.7137  140.3493  155.4965 H   0  0  0  0  0  0  0  0  0  0  0  0  # atno 8009 bound_to 7997
  155.9277  140.1064  157.1147 H   0  0  0  0  0  0  0  0  0  0  0  0  # atno 8010 bound_to 7997
  140.6699  143.7077  150.7901 H   0  0  0  0  0  0  0  0  0  0  0  0  # atno 10167 bound_to 10162
  157.3885  130.7793  149.7250 H   0  0  0  0  0  0  0  0  0  0  0  0  # atno 10718 bound_to 10713
  154.4081  135.2756  155.2054 H   0  0  0  0  0  0  0  0  0  0  0  0  # atno 10763 bound_to 10752
  154.4051  135.6035  153.5923 H   0  0  0  0  0  0  0  0  0  0  0  0  # atno 10764 bound_to 10752
  152.9831  135.5936  154.4359 H   0  0  0  0  0  0  0  0  0  0  0  0  # atno 10765 bound_to 10752
  141.0905  133.6634  156.3970 H   0  0  0  0  0  0  0  0  0  0  0  0  # atno 11005 bound_to 11000
  146.2236  139.5680  142.9602 LP  0  0  0  0  0  0  0  0  0  0  0  0  # atno 17320 bound_to 7965
  145.5658  141.0399  143.2201 LP  0  0  0  0  0  0  0  0  0  0  0  0  # atno 17321 bound_to 7965
  140.0761  143.5014  152.2555 LP  0  0  0  0  0  0  0  0  0  0  0  0  # atno 17342 bound_to 10162
  139.5963  144.7568  151.3279 LP  0  0  0  0  0  0  0  0  0  0  0  0  # atno 17343 bound_to 10162
  155.9792  130.4042  150.3599 LP  0  0  0  0  0  0  0  0  0  0  0  0  # atno 17370 bound_to 10713
  157.1712  131.0369  151.2794 LP  0  0  0  0  0  0  0  0  0  0  0  0  # atno 17371 bound_to 10713
  140.5263  134.6255  157.5335 LP  0  0  0  0  0  0  0  0  0  0  0  0  # atno 17394 bound_to 11000
  139.9730  134.7262  156.0004 LP  0  0  0  0  0  0  0  0  0  0  0  0  # atno 17395 bound_to 11000

$$$$
