AV-unprocessed.smi:473|AV-procd|sdf|2661|dock4
  -GOLD-   2262023 73D 1   1.00000     0.00000
 Structure written by MMmdl.
 42 44  0  0  0  0  0  0  0  0  1 V2000
  153.7151  142.0855  161.6162 C   0  0  0  0  0  0  0  0  0  0  0  0
  152.9608  141.9146  160.3095 C   0  0  0  0  0  0  0  0  0  0  0  0
  153.2182  140.7770  159.5113 C   0  0  0  0  0  0  0  0  0  0  0  0
  152.5360  140.5792  158.2909 C   0  0  0  0  0  0  0  0  0  0  0  0
  152.6279  139.5539  157.3650 N   0  0  0  0  0  0  0  0  0  0  0  0
  151.7432  139.9396  156.4500 C   0  0  0  0  0  0  0  0  0  0  0  0
  151.0883  141.0953  156.6737 N   0  0  0  0  0  0  0  0  0  0  0  0
  150.0865  141.7175  155.8267 C   0  0  0  0  0  0  0  0  0  0  0  0
  149.3999  140.7077  154.8866 C   0  0  2  0  0  0  0  0  0  0  0  0
  149.6098  141.1119  153.5474 O   0  0  0  0  0  0  0  0  0  0  0  0
  147.8874  140.6219  155.1441 C   0  0  0  0  0  0  0  0  0  0  0  0
  147.2922  141.8731  154.8263 O   0  0  0  0  0  0  0  0  0  0  0  0
  145.8772  141.8952  154.9665 C   0  0  0  0  0  0  0  0  0  0  0  0
  145.3492  143.1705  154.3839 C   0  0  0  0  0  0  0  0  0  0  0  0
  145.5912  143.8314  153.2115 C   0  0  0  0  0  0  0  0  0  0  0  0
  144.7676  144.9909  153.2252 C   0  0  0  0  0  0  0  0  0  0  0  0
  144.0762  144.9478  154.4021 C   0  0  0  0  0  0  0  0  0  0  0  0
  144.4154  143.8420  155.1186 O   0  0  0  0  0  0  0  0  0  0  0  0
  151.5829  141.5594  157.8872 C   0  0  0  0  0  0  0  0  0  0  0  0
  151.3188  142.6958  158.6717 C   0  0  0  0  0  0  0  0  0  0  0  0
  152.0082  142.8773  159.8889 C   0  0  0  0  0  0  0  0  0  0  0  0
  151.7132  144.1057  160.7313 C   0  0  0  0  0  0  0  0  0  0  0  0
  154.4053  141.2592  161.7886 H   0  0  0  0  0  0  0  0  0  0  0  0
  153.0208  142.1220  162.4560 H   0  0  0  0  0  0  0  0  0  0  0  0
  154.2949  143.0086  161.6048 H   0  0  0  0  0  0  0  0  0  0  0  0
  153.9431  140.0431  159.8314 H   0  0  0  0  0  0  0  0  0  0  0  0
  151.5582  139.3468  155.5659 H   0  0  0  0  0  0  0  0  0  0  0  0
  149.3479  142.1920  156.4740 H   0  0  0  0  0  0  0  0  0  0  0  0
  150.5579  142.5168  155.2527 H   0  0  0  0  0  0  0  0  0  0  0  0
  149.8494  139.7246  155.0335 H   0  0  0  0  0  0  0  0  0  0  0  0
  149.3787  140.3949  152.9773 H   0  0  0  0  0  0  0  0  0  0  0  0
  147.4569  139.8513  154.5032 H   0  0  0  0  0  0  0  0  0  0  0  0
  147.6768  140.3336  156.1755 H   0  0  0  0  0  0  0  0  0  0  0  0
  145.4161  141.0234  154.4999 H   0  0  0  0  0  0  0  0  0  0  0  0
  145.6351  141.8566  156.0285 H   0  0  0  0  0  0  0  0  0  0  0  0
  146.2788  143.5190  152.4397 H   0  0  0  0  0  0  0  0  0  0  0  0
  144.6884  145.7574  152.4684 H   0  0  0  0  0  0  0  0  0  0  0  0
  143.3386  145.5878  154.8637 H   0  0  0  0  0  0  0  0  0  0  0  0
  150.5894  143.4198  158.3392 H   0  0  0  0  0  0  0  0  0  0  0  0
  150.9748  144.7489  160.2517 H   0  0  0  0  0  0  0  0  0  0  0  0
  152.6193  144.6925  160.8831 H   0  0  0  0  0  0  0  0  0  0  0  0
  151.3209  143.8145  161.7058 H   0  0  0  0  0  0  0  0  0  0  0  0
  1  2  1  0  0  0  0
  1 23  1  0  0  0  0
  1 24  1  0  0  0  0
  1 25  1  0  0  0  0
  2 21  1  0  0  0  0
  2  3  2  0  0  0  0
  3  4  1  0  0  0  0
  3 26  1  0  0  0  0
  4 19  2  0  0  0  0
  4  5  1  0  0  0  0
  5  6  2  0  0  0  0
  6  7  1  0  0  0  0
  6 27  1  0  0  0  0
  7  8  1  0  0  0  0
  7 19  1  0  0  0  0
  8  9  1  0  0  0  0
  8 28  1  0  0  0  0
  8 29  1  0  0  0  0
  9 10  1  0  0  0  0
  9 11  1  0  0  0  0
  9 30  1  0  0  0  0
 10 31  1  0  0  0  0
 11 12  1  0  0  0  0
 11 32  1  0  0  0  0
 11 33  1  0  0  0  0
 12 13  1  0  0  0  0
 13 14  1  0  0  0  0
 13 34  1  0  0  0  0
 13 35  1  0  0  0  0
 14 18  1  0  0  0  0
 14 15  2  0  0  0  0
 15 16  1  0  0  0  0
 15 36  1  0  0  0  0
 16 17  2  0  0  0  0
 16 37  1  0  0  0  0
 17 18  1  0  0  0  0
 17 38  1  0  0  0  0
 19 20  1  0  0  0  0
 20 21  2  0  0  0  0
 20 39  1  0  0  0  0
 21 22  1  0  0  0  0
 22 40  1  0  0  0  0
 22 41  1  0  0  0  0
 22 42  1  0  0  0  0
M  END
> <s_m_source_file>
AV-unprocessed.smi

> <i_m_source_file_index>
473

> <i_lp_mmshare_version>
43012

> <i_f3d_flags>
0

> <s_epik_input>
W0NIM11jKFtjSF0xKWMoW0NIM10pW2NIXWMoYzEyKW4oW2NIXW4yKVtDSDJdW0NASF0oW09IXSlbQ0gyXU9bQ0gyXWMzW2NIXVtjSF1bY0hdbzM=

> <s_epik_cmdline>
J2VwaWtfcHl0aG9uJywgJy1waCcsICc3LjAnLCAnLXRuJywgJzgnLCAnLW1hJywgJzIwMCcsICctbWV0YWxfYmluZGluZycsICctaW1hZScsICc8aW5maWxlLm1hZT4nLCAnLW9tYWUnLCAnPG91dGZpbGUubWFlPic=

> <r_epik_Ionization_Penalty>
0.112477

> <r_epik_Ionization_Penalty_Charging>
0

> <r_epik_Ionization_Penalty_Neutral>
0.112477

> <r_epik_State_Penalty>
0.102177

> <r_epik_Charging_Adjusted_Penalty>
0.102177

> <i_epik_Tot_Q>
0

> <i_epik_Tot_abs_Q>
0

> <r_epik_Metal_State_Penalty>
0.000111506

> <b_epik_Metal_Only>
0

> <s_lp_Force_Field>
OPLS_2005

> <r_lp_Energy>
9.85232

> <b_lp_Chiralities_Consistent>
1

> <s_lp_Variant>
AV-unprocessed.smi:473-1

> <Gold.Version>
5.8.1

> <Gold.Id.Protein>
6NUR|6NUR_protein|mol2

> <Gold.PLP.Fitness>
57.1178

> <Gold.PLP.PLP>
-51.0057

> <Gold.PLP.part.hbond>
-4.0000

> <Gold.PLP.part.metal>
0.0000

> <Gold.PLP.part.buried>
-6.0827

> <Gold.PLP.part.nonpolar>
-41.3585

> <Gold.PLP.part.repulsive>
0.2877

> <Gold.PLP.ligand.clash>
0.0000

> <Gold.PLP.ligand.torsion>
1.2757

> <Gold.PLP.Chemscore.Hbond>
2.8540

> <Gold.PLP.Chemscore.CHOScore>
0.0000

> <Gold.PLP.Chemscore.Metal>
0.0000

> <Gold.Chemscore.Hbonds>
donor molecule, donor type, donor heavy atom, donor atom, acceptor molecule, acceptor atom, score
      L1  H    10    31       P1  7957  0.69
      P1  H  7989  7998       L1    10  0.21
      P1  H  7997  8010       L1     5  0.90
      P1  H  8011  8017       L1    10  1.00

> <Gold.PLP.Chemscore.Internal.Correction>
0.1016

> <Gold.Rescore>
     Score         DG    S(hbond)    S(metal)    S(lipo)     H(rot)  DE(clash)    DE(int)     intcor
     18.12     -19.81       1.44        0.00     134.16       2.41       0.56       1.13       ----

> <Gold.Chemscore.Fitness>
18.1161

> <Gold.Chemscore.DG>
-19.8067

> <Gold.Chemscore.ZeroCoef>
-5.4800

> <Gold.Chemscore.Hbond>
1.4358

> <Gold.Chemscore.Metal>
0.0000

> <Gold.Chemscore.Lipo>
134.1570

> <Gold.Chemscore.Internal_Hbond>
0.0000

> <Gold.Chemscore.DEClash>
0.5627

> <Gold.Chemscore.DEInternal>
1.1279

> <Gold.Chemscore.Rot>
2.4083

> <Gold.Chemscore.Internal.Correction>
   9.000000E+99

> <Gold.Chemscore.Hbonds>
donor molecule, donor type, donor heavy atom, donor atom, acceptor molecule, acceptor atom, score
      L1  H    10    31       P1  7957  0.68
      P1  H  7989  7998       L1    10  0.01
      P1  H  7997  8010       L1     5  0.05
      P1  H  8011  8017       L1    10  0.24

> <Gold.Chemscore.Hbond.Weighted>
-4.7956

> <Gold.Chemscore.Metal.Weighted>
-0.0000

> <Gold.Chemscore.Lipo.Weighted>
-15.6964

> <Gold.Chemscore.Internal_Hbond.Weighted>
0.0000

> <Gold.Chemscore.DEClash.Weighted>
0.5627

> <Gold.Chemscore.DEInternal.Weighted>
1.1279

> <Gold.Chemscore.Rot.Weighted>
6.1653

> <Gold.Chemscore.Internal.Correction.Weighted>
   9.000000E+99

> <Gold.Protein.RotatedTorsions>
[ 6907 6896 6895 6894 ] final -105.88 input  -60.11 | X-H torsion
[ 7974 7965 7964 7962 ] final  133.47 input  175.53 | X-H torsion
[ 8008 7997 7996 7995 ] final   70.95 input   59.86 | X-H torsion
[ 10167 10162 10161 10158 ] final    7.55 input  -65.29 | X-H torsion
[ 10718 10713 10712 10709 ] final -123.30 input   66.30 | X-H torsion
[ 10763 10752 10751 10750 ] final   47.64 input  -60.55 | X-H torsion
[ 11005 11000 10999 10996 ] final  115.64 input  -57.11 | X-H torsion

> <Gold.Protein.ActiveResidues>
 VAL166  LYS551  ARG553  GLY616  TRP617  ASP618  TYR619  PRO620  LYS621  CYS622 
 ASP623  PHE694  ASN695  SER759  ASP760  ASP761  ALA762  ILE779  LEU786  VAL792 
 PHE793  MET794  SER795  GLU796  ALA797  LYS798  CYS799  TRP800  GLU811  SER814 

> <Gold.Protein.RotatedAtoms>
  150.7360  134.0059  159.3653 H   0  0  0  0  0  0  0  0  0  0  0  0  # atno 6907 bound_to 6896
  151.8016  135.0705  160.0410 H   0  0  0  0  0  0  0  0  0  0  0  0  # atno 6908 bound_to 6896
  152.3136  133.5743  159.5734 H   0  0  0  0  0  0  0  0  0  0  0  0  # atno 6909 bound_to 6896
  144.9862  139.4453  143.5362 H   0  0  0  0  0  0  0  0  0  0  0  0  # atno 7974 bound_to 7965
  155.7466  140.3489  155.5130 H   0  0  0  0  0  0  0  0  0  0  0  0  # atno 8008 bound_to 7997
  155.9044  140.1039  157.1347 H   0  0  0  0  0  0  0  0  0  0  0  0  # atno 8009 bound_to 7997
  154.4048  140.1280  156.4464 H   0  0  0  0  0  0  0  0  0  0  0  0  # atno 8010 bound_to 7997
  140.6365  143.7873  150.7367 H   0  0  0  0  0  0  0  0  0  0  0  0  # atno 10167 bound_to 10162
  156.1490  130.6521  150.9885 H   0  0  0  0  0  0  0  0  0  0  0  0  # atno 10718 bound_to 10713
  152.9798  135.5970  154.3796 H   0  0  0  0  0  0  0  0  0  0  0  0  # atno 10763 bound_to 10752
  154.3462  135.2767  155.2398 H   0  0  0  0  0  0  0  0  0  0  0  0  # atno 10764 bound_to 10752
  154.4458  135.6002  153.6214 H   0  0  0  0  0  0  0  0  0  0  0  0  # atno 10765 bound_to 10752
  139.9016  134.9587  156.7076 H   0  0  0  0  0  0  0  0  0  0  0  0  # atno 11005 bound_to 11000
  146.3420  139.9166  142.8772 LP  0  0  0  0  0  0  0  0  0  0  0  0  # atno 17320 bound_to 7965
  145.2350  140.9987  143.3969 LP  0  0  0  0  0  0  0  0  0  0  0  0  # atno 17321 bound_to 7965
  140.1496  143.4369  152.2140 LP  0  0  0  0  0  0  0  0  0  0  0  0  # atno 17342 bound_to 10162
  139.5576  144.7383  151.4250 LP  0  0  0  0  0  0  0  0  0  0  0  0  # atno 17343 bound_to 10162
  157.6641  131.0875  150.7770 LP  0  0  0  0  0  0  0  0  0  0  0  0  # atno 17370 bound_to 10713
  156.7839  130.4868  149.5396 LP  0  0  0  0  0  0  0  0  0  0  0  0  # atno 17371 bound_to 10713
  140.7101  133.9231  155.8079 LP  0  0  0  0  0  0  0  0  0  0  0  0  # atno 17394 bound_to 11000
  141.0307  134.0760  157.4017 LP  0  0  0  0  0  0  0  0  0  0  0  0  # atno 17395 bound_to 11000

$$$$
