AV-unprocessed.smi:2143|AV-procd|sdf|8722|dock5
  -GOLD-   2272011493D 1   1.00000     0.00000
 Structure written by MMmdl.
 44 45  0  0  0  0  0  0  0  0  1 V2000
  145.7123  143.0624  154.0245 C   0  0  0  0  0  0  0  0  0  0  0  0
  146.9614  142.4062  154.6396 C   0  0  2  0  0  0  0  0  0  0  0  0
  147.4723  141.2855  153.7101 C   0  0  0  0  0  0  0  0  0  0  0  0
  148.7296  140.6018  154.2637 C   0  0  0  0  0  0  0  0  0  0  0  0
  148.4810  140.0538  155.6766 C   0  0  0  0  0  0  0  0  0  0  0  0
  147.9755  141.1469  156.6360 C   0  0  1  0  0  0  0  0  0  0  0  0
  149.0544  142.0967  156.9187 N   0  0  0  0  0  0  0  0  0  0  0  0
  150.3115  141.7894  157.2733 C   0  0  0  0  0  0  0  0  0  0  0  0
  150.7138  140.6342  157.4182 O   0  0  0  0  0  0  0  0  0  0  0  0
  151.2412  142.9836  157.5275 C   0  0  0  0  0  0  0  0  0  0  0  0
  151.7759  143.0216  158.8947 N   0  0  0  0  0  0  0  0  0  0  0  0
  151.4549  144.0785  159.7264 C   0  0  0  0  0  0  0  0  0  0  0  0
  151.8921  144.1833  161.0003 C   0  0  0  0  0  0  0  0  0  0  0  0
  152.7514  143.1606  161.5844 C   0  0  0  0  0  0  0  0  0  0  0  0
  153.1614  143.2139  162.7443 O   0  0  0  0  0  0  0  0  0  0  0  0
  153.0709  142.0946  160.7089 N   0  0  0  0  0  0  0  0  0  0  0  0
  153.9091  141.0159  161.1899 C   0  0  0  0  0  0  0  0  0  0  0  0
  152.6015  141.9856  159.3813 C   0  0  0  0  0  0  0  0  0  0  0  0
  152.8927  141.0234  158.6660 O   0  0  0  0  0  0  0  0  0  0  0  0
  146.7160  141.8593  156.0740 C   0  0  1  0  0  0  0  0  0  0  0  0
  146.1916  142.9324  157.0498 C   0  0  0  0  0  0  0  0  0  0  0  0
  144.8690  142.3713  154.0057 H   0  0  0  0  0  0  0  0  0  0  0  0
  145.9028  143.3799  152.9991 H   0  0  0  0  0  0  0  0  0  0  0  0
  145.4077  143.9505  154.5775 H   0  0  0  0  0  0  0  0  0  0  0  0
  147.7358  143.1725  154.6927 H   0  0  0  0  0  0  0  0  0  0  0  0
  146.6887  140.5395  153.5695 H   0  0  0  0  0  0  0  0  0  0  0  0
  147.6899  141.6905  152.7213 H   0  0  0  0  0  0  0  0  0  0  0  0
  149.0325  139.7907  153.6009 H   0  0  0  0  0  0  0  0  0  0  0  0
  149.5577  141.3112  154.2785 H   0  0  0  0  0  0  0  0  0  0  0  0
  147.7414  139.2536  155.6236 H   0  0  0  0  0  0  0  0  0  0  0  0
  149.3917  139.5983  156.0679 H   0  0  0  0  0  0  0  0  0  0  0  0
  147.6888  140.6445  157.5616 H   0  0  0  0  0  0  0  0  0  0  0  0
  148.8203  143.0753  156.8350 H   0  0  0  0  0  0  0  0  0  0  0  0
  152.0592  142.9719  156.8047 H   0  0  0  0  0  0  0  0  0  0  0  0
  150.6822  143.8979  157.3237 H   0  0  0  0  0  0  0  0  0  0  0  0
  150.8167  144.8607  159.3415 H   0  0  0  0  0  0  0  0  0  0  0  0
  151.5994  145.0347  161.5970 H   0  0  0  0  0  0  0  0  0  0  0  0
  154.7033  140.8587  160.4573 H   0  0  0  0  0  0  0  0  0  0  0  0
  153.2716  140.1352  161.2825 H   0  0  0  0  0  0  0  0  0  0  0  0
  154.3598  141.2652  162.1500 H   0  0  0  0  0  0  0  0  0  0  0  0
  145.9353  141.1002  156.0007 H   0  0  0  0  0  0  0  0  0  0  0  0
  146.8478  143.8025  157.0830 H   0  0  0  0  0  0  0  0  0  0  0  0
  146.1163  142.5347  158.0623 H   0  0  0  0  0  0  0  0  0  0  0  0
  145.1963  143.2774  156.7712 H   0  0  0  0  0  0  0  0  0  0  0  0
  1  2  1  0  0  0  0
  1 22  1  0  0  0  0
  1 23  1  0  0  0  0
  1 24  1  0  0  0  0
  2 20  1  0  0  0  0
  2  3  1  0  0  0  0
  2 25  1  0  0  0  0
  3  4  1  0  0  0  0
  3 26  1  0  0  0  0
  3 27  1  0  0  0  0
  4  5  1  0  0  0  0
  4 28  1  0  0  0  0
  4 29  1  0  0  0  0
  5  6  1  0  0  0  0
  5 30  1  0  0  0  0
  5 31  1  0  0  0  0
  6  7  1  0  0  0  0
  6 20  1  0  0  0  0
  6 32  1  0  0  0  0
  7  8  1  0  0  0  0
  7 33  1  0  0  0  0
  8  9  2  0  0  0  0
  8 10  1  0  0  0  0
 10 11  1  0  0  0  0
 10 34  1  0  0  0  0
 10 35  1  0  0  0  0
 11 18  1  0  0  0  0
 11 12  1  0  0  0  0
 12 13  2  0  0  0  0
 12 36  1  0  0  0  0
 13 14  1  0  0  0  0
 13 37  1  0  0  0  0
 14 15  2  0  0  0  0
 14 16  1  0  0  0  0
 16 17  1  0  0  0  0
 16 18  1  0  0  0  0
 17 38  1  0  0  0  0
 17 39  1  0  0  0  0
 17 40  1  0  0  0  0
 18 19  2  0  0  0  0
 20 21  1  0  0  0  0
 20 41  1  0  0  0  0
 21 42  1  0  0  0  0
 21 43  1  0  0  0  0
 21 44  1  0  0  0  0
M  END
> <s_m_source_file>
AV-unprocessed.smi

> <i_m_source_file_index>
2143

> <i_lp_mmshare_version>
43012

> <i_f3d_flags>
0

> <s_epik_input>
W0NIM11bQ0BASF0xW0NIMl1bQ0gyXVtDSDJdW0NASF0oW0NASF0xW0NIM10pW05IXUMoPU8pW0NIMl1uMltjSF1bY0hdYyg9TyluKFtDSDNdKWMyPU8=

> <s_epik_cmdline>
J2VwaWtfcHl0aG9uJywgJy1waCcsICc3LjAnLCAnLXRuJywgJzgnLCAnLW1hJywgJzIwMCcsICctbWV0YWxfYmluZGluZycsICctaW1hZScsICc8aW5maWxlLm1hZT4nLCAnLW9tYWUnLCAnPG91dGZpbGUubWFlPic=

> <r_lp_tautomer_probability>
1

> <r_epik_Ionization_Penalty>
3.18445e-08

> <r_epik_Ionization_Penalty_Charging>
1.27977e-08

> <r_epik_Ionization_Penalty_Neutral>
1.90469e-08

> <r_epik_State_Penalty>
-0

> <r_epik_Charging_Adjusted_Penalty>
1.27977e-08

> <i_epik_Tot_Q>
0

> <i_epik_Tot_abs_Q>
0

> <r_epik_Metal_State_Penalty>
-0

> <b_epik_Metal_Only>
0

> <s_lp_Force_Field>
OPLS_2005

> <r_lp_Energy>
19.1403

> <b_lp_Chiralities_Consistent>
1

> <s_lp_Variant>
AV-unprocessed.smi:2143-1

> <Gold.Version>
5.8.1

> <Gold.Id.Protein>
6NUR|6NUR_protein|mol2

> <Gold.PLP.Fitness>
47.3927

> <Gold.PLP.PLP>
-45.0421

> <Gold.PLP.part.hbond>
-1.0061

> <Gold.PLP.part.metal>
0.0000

> <Gold.PLP.part.buried>
-4.4307

> <Gold.PLP.part.nonpolar>
-39.6188

> <Gold.PLP.part.repulsive>
0.1501

> <Gold.PLP.ligand.clash>
0.0000

> <Gold.PLP.ligand.torsion>
0.1026

> <Gold.PLP.Chemscore.Hbond>
0.8480

> <Gold.PLP.Chemscore.CHOScore>
0.0000

> <Gold.PLP.Chemscore.Metal>
0.0000

> <Gold.Chemscore.Hbonds>
donor molecule, donor type, donor heavy atom, donor atom, acceptor molecule, acceptor atom, score
      L1  H     7    33       P1  8028  0.94

> <Gold.PLP.Chemscore.Internal.Correction>
0.0117

> <Gold.Rescore>
     Score         DG    S(hbond)    S(metal)    S(lipo)     H(rot)  DE(clash)    DE(int)     intcor
     10.82     -14.12       0.82        0.00      83.42       1.51       0.23       3.07       ----

> <Gold.Chemscore.Fitness>
10.8181

> <Gold.Chemscore.DG>
-14.1168

> <Gold.Chemscore.ZeroCoef>
-5.4800

> <Gold.Chemscore.Hbond>
0.8235

> <Gold.Chemscore.Metal>
0.0000

> <Gold.Chemscore.Lipo>
83.4165

> <Gold.Chemscore.Internal_Hbond>
0.0000

> <Gold.Chemscore.DEClash>
0.2254

> <Gold.Chemscore.DEInternal>
3.0732

> <Gold.Chemscore.Rot>
1.5131

> <Gold.Chemscore.Internal.Correction>
   9.000000E+99

> <Gold.Chemscore.Hbonds>
donor molecule, donor type, donor heavy atom, donor atom, acceptor molecule, acceptor atom, score
      L1  H     7    33       P1  8028  0.73

> <Gold.Chemscore.Hbond.Weighted>
-2.7505

> <Gold.Chemscore.Metal.Weighted>
-0.0000

> <Gold.Chemscore.Lipo.Weighted>
-9.7597

> <Gold.Chemscore.Internal_Hbond.Weighted>
0.0000

> <Gold.Chemscore.DEClash.Weighted>
0.2254

> <Gold.Chemscore.DEInternal.Weighted>
3.0732

> <Gold.Chemscore.Rot.Weighted>
3.8734

> <Gold.Chemscore.Internal.Correction.Weighted>
   9.000000E+99

> <Gold.Protein.RotatedTorsions>
[ 6907 6896 6895 6894 ] final -165.52 input  -60.11 | X-H torsion
[ 7974 7965 7964 7962 ] final  -89.94 input  175.53 | X-H torsion
[ 8008 7997 7996 7995 ] final   39.12 input   59.86 | X-H torsion
[ 10167 10162 10161 10158 ] final   41.44 input  -65.29 | X-H torsion
[ 10718 10713 10712 10709 ] final   32.90 input   66.30 | X-H torsion
[ 10763 10752 10751 10750 ] final   73.51 input  -60.55 | X-H torsion
[ 11005 11000 10999 10996 ] final   67.59 input  -57.11 | X-H torsion

> <Gold.Protein.ActiveResidues>
 VAL166  LYS551  ARG553  GLY616  TRP617  ASP618  TYR619  PRO620  LYS621  CYS622 
 ASP623  PHE694  ASN695  SER759  ASP760  ASP761  ALA762  ILE779  LEU786  VAL792 
 PHE793  MET794  SER795  GLU796  ALA797  LYS798  CYS799  TRP800  GLU811  SER814 

> <Gold.Protein.RotatedAtoms>
  151.4290  133.3676  159.2765 H   0  0  0  0  0  0  0  0  0  0  0  0  # atno 6907 bound_to 6896
  150.9239  134.8657  159.7517 H   0  0  0  0  0  0  0  0  0  0  0  0  # atno 6908 bound_to 6896
  152.4995  134.4230  159.9539 H   0  0  0  0  0  0  0  0  0  0  0  0  # atno 6909 bound_to 6896
  145.4330  140.9556  143.2117 H   0  0  0  0  0  0  0  0  0  0  0  0  # atno 7974 bound_to 7965
  155.2314  140.3338  155.4303 H   0  0  0  0  0  0  0  0  0  0  0  0  # atno 8008 bound_to 7997
  156.2293  140.1843  156.7329 H   0  0  0  0  0  0  0  0  0  0  0  0  # atno 8009 bound_to 7997
  154.5951  140.0632  156.9278 H   0  0  0  0  0  0  0  0  0  0  0  0  # atno 8010 bound_to 7997
  140.3643  144.2188  150.6136 H   0  0  0  0  0  0  0  0  0  0  0  0  # atno 10167 bound_to 10162
  157.2910  130.7303  149.6611 H   0  0  0  0  0  0  0  0  0  0  0  0  # atno 10718 bound_to 10713
  153.0526  135.5060  154.7904 H   0  0  0  0  0  0  0  0  0  0  0  0  # atno 10763 bound_to 10752
  154.6755  135.2959  154.9687 H   0  0  0  0  0  0  0  0  0  0  0  0  # atno 10764 bound_to 10752
  154.0491  135.6706  153.4851 H   0  0  0  0  0  0  0  0  0  0  0  0  # atno 10765 bound_to 10752
  139.9762  134.6819  156.0350 H   0  0  0  0  0  0  0  0  0  0  0  0  # atno 11005 bound_to 11000
  144.8170  139.5859  143.7004 LP  0  0  0  0  0  0  0  0  0  0  0  0  # atno 17320 bound_to 7965
  146.2597  139.6382  142.9371 LP  0  0  0  0  0  0  0  0  0  0  0  0  # atno 17321 bound_to 7965
  140.5096  143.2294  151.8555 LP  0  0  0  0  0  0  0  0  0  0  0  0  # atno 17342 bound_to 10162
  139.4810  144.4965  151.9117 LP  0  0  0  0  0  0  0  0  0  0  0  0  # atno 17343 bound_to 10162
  155.9667  130.4309  150.4895 LP  0  0  0  0  0  0  0  0  0  0  0  0  # atno 17370 bound_to 10713
  157.2858  131.0616  151.2167 LP  0  0  0  0  0  0  0  0  0  0  0  0  # atno 17371 bound_to 10713
  141.1439  133.6559  156.3809 LP  0  0  0  0  0  0  0  0  0  0  0  0  # atno 17394 bound_to 11000
  140.5190  134.6322  157.5311 LP  0  0  0  0  0  0  0  0  0  0  0  0  # atno 17395 bound_to 11000

$$$$
