AV-unprocessed.smi:814|AV-procd|sdf|3824|dock10
  -GOLD-   22720 1263D 1   1.00000     0.00000
 Structure written by MMmdl.
 36 37  0  0  0  0  0  0  0  0  1 V2000
  152.6520  143.0774  161.6348 C   0  0  0  0  0  0  0  0  0  0  0  0
  152.3967  143.4997  160.2708 N   0  0  0  0  0  0  0  0  0  0  0  0
  152.4342  144.8053  159.7997 C   0  0  0  0  0  0  0  0  0  0  0  0
  152.1236  144.7505  158.4623 C   0  0  0  0  0  0  0  0  0  0  0  0
  151.8935  143.4287  158.0955 N   0  0  0  0  0  0  0  0  0  0  0  0
  152.0802  142.7301  159.2114 C   0  0  0  0  0  0  0  0  0  0  0  0
  151.9227  141.2443  159.2995 C   0  0  0  0  0  0  0  0  0  0  0  0
  151.8849  140.5741  157.9163 C   0  0  0  0  0  0  0  0  0  0  0  0
  150.7627  141.0558  157.1197 N   0  0  0  0  0  0  0  0  0  0  0  0
  150.5937  140.8164  155.8100 C   0  0  0  0  0  0  0  0  0  0  0  0
  151.3783  140.1412  155.1425 O   0  0  0  0  0  0  0  0  0  0  0  0
  149.3530  141.4349  155.1520 C   0  0  1  0  0  0  0  0  0  0  0  0
  148.8019  140.5197  154.0342 C   0  0  0  0  0  0  0  0  0  0  0  0
  147.4349  140.9660  153.5471 C   0  0  0  0  0  0  0  0  0  0  0  0
  146.6549  141.8280  154.2217 C   0  0  0  0  0  0  0  0  0  0  0  0
  147.0502  142.4503  155.5490 C   0  0  0  0  0  0  0  0  0  0  0  0
  148.2555  141.7380  156.1918 C   0  0  0  0  0  0  0  0  0  0  0  0
  152.7268  143.9459  162.2894 H   0  0  0  0  0  0  0  0  0  0  0  0
  153.5877  142.5201  161.6781 H   0  0  0  0  0  0  0  0  0  0  0  0
  151.8391  142.4421  161.9871 H   0  0  0  0  0  0  0  0  0  0  0  0
  152.6699  145.6439  160.4382 H   0  0  0  0  0  0  0  0  0  0  0  0
  152.0479  145.5523  157.7428 H   0  0  0  0  0  0  0  0  0  0  0  0
  152.7546  140.8437  159.8799 H   0  0  0  0  0  0  0  0  0  0  0  0
  151.0208  141.0109  159.8661 H   0  0  0  0  0  0  0  0  0  0  0  0
  152.8205  140.7456  157.3812 H   0  0  0  0  0  0  0  0  0  0  0  0
  151.7866  139.4940  158.0288 H   0  0  0  0  0  0  0  0  0  0  0  0
  150.0702  141.6162  157.5953 H   0  0  0  0  0  0  0  0  0  0  0  0
  149.6454  142.3836  154.6975 H   0  0  0  0  0  0  0  0  0  0  0  0
  149.4891  140.5193  153.1872 H   0  0  0  0  0  0  0  0  0  0  0  0
  148.7147  139.4862  154.3725 H   0  0  0  0  0  0  0  0  0  0  0  0
  147.0883  140.5448  152.6148 H   0  0  0  0  0  0  0  0  0  0  0  0
  145.6965  142.1159  153.8148 H   0  0  0  0  0  0  0  0  0  0  0  0
  147.2830  143.5007  155.3722 H   0  0  0  0  0  0  0  0  0  0  0  0
  146.1978  142.4232  156.2280 H   0  0  0  0  0  0  0  0  0  0  0  0
  147.9167  140.8050  156.6457 H   0  0  0  0  0  0  0  0  0  0  0  0
  148.6505  142.3490  157.0047 H   0  0  0  0  0  0  0  0  0  0  0  0
  1  2  1  0  0  0  0
  1 18  1  0  0  0  0
  1 19  1  0  0  0  0
  1 20  1  0  0  0  0
  2  6  1  0  0  0  0
  2  3  1  0  0  0  0
  3  4  2  0  0  0  0
  3 21  1  0  0  0  0
  4  5  1  0  0  0  0
  4 22  1  0  0  0  0
  5  6  2  0  0  0  0
  6  7  1  0  0  0  0
  7  8  1  0  0  0  0
  7 23  1  0  0  0  0
  7 24  1  0  0  0  0
  8  9  1  0  0  0  0
  8 25  1  0  0  0  0
  8 26  1  0  0  0  0
  9 10  1  0  0  0  0
  9 27  1  0  0  0  0
 10 11  2  0  0  0  0
 10 12  1  0  0  0  0
 12 17  1  0  0  0  0
 12 13  1  0  0  0  0
 12 28  1  0  0  0  0
 13 14  1  0  0  0  0
 13 29  1  0  0  0  0
 13 30  1  0  0  0  0
 14 15  2  0  0  0  0
 14 31  1  0  0  0  0
 15 16  1  0  0  0  0
 15 32  1  0  0  0  0
 16 17  1  0  0  0  0
 16 33  1  0  0  0  0
 16 34  1  0  0  0  0
 17 35  1  0  0  0  0
 17 36  1  0  0  0  0
M  END
> <s_m_source_file>
AV-unprocessed.smi

> <i_m_source_file_index>
814

> <i_lp_mmshare_version>
43012

> <i_f3d_flags>
0

> <s_epik_input>
W0NIM11uMVtjSF1bY0hdbmMxW0NIMl1bQ0gyXVtOSF1DKD1PKVtDQEBIXTJbQ0gyXVtDSF09W0NIXVtDSDJdW0NIMl0y

> <s_epik_cmdline>
J2VwaWtfcHl0aG9uJywgJy1waCcsICc3LjAnLCAnLXRuJywgJzgnLCAnLW1hJywgJzIwMCcsICctbWV0YWxfYmluZGluZycsICctaW1hZScsICc8aW5maWxlLm1hZT4nLCAnLW9tYWUnLCAnPG91dGZpbGUubWFlPic=

> <r_lp_tautomer_probability>
1

> <r_epik_Ionization_Penalty>
1.21249

> <r_epik_Ionization_Penalty_Charging>
1.21249

> <r_epik_Ionization_Penalty_Neutral>
1.60917e-08

> <r_epik_State_Penalty>
1.27906

> <r_epik_Charging_Adjusted_Penalty>
2.49154

> <i_epik_Tot_Q>
0

> <i_epik_Tot_abs_Q>
0

> <r_epik_Metal_State_Penalty>
0.409603

> <b_epik_Metal_Only>
0

> <s_lp_Force_Field>
OPLS_2005

> <r_lp_Energy>
6.01065

> <b_lp_Chiralities_Consistent>
1

> <s_lp_Variant>
AV-unprocessed.smi:814-4

> <Gold.Version>
5.8.1

> <Gold.Id.Protein>
6NUR|6NUR_protein|mol2

> <Gold.PLP.Fitness>
41.8767

> <Gold.PLP.PLP>
-40.6760

> <Gold.PLP.part.hbond>
-1.0000

> <Gold.PLP.part.metal>
0.0000

> <Gold.PLP.part.buried>
-2.8324

> <Gold.PLP.part.nonpolar>
-36.8618

> <Gold.PLP.part.repulsive>
0.1570

> <Gold.PLP.ligand.clash>
0.0000

> <Gold.PLP.ligand.torsion>
0.9116

> <Gold.PLP.Chemscore.Hbond>
1.0000

> <Gold.PLP.Chemscore.CHOScore>
0.0000

> <Gold.PLP.Chemscore.Metal>
0.0000

> <Gold.Chemscore.Hbonds>
donor molecule, donor type, donor heavy atom, donor atom, acceptor molecule, acceptor atom, score
      P1  H  7989  7998       L1    11  1.00

> <Gold.PLP.Chemscore.Internal.Correction>
0.0240

> <Gold.Rescore>
     Score         DG    S(hbond)    S(metal)    S(lipo)     H(rot)  DE(clash)    DE(int)     intcor
     14.01     -14.67       0.84        0.00      89.15       1.58       0.14       0.53       ----

> <Gold.Chemscore.Fitness>
14.0079

> <Gold.Chemscore.DG>
-14.6727

> <Gold.Chemscore.ZeroCoef>
-5.4800

> <Gold.Chemscore.Hbond>
0.8410

> <Gold.Chemscore.Metal>
0.0000

> <Gold.Chemscore.Lipo>
89.1530

> <Gold.Chemscore.Internal_Hbond>
0.0000

> <Gold.Chemscore.DEClash>
0.1379

> <Gold.Chemscore.DEInternal>
0.5269

> <Gold.Chemscore.Rot>
1.5809

> <Gold.Chemscore.Internal.Correction>
   9.000000E+99

> <Gold.Chemscore.Hbonds>
donor molecule, donor type, donor heavy atom, donor atom, acceptor molecule, acceptor atom, score
      P1  H  7989  7998       L1    11  0.77

> <Gold.Chemscore.Hbond.Weighted>
-2.8090

> <Gold.Chemscore.Metal.Weighted>
-0.0000

> <Gold.Chemscore.Lipo.Weighted>
-10.4309

> <Gold.Chemscore.Internal_Hbond.Weighted>
0.0000

> <Gold.Chemscore.DEClash.Weighted>
0.1379

> <Gold.Chemscore.DEInternal.Weighted>
0.5269

> <Gold.Chemscore.Rot.Weighted>
4.0472

> <Gold.Chemscore.Internal.Correction.Weighted>
   9.000000E+99

> <Gold.Protein.RotatedTorsions>
[ 6907 6896 6895 6894 ] final  167.62 input  -60.11 | X-H torsion
[ 7974 7965 7964 7962 ] final   80.19 input  175.53 | X-H torsion
[ 8008 7997 7996 7995 ] final  151.07 input   59.86 | X-H torsion
[ 10167 10162 10161 10158 ] final -149.61 input  -65.29 | X-H torsion
[ 10718 10713 10712 10709 ] final  128.14 input   66.30 | X-H torsion
[ 10763 10752 10751 10750 ] final -142.64 input  -60.55 | X-H torsion
[ 11005 11000 10999 10996 ] final -106.17 input  -57.11 | X-H torsion

> <Gold.Protein.ActiveResidues>
 VAL166  LYS551  ARG553  GLY616  TRP617  ASP618  TYR619  PRO620  LYS621  CYS622 
 ASP623  PHE694  ASN695  SER759  ASP760  ASP761  ALA762  ILE779  LEU786  VAL792 
 PHE793  MET794  SER795  GLU796  ALA797  LYS798  CYS799  TRP800  GLU811  SER814 

> <Gold.Protein.RotatedAtoms>
  151.8605  133.3456  159.3701 H   0  0  0  0  0  0  0  0  0  0  0  0  # atno 6907 bound_to 6896
  150.7180  134.5211  159.5663 H   0  0  0  0  0  0  0  0  0  0  0  0  # atno 6908 bound_to 6896
  152.2723  134.7919  160.0463 H   0  0  0  0  0  0  0  0  0  0  0  0  # atno 6909 bound_to 6896
  145.6544  139.2455  143.1958 H   0  0  0  0  0  0  0  0  0  0  0  0  # atno 7974 bound_to 7965
  156.2689  140.2058  156.6117 H   0  0  0  0  0  0  0  0  0  0  0  0  # atno 8008 bound_to 7997
  154.6826  140.0538  157.0305 H   0  0  0  0  0  0  0  0  0  0  0  0  # atno 8009 bound_to 7997
  155.0979  140.3203  155.4558 H   0  0  0  0  0  0  0  0  0  0  0  0  # atno 8010 bound_to 7997
  139.7428  143.8637  152.2567 H   0  0  0  0  0  0  0  0  0  0  0  0  # atno 10167 bound_to 10162
  157.5271  131.1098  150.9066 H   0  0  0  0  0  0  0  0  0  0  0  0  # atno 10718 bound_to 10713
  154.8501  135.3490  154.6060 H   0  0  0  0  0  0  0  0  0  0  0  0  # atno 10763 bound_to 10752
  153.6668  135.6987  153.5164 H   0  0  0  0  0  0  0  0  0  0  0  0  # atno 10764 bound_to 10752
  153.2774  135.4274  155.1003 H   0  0  0  0  0  0  0  0  0  0  0  0  # atno 10765 bound_to 10752
  141.1018  133.8870  157.1823 H   0  0  0  0  0  0  0  0  0  0  0  0  # atno 11005 bound_to 11000
  146.1177  140.7349  142.9473 LP  0  0  0  0  0  0  0  0  0  0  0  0  # atno 17320 bound_to 7965
  144.7111  140.4041  143.7080 LP  0  0  0  0  0  0  0  0  0  0  0  0  # atno 17321 bound_to 7965
  139.8592  144.7126  150.9120 LP  0  0  0  0  0  0  0  0  0  0  0  0  # atno 17342 bound_to 10162
  140.7788  143.3832  151.1440 LP  0  0  0  0  0  0  0  0  0  0  0  0  # atno 17343 bound_to 10162
  156.9659  130.5472  149.5288 LP  0  0  0  0  0  0  0  0  0  0  0  0  # atno 17370 bound_to 10713
  156.0395  130.5479  150.8736 LP  0  0  0  0  0  0  0  0  0  0  0  0  # atno 17371 bound_to 10713
  139.9872  135.0078  156.9890 LP  0  0  0  0  0  0  0  0  0  0  0  0  # atno 17394 bound_to 11000
  140.5003  134.1104  155.7249 LP  0  0  0  0  0  0  0  0  0  0  0  0  # atno 17395 bound_to 11000

$$$$
