AV-unprocessed.smi:3183|AV-procd|sdf|12160|dock6
  -GOLD-   2272017593D 1   1.00000     0.00000
 Structure written by MMmdl.
 43 44  0  0  0  0  0  0  0  0  2 V2000
  152.5876  143.9489  162.2219 C   0  0  0  0  0  0  0  0  0  0  0  0
  152.0012  143.4335  160.8957 C   0  0  1  0  0  0  0  0  0  0  0  0
  151.1830  144.5502  160.2164 C   0  0  0  0  0  0  0  0  0  0  0  0
  150.5582  144.0884  158.8924 C   0  0  0  0  0  0  0  0  0  0  0  0
  151.6342  143.5615  157.9241 C   0  0  2  0  0  0  0  0  0  0  0  0
  151.0380  143.0611  156.6655 N   0  3  0  0  0  0  0  0  0  0  0  0
  150.3152  141.7764  156.7738 C   0  0  0  0  0  0  0  0  0  0  0  0
  149.6396  141.4128  155.4432 C   0  0  0  0  0  0  0  0  0  0  0  0
  149.8551  139.9942  155.0091 C   0  0  0  0  0  0  0  0  0  0  0  0
  148.9951  139.0885  154.4494 C   0  0  0  0  0  0  0  0  0  0  0  0
  149.7853  137.9205  154.2693 C   0  0  0  0  0  0  0  0  0  0  0  0
  151.0299  138.0836  154.6798 N   0  0  0  0  0  0  0  0  0  0  0  0
  151.0772  139.3538  155.1327 N   0  0  0  0  0  0  0  0  0  0  0  0
  152.3326  139.8503  155.6644 C   0  0  0  0  0  0  0  0  0  0  0  0
  152.4400  142.4369  158.5976 C   0  0  0  0  0  0  0  0  0  0  0  0
  153.0821  142.8860  159.9267 C   0  0  2  0  0  0  0  0  0  0  0  0
  153.8993  141.7298  160.5307 C   0  0  0  0  0  0  0  0  0  0  0  0
  153.3440  144.7152  162.0501 H   0  0  0  0  0  0  0  0  0  0  0  0
  153.0458  143.1476  162.8012 H   0  0  0  0  0  0  0  0  0  0  0  0
  151.8102  144.3862  162.8490 H   0  0  0  0  0  0  0  0  0  0  0  0
  151.3154  142.6192  161.1356 H   0  0  0  0  0  0  0  0  0  0  0  0
  150.3929  144.8920  160.8863 H   0  0  0  0  0  0  0  0  0  0  0  0
  151.8226  145.4149  160.0322 H   0  0  0  0  0  0  0  0  0  0  0  0
  149.8204  143.3096  159.0898 H   0  0  0  0  0  0  0  0  0  0  0  0
  150.0156  144.9237  158.4502 H   0  0  0  0  0  0  0  0  0  0  0  0
  152.3237  144.3706  157.6776 H   0  0  0  0  0  0  0  0  0  0  0  0
  150.3728  143.7523  156.3493 H   0  0  0  0  0  0  0  0  0  0  0  0
  151.0088  140.9862  157.0611 H   0  0  0  0  0  0  0  0  0  0  0  0
  149.5645  141.8539  157.5615 H   0  0  0  0  0  0  0  0  0  0  0  0
  148.5682  141.5988  155.5262 H   0  0  0  0  0  0  0  0  0  0  0  0
  150.0060  142.0805  154.6624 H   0  0  0  0  0  0  0  0  0  0  0  0
  147.9538  139.2335  154.2035 H   0  0  0  0  0  0  0  0  0  0  0  0
  149.4929  136.9667  153.8558 H   0  0  0  0  0  0  0  0  0  0  0  0
  152.2824  140.9234  155.8460 H   0  0  0  0  0  0  0  0  0  0  0  0
  153.1368  139.6556  154.9539 H   0  0  0  0  0  0  0  0  0  0  0  0
  152.5580  139.3438  156.6033 H   0  0  0  0  0  0  0  0  0  0  0  0
  151.7899  141.5795  158.7800 H   0  0  0  0  0  0  0  0  0  0  0  0
  153.2178  142.0908  157.9154 H   0  0  0  0  0  0  0  0  0  0  0  0
  153.7785  143.6955  159.7018 H   0  0  0  0  0  0  0  0  0  0  0  0
  153.2544  140.9096  160.8474 H   0  0  0  0  0  0  0  0  0  0  0  0
  154.4801  142.0526  161.3944 H   0  0  0  0  0  0  0  0  0  0  0  0
  154.6100  141.3317  159.8057 H   0  0  0  0  0  0  0  0  0  0  0  0
  151.7661  142.9778  155.9704 H   0  0  0  0  0  0  0  0  0  0  0  0
  1  2  1  0  0  0  0
  1 18  1  0  0  0  0
  1 19  1  0  0  0  0
  1 20  1  0  0  0  0
  2 16  1  0  0  0  0
  2  3  1  0  0  0  0
  2 21  1  0  0  0  0
  3  4  1  0  0  0  0
  3 22  1  0  0  0  0
  3 23  1  0  0  0  0
  4  5  1  0  0  0  0
  4 24  1  0  0  0  0
  4 25  1  0  0  0  0
  5  6  1  0  0  0  0
  5 15  1  0  0  0  0
  5 26  1  0  0  0  0
  6  7  1  0  0  0  0
  6 27  1  0  0  0  0
  6 43  1  0  0  0  0
  7  8  1  0  0  0  0
  7 28  1  0  0  0  0
  7 29  1  0  0  0  0
  8  9  1  0  0  0  0
  8 30  1  0  0  0  0
  8 31  1  0  0  0  0
  9 13  1  0  0  0  0
  9 10  2  0  0  0  0
 10 11  1  0  0  0  0
 10 32  1  0  0  0  0
 11 12  2  0  0  0  0
 11 33  1  0  0  0  0
 12 13  1  0  0  0  0
 13 14  1  0  0  0  0
 14 34  1  0  0  0  0
 14 35  1  0  0  0  0
 14 36  1  0  0  0  0
 15 16  1  0  0  0  0
 15 37  1  0  0  0  0
 15 38  1  0  0  0  0
 16 17  1  0  0  0  0
 16 39  1  0  0  0  0
 17 40  1  0  0  0  0
 17 41  1  0  0  0  0
 17 42  1  0  0  0  0
M  CHG  1   6   1
M  END
> <s_m_source_file>
AV-unprocessed.smi

> <i_m_source_file_index>
3183

> <i_lp_mmshare_version>
43012

> <i_f3d_flags>
0

> <s_epik_input>
W0NIM11bQ0BASF0xW0NIMl1bQ0gyXVtDQEhdKFtDSDJdW0NASF0xW0NIM10pW05IXVtDSDJdW0NIMl1jMltjSF1bY0hdbm4yW0NIM10=

> <s_epik_cmdline>
J2VwaWtfcHl0aG9uJywgJy1waCcsICc3LjAnLCAnLXRuJywgJzgnLCAnLW1hJywgJzIwMCcsICctbWV0YWxfYmluZGluZycsICctaW1hZScsICc8aW5maWxlLm1hZT4nLCAnLW9tYWUnLCAnPG91dGZpbGUubWFlPic=

> <r_lp_tautomer_probability>
1

> <r_epik_Ionization_Penalty>
0.000327718

> <r_epik_Ionization_Penalty_Charging>
0.000294043

> <r_epik_Ionization_Penalty_Neutral>
3.36755e-05

> <r_epik_State_Penalty>
-0

> <r_epik_Charging_Adjusted_Penalty>
0.000294043

> <i_epik_Tot_Q>
1

> <i_epik_Tot_abs_Q>
1

> <r_epik_Metal_State_Penalty>
-0

> <b_epik_Metal_Only>
0

> <s_lp_Force_Field>
OPLS_2005

> <r_lp_Energy>
12.5672

> <b_lp_Chiralities_Consistent>
1

> <s_lp_Variant>
AV-unprocessed.smi:3183-8

> <Gold.Version>
5.8.1

> <Gold.Id.Protein>
6NUR|6NUR_protein|mol2

> <Gold.PLP.Fitness>
48.1791

> <Gold.PLP.PLP>
-40.4972

> <Gold.PLP.part.hbond>
-1.0000

> <Gold.PLP.part.metal>
0.0000

> <Gold.PLP.part.buried>
-1.5580

> <Gold.PLP.part.nonpolar>
-38.2815

> <Gold.PLP.part.repulsive>
0.2131

> <Gold.PLP.ligand.clash>
0.0000

> <Gold.PLP.ligand.torsion>
0.6661

> <Gold.PLP.Chemscore.Hbond>
2.0000

> <Gold.PLP.Chemscore.CHOScore>
1.0000

> <Gold.PLP.Chemscore.Metal>
0.0000

> <Gold.Chemscore.Hbonds>
donor molecule, donor type, donor heavy atom, donor atom, acceptor molecule, acceptor atom, score
      L1  H     6    27       P1  8028  2.00
      L1  C    11    33       P1  7948  1.00

> <Gold.PLP.Chemscore.Internal.Correction>
0.0140

> <Gold.Rescore>
     Score         DG    S(hbond)    S(metal)    S(lipo)     H(rot)  DE(clash)    DE(int)     intcor
     19.21     -19.77       0.98        0.00     124.33       1.38       0.16       0.40       ----

> <Gold.Chemscore.Fitness>
19.2090

> <Gold.Chemscore.DG>
-19.7693

> <Gold.Chemscore.ZeroCoef>
-5.4800

> <Gold.Chemscore.Hbond>
0.9784

> <Gold.Chemscore.Metal>
0.0000

> <Gold.Chemscore.Lipo>
124.3258

> <Gold.Chemscore.Internal_Hbond>
0.0000

> <Gold.Chemscore.DEClash>
0.1576

> <Gold.Chemscore.DEInternal>
0.4027

> <Gold.Chemscore.Rot>
1.3768

> <Gold.Chemscore.Internal.Correction>
   9.000000E+99

> <Gold.Chemscore.Hbonds>
donor molecule, donor type, donor heavy atom, donor atom, acceptor molecule, acceptor atom, score
      L1  H     6    27       P1  8028  1.00

> <Gold.Chemscore.Hbond.Weighted>
-3.2679

> <Gold.Chemscore.Metal.Weighted>
-0.0000

> <Gold.Chemscore.Lipo.Weighted>
-14.5461

> <Gold.Chemscore.Internal_Hbond.Weighted>
0.0000

> <Gold.Chemscore.DEClash.Weighted>
0.1576

> <Gold.Chemscore.DEInternal.Weighted>
0.4027

> <Gold.Chemscore.Rot.Weighted>
3.5247

> <Gold.Chemscore.Internal.Correction.Weighted>
   9.000000E+99

> <Gold.Protein.RotatedTorsions>
[ 6907 6896 6895 6894 ] final -178.24 input  -60.11 | X-H torsion
[ 7974 7965 7964 7962 ] final  155.11 input  175.53 | X-H torsion
[ 8008 7997 7996 7995 ] final   14.53 input   59.86 | X-H torsion
[ 10167 10162 10161 10158 ] final  131.86 input  -65.29 | X-H torsion
[ 10718 10713 10712 10709 ] final  164.04 input   66.30 | X-H torsion
[ 10763 10752 10751 10750 ] final  -69.50 input  -60.55 | X-H torsion
[ 11005 11000 10999 10996 ] final -145.64 input  -57.11 | X-H torsion

> <Gold.Protein.ActiveResidues>
 VAL166  LYS551  ARG553  GLY616  TRP617  ASP618  TYR619  PRO620  LYS621  CYS622 
 ASP623  PHE694  ASN695  SER759  ASP760  ASP761  ALA762  ILE779  LEU786  VAL792 
 PHE793  MET794  SER795  GLU796  ALA797  LYS798  CYS799  TRP800  GLU811  SER814 

> <Gold.Protein.RotatedAtoms>
  151.6340  133.3330  159.3114 H   0  0  0  0  0  0  0  0  0  0  0  0  # atno 6907 bound_to 6896
  150.8042  134.7159  159.6640 H   0  0  0  0  0  0  0  0  0  0  0  0  # atno 6908 bound_to 6896
  152.4136  134.6085  160.0071 H   0  0  0  0  0  0  0  0  0  0  0  0  # atno 6909 bound_to 6896
  144.8046  139.7023  143.6167 H   0  0  0  0  0  0  0  0  0  0  0  0  # atno 7974 bound_to 7965
  154.8498  140.2928  155.5605 H   0  0  0  0  0  0  0  0  0  0  0  0  # atno 8008 bound_to 7997
  156.3016  140.2498  156.3387 H   0  0  0  0  0  0  0  0  0  0  0  0  # atno 8009 bound_to 7997
  154.9033  140.0390  157.1895 H   0  0  0  0  0  0  0  0  0  0  0  0  # atno 8010 bound_to 7997
  139.5365  144.6687  151.4769 H   0  0  0  0  0  0  0  0  0  0  0  0  # atno 10167 bound_to 10162
  157.0999  131.0440  151.2502 H   0  0  0  0  0  0  0  0  0  0  0  0  # atno 10718 bound_to 10713
  154.4043  135.6024  153.5915 H   0  0  0  0  0  0  0  0  0  0  0  0  # atno 10763 bound_to 10752
  152.9789  135.5914  154.4146 H   0  0  0  0  0  0  0  0  0  0  0  0  # atno 10764 bound_to 10752
  154.3949  135.2842  155.2110 H   0  0  0  0  0  0  0  0  0  0  0  0  # atno 10765 bound_to 10752
  140.7902  134.2977  157.5016 H   0  0  0  0  0  0  0  0  0  0  0  0  # atno 11005 bound_to 11000
  146.2334  139.5859  142.9540 LP  0  0  0  0  0  0  0  0  0  0  0  0  # atno 17320 bound_to 7965
  145.5470  141.0416  143.2299 LP  0  0  0  0  0  0  0  0  0  0  0  0  # atno 17321 bound_to 7965
  140.6574  143.8571  150.6850 LP  0  0  0  0  0  0  0  0  0  0  0  0  # atno 17342 bound_to 10162
  140.1954  143.4002  152.1831 LP  0  0  0  0  0  0  0  0  0  0  0  0  # atno 17343 bound_to 10162
  157.4649  130.7675  149.7270 LP  0  0  0  0  0  0  0  0  0  0  0  0  # atno 17370 bound_to 10713
  155.9876  130.3965  150.3157 LP  0  0  0  0  0  0  0  0  0  0  0  0  # atno 17371 bound_to 10713
  139.8732  134.9370  156.3675 LP  0  0  0  0  0  0  0  0  0  0  0  0  # atno 17394 bound_to 11000
  140.9397  133.7523  156.0130 LP  0  0  0  0  0  0  0  0  0  0  0  0  # atno 17395 bound_to 11000

$$$$
