AV-unprocessed.smi:2224|AV-procd|sdf|8997|dock4
  -GOLD-   2272012203D 1   1.00000     0.00000
 Structure written by MMmdl.
 44 46  0  0  0  0  0  0  0  0  1 V2000
  152.0013  145.9256  159.7955 C   0  0  0  0  0  0  0  0  0  0  0  0
  152.0991  144.4489  159.4749 C   0  0  0  0  0  0  0  0  0  0  0  0
  151.4564  143.9111  158.3435 C   0  0  0  0  0  0  0  0  0  0  0  0
  151.5855  142.5297  158.0999 C   0  0  0  0  0  0  0  0  0  0  0  0
  150.9232  141.8855  156.9001 C   0  0  0  0  0  0  0  0  0  0  0  0
  152.2956  141.7041  158.8981 N   0  0  0  0  0  0  0  0  0  0  0  0
  152.9187  142.2108  159.9910 C   0  0  0  0  0  0  0  0  0  0  0  0
  153.6902  141.4286  160.8916 N   0  0  0  0  0  0  0  0  0  0  0  0
  154.2749  140.2387  160.6668 C   0  0  0  0  0  0  0  0  0  0  0  0
  154.2188  139.6033  159.6136 O   0  0  0  0  0  0  0  0  0  0  0  0
  154.9482  139.8163  161.7458 N   0  0  0  0  0  0  0  0  0  0  0  0
  155.6998  138.5582  161.8138 C   0  0  2  0  0  0  0  0  0  0  0  0
  154.9499  137.4612  162.5746 C   0  0  2  0  0  0  0  0  0  0  0  0
  153.5431  137.2240  162.9905 C   0  0  0  0  0  0  0  0  0  0  0  0
  153.8507  136.6897  164.4161 C   0  0  0  0  0  0  0  0  0  0  0  0
  155.2608  136.9445  164.6435 O   0  0  0  0  0  0  0  0  0  0  0  0
  155.5384  138.0680  163.8312 C   0  0  1  0  0  0  0  0  0  0  0  0
  156.7650  138.4615  162.9782 C   0  0  0  0  0  0  0  0  0  0  0  0
  157.8813  137.4122  162.8269 C   0  0  0  0  0  0  0  0  0  0  0  0
  157.4665  139.7578  163.3989 C   0  0  0  0  0  0  0  0  0  0  0  0
  152.8384  143.5855  160.3084 C   0  0  0  0  0  0  0  0  0  0  0  0
  151.4640  146.4659  159.0155 H   0  0  0  0  0  0  0  0  0  0  0  0
  152.9972  146.3596  159.8860 H   0  0  0  0  0  0  0  0  0  0  0  0
  151.4742  146.0728  160.7383 H   0  0  0  0  0  0  0  0  0  0  0  0
  150.8805  144.5399  157.6802 H   0  0  0  0  0  0  0  0  0  0  0  0
  150.2222  142.5700  156.4213 H   0  0  0  0  0  0  0  0  0  0  0  0
  150.3733  140.9928  157.1997 H   0  0  0  0  0  0  0  0  0  0  0  0
  151.6745  141.5962  156.1649 H   0  0  0  0  0  0  0  0  0  0  0  0
  153.8209  141.8271  161.8094 H   0  0  0  0  0  0  0  0  0  0  0  0
  154.9458  140.3950  162.5727 H   0  0  0  0  0  0  0  0  0  0  0  0
  156.0805  138.2179  160.8493 H   0  0  0  0  0  0  0  0  0  0  0  0
  155.4011  136.4992  162.3193 H   0  0  0  0  0  0  0  0  0  0  0  0
  152.9575  138.1438  163.0151 H   0  0  0  0  0  0  0  0  0  0  0  0
  153.0333  136.4892  162.3671 H   0  0  0  0  0  0  0  0  0  0  0  0
  153.2452  137.2047  165.1630 H   0  0  0  0  0  0  0  0  0  0  0  0
  153.6555  135.6204  164.5016 H   0  0  0  0  0  0  0  0  0  0  0  0
  154.9970  138.9455  164.1994 H   0  0  0  0  0  0  0  0  0  0  0  0
  158.3428  137.1869  163.7887 H   0  0  0  0  0  0  0  0  0  0  0  0
  158.6707  137.7668  162.1635 H   0  0  0  0  0  0  0  0  0  0  0  0
  157.5364  136.4655  162.4144 H   0  0  0  0  0  0  0  0  0  0  0  0
  158.1021  139.6048  164.2715 H   0  0  0  0  0  0  0  0  0  0  0  0
  156.7557  140.5410  163.6631 H   0  0  0  0  0  0  0  0  0  0  0  0
  158.0946  140.1489  162.5977 H   0  0  0  0  0  0  0  0  0  0  0  0
  153.3392  143.9775  161.1822 H   0  0  0  0  0  0  0  0  0  0  0  0
  1  2  1  0  0  0  0
  1 22  1  0  0  0  0
  1 23  1  0  0  0  0
  1 24  1  0  0  0  0
  2 21  1  0  0  0  0
  2  3  2  0  0  0  0
  3  4  1  0  0  0  0
  3 25  1  0  0  0  0
  4  5  1  0  0  0  0
  4  6  2  0  0  0  0
  5 26  1  0  0  0  0
  5 27  1  0  0  0  0
  5 28  1  0  0  0  0
  6  7  1  0  0  0  0
  7  8  1  0  0  0  0
  7 21  2  0  0  0  0
  8  9  1  0  0  0  0
  8 29  1  0  0  0  0
  9 10  2  0  0  0  0
  9 11  1  0  0  0  0
 11 12  1  0  0  0  0
 11 30  1  0  0  0  0
 12 18  1  0  0  0  0
 12 13  1  0  0  0  0
 12 31  1  0  0  0  0
 13 17  1  0  0  0  0
 13 14  1  0  0  0  0
 13 32  1  0  0  0  0
 14 15  1  0  0  0  0
 14 33  1  0  0  0  0
 14 34  1  0  0  0  0
 15 16  1  0  0  0  0
 15 35  1  0  0  0  0
 15 36  1  0  0  0  0
 16 17  1  0  0  0  0
 17 18  1  0  0  0  0
 17 37  1  0  0  0  0
 18 19  1  0  0  0  0
 18 20  1  0  0  0  0
 19 38  1  0  0  0  0
 19 39  1  0  0  0  0
 19 40  1  0  0  0  0
 20 41  1  0  0  0  0
 20 42  1  0  0  0  0
 20 43  1  0  0  0  0
 21 44  1  0  0  0  0
M  END
> <s_m_source_file>
AV-unprocessed.smi

> <i_m_source_file_index>
2224

> <i_lp_mmshare_version>
43012

> <i_f3d_flags>
0

> <s_epik_input>
W0NIM11jMVtjSF1jKFtDSDNdKW5jKFtjSF0xKVtOSF1DKD1PKVtOSF1bQ0BIXTJDKFtDSDNdKShbQ0gzXSlbQ0BIXShbQ0BASF0yMylPW0NIMl1bQ0gyXTM=

> <s_epik_cmdline>
J2VwaWtfcHl0aG9uJywgJy1waCcsICc3LjAnLCAnLXRuJywgJzgnLCAnLW1hJywgJzIwMCcsICctbWV0YWxfYmluZGluZycsICctaW1hZScsICc8aW5maWxlLm1hZT4nLCAnLW9tYWUnLCAnPG91dGZpbGUubWFlPic=

> <r_lp_tautomer_probability>
1

> <r_epik_Ionization_Penalty>
0.000276544

> <r_epik_Ionization_Penalty_Charging>
0

> <r_epik_Ionization_Penalty_Neutral>
0.000276544

> <r_epik_State_Penalty>
-0

> <r_epik_Charging_Adjusted_Penalty>
0

> <i_epik_Tot_Q>
0

> <i_epik_Tot_abs_Q>
0

> <r_epik_Metal_State_Penalty>
-0

> <b_epik_Metal_Only>
0

> <s_lp_Force_Field>
OPLS_2005

> <r_lp_Energy>
64.3879

> <b_lp_Chiralities_Consistent>
1

> <s_lp_Variant>
AV-unprocessed.smi:2224-7

> <Gold.Version>
5.8.1

> <Gold.Id.Protein>
6NUR|6NUR_protein|mol2

> <Gold.PLP.Fitness>
40.3479

> <Gold.PLP.PLP>
-40.7877

> <Gold.PLP.part.hbond>
0.0000

> <Gold.PLP.part.metal>
0.0000

> <Gold.PLP.part.buried>
-5.0171

> <Gold.PLP.part.nonpolar>
-34.8570

> <Gold.PLP.part.repulsive>
0.1142

> <Gold.PLP.ligand.clash>
0.0000

> <Gold.PLP.ligand.torsion>
0.3494

> <Gold.PLP.Chemscore.Hbond>
0.0000

> <Gold.PLP.Chemscore.CHOScore>
0.0000

> <Gold.PLP.Chemscore.Metal>
0.0000

> <Gold.PLP.Chemscore.Internal.Correction>
0.2589

> <Gold.Rescore>
     Score         DG    S(hbond)    S(metal)    S(lipo)     H(rot)  DE(clash)    DE(int)     intcor
     14.20     -16.04       0.00        0.00     112.16       1.00       0.30       1.55       ----

> <Gold.Chemscore.Fitness>
14.1955

> <Gold.Chemscore.DG>
-16.0427

> <Gold.Chemscore.ZeroCoef>
-5.4800

> <Gold.Chemscore.Hbond>
0.0000

> <Gold.Chemscore.Metal>
0.0000

> <Gold.Chemscore.Lipo>
112.1596

> <Gold.Chemscore.Internal_Hbond>
0.0000

> <Gold.Chemscore.DEClash>
0.2989

> <Gold.Chemscore.DEInternal>
1.5484

> <Gold.Chemscore.Rot>
1.0000

> <Gold.Chemscore.Internal.Correction>
   9.000000E+99

> <Gold.Chemscore.Hbond.Weighted>
-0.0000

> <Gold.Chemscore.Metal.Weighted>
-0.0000

> <Gold.Chemscore.Lipo.Weighted>
-13.1227

> <Gold.Chemscore.Internal_Hbond.Weighted>
0.0000

> <Gold.Chemscore.DEClash.Weighted>
0.2989

> <Gold.Chemscore.DEInternal.Weighted>
1.5484

> <Gold.Chemscore.Rot.Weighted>
2.5600

> <Gold.Chemscore.Internal.Correction.Weighted>
   9.000000E+99

> <Gold.Protein.RotatedTorsions>
[ 6907 6896 6895 6894 ] final  -28.35 input  -60.11 | X-H torsion
[ 7974 7965 7964 7962 ] final   16.46 input  175.53 | X-H torsion
[ 8008 7997 7996 7995 ] final -169.21 input   59.86 | X-H torsion
[ 10167 10162 10161 10158 ] final -104.55 input  -65.29 | X-H torsion
[ 10718 10713 10712 10709 ] final -114.04 input   66.30 | X-H torsion
[ 10763 10752 10751 10750 ] final  -42.84 input  -60.55 | X-H torsion
[ 11005 11000 10999 10996 ] final  118.53 input  -57.11 | X-H torsion

> <Gold.Protein.ActiveResidues>
 VAL166  LYS551  ARG553  GLY616  TRP617  ASP618  TYR619  PRO620  LYS621  CYS622 
 ASP623  PHE694  ASN695  SER759  ASP760  ASP761  ALA762  ILE779  LEU786  VAL792 
 PHE793  MET794  SER795  GLU796  ALA797  LYS798  CYS799  TRP800  GLU811  SER814 

> <Gold.Protein.RotatedAtoms>
  151.1342  135.0146  159.8595 H   0  0  0  0  0  0  0  0  0  0  0  0  # atno 6907 bound_to 6896
  152.5451  134.1575  159.8554 H   0  0  0  0  0  0  0  0  0  0  0  0  # atno 6908 bound_to 6896
  151.1644  133.4779  159.2627 H   0  0  0  0  0  0  0  0  0  0  0  0  # atno 6909 bound_to 6896
  146.2249  139.8745  142.8581 H   0  0  0  0  0  0  0  0  0  0  0  0  # atno 7974 bound_to 7965
  155.9019  140.1042  157.1343 H   0  0  0  0  0  0  0  0  0  0  0  0  # atno 8008 bound_to 7997
  154.4027  140.1291  156.4511 H   0  0  0  0  0  0  0  0  0  0  0  0  # atno 8009 bound_to 7997
  155.7412  140.3467  155.5107 H   0  0  0  0  0  0  0  0  0  0  0  0  # atno 8010 bound_to 7997
  140.2081  143.3767  152.1074 H   0  0  0  0  0  0  0  0  0  0  0  0  # atno 10167 bound_to 10162
  156.0805  130.6005  150.8722 H   0  0  0  0  0  0  0  0  0  0  0  0  # atno 10718 bound_to 10713
  153.9858  135.6711  153.4752 H   0  0  0  0  0  0  0  0  0  0  0  0  # atno 10763 bound_to 10752
  153.0727  135.4965  154.8336 H   0  0  0  0  0  0  0  0  0  0  0  0  # atno 10764 bound_to 10752
  154.7138  135.3103  154.9117 H   0  0  0  0  0  0  0  0  0  0  0  0  # atno 10765 bound_to 10752
  139.9113  134.9621  156.7518 H   0  0  0  0  0  0  0  0  0  0  0  0  # atno 11005 bound_to 11000
  145.2575  141.0065  143.3846 LP  0  0  0  0  0  0  0  0  0  0  0  0  # atno 17320 bound_to 7965
  144.9325  139.4282  143.6488 LP  0  0  0  0  0  0  0  0  0  0  0  0  # atno 17321 bound_to 7965
  139.5191  144.7014  151.5481 LP  0  0  0  0  0  0  0  0  0  0  0  0  # atno 17342 bound_to 10162
  140.6343  143.9015  150.6633 LP  0  0  0  0  0  0  0  0  0  0  0  0  # atno 17343 bound_to 10162
  157.5919  131.0944  150.9104 LP  0  0  0  0  0  0  0  0  0  0  0  0  # atno 17370 bound_to 10713
  156.9279  130.5339  149.5279 LP  0  0  0  0  0  0  0  0  0  0  0  0  # atno 17371 bound_to 10713
  140.6767  133.9510  155.7887 LP  0  0  0  0  0  0  0  0  0  0  0  0  # atno 17394 bound_to 11000
  141.0539  134.0445  157.3748 LP  0  0  0  0  0  0  0  0  0  0  0  0  # atno 17395 bound_to 11000

$$$$
