AV-unprocessed.smi:1076|AV-procd|sdf|4697|dock2
  -GOLD-   22720 3213D 1   1.00000     0.00000
 Structure written by MMmdl.
 45 46  0  0  0  0  0  0  0  0  2 V2000
  143.9164  132.5754  149.4915 C   0  0  0  0  0  0  0  0  0  0  0  0
  143.9679  133.6825  150.5037 C   0  0  0  0  0  0  0  0  0  0  0  0
  143.3595  133.7173  151.7900 C   0  0  0  0  0  0  0  0  0  0  0  0
  143.5824  134.8518  152.4328 N   0  0  0  0  0  0  0  0  0  0  0  0
  144.3448  135.5762  151.5857 N   0  0  0  0  0  0  0  0  0  0  0  0
  144.7583  136.9199  151.9562 C   0  0  0  0  0  0  0  0  0  0  0  0
  144.2271  137.3177  153.3470 C   0  0  2  0  0  0  0  0  0  0  0  0
  142.7062  137.5291  153.3352 C   0  0  0  0  0  0  0  0  0  0  0  0
  144.9240  138.5343  153.8180 N   0  3  0  0  0  0  0  0  0  0  0  0
  146.3978  138.5260  153.6908 C   0  0  0  0  0  0  0  0  0  0  0  0
  147.0638  138.1630  155.0336 C   0  0  0  0  0  0  0  0  0  0  0  0
  148.5162  137.6607  154.8938 C   0  0  0  0  0  0  0  0  0  0  0  0
  148.7519  136.4661  155.0830 O   0  0  0  0  0  0  0  0  0  0  0  0
  149.4886  138.5350  154.5434 N   0  0  0  0  0  0  0  0  0  0  0  0
  149.2775  139.9836  154.4828 C   0  0  0  0  0  0  0  0  0  0  0  0
  150.1258  140.6344  155.5910 C   0  0  0  0  0  0  0  0  0  0  0  0
  151.4976  140.2849  155.4165 O   0  0  0  0  0  0  0  0  0  0  0  0
  151.7277  138.8774  155.4274 C   0  0  0  0  0  0  0  0  0  0  0  0
  150.8995  138.2142  154.3129 C   0  0  0  0  0  0  0  0  0  0  0  0
  144.5953  134.8928  150.4149 C   0  0  0  0  0  0  0  0  0  0  0  0
  143.6608  131.6196  149.9496 H   0  0  0  0  0  0  0  0  0  0  0  0
  144.8738  132.4432  148.9875 H   0  0  0  0  0  0  0  0  0  0  0  0
  143.1705  132.7722  148.7213 H   0  0  0  0  0  0  0  0  0  0  0  0
  142.7592  132.9580  152.2691 H   0  0  0  0  0  0  0  0  0  0  0  0
  145.8478  136.9781  151.9267 H   0  0  0  0  0  0  0  0  0  0  0  0
  144.3872  137.6103  151.1981 H   0  0  0  0  0  0  0  0  0  0  0  0
  144.4587  136.4977  154.0287 H   0  0  0  0  0  0  0  0  0  0  0  0
  142.1900  136.6316  152.9931 H   0  0  0  0  0  0  0  0  0  0  0  0
  142.4240  138.3474  152.6717 H   0  0  0  0  0  0  0  0  0  0  0  0
  142.3294  137.7618  154.3315 H   0  0  0  0  0  0  0  0  0  0  0  0
  144.5929  139.2866  153.2294 H   0  0  0  0  0  0  0  0  0  0  0  0
  146.6805  137.8087  152.9202 H   0  0  0  0  0  0  0  0  0  0  0  0
  146.7615  139.4988  153.3564 H   0  0  0  0  0  0  0  0  0  0  0  0
  147.0411  139.0457  155.6735 H   0  0  0  0  0  0  0  0  0  0  0  0
  146.4797  137.3891  155.5327 H   0  0  0  0  0  0  0  0  0  0  0  0
  149.5820  140.3573  153.5041 H   0  0  0  0  0  0  0  0  0  0  0  0
  148.2321  140.2698  154.6051 H   0  0  0  0  0  0  0  0  0  0  0  0
  150.0292  141.7195  155.5543 H   0  0  0  0  0  0  0  0  0  0  0  0
  149.7856  140.3159  156.5775 H   0  0  0  0  0  0  0  0  0  0  0  0
  152.7904  138.6921  155.2711 H   0  0  0  0  0  0  0  0  0  0  0  0
  151.4694  138.4635  156.4036 H   0  0  0  0  0  0  0  0  0  0  0  0
  151.1071  137.1462  154.2685 H   0  0  0  0  0  0  0  0  0  0  0  0
  151.2020  138.6092  153.3420 H   0  0  0  0  0  0  0  0  0  0  0  0
  145.1835  135.3245  149.6184 H   0  0  0  0  0  0  0  0  0  0  0  0
  144.6575  138.7399  154.7701 H   0  0  0  0  0  0  0  0  0  0  0  0
  1  2  1  0  0  0  0
  1 21  1  0  0  0  0
  1 22  1  0  0  0  0
  1 23  1  0  0  0  0
  2 20  2  0  0  0  0
  2  3  1  0  0  0  0
  3  4  2  0  0  0  0
  3 24  1  0  0  0  0
  4  5  1  0  0  0  0
  5  6  1  0  0  0  0
  5 20  1  0  0  0  0
  6  7  1  0  0  0  0
  6 25  1  0  0  0  0
  6 26  1  0  0  0  0
  7  8  1  0  0  0  0
  7  9  1  0  0  0  0
  7 27  1  0  0  0  0
  8 28  1  0  0  0  0
  8 29  1  0  0  0  0
  8 30  1  0  0  0  0
  9 10  1  0  0  0  0
  9 31  1  0  0  0  0
  9 45  1  0  0  0  0
 10 11  1  0  0  0  0
 10 32  1  0  0  0  0
 10 33  1  0  0  0  0
 11 12  1  0  0  0  0
 11 34  1  0  0  0  0
 11 35  1  0  0  0  0
 12 13  2  0  0  0  0
 12 14  1  0  0  0  0
 14 19  1  0  0  0  0
 14 15  1  0  0  0  0
 15 16  1  0  0  0  0
 15 36  1  0  0  0  0
 15 37  1  0  0  0  0
 16 17  1  0  0  0  0
 16 38  1  0  0  0  0
 16 39  1  0  0  0  0
 17 18  1  0  0  0  0
 18 19  1  0  0  0  0
 18 40  1  0  0  0  0
 18 41  1  0  0  0  0
 19 42  1  0  0  0  0
 19 43  1  0  0  0  0
 20 44  1  0  0  0  0
M  CHG  1   9   1
M  END
> <s_m_source_file>
AV-unprocessed.smi

> <i_m_source_file_index>
1076

> <i_lp_mmshare_version>
43012

> <i_f3d_flags>
0

> <s_epik_input>
W0NIM11jMVtjSF1ubihbY0hdMSlbQ0gyXVtDQEhdKFtDSDNdKVtOSF1bQ0gyXVtDSDJdQyg9TylOMltDSDJdW0NIMl1PW0NIMl1bQ0gyXTI=

> <s_epik_cmdline>
J2VwaWtfcHl0aG9uJywgJy1waCcsICc3LjAnLCAnLXRuJywgJzgnLCAnLW1hJywgJzIwMCcsICctbWV0YWxfYmluZGluZycsICctaW1hZScsICc8aW5maWxlLm1hZT4nLCAnLW9tYWUnLCAnPG91dGZpbGUubWFlPic=

> <r_lp_tautomer_probability>
1

> <r_epik_Ionization_Penalty>
0.00797518

> <r_epik_Ionization_Penalty_Charging>
0.0079672

> <r_epik_Ionization_Penalty_Neutral>
7.97619e-06

> <r_epik_State_Penalty>
0.00597998

> <r_epik_Charging_Adjusted_Penalty>
0.0139472

> <i_epik_Tot_Q>
1

> <i_epik_Tot_abs_Q>
1

> <r_epik_Metal_State_Penalty>
0.00598062

> <b_epik_Metal_Only>
0

> <s_lp_Force_Field>
OPLS_2005

> <r_lp_Energy>
21.8291

> <b_lp_Chiralities_Consistent>
1

> <s_lp_Variant>
AV-unprocessed.smi:1076-1

> <Gold.Version>
5.8.1

> <Gold.Id.Protein>
6NUR|6NUR_protein|mol2

> <Gold.PLP.Fitness>
48.2404

> <Gold.PLP.PLP>
-35.4164

> <Gold.PLP.part.hbond>
-2.0000

> <Gold.PLP.part.metal>
0.0000

> <Gold.PLP.part.buried>
-3.2240

> <Gold.PLP.part.nonpolar>
-30.5037

> <Gold.PLP.part.repulsive>
0.2767

> <Gold.PLP.ligand.clash>
0.0000

> <Gold.PLP.ligand.torsion>
0.6266

> <Gold.PLP.Chemscore.Hbond>
2.8480

> <Gold.PLP.Chemscore.CHOScore>
1.7711

> <Gold.PLP.Chemscore.Metal>
0.0000

> <Gold.Chemscore.Hbonds>
donor molecule, donor type, donor heavy atom, donor atom, acceptor molecule, acceptor atom, score
      L1  H     9    31       P1 10175  2.00
      P1  H  7989  7998       L1    17  0.79
      L1  C     3    24       P1 10957  0.34
      L1  C    20    44       P1  7921  1.00

> <Gold.PLP.Chemscore.Internal.Correction>
0.2199

> <Gold.Rescore>
     Score         DG    S(hbond)    S(metal)    S(lipo)     H(rot)  DE(clash)    DE(int)     intcor
     11.62     -13.65       1.23        0.00      78.21       1.98       0.19       1.83       ----

> <Gold.Chemscore.Fitness>
11.6221

> <Gold.Chemscore.DG>
-13.6490

> <Gold.Chemscore.ZeroCoef>
-5.4800

> <Gold.Chemscore.Hbond>
1.2266

> <Gold.Chemscore.Metal>
0.0000

> <Gold.Chemscore.Lipo>
78.2089

> <Gold.Chemscore.Internal_Hbond>
0.0000

> <Gold.Chemscore.DEClash>
0.1946

> <Gold.Chemscore.DEInternal>
1.8322

> <Gold.Chemscore.Rot>
1.9837

> <Gold.Chemscore.Internal.Correction>
   9.000000E+99

> <Gold.Chemscore.Hbonds>
donor molecule, donor type, donor heavy atom, donor atom, acceptor molecule, acceptor atom, score
      L1  H     9    31       P1 10175  1.00
      P1  H  7989  7998       L1    17  0.08

> <Gold.Chemscore.Hbond.Weighted>
-4.0967

> <Gold.Chemscore.Metal.Weighted>
-0.0000

> <Gold.Chemscore.Lipo.Weighted>
-9.1504

> <Gold.Chemscore.Internal_Hbond.Weighted>
0.0000

> <Gold.Chemscore.DEClash.Weighted>
0.1946

> <Gold.Chemscore.DEInternal.Weighted>
1.8322

> <Gold.Chemscore.Rot.Weighted>
5.0782

> <Gold.Chemscore.Internal.Correction.Weighted>
   9.000000E+99

> <Gold.Protein.RotatedTorsions>
[ 6907 6896 6895 6894 ] final   57.82 input  -60.11 | X-H torsion
[ 7974 7965 7964 7962 ] final   46.15 input  175.53 | X-H torsion
[ 8008 7997 7996 7995 ] final -144.66 input   59.86 | X-H torsion
[ 10167 10162 10161 10158 ] final -139.37 input  -65.29 | X-H torsion
[ 10718 10713 10712 10709 ] final  -32.13 input   66.30 | X-H torsion
[ 10763 10752 10751 10750 ] final  -42.99 input  -60.55 | X-H torsion
[ 11005 11000 10999 10996 ] final  -79.28 input  -57.11 | X-H torsion

> <Gold.Protein.ActiveResidues>
 VAL166  LYS551  ARG553  GLY616  TRP617  ASP618  TYR619  PRO620  LYS621  CYS622 
 ASP623  PHE694  ASN695  SER759  ASP760  ASP761  ALA762  ILE779  LEU786  VAL792 
 PHE793  MET794  SER795  GLU796  ALA797  LYS798  CYS799  TRP800  GLU811  SER814 

> <Gold.Protein.RotatedAtoms>
  152.3767  134.6652  160.0157 H   0  0  0  0  0  0  0  0  0  0  0  0  # atno 6907 bound_to 6896
  151.6928  133.3305  159.3255 H   0  0  0  0  0  0  0  0  0  0  0  0  # atno 6908 bound_to 6896
  150.7715  134.6619  159.6389 H   0  0  0  0  0  0  0  0  0  0  0  0  # atno 6909 bound_to 6896
  146.0415  139.4887  142.9775 H   0  0  0  0  0  0  0  0  0  0  0  0  # atno 7974 bound_to 7965
  155.5305  140.0599  157.2890 H   0  0  0  0  0  0  0  0  0  0  0  0  # atno 8008 bound_to 7997
  154.4486  140.1936  156.0535 H   0  0  0  0  0  0  0  0  0  0  0  0  # atno 8009 bound_to 7997
  156.0655  140.3267  155.7517 H   0  0  0  0  0  0  0  0  0  0  0  0  # atno 8010 bound_to 7997
  139.8386  143.7351  152.2664 H   0  0  0  0  0  0  0  0  0  0  0  0  # atno 10167 bound_to 10162
  156.3787  130.4352  149.7486 H   0  0  0  0  0  0  0  0  0  0  0  0  # atno 10718 bound_to 10713
  153.9882  135.6708  153.4753 H   0  0  0  0  0  0  0  0  0  0  0  0  # atno 10763 bound_to 10752
  153.0717  135.4971  154.8315 H   0  0  0  0  0  0  0  0  0  0  0  0  # atno 10764 bound_to 10752
  154.7125  135.3100  154.9138 H   0  0  0  0  0  0  0  0  0  0  0  0  # atno 10765 bound_to 10752
  141.1667  133.7099  156.8098 H   0  0  0  0  0  0  0  0  0  0  0  0  # atno 11005 bound_to 11000
  145.6876  141.0173  143.1573 LP  0  0  0  0  0  0  0  0  0  0  0  0  # atno 17320 bound_to 7965
  144.7077  139.8494  143.7424 LP  0  0  0  0  0  0  0  0  0  0  0  0  # atno 17321 bound_to 7965
  139.7581  144.7514  151.0404 LP  0  0  0  0  0  0  0  0  0  0  0  0  # atno 17342 bound_to 10162
  140.7800  143.4782  151.0054 LP  0  0  0  0  0  0  0  0  0  0  0  0  # atno 17343 bound_to 10162
  156.4585  130.7941  151.2961 LP  0  0  0  0  0  0  0  0  0  0  0  0  # atno 17370 bound_to 10713
  157.7490  131.0073  150.3185 LP  0  0  0  0  0  0  0  0  0  0  0  0  # atno 17371 bound_to 10713
  140.2196  134.8767  157.3362 LP  0  0  0  0  0  0  0  0  0  0  0  0  # atno 17394 bound_to 11000
  140.2002  134.4264  155.7667 LP  0  0  0  0  0  0  0  0  0  0  0  0  # atno 17395 bound_to 11000

$$$$
