AV-unprocessed.smi:2883|AV-procd|sdf|11076|dock7
  -GOLD-   2272015553D 1   1.00000     0.00000
 Structure written by MMmdl.
 40 42  0  0  0  0  0  0  0  0  2 V2000
  150.2282  144.2270  158.8189 C   0  0  0  0  0  0  0  0  0  0  0  0
  151.7319  144.1599  159.1730 C   0  0  0  0  0  0  0  0  0  0  0  0
  152.5608  144.8101  158.0506 C   0  0  0  0  0  0  0  0  0  0  0  0
  151.9061  144.9671  160.4798 C   0  0  0  0  0  0  0  0  0  0  0  0
  152.1837  142.7051  159.3648 C   0  0  0  0  0  0  0  0  0  0  0  0
  152.9088  142.3786  160.4497 N   0  3  0  0  0  0  0  0  0  0  0  0
  153.4074  141.1257  160.5838 C   0  0  0  0  0  0  0  0  0  0  0  0
  153.2021  140.1661  159.5761 C   0  0  0  0  0  0  0  0  0  0  0  0
  152.4782  140.5792  158.4457 C   0  0  0  0  0  0  0  0  0  0  0  0
  152.2553  139.6755  157.3980 N   0  0  0  0  0  0  0  0  0  0  0  0
  152.0984  140.1436  156.0237 C   0  0  1  0  0  0  0  0  0  0  0  0
  152.1880  139.0176  154.9913 C   0  0  0  0  0  0  0  0  0  0  0  0
  150.8902  139.2162  154.1952 C   0  0  1  0  0  0  0  0  0  0  0  0
  149.6668  138.7330  154.9842 C   0  0  0  0  0  0  0  0  0  0  0  0
  149.5376  139.8185  156.0509 C   0  0  0  0  0  0  0  0  0  0  0  0
  150.7151  140.7467  155.7061 C   0  0  2  0  0  0  0  0  0  0  0  0
  150.7227  140.6208  154.2945 O   0  0  0  0  0  0  0  0  0  0  0  0
  152.0040  141.8404  158.3544 N   0  0  0  0  0  0  0  0  0  0  0  0
  149.8884  145.2589  158.7239 H   0  0  0  0  0  0  0  0  0  0  0  0
  149.6169  143.7509  159.5866 H   0  0  0  0  0  0  0  0  0  0  0  0
  150.0086  143.7348  157.8706 H   0  0  0  0  0  0  0  0  0  0  0  0
  152.4324  144.2805  157.1057 H   0  0  0  0  0  0  0  0  0  0  0  0
  153.6251  144.8030  158.2883 H   0  0  0  0  0  0  0  0  0  0  0  0
  152.2669  145.8476  157.8880 H   0  0  0  0  0  0  0  0  0  0  0  0
  151.5464  145.9903  160.3641 H   0  0  0  0  0  0  0  0  0  0  0  0
  152.9515  145.0342  160.7832 H   0  0  0  0  0  0  0  0  0  0  0  0
  151.3496  144.5168  161.3028 H   0  0  0  0  0  0  0  0  0  0  0  0
  153.9626  140.9347  161.4905 H   0  0  0  0  0  0  0  0  0  0  0  0
  153.5940  139.1634  159.6673 H   0  0  0  0  0  0  0  0  0  0  0  0
  151.9825  138.7275  157.6131 H   0  0  0  0  0  0  0  0  0  0  0  0
  152.8741  140.8779  155.8010 H   0  0  0  0  0  0  0  0  0  0  0  0
  153.0612  139.1592  154.3536 H   0  0  0  0  0  0  0  0  0  0  0  0
  152.2488  138.0202  155.4294 H   0  0  0  0  0  0  0  0  0  0  0  0
  150.9346  138.8383  153.1735 H   0  0  0  0  0  0  0  0  0  0  0  0
  148.7795  138.7116  154.3504 H   0  0  0  0  0  0  0  0  0  0  0  0
  149.8100  137.7376  155.4060 H   0  0  0  0  0  0  0  0  0  0  0  0
  148.5899  140.3461  155.9387 H   0  0  0  0  0  0  0  0  0  0  0  0
  149.5837  139.4258  157.0667 H   0  0  0  0  0  0  0  0  0  0  0  0
  150.5855  141.7708  156.0576 H   0  0  0  0  0  0  0  0  0  0  0  0
  153.0825  143.0685  161.1811 H   0  0  0  0  0  0  0  0  0  0  0  0
  1  2  1  0  0  0  0
  1 19  1  0  0  0  0
  1 20  1  0  0  0  0
  1 21  1  0  0  0  0
  2  3  1  0  0  0  0
  2  4  1  0  0  0  0
  2  5  1  0  0  0  0
  3 22  1  0  0  0  0
  3 23  1  0  0  0  0
  3 24  1  0  0  0  0
  4 25  1  0  0  0  0
  4 26  1  0  0  0  0
  4 27  1  0  0  0  0
  5 18  1  0  0  0  0
  5  6  2  0  0  0  0
  6  7  1  0  0  0  0
  6 40  1  0  0  0  0
  7  8  2  0  0  0  0
  7 28  1  0  0  0  0
  8  9  1  0  0  0  0
  8 29  1  0  0  0  0
  9 10  1  0  0  0  0
  9 18  2  0  0  0  0
 10 11  1  0  0  0  0
 10 30  1  0  0  0  0
 11 16  1  0  0  0  0
 11 12  1  0  0  0  0
 11 31  1  0  0  0  0
 12 13  1  0  0  0  0
 12 32  1  0  0  0  0
 12 33  1  0  0  0  0
 13 17  1  0  0  0  0
 13 14  1  0  0  0  0
 13 34  1  0  0  0  0
 14 15  1  0  0  0  0
 14 35  1  0  0  0  0
 14 36  1  0  0  0  0
 15 16  1  0  0  0  0
 15 37  1  0  0  0  0
 15 38  1  0  0  0  0
 16 17  1  0  0  0  0
 16 39  1  0  0  0  0
M  CHG  1   6   1
M  END
> <s_m_source_file>
AV-unprocessed.smi

> <i_m_source_file_index>
2883

> <i_lp_mmshare_version>
43012

> <i_f3d_flags>
0

> <s_epik_input>
W0NIM11DKFtDSDNdKShbQ0gzXSljMW5bY0hdW2NIXWMobjEpW05IXVtDQEhdKFtDSDJdW0NAQEhdMjMpW0NAQEhdKE8zKVtDSDJdW0NIMl0y

> <s_epik_cmdline>
J2VwaWtfcHl0aG9uJywgJy1waCcsICc3LjAnLCAnLXRuJywgJzgnLCAnLW1hJywgJzIwMCcsICctbWV0YWxfYmluZGluZycsICctaW1hZScsICc8aW5maWxlLm1hZT4nLCAnLW9tYWUnLCAnPG91dGZpbGUubWFlPic=

> <r_lp_tautomer_probability>
0.999336

> <r_epik_Ionization_Penalty>
0.371831

> <r_epik_Ionization_Penalty_Charging>
0.371821

> <r_epik_Ionization_Penalty_Neutral>
1.06897e-05

> <r_epik_State_Penalty>
0.369311

> <r_epik_Charging_Adjusted_Penalty>
0.741132

> <i_epik_Tot_Q>
1

> <i_epik_Tot_abs_Q>
1

> <r_epik_Metal_State_Penalty>
0.621338

> <b_epik_Metal_Only>
0

> <s_lp_Force_Field>
OPLS_2005

> <r_lp_Energy>
39.2266

> <b_lp_Chiralities_Consistent>
1

> <s_lp_Variant>
AV-unprocessed.smi:2883-2

> <Gold.Version>
5.8.1

> <Gold.Id.Protein>
6NUR|6NUR_protein|mol2

> <Gold.PLP.Fitness>
42.3993

> <Gold.PLP.PLP>
-40.4862

> <Gold.PLP.part.hbond>
-1.0000

> <Gold.PLP.part.metal>
0.0000

> <Gold.PLP.part.buried>
-6.6741

> <Gold.PLP.part.nonpolar>
-33.8604

> <Gold.PLP.part.repulsive>
0.2413

> <Gold.PLP.ligand.clash>
0.0000

> <Gold.PLP.ligand.torsion>
0.6153

> <Gold.PLP.Chemscore.Hbond>
1.0000

> <Gold.PLP.Chemscore.CHOScore>
0.0000

> <Gold.PLP.Chemscore.Metal>
0.0000

> <Gold.Chemscore.Hbonds>
donor molecule, donor type, donor heavy atom, donor atom, acceptor molecule, acceptor atom, score
      P1  H  7989  7998       L1    17  0.18

> <Gold.PLP.Chemscore.Internal.Correction>
0.1437

> <Gold.Rescore>
     Score         DG    S(hbond)    S(metal)    S(lipo)     H(rot)  DE(clash)    DE(int)     intcor
     16.21     -17.14       0.93        0.00      98.63       1.16       0.00       0.92       ----

> <Gold.Chemscore.Fitness>
16.2146

> <Gold.Chemscore.DG>
-17.1360

> <Gold.Chemscore.ZeroCoef>
-5.4800

> <Gold.Chemscore.Hbond>
0.9259

> <Gold.Chemscore.Metal>
0.0000

> <Gold.Chemscore.Lipo>
98.6314

> <Gold.Chemscore.Internal_Hbond>
0.0000

> <Gold.Chemscore.DEClash>
0.0038

> <Gold.Chemscore.DEInternal>
0.9176

> <Gold.Chemscore.Rot>
1.1626

> <Gold.Chemscore.Internal.Correction>
   9.000000E+99

> <Gold.Chemscore.Hbonds>
donor molecule, donor type, donor heavy atom, donor atom, acceptor molecule, acceptor atom, score
      P1  H  7989  7998       L1    17  0.02

> <Gold.Chemscore.Hbond.Weighted>
-3.0924

> <Gold.Chemscore.Metal.Weighted>
-0.0000

> <Gold.Chemscore.Lipo.Weighted>
-11.5399

> <Gold.Chemscore.Internal_Hbond.Weighted>
0.0000

> <Gold.Chemscore.DEClash.Weighted>
0.0038

> <Gold.Chemscore.DEInternal.Weighted>
0.9176

> <Gold.Chemscore.Rot.Weighted>
2.9763

> <Gold.Chemscore.Internal.Correction.Weighted>
   9.000000E+99

> <Gold.Protein.RotatedTorsions>
[ 6907 6896 6895 6894 ] final  176.79 input  -60.11 | X-H torsion
[ 7974 7965 7964 7962 ] final  -36.86 input  175.53 | X-H torsion
[ 8008 7997 7996 7995 ] final  -97.36 input   59.86 | X-H torsion
[ 10167 10162 10161 10158 ] final  -19.77 input  -65.29 | X-H torsion
[ 10718 10713 10712 10709 ] final   14.67 input   66.30 | X-H torsion
[ 10763 10752 10751 10750 ] final  154.79 input  -60.55 | X-H torsion
[ 11005 11000 10999 10996 ] final -145.08 input  -57.11 | X-H torsion

> <Gold.Protein.ActiveResidues>
 VAL166  LYS551  ARG553  GLY616  TRP617  ASP618  TYR619  PRO620  LYS621  CYS622 
 ASP623  PHE694  ASN695  SER759  ASP760  ASP761  ALA762  ILE779  LEU786  VAL792 
 PHE793  MET794  SER795  GLU796  ALA797  LYS798  CYS799  TRP800  GLU811  SER814 

> <Gold.Protein.RotatedAtoms>
  151.7144  133.3313  159.3298 H   0  0  0  0  0  0  0  0  0  0  0  0  # atno 6907 bound_to 6896
  150.7680  134.6503  159.6294 H   0  0  0  0  0  0  0  0  0  0  0  0  # atno 6908 bound_to 6896
  152.3691  134.6763  160.0234 H   0  0  0  0  0  0  0  0  0  0  0  0  # atno 6909 bound_to 6896
  146.0625  140.6328  142.8990 H   0  0  0  0  0  0  0  0  0  0  0  0  # atno 7974 bound_to 7965
  154.7868  140.0463  157.1170 H   0  0  0  0  0  0  0  0  0  0  0  0  # atno 8008 bound_to 7997
  154.9639  140.3081  155.4998 H   0  0  0  0  0  0  0  0  0  0  0  0  # atno 8009 bound_to 7997
  156.2944  140.2265  156.4727 H   0  0  0  0  0  0  0  0  0  0  0  0  # atno 8010 bound_to 7997
  140.7271  143.4787  151.0147 H   0  0  0  0  0  0  0  0  0  0  0  0  # atno 10167 bound_to 10162
  157.0425  130.6237  149.5753 H   0  0  0  0  0  0  0  0  0  0  0  0  # atno 10718 bound_to 10713
  154.1580  135.2811  155.3117 H   0  0  0  0  0  0  0  0  0  0  0  0  # atno 10763 bound_to 10752
  154.6168  135.5480  153.7535 H   0  0  0  0  0  0  0  0  0  0  0  0  # atno 10764 bound_to 10752
  153.0201  135.6429  154.1722 H   0  0  0  0  0  0  0  0  0  0  0  0  # atno 10765 bound_to 10752
  140.7959  134.2913  157.4996 H   0  0  0  0  0  0  0  0  0  0  0  0  # atno 11005 bound_to 11000
  144.7183  140.4286  143.7027 LP  0  0  0  0  0  0  0  0  0  0  0  0  # atno 17320 bound_to 7965
  145.6535  139.1569  143.2848 LP  0  0  0  0  0  0  0  0  0  0  0  0  # atno 17321 bound_to 7965
  139.8484  143.7471  152.3179 LP  0  0  0  0  0  0  0  0  0  0  0  0  # atno 17342 bound_to 10162
  139.7644  144.7496  151.0316 LP  0  0  0  0  0  0  0  0  0  0  0  0  # atno 17343 bound_to 10162
  156.0033  130.5116  150.7742 LP  0  0  0  0  0  0  0  0  0  0  0  0  # atno 17370 bound_to 10713
  157.5093  131.0924  151.0218 LP  0  0  0  0  0  0  0  0  0  0  0  0  # atno 17371 bound_to 10713
  139.8726  134.9402  156.3762 LP  0  0  0  0  0  0  0  0  0  0  0  0  # atno 17394 bound_to 11000
  140.9343  133.7558  156.0064 LP  0  0  0  0  0  0  0  0  0  0  0  0  # atno 17395 bound_to 11000

$$$$
