AV-unprocessed.smi:1258|AV-procd|sdf|5290|dock6
  -GOLD-   22720 4413D 1   1.00000     0.00000
 Structure written by MMmdl.
 33 34  0  0  0  0  0  0  0  0  1 V2000
  153.3837  142.1180  162.1742 C   0  0  0  0  0  0  0  0  0  0  0  0
  152.5892  142.8370  161.0746 C   0  0  1  0  0  0  0  0  0  0  0  0
  152.2135  144.2693  161.5001 C   0  0  0  0  0  0  0  0  0  0  0  0
  151.4247  144.9973  160.4010 C   0  0  0  0  0  0  0  0  0  0  0  0
  152.2039  145.0152  159.0757 C   0  0  0  0  0  0  0  0  0  0  0  0
  152.6071  143.5961  158.6195 C   0  0  2  0  0  0  0  0  0  0  0  0
  151.4472  142.8168  158.1885 N   0  0  0  0  0  0  0  0  0  0  0  0
  151.4621  141.5184  157.8490 C   0  0  0  0  0  0  0  0  0  0  0  0
  152.4829  140.8296  157.8552 O   0  0  0  0  0  0  0  0  0  0  0  0
  150.1197  140.9122  157.4295 C   0  0  0  0  0  0  0  0  0  0  0  0
  149.9968  140.8235  155.9859 N   0  0  0  0  0  0  0  0  0  0  0  0
  149.2341  141.5030  155.1269 C   0  0  0  0  0  0  0  0  0  0  0  0
  149.4355  141.1105  153.8781 N   0  0  0  0  0  0  0  0  0  0  0  0
  150.3950  140.1206  154.0103 N   0  0  0  0  0  0  0  0  0  0  0  0
  150.7325  139.9461  155.2587 N   0  0  0  0  0  0  0  0  0  0  0  0
  153.3636  142.8529  159.7392 C   0  0  0  0  0  0  0  0  0  0  0  0
  154.3236  142.6296  162.3838 H   0  0  0  0  0  0  0  0  0  0  0  0
  153.6197  141.0941  161.8830 H   0  0  0  0  0  0  0  0  0  0  0  0
  152.8152  142.0729  163.1036 H   0  0  0  0  0  0  0  0  0  0  0  0
  151.6645  142.2780  160.9248 H   0  0  0  0  0  0  0  0  0  0  0  0
  151.6227  144.2441  162.4164 H   0  0  0  0  0  0  0  0  0  0  0  0
  153.1172  144.8346  161.7319 H   0  0  0  0  0  0  0  0  0  0  0  0
  150.4600  144.5097  160.2564 H   0  0  0  0  0  0  0  0  0  0  0  0
  151.2082  146.0186  160.7158 H   0  0  0  0  0  0  0  0  0  0  0  0
  151.6187  145.5174  158.3047 H   0  0  0  0  0  0  0  0  0  0  0  0
  153.1057  145.6151  159.2041 H   0  0  0  0  0  0  0  0  0  0  0  0
  153.2826  143.6851  157.7667 H   0  0  0  0  0  0  0  0  0  0  0  0
  150.5638  143.3047  158.1511 H   0  0  0  0  0  0  0  0  0  0  0  0
  149.9936  139.9161  157.8576 H   0  0  0  0  0  0  0  0  0  0  0  0
  149.3099  141.5337  157.8126 H   0  0  0  0  0  0  0  0  0  0  0  0
  148.5404  142.2795  155.4140 H   0  0  0  0  0  0  0  0  0  0  0  0
  154.3289  143.3377  159.8923 H   0  0  0  0  0  0  0  0  0  0  0  0
  153.5871  141.8332  159.4225 H   0  0  0  0  0  0  0  0  0  0  0  0
  1  2  1  0  0  0  0
  1 17  1  0  0  0  0
  1 18  1  0  0  0  0
  1 19  1  0  0  0  0
  2 16  1  0  0  0  0
  2  3  1  0  0  0  0
  2 20  1  0  0  0  0
  3  4  1  0  0  0  0
  3 21  1  0  0  0  0
  3 22  1  0  0  0  0
  4  5  1  0  0  0  0
  4 23  1  0  0  0  0
  4 24  1  0  0  0  0
  5  6  1  0  0  0  0
  5 25  1  0  0  0  0
  5 26  1  0  0  0  0
  6  7  1  0  0  0  0
  6 16  1  0  0  0  0
  6 27  1  0  0  0  0
  7  8  1  0  0  0  0
  7 28  1  0  0  0  0
  8  9  2  0  0  0  0
  8 10  1  0  0  0  0
 10 11  1  0  0  0  0
 10 29  1  0  0  0  0
 10 30  1  0  0  0  0
 11 15  1  0  0  0  0
 11 12  1  0  0  0  0
 12 13  2  0  0  0  0
 12 31  1  0  0  0  0
 13 14  1  0  0  0  0
 14 15  2  0  0  0  0
 16 32  1  0  0  0  0
 16 33  1  0  0  0  0
M  END
> <s_m_source_file>
AV-unprocessed.smi

> <i_m_source_file_index>
1258

> <i_lp_mmshare_version>
43012

> <i_f3d_flags>
0

> <s_epik_input>
W0NIM11bQ0BASF0xW0NIMl1bQ0gyXVtDSDJdW0NASF0oW0NIMl0xKVtOSF1DKD1PKVtDSDJdbjJbY0hdbm5uMg==

> <s_epik_cmdline>
J2VwaWtfcHl0aG9uJywgJy1waCcsICc3LjAnLCAnLXRuJywgJzgnLCAnLW1hJywgJzIwMCcsICctbWV0YWxfYmluZGluZycsICctaW1hZScsICc8aW5maWxlLm1hZT4nLCAnLW9tYWUnLCAnPG91dGZpbGUubWFlPic=

> <r_lp_tautomer_probability>
1

> <r_epik_Ionization_Penalty>
5.03816e-07

> <r_epik_Ionization_Penalty_Charging>
0

> <r_epik_Ionization_Penalty_Neutral>
5.03816e-07

> <r_epik_State_Penalty>
-0

> <r_epik_Charging_Adjusted_Penalty>
0

> <i_epik_Tot_Q>
0

> <i_epik_Tot_abs_Q>
0

> <r_epik_Metal_State_Penalty>
-0

> <b_epik_Metal_Only>
0

> <s_lp_Force_Field>
OPLS_2005

> <r_lp_Energy>
10.3289

> <b_lp_Chiralities_Consistent>
1

> <s_lp_Variant>
AV-unprocessed.smi:1258-4

> <Gold.Version>
5.8.1

> <Gold.Id.Protein>
6NUR|6NUR_protein|mol2

> <Gold.PLP.Fitness>
47.3494

> <Gold.PLP.PLP>
-39.1842

> <Gold.PLP.part.hbond>
-3.9515

> <Gold.PLP.part.metal>
0.0000

> <Gold.PLP.part.buried>
-3.9077

> <Gold.PLP.part.nonpolar>
-33.4320

> <Gold.PLP.part.repulsive>
2.8211

> <Gold.PLP.ligand.clash>
0.0000

> <Gold.PLP.ligand.torsion>
0.4389

> <Gold.PLP.Chemscore.Hbond>
2.0112

> <Gold.PLP.Chemscore.CHOScore>
1.0000

> <Gold.PLP.Chemscore.Metal>
0.0000

> <Gold.Chemscore.Hbonds>
donor molecule, donor type, donor heavy atom, donor atom, acceptor molecule, acceptor atom, score
      P1  H  7989  7998       L1    14  0.99
      P1  H  7997  8009       L1     9  0.18
      P1  H  8011  8017       L1    13  0.84
      L1  C    12    31       P1  8028  1.00

> <Gold.PLP.Chemscore.Internal.Correction>
0.0093

> <Gold.Rescore>
     Score         DG    S(hbond)    S(metal)    S(lipo)     H(rot)  DE(clash)    DE(int)     intcor
     12.00     -14.76       1.07        0.00      90.65       1.92       1.42       1.34       ----

> <Gold.Chemscore.Fitness>
11.9990

> <Gold.Chemscore.DG>
-14.7594

> <Gold.Chemscore.ZeroCoef>
-5.4800

> <Gold.Chemscore.Hbond>
1.0721

> <Gold.Chemscore.Metal>
0.0000

> <Gold.Chemscore.Lipo>
90.6494

> <Gold.Chemscore.Internal_Hbond>
0.0000

> <Gold.Chemscore.DEClash>
1.4223

> <Gold.Chemscore.DEInternal>
1.3381

> <Gold.Chemscore.Rot>
1.9169

> <Gold.Chemscore.Internal.Correction>
   9.000000E+99

> <Gold.Chemscore.Hbonds>
donor molecule, donor type, donor heavy atom, donor atom, acceptor molecule, acceptor atom, score
      P1  H  7989  7998       L1    14  0.07
      P1  H  7997  8009       L1     9  0.18
      P1  H  8011  8017       L1    13  0.69

> <Gold.Chemscore.Hbond.Weighted>
-3.5807

> <Gold.Chemscore.Metal.Weighted>
-0.0000

> <Gold.Chemscore.Lipo.Weighted>
-10.6060

> <Gold.Chemscore.Internal_Hbond.Weighted>
0.0000

> <Gold.Chemscore.DEClash.Weighted>
1.4223

> <Gold.Chemscore.DEInternal.Weighted>
1.3381

> <Gold.Chemscore.Rot.Weighted>
4.9073

> <Gold.Chemscore.Internal.Correction.Weighted>
   9.000000E+99

> <Gold.Protein.RotatedTorsions>
[ 6907 6896 6895 6894 ] final -139.29 input  -60.11 | X-H torsion
[ 7974 7965 7964 7962 ] final   89.46 input  175.53 | X-H torsion
[ 8008 7997 7996 7995 ] final  168.67 input   59.86 | X-H torsion
[ 10167 10162 10161 10158 ] final   54.01 input  -65.29 | X-H torsion
[ 10718 10713 10712 10709 ] final   28.90 input   66.30 | X-H torsion
[ 10763 10752 10751 10750 ] final -151.19 input  -60.55 | X-H torsion
[ 11005 11000 10999 10996 ] final  -13.69 input  -57.11 | X-H torsion

> <Gold.Protein.ActiveResidues>
 VAL166  LYS551  ARG553  GLY616  TRP617  ASP618  TYR619  PRO620  LYS621  CYS622 
 ASP623  PHE694  ASN695  SER759  ASP760  ASP761  ALA762  ILE779  LEU786  VAL792 
 PHE793  MET794  SER795  GLU796  ALA797  LYS798  CYS799  TRP800  GLU811  SER814 

> <Gold.Protein.RotatedAtoms>
  151.0459  133.5666  159.2646 H   0  0  0  0  0  0  0  0  0  0  0  0  # atno 6907 bound_to 6896
  151.2695  135.0679  159.9138 H   0  0  0  0  0  0  0  0  0  0  0  0  # atno 6908 bound_to 6896
  152.5373  134.0191  159.8027 H   0  0  0  0  0  0  0  0  0  0  0  0  # atno 6909 bound_to 6896
  145.5320  139.2284  143.2613 H   0  0  0  0  0  0  0  0  0  0  0  0  # atno 7974 bound_to 7965
  156.1526  140.1584  156.8745 H   0  0  0  0  0  0  0  0  0  0  0  0  # atno 8008 bound_to 7997
  154.5085  140.0807  156.7979 H   0  0  0  0  0  0  0  0  0  0  0  0  # atno 8009 bound_to 7997
  155.3866  140.3408  155.4251 H   0  0  0  0  0  0  0  0  0  0  0  0  # atno 8010 bound_to 7997
  140.2347  144.3649  150.6402 H   0  0  0  0  0  0  0  0  0  0  0  0  # atno 10167 bound_to 10162
  157.2395  130.7062  149.6352 H   0  0  0  0  0  0  0  0  0  0  0  0  # atno 10718 bound_to 10713
  154.8073  135.3266  154.7398 H   0  0  0  0  0  0  0  0  0  0  0  0  # atno 10763 bound_to 10752
  153.8054  135.6900  153.4853 H   0  0  0  0  0  0  0  0  0  0  0  0  # atno 10764 bound_to 10752
  153.1826  135.4581  154.9993 H   0  0  0  0  0  0  0  0  0  0  0  0  # atno 10765 bound_to 10752
  140.7787  133.8380  155.9272 H   0  0  0  0  0  0  0  0  0  0  0  0  # atno 11005 bound_to 11000
  146.2038  140.6137  142.9090 LP  0  0  0  0  0  0  0  0  0  0  0  0  # atno 17320 bound_to 7965
  144.7621  140.5446  143.6728 LP  0  0  0  0  0  0  0  0  0  0  0  0  # atno 17321 bound_to 7965
  140.6159  143.2172  151.6793 LP  0  0  0  0  0  0  0  0  0  0  0  0  # atno 17342 bound_to 10162
  139.5098  144.3565  152.0603 LP  0  0  0  0  0  0  0  0  0  0  0  0  # atno 17343 bound_to 10162
  155.9671  130.4462  150.5533 LP  0  0  0  0  0  0  0  0  0  0  0  0  # atno 17370 bound_to 10713
  157.3393  131.0714  151.1800 LP  0  0  0  0  0  0  0  0  0  0  0  0  # atno 17371 bound_to 10713
  140.9503  134.1787  157.4732 LP  0  0  0  0  0  0  0  0  0  0  0  0  # atno 17394 bound_to 11000
  139.8745  134.9906  156.5513 LP  0  0  0  0  0  0  0  0  0  0  0  0  # atno 17395 bound_to 11000

$$$$
