AV-unprocessed.smi:1099|AV-procd|sdf|4756|dock8
  -GOLD-   22720 3293D 1   1.00000     0.00000
 Structure written by MMmdl.
 41 43  0  0  0  0  0  0  0  0  1 V2000
  143.9881  144.0822  155.6045 C   0  0  0  0  0  0  0  0  0  0  0  0
  144.9575  143.3069  156.5025 C   0  0  0  0  0  0  0  0  0  0  0  0
  146.0026  142.5795  155.7244 C   0  0  0  0  0  0  0  0  0  0  0  0
  146.9401  141.8123  156.2871 N   0  0  0  0  0  0  0  0  0  0  0  0
  147.7839  141.2148  155.3453 C   0  0  0  0  0  0  0  0  0  0  0  0
  148.9075  140.3335  155.7990 C   0  0  0  0  0  0  0  0  0  0  0  0
  150.2816  140.9884  155.5802 C   0  0  0  0  0  0  0  0  0  0  0  0
  150.3908  142.2614  156.2828 N   0  0  0  0  0  0  0  0  0  0  0  0
  151.0494  142.4506  157.4365 C   0  0  0  0  0  0  0  0  0  0  0  0
  151.6264  141.5416  158.0348 O   0  0  0  0  0  0  0  0  0  0  0  0
  151.0254  143.8818  158.0013 C   0  0  1  0  0  0  0  0  0  0  0  0
  150.3184  144.0255  159.3720 C   0  0  0  0  0  0  0  0  0  0  0  0
  151.3767  144.7399  160.2336 C   0  0  1  0  0  0  0  0  0  0  0  0
  152.5096  143.7554  160.5795 C   0  0  0  0  0  0  0  0  0  0  0  0
  153.2711  143.6333  159.2469 C   0  0  0  0  0  0  0  0  0  0  0  0
  152.4209  144.4971  158.2891 C   0  0  2  0  0  0  0  0  0  0  0  0
  152.0473  145.6526  159.2133 C   0  0  0  0  0  0  0  0  0  0  0  0
  147.4601  141.5323  154.0498 C   0  0  0  0  0  0  0  0  0  0  0  0
  146.0804  142.5925  153.9660 S   0  0  0  0  0  0  0  0  0  0  0  0
  143.2408  144.6061  156.2008 H   0  0  0  0  0  0  0  0  0  0  0  0
  143.4622  143.4130  154.9231 H   0  0  0  0  0  0  0  0  0  0  0  0
  144.5160  144.8243  155.0050 H   0  0  0  0  0  0  0  0  0  0  0  0
  145.4505  143.9903  157.1945 H   0  0  0  0  0  0  0  0  0  0  0  0
  144.4071  142.5890  157.1118 H   0  0  0  0  0  0  0  0  0  0  0  0
  148.7840  140.0898  156.8550 H   0  0  0  0  0  0  0  0  0  0  0  0
  148.8648  139.3819  155.2677 H   0  0  0  0  0  0  0  0  0  0  0  0
  151.0801  140.3164  155.8993 H   0  0  0  0  0  0  0  0  0  0  0  0
  150.4403  141.1751  154.5177 H   0  0  0  0  0  0  0  0  0  0  0  0
  149.9376  143.0578  155.8583 H   0  0  0  0  0  0  0  0  0  0  0  0
  150.5068  144.5210  157.2840 H   0  0  0  0  0  0  0  0  0  0  0  0
  149.4275  144.6470  159.2707 H   0  0  0  0  0  0  0  0  0  0  0  0
  150.0016  143.0818  159.8184 H   0  0  0  0  0  0  0  0  0  0  0  0
  150.9592  145.2476  161.1037 H   0  0  0  0  0  0  0  0  0  0  0  0
  153.1586  144.1610  161.3565 H   0  0  0  0  0  0  0  0  0  0  0  0
  152.1276  142.7954  160.9284 H   0  0  0  0  0  0  0  0  0  0  0  0
  154.2711  144.0578  159.3474 H   0  0  0  0  0  0  0  0  0  0  0  0
  153.3978  142.6016  158.9211 H   0  0  0  0  0  0  0  0  0  0  0  0
  152.9540  144.8014  157.3877 H   0  0  0  0  0  0  0  0  0  0  0  0
  151.3633  146.3708  158.7576 H   0  0  0  0  0  0  0  0  0  0  0  0
  152.9111  146.1876  159.6124 H   0  0  0  0  0  0  0  0  0  0  0  0
  147.9477  141.2064  153.1427 H   0  0  0  0  0  0  0  0  0  0  0  0
  1  2  1  0  0  0  0
  1 20  1  0  0  0  0
  1 21  1  0  0  0  0
  1 22  1  0  0  0  0
  2  3  1  0  0  0  0
  2 23  1  0  0  0  0
  2 24  1  0  0  0  0
  3 19  1  0  0  0  0
  3  4  2  0  0  0  0
  4  5  1  0  0  0  0
  5  6  1  0  0  0  0
  5 18  2  0  0  0  0
  6  7  1  0  0  0  0
  6 25  1  0  0  0  0
  6 26  1  0  0  0  0
  7  8  1  0  0  0  0
  7 27  1  0  0  0  0
  7 28  1  0  0  0  0
  8  9  1  0  0  0  0
  8 29  1  0  0  0  0
  9 10  2  0  0  0  0
  9 11  1  0  0  0  0
 11 16  1  0  0  0  0
 11 12  1  0  0  0  0
 11 30  1  0  0  0  0
 12 13  1  0  0  0  0
 12 31  1  0  0  0  0
 12 32  1  0  0  0  0
 13 17  1  0  0  0  0
 13 14  1  0  0  0  0
 13 33  1  0  0  0  0
 14 15  1  0  0  0  0
 14 34  1  0  0  0  0
 14 35  1  0  0  0  0
 15 16  1  0  0  0  0
 15 36  1  0  0  0  0
 15 37  1  0  0  0  0
 16 17  1  0  0  0  0
 16 38  1  0  0  0  0
 17 39  1  0  0  0  0
 17 40  1  0  0  0  0
 18 19  1  0  0  0  0
 18 41  1  0  0  0  0
M  END
> <s_m_source_file>
AV-unprocessed.smi

> <i_m_source_file_index>
1099

> <i_lp_mmshare_version>
43012

> <i_f3d_flags>
0

> <s_epik_input>
W0NIM11bQ0gyXWMxbmMoW2NIXXMxKVtDSDJdW0NIMl1bTkhdQyg9TylbQ0BIXShbQ0gyXVtDQEBIXTIzKVtDQEBIXShbQ0gyXTMpW0NIMl1bQ0gyXTI=

> <s_epik_cmdline>
J2VwaWtfcHl0aG9uJywgJy1waCcsICc3LjAnLCAnLXRuJywgJzgnLCAnLW1hJywgJzIwMCcsICctbWV0YWxfYmluZGluZycsICctaW1hZScsICc8aW5maWxlLm1hZT4nLCAnLW9tYWUnLCAnPG91dGZpbGUubWFlPic=

> <r_epik_Ionization_Penalty>
0.00110131

> <r_epik_Ionization_Penalty_Charging>
0

> <r_epik_Ionization_Penalty_Neutral>
0.00110131

> <r_epik_State_Penalty>
0.00072257

> <r_epik_Charging_Adjusted_Penalty>
0.00072257

> <i_epik_Tot_Q>
0

> <i_epik_Tot_abs_Q>
0

> <r_epik_Metal_State_Penalty>
-0

> <b_epik_Metal_Only>
0

> <s_lp_Force_Field>
OPLS_2005

> <r_lp_Energy>
38.0082

> <b_lp_Chiralities_Consistent>
1

> <s_lp_Variant>
AV-unprocessed.smi:1099-2

> <Gold.Version>
5.8.1

> <Gold.Id.Protein>
6NUR|6NUR_protein|mol2

> <Gold.PLP.Fitness>
50.8623

> <Gold.PLP.PLP>
-45.3680

> <Gold.PLP.part.hbond>
-1.0000

> <Gold.PLP.part.metal>
0.0000

> <Gold.PLP.part.buried>
-6.2510

> <Gold.PLP.part.nonpolar>
-37.7683

> <Gold.PLP.part.repulsive>
0.2363

> <Gold.PLP.ligand.clash>
0.0000

> <Gold.PLP.ligand.torsion>
0.2576

> <Gold.PLP.Chemscore.Hbond>
1.0000

> <Gold.PLP.Chemscore.CHOScore>
0.9959

> <Gold.PLP.Chemscore.Metal>
0.0000

> <Gold.Chemscore.Hbonds>
donor molecule, donor type, donor heavy atom, donor atom, acceptor molecule, acceptor atom, score
      L1  H     8    29       P1  8028  1.00
      L1  C    18    41       P1  7957  0.27

> <Gold.PLP.Chemscore.Internal.Correction>
0.0217

> <Gold.Rescore>
     Score         DG    S(hbond)    S(metal)    S(lipo)     H(rot)  DE(clash)    DE(int)     intcor
     18.76     -20.11       0.99        0.00     127.61       1.42       0.15       1.19       ----

> <Gold.Chemscore.Fitness>
18.7631

> <Gold.Chemscore.DG>
-20.1056

> <Gold.Chemscore.ZeroCoef>
-5.4800

> <Gold.Chemscore.Hbond>
0.9944

> <Gold.Chemscore.Metal>
0.0000

> <Gold.Chemscore.Lipo>
127.6122

> <Gold.Chemscore.Internal_Hbond>
0.0000

> <Gold.Chemscore.DEClash>
0.1540

> <Gold.Chemscore.DEInternal>
1.1885

> <Gold.Chemscore.Rot>
1.4165

> <Gold.Chemscore.Internal.Correction>
   9.000000E+99

> <Gold.Chemscore.Hbonds>
donor molecule, donor type, donor heavy atom, donor atom, acceptor molecule, acceptor atom, score
      L1  H     8    29       P1  8028  0.98

> <Gold.Chemscore.Hbond.Weighted>
-3.3212

> <Gold.Chemscore.Metal.Weighted>
-0.0000

> <Gold.Chemscore.Lipo.Weighted>
-14.9306

> <Gold.Chemscore.Internal_Hbond.Weighted>
0.0000

> <Gold.Chemscore.DEClash.Weighted>
0.1540

> <Gold.Chemscore.DEInternal.Weighted>
1.1885

> <Gold.Chemscore.Rot.Weighted>
3.6262

> <Gold.Chemscore.Internal.Correction.Weighted>
   9.000000E+99

> <Gold.Protein.RotatedTorsions>
[ 6907 6896 6895 6894 ] final  -78.23 input  -60.11 | X-H torsion
[ 7974 7965 7964 7962 ] final -120.88 input  175.53 | X-H torsion
[ 8008 7997 7996 7995 ] final  156.92 input   59.86 | X-H torsion
[ 10167 10162 10161 10158 ] final  -91.34 input  -65.29 | X-H torsion
[ 10718 10713 10712 10709 ] final  -81.06 input   66.30 | X-H torsion
[ 10763 10752 10751 10750 ] final  -52.50 input  -60.55 | X-H torsion
[ 11005 11000 10999 10996 ] final  113.94 input  -57.11 | X-H torsion

> <Gold.Protein.ActiveResidues>
 VAL166  LYS551  ARG553  GLY616  TRP617  ASP618  TYR619  PRO620  LYS621  CYS622 
 ASP623  PHE694  ASN695  SER759  ASP760  ASP761  ALA762  ILE779  LEU786  VAL792 
 PHE793  MET794  SER795  GLU796  ALA797  LYS798  CYS799  TRP800  GLU811  SER814 

> <Gold.Protein.RotatedAtoms>
  150.6978  134.4303  159.5245 H   0  0  0  0  0  0  0  0  0  0  0  0  # atno 6907 bound_to 6896
  152.2031  134.8567  160.0515 H   0  0  0  0  0  0  0  0  0  0  0  0  # atno 6908 bound_to 6896
  151.9480  133.3622  159.4026 H   0  0  0  0  0  0  0  0  0  0  0  0  # atno 6909 bound_to 6896
  145.0465  140.8185  143.4235 H   0  0  0  0  0  0  0  0  0  0  0  0  # atno 7974 bound_to 7965
  156.2394  140.1899  156.7029 H   0  0  0  0  0  0  0  0  0  0  0  0  # atno 8008 bound_to 7997
  154.6169  140.0614  156.9592 H   0  0  0  0  0  0  0  0  0  0  0  0  # atno 8009 bound_to 7997
  155.1925  140.3285  155.4359 H   0  0  0  0  0  0  0  0  0  0  0  0  # atno 8010 bound_to 7997
  140.3459  143.2917  151.9782 H   0  0  0  0  0  0  0  0  0  0  0  0  # atno 10167 bound_to 10162
  156.0057  130.4593  150.3895 H   0  0  0  0  0  0  0  0  0  0  0  0  # atno 10718 bound_to 10713
  154.1437  135.6501  153.4948 H   0  0  0  0  0  0  0  0  0  0  0  0  # atno 10763 bound_to 10752
  153.0158  135.5321  154.6878 H   0  0  0  0  0  0  0  0  0  0  0  0  # atno 10764 bound_to 10752
  154.6147  135.2958  155.0364 H   0  0  0  0  0  0  0  0  0  0  0  0  # atno 10765 bound_to 10752
  139.8966  134.9559  156.6815 H   0  0  0  0  0  0  0  0  0  0  0  0  # atno 11005 bound_to 11000
  145.1582  139.2474  143.5405 LP  0  0  0  0  0  0  0  0  0  0  0  0  # atno 17320 bound_to 7965
  146.3514  140.1302  142.8597 LP  0  0  0  0  0  0  0  0  0  0  0  0  # atno 17321 bound_to 7965
  139.4833  144.6117  151.7420 LP  0  0  0  0  0  0  0  0  0  0  0  0  # atno 17342 bound_to 10162
  140.5265  144.0797  150.6039 LP  0  0  0  0  0  0  0  0  0  0  0  0  # atno 17343 bound_to 10162
  157.1971  131.0429  151.2670 LP  0  0  0  0  0  0  0  0  0  0  0  0  # atno 17370 bound_to 10713
  157.4009  130.7333  149.6766 LP  0  0  0  0  0  0  0  0  0  0  0  0  # atno 17371 bound_to 10713
  140.7295  133.9071  155.8202 LP  0  0  0  0  0  0  0  0  0  0  0  0  # atno 17394 bound_to 11000
  141.0164  134.0949  157.4167 LP  0  0  0  0  0  0  0  0  0  0  0  0  # atno 17395 bound_to 11000

$$$$
