AV-unprocessed.smi:2482|AV-procd|sdf|9776|dock7
  -GOLD-   2272013413D 1   1.00000     0.00000
 Structure written by MMmdl.
 35 36  0  0  0  0  0  0  0  0  2 V2000
  153.0906  143.1357  162.6345 C   0  0  0  0  0  0  0  0  0  0  0  0
  152.5076  143.2860  161.2393 C   0  0  0  0  0  0  0  0  0  0  0  0
  151.9061  144.4745  161.0126 N   0  0  0  0  0  0  0  0  0  0  0  0
  151.3569  144.6942  159.8009 C   0  0  0  0  0  0  0  0  0  0  0  0
  151.3857  143.7507  158.7574 C   0  0  0  0  0  0  0  0  0  0  0  0
  152.0268  142.5109  158.9842 C   0  0  0  0  0  0  0  0  0  0  0  0
  152.0827  141.4863  158.0018 N   0  0  0  0  0  0  0  0  0  0  0  0
  151.3335  141.3618  156.8913 C   0  0  0  0  0  0  0  0  0  0  0  0
  150.4410  142.1460  156.5676 O   0  0  0  0  0  0  0  0  0  0  0  0
  151.6670  140.1524  155.9946 C   0  0  1  0  0  0  0  0  0  0  0  0
  151.5564  138.7789  156.6987 C   0  0  0  0  0  0  0  0  0  0  0  0
  150.1419  138.4308  156.9720 N   0  3  2  0  0  0  0  0  0  0  0  0
  149.9997  137.1553  157.7058 C   0  0  0  0  0  0  0  0  0  0  0  0
  149.3437  138.4669  155.7259 C   0  0  0  0  0  0  0  0  0  0  0  0
  149.4724  139.8404  155.0475 C   0  0  0  0  0  0  0  0  0  0  0  0
  150.8498  140.1412  154.8185 O   0  0  0  0  0  0  0  0  0  0  0  0
  152.5889  142.2647  160.2588 C   0  0  0  0  0  0  0  0  0  0  0  0
  153.3654  140.7505  160.5870 Cl  0  0  0  0  0  0  0  0  0  0  0  0
  153.5940  142.1837  162.7920 H   0  0  0  0  0  0  0  0  0  0  0  0
  152.3000  143.2200  163.3806 H   0  0  0  0  0  0  0  0  0  0  0  0
  153.8170  143.9269  162.8217 H   0  0  0  0  0  0  0  0  0  0  0  0
  150.8733  145.6497  159.6608 H   0  0  0  0  0  0  0  0  0  0  0  0
  150.9095  143.9840  157.8169 H   0  0  0  0  0  0  0  0  0  0  0  0
  152.8489  140.8351  158.0973 H   0  0  0  0  0  0  0  0  0  0  0  0
  152.6990  140.2874  155.6691 H   0  0  0  0  0  0  0  0  0  0  0  0
  151.9998  138.0083  156.0661 H   0  0  0  0  0  0  0  0  0  0  0  0
  152.1262  138.7765  157.6292 H   0  0  0  0  0  0  0  0  0  0  0  0
  150.3843  136.3200  157.1193 H   0  0  0  0  0  0  0  0  0  0  0  0
  148.9520  136.9588  157.9365 H   0  0  0  0  0  0  0  0  0  0  0  0
  150.5464  137.1925  158.6487 H   0  0  0  0  0  0  0  0  0  0  0  0
  149.6859  137.6825  155.0490 H   0  0  0  0  0  0  0  0  0  0  0  0
  148.2963  138.2629  155.9509 H   0  0  0  0  0  0  0  0  0  0  0  0
  148.9547  139.8320  154.0881 H   0  0  0  0  0  0  0  0  0  0  0  0
  148.9954  140.6158  155.6482 H   0  0  0  0  0  0  0  0  0  0  0  0
  149.7761  139.1538  157.5759 H   0  0  0  0  0  0  0  0  0  0  0  0
  1  2  1  0  0  0  0
  1 19  1  0  0  0  0
  1 20  1  0  0  0  0
  1 21  1  0  0  0  0
  2 17  1  0  0  0  0
  2  3  2  0  0  0  0
  3  4  1  0  0  0  0
  4  5  2  0  0  0  0
  4 22  1  0  0  0  0
  5  6  1  0  0  0  0
  5 23  1  0  0  0  0
  6  7  1  0  0  0  0
  6 17  2  0  0  0  0
  7  8  1  0  0  0  0
  7 24  1  0  0  0  0
  8  9  2  0  0  0  0
  8 10  1  0  0  0  0
 10 16  1  0  0  0  0
 10 11  1  0  0  0  0
 10 25  1  0  0  0  0
 11 12  1  0  0  0  0
 11 26  1  0  0  0  0
 11 27  1  0  0  0  0
 12 13  1  0  0  0  0
 12 14  1  0  0  0  0
 12 35  1  0  0  0  0
 13 28  1  0  0  0  0
 13 29  1  0  0  0  0
 13 30  1  0  0  0  0
 14 15  1  0  0  0  0
 14 31  1  0  0  0  0
 14 32  1  0  0  0  0
 15 16  1  0  0  0  0
 15 33  1  0  0  0  0
 15 34  1  0  0  0  0
 17 18  1  0  0  0  0
M  CHG  1  12   1
M  END
> <s_m_source_file>
AV-unprocessed.smi

> <i_m_source_file_index>
2482

> <i_lp_mmshare_version>
43012

> <i_f3d_flags>
0

> <s_epik_input>
W0NIM11jMW5bY0hdW2NIXWMoYzFDbClbTkhdQyg9TylbQ0BASF0yW0NIMl1OKFtDSDNdKVtDSDJdW0NIMl1PMg==

> <s_epik_cmdline>
J2VwaWtfcHl0aG9uJywgJy1waCcsICc3LjAnLCAnLXRuJywgJzgnLCAnLW1hJywgJzIwMCcsICctbWV0YWxfYmluZGluZycsICctaW1hZScsICc8aW5maWxlLm1hZT4nLCAnLW9tYWUnLCAnPG91dGZpbGUubWFlPic=

> <r_epik_Ionization_Penalty>
0.314226

> <r_epik_Ionization_Penalty_Charging>
0.314023

> <r_epik_Ionization_Penalty_Neutral>
0.00020299

> <r_epik_State_Penalty>
0.308208

> <r_epik_Charging_Adjusted_Penalty>
0.62223

> <i_epik_Tot_Q>
1

> <i_epik_Tot_abs_Q>
1

> <r_epik_Metal_State_Penalty>
0.314444

> <b_epik_Metal_Only>
0

> <s_lp_Force_Field>
OPLS_2005

> <r_lp_Energy>
21.5381

> <b_lp_Chiralities_Consistent>
1

> <s_lp_Variant>
AV-unprocessed.smi:2482-2

> <Gold.Version>
5.8.1

> <Gold.Id.Protein>
6NUR|6NUR_protein|mol2

> <Gold.PLP.Fitness>
37.7708

> <Gold.PLP.PLP>
-34.9116

> <Gold.PLP.part.hbond>
-1.0000

> <Gold.PLP.part.metal>
0.0000

> <Gold.PLP.part.buried>
-6.2161

> <Gold.PLP.part.nonpolar>
-28.2262

> <Gold.PLP.part.repulsive>
0.4327

> <Gold.PLP.ligand.clash>
0.0000

> <Gold.PLP.ligand.torsion>
0.0797

> <Gold.PLP.Chemscore.Hbond>
1.0000

> <Gold.PLP.Chemscore.CHOScore>
0.0000

> <Gold.PLP.Chemscore.Metal>
0.0000

> <Gold.Chemscore.Hbonds>
donor molecule, donor type, donor heavy atom, donor atom, acceptor molecule, acceptor atom, score
      P1  H  7989  7998       L1    16  1.00

> <Gold.PLP.Chemscore.Internal.Correction>
0.0186

> <Gold.Rescore>
     Score         DG    S(hbond)    S(metal)    S(lipo)     H(rot)  DE(clash)    DE(int)     intcor
     15.18     -17.78       0.96        0.00      99.45       1.00       0.03       2.57       ----

> <Gold.Chemscore.Fitness>
15.1750

> <Gold.Chemscore.DG>
-17.7765

> <Gold.Chemscore.ZeroCoef>
-5.4800

> <Gold.Chemscore.Hbond>
0.9644

> <Gold.Chemscore.Metal>
0.0000

> <Gold.Chemscore.Lipo>
99.4484

> <Gold.Chemscore.Internal_Hbond>
0.0000

> <Gold.Chemscore.DEClash>
0.0285

> <Gold.Chemscore.DEInternal>
2.5730

> <Gold.Chemscore.Rot>
1.0000

> <Gold.Chemscore.Internal.Correction>
   9.000000E+99

> <Gold.Chemscore.Hbonds>
donor molecule, donor type, donor heavy atom, donor atom, acceptor molecule, acceptor atom, score
      P1  H  7989  7998       L1    16  0.82

> <Gold.Chemscore.Hbond.Weighted>
-3.2210

> <Gold.Chemscore.Metal.Weighted>
-0.0000

> <Gold.Chemscore.Lipo.Weighted>
-11.6355

> <Gold.Chemscore.Internal_Hbond.Weighted>
0.0000

> <Gold.Chemscore.DEClash.Weighted>
0.0285

> <Gold.Chemscore.DEInternal.Weighted>
2.5730

> <Gold.Chemscore.Rot.Weighted>
2.5600

> <Gold.Chemscore.Internal.Correction.Weighted>
   9.000000E+99

> <Gold.Protein.RotatedTorsions>
[ 6907 6896 6895 6894 ] final -169.77 input  -60.11 | X-H torsion
[ 7974 7965 7964 7962 ] final  -38.65 input  175.53 | X-H torsion
[ 8008 7997 7996 7995 ] final  -96.91 input   59.86 | X-H torsion
[ 10167 10162 10161 10158 ] final  121.56 input  -65.29 | X-H torsion
[ 10718 10713 10712 10709 ] final -161.72 input   66.30 | X-H torsion
[ 10763 10752 10751 10750 ] final -154.97 input  -60.55 | X-H torsion
[ 11005 11000 10999 10996 ] final  -66.95 input  -57.11 | X-H torsion

> <Gold.Protein.ActiveResidues>
 VAL166  LYS551  ARG553  GLY616  TRP617  ASP618  TYR619  PRO620  LYS621  CYS622 
 ASP623  PHE694  ASN695  SER759  ASP760  ASP761  ALA762  ILE779  LEU786  VAL792 
 PHE793  MET794  SER795  GLU796  ALA797  LYS798  CYS799  TRP800  GLU811  SER814 

> <Gold.Protein.RotatedAtoms>
  151.4969  133.3513  159.2862 H   0  0  0  0  0  0  0  0  0  0  0  0  # atno 6907 bound_to 6896
  150.8798  134.8189  159.7227 H   0  0  0  0  0  0  0  0  0  0  0  0  # atno 6908 bound_to 6896
  152.4755  134.4865  159.9734 H   0  0  0  0  0  0  0  0  0  0  0  0  # atno 6909 bound_to 6896
  146.0467  140.6536  142.9061 H   0  0  0  0  0  0  0  0  0  0  0  0  # atno 7974 bound_to 7965
  154.7807  140.0467  157.1125 H   0  0  0  0  0  0  0  0  0  0  0  0  # atno 8008 bound_to 7997
  154.9708  140.3089  155.4969 H   0  0  0  0  0  0  0  0  0  0  0  0  # atno 8009 bound_to 7997
  156.2936  140.2253  156.4800 H   0  0  0  0  0  0  0  0  0  0  0  0  # atno 8010 bound_to 7997
  139.5912  144.7026  151.3285 H   0  0  0  0  0  0  0  0  0  0  0  0  # atno 10167 bound_to 10162
  156.6003  130.8807  151.2912 H   0  0  0  0  0  0  0  0  0  0  0  0  # atno 10718 bound_to 10713
  154.7821  135.3178  154.7967 H   0  0  0  0  0  0  0  0  0  0  0  0  # atno 10763 bound_to 10752
  153.8676  135.6847  153.4781 H   0  0  0  0  0  0  0  0  0  0  0  0  # atno 10764 bound_to 10752
  153.1461  135.4719  154.9505 H   0  0  0  0  0  0  0  0  0  0  0  0  # atno 10765 bound_to 10752
  141.1495  133.6709  156.6217 H   0  0  0  0  0  0  0  0  0  0  0  0  # atno 11005 bound_to 11000
  144.7101  140.4007  143.7087 LP  0  0  0  0  0  0  0  0  0  0  0  0  # atno 17320 bound_to 7965
  145.6794  139.1615  143.2709 LP  0  0  0  0  0  0  0  0  0  0  0  0  # atno 17321 bound_to 7965
  140.7175  143.7227  150.7683 LP  0  0  0  0  0  0  0  0  0  0  0  0  # atno 17342 bound_to 10162
  140.0784  143.4993  152.2543 LP  0  0  0  0  0  0  0  0  0  0  0  0  # atno 17343 bound_to 10162
  157.7281  130.9652  150.1729 LP  0  0  0  0  0  0  0  0  0  0  0  0  # atno 17370 bound_to 10713
  156.2475  130.3697  149.8269 LP  0  0  0  0  0  0  0  0  0  0  0  0  # atno 17371 bound_to 10713
  140.3535  134.7748  157.4484 LP  0  0  0  0  0  0  0  0  0  0  0  0  # atno 17394 bound_to 11000
  140.0842  134.5690  155.8509 LP  0  0  0  0  0  0  0  0  0  0  0  0  # atno 17395 bound_to 11000

$$$$
