AV-unprocessed.smi:2734|AV-procd|sdf|10537|dock7
  -GOLD-   2272014583D 1   1.00000     0.00000
 Structure written by MMmdl.
 40 42  0  0  0  0  0  0  0  0  1 V2000
  153.0940  142.8927  161.5406 C   0  0  0  0  0  0  0  0  0  0  0  0
  152.4530  142.6140  160.1925 C   0  0  0  0  0  0  0  0  0  0  0  0
  152.8454  141.4648  159.4696 C   0  0  0  0  0  0  0  0  0  0  0  0
  152.2724  141.1686  158.2134 C   0  0  0  0  0  0  0  0  0  0  0  0
  152.5025  140.1144  157.3462 N   0  0  0  0  0  0  0  0  0  0  0  0
  151.6661  140.3983  156.3517 C   0  0  0  0  0  0  0  0  0  0  0  0
  150.9210  141.5140  156.4724 N   0  0  0  0  0  0  0  0  0  0  0  0
  149.9478  142.0273  155.5252 C   0  0  0  0  0  0  0  0  0  0  0  0
  149.1634  140.9044  154.8205 C   0  0  2  0  0  0  0  0  0  0  0  0
  149.5872  140.8051  153.4743 O   0  0  0  0  0  0  0  0  0  0  0  0
  147.6473  141.1534  154.8574 C   0  0  0  0  0  0  0  0  0  0  0  0
  147.1502  142.5117  153.7536 S   0  0  0  0  0  0  0  0  0  0  0  0
  145.7175  143.0883  154.6110 C   0  0  0  0  0  0  0  0  0  0  0  0
  145.2607  142.6478  155.7779 N   0  0  0  0  0  0  0  0  0  0  0  0
  144.1324  143.4122  156.0059 N   0  0  0  0  0  0  0  0  0  0  0  0
  143.9293  144.2542  155.0350 N   0  0  0  0  0  0  0  0  0  0  0  0
  144.9283  144.0618  154.1399 N   0  0  0  0  0  0  0  0  0  0  0  0
  145.0049  144.8457  152.9233 C   0  0  0  0  0  0  0  0  0  0  0  0
  151.2895  142.0617  157.6956 C   0  0  0  0  0  0  0  0  0  0  0  0
  150.8910  143.2085  158.4046 C   0  0  0  0  0  0  0  0  0  0  0  0
  151.4721  143.4886  159.6591 C   0  0  0  0  0  0  0  0  0  0  0  0
  151.0328  144.7277  160.4190 C   0  0  0  0  0  0  0  0  0  0  0  0
  153.8353  142.1343  161.7939 H   0  0  0  0  0  0  0  0  0  0  0  0
  152.3396  142.8990  162.3277 H   0  0  0  0  0  0  0  0  0  0  0  0
  153.5957  143.8604  161.5331 H   0  0  0  0  0  0  0  0  0  0  0  0
  153.5919  140.7981  159.8755 H   0  0  0  0  0  0  0  0  0  0  0  0
  151.5883  139.7572  155.4857 H   0  0  0  0  0  0  0  0  0  0  0  0
  149.2642  142.6831  156.0656 H   0  0  0  0  0  0  0  0  0  0  0  0
  150.4648  142.6504  154.7936 H   0  0  0  0  0  0  0  0  0  0  0  0
  149.3796  139.9557  155.3136 H   0  0  0  0  0  0  0  0  0  0  0  0
  148.9880  140.2376  153.0133 H   0  0  0  0  0  0  0  0  0  0  0  0
  147.1222  140.2499  154.5449 H   0  0  0  0  0  0  0  0  0  0  0  0
  147.3255  141.3770  155.8756 H   0  0  0  0  0  0  0  0  0  0  0  0
  144.8679  144.1947  152.0598 H   0  0  0  0  0  0  0  0  0  0  0  0
  145.9809  145.3268  152.8569 H   0  0  0  0  0  0  0  0  0  0  0  0
  144.2312  145.6144  152.9134 H   0  0  0  0  0  0  0  0  0  0  0  0
  150.1428  143.8652  157.9860 H   0  0  0  0  0  0  0  0  0  0  0  0
  150.2659  145.2780  159.8732 H   0  0  0  0  0  0  0  0  0  0  0  0
  151.8775  145.3984  160.5770 H   0  0  0  0  0  0  0  0  0  0  0  0
  150.6203  144.4539  161.3903 H   0  0  0  0  0  0  0  0  0  0  0  0
  1  2  1  0  0  0  0
  1 23  1  0  0  0  0
  1 24  1  0  0  0  0
  1 25  1  0  0  0  0
  2 21  1  0  0  0  0
  2  3  2  0  0  0  0
  3  4  1  0  0  0  0
  3 26  1  0  0  0  0
  4 19  2  0  0  0  0
  4  5  1  0  0  0  0
  5  6  2  0  0  0  0
  6  7  1  0  0  0  0
  6 27  1  0  0  0  0
  7  8  1  0  0  0  0
  7 19  1  0  0  0  0
  8  9  1  0  0  0  0
  8 28  1  0  0  0  0
  8 29  1  0  0  0  0
  9 10  1  0  0  0  0
  9 11  1  0  0  0  0
  9 30  1  0  0  0  0
 10 31  1  0  0  0  0
 11 12  1  0  0  0  0
 11 32  1  0  0  0  0
 11 33  1  0  0  0  0
 12 13  1  0  0  0  0
 13 17  1  0  0  0  0
 13 14  2  0  0  0  0
 14 15  1  0  0  0  0
 15 16  2  0  0  0  0
 16 17  1  0  0  0  0
 17 18  1  0  0  0  0
 18 34  1  0  0  0  0
 18 35  1  0  0  0  0
 18 36  1  0  0  0  0
 19 20  1  0  0  0  0
 20 21  2  0  0  0  0
 20 37  1  0  0  0  0
 21 22  1  0  0  0  0
 22 38  1  0  0  0  0
 22 39  1  0  0  0  0
 22 40  1  0  0  0  0
M  END
> <s_m_source_file>
AV-unprocessed.smi

> <i_m_source_file_index>
2734

> <i_lp_mmshare_version>
43012

> <i_f3d_flags>
0

> <s_epik_input>
W0NIM11jKFtjSF0xKWMoW0NIM10pW2NIXWMoYzEyKW4oW2NIXW4yKVtDSDJdW0NASF0oW09IXSlbQ0gyXVNjM25ubm4zW0NIM10=

> <s_epik_cmdline>
J2VwaWtfcHl0aG9uJywgJy1waCcsICc3LjAnLCAnLXRuJywgJzgnLCAnLW1hJywgJzIwMCcsICctbWV0YWxfYmluZGluZycsICctaW1hZScsICc8aW5maWxlLm1hZT4nLCAnLW9tYWUnLCAnPG91dGZpbGUubWFlPic=

> <r_lp_tautomer_probability>
1

> <r_epik_Ionization_Penalty>
0.105517

> <r_epik_Ionization_Penalty_Charging>
0

> <r_epik_Ionization_Penalty_Neutral>
0.105517

> <r_epik_State_Penalty>
0.0953887

> <r_epik_Charging_Adjusted_Penalty>
0.0953887

> <i_epik_Tot_Q>
0

> <i_epik_Tot_abs_Q>
0

> <r_epik_Metal_State_Penalty>
0.0808533

> <b_epik_Metal_Only>
0

> <s_lp_Force_Field>
OPLS_2005

> <r_lp_Energy>
9.5145

> <b_lp_Chiralities_Consistent>
1

> <s_lp_Variant>
AV-unprocessed.smi:2734-1

> <Gold.Version>
5.8.1

> <Gold.Id.Protein>
6NUR|6NUR_protein|mol2

> <Gold.PLP.Fitness>
54.1614

> <Gold.PLP.PLP>
-49.1475

> <Gold.PLP.part.hbond>
-3.6600

> <Gold.PLP.part.metal>
0.0000

> <Gold.PLP.part.buried>
-6.5309

> <Gold.PLP.part.nonpolar>
-39.0221

> <Gold.PLP.part.repulsive>
0.3322

> <Gold.PLP.ligand.clash>
0.0000

> <Gold.PLP.ligand.torsion>
1.2726

> <Gold.PLP.Chemscore.Hbond>
2.5120

> <Gold.PLP.Chemscore.CHOScore>
0.0000

> <Gold.PLP.Chemscore.Metal>
0.0000

> <Gold.Chemscore.Hbonds>
donor molecule, donor type, donor heavy atom, donor atom, acceptor molecule, acceptor atom, score
      L1  H    10    31       P1  7957  0.18
      P1  H  7989  7998       L1    10  0.34
      P1  H  7997  8008       L1     5  1.00
      P1  H  8011  8017       L1    10  1.00

> <Gold.PLP.Chemscore.Internal.Correction>
0.0231

> <Gold.Rescore>
     Score         DG    S(hbond)    S(metal)    S(lipo)     H(rot)  DE(clash)    DE(int)     intcor
     15.33     -17.73       1.87        0.00     113.68       2.85       1.09       1.31       ----

> <Gold.Chemscore.Fitness>
15.3296

> <Gold.Chemscore.DG>
-17.7345

> <Gold.Chemscore.ZeroCoef>
-5.4800

> <Gold.Chemscore.Hbond>
1.8675

> <Gold.Chemscore.Metal>
0.0000

> <Gold.Chemscore.Lipo>
113.6820

> <Gold.Chemscore.Internal_Hbond>
0.0000

> <Gold.Chemscore.DEClash>
1.0943

> <Gold.Chemscore.DEInternal>
1.3106

> <Gold.Chemscore.Rot>
2.8452

> <Gold.Chemscore.Internal.Correction>
   9.000000E+99

> <Gold.Chemscore.Hbonds>
donor molecule, donor type, donor heavy atom, donor atom, acceptor molecule, acceptor atom, score
      L1  H    10    31       P1  7957  0.18
      P1  H  7989  7998       L1    10  0.21
      P1  H  7997  8008       L1     5  0.59
      P1  H  8011  8017       L1    10  0.53

> <Gold.Chemscore.Hbond.Weighted>
-6.2374

> <Gold.Chemscore.Metal.Weighted>
-0.0000

> <Gold.Chemscore.Lipo.Weighted>
-13.3008

> <Gold.Chemscore.Internal_Hbond.Weighted>
0.0000

> <Gold.Chemscore.DEClash.Weighted>
1.0943

> <Gold.Chemscore.DEInternal.Weighted>
1.3106

> <Gold.Chemscore.Rot.Weighted>
7.2837

> <Gold.Chemscore.Internal.Correction.Weighted>
   9.000000E+99

> <Gold.Protein.RotatedTorsions>
[ 6907 6896 6895 6894 ] final   73.29 input  -60.11 | X-H torsion
[ 7974 7965 7964 7962 ] final   51.43 input  175.53 | X-H torsion
[ 8008 7997 7996 7995 ] final  -69.61 input   59.86 | X-H torsion
[ 10167 10162 10161 10158 ] final -120.10 input  -65.29 | X-H torsion
[ 10718 10713 10712 10709 ] final   55.41 input   66.30 | X-H torsion
[ 10763 10752 10751 10750 ] final -153.83 input  -60.55 | X-H torsion
[ 11005 11000 10999 10996 ] final   81.98 input  -57.11 | X-H torsion

> <Gold.Protein.ActiveResidues>
 VAL166  LYS551  ARG553  GLY616  TRP617  ASP618  TYR619  PRO620  LYS621  CYS622 
 ASP623  PHE694  ASN695  SER759  ASP760  ASP761  ALA762  ILE779  LEU786  VAL792 
 PHE793  MET794  SER795  GLU796  ALA797  LYS798  CYS799  TRP800  GLU811  SER814 

> <Gold.Protein.RotatedAtoms>
  152.4915  134.4443  159.9553 H   0  0  0  0  0  0  0  0  0  0  0  0  # atno 6907 bound_to 6896
  151.4429  133.3632  159.2792 H   0  0  0  0  0  0  0  0  0  0  0  0  # atno 6908 bound_to 6896
  150.9075  134.8514  159.7462 H   0  0  0  0  0  0  0  0  0  0  0  0  # atno 6909 bound_to 6896
  145.9914  139.4343  143.0071 H   0  0  0  0  0  0  0  0  0  0  0  0  # atno 7974 bound_to 7965
  154.4951  140.0850  156.7679 H   0  0  0  0  0  0  0  0  0  0  0  0  # atno 8008 bound_to 7997
  155.4136  140.3442  155.4247 H   0  0  0  0  0  0  0  0  0  0  0  0  # atno 8009 bound_to 7997
  156.1383  140.1521  156.8948 H   0  0  0  0  0  0  0  0  0  0  0  0  # atno 8010 bound_to 7997
  140.0395  143.5168  152.2137 H   0  0  0  0  0  0  0  0  0  0  0  0  # atno 10167 bound_to 10162
  157.5342  130.8652  149.8730 H   0  0  0  0  0  0  0  0  0  0  0  0  # atno 10718 bound_to 10713
  154.7900  135.3204  154.7798 H   0  0  0  0  0  0  0  0  0  0  0  0  # atno 10763 bound_to 10752
  153.8489  135.6864  153.4799 H   0  0  0  0  0  0  0  0  0  0  0  0  # atno 10764 bound_to 10752
  153.1567  135.4677  154.9654 H   0  0  0  0  0  0  0  0  0  0  0  0  # atno 10765 bound_to 10752
  139.9079  134.8037  156.2113 H   0  0  0  0  0  0  0  0  0  0  0  0  # atno 11005 bound_to 11000
  145.7625  140.9929  143.1192 LP  0  0  0  0  0  0  0  0  0  0  0  0  # atno 17320 bound_to 7965
  144.6890  139.9347  143.7473 LP  0  0  0  0  0  0  0  0  0  0  0  0  # atno 17321 bound_to 7965
  139.6023  144.7586  151.3142 LP  0  0  0  0  0  0  0  0  0  0  0  0  # atno 17342 bound_to 10162
  140.7266  143.6984  150.7865 LP  0  0  0  0  0  0  0  0  0  0  0  0  # atno 17343 bound_to 10162
  156.0446  130.3731  150.1350 LP  0  0  0  0  0  0  0  0  0  0  0  0  # atno 17370 bound_to 10713
  156.9533  130.9782  151.3494 LP  0  0  0  0  0  0  0  0  0  0  0  0  # atno 17371 bound_to 10713
  141.0463  133.6911  156.1690 LP  0  0  0  0  0  0  0  0  0  0  0  0  # atno 17394 bound_to 11000
  140.6878  134.4698  157.5589 LP  0  0  0  0  0  0  0  0  0  0  0  0  # atno 17395 bound_to 11000

$$$$
