AV-unprocessed.smi:1079|AV-procd|sdf|4705|dock6
  -GOLD-   22720 3233D 1   1.00000     0.00000
 Structure written by MMmdl.
 43 44  0  0  0  0  0  0  0  0  2 V2000
  143.9337  137.5033  158.6306 C   0  0  0  0  0  0  0  0  0  0  0  0
  144.9126  136.4867  158.5140 O   0  0  0  0  0  0  0  0  0  0  0  0
  146.0014  136.8721  157.6908 C   0  0  0  0  0  0  0  0  0  0  0  0
  146.6522  138.1484  158.2506 C   0  0  0  0  0  0  0  0  0  0  0  0
  148.1255  138.0293  158.3228 N   0  0  0  0  0  0  0  0  0  0  0  0
  148.9360  138.8958  157.5401 C   0  0  0  0  0  0  0  0  0  0  0  0
  148.3256  139.8197  156.7038 N   0  0  0  0  0  0  0  0  0  0  0  0
  150.2915  138.7906  157.5903 C   0  0  0  0  0  0  0  0  0  0  0  0
  151.1355  139.6557  156.8643 N   0  0  0  0  0  0  0  0  0  0  0  0
  151.1105  141.0827  157.2268 C   0  0  0  0  0  0  0  0  0  0  0  0
  151.9085  141.4072  158.4803 C   0  0  0  0  0  0  0  0  0  0  0  0
  151.9980  142.7380  158.9406 C   0  0  0  0  0  0  0  0  0  0  0  0
  152.7320  143.0383  160.1041 C   0  0  0  0  0  0  0  0  0  0  0  0
  153.3836  142.0092  160.8109 C   0  0  0  0  0  0  0  0  0  0  0  0
  153.3005  140.6800  160.3534 C   0  0  0  0  0  0  0  0  0  0  0  0
  152.5653  140.3797  159.1902 C   0  0  0  0  0  0  0  0  0  0  0  0
  151.8573  139.2308  155.7933 C   0  0  0  0  0  0  0  0  0  0  0  0
  151.7428  137.7729  155.3306 C   0  0  0  0  0  0  0  0  0  0  0  0
  152.5872  139.9829  155.1459 O   0  0  0  0  0  0  0  0  0  0  0  0
  150.8910  137.7941  158.4878 C   0  0  0  0  0  0  0  0  0  0  0  0
  152.1147  137.7071  158.5898 O   0  0  0  0  0  0  0  0  0  0  0  0
  150.0517  136.9884  159.1897 N   0  5  0  0  0  0  0  0  0  0  0  0
  148.6930  137.0761  159.1242 C   0  0  0  0  0  0  0  0  0  0  0  0
  147.9651  136.3186  159.7678 O   0  0  0  0  0  0  0  0  0  0  0  0
  143.1227  137.1583  159.2715 H   0  0  0  0  0  0  0  0  0  0  0  0
  143.5107  137.7563  157.6577 H   0  0  0  0  0  0  0  0  0  0  0  0
  144.3539  138.4059  159.0765 H   0  0  0  0  0  0  0  0  0  0  0  0
  146.7389  136.0688  157.6695 H   0  0  0  0  0  0  0  0  0  0  0  0
  145.6679  137.0296  156.6638 H   0  0  0  0  0  0  0  0  0  0  0  0
  146.3334  139.0148  157.6719 H   0  0  0  0  0  0  0  0  0  0  0  0
  146.2447  138.3475  159.2430 H   0  0  0  0  0  0  0  0  0  0  0  0
  147.3201  139.8863  156.6424 H   0  0  0  0  0  0  0  0  0  0  0  0
  148.8442  140.6014  156.3296 H   0  0  0  0  0  0  0  0  0  0  0  0
  151.4673  141.6840  156.3886 H   0  0  0  0  0  0  0  0  0  0  0  0
  150.0854  141.4131  157.4023 H   0  0  0  0  0  0  0  0  0  0  0  0
  151.5031  143.5327  158.4021 H   0  0  0  0  0  0  0  0  0  0  0  0
  152.7943  144.0581  160.4541 H   0  0  0  0  0  0  0  0  0  0  0  0
  153.9467  142.2395  161.7032 H   0  0  0  0  0  0  0  0  0  0  0  0
  153.7988  139.8899  160.8953 H   0  0  0  0  0  0  0  0  0  0  0  0
  152.5021  139.3570  158.8482 H   0  0  0  0  0  0  0  0  0  0  0  0
  150.7000  137.4711  155.2281 H   0  0  0  0  0  0  0  0  0  0  0  0
  152.2363  137.1026  156.0342 H   0  0  0  0  0  0  0  0  0  0  0  0
  152.2205  137.6430  154.3589 H   0  0  0  0  0  0  0  0  0  0  0  0
  1  2  1  0  0  0  0
  1 25  1  0  0  0  0
  1 26  1  0  0  0  0
  1 27  1  0  0  0  0
  2  3  1  0  0  0  0
  3  4  1  0  0  0  0
  3 28  1  0  0  0  0
  3 29  1  0  0  0  0
  4  5  1  0  0  0  0
  4 30  1  0  0  0  0
  4 31  1  0  0  0  0
  5 23  1  0  0  0  0
  5  6  1  0  0  0  0
  6  7  1  0  0  0  0
  6  8  2  0  0  0  0
  7 32  1  0  0  0  0
  7 33  1  0  0  0  0
  8  9  1  0  0  0  0
  8 20  1  0  0  0  0
  9 10  1  0  0  0  0
  9 17  1  0  0  0  0
 10 11  1  0  0  0  0
 10 34  1  0  0  0  0
 10 35  1  0  0  0  0
 11 16  1  0  0  0  0
 11 12  2  0  0  0  0
 12 13  1  0  0  0  0
 12 36  1  0  0  0  0
 13 14  2  0  0  0  0
 13 37  1  0  0  0  0
 14 15  1  0  0  0  0
 14 38  1  0  0  0  0
 15 16  2  0  0  0  0
 15 39  1  0  0  0  0
 16 40  1  0  0  0  0
 17 18  1  0  0  0  0
 17 19  2  0  0  0  0
 18 41  1  0  0  0  0
 18 42  1  0  0  0  0
 18 43  1  0  0  0  0
 20 21  2  0  0  0  0
 20 22  1  0  0  0  0
 22 23  1  0  0  0  0
 23 24  2  0  0  0  0
M  CHG  1  22  -1
M  END
> <s_m_source_file>
AV-unprocessed.smi

> <i_m_source_file_index>
1079

> <i_lp_mmshare_version>
43012

> <i_f3d_flags>
0

> <s_epik_input>
W0NIM11PW0NIMl1bQ0gyXW4xYyhbTkgyXSljKGMoPU8pW25IXWMxPU8pTihDKD1PKVtDSDNdKVtDSDJdYzJbY0hdW2NIXVtjSF1bY0hdW2NIXTI=

> <s_epik_cmdline>
J2VwaWtfcHl0aG9uJywgJy1waCcsICc3LjAnLCAnLXRuJywgJzgnLCAnLW1hJywgJzIwMCcsICctbWV0YWxfYmluZGluZycsICctaW1hZScsICc8aW5maWxlLm1hZT4nLCAnLW9tYWUnLCAnPG91dGZpbGUubWFlPic=

> <r_lp_tautomer_probability>
1

> <r_epik_Ionization_Penalty>
7.02899

> <r_epik_Ionization_Penalty_Charging>
0.353543

> <r_epik_Ionization_Penalty_Neutral>
6.67545

> <r_epik_State_Penalty>
6.67544

> <r_epik_Charging_Adjusted_Penalty>
7.02899

> <i_epik_Tot_Q>
-1

> <i_epik_Tot_abs_Q>
1

> <r_epik_Metal_State_Penalty>
2.59023

> <b_epik_Metal_Only>
1

> <s_epik_Chemistry_Notes>
This compound has an imine and may undergo hydrolysis.

> <s_lp_Force_Field>
OPLS_2005

> <r_lp_Energy>
37.6248

> <b_lp_Chiralities_Consistent>
1

> <s_lp_Variant>
AV-unprocessed.smi:1079-2

> <Gold.Version>
5.8.1

> <Gold.Id.Protein>
6NUR|6NUR_protein|mol2

> <Gold.PLP.Fitness>
44.3403

> <Gold.PLP.PLP>
-35.3228

> <Gold.PLP.part.hbond>
-3.0000

> <Gold.PLP.part.metal>
0.0000

> <Gold.PLP.part.buried>
-4.7545

> <Gold.PLP.part.nonpolar>
-27.9528

> <Gold.PLP.part.repulsive>
0.0545

> <Gold.PLP.ligand.clash>
0.0000

> <Gold.PLP.ligand.torsion>
1.8588

> <Gold.PLP.Chemscore.Hbond>
3.5282

> <Gold.PLP.Chemscore.CHOScore>
0.0000

> <Gold.PLP.Chemscore.Metal>
0.0000

> <Gold.Chemscore.Hbonds>
donor molecule, donor type, donor heavy atom, donor atom, acceptor molecule, acceptor atom, score
      P1  H  6896  6909       L1    22  0.78
      P1  H  7989  7998       L1    19  0.49
      P1  H  7997  8008       L1    19  1.00

> <Gold.PLP.Chemscore.Internal.Correction>
2.1505

> <Gold.Rescore>
     Score         DG    S(hbond)    S(metal)    S(lipo)     H(rot)  DE(clash)    DE(int)     intcor
     11.86     -15.43       1.93        0.00      73.28       1.98       0.03       3.54       ----

> <Gold.Chemscore.Fitness>
11.8640

> <Gold.Chemscore.DG>
-15.4344

> <Gold.Chemscore.ZeroCoef>
-5.4800

> <Gold.Chemscore.Hbond>
1.9329

> <Gold.Chemscore.Metal>
0.0000

> <Gold.Chemscore.Lipo>
73.2768

> <Gold.Chemscore.Internal_Hbond>
0.0000

> <Gold.Chemscore.DEClash>
0.0276

> <Gold.Chemscore.DEInternal>
3.5429

> <Gold.Chemscore.Rot>
1.9824

> <Gold.Chemscore.Internal.Correction>
   9.000000E+99

> <Gold.Chemscore.Hbonds>
donor molecule, donor type, donor heavy atom, donor atom, acceptor molecule, acceptor atom, score
      P1  H  6896  6909       L1    22  0.32
      P1  H  7989  7998       L1    19  0.44
      P1  H  7997  8008       L1    19  0.74

> <Gold.Chemscore.Hbond.Weighted>
-6.4559

> <Gold.Chemscore.Metal.Weighted>
-0.0000

> <Gold.Chemscore.Lipo.Weighted>
-8.5734

> <Gold.Chemscore.Internal_Hbond.Weighted>
0.0000

> <Gold.Chemscore.DEClash.Weighted>
0.0276

> <Gold.Chemscore.DEInternal.Weighted>
3.5429

> <Gold.Chemscore.Rot.Weighted>
5.0749

> <Gold.Chemscore.Internal.Correction.Weighted>
   9.000000E+99

> <Gold.Protein.RotatedTorsions>
[ 6907 6896 6895 6894 ] final   83.97 input  -60.11 | X-H torsion
[ 7974 7965 7964 7962 ] final  -43.40 input  175.53 | X-H torsion
[ 8008 7997 7996 7995 ] final  -26.01 input   59.86 | X-H torsion
[ 10167 10162 10161 10158 ] final   42.94 input  -65.29 | X-H torsion
[ 10718 10713 10712 10709 ] final  121.19 input   66.30 | X-H torsion
[ 10763 10752 10751 10750 ] final  168.98 input  -60.55 | X-H torsion
[ 11005 11000 10999 10996 ] final   65.93 input  -57.11 | X-H torsion

> <Gold.Protein.ActiveResidues>
 VAL166  LYS551  ARG553  GLY616  TRP617  ASP618  TYR619  PRO620  LYS621  CYS622 
 ASP623  PHE694  ASN695  SER759  ASP760  ASP761  ALA762  ILE779  LEU786  VAL792 
 PHE793  MET794  SER795  GLU796  ALA797  LYS798  CYS799  TRP800  GLU811  SER814 

> <Gold.Protein.RotatedAtoms>
  152.5341  134.2813  159.9008 H   0  0  0  0  0  0  0  0  0  0  0  0  # atno 6907 bound_to 6896
  151.2767  133.4222  159.2632 H   0  0  0  0  0  0  0  0  0  0  0  0  # atno 6908 bound_to 6896
  151.0320  134.9561  159.8172 H   0  0  0  0  0  0  0  0  0  0  0  0  # atno 6909 bound_to 6896
  146.0023  140.7060  142.9265 H   0  0  0  0  0  0  0  0  0  0  0  0  # atno 7974 bound_to 7965
  154.4446  140.1911  156.0709 H   0  0  0  0  0  0  0  0  0  0  0  0  # atno 8008 bound_to 7997
  156.0512  140.3308  155.7326 H   0  0  0  0  0  0  0  0  0  0  0  0  # atno 8009 bound_to 7997
  155.5555  140.0599  157.2831 H   0  0  0  0  0  0  0  0  0  0  0  0  # atno 8010 bound_to 7997
  140.3494  144.2369  150.6147 H   0  0  0  0  0  0  0  0  0  0  0  0  # atno 10167 bound_to 10162
  157.5836  131.1072  150.8139 H   0  0  0  0  0  0  0  0  0  0  0  0  # atno 10718 bound_to 10713
  154.3765  135.2753  155.2236 H   0  0  0  0  0  0  0  0  0  0  0  0  # atno 10763 bound_to 10752
  154.4361  135.5965  153.6103 H   0  0  0  0  0  0  0  0  0  0  0  0  # atno 10764 bound_to 10752
  152.9836  135.6007  154.4003 H   0  0  0  0  0  0  0  0  0  0  0  0  # atno 10765 bound_to 10752
  139.9863  134.6662  156.0170 H   0  0  0  0  0  0  0  0  0  0  0  0  # atno 11005 bound_to 11000
  144.6923  140.3254  143.7225 LP  0  0  0  0  0  0  0  0  0  0  0  0  # atno 17320 bound_to 7965
  145.7469  139.1781  143.2344 LP  0  0  0  0  0  0  0  0  0  0  0  0  # atno 17321 bound_to 7965
  140.5233  143.2260  151.8354 LP  0  0  0  0  0  0  0  0  0  0  0  0  # atno 17342 bound_to 10162
  139.4828  144.4810  151.9307 LP  0  0  0  0  0  0  0  0  0  0  0  0  # atno 17343 bound_to 10162
  156.8579  130.5103  149.5306 LP  0  0  0  0  0  0  0  0  0  0  0  0  # atno 17370 bound_to 10713
  156.0883  130.5875  150.9688 LP  0  0  0  0  0  0  0  0  0  0  0  0  # atno 17371 bound_to 10713
  141.1527  133.6546  156.4065 LP  0  0  0  0  0  0  0  0  0  0  0  0  # atno 17394 bound_to 11000
  140.4995  134.6499  157.5243 LP  0  0  0  0  0  0  0  0  0  0  0  0  # atno 17395 bound_to 11000

$$$$
