AV-unprocessed.smi:438|AV-procd|sdf|2565|dock1
  -GOLD-   2262022533D 1   1.00000     0.00000
 Structure written by MMmdl.
 48 49  0  0  0  0  0  0  0  0  1 V2000
  147.8399  130.0637  154.5796 C   0  0  0  0  0  0  0  0  0  0  0  0
  147.9626  131.5334  154.2188 C   0  0  0  0  0  0  0  0  0  0  0  0
  149.0660  132.2008  154.7655 N   0  0  0  0  0  0  0  0  0  0  0  0
  149.2570  133.4557  154.5115 C   0  0  0  0  0  0  0  0  0  0  0  0
  150.5930  134.5505  155.0676 S   0  0  0  0  0  0  0  0  0  0  0  0
  149.8266  136.1831  154.8585 C   0  0  0  0  0  0  0  0  0  0  0  0
  150.8545  137.3082  154.9161 C   0  0  0  0  0  0  0  0  0  0  0  0
  152.0476  137.0671  154.7354 O   0  0  0  0  0  0  0  0  0  0  0  0
  150.3739  138.5332  155.1781 N   0  0  0  0  0  0  0  0  0  0  0  0
  151.1702  139.7489  155.3405 C   0  0  2  0  0  0  0  0  0  0  0  0
  152.2611  139.5471  156.4150 C   0  0  0  0  0  0  0  0  0  0  0  0
  151.6653  139.4210  157.8280 C   0  0  0  0  0  0  0  0  0  0  0  0
  150.7762  140.6273  158.1655 C   0  0  0  0  0  0  0  0  0  0  0  0
  149.6777  140.8280  157.1090 C   0  0  0  0  0  0  0  0  0  0  0  0
  150.2702  140.9600  155.6898 C   0  0  2  0  0  0  0  0  0  0  0  0
  149.1740  141.2111  154.6399 C   0  0  0  0  0  0  0  0  0  0  0  0
  148.3655  134.1572  153.6992 N   0  0  0  0  0  0  0  0  0  0  0  0
  147.2713  133.6072  153.1277 C   0  0  0  0  0  0  0  0  0  0  0  0
  146.5255  134.2881  152.4257 O   0  0  0  0  0  0  0  0  0  0  0  0
  147.0675  132.1784  153.4192 C   0  0  0  0  0  0  0  0  0  0  0  0
  145.8645  131.4882  152.7822 C   0  0  0  0  0  0  0  0  0  0  0  0
  145.8756  131.5979  151.2506 C   0  0  0  0  0  0  0  0  0  0  0  0
  146.6173  130.5309  150.7010 O   0  0  0  0  0  0  0  0  0  0  0  0
  146.8494  129.8467  154.9799 H   0  0  0  0  0  0  0  0  0  0  0  0
  148.5733  129.7791  155.3352 H   0  0  0  0  0  0  0  0  0  0  0  0
  148.0050  129.4407  153.7004 H   0  0  0  0  0  0  0  0  0  0  0  0
  149.0862  136.3408  155.6435 H   0  0  0  0  0  0  0  0  0  0  0  0
  149.2978  136.2119  153.9049 H   0  0  0  0  0  0  0  0  0  0  0  0
  149.3768  138.6286  155.3065 H   0  0  0  0  0  0  0  0  0  0  0  0
  151.6623  139.9623  154.3898 H   0  0  0  0  0  0  0  0  0  0  0  0
  152.8662  138.6689  156.1864 H   0  0  0  0  0  0  0  0  0  0  0  0
  152.9453  140.3960  156.3921 H   0  0  0  0  0  0  0  0  0  0  0  0
  151.0816  138.5026  157.9030 H   0  0  0  0  0  0  0  0  0  0  0  0
  152.4671  139.3351  158.5617 H   0  0  0  0  0  0  0  0  0  0  0  0
  150.3255  140.4931  159.1492 H   0  0  0  0  0  0  0  0  0  0  0  0
  151.3904  141.5267  158.2281 H   0  0  0  0  0  0  0  0  0  0  0  0
  148.9795  139.9907  157.1461 H   0  0  0  0  0  0  0  0  0  0  0  0
  149.0986  141.7189  157.3544 H   0  0  0  0  0  0  0  0  0  0  0  0
  150.9105  141.8436  155.6893 H   0  0  0  0  0  0  0  0  0  0  0  0
  148.4446  140.4009  154.6128 H   0  0  0  0  0  0  0  0  0  0  0  0
  149.6024  141.3075  153.6421 H   0  0  0  0  0  0  0  0  0  0  0  0
  148.6326  142.1327  154.8548 H   0  0  0  0  0  0  0  0  0  0  0  0
  148.5410  135.1362  153.5253 H   0  0  0  0  0  0  0  0  0  0  0  0
  144.9381  131.9103  153.1712 H   0  0  0  0  0  0  0  0  0  0  0  0
  145.8476  130.4396  153.0829 H   0  0  0  0  0  0  0  0  0  0  0  0
  144.8602  131.5659  150.8545 H   0  0  0  0  0  0  0  0  0  0  0  0
  146.3220  132.5402  150.9313 H   0  0  0  0  0  0  0  0  0  0  0  0
  147.5375  130.7261  150.7915 H   0  0  0  0  0  0  0  0  0  0  0  0
  1 24  1  0  0  0  0
  1 25  1  0  0  0  0
  1 26  1  0  0  0  0
  1  2  1  0  0  0  0
  2 20  2  0  0  0  0
  2  3  1  0  0  0  0
  3  4  2  0  0  0  0
  4  5  1  0  0  0  0
  4 17  1  0  0  0  0
  5  6  1  0  0  0  0
  6  7  1  0  0  0  0
  6 27  1  0  0  0  0
  6 28  1  0  0  0  0
  7  8  2  0  0  0  0
  7  9  1  0  0  0  0
  9 10  1  0  0  0  0
  9 29  1  0  0  0  0
 10 15  1  0  0  0  0
 10 11  1  0  0  0  0
 10 30  1  0  0  0  0
 11 12  1  0  0  0  0
 11 31  1  0  0  0  0
 11 32  1  0  0  0  0
 12 13  1  0  0  0  0
 12 33  1  0  0  0  0
 12 34  1  0  0  0  0
 13 14  1  0  0  0  0
 13 35  1  0  0  0  0
 13 36  1  0  0  0  0
 14 15  1  0  0  0  0
 14 37  1  0  0  0  0
 14 38  1  0  0  0  0
 15 16  1  0  0  0  0
 15 39  1  0  0  0  0
 16 40  1  0  0  0  0
 16 41  1  0  0  0  0
 16 42  1  0  0  0  0
 17 43  1  0  0  0  0
 17 18  1  0  0  0  0
 18 19  2  0  0  0  0
 18 20  1  0  0  0  0
 20 21  1  0  0  0  0
 21 22  1  0  0  0  0
 21 44  1  0  0  0  0
 21 45  1  0  0  0  0
 22 23  1  0  0  0  0
 22 46  1  0  0  0  0
 22 47  1  0  0  0  0
 23 48  1  0  0  0  0
M  END
> <s_m_source_file>
AV-unprocessed.smi

> <i_m_source_file_index>
438

> <i_lp_mmshare_version>
43012

> <i_f3d_flags>
0

> <s_epik_input>
W09IXVtDSDJdW0NIMl1jMWMoW09IXSluYyhuYzFbQ0gzXSlTW0NIMl1DKD1PKVtOSF1bQ0BASF0yW0NIMl1bQ0gyXVtDSDJdW0NIMl1bQ0BIXTJbQ0gzXQ==

> <s_epik_cmdline>
J2VwaWtfcHl0aG9uJywgJy1waCcsICc3LjAnLCAnLXRuJywgJzgnLCAnLW1hJywgJzIwMCcsICctbWV0YWxfYmluZGluZycsICctaW1hZScsICc8aW5maWxlLm1hZT4nLCAnLW9tYWUnLCAnPG91dGZpbGUubWFlPic=

> <r_lp_tautomer_probability>
0.660323

> <r_epik_Ionization_Penalty>
0.00860626

> <r_epik_Ionization_Penalty_Charging>
0.00860522

> <r_epik_Ionization_Penalty_Neutral>
1.04215e-06

> <r_epik_State_Penalty>
0.156825

> <r_epik_Charging_Adjusted_Penalty>
0.16543

> <i_epik_Tot_Q>
0

> <i_epik_Tot_abs_Q>
0

> <r_epik_Metal_State_Penalty>
0.752038

> <b_epik_Metal_Only>
0

> <s_lp_Force_Field>
OPLS_2005

> <r_lp_Energy>
12.4019

> <b_lp_Chiralities_Consistent>
1

> <s_lp_Variant>
AV-unprocessed.smi:438-3

> <Gold.Version>
5.8.1

> <Gold.Id.Protein>
6NUR|6NUR_protein|mol2

> <Gold.PLP.Fitness>
40.5624

> <Gold.PLP.PLP>
-34.1316

> <Gold.PLP.part.hbond>
-2.5943

> <Gold.PLP.part.metal>
0.0000

> <Gold.PLP.part.buried>
-3.4038

> <Gold.PLP.part.nonpolar>
-28.6892

> <Gold.PLP.part.repulsive>
0.4095

> <Gold.PLP.ligand.clash>
0.0000

> <Gold.PLP.ligand.torsion>
0.8106

> <Gold.PLP.Chemscore.Hbond>
2.6720

> <Gold.PLP.Chemscore.CHOScore>
0.0000

> <Gold.PLP.Chemscore.Metal>
0.0000

> <Gold.Chemscore.Hbonds>
donor molecule, donor type, donor heavy atom, donor atom, acceptor molecule, acceptor atom, score
      L1  H    17    43       P1  7948  0.66
      L1  H    23    48       P1 10747  0.99
      P1  H 10752 10765       L1     8  0.96

> <Gold.PLP.Chemscore.Internal.Correction>
0.0360

> <Gold.Rescore>
     Score         DG    S(hbond)    S(metal)    S(lipo)     H(rot)  DE(clash)    DE(int)     intcor
     13.42     -15.93       2.55        0.00      79.24       2.86       0.52       1.99       ----

> <Gold.Chemscore.Fitness>
13.4222

> <Gold.Chemscore.DG>
-15.9312

> <Gold.Chemscore.ZeroCoef>
-5.4800

> <Gold.Chemscore.Hbond>
2.5488

> <Gold.Chemscore.Metal>
0.0000

> <Gold.Chemscore.Lipo>
79.2412

> <Gold.Chemscore.Internal_Hbond>
0.0000

> <Gold.Chemscore.DEClash>
0.5152

> <Gold.Chemscore.DEInternal>
1.9939

> <Gold.Chemscore.Rot>
2.8645

> <Gold.Chemscore.Internal.Correction>
   9.000000E+99

> <Gold.Chemscore.Hbonds>
donor molecule, donor type, donor heavy atom, donor atom, acceptor molecule, acceptor atom, score
      L1  H    17    43       P1  7948  0.55
      L1  H    23    48       P1 10747  0.90
      P1  H 10752 10765       L1     8  0.92

> <Gold.Chemscore.Hbond.Weighted>
-8.5131

> <Gold.Chemscore.Metal.Weighted>
-0.0000

> <Gold.Chemscore.Lipo.Weighted>
-9.2712

> <Gold.Chemscore.Internal_Hbond.Weighted>
0.0000

> <Gold.Chemscore.DEClash.Weighted>
0.5152

> <Gold.Chemscore.DEInternal.Weighted>
1.9939

> <Gold.Chemscore.Rot.Weighted>
7.3331

> <Gold.Chemscore.Internal.Correction.Weighted>
   9.000000E+99

> <Gold.Protein.RotatedTorsions>
[ 6907 6896 6895 6894 ] final   59.70 input  -60.11 | X-H torsion
[ 7974 7965 7964 7962 ] final    5.65 input  175.53 | X-H torsion
[ 8008 7997 7996 7995 ] final   51.93 input   59.86 | X-H torsion
[ 10167 10162 10161 10158 ] final  173.25 input  -65.29 | X-H torsion
[ 10718 10713 10712 10709 ] final   -4.44 input   66.30 | X-H torsion
[ 10763 10752 10751 10750 ] final  170.70 input  -60.55 | X-H torsion
[ 11005 11000 10999 10996 ] final   20.31 input  -57.11 | X-H torsion

> <Gold.Protein.ActiveResidues>
 VAL166  LYS551  ARG553  GLY616  TRP617  ASP618  TYR619  PRO620  LYS621  CYS622 
 ASP623  PHE694  ASN695  SER759  ASP760  ASP761  ALA762  ILE779  LEU786  VAL792 
 PHE793  MET794  SER795  GLU796  ALA797  LYS798  CYS799  TRP800  GLU811  SER814 

> <Gold.Protein.RotatedAtoms>
  152.3938  134.6399  160.0096 H   0  0  0  0  0  0  0  0  0  0  0  0  # atno 6907 bound_to 6896
  151.6624  133.3311  159.3185 H   0  0  0  0  0  0  0  0  0  0  0  0  # atno 6908 bound_to 6896
  150.7849  134.6869  159.6520 H   0  0  0  0  0  0  0  0  0  0  0  0  # atno 6909 bound_to 6896
  146.2439  140.0351  142.8386 H   0  0  0  0  0  0  0  0  0  0  0  0  # atno 7974 bound_to 7965
  155.4435  140.3455  155.4292 H   0  0  0  0  0  0  0  0  0  0  0  0  # atno 8008 bound_to 7997
  156.1264  140.1502  156.9159 H   0  0  0  0  0  0  0  0  0  0  0  0  # atno 8009 bound_to 7997
  154.4861  140.0855  156.7470 H   0  0  0  0  0  0  0  0  0  0  0  0  # atno 8010 bound_to 7997
  139.5102  144.3282  152.0137 H   0  0  0  0  0  0  0  0  0  0  0  0  # atno 10167 bound_to 10162
  156.7613  130.5270  149.5784 H   0  0  0  0  0  0  0  0  0  0  0  0  # atno 10718 bound_to 10713
  154.4014  135.2755  155.2094 H   0  0  0  0  0  0  0  0  0  0  0  0  # atno 10763 bound_to 10752
  154.4118  135.6020  153.5961 H   0  0  0  0  0  0  0  0  0  0  0  0  # atno 10764 bound_to 10752
  152.9831  135.5951  154.4282 H   0  0  0  0  0  0  0  0  0  0  0  0  # atno 10765 bound_to 10752
  140.4040  134.1688  155.7664 H   0  0  0  0  0  0  0  0  0  0  0  0  # atno 11005 bound_to 11000
  145.1119  140.9410  143.4651 LP  0  0  0  0  0  0  0  0  0  0  0  0  # atno 17320 bound_to 7965
  145.0567  139.3138  143.5901 LP  0  0  0  0  0  0  0  0  0  0  0  0  # atno 17321 bound_to 7965
  140.2723  144.3951  150.6147 LP  0  0  0  0  0  0  0  0  0  0  0  0  # atno 17342 bound_to 10162
  140.6079  143.2168  151.6943 LP  0  0  0  0  0  0  0  0  0  0  0  0  # atno 17343 bound_to 10162
  156.1337  130.6196  151.0370 LP  0  0  0  0  0  0  0  0  0  0  0  0  # atno 17370 bound_to 10713
  157.6733  131.0856  150.7557 LP  0  0  0  0  0  0  0  0  0  0  0  0  # atno 17371 bound_to 10713
  141.1846  133.8340  157.1134 LP  0  0  0  0  0  0  0  0  0  0  0  0  # atno 17394 bound_to 11000
  140.0316  134.9898  157.0790 LP  0  0  0  0  0  0  0  0  0  0  0  0  # atno 17395 bound_to 11000

$$$$
