AV-unprocessed.smi:618|AV-procd|sdf|3083|dock1
  -GOLD-   22720 0 03D 1   1.00000     0.00000
 Structure written by MMmdl.
 40 42  0  0  0  0  0  0  0  0  1 V2000
  153.4789  139.8750  158.3478 O   0  0  0  0  0  0  0  0  0  0  0  0
  152.4535  140.0061  157.6804 C   0  0  0  0  0  0  0  0  0  0  0  0
  151.9561  139.0473  156.8867 N   0  0  0  0  0  0  0  0  0  0  0  0
  152.5185  137.7112  156.7201 C   0  0  0  0  0  0  0  0  0  0  0  0
  151.6275  136.8359  155.8134 C   0  0  1  0  0  0  0  0  0  0  0  0
  150.1370  136.8640  156.2287 C   0  0  0  0  0  0  0  0  0  0  0  0
  149.5135  138.1103  155.8257 N   0  0  0  0  0  0  0  0  0  0  0  0
  148.0948  138.2351  156.0678 C   0  0  0  0  0  0  0  0  0  0  0  0
  147.6617  139.4220  155.1899 C   0  0  0  0  0  0  0  0  0  0  0  0
  148.7795  139.5456  154.1314 C   0  0  0  0  0  0  0  0  0  0  0  0
  149.6480  138.3173  154.4099 C   0  0  1  0  0  0  0  0  0  0  0  0
  151.1270  138.3955  154.0127 C   0  0  0  0  0  0  0  0  0  0  0  0
  151.7712  137.1859  154.4268 O   0  0  0  0  0  0  0  0  0  0  0  0
  151.6759  141.1019  157.6595 N   0  0  0  0  0  0  0  0  0  0  0  0
  151.8479  142.3215  158.3683 C   0  0  0  0  0  0  0  0  0  0  0  0
  152.6047  142.4525  159.5581 C   0  0  0  0  0  0  0  0  0  0  0  0
  152.7128  143.7218  160.1580 C   0  0  0  0  0  0  0  0  0  0  0  0
  152.0688  144.8135  159.5438 C   0  0  0  0  0  0  0  0  0  0  0  0
  151.3563  144.7058  158.4025 N   0  0  0  0  0  0  0  0  0  0  0  0
  151.2569  143.4857  157.8333 C   0  0  0  0  0  0  0  0  0  0  0  0
  151.1079  139.2470  156.3773 H   0  0  0  0  0  0  0  0  0  0  0  0
  153.4991  137.8287  156.2583 H   0  0  0  0  0  0  0  0  0  0  0  0
  152.6992  137.2335  157.6841 H   0  0  0  0  0  0  0  0  0  0  0  0
  151.9754  135.8071  155.9126 H   0  0  0  0  0  0  0  0  0  0  0  0
  149.6186  136.0283  155.7560 H   0  0  0  0  0  0  0  0  0  0  0  0
  150.0371  136.7234  157.3054 H   0  0  0  0  0  0  0  0  0  0  0  0
  147.5769  137.3295  155.7479 H   0  0  0  0  0  0  0  0  0  0  0  0
  147.8791  138.3933  157.1249 H   0  0  0  0  0  0  0  0  0  0  0  0
  146.6869  139.2404  154.7362 H   0  0  0  0  0  0  0  0  0  0  0  0
  147.5932  140.3380  155.7777 H   0  0  0  0  0  0  0  0  0  0  0  0
  148.3954  139.5552  153.1110 H   0  0  0  0  0  0  0  0  0  0  0  0
  149.3464  140.4640  154.2901 H   0  0  0  0  0  0  0  0  0  0  0  0
  149.2013  137.4700  153.8854 H   0  0  0  0  0  0  0  0  0  0  0  0
  151.2303  138.5033  152.9330 H   0  0  0  0  0  0  0  0  0  0  0  0
  151.6076  139.2613  154.4680 H   0  0  0  0  0  0  0  0  0  0  0  0
  150.8231  141.0296  157.1239 H   0  0  0  0  0  0  0  0  0  0  0  0
  153.1124  141.6160  160.0124 H   0  0  0  0  0  0  0  0  0  0  0  0
  153.2808  143.8564  161.0667 H   0  0  0  0  0  0  0  0  0  0  0  0
  152.1328  145.8004  159.9774 H   0  0  0  0  0  0  0  0  0  0  0  0
  150.6808  143.4377  156.9204 H   0  0  0  0  0  0  0  0  0  0  0  0
  1  2  2  0  0  0  0
  2  3  1  0  0  0  0
  2 14  1  0  0  0  0
  3  4  1  0  0  0  0
  3 21  1  0  0  0  0
  4  5  1  0  0  0  0
  4 22  1  0  0  0  0
  4 23  1  0  0  0  0
  5 13  1  0  0  0  0
  5  6  1  0  0  0  0
  5 24  1  0  0  0  0
  6  7  1  0  0  0  0
  6 25  1  0  0  0  0
  6 26  1  0  0  0  0
  7 11  1  0  0  0  0
  7  8  1  0  0  0  0
  8  9  1  0  0  0  0
  8 27  1  0  0  0  0
  8 28  1  0  0  0  0
  9 10  1  0  0  0  0
  9 29  1  0  0  0  0
  9 30  1  0  0  0  0
 10 11  1  0  0  0  0
 10 31  1  0  0  0  0
 10 32  1  0  0  0  0
 11 12  1  0  0  0  0
 11 33  1  0  0  0  0
 12 13  1  0  0  0  0
 12 34  1  0  0  0  0
 12 35  1  0  0  0  0
 14 15  1  0  0  0  0
 14 36  1  0  0  0  0
 15 20  1  0  0  0  0
 15 16  2  0  0  0  0
 16 17  1  0  0  0  0
 16 37  1  0  0  0  0
 17 18  2  0  0  0  0
 17 38  1  0  0  0  0
 18 19  1  0  0  0  0
 18 39  1  0  0  0  0
 19 20  2  0  0  0  0
 20 40  1  0  0  0  0
M  END
> <s_m_source_file>
AV-unprocessed.smi

> <i_m_source_file_index>
618

> <i_lp_mmshare_version>
43012

> <i_f3d_flags>
0

> <s_epik_input>
W2NIXTFuW2NIXVtjSF1bY0hdYzFbTkhdQyg9TylbTkhdW0NIMl1bQ0BIXShbQ0gyXTIpT1tDSDJdW0NAQEhdKE4yMylbQ0gyXVtDSDJdW0NIMl0z

> <s_epik_cmdline>
J2VwaWtfcHl0aG9uJywgJy1waCcsICc3LjAnLCAnLXRuJywgJzgnLCAnLW1hJywgJzIwMCcsICctbWV0YWxfYmluZGluZycsICctaW1hZScsICc8aW5maWxlLm1hZT4nLCAnLW9tYWUnLCAnPG91dGZpbGUubWFlPic=

> <r_epik_Ionization_Penalty>
1.07277

> <r_epik_Ionization_Penalty_Charging>
0

> <r_epik_Ionization_Penalty_Neutral>
1.07277

> <r_epik_State_Penalty>
1.13623

> <r_epik_Charging_Adjusted_Penalty>
1.13623

> <i_epik_Tot_Q>
0

> <i_epik_Tot_abs_Q>
0

> <r_epik_Metal_State_Penalty>
1.13277

> <b_epik_Metal_Only>
0

> <s_lp_Force_Field>
OPLS_2005

> <r_lp_Energy>
52.4756

> <b_lp_Chiralities_Consistent>
1

> <s_lp_Variant>
AV-unprocessed.smi:618-10

> <Gold.Version>
5.8.1

> <Gold.Id.Protein>
6NUR|6NUR_protein|mol2

> <Gold.PLP.Fitness>
38.3620

> <Gold.PLP.PLP>
-29.7949

> <Gold.PLP.part.hbond>
-2.0000

> <Gold.PLP.part.metal>
0.0000

> <Gold.PLP.part.buried>
-4.0373

> <Gold.PLP.part.nonpolar>
-23.8191

> <Gold.PLP.part.repulsive>
0.4471

> <Gold.PLP.ligand.clash>
0.0000

> <Gold.PLP.ligand.torsion>
0.2207

> <Gold.PLP.Chemscore.Hbond>
2.0000

> <Gold.PLP.Chemscore.CHOScore>
1.0000

> <Gold.PLP.Chemscore.Metal>
0.0000

> <Gold.Chemscore.Hbonds>
donor molecule, donor type, donor heavy atom, donor atom, acceptor molecule, acceptor atom, score
      P1  H  7997  8010       L1     1  1.00
      P1  H 10752 10763       L1    13  0.45
      L1  C    20    40       P1  8028  1.00

> <Gold.PLP.Chemscore.Internal.Correction>
0.0084

> <Gold.Rescore>
     Score         DG    S(hbond)    S(metal)    S(lipo)     H(rot)  DE(clash)    DE(int)     intcor
     15.59     -18.50       1.67        0.00      90.81       1.25       0.05       2.86       ----

> <Gold.Chemscore.Fitness>
15.5901

> <Gold.Chemscore.DG>
-18.4976

> <Gold.Chemscore.ZeroCoef>
-5.4800

> <Gold.Chemscore.Hbond>
1.6717

> <Gold.Chemscore.Metal>
0.0000

> <Gold.Chemscore.Lipo>
90.8052

> <Gold.Chemscore.Internal_Hbond>
0.0000

> <Gold.Chemscore.DEClash>
0.0500

> <Gold.Chemscore.DEInternal>
2.8575

> <Gold.Chemscore.Rot>
1.2461

> <Gold.Chemscore.Internal.Correction>
   9.000000E+99

> <Gold.Chemscore.Hbonds>
donor molecule, donor type, donor heavy atom, donor atom, acceptor molecule, acceptor atom, score
      P1  H  7997  8010       L1     1  0.52
      P1  H 10752 10763       L1    13  0.02

> <Gold.Chemscore.Hbond.Weighted>
-5.5835

> <Gold.Chemscore.Metal.Weighted>
-0.0000

> <Gold.Chemscore.Lipo.Weighted>
-10.6242

> <Gold.Chemscore.Internal_Hbond.Weighted>
0.0000

> <Gold.Chemscore.DEClash.Weighted>
0.0500

> <Gold.Chemscore.DEInternal.Weighted>
2.8575

> <Gold.Chemscore.Rot.Weighted>
3.1901

> <Gold.Chemscore.Internal.Correction.Weighted>
   9.000000E+99

> <Gold.Protein.RotatedTorsions>
[ 6907 6896 6895 6894 ] final -175.01 input  -60.11 | X-H torsion
[ 7974 7965 7964 7962 ] final  -17.27 input  175.53 | X-H torsion
[ 8008 7997 7996 7995 ] final   16.40 input   59.86 | X-H torsion
[ 10167 10162 10161 10158 ] final -113.18 input  -65.29 | X-H torsion
[ 10718 10713 10712 10709 ] final -178.00 input   66.30 | X-H torsion
[ 10763 10752 10751 10750 ] final   36.61 input  -60.55 | X-H torsion
[ 11005 11000 10999 10996 ] final  -51.34 input  -57.11 | X-H torsion

> <Gold.Protein.ActiveResidues>
 VAL166  LYS551  ARG553  GLY616  TRP617  ASP618  TYR619  PRO620  LYS621  CYS622 
 ASP623  PHE694  ASN695  SER759  ASP760  ASP761  ALA762  ILE779  LEU786  VAL792 
 PHE793  MET794  SER795  GLU796  ALA797  LYS798  CYS799  TRP800  GLU811  SER814 

> <Gold.Protein.RotatedAtoms>
  151.5816  133.3377  159.3009 H   0  0  0  0  0  0  0  0  0  0  0  0  # atno 6907 bound_to 6896
  150.8310  134.7566  159.6865 H   0  0  0  0  0  0  0  0  0  0  0  0  # atno 6908 bound_to 6896
  152.4393  134.5629  159.9951 H   0  0  0  0  0  0  0  0  0  0  0  0  # atno 6909 bound_to 6896
  146.1949  140.3756  142.8444 H   0  0  0  0  0  0  0  0  0  0  0  0  # atno 7974 bound_to 7965
  154.8764  140.2966  155.5451 H   0  0  0  0  0  0  0  0  0  0  0  0  # atno 8008 bound_to 7997
  156.3022  140.2450  156.3694 H   0  0  0  0  0  0  0  0  0  0  0  0  # atno 8009 bound_to 7997
  154.8763  140.0399  157.1744 H   0  0  0  0  0  0  0  0  0  0  0  0  # atno 8010 bound_to 7997
  140.1147  143.4496  152.1730 H   0  0  0  0  0  0  0  0  0  0  0  0  # atno 10167 bound_to 10162
  156.8378  130.9676  151.3102 H   0  0  0  0  0  0  0  0  0  0  0  0  # atno 10718 bound_to 10713
  153.0070  135.6301  154.2013 H   0  0  0  0  0  0  0  0  0  0  0  0  # atno 10763 bound_to 10752
  154.1756  135.2816  155.3069 H   0  0  0  0  0  0  0  0  0  0  0  0  # atno 10764 bound_to 10752
  154.5874  135.5628  153.7305 H   0  0  0  0  0  0  0  0  0  0  0  0  # atno 10765 bound_to 10752
  141.0866  133.6641  156.3863 H   0  0  0  0  0  0  0  0  0  0  0  0  # atno 11005 bound_to 11000
  144.8559  140.7070  143.6138 LP  0  0  0  0  0  0  0  0  0  0  0  0  # atno 17320 bound_to 7965
  145.3676  139.1666  143.4349 LP  0  0  0  0  0  0  0  0  0  0  0  0  # atno 17321 bound_to 7965
  139.5600  144.7399  151.4181 LP  0  0  0  0  0  0  0  0  0  0  0  0  # atno 17342 bound_to 10162
  140.6906  143.7871  150.7250 LP  0  0  0  0  0  0  0  0  0  0  0  0  # atno 17343 bound_to 10162
  157.6372  130.8776  149.9380 LP  0  0  0  0  0  0  0  0  0  0  0  0  # atno 17370 bound_to 10713
  156.0897  130.3664  150.0418 LP  0  0  0  0  0  0  0  0  0  0  0  0  # atno 17371 bound_to 10713
  140.5350  134.6176  157.5362 LP  0  0  0  0  0  0  0  0  0  0  0  0  # atno 17394 bound_to 11000
  139.9685  134.7333  156.0090 LP  0  0  0  0  0  0  0  0  0  0  0  0  # atno 17395 bound_to 11000

$$$$
