AV-unprocessed.smi:278|AV-procd|sdf|2094|dock9
  -GOLD-   2262021373D 1   1.00000     0.00000
 Structure written by MMmdl.
 50 54  0  0  0  0  0  0  0  0  1 V2000
  144.6959  136.8596  162.6049 O   0  0  0  0  0  0  0  0  0  0  0  0
  146.0853  136.7016  162.1490 S   0  0  0  0  0  0  0  0  0  0  0  0
  147.0697  137.7757  162.3528 O   0  0  0  0  0  0  0  0  0  0  0  0
  146.7604  135.1355  162.8268 C   0  0  0  0  0  0  0  0  0  0  0  0
  146.7337  134.1209  161.6761 C   0  0  0  0  0  0  0  0  0  0  0  0
  146.8752  134.8698  160.3383 C   0  0  2  0  0  0  0  0  0  0  0  0
  148.2982  135.3570  160.0442 C   0  0  0  0  0  0  0  0  0  0  0  0
  148.1298  136.5524  159.2302 N   0  0  0  0  0  0  0  0  0  0  0  0
  149.1915  137.3278  158.8864 C   0  0  0  0  0  0  0  0  0  0  0  0
  150.4460  136.8582  159.1207 N   0  0  0  0  0  0  0  0  0  0  0  0
  151.5174  137.5867  158.7952 C   0  0  0  0  0  0  0  0  0  0  0  0
  151.5646  138.7924  158.2272 N   0  0  0  0  0  0  0  0  0  0  0  0
  150.3116  139.2673  157.9763 C   0  0  0  0  0  0  0  0  0  0  0  0
  149.0819  138.6094  158.2689 C   0  0  0  0  0  0  0  0  0  0  0  0
  148.0190  139.4056  157.8534 N   0  0  0  0  0  0  0  0  0  0  0  0
  148.5856  140.4694  157.3538 C   0  0  0  0  0  0  0  0  0  0  0  0
  149.9605  140.4674  157.3854 N   0  0  0  0  0  0  0  0  0  0  0  0
  150.8454  141.5088  156.8951 C   0  0  0  0  0  0  0  0  0  0  0  0
  150.9382  142.7024  157.8657 C   0  0  1  0  0  0  0  0  0  0  0  0
  149.7105  143.4055  157.9152 O   0  0  0  0  0  0  0  0  0  0  0  0
  151.3726  142.2901  159.2863 C   0  0  1  0  0  0  0  0  0  0  0  0
  152.7636  141.6418  159.3989 C   0  0  0  0  0  0  0  0  0  0  0  0
  153.5070  142.5492  160.3628 C   0  0  0  0  0  0  0  0  0  0  0  0
  152.3768  143.2028  161.1468 C   0  0  0  0  0  0  0  0  0  0  0  0
  151.3844  143.4181  160.1572 O   0  0  0  0  0  0  0  0  0  0  0  0
  146.8150  137.1387  159.4539 C   0  0  0  0  0  0  0  0  0  0  0  0
  146.0703  136.1698  160.3840 C   0  0  2  0  0  0  0  0  0  0  0  0
  146.5345  134.2503  159.5075 H   0  0  0  0  0  0  0  0  0  0  0  0
  145.0324  136.0217  160.0850 H   0  0  0  0  0  0  0  0  0  0  0  0
  147.7833  135.3247  163.1530 H   0  0  0  0  0  0  0  0  0  0  0  0
  146.1762  134.8155  163.6895 H   0  0  0  0  0  0  0  0  0  0  0  0
  147.4980  133.3525  161.7969 H   0  0  0  0  0  0  0  0  0  0  0  0
  145.7698  133.6108  161.6855 H   0  0  0  0  0  0  0  0  0  0  0  0
  148.8233  135.6197  160.9635 H   0  0  0  0  0  0  0  0  0  0  0  0
  148.8811  134.5966  159.5236 H   0  0  0  0  0  0  0  0  0  0  0  0
  152.4738  137.1383  159.0206 H   0  0  0  0  0  0  0  0  0  0  0  0
  148.0129  141.2868  156.9405 H   0  0  0  0  0  0  0  0  0  0  0  0
  151.8309  141.0745  156.7221 H   0  0  0  0  0  0  0  0  0  0  0  0
  150.4755  141.8403  155.9241 H   0  0  0  0  0  0  0  0  0  0  0  0
  151.6805  143.4027  157.4805 H   0  0  0  0  0  0  0  0  0  0  0  0
  149.7235  144.0728  157.2461 H   0  0  0  0  0  0  0  0  0  0  0  0
  150.6373  141.5895  159.6857 H   0  0  0  0  0  0  0  0  0  0  0  0
  152.6720  140.6391  159.8182 H   0  0  0  0  0  0  0  0  0  0  0  0
  153.2835  141.5504  158.4447 H   0  0  0  0  0  0  0  0  0  0  0  0
  154.2132  142.0134  160.9974 H   0  0  0  0  0  0  0  0  0  0  0  0
  154.0569  143.3092  159.8063 H   0  0  0  0  0  0  0  0  0  0  0  0
  151.9909  142.5281  161.9126 H   0  0  0  0  0  0  0  0  0  0  0  0
  152.6777  144.1349  161.6254 H   0  0  0  0  0  0  0  0  0  0  0  0
  146.8721  138.1443  159.8710 H   0  0  0  0  0  0  0  0  0  0  0  0
  146.3009  137.2055  158.4947 H   0  0  0  0  0  0  0  0  0  0  0  0
  1  2  2  0  0  0  0
  2 27  1  0  0  0  0
  2  3  2  0  0  0  0
  2  4  1  0  0  0  0
  4  5  1  0  0  0  0
  4 30  1  0  0  0  0
  4 31  1  0  0  0  0
  5  6  1  0  0  0  0
  5 32  1  0  0  0  0
  5 33  1  0  0  0  0
  6 28  1  0  0  0  0
  6 27  1  0  0  0  0
  6  7  1  0  0  0  0
  7  8  1  0  0  0  0
  7 34  1  0  0  0  0
  7 35  1  0  0  0  0
  8  9  1  0  0  0  0
  8 26  1  0  0  0  0
  9 14  1  0  0  0  0
  9 10  2  0  0  0  0
 10 11  1  0  0  0  0
 11 12  2  0  0  0  0
 11 36  1  0  0  0  0
 12 13  1  0  0  0  0
 13 17  1  0  0  0  0
 13 14  2  0  0  0  0
 14 15  1  0  0  0  0
 15 16  2  0  0  0  0
 16 17  1  0  0  0  0
 16 37  1  0  0  0  0
 17 18  1  0  0  0  0
 18 19  1  0  0  0  0
 18 38  1  0  0  0  0
 18 39  1  0  0  0  0
 19 20  1  0  0  0  0
 19 21  1  0  0  0  0
 19 40  1  0  0  0  0
 20 41  1  0  0  0  0
 21 25  1  0  0  0  0
 21 22  1  0  0  0  0
 21 42  1  0  0  0  0
 22 23  1  0  0  0  0
 22 43  1  0  0  0  0
 22 44  1  0  0  0  0
 23 24  1  0  0  0  0
 23 45  1  0  0  0  0
 23 46  1  0  0  0  0
 24 25  1  0  0  0  0
 24 47  1  0  0  0  0
 24 48  1  0  0  0  0
 26 27  1  0  0  0  0
 26 49  1  0  0  0  0
 26 50  1  0  0  0  0
 27 29  1  0  0  0  0
M  END
> <s_m_source_file>
AV-unprocessed.smi

> <i_m_source_file_index>
278

> <i_lp_mmshare_version>
43012

> <i_f3d_flags>
0

> <s_epik_input>
W0NIMl0xW0NIMl1TKD1PKSg9TylbQ0BASF0oW0NAQEhdMTIpW0NIMl1OKFtDSDJdMiljKG5bY0hdbjMpYyhjMzQpbltjSF1uNFtDSDJdW0NASF0oW09IXSlbQ0BASF01W0NIMl1bQ0gyXVtDSDJdTzU=

> <s_epik_cmdline>
J2VwaWtfcHl0aG9uJywgJy1waCcsICc3LjAnLCAnLXRuJywgJzgnLCAnLW1hJywgJzIwMCcsICctbWV0YWxfYmluZGluZycsICctaW1hZScsICc8aW5maWxlLm1hZT4nLCAnLW9tYWUnLCAnPG91dGZpbGUubWFlPic=

> <r_lp_tautomer_probability>
1

> <r_epik_Ionization_Penalty>
0.000636766

> <r_epik_Ionization_Penalty_Charging>
0

> <r_epik_Ionization_Penalty_Neutral>
0.000636766

> <r_epik_State_Penalty>
0.000329976

> <r_epik_Charging_Adjusted_Penalty>
0.000329976

> <i_epik_Tot_Q>
0

> <i_epik_Tot_abs_Q>
0

> <r_epik_Metal_State_Penalty>
-0

> <b_epik_Metal_Only>
0

> <s_lp_Force_Field>
OPLS_2005

> <r_lp_Energy>
51.0774

> <b_lp_Chiralities_Consistent>
1

> <s_lp_Variant>
AV-unprocessed.smi:278-8

> <Gold.Version>
5.8.1

> <Gold.Id.Protein>
6NUR|6NUR_protein|mol2

> <Gold.PLP.Fitness>
51.7140

> <Gold.PLP.PLP>
-42.9563

> <Gold.PLP.part.hbond>
-4.7031

> <Gold.PLP.part.metal>
0.0000

> <Gold.PLP.part.buried>
-5.8069

> <Gold.PLP.part.nonpolar>
-32.6348

> <Gold.PLP.part.repulsive>
0.0760

> <Gold.PLP.ligand.clash>
0.0000

> <Gold.PLP.ligand.torsion>
0.4212

> <Gold.PLP.Chemscore.Hbond>
3.1150

> <Gold.PLP.Chemscore.CHOScore>
0.0000

> <Gold.PLP.Chemscore.Metal>
0.0000

> <Gold.Chemscore.Hbonds>
donor molecule, donor type, donor heavy atom, donor atom, acceptor molecule, acceptor atom, score
      L1  H    20    41       P1  8028  0.93
      P1  H  6896  6909       L1    10  0.89
      P1  H  6931  6943       L1     3  0.48
      P1  H  6934  6947       L1     3  0.48

> <Gold.PLP.Chemscore.Internal.Correction>
0.2552

> <Gold.Rescore>
     Score         DG    S(hbond)    S(metal)    S(lipo)     H(rot)  DE(clash)    DE(int)     intcor
     19.00     -20.67       3.04        0.00      89.70       2.13       0.36       1.31       ----

> <Gold.Chemscore.Fitness>
19.0003

> <Gold.Chemscore.DG>
-20.6691

> <Gold.Chemscore.ZeroCoef>
-5.4800

> <Gold.Chemscore.Hbond>
3.0417

> <Gold.Chemscore.Metal>
0.0000

> <Gold.Chemscore.Lipo>
89.6966

> <Gold.Chemscore.Internal_Hbond>
0.0000

> <Gold.Chemscore.DEClash>
0.3564

> <Gold.Chemscore.DEInternal>
1.3124

> <Gold.Chemscore.Rot>
2.1346

> <Gold.Chemscore.Internal.Correction>
   9.000000E+99

> <Gold.Chemscore.Hbonds>
donor molecule, donor type, donor heavy atom, donor atom, acceptor molecule, acceptor atom, score
      L1  H    20    41       P1  8028  0.49
      P1  H  6896  6909       L1    10  0.75
      P1  H  6931  6943       L1     3  0.44
      P1  H  6934  6947       L1     3  0.44

> <Gold.Chemscore.Hbond.Weighted>
-10.1592

> <Gold.Chemscore.Metal.Weighted>
-0.0000

> <Gold.Chemscore.Lipo.Weighted>
-10.4945

> <Gold.Chemscore.Internal_Hbond.Weighted>
0.0000

> <Gold.Chemscore.DEClash.Weighted>
0.3564

> <Gold.Chemscore.DEInternal.Weighted>
1.3124

> <Gold.Chemscore.Rot.Weighted>
5.4646

> <Gold.Chemscore.Internal.Correction.Weighted>
   9.000000E+99

> <Gold.Protein.RotatedTorsions>
[ 6907 6896 6895 6894 ] final   74.91 input  -60.11 | X-H torsion
[ 7974 7965 7964 7962 ] final  -45.64 input  175.53 | X-H torsion
[ 8008 7997 7996 7995 ] final  -72.27 input   59.86 | X-H torsion
[ 10167 10162 10161 10158 ] final   98.84 input  -65.29 | X-H torsion
[ 10718 10713 10712 10709 ] final  116.14 input   66.30 | X-H torsion
[ 10763 10752 10751 10750 ] final   97.71 input  -60.55 | X-H torsion
[ 11005 11000 10999 10996 ] final   87.08 input  -57.11 | X-H torsion

> <Gold.Protein.ActiveResidues>
 VAL166  LYS551  ARG553  GLY616  TRP617  ASP618  TYR619  PRO620  LYS621  CYS622 
 ASP623  PHE694  ASN695  SER759  ASP760  ASP761  ALA762  ILE779  LEU786  VAL792 
 PHE793  MET794  SER795  GLU796  ALA797  LYS798  CYS799  TRP800  GLU811  SER814 

> <Gold.Protein.RotatedAtoms>
  152.5000  134.4200  159.9477 H   0  0  0  0  0  0  0  0  0  0  0  0  # atno 6907 bound_to 6896
  151.4172  133.3703  159.2759 H   0  0  0  0  0  0  0  0  0  0  0  0  # atno 6908 bound_to 6896
  150.9249  134.8688  159.7572 H   0  0  0  0  0  0  0  0  0  0  0  0  # atno 6909 bound_to 6896
  145.9800  140.7294  142.9368 H   0  0  0  0  0  0  0  0  0  0  0  0  # atno 7974 bound_to 7965
  154.5153  140.0800  156.8069 H   0  0  0  0  0  0  0  0  0  0  0  0  # atno 8008 bound_to 7997
  155.3694  140.3422  155.4224 H   0  0  0  0  0  0  0  0  0  0  0  0  # atno 8009 bound_to 7997
  156.1620  140.1592  156.8582 H   0  0  0  0  0  0  0  0  0  0  0  0  # atno 8010 bound_to 7997
  139.7671  144.6935  151.0208 H   0  0  0  0  0  0  0  0  0  0  0  0  # atno 10167 bound_to 10162
  157.6179  131.1021  150.7430 H   0  0  0  0  0  0  0  0  0  0  0  0  # atno 10718 bound_to 10713
  153.2803  135.4173  155.1072 H   0  0  0  0  0  0  0  0  0  0  0  0  # atno 10763 bound_to 10752
  154.8487  135.3493  154.6122 H   0  0  0  0  0  0  0  0  0  0  0  0  # atno 10764 bound_to 10752
  153.6542  135.7051  153.5256 H   0  0  0  0  0  0  0  0  0  0  0  0  # atno 10765 bound_to 10752
  139.8928  134.8398  156.2809 H   0  0  0  0  0  0  0  0  0  0  0  0  # atno 11005 bound_to 11000
  144.6859  140.2892  143.7280 LP  0  0  0  0  0  0  0  0  0  0  0  0  # atno 17320 bound_to 7965
  145.7783  139.1882  143.2172 LP  0  0  0  0  0  0  0  0  0  0  0  0  # atno 17321 bound_to 7965
  140.7811  143.4630  151.0251 LP  0  0  0  0  0  0  0  0  0  0  0  0  # atno 17342 bound_to 10162
  139.8315  143.7685  152.3180 LP  0  0  0  0  0  0  0  0  0  0  0  0  # atno 17343 bound_to 10162
  156.7793  130.4854  149.5404 LP  0  0  0  0  0  0  0  0  0  0  0  0  # atno 17370 bound_to 10713
  156.1310  130.6178  151.0333 LP  0  0  0  0  0  0  0  0  0  0  0  0  # atno 17371 bound_to 10713
  141.0039  133.7135  156.1004 LP  0  0  0  0  0  0  0  0  0  0  0  0  # atno 17394 bound_to 11000
  140.7460  134.4097  157.5548 LP  0  0  0  0  0  0  0  0  0  0  0  0  # atno 17395 bound_to 11000

$$$$
