AV-unprocessed.smi:2837|AV-procd|sdf|10924|dock2
  -GOLD-   2272015373D 1   1.00000     0.00000
 Structure written by MMmdl.
 33 35  0  0  0  0  0  0  0  0  2 V2000
  153.7237  141.6765  161.6321 F   0  0  0  0  0  0  0  0  0  0  0  0
  152.7688  142.6247  161.7864 C   0  0  0  0  0  0  0  0  0  0  0  0
  153.0237  143.2751  162.9484 F   0  0  0  0  0  0  0  0  0  0  0  0
  152.8089  143.4906  160.7389 O   0  0  0  0  0  0  0  0  0  0  0  0
  152.1088  143.1971  159.5905 C   0  0  0  0  0  0  0  0  0  0  0  0
  152.3074  141.9357  158.9912 C   0  0  0  0  0  0  0  0  0  0  0  0
  151.6211  141.6038  157.8050 C   0  0  0  0  0  0  0  0  0  0  0  0
  150.7426  142.5482  157.2232 C   0  0  0  0  0  0  0  0  0  0  0  0
  150.0104  142.3329  156.0474 N   0  0  0  0  0  0  0  0  0  0  0  0
  150.1044  141.0770  155.3136 C   0  0  2  0  0  0  0  0  0  0  0  0
  149.0787  140.9625  154.1775 C   0  0  0  0  0  0  0  0  0  0  0  0
  148.3483  139.6631  154.5384 C   0  0  1  0  0  0  0  0  0  0  0  0
  149.2399  138.4262  154.3642 C   0  0  0  0  0  0  0  0  0  0  0  0
  150.1909  138.5567  155.5535 C   0  0  0  0  0  0  0  0  0  0  0  0
  149.7223  139.8721  156.1903 C   0  0  2  0  0  0  0  0  0  0  0  0
  148.3276  139.7772  155.9498 O   0  0  0  0  0  0  0  0  0  0  0  0
  150.5853  143.7488  157.8226 N   0  3  0  0  0  0  0  0  0  0  0  0
  151.2240  144.1042  158.9587 C   0  0  0  0  0  0  0  0  0  0  0  0
  151.8053  142.1190  161.8547 H   0  0  0  0  0  0  0  0  0  0  0  0
  152.9835  141.2235  159.4409 H   0  0  0  0  0  0  0  0  0  0  0  0
  151.7813  140.6331  157.3606 H   0  0  0  0  0  0  0  0  0  0  0  0
  149.5007  143.0970  155.6269 H   0  0  0  0  0  0  0  0  0  0  0  0
  151.1251  140.9538  154.9494 H   0  0  0  0  0  0  0  0  0  0  0  0
  148.3772  141.7983  154.1805 H   0  0  0  0  0  0  0  0  0  0  0  0
  149.5447  140.9167  153.1926 H   0  0  0  0  0  0  0  0  0  0  0  0
  147.3629  139.5678  154.0812 H   0  0  0  0  0  0  0  0  0  0  0  0
  148.6545  137.5093  154.4424 H   0  0  0  0  0  0  0  0  0  0  0  0
  149.7579  138.4209  153.4046 H   0  0  0  0  0  0  0  0  0  0  0  0
  150.0533  137.7238  156.2440 H   0  0  0  0  0  0  0  0  0  0  0  0
  151.2402  138.5842  155.2579 H   0  0  0  0  0  0  0  0  0  0  0  0
  149.9974  139.9693  157.2412 H   0  0  0  0  0  0  0  0  0  0  0  0
  151.0084  145.1013  159.3146 H   0  0  0  0  0  0  0  0  0  0  0  0
  149.9540  144.4262  157.3938 H   0  0  0  0  0  0  0  0  0  0  0  0
  1  2  1  0  0  0  0
  2  3  1  0  0  0  0
  2  4  1  0  0  0  0
  2 19  1  0  0  0  0
  4  5  1  0  0  0  0
  5 18  1  0  0  0  0
  5  6  2  0  0  0  0
  6  7  1  0  0  0  0
  6 20  1  0  0  0  0
  7  8  2  0  0  0  0
  7 21  1  0  0  0  0
  8  9  1  0  0  0  0
  8 17  1  0  0  0  0
  9 10  1  0  0  0  0
  9 22  1  0  0  0  0
 10 15  1  0  0  0  0
 10 11  1  0  0  0  0
 10 23  1  0  0  0  0
 11 12  1  0  0  0  0
 11 24  1  0  0  0  0
 11 25  1  0  0  0  0
 12 16  1  0  0  0  0
 12 13  1  0  0  0  0
 12 26  1  0  0  0  0
 13 14  1  0  0  0  0
 13 27  1  0  0  0  0
 13 28  1  0  0  0  0
 14 15  1  0  0  0  0
 14 29  1  0  0  0  0
 14 30  1  0  0  0  0
 15 16  1  0  0  0  0
 15 31  1  0  0  0  0
 17 18  2  0  0  0  0
 17 33  1  0  0  0  0
 18 32  1  0  0  0  0
M  CHG  1  17   1
M  END
> <s_m_source_file>
AV-unprocessed.smi

> <i_m_source_file_index>
2837

> <i_lp_mmshare_version>
43012

> <i_f3d_flags>
0

> <s_epik_input>
RltDSF0oRilPYzFbY0hdW2NIXWMobltjSF0xKVtOSF1bQ0BIXShbQ0gyXVtDQEBIXTIzKVtDQEBIXShPMylbQ0gyXVtDSDJdMg==

> <s_epik_cmdline>
J2VwaWtfcHl0aG9uJywgJy1waCcsICc3LjAnLCAnLXRuJywgJzgnLCAnLW1hJywgJzIwMCcsICctbWV0YWxfYmluZGluZycsICctaW1hZScsICc8aW5maWxlLm1hZT4nLCAnLW9tYWUnLCAnPG91dGZpbGUubWFlPic=

> <r_lp_tautomer_probability>
0.999429

> <r_epik_Ionization_Penalty>
2.29716

> <r_epik_Ionization_Penalty_Charging>
2.29716

> <r_epik_Ionization_Penalty_Neutral>
1.42285e-06

> <r_epik_State_Penalty>
2.44762

> <r_epik_Charging_Adjusted_Penalty>
4.74478

> <i_epik_Tot_Q>
1

> <i_epik_Tot_abs_Q>
1

> <r_epik_Metal_State_Penalty>
6.53078

> <b_epik_Metal_Only>
0

> <s_lp_Force_Field>
OPLS_2005

> <r_lp_Energy>
46.2914

> <b_lp_Chiralities_Consistent>
1

> <s_lp_Variant>
AV-unprocessed.smi:2837-5

> <Gold.Version>
5.8.1

> <Gold.Id.Protein>
6NUR|6NUR_protein|mol2

> <Gold.PLP.Fitness>
47.8750

> <Gold.PLP.PLP>
-37.5559

> <Gold.PLP.part.hbond>
-2.0000

> <Gold.PLP.part.metal>
0.0000

> <Gold.PLP.part.buried>
-3.2023

> <Gold.PLP.part.nonpolar>
-33.0228

> <Gold.PLP.part.repulsive>
0.1826

> <Gold.PLP.ligand.clash>
0.0000

> <Gold.PLP.ligand.torsion>
0.4006

> <Gold.PLP.Chemscore.Hbond>
3.6960

> <Gold.PLP.Chemscore.CHOScore>
0.0000

> <Gold.PLP.Chemscore.Metal>
0.0000

> <Gold.Chemscore.Hbonds>
donor molecule, donor type, donor heavy atom, donor atom, acceptor molecule, acceptor atom, score
      L1  H     9    22       P1  8028  2.00
      L1  H    17    33       P1  8028  1.66

> <Gold.PLP.Chemscore.Internal.Correction>
0.0324

> <Gold.Rescore>
     Score         DG    S(hbond)    S(metal)    S(lipo)     H(rot)  DE(clash)    DE(int)     intcor
     16.32     -16.87       1.48        0.00      84.47       1.34       0.11       0.44       ----

> <Gold.Chemscore.Fitness>
16.3229

> <Gold.Chemscore.DG>
-16.8747

> <Gold.Chemscore.ZeroCoef>
-5.4800

> <Gold.Chemscore.Hbond>
1.4774

> <Gold.Chemscore.Metal>
0.0000

> <Gold.Chemscore.Lipo>
84.4660

> <Gold.Chemscore.Internal_Hbond>
0.0000

> <Gold.Chemscore.DEClash>
0.1088

> <Gold.Chemscore.DEInternal>
0.4430

> <Gold.Chemscore.Rot>
1.3368

> <Gold.Chemscore.Internal.Correction>
   9.000000E+99

> <Gold.Chemscore.Hbonds>
donor molecule, donor type, donor heavy atom, donor atom, acceptor molecule, acceptor atom, score
      L1  H     9    22       P1  8028  0.96
      L1  H    17    33       P1  8028  0.23

> <Gold.Chemscore.Hbond.Weighted>
-4.9345

> <Gold.Chemscore.Metal.Weighted>
-0.0000

> <Gold.Chemscore.Lipo.Weighted>
-9.8825

> <Gold.Chemscore.Internal_Hbond.Weighted>
0.0000

> <Gold.Chemscore.DEClash.Weighted>
0.1088

> <Gold.Chemscore.DEInternal.Weighted>
0.4430

> <Gold.Chemscore.Rot.Weighted>
3.4223

> <Gold.Chemscore.Internal.Correction.Weighted>
   9.000000E+99

> <Gold.Protein.RotatedTorsions>
[ 6907 6896 6895 6894 ] final   16.57 input  -60.11 | X-H torsion
[ 7974 7965 7964 7962 ] final -127.13 input  175.53 | X-H torsion
[ 8008 7997 7996 7995 ] final   96.76 input   59.86 | X-H torsion
[ 10167 10162 10161 10158 ] final   56.85 input  -65.29 | X-H torsion
[ 10718 10713 10712 10709 ] final   50.80 input   66.30 | X-H torsion
[ 10763 10752 10751 10750 ] final   86.88 input  -60.55 | X-H torsion
[ 11005 11000 10999 10996 ] final   70.71 input  -57.11 | X-H torsion

> <Gold.Protein.ActiveResidues>
 VAL166  LYS551  ARG553  GLY616  TRP617  ASP618  TYR619  PRO620  LYS621  CYS622 
 ASP623  PHE694  ASN695  SER759  ASP760  ASP761  ALA762  ILE779  LEU786  VAL792 
 PHE793  MET794  SER795  GLU796  ALA797  LYS798  CYS799  TRP800  GLU811  SER814 

> <Gold.Protein.RotatedAtoms>
  151.8360  135.0606  160.0442 H   0  0  0  0  0  0  0  0  0  0  0  0  # atno 6907 bound_to 6896
  152.2845  133.5497  159.5527 H   0  0  0  0  0  0  0  0  0  0  0  0  # atno 6908 bound_to 6896
  150.7203  134.0433  159.3815 H   0  0  0  0  0  0  0  0  0  0  0  0  # atno 6909 bound_to 6896
  144.9802  140.7633  143.4616 H   0  0  0  0  0  0  0  0  0  0  0  0  # atno 7974 bound_to 7965
  156.0830  140.3268  155.7718 H   0  0  0  0  0  0  0  0  0  0  0  0  # atno 8008 bound_to 7997
  155.5122  140.0578  157.2939 H   0  0  0  0  0  0  0  0  0  0  0  0  # atno 8009 bound_to 7997
  154.4593  140.1958  156.0307 H   0  0  0  0  0  0  0  0  0  0  0  0  # atno 8010 bound_to 7997
  140.2043  144.3956  150.6516 H   0  0  0  0  0  0  0  0  0  0  0  0  # atno 10167 bound_to 10162
  157.4920  130.8382  149.8214 H   0  0  0  0  0  0  0  0  0  0  0  0  # atno 10718 bound_to 10713
  153.1614  135.4564  154.9776 H   0  0  0  0  0  0  0  0  0  0  0  0  # atno 10763 bound_to 10752
  154.7900  135.3217  154.7802 H   0  0  0  0  0  0  0  0  0  0  0  0  # atno 10764 bound_to 10752
  153.8291  135.6940  153.4871 H   0  0  0  0  0  0  0  0  0  0  0  0  # atno 10765 bound_to 10752
  139.9583  134.7106  156.0704 H   0  0  0  0  0  0  0  0  0  0  0  0  # atno 11005 bound_to 11000
  145.2431  139.2064  143.4982 LP  0  0  0  0  0  0  0  0  0  0  0  0  # atno 17320 bound_to 7965
  146.3406  140.2330  142.8594 LP  0  0  0  0  0  0  0  0  0  0  0  0  # atno 17321 bound_to 7965
  140.6369  143.2196  151.6376 LP  0  0  0  0  0  0  0  0  0  0  0  0  # atno 17342 bound_to 10162
  139.5205  144.3222  152.0901 LP  0  0  0  0  0  0  0  0  0  0  0  0  # atno 17343 bound_to 10162
  156.0179  130.3806  150.2054 LP  0  0  0  0  0  0  0  0  0  0  0  0  # atno 17370 bound_to 10713
  157.0242  130.9988  151.3331 LP  0  0  0  0  0  0  0  0  0  0  0  0  # atno 17371 bound_to 10713
  141.1257  133.6600  156.3330 LP  0  0  0  0  0  0  0  0  0  0  0  0  # atno 17394 bound_to 11000
  140.5559  134.5982  157.5420 LP  0  0  0  0  0  0  0  0  0  0  0  0  # atno 17395 bound_to 11000

$$$$
