AV-unprocessed.smi:2030|AV-procd|sdf|8224|dock6
  -GOLD-   2272010493D 1   1.00000     0.00000
 Structure written by MMmdl.
 35 36  0  0  0  0  0  0  0  0  1 V2000
  155.5159  145.2424  164.6135 C   0  0  0  0  0  0  0  0  0  0  0  0
  155.6899  143.8240  164.9201 N   0  0  0  0  0  0  0  0  0  0  0  0
  155.3853  142.9667  163.8830 N   0  0  0  0  0  0  0  0  0  0  0  0
  155.6998  141.7095  163.9147 C   0  0  0  0  0  0  0  0  0  0  0  0
  155.3667  140.8323  162.7621 C   0  0  0  0  0  0  0  0  0  0  0  0
  155.6304  139.6298  162.7797 O   0  0  0  0  0  0  0  0  0  0  0  0
  154.7808  141.4393  161.7148 N   0  0  0  0  0  0  0  0  0  0  0  0
  154.4512  140.7995  160.4454 C   0  0  0  0  0  0  0  0  0  0  0  0
  152.9822  141.0279  160.0377 C   0  0  0  0  0  0  0  0  0  0  0  0
  152.6279  142.4945  159.8558 C   0  0  0  0  0  0  0  0  0  0  0  0
  152.5393  143.0601  158.5654 C   0  0  0  0  0  0  0  0  0  0  0  0
  152.2312  144.4292  158.4520 C   0  0  0  0  0  0  0  0  0  0  0  0
  152.0217  145.1763  159.6272 C   0  0  0  0  0  0  0  0  0  0  0  0
  152.1309  144.5179  160.8684 C   0  0  0  0  0  0  0  0  0  0  0  0
  152.4286  143.2059  160.9882 N   0  0  0  0  0  0  0  0  0  0  0  0
  156.4344  141.1278  165.1055 C   0  0  0  0  0  0  0  0  0  0  0  0
  156.1572  141.9189  166.3996 C   0  0  0  0  0  0  0  0  0  0  0  0
  156.0917  143.4293  166.1541 C   0  0  0  0  0  0  0  0  0  0  0  0
  156.3721  144.2090  167.0643 O   0  0  0  0  0  0  0  0  0  0  0  0
  156.4533  145.7831  164.7489 H   0  0  0  0  0  0  0  0  0  0  0  0
  154.7664  145.6875  165.2691 H   0  0  0  0  0  0  0  0  0  0  0  0
  155.1899  145.4023  163.5843 H   0  0  0  0  0  0  0  0  0  0  0  0
  154.5961  142.4298  161.7869 H   0  0  0  0  0  0  0  0  0  0  0  0
  155.1248  141.1412  159.6582 H   0  0  0  0  0  0  0  0  0  0  0  0
  154.6325  139.7310  160.5636 H   0  0  0  0  0  0  0  0  0  0  0  0
  152.7723  140.4962  159.1087 H   0  0  0  0  0  0  0  0  0  0  0  0
  152.3211  140.5918  160.7878 H   0  0  0  0  0  0  0  0  0  0  0  0
  152.7125  142.4612  157.6830 H   0  0  0  0  0  0  0  0  0  0  0  0
  152.1588  144.8977  157.4816 H   0  0  0  0  0  0  0  0  0  0  0  0
  151.7833  146.2284  159.5791 H   0  0  0  0  0  0  0  0  0  0  0  0
  151.9764  145.0599  161.7896 H   0  0  0  0  0  0  0  0  0  0  0  0
  156.1428  140.0889  165.2651 H   0  0  0  0  0  0  0  0  0  0  0  0
  157.5048  141.1183  164.8974 H   0  0  0  0  0  0  0  0  0  0  0  0
  155.1972  141.6139  166.8180 H   0  0  0  0  0  0  0  0  0  0  0  0
  156.9136  141.6927  167.1520 H   0  0  0  0  0  0  0  0  0  0  0  0
  1  2  1  0  0  0  0
  1 20  1  0  0  0  0
  1 21  1  0  0  0  0
  1 22  1  0  0  0  0
  2 18  1  0  0  0  0
  2  3  1  0  0  0  0
  3  4  2  0  0  0  0
  4  5  1  0  0  0  0
  4 16  1  0  0  0  0
  5  6  2  0  0  0  0
  5  7  1  0  0  0  0
  7  8  1  0  0  0  0
  7 23  1  0  0  0  0
  8  9  1  0  0  0  0
  8 24  1  0  0  0  0
  8 25  1  0  0  0  0
  9 10  1  0  0  0  0
  9 26  1  0  0  0  0
  9 27  1  0  0  0  0
 10 15  1  0  0  0  0
 10 11  2  0  0  0  0
 11 12  1  0  0  0  0
 11 28  1  0  0  0  0
 12 13  2  0  0  0  0
 12 29  1  0  0  0  0
 13 14  1  0  0  0  0
 13 30  1  0  0  0  0
 14 15  2  0  0  0  0
 14 31  1  0  0  0  0
 16 17  1  0  0  0  0
 16 32  1  0  0  0  0
 16 33  1  0  0  0  0
 17 18  1  0  0  0  0
 17 34  1  0  0  0  0
 17 35  1  0  0  0  0
 18 19  2  0  0  0  0
M  END
> <s_m_source_file>
AV-unprocessed.smi

> <i_m_source_file_index>
2030

> <i_lp_mmshare_version>
43012

> <i_f3d_flags>
0

> <s_epik_input>
Tz1DMVtDSDJdW0NIMl1DKD1OTjFbQ0gzXSlDKD1PKVtOSF1bQ0gyXVtDSDJdYzJbY0hdW2NIXVtjSF1bY0hdbjI=

> <s_epik_cmdline>
J2VwaWtfcHl0aG9uJywgJy1waCcsICc3LjAnLCAnLXRuJywgJzgnLCAnLW1hJywgJzIwMCcsICctbWV0YWxfYmluZGluZycsICctaW1hZScsICc8aW5maWxlLm1hZT4nLCAnLW9tYWUnLCAnPG91dGZpbGUubWFlPic=

> <r_epik_Ionization_Penalty>
0.0175455

> <r_epik_Ionization_Penalty_Charging>
0

> <r_epik_Ionization_Penalty_Neutral>
0.0175455

> <r_epik_State_Penalty>
0.0138544

> <r_epik_Charging_Adjusted_Penalty>
0.0138544

> <i_epik_Tot_Q>
0

> <i_epik_Tot_abs_Q>
0

> <r_epik_Metal_State_Penalty>
0.0690211

> <b_epik_Metal_Only>
0

> <s_epik_Chemistry_Notes>
This compound has an imine and may undergo hydrolysis.

> <s_lp_Force_Field>
OPLS_2005

> <r_lp_Energy>
15.1803

> <b_lp_Chiralities_Consistent>
1

> <s_lp_Variant>
AV-unprocessed.smi:2030-1

> <Gold.Version>
5.8.1

> <Gold.Id.Protein>
6NUR|6NUR_protein|mol2

> <Gold.PLP.Fitness>
47.4521

> <Gold.PLP.PLP>
-48.0093

> <Gold.PLP.part.hbond>
-2.0000

> <Gold.PLP.part.metal>
0.0000

> <Gold.PLP.part.buried>
-3.6139

> <Gold.PLP.part.nonpolar>
-42.0814

> <Gold.PLP.part.repulsive>
0.1328

> <Gold.PLP.ligand.clash>
0.0000

> <Gold.PLP.ligand.torsion>
0.2815

> <Gold.PLP.Chemscore.Hbond>
0.0000

> <Gold.PLP.Chemscore.CHOScore>
0.0000

> <Gold.PLP.Chemscore.Metal>
0.0000

> <Gold.PLP.Chemscore.Internal.Correction>
0.0059

> <Gold.Rescore>
     Score         DG    S(hbond)    S(metal)    S(lipo)     H(rot)  DE(clash)    DE(int)     intcor
     14.10     -15.23       0.00        0.00     114.98       1.45       0.15       0.98       ----

> <Gold.Chemscore.Fitness>
14.0993

> <Gold.Chemscore.DG>
-15.2260

> <Gold.Chemscore.ZeroCoef>
-5.4800

> <Gold.Chemscore.Hbond>
0.0000

> <Gold.Chemscore.Metal>
0.0000

> <Gold.Chemscore.Lipo>
114.9823

> <Gold.Chemscore.Internal_Hbond>
0.0000

> <Gold.Chemscore.DEClash>
0.1451

> <Gold.Chemscore.DEInternal>
0.9816

> <Gold.Chemscore.Rot>
1.4480

> <Gold.Chemscore.Internal.Correction>
   9.000000E+99

> <Gold.Chemscore.Hbond.Weighted>
-0.0000

> <Gold.Chemscore.Metal.Weighted>
-0.0000

> <Gold.Chemscore.Lipo.Weighted>
-13.4529

> <Gold.Chemscore.Internal_Hbond.Weighted>
0.0000

> <Gold.Chemscore.DEClash.Weighted>
0.1451

> <Gold.Chemscore.DEInternal.Weighted>
0.9816

> <Gold.Chemscore.Rot.Weighted>
3.7070

> <Gold.Chemscore.Internal.Correction.Weighted>
   9.000000E+99

> <Gold.Protein.RotatedTorsions>
[ 6907 6896 6895 6894 ] final   -0.93 input  -60.11 | X-H torsion
[ 7974 7965 7964 7962 ] final  141.86 input  175.53 | X-H torsion
[ 8008 7997 7996 7995 ] final  134.87 input   59.86 | X-H torsion
[ 10167 10162 10161 10158 ] final -140.42 input  -65.29 | X-H torsion
[ 10718 10713 10712 10709 ] final   49.80 input   66.30 | X-H torsion
[ 10763 10752 10751 10750 ] final  -69.18 input  -60.55 | X-H torsion
[ 11005 11000 10999 10996 ] final  -97.48 input  -57.11 | X-H torsion

> <Gold.Protein.ActiveResidues>
 VAL166  LYS551  ARG553  GLY616  TRP617  ASP618  TYR619  PRO620  LYS621  CYS622 
 ASP623  PHE694  ASN695  SER759  ASP760  ASP761  ALA762  ILE779  LEU786  VAL792 
 PHE793  MET794  SER795  GLU796  ALA797  LYS798  CYS799  TRP800  GLU811  SER814 

> <Gold.Protein.RotatedAtoms>
  151.5543  135.1067  159.9956 H   0  0  0  0  0  0  0  0  0  0  0  0  # atno 6907 bound_to 6896
  152.4477  133.7563  159.6733 H   0  0  0  0  0  0  0  0  0  0  0  0  # atno 6908 bound_to 6896
  150.8396  133.7889  159.3090 H   0  0  0  0  0  0  0  0  0  0  0  0  # atno 6909 bound_to 6896
  144.9059  139.5359  143.5731 H   0  0  0  0  0  0  0  0  0  0  0  0  # atno 7974 bound_to 7965
  156.3001  140.2485  156.3488 H   0  0  0  0  0  0  0  0  0  0  0  0  # atno 8008 bound_to 7997
  154.8985  140.0407  157.1899 H   0  0  0  0  0  0  0  0  0  0  0  0  # atno 8009 bound_to 7997
  154.8524  140.2908  155.5594 H   0  0  0  0  0  0  0  0  0  0  0  0  # atno 8010 bound_to 7997
  139.8283  143.7480  152.2666 H   0  0  0  0  0  0  0  0  0  0  0  0  # atno 10167 bound_to 10162
  157.4822  130.8322  149.8106 H   0  0  0  0  0  0  0  0  0  0  0  0  # atno 10718 bound_to 10713
  154.3998  135.6033  153.5890 H   0  0  0  0  0  0  0  0  0  0  0  0  # atno 10763 bound_to 10752
  152.9788  135.5903  154.4198 H   0  0  0  0  0  0  0  0  0  0  0  0  # atno 10764 bound_to 10752
  154.3995  135.2843  155.2084 H   0  0  0  0  0  0  0  0  0  0  0  0  # atno 10765 bound_to 10752
  141.1377  133.8174  157.0711 H   0  0  0  0  0  0  0  0  0  0  0  0  # atno 11005 bound_to 11000
  146.3133  139.7827  142.9003 LP  0  0  0  0  0  0  0  0  0  0  0  0  # atno 17320 bound_to 7965
  145.3537  141.0312  143.3324 LP  0  0  0  0  0  0  0  0  0  0  0  0  # atno 17321 bound_to 7965
  139.7680  144.7485  151.0266 LP  0  0  0  0  0  0  0  0  0  0  0  0  # atno 17342 bound_to 10162
  140.7808  143.4676  151.0190 LP  0  0  0  0  0  0  0  0  0  0  0  0  # atno 17343 bound_to 10162
  156.0128  130.3826  150.2209 LP  0  0  0  0  0  0  0  0  0  0  0  0  # atno 17370 bound_to 10713
  157.0396  131.0031  151.3287 LP  0  0  0  0  0  0  0  0  0  0  0  0  # atno 17371 bound_to 10713
  140.0510  134.9805  157.1137 LP  0  0  0  0  0  0  0  0  0  0  0  0  # atno 17394 bound_to 11000
  140.3989  134.2103  155.7164 LP  0  0  0  0  0  0  0  0  0  0  0  0  # atno 17395 bound_to 11000

$$$$
