AV-unprocessed.smi:2952|AV-procd|sdf|11292|dock3
  -GOLD-   2272016183D 1   1.00000     0.00000
 Structure written by MMmdl.
 39 41  0  0  0  0  0  0  0  0  2 V2000
  153.4562  138.6630  156.5593 O   0  0  0  0  0  0  0  0  0  0  0  0
  152.1590  139.2211  156.5851 C   0  0  0  0  0  0  0  0  0  0  0  0
  151.8403  139.8233  157.9631 C   0  0  0  0  0  0  0  0  0  0  0  0
  151.5148  141.2578  157.8975 N   0  0  0  0  0  0  0  0  0  0  0  0
  150.9051  141.9761  156.9101 C   0  0  0  0  0  0  0  0  0  0  0  0
  150.3926  141.4568  155.6033 C   0  0  0  0  0  0  0  0  0  0  0  0
  148.9715  141.7153  155.3861 N   0  0  0  0  0  0  0  0  0  0  0  0
  148.1288  141.1536  156.4392 C   0  0  0  0  0  0  0  0  0  0  0  0
  146.6369  141.4298  156.1837 C   0  0  0  0  0  0  0  0  0  0  0  0
  146.2684  140.9190  154.9065 O   0  0  0  0  0  0  0  0  0  0  0  0
  147.0387  141.4776  153.8469 C   0  0  0  0  0  0  0  0  0  0  0  0
  148.5316  141.2004  154.0946 C   0  0  0  0  0  0  0  0  0  0  0  0
  150.8422  143.2704  157.3319 N   0  3  0  0  0  0  0  0  0  0  0  0
  151.4110  143.3820  158.6009 C   0  0  0  0  0  0  0  0  0  0  0  0
  151.5738  144.4866  159.4310 C   0  0  0  0  0  0  0  0  0  0  0  0
  152.1932  144.2561  160.6766 C   0  0  0  0  0  0  0  0  0  0  0  0
  152.6242  142.9682  161.0572 C   0  0  0  0  0  0  0  0  0  0  0  0
  153.3722  142.7458  162.5955 Cl  0  0  0  0  0  0  0  0  0  0  0  0
  152.4544  141.8572  160.2048 C   0  0  0  0  0  0  0  0  0  0  0  0
  151.8429  142.0925  158.9733 C   0  0  0  0  0  0  0  0  0  0  0  0
  153.3784  137.7215  156.5942 H   0  0  0  0  0  0  0  0  0  0  0  0
  152.0916  139.9907  155.8160 H   0  0  0  0  0  0  0  0  0  0  0  0
  151.4347  138.4477  156.3282 H   0  0  0  0  0  0  0  0  0  0  0  0
  151.0249  139.2863  158.4473 H   0  0  0  0  0  0  0  0  0  0  0  0
  152.7019  139.7107  158.6209 H   0  0  0  0  0  0  0  0  0  0  0  0
  150.9750  141.9279  154.8107 H   0  0  0  0  0  0  0  0  0  0  0  0
  150.5946  140.3867  155.5382 H   0  0  0  0  0  0  0  0  0  0  0  0
  148.2894  140.0765  156.5066 H   0  0  0  0  0  0  0  0  0  0  0  0
  148.4042  141.5723  157.4072 H   0  0  0  0  0  0  0  0  0  0  0  0
  146.0259  140.9516  156.9492 H   0  0  0  0  0  0  0  0  0  0  0  0
  146.4287  142.5000  156.2291 H   0  0  0  0  0  0  0  0  0  0  0  0
  146.7220  141.0347  152.9025 H   0  0  0  0  0  0  0  0  0  0  0  0
  146.8513  142.5502  153.7774 H   0  0  0  0  0  0  0  0  0  0  0  0
  149.1191  141.6536  153.2954 H   0  0  0  0  0  0  0  0  0  0  0  0
  148.7121  140.1255  154.0433 H   0  0  0  0  0  0  0  0  0  0  0  0
  151.2430  145.4742  159.1446 H   0  0  0  0  0  0  0  0  0  0  0  0
  152.3385  145.0845  161.3549 H   0  0  0  0  0  0  0  0  0  0  0  0
  152.7817  140.8741  160.5089 H   0  0  0  0  0  0  0  0  0  0  0  0
  150.4366  144.0212  156.7883 H   0  0  0  0  0  0  0  0  0  0  0  0
  1  2  1  0  0  0  0
  1 21  1  0  0  0  0
  2  3  1  0  0  0  0
  2 22  1  0  0  0  0
  2 23  1  0  0  0  0
  3  4  1  0  0  0  0
  3 24  1  0  0  0  0
  3 25  1  0  0  0  0
  4 20  1  0  0  0  0
  4  5  1  0  0  0  0
  5  6  1  0  0  0  0
  5 13  2  0  0  0  0
  6  7  1  0  0  0  0
  6 26  1  0  0  0  0
  6 27  1  0  0  0  0
  7 12  1  0  0  0  0
  7  8  1  0  0  0  0
  8  9  1  0  0  0  0
  8 28  1  0  0  0  0
  8 29  1  0  0  0  0
  9 10  1  0  0  0  0
  9 30  1  0  0  0  0
  9 31  1  0  0  0  0
 10 11  1  0  0  0  0
 11 12  1  0  0  0  0
 11 32  1  0  0  0  0
 11 33  1  0  0  0  0
 12 34  1  0  0  0  0
 12 35  1  0  0  0  0
 13 14  1  0  0  0  0
 13 39  1  0  0  0  0
 14 20  2  0  0  0  0
 14 15  1  0  0  0  0
 15 16  2  0  0  0  0
 15 36  1  0  0  0  0
 16 17  1  0  0  0  0
 16 37  1  0  0  0  0
 17 18  1  0  0  0  0
 17 19  2  0  0  0  0
 19 20  1  0  0  0  0
 19 38  1  0  0  0  0
M  CHG  1  13   1
M  END
> <s_m_source_file>
AV-unprocessed.smi

> <i_m_source_file_index>
2952

> <i_lp_mmshare_version>
43012

> <i_f3d_flags>
0

> <s_epik_input>
W2NIXTFbY0hdYyhDbClbY0hdYyhjMTIpbihbQ0gyXVtDSDJdW09IXSljKG4yKVtDSDJdTjNbQ0gyXVtDSDJdT1tDSDJdW0NIMl0z

> <s_epik_cmdline>
J2VwaWtfcHl0aG9uJywgJy1waCcsICc3LjAnLCAnLXRuJywgJzgnLCAnLW1hJywgJzIwMCcsICctbWV0YWxfYmluZGluZycsICctaW1hZScsICc8aW5maWxlLm1hZT4nLCAnLW9tYWUnLCAnPG91dGZpbGUubWFlPic=

> <r_epik_Ionization_Penalty>
1.17151

> <r_epik_Ionization_Penalty_Charging>
1.1712

> <r_epik_Ionization_Penalty_Neutral>
0.000312352

> <r_epik_State_Penalty>
1.2343

> <r_epik_Charging_Adjusted_Penalty>
2.4055

> <i_epik_Tot_Q>
1

> <i_epik_Tot_abs_Q>
1

> <r_epik_Metal_State_Penalty>
5.24833

> <b_epik_Metal_Only>
0

> <s_lp_Force_Field>
OPLS_2005

> <r_lp_Energy>
24.7886

> <b_lp_Chiralities_Consistent>
1

> <s_lp_Variant>
AV-unprocessed.smi:2952-2

> <Gold.Version>
5.8.1

> <Gold.Id.Protein>
6NUR|6NUR_protein|mol2

> <Gold.PLP.Fitness>
52.1973

> <Gold.PLP.PLP>
-44.8498

> <Gold.PLP.part.hbond>
-2.0000

> <Gold.PLP.part.metal>
0.0000

> <Gold.PLP.part.buried>
-6.9505

> <Gold.PLP.part.nonpolar>
-35.8840

> <Gold.PLP.part.repulsive>
0.9844

> <Gold.PLP.ligand.clash>
0.0000

> <Gold.PLP.ligand.torsion>
0.7547

> <Gold.PLP.Chemscore.Hbond>
2.9440

> <Gold.PLP.Chemscore.CHOScore>
0.0000

> <Gold.PLP.Chemscore.Metal>
0.0000

> <Gold.Chemscore.Hbonds>
donor molecule, donor type, donor heavy atom, donor atom, acceptor molecule, acceptor atom, score
      L1  H    13    39       P1  8028  2.00
      P1  H  7997  8009       L1     1  0.93

> <Gold.PLP.Chemscore.Internal.Correction>
0.0248

> <Gold.Rescore>
     Score         DG    S(hbond)    S(metal)    S(lipo)     H(rot)  DE(clash)    DE(int)     intcor
     17.65     -19.58       1.91        0.00     113.78       2.18       0.13       1.80       ----

> <Gold.Chemscore.Fitness>
17.6528

> <Gold.Chemscore.DG>
-19.5812

> <Gold.Chemscore.ZeroCoef>
-5.4800

> <Gold.Chemscore.Hbond>
1.9089

> <Gold.Chemscore.Metal>
0.0000

> <Gold.Chemscore.Lipo>
113.7771

> <Gold.Chemscore.Internal_Hbond>
0.0000

> <Gold.Chemscore.DEClash>
0.1276

> <Gold.Chemscore.DEInternal>
1.8008

> <Gold.Chemscore.Rot>
2.1822

> <Gold.Chemscore.Internal.Correction>
   9.000000E+99

> <Gold.Chemscore.Hbonds>
donor molecule, donor type, donor heavy atom, donor atom, acceptor molecule, acceptor atom, score
      L1  H    13    39       P1  8028  0.89
      P1  H  7997  8009       L1     1  0.23

> <Gold.Chemscore.Hbond.Weighted>
-6.3756

> <Gold.Chemscore.Metal.Weighted>
-0.0000

> <Gold.Chemscore.Lipo.Weighted>
-13.3119

> <Gold.Chemscore.Internal_Hbond.Weighted>
0.0000

> <Gold.Chemscore.DEClash.Weighted>
0.1276

> <Gold.Chemscore.DEInternal.Weighted>
1.8008

> <Gold.Chemscore.Rot.Weighted>
5.5863

> <Gold.Chemscore.Internal.Correction.Weighted>
   9.000000E+99

> <Gold.Protein.RotatedTorsions>
[ 6907 6896 6895 6894 ] final -175.03 input  -60.11 | X-H torsion
[ 7974 7965 7964 7962 ] final  179.69 input  175.53 | X-H torsion
[ 8008 7997 7996 7995 ] final -172.14 input   59.86 | X-H torsion
[ 10167 10162 10161 10158 ] final  -52.82 input  -65.29 | X-H torsion
[ 10718 10713 10712 10709 ] final  -39.36 input   66.30 | X-H torsion
[ 10763 10752 10751 10750 ] final   -9.69 input  -60.55 | X-H torsion
[ 11005 11000 10999 10996 ] final  113.27 input  -57.11 | X-H torsion

> <Gold.Protein.ActiveResidues>
 VAL166  LYS551  ARG553  GLY616  TRP617  ASP618  TYR619  PRO620  LYS621  CYS622 
 ASP623  PHE694  ASN695  SER759  ASP760  ASP761  ALA762  ILE779  LEU786  VAL792 
 PHE793  MET794  SER795  GLU796  ALA797  LYS798  CYS799  TRP800  GLU811  SER814 

> <Gold.Protein.RotatedAtoms>
  151.5820  133.3376  159.3010 H   0  0  0  0  0  0  0  0  0  0  0  0  # atno 6907 bound_to 6896
  150.8308  134.7563  159.6863 H   0  0  0  0  0  0  0  0  0  0  0  0  # atno 6908 bound_to 6896
  152.4391  134.5632  159.9952 H   0  0  0  0  0  0  0  0  0  0  0  0  # atno 6909 bound_to 6896
  144.7143  140.0585  143.6433 H   0  0  0  0  0  0  0  0  0  0  0  0  # atno 7974 bound_to 7965
  155.9408  140.1108  157.1057 H   0  0  0  0  0  0  0  0  0  0  0  0  # atno 8008 bound_to 7997
  154.4089  140.1219  156.4990 H   0  0  0  0  0  0  0  0  0  0  0  0  # atno 8009 bound_to 7997
  155.6965  140.3472  155.4917 H   0  0  0  0  0  0  0  0  0  0  0  0  # atno 8010 bound_to 7997
  140.6517  143.2571  151.4703 H   0  0  0  0  0  0  0  0  0  0  0  0  # atno 10167 bound_to 10162
  156.2933  130.4231  149.8216 H   0  0  0  0  0  0  0  0  0  0  0  0  # atno 10718 bound_to 10713
  153.4584  135.7016  153.6065 H   0  0  0  0  0  0  0  0  0  0  0  0  # atno 10763 bound_to 10752
  153.4370  135.3789  155.2205 H   0  0  0  0  0  0  0  0  0  0  0  0  # atno 10764 bound_to 10752
  154.8727  135.3965  154.4006 H   0  0  0  0  0  0  0  0  0  0  0  0  # atno 10765 bound_to 10752
  139.8948  134.9546  156.6713 H   0  0  0  0  0  0  0  0  0  0  0  0  # atno 11005 bound_to 11000
  145.9884  139.2995  143.1000 LP  0  0  0  0  0  0  0  0  0  0  0  0  # atno 17320 bound_to 7965
  145.8931  140.9291  143.0541 LP  0  0  0  0  0  0  0  0  0  0  0  0  # atno 17321 bound_to 7965
  139.5733  144.1877  152.1868 LP  0  0  0  0  0  0  0  0  0  0  0  0  # atno 17342 bound_to 10162
  140.1180  144.5399  150.6881 LP  0  0  0  0  0  0  0  0  0  0  0  0  # atno 17343 bound_to 10162
  156.5621  130.8388  151.3332 LP  0  0  0  0  0  0  0  0  0  0  0  0  # atno 17370 bound_to 10713
  157.7348  130.9752  150.2050 LP  0  0  0  0  0  0  0  0  0  0  0  0  # atno 17371 bound_to 10713
  140.7371  133.9009  155.8251 LP  0  0  0  0  0  0  0  0  0  0  0  0  # atno 17394 bound_to 11000
  141.0107  134.1024  157.4224 LP  0  0  0  0  0  0  0  0  0  0  0  0  # atno 17395 bound_to 11000

$$$$
