AV-unprocessed.smi:2495|AV-procd|sdf|9824|dock9
  -GOLD-   2272013453D 1   1.00000     0.00000
 Structure written by MMmdl.
 33 34  0  0  0  0  0  0  0  0  1 V2000
  146.3782  142.3210  154.7470 C   0  0  0  0  0  0  0  0  0  0  0  0
  147.7953  142.1702  155.0393 N   0  0  0  0  0  0  0  0  0  0  0  0
  148.4614  141.0069  154.9840 C   0  0  0  0  0  0  0  0  0  0  0  0
  147.9191  139.9418  154.6862 O   0  0  0  0  0  0  0  0  0  0  0  0
  149.9558  141.0490  155.3378 C   0  0  1  0  0  0  0  0  0  0  0  0
  150.2056  141.5607  156.7751 C   0  0  0  0  0  0  0  0  0  0  0  0
  151.6231  141.4722  157.1194 N   0  0  0  0  0  0  0  0  0  0  0  0
  152.0120  142.1488  158.2963 C   0  0  0  0  0  0  0  0  0  0  0  0
  151.6594  143.5037  158.5086 C   0  0  0  0  0  0  0  0  0  0  0  0
  152.0910  144.0948  159.7143 C   0  0  0  0  0  0  0  0  0  0  0  0
  151.7683  145.5370  160.0435 C   0  0  0  0  0  0  0  0  0  0  0  0
  152.8066  143.4071  160.6293 N   0  0  0  0  0  0  0  0  0  0  0  0
  153.0920  142.1383  160.3319 C   0  0  0  0  0  0  0  0  0  0  0  0
  152.7397  141.4797  159.2254 N   0  0  0  0  0  0  0  0  0  0  0  0
  152.2045  140.1559  156.8665 C   0  0  0  0  0  0  0  0  0  0  0  0
  151.9044  139.7074  155.4282 C   0  0  0  0  0  0  0  0  0  0  0  0
  150.4996  139.7351  155.2053 O   0  0  0  0  0  0  0  0  0  0  0  0
  146.0672  143.3484  154.9361 H   0  0  0  0  0  0  0  0  0  0  0  0
  145.7769  141.6621  155.3748 H   0  0  0  0  0  0  0  0  0  0  0  0
  146.1731  142.0886  153.7012 H   0  0  0  0  0  0  0  0  0  0  0  0
  148.3087  143.0027  155.2911 H   0  0  0  0  0  0  0  0  0  0  0  0
  150.4426  141.7121  154.6204 H   0  0  0  0  0  0  0  0  0  0  0  0
  149.8445  142.5852  156.8544 H   0  0  0  0  0  0  0  0  0  0  0  0
  149.6359  140.9681  157.4927 H   0  0  0  0  0  0  0  0  0  0  0  0
  151.0989  144.0754  157.7841 H   0  0  0  0  0  0  0  0  0  0  0  0
  151.5906  146.1122  159.1345 H   0  0  0  0  0  0  0  0  0  0  0  0
  152.5907  146.0060  160.5849 H   0  0  0  0  0  0  0  0  0  0  0  0
  150.8733  145.5896  160.6634 H   0  0  0  0  0  0  0  0  0  0  0  0
  153.6678  141.5875  161.0607 H   0  0  0  0  0  0  0  0  0  0  0  0
  153.2846  140.1831  157.0160 H   0  0  0  0  0  0  0  0  0  0  0  0
  151.7936  139.4367  157.5764 H   0  0  0  0  0  0  0  0  0  0  0  0
  152.4125  140.3473  154.7050 H   0  0  0  0  0  0  0  0  0  0  0  0
  152.2694  138.6928  155.2680 H   0  0  0  0  0  0  0  0  0  0  0  0
  1  2  1  0  0  0  0
  1 18  1  0  0  0  0
  1 19  1  0  0  0  0
  1 20  1  0  0  0  0
  2  3  1  0  0  0  0
  2 21  1  0  0  0  0
  3  4  2  0  0  0  0
  3  5  1  0  0  0  0
  5 17  1  0  0  0  0
  5  6  1  0  0  0  0
  5 22  1  0  0  0  0
  6  7  1  0  0  0  0
  6 23  1  0  0  0  0
  6 24  1  0  0  0  0
  7  8  1  0  0  0  0
  7 15  1  0  0  0  0
  8 14  1  0  0  0  0
  8  9  2  0  0  0  0
  9 10  1  0  0  0  0
  9 25  1  0  0  0  0
 10 11  1  0  0  0  0
 10 12  2  0  0  0  0
 11 26  1  0  0  0  0
 11 27  1  0  0  0  0
 11 28  1  0  0  0  0
 12 13  1  0  0  0  0
 13 14  2  0  0  0  0
 13 29  1  0  0  0  0
 15 16  1  0  0  0  0
 15 30  1  0  0  0  0
 15 31  1  0  0  0  0
 16 17  1  0  0  0  0
 16 32  1  0  0  0  0
 16 33  1  0  0  0  0
M  END
> <s_m_source_file>
AV-unprocessed.smi

> <i_m_source_file_index>
2495

> <i_lp_mmshare_version>
43012

> <i_f3d_flags>
0

> <s_epik_input>
W0NIM11bTkhdQyg9TylbQ0BASF0xW0NIMl1OKFtDSDJdW0NIMl1PMSljMltjSF1jKFtDSDNdKW5bY0hdbjI=

> <s_epik_cmdline>
J2VwaWtfcHl0aG9uJywgJy1waCcsICc3LjAnLCAnLXRuJywgJzgnLCAnLW1hJywgJzIwMCcsICctbWV0YWxfYmluZGluZycsICctaW1hZScsICc8aW5maWxlLm1hZT4nLCAnLW9tYWUnLCAnPG91dGZpbGUubWFlPic=

> <r_lp_tautomer_probability>
1

> <r_epik_Ionization_Penalty>
0.000466083

> <r_epik_Ionization_Penalty_Charging>
0

> <r_epik_Ionization_Penalty_Neutral>
0.000466083

> <r_epik_State_Penalty>
0.000259726

> <r_epik_Charging_Adjusted_Penalty>
0.000259726

> <i_epik_Tot_Q>
0

> <i_epik_Tot_abs_Q>
0

> <r_epik_Metal_State_Penalty>
-0

> <b_epik_Metal_Only>
0

> <s_lp_Force_Field>
OPLS_2005

> <r_lp_Energy>
12.0364

> <b_lp_Chiralities_Consistent>
1

> <s_lp_Variant>
AV-unprocessed.smi:2495-2

> <Gold.Version>
5.8.1

> <Gold.Id.Protein>
6NUR|6NUR_protein|mol2

> <Gold.PLP.Fitness>
39.4506

> <Gold.PLP.PLP>
-36.4536

> <Gold.PLP.part.hbond>
-1.0000

> <Gold.PLP.part.metal>
0.0000

> <Gold.PLP.part.buried>
-4.2001

> <Gold.PLP.part.nonpolar>
-31.1732

> <Gold.PLP.part.repulsive>
0.4076

> <Gold.PLP.ligand.clash>
0.0000

> <Gold.PLP.ligand.torsion>
0.1753

> <Gold.PLP.Chemscore.Hbond>
1.0000

> <Gold.PLP.Chemscore.CHOScore>
0.0000

> <Gold.PLP.Chemscore.Metal>
0.0000

> <Gold.Chemscore.Hbonds>
donor molecule, donor type, donor heavy atom, donor atom, acceptor molecule, acceptor atom, score
      L1  H     2    21       P1  8028  1.00

> <Gold.PLP.Chemscore.Internal.Correction>
0.3476

> <Gold.Rescore>
     Score         DG    S(hbond)    S(metal)    S(lipo)     H(rot)  DE(clash)    DE(int)     intcor
     13.16     -13.42       0.99        0.00      69.54       1.37       0.09       0.18       ----

> <Gold.Chemscore.Fitness>
13.1564

> <Gold.Chemscore.DG>
-13.4235

> <Gold.Chemscore.ZeroCoef>
-5.4800

> <Gold.Chemscore.Hbond>
0.9928

> <Gold.Chemscore.Metal>
0.0000

> <Gold.Chemscore.Lipo>
69.5403

> <Gold.Chemscore.Internal_Hbond>
0.0000

> <Gold.Chemscore.DEClash>
0.0918

> <Gold.Chemscore.DEInternal>
0.1752

> <Gold.Chemscore.Rot>
1.3706

> <Gold.Chemscore.Internal.Correction>
   9.000000E+99

> <Gold.Chemscore.Hbonds>
donor molecule, donor type, donor heavy atom, donor atom, acceptor molecule, acceptor atom, score
      L1  H     2    21       P1  8028  0.99

> <Gold.Chemscore.Hbond.Weighted>
-3.3160

> <Gold.Chemscore.Metal.Weighted>
-0.0000

> <Gold.Chemscore.Lipo.Weighted>
-8.1362

> <Gold.Chemscore.Internal_Hbond.Weighted>
0.0000

> <Gold.Chemscore.DEClash.Weighted>
0.0918

> <Gold.Chemscore.DEInternal.Weighted>
0.1752

> <Gold.Chemscore.Rot.Weighted>
3.5087

> <Gold.Chemscore.Internal.Correction.Weighted>
   9.000000E+99

> <Gold.Protein.RotatedTorsions>
[ 6907 6896 6895 6894 ] final  -55.11 input  -60.11 | X-H torsion
[ 7974 7965 7964 7962 ] final -176.79 input  175.53 | X-H torsion
[ 8008 7997 7996 7995 ] final   21.54 input   59.86 | X-H torsion
[ 10167 10162 10161 10158 ] final -154.47 input  -65.29 | X-H torsion
[ 10718 10713 10712 10709 ] final  176.97 input   66.30 | X-H torsion
[ 10763 10752 10751 10750 ] final  -87.17 input  -60.55 | X-H torsion
[ 11005 11000 10999 10996 ] final -157.24 input  -57.11 | X-H torsion

> <Gold.Protein.ActiveResidues>
 VAL166  LYS551  ARG553  GLY616  TRP617  ASP618  TYR619  PRO620  LYS621  CYS622 
 ASP623  PHE694  ASN695  SER759  ASP760  ASP761  ALA762  ILE779  LEU786  VAL792 
 PHE793  MET794  SER795  GLU796  ALA797  LYS798  CYS799  TRP800  GLU811  SER814 

> <Gold.Protein.RotatedAtoms>
  150.8280  134.7519  159.6828 H   0  0  0  0  0  0  0  0  0  0  0  0  # atno 6907 bound_to 6896
  152.4388  134.5629  159.9909 H   0  0  0  0  0  0  0  0  0  0  0  0  # atno 6908 bound_to 6896
  151.5797  133.3342  159.3042 H   0  0  0  0  0  0  0  0  0  0  0  0  # atno 6909 bound_to 6896
  144.7127  140.1117  143.6410 H   0  0  0  0  0  0  0  0  0  0  0  0  # atno 7974 bound_to 7965
  154.9521  140.3067  155.5070 H   0  0  0  0  0  0  0  0  0  0  0  0  # atno 8008 bound_to 7997
  156.2986  140.2317  156.4538 H   0  0  0  0  0  0  0  0  0  0  0  0  # atno 8009 bound_to 7997
  154.8044  140.0432  157.1285 H   0  0  0  0  0  0  0  0  0  0  0  0  # atno 8010 bound_to 7997
  139.7011  143.9262  152.2429 H   0  0  0  0  0  0  0  0  0  0  0  0  # atno 10167 bound_to 10162
  156.9122  130.9913  151.3019 H   0  0  0  0  0  0  0  0  0  0  0  0  # atno 10718 bound_to 10713
  154.6306  135.5423  153.7677 H   0  0  0  0  0  0  0  0  0  0  0  0  # atno 10763 bound_to 10752
  153.0283  135.6435  154.1306 H   0  0  0  0  0  0  0  0  0  0  0  0  # atno 10764 bound_to 10752
  154.1236  135.2919  155.3182 H   0  0  0  0  0  0  0  0  0  0  0  0  # atno 10765 bound_to 10752
  140.6668  134.4290  157.5233 H   0  0  0  0  0  0  0  0  0  0  0  0  # atno 11005 bound_to 11000
  145.9449  139.2694  143.1247 LP  0  0  0  0  0  0  0  0  0  0  0  0  # atno 17320 bound_to 7965
  145.9385  140.8997  143.0320 LP  0  0  0  0  0  0  0  0  0  0  0  0  # atno 17321 bound_to 7965
  139.9104  144.6859  150.8568 LP  0  0  0  0  0  0  0  0  0  0  0  0  # atno 17342 bound_to 10162
  140.7710  143.3447  151.2135 LP  0  0  0  0  0  0  0  0  0  0  0  0  # atno 17343 bound_to 10162
  157.5960  130.8478  149.8730 LP  0  0  0  0  0  0  0  0  0  0  0  0  # atno 17370 bound_to 10713
  156.0530  130.3714  150.1156 LP  0  0  0  0  0  0  0  0  0  0  0  0  # atno 17371 bound_to 10713
  139.8994  134.8591  156.1959 LP  0  0  0  0  0  0  0  0  0  0  0  0  # atno 17394 bound_to 11000
  141.0423  133.6931  156.1620 LP  0  0  0  0  0  0  0  0  0  0  0  0  # atno 17395 bound_to 11000

$$$$
