AV-unprocessed.smi:977|AV-procd|sdf|4306|dock10
  -GOLD-   22720 2213D 1   1.00000     0.00000
 Structure written by MMmdl.
 37 38  0  0  0  0  0  0  0  0  1 V2000
  151.6674  138.1242  154.4150 C   0  0  0  0  0  0  0  0  0  0  0  0
  150.6125  139.1956  154.4232 C   0  0  0  0  0  0  0  0  0  0  0  0
  150.9446  140.4253  154.7884 N   0  0  0  0  0  0  0  0  0  0  0  0
  149.7640  141.1842  154.7700 O   0  0  0  0  0  0  0  0  0  0  0  0
  148.7333  140.3851  154.3883 C   0  0  0  0  0  0  0  0  0  0  0  0
  147.3798  141.0081  154.3236 C   0  0  0  0  0  0  0  0  0  0  0  0
  149.2183  139.1371  154.1308 C   0  0  0  0  0  0  0  0  0  0  0  0
  148.4307  138.0285  153.7328 N   0  0  0  0  0  0  0  0  0  0  0  0
  147.2121  137.7083  154.1931 C   0  0  0  0  0  0  0  0  0  0  0  0
  146.6214  138.3100  155.0898 O   0  0  0  0  0  0  0  0  0  0  0  0
  146.7190  136.6299  153.5670 N   0  0  0  0  0  0  0  0  0  0  0  0
  145.4141  136.0239  153.8245 C   0  0  2  0  0  0  0  0  0  0  0  0
  145.6244  134.7532  154.6628 C   0  0  0  0  0  0  0  0  0  0  0  0
  144.6871  135.7340  152.4928 C   0  0  1  0  0  0  0  0  0  0  0  0
  145.5489  135.0227  151.4443 C   0  0  0  0  0  0  0  0  0  0  0  0
  144.5184  134.2553  150.6489 C   0  0  0  0  0  0  0  0  0  0  0  0
  143.5656  133.8103  151.7500 C   0  0  0  0  0  0  0  0  0  0  0  0
  143.5674  134.8704  152.6991 O   0  0  0  0  0  0  0  0  0  0  0  0
  151.2476  137.1548  154.6844 H   0  0  0  0  0  0  0  0  0  0  0  0
  152.4631  138.3418  155.1281 H   0  0  0  0  0  0  0  0  0  0  0  0
  152.1234  138.0308  153.4294 H   0  0  0  0  0  0  0  0  0  0  0  0
  146.6069  140.2541  154.1741 H   0  0  0  0  0  0  0  0  0  0  0  0
  147.3229  141.7187  153.4993 H   0  0  0  0  0  0  0  0  0  0  0  0
  147.1553  141.5419  155.2472 H   0  0  0  0  0  0  0  0  0  0  0  0
  148.8651  137.3786  153.0941 H   0  0  0  0  0  0  0  0  0  0  0  0
  147.2817  136.2021  152.8465 H   0  0  0  0  0  0  0  0  0  0  0  0
  144.8065  136.7125  154.4146 H   0  0  0  0  0  0  0  0  0  0  0  0
  144.6742  134.2943  154.9361 H   0  0  0  0  0  0  0  0  0  0  0  0
  146.1531  134.9782  155.5897 H   0  0  0  0  0  0  0  0  0  0  0  0
  146.2082  134.0104  154.1181 H   0  0  0  0  0  0  0  0  0  0  0  0
  144.3029  136.6617  152.0654 H   0  0  0  0  0  0  0  0  0  0  0  0
  146.1311  135.7129  150.8331 H   0  0  0  0  0  0  0  0  0  0  0  0
  146.2385  134.3243  151.9207 H   0  0  0  0  0  0  0  0  0  0  0  0
  144.0079  134.9201  149.9508 H   0  0  0  0  0  0  0  0  0  0  0  0
  144.9407  133.4217  150.0873 H   0  0  0  0  0  0  0  0  0  0  0  0
  142.5609  133.6042  151.3806 H   0  0  0  0  0  0  0  0  0  0  0  0
  143.9410  132.9093  152.2364 H   0  0  0  0  0  0  0  0  0  0  0  0
  1  2  1  0  0  0  0
  1 19  1  0  0  0  0
  1 20  1  0  0  0  0
  1 21  1  0  0  0  0
  2  7  1  0  0  0  0
  2  3  2  0  0  0  0
  3  4  1  0  0  0  0
  4  5  1  0  0  0  0
  5  6  1  0  0  0  0
  5  7  2  0  0  0  0
  6 22  1  0  0  0  0
  6 23  1  0  0  0  0
  6 24  1  0  0  0  0
  7  8  1  0  0  0  0
  8  9  1  0  0  0  0
  8 25  1  0  0  0  0
  9 10  2  0  0  0  0
  9 11  1  0  0  0  0
 11 12  1  0  0  0  0
 11 26  1  0  0  0  0
 12 13  1  0  0  0  0
 12 14  1  0  0  0  0
 12 27  1  0  0  0  0
 13 28  1  0  0  0  0
 13 29  1  0  0  0  0
 13 30  1  0  0  0  0
 14 18  1  0  0  0  0
 14 15  1  0  0  0  0
 14 31  1  0  0  0  0
 15 16  1  0  0  0  0
 15 32  1  0  0  0  0
 15 33  1  0  0  0  0
 16 17  1  0  0  0  0
 16 34  1  0  0  0  0
 16 35  1  0  0  0  0
 17 18  1  0  0  0  0
 17 36  1  0  0  0  0
 17 37  1  0  0  0  0
M  END
> <s_m_source_file>
AV-unprocessed.smi

> <i_m_source_file_index>
977

> <i_lp_mmshare_version>
43012

> <i_f3d_flags>
0

> <s_epik_input>
W0NIM11jMW5vYyhbQ0gzXSljMVtOSF1DKD1PKVtOSF1bQ0BIXShbQ0gzXSlbQ0BASF0yW0NIMl1bQ0gyXVtDSDJdTzI=

> <s_epik_cmdline>
J2VwaWtfcHl0aG9uJywgJy1waCcsICc3LjAnLCAnLXRuJywgJzgnLCAnLW1hJywgJzIwMCcsICctbWV0YWxfYmluZGluZycsICctaW1hZScsICc8aW5maWxlLm1hZT4nLCAnLW9tYWUnLCAnPG91dGZpbGUubWFlPic=

> <r_lp_tautomer_probability>
1

> <r_epik_Ionization_Penalty>
3.41601e-05

> <r_epik_Ionization_Penalty_Charging>
0

> <r_epik_Ionization_Penalty_Neutral>
3.41601e-05

> <r_epik_State_Penalty>
-0

> <r_epik_Charging_Adjusted_Penalty>
0

> <i_epik_Tot_Q>
0

> <i_epik_Tot_abs_Q>
0

> <r_epik_Metal_State_Penalty>
-0

> <b_epik_Metal_Only>
0

> <s_lp_Force_Field>
OPLS_2005

> <r_lp_Energy>
19.7512

> <b_lp_Chiralities_Consistent>
1

> <s_lp_Variant>
AV-unprocessed.smi:977-3

> <Gold.Version>
5.8.1

> <Gold.Id.Protein>
6NUR|6NUR_protein|mol2

> <Gold.PLP.Fitness>
35.0800

> <Gold.PLP.PLP>
-27.3329

> <Gold.PLP.part.hbond>
-3.8655

> <Gold.PLP.part.metal>
0.0000

> <Gold.PLP.part.buried>
-2.5717

> <Gold.PLP.part.nonpolar>
-20.8557

> <Gold.PLP.part.repulsive>
0.4248

> <Gold.PLP.ligand.clash>
0.0000

> <Gold.PLP.ligand.torsion>
0.6941

> <Gold.PLP.Chemscore.Hbond>
2.9600

> <Gold.PLP.Chemscore.CHOScore>
0.0000

> <Gold.PLP.Chemscore.Metal>
0.0000

> <Gold.Chemscore.Hbonds>
donor molecule, donor type, donor heavy atom, donor atom, acceptor molecule, acceptor atom, score
      L1  H     8    25       P1  7948  1.00
      L1  H    11    26       P1  7948  0.94
      P1  H  7989  7998       L1     3  0.94

> <Gold.PLP.Chemscore.Internal.Correction>
0.2553

> <Gold.Rescore>
     Score         DG    S(hbond)    S(metal)    S(lipo)     H(rot)  DE(clash)    DE(int)     intcor
     15.34     -16.16       1.95        0.00      62.20       1.22       0.16       0.66       ----

> <Gold.Chemscore.Fitness>
15.3419

> <Gold.Chemscore.DG>
-16.1630

> <Gold.Chemscore.ZeroCoef>
-5.4800

> <Gold.Chemscore.Hbond>
1.9546

> <Gold.Chemscore.Metal>
0.0000

> <Gold.Chemscore.Lipo>
62.2037

> <Gold.Chemscore.Internal_Hbond>
0.0000

> <Gold.Chemscore.DEClash>
0.1608

> <Gold.Chemscore.DEInternal>
0.6603

> <Gold.Chemscore.Rot>
1.2200

> <Gold.Chemscore.Internal.Correction>
   9.000000E+99

> <Gold.Chemscore.Hbonds>
donor molecule, donor type, donor heavy atom, donor atom, acceptor molecule, acceptor atom, score
      L1  H     8    25       P1  7948  0.99
      L1  H    11    26       P1  7948  0.92
      P1  H  7989  7998       L1     3  0.07

> <Gold.Chemscore.Hbond.Weighted>
-6.5284

> <Gold.Chemscore.Metal.Weighted>
-0.0000

> <Gold.Chemscore.Lipo.Weighted>
-7.2778

> <Gold.Chemscore.Internal_Hbond.Weighted>
0.0000

> <Gold.Chemscore.DEClash.Weighted>
0.1608

> <Gold.Chemscore.DEInternal.Weighted>
0.6603

> <Gold.Chemscore.Rot.Weighted>
3.1232

> <Gold.Chemscore.Internal.Correction.Weighted>
   9.000000E+99

> <Gold.Protein.RotatedTorsions>
[ 6907 6896 6895 6894 ] final   33.29 input  -60.11 | X-H torsion
[ 7974 7965 7964 7962 ] final  167.02 input  175.53 | X-H torsion
[ 8008 7997 7996 7995 ] final -134.11 input   59.86 | X-H torsion
[ 10167 10162 10161 10158 ] final   82.85 input  -65.29 | X-H torsion
[ 10718 10713 10712 10709 ] final  149.04 input   66.30 | X-H torsion
[ 10763 10752 10751 10750 ] final -100.27 input  -60.55 | X-H torsion
[ 11005 11000 10999 10996 ] final  -84.34 input  -57.11 | X-H torsion

> <Gold.Protein.ActiveResidues>
 VAL166  LYS551  ARG553  GLY616  TRP617  ASP618  TYR619  PRO620  LYS621  CYS622 
 ASP623  PHE694  ASN695  SER759  ASP760  ASP761  ALA762  ILE779  LEU786  VAL792 
 PHE793  MET794  SER795  GLU796  ALA797  LYS798  CYS799  TRP800  GLU811  SER814 

> <Gold.Protein.RotatedAtoms>
  152.0864  134.9436  160.0572 H   0  0  0  0  0  0  0  0  0  0  0  0  # atno 6907 bound_to 6896
  152.0705  133.4099  159.4465 H   0  0  0  0  0  0  0  0  0  0  0  0  # atno 6908 bound_to 6896
  150.6836  134.3017  159.4753 H   0  0  0  0  0  0  0  0  0  0  0  0  # atno 6909 bound_to 6896
  144.7440  139.8699  143.6388 H   0  0  0  0  0  0  0  0  0  0  0  0  # atno 7974 bound_to 7965
  155.3567  140.0480  157.3046 H   0  0  0  0  0  0  0  0  0  0  0  0  # atno 8008 bound_to 7997
  154.5199  140.2221  155.8959 H   0  0  0  0  0  0  0  0  0  0  0  0  # atno 8009 bound_to 7997
  156.1678  140.3102  155.8925 H   0  0  0  0  0  0  0  0  0  0  0  0  # atno 8010 bound_to 7997
  139.9245  144.6191  150.8406 H   0  0  0  0  0  0  0  0  0  0  0  0  # atno 10167 bound_to 10162
  157.3010  131.0871  151.1390 H   0  0  0  0  0  0  0  0  0  0  0  0  # atno 10718 bound_to 10713
  154.7566  135.4941  153.9386 H   0  0  0  0  0  0  0  0  0  0  0  0  # atno 10763 bound_to 10752
  153.1203  135.6730  153.9356 H   0  0  0  0  0  0  0  0  0  0  0  0  # atno 10764 bound_to 10752
  153.9090  135.3101  155.3427 H   0  0  0  0  0  0  0  0  0  0  0  0  # atno 10765 bound_to 10752
  141.1651  133.7341  156.8853 H   0  0  0  0  0  0  0  0  0  0  0  0  # atno 11005 bound_to 11000
  146.1287  139.4318  143.0182 LP  0  0  0  0  0  0  0  0  0  0  0  0  # atno 17320 bound_to 7965
  145.7195  141.0079  143.1410 LP  0  0  0  0  0  0  0  0  0  0  0  0  # atno 17321 bound_to 7965
  140.7653  143.3273  151.2487 LP  0  0  0  0  0  0  0  0  0  0  0  0  # atno 17342 bound_to 10162
  139.6833  143.9816  152.2821 LP  0  0  0  0  0  0  0  0  0  0  0  0  # atno 17343 bound_to 10162
  157.2749  130.6722  149.6037 LP  0  0  0  0  0  0  0  0  0  0  0  0  # atno 17370 bound_to 10713
  155.9671  130.4468  150.5554 LP  0  0  0  0  0  0  0  0  0  0  0  0  # atno 17371 bound_to 10713
  140.1686  134.9115  157.2805 LP  0  0  0  0  0  0  0  0  0  0  0  0  # atno 17394 bound_to 11000
  140.2528  134.3663  155.7436 LP  0  0  0  0  0  0  0  0  0  0  0  0  # atno 17395 bound_to 11000

$$$$
