AV-unprocessed.smi:3018|AV-procd|sdf|11479|dock6
  -GOLD-   2272016413D 1   1.00000     0.00000
 Structure written by MMmdl.
 45 46  0  0  0  0  0  0  0  0  1 V2000
  150.5875  139.5498  154.9662 C   0  0  0  0  0  0  0  0  0  0  0  0
  151.2354  139.8966  156.3122 C   0  0  0  0  0  0  0  0  0  0  0  0
  150.2018  140.1080  157.4339 C   0  0  2  0  0  0  0  0  0  0  0  0
  150.9098  140.4860  158.6135 O   0  0  0  0  0  0  0  0  0  0  0  0
  151.7489  141.6349  158.5184 C   0  0  0  0  0  0  0  0  0  0  0  0
  152.3225  142.0023  159.9023 C   0  0  0  0  0  0  0  0  0  0  0  0
  153.1155  143.3186  159.8466 C   0  0  0  0  0  0  0  0  0  0  0  0
  152.2616  144.4644  159.2798 C   0  0  0  0  0  0  0  0  0  0  0  0
  151.6828  144.0984  157.9041 C   0  0  0  0  0  0  0  0  0  0  0  0
  150.8869  142.7851  157.9706 C   0  0  0  0  0  0  0  0  0  0  0  0
  149.4071  138.8198  157.6956 C   0  0  0  0  0  0  0  0  0  0  0  0
  148.2286  138.7383  157.3489 O   0  0  0  0  0  0  0  0  0  0  0  0
  150.0694  137.8226  158.3032 N   0  0  0  0  0  0  0  0  0  0  0  0
  149.5031  136.5271  158.6701 C   0  0  0  0  0  0  0  0  0  0  0  0
  148.0498  136.6485  159.1752 C   0  0  0  0  0  0  0  0  0  0  0  0
  147.8635  136.3153  160.6466 C   0  0  0  0  0  0  0  0  0  0  0  0
  147.6276  137.1198  161.6225 N   0  0  0  0  0  0  0  0  0  0  0  0
  147.5330  136.2521  162.6607 N   0  0  0  0  0  0  0  0  0  0  0  0
  147.7023  134.9678  162.3250 C   0  0  0  0  0  0  0  0  0  0  0  0
  147.6624  133.9852  163.0616 O   0  0  0  0  0  0  0  0  0  0  0  0
  147.9242  134.9953  161.0170 N   0  0  0  0  0  0  0  0  0  0  0  0
  147.3430  136.6091  163.5861 H   0  0  0  0  0  0  0  0  0  0  0  0
  148.0857  134.2093  160.4045 H   0  0  0  0  0  0  0  0  0  0  0  0
  151.3465  139.4029  154.1977 H   0  0  0  0  0  0  0  0  0  0  0  0
  149.9245  140.3471  154.6293 H   0  0  0  0  0  0  0  0  0  0  0  0
  150.0018  138.6329  155.0352 H   0  0  0  0  0  0  0  0  0  0  0  0
  151.9179  139.0908  156.5873 H   0  0  0  0  0  0  0  0  0  0  0  0
  151.8492  140.7911  156.1963 H   0  0  0  0  0  0  0  0  0  0  0  0
  149.5184  140.9019  157.1294 H   0  0  0  0  0  0  0  0  0  0  0  0
  152.5684  141.4660  157.8189 H   0  0  0  0  0  0  0  0  0  0  0  0
  151.5082  142.0978  160.6216 H   0  0  0  0  0  0  0  0  0  0  0  0
  152.9701  141.2089  160.2741 H   0  0  0  0  0  0  0  0  0  0  0  0
  153.4719  143.5801  160.8433 H   0  0  0  0  0  0  0  0  0  0  0  0
  154.0026  143.1836  159.2264 H   0  0  0  0  0  0  0  0  0  0  0  0
  151.4472  144.6890  159.9696 H   0  0  0  0  0  0  0  0  0  0  0  0
  152.8601  145.3725  159.2024 H   0  0  0  0  0  0  0  0  0  0  0  0
  151.0424  144.9036  157.5432 H   0  0  0  0  0  0  0  0  0  0  0  0
  152.4928  143.9989  157.1804 H   0  0  0  0  0  0  0  0  0  0  0  0
  150.5128  142.5280  156.9794 H   0  0  0  0  0  0  0  0  0  0  0  0
  150.0110  142.9225  158.6058 H   0  0  0  0  0  0  0  0  0  0  0  0
  151.0380  137.9792  158.5421 H   0  0  0  0  0  0  0  0  0  0  0  0
  149.5784  135.8123  157.8486 H   0  0  0  0  0  0  0  0  0  0  0  0
  150.1222  136.1234  159.4714 H   0  0  0  0  0  0  0  0  0  0  0  0
  147.6977  137.6675  159.0124 H   0  0  0  0  0  0  0  0  0  0  0  0
  147.3986  136.0071  158.5796 H   0  0  0  0  0  0  0  0  0  0  0  0
  1  2  1  0  0  0  0
  1 24  1  0  0  0  0
  1 25  1  0  0  0  0
  1 26  1  0  0  0  0
  2  3  1  0  0  0  0
  2 27  1  0  0  0  0
  2 28  1  0  0  0  0
  3  4  1  0  0  0  0
  3 11  1  0  0  0  0
  3 29  1  0  0  0  0
  4  5  1  0  0  0  0
  5 10  1  0  0  0  0
  5  6  1  0  0  0  0
  5 30  1  0  0  0  0
  6  7  1  0  0  0  0
  6 31  1  0  0  0  0
  6 32  1  0  0  0  0
  7  8  1  0  0  0  0
  7 33  1  0  0  0  0
  7 34  1  0  0  0  0
  8  9  1  0  0  0  0
  8 35  1  0  0  0  0
  8 36  1  0  0  0  0
  9 10  1  0  0  0  0
  9 37  1  0  0  0  0
  9 38  1  0  0  0  0
 10 39  1  0  0  0  0
 10 40  1  0  0  0  0
 11 12  2  0  0  0  0
 11 13  1  0  0  0  0
 13 14  1  0  0  0  0
 13 41  1  0  0  0  0
 14 15  1  0  0  0  0
 14 42  1  0  0  0  0
 14 43  1  0  0  0  0
 15 16  1  0  0  0  0
 15 44  1  0  0  0  0
 15 45  1  0  0  0  0
 16 21  1  0  0  0  0
 16 17  2  0  0  0  0
 17 18  1  0  0  0  0
 18 22  1  0  0  0  0
 18 19  1  0  0  0  0
 19 20  2  0  0  0  0
 19 21  1  0  0  0  0
 21 23  1  0  0  0  0
M  END
> <s_m_source_file>
AV-unprocessed.smi

> <i_m_source_file_index>
3018

> <i_lp_mmshare_version>
43012

> <i_f3d_flags>
0

> <s_epik_input>
W0NIMl0xW0NIMl1bQ0gyXVtDSDJdW0NIMl1bQ0hdMU9bQ0BASF0oW0NIMl1bQ0gzXSlDKD1PKVtOSF1bQ0gyXVtDSDJdYzJuW25IXWMoPU8pW25IXTI=

> <s_epik_cmdline>
J2VwaWtfcHl0aG9uJywgJy1waCcsICc3LjAnLCAnLXRuJywgJzgnLCAnLW1hJywgJzIwMCcsICctbWV0YWxfYmluZGluZycsICctaW1hZScsICc8aW5maWxlLm1hZT4nLCAnLW9tYWUnLCAnPG91dGZpbGUubWFlPic=

> <r_lp_tautomer_probability>
1

> <r_epik_Ionization_Penalty>
0.000773817

> <r_epik_Ionization_Penalty_Charging>
0.000773741

> <r_epik_Ionization_Penalty_Neutral>
7.58514e-08

> <r_epik_State_Penalty>
-0

> <r_epik_Charging_Adjusted_Penalty>
0.000773741

> <i_epik_Tot_Q>
0

> <i_epik_Tot_abs_Q>
0

> <r_epik_Metal_State_Penalty>
0.495152

> <b_epik_Metal_Only>
0

> <s_lp_Force_Field>
OPLS_2005

> <r_lp_Energy>
32.5004

> <b_lp_Chiralities_Consistent>
1

> <s_lp_Variant>
AV-unprocessed.smi:3018-1

> <Gold.Version>
5.8.1

> <Gold.Id.Protein>
6NUR|6NUR_protein|mol2

> <Gold.PLP.Fitness>
43.8221

> <Gold.PLP.PLP>
-40.6213

> <Gold.PLP.part.hbond>
-2.6970

> <Gold.PLP.part.metal>
0.0000

> <Gold.PLP.part.buried>
-5.7638

> <Gold.PLP.part.nonpolar>
-32.5595

> <Gold.PLP.part.repulsive>
0.4225

> <Gold.PLP.ligand.clash>
0.0000

> <Gold.PLP.ligand.torsion>
0.9745

> <Gold.PLP.Chemscore.Hbond>
1.6800

> <Gold.PLP.Chemscore.CHOScore>
0.0000

> <Gold.PLP.Chemscore.Metal>
0.0000

> <Gold.Chemscore.Hbonds>
donor molecule, donor type, donor heavy atom, donor atom, acceptor molecule, acceptor atom, score
      P1  H  6931  6943       L1    17  1.00
      P1  H  6934  6947       L1    17  0.71

> <Gold.PLP.Chemscore.Internal.Correction>
0.1098

> <Gold.Rescore>
     Score         DG    S(hbond)    S(metal)    S(lipo)     H(rot)  DE(clash)    DE(int)     intcor
     10.72     -13.26       1.52        0.00      89.65       3.04       0.01       2.52       ----

> <Gold.Chemscore.Fitness>
10.7248

> <Gold.Chemscore.DG>
-13.2560

> <Gold.Chemscore.ZeroCoef>
-5.4800

> <Gold.Chemscore.Hbond>
1.5152

> <Gold.Chemscore.Metal>
0.0000

> <Gold.Chemscore.Lipo>
89.6501

> <Gold.Chemscore.Internal_Hbond>
0.0000

> <Gold.Chemscore.DEClash>
0.0108

> <Gold.Chemscore.DEInternal>
2.5204

> <Gold.Chemscore.Rot>
3.0367

> <Gold.Chemscore.Internal.Correction>
   9.000000E+99

> <Gold.Chemscore.Hbonds>
donor molecule, donor type, donor heavy atom, donor atom, acceptor molecule, acceptor atom, score
      P1  H  6931  6943       L1    17  0.55
      P1  H  6934  6947       L1    17  0.56

> <Gold.Chemscore.Hbond.Weighted>
-5.0609

> <Gold.Chemscore.Metal.Weighted>
-0.0000

> <Gold.Chemscore.Lipo.Weighted>
-10.4891

> <Gold.Chemscore.Internal_Hbond.Weighted>
0.0000

> <Gold.Chemscore.DEClash.Weighted>
0.0108

> <Gold.Chemscore.DEInternal.Weighted>
2.5204

> <Gold.Chemscore.Rot.Weighted>
7.7739

> <Gold.Chemscore.Internal.Correction.Weighted>
   9.000000E+99

> <Gold.Protein.RotatedTorsions>
[ 6907 6896 6895 6894 ] final   42.37 input  -60.11 | X-H torsion
[ 7974 7965 7964 7962 ] final  -57.67 input  175.53 | X-H torsion
[ 8008 7997 7996 7995 ] final   -9.60 input   59.86 | X-H torsion
[ 10167 10162 10161 10158 ] final  -88.46 input  -65.29 | X-H torsion
[ 10718 10713 10712 10709 ] final -144.05 input   66.30 | X-H torsion
[ 10763 10752 10751 10750 ] final   90.27 input  -60.55 | X-H torsion
[ 11005 11000 10999 10996 ] final   29.19 input  -57.11 | X-H torsion

> <Gold.Protein.ActiveResidues>
 VAL166  LYS551  ARG553  GLY616  TRP617  ASP618  TYR619  PRO620  LYS621  CYS622 
 ASP623  PHE694  ASN695  SER759  ASP760  ASP761  ALA762  ILE779  LEU786  VAL792 
 PHE793  MET794  SER795  GLU796  ALA797  LYS798  CYS799  TRP800  GLU811  SER814 

> <Gold.Protein.RotatedAtoms>
  152.2070  134.8536  160.0501 H   0  0  0  0  0  0  0  0  0  0  0  0  # atno 6907 bound_to 6896
  151.9369  133.3622  159.3959 H   0  0  0  0  0  0  0  0  0  0  0  0  # atno 6908 bound_to 6896
  150.6967  134.4404  159.5333 H   0  0  0  0  0  0  0  0  0  0  0  0  # atno 6909 bound_to 6896
  145.8484  140.8369  142.9998 H   0  0  0  0  0  0  0  0  0  0  0  0  # atno 7974 bound_to 7965
  154.5631  140.2351  155.8304 H   0  0  0  0  0  0  0  0  0  0  0  0  # atno 8008 bound_to 7997
  156.2046  140.3043  155.9559 H   0  0  0  0  0  0  0  0  0  0  0  0  # atno 8009 bound_to 7997
  155.2851  140.0424  157.3009 H   0  0  0  0  0  0  0  0  0  0  0  0  # atno 8010 bound_to 7997
  140.3744  143.2778  151.9460 H   0  0  0  0  0  0  0  0  0  0  0  0  # atno 10167 bound_to 10162
  156.3654  130.7760  151.1933 H   0  0  0  0  0  0  0  0  0  0  0  0  # atno 10718 bound_to 10713
  153.1958  135.4440  155.0206 H   0  0  0  0  0  0  0  0  0  0  0  0  # atno 10763 bound_to 10752
  154.8118  135.3297  154.7288 H   0  0  0  0  0  0  0  0  0  0  0  0  # atno 10764 bound_to 10752
  153.7737  135.6982  153.4957 H   0  0  0  0  0  0  0  0  0  0  0  0  # atno 10765 bound_to 10752
  140.3075  134.2686  155.7741 H   0  0  0  0  0  0  0  0  0  0  0  0  # atno 11005 bound_to 11000
  144.6730  140.0916  143.7465 LP  0  0  0  0  0  0  0  0  0  0  0  0  # atno 17320 bound_to 7965
  145.9386  139.2654  143.1282 LP  0  0  0  0  0  0  0  0  0  0  0  0  # atno 17321 bound_to 7965
  139.4801  144.5877  151.7826 LP  0  0  0  0  0  0  0  0  0  0  0  0  # atno 17342 bound_to 10162
  140.5000  144.1182  150.5969 LP  0  0  0  0  0  0  0  0  0  0  0  0  # atno 17343 bound_to 10162
  157.7478  131.0388  150.4519 LP  0  0  0  0  0  0  0  0  0  0  0  0  # atno 17370 bound_to 10713
  156.4737  130.4058  149.6503 LP  0  0  0  0  0  0  0  0  0  0  0  0  # atno 17371 bound_to 10713
  141.2115  133.7687  156.9859 LP  0  0  0  0  0  0  0  0  0  0  0  0  # atno 17394 bound_to 11000
  140.1054  134.9510  157.1986 LP  0  0  0  0  0  0  0  0  0  0  0  0  # atno 17395 bound_to 11000

$$$$
