AV-unprocessed.smi:2262|AV-procd|sdf|9139|dock9
  -GOLD-   2272012343D 1   1.00000     0.00000
 Structure written by MMmdl.
 43 44  0  0  0  0  0  0  0  0  2 V2000
  144.9193  133.7079  150.5030 C   0  0  0  0  0  0  0  0  0  0  0  0
  144.7951  134.5951  151.6795 N   0  3  2  0  0  0  0  0  0  0  0  0
  145.1251  136.0064  151.3608 C   0  0  0  0  0  0  0  0  0  0  0  0
  144.8566  136.9251  152.5669 C   0  0  0  0  0  0  0  0  0  0  0  0
  145.5974  136.4544  153.8315 C   0  0  2  0  0  0  0  0  0  0  0  0
  147.0326  136.7141  153.7152 N   0  0  0  0  0  0  0  0  0  0  0  0
  147.7401  137.5121  154.5293 C   0  0  0  0  0  0  0  0  0  0  0  0
  147.2504  138.0929  155.4985 O   0  0  0  0  0  0  0  0  0  0  0  0
  149.0279  137.5841  154.1477 N   0  0  0  0  0  0  0  0  0  0  0  0
  150.0731  138.3447  154.7374 C   0  0  0  0  0  0  0  0  0  0  0  0
  151.3767  138.0142  154.3055 C   0  0  0  0  0  0  0  0  0  0  0  0
  152.4779  138.7148  154.8335 C   0  0  0  0  0  0  0  0  0  0  0  0
  152.2477  139.7294  155.7796 C   0  0  0  0  0  0  0  0  0  0  0  0
  150.9205  140.0052  156.1590 C   0  0  0  0  0  0  0  0  0  0  0  0
  150.6888  141.0030  157.0831 O   0  0  0  0  0  0  0  0  0  0  0  0
  151.7025  141.2878  158.0434 C   0  0  0  0  0  0  0  0  0  0  0  0
  151.4713  142.6944  158.6044 C   0  0  0  0  0  0  0  0  0  0  0  0
  152.2984  142.9322  159.6219 F   0  0  0  0  0  0  0  0  0  0  0  0
  151.6753  143.6052  157.6534 F   0  0  0  0  0  0  0  0  0  0  0  0
  149.8638  139.3262  155.6487 N   0  0  0  0  0  0  0  0  0  0  0  0
  145.2997  134.9634  154.0914 C   0  0  0  0  0  0  0  0  0  0  0  0
  145.5612  134.0956  152.8479 C   0  0  0  0  0  0  0  0  0  0  0  0
  145.9507  133.6659  150.1506 H   0  0  0  0  0  0  0  0  0  0  0  0
  144.2918  134.0633  149.6850 H   0  0  0  0  0  0  0  0  0  0  0  0
  144.5998  132.6947  150.7495 H   0  0  0  0  0  0  0  0  0  0  0  0
  146.1697  136.0778  151.0540 H   0  0  0  0  0  0  0  0  0  0  0  0
  144.5241  136.3384  150.5134 H   0  0  0  0  0  0  0  0  0  0  0  0
  145.1316  137.9527  152.3260 H   0  0  0  0  0  0  0  0  0  0  0  0
  143.7847  136.9396  152.7684 H   0  0  0  0  0  0  0  0  0  0  0  0
  145.2213  137.0376  154.6744 H   0  0  0  0  0  0  0  0  0  0  0  0
  147.5153  136.2782  152.9432 H   0  0  0  0  0  0  0  0  0  0  0  0
  149.2896  137.0439  153.3367 H   0  0  0  0  0  0  0  0  0  0  0  0
  151.5368  137.2327  153.5768 H   0  0  0  0  0  0  0  0  0  0  0  0
  153.4829  138.4781  154.5167 H   0  0  0  0  0  0  0  0  0  0  0  0
  153.0706  140.2863  156.2028 H   0  0  0  0  0  0  0  0  0  0  0  0
  151.6914  140.5560  158.8533 H   0  0  0  0  0  0  0  0  0  0  0  0
  152.6831  141.2459  157.5660 H   0  0  0  0  0  0  0  0  0  0  0  0
  150.4498  142.8224  158.9630 H   0  0  0  0  0  0  0  0  0  0  0  0
  145.8836  134.5941  154.9352 H   0  0  0  0  0  0  0  0  0  0  0  0
  144.2539  134.8565  154.3829 H   0  0  0  0  0  0  0  0  0  0  0  0
  145.2726  133.0652  153.0596 H   0  0  0  0  0  0  0  0  0  0  0  0
  146.6264  134.0829  152.6112 H   0  0  0  0  0  0  0  0  0  0  0  0
  143.8210  134.5802  151.9470 H   0  0  0  0  0  0  0  0  0  0  0  0
  1  2  1  0  0  0  0
  1 23  1  0  0  0  0
  1 24  1  0  0  0  0
  1 25  1  0  0  0  0
  2 22  1  0  0  0  0
  2  3  1  0  0  0  0
  2 43  1  0  0  0  0
  3  4  1  0  0  0  0
  3 26  1  0  0  0  0
  3 27  1  0  0  0  0
  4  5  1  0  0  0  0
  4 28  1  0  0  0  0
  4 29  1  0  0  0  0
  5  6  1  0  0  0  0
  5 21  1  0  0  0  0
  5 30  1  0  0  0  0
  6  7  1  0  0  0  0
  6 31  1  0  0  0  0
  7  8  2  0  0  0  0
  7  9  1  0  0  0  0
  9 10  1  0  0  0  0
  9 32  1  0  0  0  0
 10 20  1  0  0  0  0
 10 11  2  0  0  0  0
 11 12  1  0  0  0  0
 11 33  1  0  0  0  0
 12 13  2  0  0  0  0
 12 34  1  0  0  0  0
 13 14  1  0  0  0  0
 13 35  1  0  0  0  0
 14 15  1  0  0  0  0
 14 20  2  0  0  0  0
 15 16  1  0  0  0  0
 16 17  1  0  0  0  0
 16 36  1  0  0  0  0
 16 37  1  0  0  0  0
 17 18  1  0  0  0  0
 17 19  1  0  0  0  0
 17 38  1  0  0  0  0
 21 22  1  0  0  0  0
 21 39  1  0  0  0  0
 21 40  1  0  0  0  0
 22 41  1  0  0  0  0
 22 42  1  0  0  0  0
M  CHG  1   2   1
M  END
> <s_m_source_file>
AV-unprocessed.smi

> <i_m_source_file_index>
2262

> <i_lp_mmshare_version>
43012

> <i_f3d_flags>
0

> <s_epik_input>
W0NIM11OMVtDSDJdW0NIMl1bQ0hdKFtDSDJdW0NIMl0xKVtOSF1DKD1PKVtOSF1jMltjSF1bY0hdW2NIXWMobjIpT1tDSDJdW0NIXShGKUY=

> <s_epik_cmdline>
J2VwaWtfcHl0aG9uJywgJy1waCcsICc3LjAnLCAnLXRuJywgJzgnLCAnLW1hJywgJzIwMCcsICctbWV0YWxfYmluZGluZycsICctaW1hZScsICc8aW5maWxlLm1hZT4nLCAnLW9tYWUnLCAnPG91dGZpbGUubWFlPic=

> <r_lp_tautomer_probability>
1

> <r_epik_Ionization_Penalty>
0.00369782

> <r_epik_Ionization_Penalty_Charging>
0.00366825

> <r_epik_Ionization_Penalty_Neutral>
2.95729e-05

> <r_epik_State_Penalty>
0.00261101

> <r_epik_Charging_Adjusted_Penalty>
0.00627926

> <i_epik_Tot_Q>
1

> <i_epik_Tot_abs_Q>
1

> <r_epik_Metal_State_Penalty>
-0

> <b_epik_Metal_Only>
0

> <s_lp_Force_Field>
OPLS_2005

> <r_lp_Energy>
16.3431

> <b_lp_Chiralities_Consistent>
1

> <s_lp_Variant>
AV-unprocessed.smi:2262-2

> <Gold.Version>
5.8.1

> <Gold.Id.Protein>
6NUR|6NUR_protein|mol2

> <Gold.PLP.Fitness>
41.4295

> <Gold.PLP.PLP>
-36.5100

> <Gold.PLP.part.hbond>
-2.0000

> <Gold.PLP.part.metal>
0.0000

> <Gold.PLP.part.buried>
-3.6690

> <Gold.PLP.part.nonpolar>
-30.2805

> <Gold.PLP.part.repulsive>
0.1016

> <Gold.PLP.ligand.clash>
0.0000

> <Gold.PLP.ligand.torsion>
0.5361

> <Gold.PLP.Chemscore.Hbond>
1.9920

> <Gold.PLP.Chemscore.CHOScore>
0.0000

> <Gold.PLP.Chemscore.Metal>
0.0000

> <Gold.Chemscore.Hbonds>
donor molecule, donor type, donor heavy atom, donor atom, acceptor molecule, acceptor atom, score
      L1  H     6    31       P1  7948  0.98
      L1  H     9    32       P1  7948  1.00

> <Gold.PLP.Chemscore.Internal.Correction>
0.0158

> <Gold.Rescore>
     Score         DG    S(hbond)    S(metal)    S(lipo)     H(rot)  DE(clash)    DE(int)     intcor
     13.78     -15.32       1.92        0.00      65.12       1.64       0.05       1.49       ----

> <Gold.Chemscore.Fitness>
13.7803

> <Gold.Chemscore.DG>
-15.3215

> <Gold.Chemscore.ZeroCoef>
-5.4800

> <Gold.Chemscore.Hbond>
1.9249

> <Gold.Chemscore.Metal>
0.0000

> <Gold.Chemscore.Lipo>
65.1235

> <Gold.Chemscore.Internal_Hbond>
0.0000

> <Gold.Chemscore.DEClash>
0.0484

> <Gold.Chemscore.DEInternal>
1.4929

> <Gold.Chemscore.Rot>
1.6434

> <Gold.Chemscore.Internal.Correction>
   9.000000E+99

> <Gold.Chemscore.Hbonds>
donor molecule, donor type, donor heavy atom, donor atom, acceptor molecule, acceptor atom, score
      L1  H     6    31       P1  7948  0.93
      L1  H     9    32       P1  7948  0.95

> <Gold.Chemscore.Hbond.Weighted>
-6.4291

> <Gold.Chemscore.Metal.Weighted>
-0.0000

> <Gold.Chemscore.Lipo.Weighted>
-7.6194

> <Gold.Chemscore.Internal_Hbond.Weighted>
0.0000

> <Gold.Chemscore.DEClash.Weighted>
0.0484

> <Gold.Chemscore.DEInternal.Weighted>
1.4929

> <Gold.Chemscore.Rot.Weighted>
4.2070

> <Gold.Chemscore.Internal.Correction.Weighted>
   9.000000E+99

> <Gold.Protein.RotatedTorsions>
[ 6907 6896 6895 6894 ] final  -47.04 input  -60.11 | X-H torsion
[ 7974 7965 7964 7962 ] final  175.22 input  175.53 | X-H torsion
[ 8008 7997 7996 7995 ] final -133.25 input   59.86 | X-H torsion
[ 10167 10162 10161 10158 ] final   65.42 input  -65.29 | X-H torsion
[ 10718 10713 10712 10709 ] final  159.81 input   66.30 | X-H torsion
[ 10763 10752 10751 10750 ] final  132.28 input  -60.55 | X-H torsion
[ 11005 11000 10999 10996 ] final  122.97 input  -57.11 | X-H torsion

> <Gold.Protein.ActiveResidues>
 VAL166  LYS551  ARG553  GLY616  TRP617  ASP618  TYR619  PRO620  LYS621  CYS622 
 ASP623  PHE694  ASN695  SER759  ASP760  ASP761  ALA762  ILE779  LEU786  VAL792 
 PHE793  MET794  SER795  GLU796  ALA797  LYS798  CYS799  TRP800  GLU811  SER814 

> <Gold.Protein.RotatedAtoms>
  150.9050  134.8464  159.7385 H   0  0  0  0  0  0  0  0  0  0  0  0  # atno 6907 bound_to 6896
  152.4913  134.4445  159.9564 H   0  0  0  0  0  0  0  0  0  0  0  0  # atno 6908 bound_to 6896
  151.4493  133.3582  159.2828 H   0  0  0  0  0  0  0  0  0  0  0  0  # atno 6909 bound_to 6896
  144.7206  139.9914  143.6440 H   0  0  0  0  0  0  0  0  0  0  0  0  # atno 7974 bound_to 7965
  155.3424  140.0473  157.3045 H   0  0  0  0  0  0  0  0  0  0  0  0  # atno 8008 bound_to 7997
  154.5270  140.2244  155.8836 H   0  0  0  0  0  0  0  0  0  0  0  0  # atno 8009 bound_to 7997
  156.1750  140.3087  155.9048 H   0  0  0  0  0  0  0  0  0  0  0  0  # atno 8010 bound_to 7997
  140.1115  144.4814  150.6975 H   0  0  0  0  0  0  0  0  0  0  0  0  # atno 10167 bound_to 10162
  157.1591  131.0583  151.2241 H   0  0  0  0  0  0  0  0  0  0  0  0  # atno 10718 bound_to 10713
  153.7882  135.3159  155.3375 H   0  0  0  0  0  0  0  0  0  0  0  0  # atno 10763 bound_to 10752
  154.8136  135.4651  154.0585 H   0  0  0  0  0  0  0  0  0  0  0  0  # atno 10764 bound_to 10752
  153.1894  135.6906  153.8458 H   0  0  0  0  0  0  0  0  0  0  0  0  # atno 10765 bound_to 10752
  139.9292  134.9641  156.8189 H   0  0  0  0  0  0  0  0  0  0  0  0  # atno 11005 bound_to 11000
  146.0409  139.3420  143.0698 LP  0  0  0  0  0  0  0  0  0  0  0  0  # atno 17320 bound_to 7965
  145.8336  140.9618  143.0836 LP  0  0  0  0  0  0  0  0  0  0  0  0  # atno 17321 bound_to 7965
  140.6923  143.2383  151.5097 LP  0  0  0  0  0  0  0  0  0  0  0  0  # atno 17342 bound_to 10162
  139.5617  144.2141  152.1701 LP  0  0  0  0  0  0  0  0  0  0  0  0  # atno 17343 bound_to 10162
  157.4149  130.7405  149.6868 LP  0  0  0  0  0  0  0  0  0  0  0  0  # atno 17370 bound_to 10713
  155.9757  130.4085  150.3832 LP  0  0  0  0  0  0  0  0  0  0  0  0  # atno 17371 bound_to 10713
  140.6250  133.9958  155.7636 LP  0  0  0  0  0  0  0  0  0  0  0  0  # atno 17394 bound_to 11000
  141.0869  133.9976  157.3298 LP  0  0  0  0  0  0  0  0  0  0  0  0  # atno 17395 bound_to 11000

$$$$
