AV-unprocessed.smi:2584|AV-procd|sdf|10143|dock10
  -GOLD-   2272014153D 1   1.00000     0.00000
 Structure written by MMmdl.
 35 36  0  0  0  0  0  0  0  0  2 V2000
  149.1720  135.9361  156.4541 O   0  0  0  0  0  0  0  0  0  0  0  0
  149.0149  135.9890  155.2339 C   0  0  0  0  0  0  0  0  0  0  0  0
  148.4184  135.0195  154.5251 N   0  0  0  0  0  0  0  0  0  0  0  0
  147.9024  133.7761  155.0861 C   0  0  0  0  0  0  0  0  0  0  0  0
  148.5573  132.5425  154.4339 C   0  0  0  0  0  0  0  0  0  0  0  0
  147.7519  132.0017  153.3099 N   0  3  0  0  0  0  0  0  0  0  0  0
  147.3231  133.0660  152.3644 C   0  0  0  0  0  0  0  0  0  0  0  0
  146.6091  132.4698  151.1394 C   0  0  0  0  0  0  0  0  0  0  0  0
  145.4136  131.6079  151.5651 C   0  0  0  0  0  0  0  0  0  0  0  0
  145.8704  130.5386  152.5652 C   0  0  0  0  0  0  0  0  0  0  0  0
  146.5986  131.1760  153.7606 C   0  0  0  0  0  0  0  0  0  0  0  0
  149.4084  137.0021  154.4441 N   0  0  0  0  0  0  0  0  0  0  0  0
  150.0446  138.1415  154.8152 C   0  0  0  0  0  0  0  0  0  0  0  0
  150.1457  139.3732  154.2157 C   0  0  0  0  0  0  0  0  0  0  0  0
  150.9127  140.2968  154.9433 N   0  0  0  0  0  0  0  0  0  0  0  0
  151.3939  139.8288  156.0574 N   0  0  0  0  0  0  0  0  0  0  0  0
  150.9426  138.2328  156.2866 S   0  0  0  0  0  0  0  0  0  0  0  0
  148.3306  135.1429  153.5266 H   0  0  0  0  0  0  0  0  0  0  0  0
  148.1037  133.7795  156.1577 H   0  0  0  0  0  0  0  0  0  0  0  0
  146.8180  133.7611  154.9751 H   0  0  0  0  0  0  0  0  0  0  0  0
  149.5659  132.7674  154.0834 H   0  0  0  0  0  0  0  0  0  0  0  0
  148.6644  131.7753  155.2023 H   0  0  0  0  0  0  0  0  0  0  0  0
  146.6659  133.7687  152.8793 H   0  0  0  0  0  0  0  0  0  0  0  0
  148.1919  133.6331  152.0275 H   0  0  0  0  0  0  0  0  0  0  0  0
  146.2746  133.2688  150.4771 H   0  0  0  0  0  0  0  0  0  0  0  0
  147.3114  131.8648  150.5643 H   0  0  0  0  0  0  0  0  0  0  0  0
  144.6482  132.2374  152.0211 H   0  0  0  0  0  0  0  0  0  0  0  0
  144.9555  131.1394  150.6936 H   0  0  0  0  0  0  0  0  0  0  0  0
  145.0114  129.9645  152.9143 H   0  0  0  0  0  0  0  0  0  0  0  0
  146.5340  129.8299  152.0675 H   0  0  0  0  0  0  0  0  0  0  0  0
  146.9342  130.3837  154.4284 H   0  0  0  0  0  0  0  0  0  0  0  0
  145.9068  131.7966  154.3327 H   0  0  0  0  0  0  0  0  0  0  0  0
  149.2198  136.9094  153.4567 H   0  0  0  0  0  0  0  0  0  0  0  0
  149.7154  139.6947  153.2793 H   0  0  0  0  0  0  0  0  0  0  0  0
  148.3639  131.3927  152.7857 H   0  0  0  0  0  0  0  0  0  0  0  0
  1  2  2  0  0  0  0
  2  3  1  0  0  0  0
  2 12  1  0  0  0  0
  3  4  1  0  0  0  0
  3 18  1  0  0  0  0
  4  5  1  0  0  0  0
  4 19  1  0  0  0  0
  4 20  1  0  0  0  0
  5  6  1  0  0  0  0
  5 21  1  0  0  0  0
  5 22  1  0  0  0  0
  6 11  1  0  0  0  0
  6  7  1  0  0  0  0
  6 35  1  0  0  0  0
  7  8  1  0  0  0  0
  7 23  1  0  0  0  0
  7 24  1  0  0  0  0
  8  9  1  0  0  0  0
  8 25  1  0  0  0  0
  8 26  1  0  0  0  0
  9 10  1  0  0  0  0
  9 27  1  0  0  0  0
  9 28  1  0  0  0  0
 10 11  1  0  0  0  0
 10 29  1  0  0  0  0
 10 30  1  0  0  0  0
 11 31  1  0  0  0  0
 11 32  1  0  0  0  0
 12 13  1  0  0  0  0
 12 33  1  0  0  0  0
 13 17  1  0  0  0  0
 13 14  2  0  0  0  0
 14 15  1  0  0  0  0
 14 34  1  0  0  0  0
 15 16  2  0  0  0  0
 16 17  1  0  0  0  0
M  CHG  1   6   1
M  END
> <s_m_source_file>
AV-unprocessed.smi

> <i_m_source_file_index>
2584

> <i_lp_mmshare_version>
43012

> <i_f3d_flags>
0

> <s_epik_input>
czFubltjSF1jMVtOSF1DKD1PKVtOSF1bQ0gyXVtDSDJdTjJbQ0gyXVtDSDJdW0NIMl1bQ0gyXVtDSDJdMg==

> <s_epik_cmdline>
J2VwaWtfcHl0aG9uJywgJy1waCcsICc3LjAnLCAnLXRuJywgJzgnLCAnLW1hJywgJzIwMCcsICctbWV0YWxfYmluZGluZycsICctaW1hZScsICc8aW5maWxlLm1hZT4nLCAnLW9tYWUnLCAnPG91dGZpbGUubWFlPic=

> <r_lp_tautomer_probability>
1

> <r_epik_Ionization_Penalty>
0.00255984

> <r_epik_Ionization_Penalty_Charging>
0.0025387

> <r_epik_Ionization_Penalty_Neutral>
2.11374e-05

> <r_epik_State_Penalty>
0.00176242

> <r_epik_Charging_Adjusted_Penalty>
0.00430112

> <i_epik_Tot_Q>
1

> <i_epik_Tot_abs_Q>
1

> <r_epik_Metal_State_Penalty>
-0

> <b_epik_Metal_Only>
0

> <s_lp_Force_Field>
OPLS_2005

> <r_lp_Energy>
17.0629

> <b_lp_Chiralities_Consistent>
1

> <s_lp_Variant>
AV-unprocessed.smi:2584-1

> <Gold.Version>
5.8.1

> <Gold.Id.Protein>
6NUR|6NUR_protein|mol2

> <Gold.PLP.Fitness>
44.9086

> <Gold.PLP.PLP>
-30.1863

> <Gold.PLP.part.hbond>
-5.7593

> <Gold.PLP.part.metal>
0.0000

> <Gold.PLP.part.buried>
-3.9174

> <Gold.PLP.part.nonpolar>
-21.2646

> <Gold.PLP.part.repulsive>
0.1668

> <Gold.PLP.ligand.clash>
0.0000

> <Gold.PLP.ligand.torsion>
0.4586

> <Gold.PLP.Chemscore.Hbond>
4.2078

> <Gold.PLP.Chemscore.CHOScore>
0.9993

> <Gold.PLP.Chemscore.Metal>
0.0000

> <Gold.Chemscore.Hbonds>
donor molecule, donor type, donor heavy atom, donor atom, acceptor molecule, acceptor atom, score
      L1  H     3    18       P1  7948  0.86
      L1  H    12    33       P1  7948  1.00
      P1  H  7989  7998       L1    15  0.55
      L1  C    14    34       P1  7957  1.00

> <Gold.PLP.Chemscore.Internal.Correction>
0.0183

> <Gold.Rescore>
     Score         DG    S(hbond)    S(metal)    S(lipo)     H(rot)  DE(clash)    DE(int)     intcor
     18.20     -20.08       3.31        0.00      66.49       1.65       0.19       1.69       ----

> <Gold.Chemscore.Fitness>
18.2006

> <Gold.Chemscore.DG>
-20.0845

> <Gold.Chemscore.ZeroCoef>
-5.4800

> <Gold.Chemscore.Hbond>
3.3079

> <Gold.Chemscore.Metal>
0.0000

> <Gold.Chemscore.Lipo>
66.4905

> <Gold.Chemscore.Internal_Hbond>
0.0000

> <Gold.Chemscore.DEClash>
0.1895

> <Gold.Chemscore.DEInternal>
1.6944

> <Gold.Chemscore.Rot>
1.6497

> <Gold.Chemscore.Internal.Correction>
   9.000000E+99

> <Gold.Chemscore.Hbonds>
donor molecule, donor type, donor heavy atom, donor atom, acceptor molecule, acceptor atom, score
      L1  H     3    18       P1  7948  0.76
      L1  H    12    33       P1  7948  0.98
      P1  H  7989  7998       L1    15  0.03

> <Gold.Chemscore.Hbond.Weighted>
-11.0483

> <Gold.Chemscore.Metal.Weighted>
-0.0000

> <Gold.Chemscore.Lipo.Weighted>
-7.7794

> <Gold.Chemscore.Internal_Hbond.Weighted>
0.0000

> <Gold.Chemscore.DEClash.Weighted>
0.1895

> <Gold.Chemscore.DEInternal.Weighted>
1.6944

> <Gold.Chemscore.Rot.Weighted>
4.2232

> <Gold.Chemscore.Internal.Correction.Weighted>
   9.000000E+99

> <Gold.Protein.RotatedTorsions>
[ 6907 6896 6895 6894 ] final  -98.07 input  -60.11 | X-H torsion
[ 7974 7965 7964 7962 ] final -122.91 input  175.53 | X-H torsion
[ 8008 7997 7996 7995 ] final  -29.46 input   59.86 | X-H torsion
[ 10167 10162 10161 10158 ] final  -25.73 input  -65.29 | X-H torsion
[ 10718 10713 10712 10709 ] final   31.68 input   66.30 | X-H torsion
[ 10763 10752 10751 10750 ] final  173.51 input  -60.55 | X-H torsion
[ 11005 11000 10999 10996 ] final   -6.69 input  -57.11 | X-H torsion

> <Gold.Protein.ActiveResidues>
 VAL166  LYS551  ARG553  GLY616  TRP617  ASP618  TYR619  PRO620  LYS621  CYS622 
 ASP623  PHE694  ASN695  SER759  ASP760  ASP761  ALA762  ILE779  LEU786  VAL792 
 PHE793  MET794  SER795  GLU796  ALA797  LYS798  CYS799  TRP800  GLU811  SER814 

> <Gold.Protein.RotatedAtoms>
  150.7035  134.1251  159.4048 H   0  0  0  0  0  0  0  0  0  0  0  0  # atno 6907 bound_to 6896
  151.9237  135.0284  160.0533 H   0  0  0  0  0  0  0  0  0  0  0  0  # atno 6908 bound_to 6896
  152.2234  133.4966  159.5212 H   0  0  0  0  0  0  0  0  0  0  0  0  # atno 6909 bound_to 6896
  145.0243  140.8015  143.4362 H   0  0  0  0  0  0  0  0  0  0  0  0  # atno 7974 bound_to 7965
  154.4289  140.1818  156.1251 H   0  0  0  0  0  0  0  0  0  0  0  0  # atno 8008 bound_to 7997
  156.0112  140.3350  155.6918 H   0  0  0  0  0  0  0  0  0  0  0  0  # atno 8009 bound_to 7997
  155.6108  140.0650  157.2697 H   0  0  0  0  0  0  0  0  0  0  0  0  # atno 8010 bound_to 7997
  140.7285  143.4239  151.0907 H   0  0  0  0  0  0  0  0  0  0  0  0  # atno 10167 bound_to 10162
  157.2756  130.7229  149.6528 H   0  0  0  0  0  0  0  0  0  0  0  0  # atno 10718 bound_to 10713
  154.4411  135.2762  155.1847 H   0  0  0  0  0  0  0  0  0  0  0  0  # atno 10763 bound_to 10752
  154.3713  135.6108  153.5745 H   0  0  0  0  0  0  0  0  0  0  0  0  # atno 10764 bound_to 10752
  152.9841  135.5858  154.4738 H   0  0  0  0  0  0  0  0  0  0  0  0  # atno 10765 bound_to 10752
  140.7047  133.8959  155.8708 H   0  0  0  0  0  0  0  0  0  0  0  0  # atno 11005 bound_to 11000
  145.1854  139.2329  143.5271 LP  0  0  0  0  0  0  0  0  0  0  0  0  # atno 17320 bound_to 7965
  146.3490  140.1637  142.8590 LP  0  0  0  0  0  0  0  0  0  0  0  0  # atno 17321 bound_to 7965
  139.7888  143.8248  152.3149 LP  0  0  0  0  0  0  0  0  0  0  0  0  # atno 17342 bound_to 10162
  139.8225  144.7289  150.9554 LP  0  0  0  0  0  0  0  0  0  0  0  0  # atno 17343 bound_to 10162
  155.9663  130.4354  150.5090 LP  0  0  0  0  0  0  0  0  0  0  0  0  # atno 17370 bound_to 10713
  157.3023  131.0647  151.2059 LP  0  0  0  0  0  0  0  0  0  0  0  0  # atno 17371 bound_to 10713
  141.0134  134.0989  157.4197 LP  0  0  0  0  0  0  0  0  0  0  0  0  # atno 17394 bound_to 11000
  139.8887  135.0100  156.6637 LP  0  0  0  0  0  0  0  0  0  0  0  0  # atno 17395 bound_to 11000

$$$$
