AV-unprocessed.smi:3166|AV-procd|sdf|12094|dock10
  -GOLD-   2272017523D 1   1.00000     0.00000
 Structure written by MMmdl.
 41 42  0  0  0  0  0  0  0  0  2 V2000
  145.5979  136.0890  150.8493 C   0  0  0  0  0  0  0  0  0  0  0  0
  145.6565  135.5384  152.2839 C   0  0  1  0  0  0  0  0  0  0  0  0
  146.1889  134.0908  152.2874 C   0  0  0  0  0  0  0  0  0  0  0  0
  145.5498  133.2475  151.2910 N   0  0  0  0  0  0  0  0  0  0  0  0
  146.1275  132.6030  150.2170 C   0  0  0  0  0  0  0  0  0  0  0  0
  145.1311  131.9483  149.5515 C   0  0  0  0  0  0  0  0  0  0  0  0
  143.9616  132.2634  150.2978 C   0  0  0  0  0  0  0  0  0  0  0  0
  144.2151  133.0444  151.3356 N   0  0  0  0  0  0  0  0  0  0  0  0
  146.5012  136.3916  153.1506 N   0  3  0  0  0  0  0  0  0  0  0  0
  146.0553  137.7950  153.2938 C   0  0  0  0  0  0  0  0  0  0  0  0
  147.2409  138.7852  153.2984 C   0  0  0  0  0  0  0  0  0  0  0  0
  147.7855  138.7904  151.9905 O   0  0  0  0  0  0  0  0  0  0  0  0
  146.7979  140.2207  153.6778 C   0  0  0  0  0  0  0  0  0  0  0  0
  147.9817  141.1946  153.8168 C   0  0  0  0  0  0  0  0  0  0  0  0
  149.0244  140.6699  154.8132 C   0  0  0  0  0  0  0  0  0  0  0  0
  149.5120  139.2711  154.4117 C   0  0  0  0  0  0  0  0  0  0  0  0
  148.3368  138.2870  154.2706 C   0  0  0  0  0  0  0  0  0  0  0  0
  145.0028  135.4389  150.2073 H   0  0  0  0  0  0  0  0  0  0  0  0
  146.5939  136.1635  150.4114 H   0  0  0  0  0  0  0  0  0  0  0  0
  145.1408  137.0774  150.8116 H   0  0  0  0  0  0  0  0  0  0  0  0
  144.6435  135.5321  152.6895 H   0  0  0  0  0  0  0  0  0  0  0  0
  147.2620  134.0837  152.0918 H   0  0  0  0  0  0  0  0  0  0  0  0
  146.0483  133.6375  153.2699 H   0  0  0  0  0  0  0  0  0  0  0  0
  147.1872  132.6625  150.0163 H   0  0  0  0  0  0  0  0  0  0  0  0
  145.2222  131.3409  148.6631 H   0  0  0  0  0  0  0  0  0  0  0  0
  142.9435  131.9523  150.1159 H   0  0  0  0  0  0  0  0  0  0  0  0
  146.4877  135.9882  154.0772 H   0  0  0  0  0  0  0  0  0  0  0  0
  145.3746  138.0430  152.4793 H   0  0  0  0  0  0  0  0  0  0  0  0
  145.4877  137.8931  154.2205 H   0  0  0  0  0  0  0  0  0  0  0  0
  147.9808  137.8986  151.7441 H   0  0  0  0  0  0  0  0  0  0  0  0
  146.0961  140.6149  152.9422 H   0  0  0  0  0  0  0  0  0  0  0  0
  146.2574  140.1913  154.6252 H   0  0  0  0  0  0  0  0  0  0  0  0
  148.4501  141.3494  152.8439 H   0  0  0  0  0  0  0  0  0  0  0  0
  147.6206  142.1713  154.1405 H   0  0  0  0  0  0  0  0  0  0  0  0
  149.8688  141.3579  154.8651 H   0  0  0  0  0  0  0  0  0  0  0  0
  148.5912  140.6350  155.8136 H   0  0  0  0  0  0  0  0  0  0  0  0
  150.0624  139.3297  153.4721 H   0  0  0  0  0  0  0  0  0  0  0  0
  150.2171  138.8989  155.1556 H   0  0  0  0  0  0  0  0  0  0  0  0
  147.8972  138.1306  155.2568 H   0  0  0  0  0  0  0  0  0  0  0  0
  148.7123  137.3133  153.9527 H   0  0  0  0  0  0  0  0  0  0  0  0
  147.4514  136.3757  152.8098 H   0  0  0  0  0  0  0  0  0  0  0  0
  1  2  1  0  0  0  0
  1 18  1  0  0  0  0
  1 19  1  0  0  0  0
  1 20  1  0  0  0  0
  2  3  1  0  0  0  0
  2  9  1  0  0  0  0
  2 21  1  0  0  0  0
  3  4  1  0  0  0  0
  3 22  1  0  0  0  0
  3 23  1  0  0  0  0
  4  8  1  0  0  0  0
  4  5  1  0  0  0  0
  5  6  2  0  0  0  0
  5 24  1  0  0  0  0
  6  7  1  0  0  0  0
  6 25  1  0  0  0  0
  7  8  2  0  0  0  0
  7 26  1  0  0  0  0
  9 10  1  0  0  0  0
  9 27  1  0  0  0  0
  9 41  1  0  0  0  0
 10 11  1  0  0  0  0
 10 28  1  0  0  0  0
 10 29  1  0  0  0  0
 11 17  1  0  0  0  0
 11 12  1  0  0  0  0
 11 13  1  0  0  0  0
 12 30  1  0  0  0  0
 13 14  1  0  0  0  0
 13 31  1  0  0  0  0
 13 32  1  0  0  0  0
 14 15  1  0  0  0  0
 14 33  1  0  0  0  0
 14 34  1  0  0  0  0
 15 16  1  0  0  0  0
 15 35  1  0  0  0  0
 15 36  1  0  0  0  0
 16 17  1  0  0  0  0
 16 37  1  0  0  0  0
 16 38  1  0  0  0  0
 17 39  1  0  0  0  0
 17 40  1  0  0  0  0
M  CHG  1   9   1
M  END
> <s_m_source_file>
AV-unprocessed.smi

> <i_m_source_file_index>
3166

> <i_lp_mmshare_version>
43012

> <i_f3d_flags>
0

> <s_epik_input>
bjFbY0hdW2NIXVtjSF1uMVtDSDJdW0NAQEhdKFtDSDNdKVtOSF1bQ0gyXUMyKFtPSF0pW0NIMl1bQ0gyXVtDSDJdW0NIMl1bQ0gyXTI=

> <s_epik_cmdline>
J2VwaWtfcHl0aG9uJywgJy1waCcsICc3LjAnLCAnLXRuJywgJzgnLCAnLW1hJywgJzIwMCcsICctbWV0YWxfYmluZGluZycsICctaW1hZScsICc8aW5maWxlLm1hZT4nLCAnLW9tYWUnLCAnPG91dGZpbGUubWFlPic=

> <r_lp_tautomer_probability>
1

> <r_epik_Ionization_Penalty>
0.0111521

> <r_epik_Ionization_Penalty_Charging>
0.0111472

> <r_epik_Ionization_Penalty_Neutral>
4.96355e-06

> <r_epik_State_Penalty>
0.00856328

> <r_epik_Charging_Adjusted_Penalty>
0.0197104

> <i_epik_Tot_Q>
1

> <i_epik_Tot_abs_Q>
1

> <r_epik_Metal_State_Penalty>
0.00856387

> <b_epik_Metal_Only>
0

> <s_lp_Force_Field>
OPLS_2005

> <r_lp_Energy>
16.9358

> <b_lp_Chiralities_Consistent>
1

> <s_lp_Variant>
AV-unprocessed.smi:3166-2

> <Gold.Version>
5.8.1

> <Gold.Id.Protein>
6NUR|6NUR_protein|mol2

> <Gold.PLP.Fitness>
46.2635

> <Gold.PLP.PLP>
-33.4255

> <Gold.PLP.part.hbond>
-2.8935

> <Gold.PLP.part.metal>
0.0000

> <Gold.PLP.part.buried>
-4.3198

> <Gold.PLP.part.nonpolar>
-28.4743

> <Gold.PLP.part.repulsive>
0.1480

> <Gold.PLP.ligand.clash>
0.0000

> <Gold.PLP.ligand.torsion>
0.4254

> <Gold.PLP.Chemscore.Hbond>
3.0000

> <Gold.PLP.Chemscore.CHOScore>
1.5476

> <Gold.PLP.Chemscore.Metal>
0.0000

> <Gold.Chemscore.Hbonds>
donor molecule, donor type, donor heavy atom, donor atom, acceptor molecule, acceptor atom, score
      L1  H     9    41       P1  7948  2.00
      L1  H    12    30       P1  7948  1.00
      L1  C     5    24       P1 10747  0.97
      L1  C     7    26       P1 10952  0.54

> <Gold.PLP.Chemscore.Internal.Correction>
0.0462

> <Gold.Rescore>
     Score         DG    S(hbond)    S(metal)    S(lipo)     H(rot)  DE(clash)    DE(int)     intcor
     16.34     -16.89       1.99        0.00      88.89       2.20       0.15       0.40       ----

> <Gold.Chemscore.Fitness>
16.3398

> <Gold.Chemscore.DG>
-16.8913

> <Gold.Chemscore.ZeroCoef>
-5.4800

> <Gold.Chemscore.Hbond>
1.9883

> <Gold.Chemscore.Metal>
0.0000

> <Gold.Chemscore.Lipo>
88.8905

> <Gold.Chemscore.Internal_Hbond>
0.0000

> <Gold.Chemscore.DEClash>
0.1494

> <Gold.Chemscore.DEInternal>
0.4021

> <Gold.Chemscore.Rot>
2.1991

> <Gold.Chemscore.Internal.Correction>
   9.000000E+99

> <Gold.Chemscore.Hbonds>
donor molecule, donor type, donor heavy atom, donor atom, acceptor molecule, acceptor atom, score
      L1  H     9    41       P1  7948  1.00
      L1  H    12    30       P1  7948  0.98

> <Gold.Chemscore.Hbond.Weighted>
-6.6409

> <Gold.Chemscore.Metal.Weighted>
-0.0000

> <Gold.Chemscore.Lipo.Weighted>
-10.4002

> <Gold.Chemscore.Internal_Hbond.Weighted>
0.0000

> <Gold.Chemscore.DEClash.Weighted>
0.1494

> <Gold.Chemscore.DEInternal.Weighted>
0.4021

> <Gold.Chemscore.Rot.Weighted>
5.6298

> <Gold.Chemscore.Internal.Correction.Weighted>
   9.000000E+99

> <Gold.Protein.RotatedTorsions>
[ 6907 6896 6895 6894 ] final  -56.62 input  -60.11 | X-H torsion
[ 7974 7965 7964 7962 ] final   35.20 input  175.53 | X-H torsion
[ 8008 7997 7996 7995 ] final  -90.23 input   59.86 | X-H torsion
[ 10167 10162 10161 10158 ] final -159.63 input  -65.29 | X-H torsion
[ 10718 10713 10712 10709 ] final    3.13 input   66.30 | X-H torsion
[ 10763 10752 10751 10750 ] final   91.15 input  -60.55 | X-H torsion
[ 11005 11000 10999 10996 ] final   37.68 input  -57.11 | X-H torsion

> <Gold.Protein.ActiveResidues>
 VAL166  LYS551  ARG553  GLY616  TRP617  ASP618  TYR619  PRO620  LYS621  CYS622 
 ASP623  PHE694  ASN695  SER759  ASP760  ASP761  ALA762  ILE779  LEU786  VAL792 
 PHE793  MET794  SER795  GLU796  ALA797  LYS798  CYS799  TRP800  GLU811  SER814 

> <Gold.Protein.RotatedAtoms>
  150.8152  134.7330  159.6723 H   0  0  0  0  0  0  0  0  0  0  0  0  # atno 6907 bound_to 6896
  152.4271  134.5844  159.9966 H   0  0  0  0  0  0  0  0  0  0  0  0  # atno 6908 bound_to 6896
  151.6043  133.3316  159.3090 H   0  0  0  0  0  0  0  0  0  0  0  0  # atno 6909 bound_to 6896
  146.1300  139.6173  142.9233 H   0  0  0  0  0  0  0  0  0  0  0  0  # atno 7974 bound_to 7965
  154.6960  140.0533  157.0411 H   0  0  0  0  0  0  0  0  0  0  0  0  # atno 8008 bound_to 7997
  155.0750  140.3203  155.4600 H   0  0  0  0  0  0  0  0  0  0  0  0  # atno 8009 bound_to 7997
  156.2744  140.2075  156.5878 H   0  0  0  0  0  0  0  0  0  0  0  0  # atno 8010 bound_to 7997
  139.6601  143.9929  152.2219 H   0  0  0  0  0  0  0  0  0  0  0  0  # atno 10167 bound_to 10162
  156.8732  130.5627  149.5656 H   0  0  0  0  0  0  0  0  0  0  0  0  # atno 10718 bound_to 10713
  153.2051  135.4408  155.0313 H   0  0  0  0  0  0  0  0  0  0  0  0  # atno 10763 bound_to 10752
  154.8169  135.3319  154.7153 H   0  0  0  0  0  0  0  0  0  0  0  0  # atno 10764 bound_to 10752
  153.7595  135.6992  153.4984 H   0  0  0  0  0  0  0  0  0  0  0  0  # atno 10765 bound_to 10752
  140.2202  134.3650  155.8008 H   0  0  0  0  0  0  0  0  0  0  0  0  # atno 11005 bound_to 11000
  145.5282  141.0428  143.2398 LP  0  0  0  0  0  0  0  0  0  0  0  0  # atno 17320 bound_to 7965
  144.7680  139.6799  143.7206 LP  0  0  0  0  0  0  0  0  0  0  0  0  # atno 17321 bound_to 7965
  139.9665  144.6522  150.8029 LP  0  0  0  0  0  0  0  0  0  0  0  0  # atno 17342 bound_to 10162
  140.7576  143.3090  151.2892 LP  0  0  0  0  0  0  0  0  0  0  0  0  # atno 17343 bound_to 10162
  156.0715  130.5747  150.9393 LP  0  0  0  0  0  0  0  0  0  0  0  0  # atno 17370 bound_to 10713
  157.6183  131.0931  150.8669 LP  0  0  0  0  0  0  0  0  0  0  0  0  # atno 17371 bound_to 10713
  141.2223  133.7189  156.8562 LP  0  0  0  0  0  0  0  0  0  0  0  0  # atno 17394 bound_to 11000
  140.1858  134.9001  157.3002 LP  0  0  0  0  0  0  0  0  0  0  0  0  # atno 17395 bound_to 11000

$$$$
