AV-unprocessed.smi:1873|AV-procd|sdf|7608|dock3
  -GOLD-   22720 9323D 1   1.00000     0.00000
 Structure written by MMmdl.
 36 38  0  0  0  0  0  0  0  0  1 V2000
  150.3803  140.2397  154.0893 O   0  0  0  0  0  0  0  0  0  0  0  0
  150.8839  139.7473  155.3163 C   0  0  1  0  0  0  0  0  0  0  0  0
  150.2830  140.5499  156.4873 C   0  0  0  0  0  0  0  0  0  0  0  0
  151.2022  140.6786  157.6037 N   0  0  0  0  0  0  0  0  0  0  0  0
  151.8783  139.6896  158.2192 C   0  0  0  0  0  0  0  0  0  0  0  0
  152.6723  140.0315  159.2301 N   0  0  0  0  0  0  0  0  0  0  0  0
  152.4910  141.4032  159.2756 C   0  0  0  0  0  0  0  0  0  0  0  0
  153.0543  142.3752  160.1333 C   0  0  0  0  0  0  0  0  0  0  0  0
  152.7162  143.7370  159.9893 C   0  0  0  0  0  0  0  0  0  0  0  0
  151.8124  144.1477  158.9877 C   0  0  0  0  0  0  0  0  0  0  0  0
  151.2379  143.1976  158.1213 C   0  0  0  0  0  0  0  0  0  0  0  0
  151.5777  141.8400  158.2690 C   0  0  0  0  0  0  0  0  0  0  0  0
  150.6321  138.2565  155.4794 C   0  0  0  0  0  0  0  0  0  0  0  0
  149.9730  137.7705  156.6276 C   0  0  0  0  0  0  0  0  0  0  0  0
  149.7323  136.3910  156.7769 C   0  0  0  0  0  0  0  0  0  0  0  0
  150.1486  135.4772  155.7877 C   0  0  0  0  0  0  0  0  0  0  0  0
  149.8707  134.1435  155.9863 O   0  0  0  0  0  0  0  0  0  0  0  0
  149.9267  133.2849  154.9331 C   0  0  0  0  0  0  0  0  0  0  0  0
  149.6177  132.0323  155.3468 F   0  0  0  0  0  0  0  0  0  0  0  0
  149.0231  133.6370  153.9858 F   0  0  0  0  0  0  0  0  0  0  0  0
  150.7970  135.9687  154.6294 C   0  0  0  0  0  0  0  0  0  0  0  0
  151.0394  137.3476  154.4798 C   0  0  0  0  0  0  0  0  0  0  0  0
  149.4823  139.9592  154.0002 H   0  0  0  0  0  0  0  0  0  0  0  0
  151.9623  139.9115  155.2976 H   0  0  0  0  0  0  0  0  0  0  0  0
  149.9919  141.5489  156.1589 H   0  0  0  0  0  0  0  0  0  0  0  0
  149.3761  140.0643  156.8499 H   0  0  0  0  0  0  0  0  0  0  0  0
  151.7794  138.6593  157.9096 H   0  0  0  0  0  0  0  0  0  0  0  0
  153.7478  142.0725  160.9038 H   0  0  0  0  0  0  0  0  0  0  0  0
  153.1529  144.4708  160.6507 H   0  0  0  0  0  0  0  0  0  0  0  0
  151.5605  145.1930  158.8849 H   0  0  0  0  0  0  0  0  0  0  0  0
  150.5449  143.5079  157.3536 H   0  0  0  0  0  0  0  0  0  0  0  0
  149.6470  138.4532  157.3985 H   0  0  0  0  0  0  0  0  0  0  0  0
  149.2251  136.0309  157.6602 H   0  0  0  0  0  0  0  0  0  0  0  0
  150.9228  133.2521  154.4912 H   0  0  0  0  0  0  0  0  0  0  0  0
  151.1089  135.2992  153.8418 H   0  0  0  0  0  0  0  0  0  0  0  0
  151.5350  137.7074  153.5899 H   0  0  0  0  0  0  0  0  0  0  0  0
  1  2  1  0  0  0  0
  1 23  1  0  0  0  0
  2  3  1  0  0  0  0
  2 13  1  0  0  0  0
  2 24  1  0  0  0  0
  3  4  1  0  0  0  0
  3 25  1  0  0  0  0
  3 26  1  0  0  0  0
  4 12  1  0  0  0  0
  4  5  1  0  0  0  0
  5  6  2  0  0  0  0
  5 27  1  0  0  0  0
  6  7  1  0  0  0  0
  7 12  2  0  0  0  0
  7  8  1  0  0  0  0
  8  9  2  0  0  0  0
  8 28  1  0  0  0  0
  9 10  1  0  0  0  0
  9 29  1  0  0  0  0
 10 11  2  0  0  0  0
 10 30  1  0  0  0  0
 11 12  1  0  0  0  0
 11 31  1  0  0  0  0
 13 22  1  0  0  0  0
 13 14  2  0  0  0  0
 14 15  1  0  0  0  0
 14 32  1  0  0  0  0
 15 16  2  0  0  0  0
 15 33  1  0  0  0  0
 16 17  1  0  0  0  0
 16 21  1  0  0  0  0
 17 18  1  0  0  0  0
 18 19  1  0  0  0  0
 18 20  1  0  0  0  0
 18 34  1  0  0  0  0
 21 22  2  0  0  0  0
 21 35  1  0  0  0  0
 22 36  1  0  0  0  0
M  END
> <s_m_source_file>
AV-unprocessed.smi

> <i_m_source_file_index>
1873

> <i_lp_mmshare_version>
43012

> <i_f3d_flags>
0

> <s_epik_input>
RltDSF0oRilPYyhbY0hdW2NIXTEpW2NIXVtjSF1jMVtDQEhdKFtPSF0pW0NIMl1uKFtjSF1uMiljKGMyMylbY0hdW2NIXVtjSF1bY0hdMw==

> <s_epik_cmdline>
J2VwaWtfcHl0aG9uJywgJy1waCcsICc3LjAnLCAnLXRuJywgJzgnLCAnLW1hJywgJzIwMCcsICctbWV0YWxfYmluZGluZycsICctaW1hZScsICc8aW5maWxlLm1hZT4nLCAnLW9tYWUnLCAnPG91dGZpbGUubWFlPic=

> <r_lp_tautomer_probability>
1

> <r_epik_Ionization_Penalty>
0.0696507

> <r_epik_Ionization_Penalty_Charging>
0

> <r_epik_Ionization_Penalty_Neutral>
0.0696507

> <r_epik_State_Penalty>
0.0610247

> <r_epik_Charging_Adjusted_Penalty>
0.0610247

> <i_epik_Tot_Q>
0

> <i_epik_Tot_abs_Q>
0

> <r_epik_Metal_State_Penalty>
6.42746e-05

> <b_epik_Metal_Only>
0

> <s_lp_Force_Field>
OPLS_2005

> <r_lp_Energy>
11.6076

> <b_lp_Chiralities_Consistent>
1

> <s_lp_Variant>
AV-unprocessed.smi:1873-2

> <Gold.Version>
5.8.1

> <Gold.Id.Protein>
6NUR|6NUR_protein|mol2

> <Gold.PLP.Fitness>
44.1215

> <Gold.PLP.PLP>
-42.4825

> <Gold.PLP.part.hbond>
-1.7800

> <Gold.PLP.part.metal>
0.0000

> <Gold.PLP.part.buried>
-4.3721

> <Gold.PLP.part.nonpolar>
-36.8045

> <Gold.PLP.part.repulsive>
0.0097

> <Gold.PLP.ligand.clash>
0.0124

> <Gold.PLP.ligand.torsion>
0.7235

> <Gold.PLP.Chemscore.Hbond>
1.0000

> <Gold.PLP.Chemscore.CHOScore>
0.0000

> <Gold.PLP.Chemscore.Metal>
0.0000

> <Gold.Chemscore.Hbonds>
donor molecule, donor type, donor heavy atom, donor atom, acceptor molecule, acceptor atom, score
      P1  H  7989  7998       L1     1  0.95

> <Gold.PLP.Chemscore.Internal.Correction>
0.0983

> <Gold.Rescore>
     Score         DG    S(hbond)    S(metal)    S(lipo)     H(rot)  DE(clash)    DE(int)     intcor
     12.97     -14.74       0.93        0.00     105.12       2.40       0.01       1.76       ----

> <Gold.Chemscore.Fitness>
12.9730

> <Gold.Chemscore.DG>
-14.7425

> <Gold.Chemscore.ZeroCoef>
-5.4800

> <Gold.Chemscore.Hbond>
0.9292

> <Gold.Chemscore.Metal>
0.0000

> <Gold.Chemscore.Lipo>
105.1240

> <Gold.Chemscore.Internal_Hbond>
0.0000

> <Gold.Chemscore.DEClash>
0.0106

> <Gold.Chemscore.DEInternal>
1.7589

> <Gold.Chemscore.Rot>
2.3986

> <Gold.Chemscore.Internal.Correction>
   9.000000E+99

> <Gold.Chemscore.Hbonds>
donor molecule, donor type, donor heavy atom, donor atom, acceptor molecule, acceptor atom, score
      P1  H  7989  7998       L1     1  0.29

> <Gold.Chemscore.Hbond.Weighted>
-3.1035

> <Gold.Chemscore.Metal.Weighted>
-0.0000

> <Gold.Chemscore.Lipo.Weighted>
-12.2995

> <Gold.Chemscore.Internal_Hbond.Weighted>
0.0000

> <Gold.Chemscore.DEClash.Weighted>
0.0106

> <Gold.Chemscore.DEInternal.Weighted>
1.7589

> <Gold.Chemscore.Rot.Weighted>
6.1405

> <Gold.Chemscore.Internal.Correction.Weighted>
   9.000000E+99

> <Gold.Protein.RotatedTorsions>
[ 6907 6896 6895 6894 ] final   72.19 input  -60.11 | X-H torsion
[ 7974 7965 7964 7962 ] final   78.34 input  175.53 | X-H torsion
[ 8008 7997 7996 7995 ] final   72.47 input   59.86 | X-H torsion
[ 10167 10162 10161 10158 ] final   15.15 input  -65.29 | X-H torsion
[ 10718 10713 10712 10709 ] final -141.60 input   66.30 | X-H torsion
[ 10763 10752 10751 10750 ] final  170.91 input  -60.55 | X-H torsion
[ 11005 11000 10999 10996 ] final   36.98 input  -57.11 | X-H torsion

> <Gold.Protein.ActiveResidues>
 VAL166  LYS551  ARG553  GLY616  TRP617  ASP618  TYR619  PRO620  LYS621  CYS622 
 ASP623  PHE694  ASN695  SER759  ASP760  ASP761  ALA762  ILE779  LEU786  VAL792 
 PHE793  MET794  SER795  GLU796  ALA797  LYS798  CYS799  TRP800  GLU811  SER814 

> <Gold.Protein.RotatedAtoms>
  152.4854  134.4608  159.9604 H   0  0  0  0  0  0  0  0  0  0  0  0  # atno 6907 bound_to 6896
  151.4606  133.3588  159.2816 H   0  0  0  0  0  0  0  0  0  0  0  0  # atno 6908 bound_to 6896
  150.8959  134.8392  159.7387 H   0  0  0  0  0  0  0  0  0  0  0  0  # atno 6909 bound_to 6896
  145.6785  139.2517  143.1828 H   0  0  0  0  0  0  0  0  0  0  0  0  # atno 7974 bound_to 7965
  155.7693  140.3484  155.5238 H   0  0  0  0  0  0  0  0  0  0  0  0  # atno 8008 bound_to 7997
  155.8837  140.1006  157.1488 H   0  0  0  0  0  0  0  0  0  0  0  0  # atno 8009 bound_to 7997
  154.4027  140.1317  156.4216 H   0  0  0  0  0  0  0  0  0  0  0  0  # atno 8010 bound_to 7997
  140.5887  143.8838  150.6854 H   0  0  0  0  0  0  0  0  0  0  0  0  # atno 10167 bound_to 10162
  156.3360  130.7611  151.1738 H   0  0  0  0  0  0  0  0  0  0  0  0  # atno 10718 bound_to 10713
  154.4043  135.2755  155.2077 H   0  0  0  0  0  0  0  0  0  0  0  0  # atno 10763 bound_to 10752
  154.4089  135.6027  153.5944 H   0  0  0  0  0  0  0  0  0  0  0  0  # atno 10764 bound_to 10752
  152.9831  135.5944  154.4316 H   0  0  0  0  0  0  0  0  0  0  0  0  # atno 10765 bound_to 10752
  140.2271  134.3571  155.7979 H   0  0  0  0  0  0  0  0  0  0  0  0  # atno 11005 bound_to 11000
  146.0985  140.7572  142.9561 LP  0  0  0  0  0  0  0  0  0  0  0  0  # atno 17320 bound_to 7965
  144.7034  140.3749  143.7138 LP  0  0  0  0  0  0  0  0  0  0  0  0  # atno 17321 bound_to 7965
  140.2356  143.3703  152.1530 LP  0  0  0  0  0  0  0  0  0  0  0  0  # atno 17342 bound_to 10162
  139.5214  144.7045  151.5395 LP  0  0  0  0  0  0  0  0  0  0  0  0  # atno 17343 bound_to 10162
  157.7439  131.0468  150.4912 LP  0  0  0  0  0  0  0  0  0  0  0  0  # atno 17370 bound_to 10713
  156.5085  130.4133  149.6314 LP  0  0  0  0  0  0  0  0  0  0  0  0  # atno 17371 bound_to 10713
  141.2220  133.7225  156.8671 LP  0  0  0  0  0  0  0  0  0  0  0  0  # atno 17394 bound_to 11000
  140.1789  134.9047  157.2924 LP  0  0  0  0  0  0  0  0  0  0  0  0  # atno 17395 bound_to 11000

$$$$
