AV-unprocessed.smi:2199|AV-procd|sdf|8923|dock1
  -GOLD-   2272012143D 1   1.00000     0.00000
 Structure written by MMmdl.
 26 27  0  0  0  0  0  0  0  0  1 V2000
  150.7873  141.3323  158.2235 O   0  0  0  0  0  0  0  0  0  0  0  0
  150.5001  142.1340  157.3347 C   0  0  0  0  0  0  0  0  0  0  0  0
  149.7908  141.6498  156.0650 C   0  0  0  0  0  0  0  0  0  0  0  0
  150.4734  140.4960  155.4635 N   0  0  0  0  0  0  0  0  0  0  0  0
  151.7625  140.1640  155.8564 C   0  0  0  0  0  0  0  0  0  0  0  0
  152.4490  139.1118  155.3513 C   0  0  0  0  0  0  0  0  0  0  0  0
  151.8442  138.2522  154.3397 C   0  0  0  0  0  0  0  0  0  0  0  0
  152.3844  137.2768  153.8231 O   0  0  0  0  0  0  0  0  0  0  0  0
  150.5470  138.6179  153.9708 N   0  0  0  0  0  0  0  0  0  0  0  0
  149.8339  139.7010  154.4866 C   0  0  0  0  0  0  0  0  0  0  0  0
  148.6929  139.9338  154.0900 O   0  0  0  0  0  0  0  0  0  0  0  0
  150.7769  143.4450  157.4007 N   0  0  0  0  0  0  0  0  0  0  0  0
  151.4359  144.0993  158.4840 C   0  0  0  0  0  0  0  0  0  0  0  0
  152.7579  144.7764  158.1948 C   0  0  0  0  0  0  0  0  0  0  0  0
  152.7306  143.4975  158.9856 C   0  0  0  0  0  0  0  0  0  0  0  0
  150.0865  138.0512  153.2735 H   0  0  0  0  0  0  0  0  0  0  0  0
  148.7536  141.4009  156.2976 H   0  0  0  0  0  0  0  0  0  0  0  0
  149.7304  142.4752  155.3536 H   0  0  0  0  0  0  0  0  0  0  0  0
  152.2498  140.7706  156.6068 H   0  0  0  0  0  0  0  0  0  0  0  0
  153.4511  138.9042  155.6981 H   0  0  0  0  0  0  0  0  0  0  0  0
  150.5025  144.0243  156.6206 H   0  0  0  0  0  0  0  0  0  0  0  0
  150.8094  144.5781  159.2353 H   0  0  0  0  0  0  0  0  0  0  0  0
  153.1438  144.7289  157.1781 H   0  0  0  0  0  0  0  0  0  0  0  0
  152.9769  145.6963  158.7331 H   0  0  0  0  0  0  0  0  0  0  0  0
  152.9326  143.5621  160.0530 H   0  0  0  0  0  0  0  0  0  0  0  0
  153.0967  142.5964  158.4970 H   0  0  0  0  0  0  0  0  0  0  0  0
  1  2  2  0  0  0  0
  2  3  1  0  0  0  0
  2 12  1  0  0  0  0
  3  4  1  0  0  0  0
  3 17  1  0  0  0  0
  3 18  1  0  0  0  0
  4 10  1  0  0  0  0
  4  5  1  0  0  0  0
  5  6  2  0  0  0  0
  5 19  1  0  0  0  0
  6  7  1  0  0  0  0
  6 20  1  0  0  0  0
  7  8  2  0  0  0  0
  7  9  1  0  0  0  0
  9 16  1  0  0  0  0
  9 10  1  0  0  0  0
 10 11  2  0  0  0  0
 12 13  1  0  0  0  0
 12 21  1  0  0  0  0
 13 15  1  0  0  0  0
 13 14  1  0  0  0  0
 13 22  1  0  0  0  0
 14 15  1  0  0  0  0
 14 23  1  0  0  0  0
 14 24  1  0  0  0  0
 15 25  1  0  0  0  0
 15 26  1  0  0  0  0
M  END
> <s_m_source_file>
AV-unprocessed.smi

> <i_m_source_file_index>
2199

> <i_lp_mmshare_version>
43012

> <i_f3d_flags>
0

> <s_epik_input>
W0NIMl0xW0NIMl1bQ0hdMVtOSF1DKD1PKVtDSDJdbjJbY0hdW2NIXWMoPU8pW25IXWMyPU8=

> <s_epik_cmdline>
J2VwaWtfcHl0aG9uJywgJy1waCcsICc3LjAnLCAnLXRuJywgJzgnLCAnLW1hJywgJzIwMCcsICctbWV0YWxfYmluZGluZycsICctaW1hZScsICc8aW5maWxlLm1hZT4nLCAnLW9tYWUnLCAnPG91dGZpbGUubWFlPic=

> <r_lp_tautomer_probability>
0.999537

> <r_epik_Ionization_Penalty>
0.00328918

> <r_epik_Ionization_Penalty_Charging>
0.00328916

> <r_epik_Ionization_Penalty_Neutral>
2.06703e-08

> <r_epik_State_Penalty>
0.00232387

> <r_epik_Charging_Adjusted_Penalty>
0.00561303

> <i_epik_Tot_Q>
0

> <i_epik_Tot_abs_Q>
0

> <r_epik_Metal_State_Penalty>
0.365273

> <b_epik_Metal_Only>
0

> <s_lp_Force_Field>
OPLS_2005

> <r_lp_Energy>
17.907

> <b_lp_Chiralities_Consistent>
1

> <s_lp_Variant>
AV-unprocessed.smi:2199-1

> <Gold.Version>
5.8.1

> <Gold.Id.Protein>
6NUR|6NUR_protein|mol2

> <Gold.PLP.Fitness>
38.9081

> <Gold.PLP.PLP>
-34.3214

> <Gold.PLP.part.hbond>
-2.0073

> <Gold.PLP.part.metal>
0.0000

> <Gold.PLP.part.buried>
-5.0544

> <Gold.PLP.part.nonpolar>
-29.5631

> <Gold.PLP.part.repulsive>
1.8704

> <Gold.PLP.ligand.clash>
0.0000

> <Gold.PLP.ligand.torsion>
0.3183

> <Gold.PLP.Chemscore.Hbond>
1.7280

> <Gold.PLP.Chemscore.CHOScore>
0.0000

> <Gold.PLP.Chemscore.Metal>
0.0000

> <Gold.Chemscore.Hbonds>
donor molecule, donor type, donor heavy atom, donor atom, acceptor molecule, acceptor atom, score
      L1  H    12    21       P1  8028  0.86
      P1  H 10752 10765       L1     8  0.86

> <Gold.PLP.Chemscore.Internal.Correction>
0.0394

> <Gold.Rescore>
     Score         DG    S(hbond)    S(metal)    S(lipo)     H(rot)  DE(clash)    DE(int)     intcor
     12.02     -14.27       1.82        0.00      62.27       1.78       0.57       1.68       ----

> <Gold.Chemscore.Fitness>
12.0232

> <Gold.Chemscore.DG>
-14.2721

> <Gold.Chemscore.ZeroCoef>
-5.4800

> <Gold.Chemscore.Hbond>
1.8174

> <Gold.Chemscore.Metal>
0.0000

> <Gold.Chemscore.Lipo>
62.2666

> <Gold.Chemscore.Internal_Hbond>
0.0000

> <Gold.Chemscore.DEClash>
0.5668

> <Gold.Chemscore.DEInternal>
1.6821

> <Gold.Chemscore.Rot>
1.7825

> <Gold.Chemscore.Internal.Correction>
   9.000000E+99

> <Gold.Chemscore.Hbonds>
donor molecule, donor type, donor heavy atom, donor atom, acceptor molecule, acceptor atom, score
      L1  H    12    21       P1  8028  0.83
      P1  H 10752 10765       L1     8  0.85

> <Gold.Chemscore.Hbond.Weighted>
-6.0701

> <Gold.Chemscore.Metal.Weighted>
-0.0000

> <Gold.Chemscore.Lipo.Weighted>
-7.2852

> <Gold.Chemscore.Internal_Hbond.Weighted>
0.0000

> <Gold.Chemscore.DEClash.Weighted>
0.5668

> <Gold.Chemscore.DEInternal.Weighted>
1.6821

> <Gold.Chemscore.Rot.Weighted>
4.5632

> <Gold.Chemscore.Internal.Correction.Weighted>
   9.000000E+99

> <Gold.Protein.RotatedTorsions>
[ 6907 6896 6895 6894 ] final  169.71 input  -60.11 | X-H torsion
[ 7974 7965 7964 7962 ] final   83.42 input  175.53 | X-H torsion
[ 8008 7997 7996 7995 ] final   84.41 input   59.86 | X-H torsion
[ 10167 10162 10161 10158 ] final -138.63 input  -65.29 | X-H torsion
[ 10718 10713 10712 10709 ] final -128.39 input   66.30 | X-H torsion
[ 10763 10752 10751 10750 ] final  148.73 input  -60.55 | X-H torsion
[ 11005 11000 10999 10996 ] final  -73.25 input  -57.11 | X-H torsion

> <Gold.Protein.ActiveResidues>
 VAL166  LYS551  ARG553  GLY616  TRP617  ASP618  TYR619  PRO620  LYS621  CYS622 
 ASP623  PHE694  ASN695  SER759  ASP760  ASP761  ALA762  ILE779  LEU786  VAL792 
 PHE793  MET794  SER795  GLU796  ALA797  LYS798  CYS799  TRP800  GLU811  SER814 

> <Gold.Protein.RotatedAtoms>
  151.8276  133.3403  159.3603 H   0  0  0  0  0  0  0  0  0  0  0  0  # atno 6907 bound_to 6896
  150.7274  134.5514  159.5806 H   0  0  0  0  0  0  0  0  0  0  0  0  # atno 6908 bound_to 6896
  152.2960  134.7668  160.0419 H   0  0  0  0  0  0  0  0  0  0  0  0  # atno 6909 bound_to 6896
  145.6121  139.2370  143.2186 H   0  0  0  0  0  0  0  0  0  0  0  0  # atno 7974 bound_to 7965
  155.9366  140.3411  155.6293 H   0  0  0  0  0  0  0  0  0  0  0  0  # atno 8008 bound_to 7997
  155.7091  140.0769  157.2397 H   0  0  0  0  0  0  0  0  0  0  0  0  # atno 8009 bound_to 7997
  154.4095  140.1626  156.2264 H   0  0  0  0  0  0  0  0  0  0  0  0  # atno 8010 bound_to 7997
  139.8459  143.7262  152.2661 H   0  0  0  0  0  0  0  0  0  0  0  0  # atno 10167 bound_to 10162
  156.1946  130.6818  151.0466 H   0  0  0  0  0  0  0  0  0  0  0  0  # atno 10718 bound_to 10713
  154.0595  135.2875  155.3327 H   0  0  0  0  0  0  0  0  0  0  0  0  # atno 10763 bound_to 10752
  154.6817  135.5260  153.8276 H   0  0  0  0  0  0  0  0  0  0  0  0  # atno 10764 bound_to 10752
  153.0528  135.6583  154.0785 H   0  0  0  0  0  0  0  0  0  0  0  0  # atno 10765 bound_to 10752
  141.1620  133.6872  156.7182 H   0  0  0  0  0  0  0  0  0  0  0  0  # atno 11005 bound_to 11000
  146.1496  140.6943  142.9328 LP  0  0  0  0  0  0  0  0  0  0  0  0  # atno 17320 bound_to 7965
  144.7265  140.4542  143.6969 LP  0  0  0  0  0  0  0  0  0  0  0  0  # atno 17321 bound_to 7965
  139.7513  144.7533  151.0502 LP  0  0  0  0  0  0  0  0  0  0  0  0  # atno 17342 bound_to 10162
  140.7793  143.4857  150.9960 LP  0  0  0  0  0  0  0  0  0  0  0  0  # atno 17343 bound_to 10162
  157.6950  131.0797  150.6996 LP  0  0  0  0  0  0  0  0  0  0  0  0  # atno 17370 bound_to 10713
  156.7053  130.4635  149.5562 LP  0  0  0  0  0  0  0  0  0  0  0  0  # atno 17371 bound_to 10713
  140.2836  134.8297  157.3955 LP  0  0  0  0  0  0  0  0  0  0  0  0  # atno 17394 bound_to 11000
  140.1411  134.4971  155.8031 LP  0  0  0  0  0  0  0  0  0  0  0  0  # atno 17395 bound_to 11000

$$$$
