AV-unprocessed.smi:227|AV-procd|sdf|1731|dock4
  -GOLD-   2262020223D 1   1.00000     0.00000
 Structure written by MMmdl.
 54 58  0  0  0  0  0  0  0  0  1 V2000
  150.9789  136.8102  158.7287 O   0  0  0  0  0  0  0  0  0  0  0  0
  149.9455  137.6165  158.1993 C   0  0  0  0  0  0  0  0  0  0  0  0
  149.3472  137.0147  156.9003 C   0  0  2  0  0  0  0  0  0  0  0  0
  149.3253  135.4626  156.9203 C   0  0  0  0  0  0  0  0  0  0  0  0
  148.6830  134.8714  155.7607 N   0  0  0  0  0  0  0  0  0  0  0  0
  149.3098  134.2939  154.6818 C   0  0  0  0  0  0  0  0  0  0  0  0
  148.5116  133.8539  153.7485 N   0  0  0  0  0  0  0  0  0  0  0  0
  147.2364  134.1538  154.2149 C   0  0  0  0  0  0  0  0  0  0  0  0
  145.9184  133.9882  153.6973 C   0  0  0  0  0  0  0  0  0  0  0  0
  145.6442  133.4542  152.4760 N   0  0  0  0  0  0  0  0  0  0  0  0
  144.2730  133.3021  152.0134 C   0  0  2  0  0  0  0  0  0  0  0  0
  144.4525  132.4701  150.7321 C   0  0  0  0  0  0  0  0  0  0  0  0
  145.7880  133.0186  150.2027 C   0  0  0  0  0  0  0  0  0  0  0  0
  146.1126  134.0948  151.2547 C   0  0  1  0  0  0  0  0  0  0  0  0
  145.1589  135.2970  151.0349 C   0  0  2  0  0  0  0  0  0  0  0  0
  145.6360  136.6119  151.6830 C   0  0  0  0  0  0  0  0  0  0  0  0
  146.4753  137.3167  150.7933 O   0  0  0  0  0  0  0  0  0  0  0  0
  143.8515  134.7366  151.6314 C   0  0  0  0  0  0  0  0  0  0  0  0
  144.8862  134.3891  154.4866 N   0  0  0  0  0  0  0  0  0  0  0  0
  145.1184  134.9467  155.6777 C   0  0  0  0  0  0  0  0  0  0  0  0
  146.2882  135.1928  156.2685 N   0  0  0  0  0  0  0  0  0  0  0  0
  147.3289  134.7724  155.4946 C   0  0  0  0  0  0  0  0  0  0  0  0
  150.1044  137.5222  155.6446 C   0  0  2  0  0  0  0  0  0  0  0  0
  151.6027  137.2623  155.6440 C   0  0  0  0  0  0  0  0  0  0  0  0
  152.1080  138.2473  154.5954 C   0  0  0  0  0  0  0  0  0  0  0  0
  151.2225  139.3591  154.6498 O   0  0  0  0  0  0  0  0  0  0  0  0
  150.0976  139.0451  155.4634 C   0  0  0  0  0  0  0  0  0  0  0  0
  151.6425  136.6971  158.0651 H   0  0  0  0  0  0  0  0  0  0  0  0
  149.1958  137.6975  158.9842 H   0  0  0  0  0  0  0  0  0  0  0  0
  150.3201  138.6253  158.0223 H   0  0  0  0  0  0  0  0  0  0  0  0
  148.3167  137.3639  156.8158 H   0  0  0  0  0  0  0  0  0  0  0  0
  150.3384  135.0634  156.9660 H   0  0  0  0  0  0  0  0  0  0  0  0
  148.8161  135.1074  157.8168 H   0  0  0  0  0  0  0  0  0  0  0  0
  150.3848  134.2201  154.6038 H   0  0  0  0  0  0  0  0  0  0  0  0
  143.5970  132.8279  152.7259 H   0  0  0  0  0  0  0  0  0  0  0  0
  144.5386  131.4078  150.9637 H   0  0  0  0  0  0  0  0  0  0  0  0
  143.6300  132.6002  150.0277 H   0  0  0  0  0  0  0  0  0  0  0  0
  146.5483  132.2363  150.2027 H   0  0  0  0  0  0  0  0  0  0  0  0
  145.7146  133.4161  149.1899 H   0  0  0  0  0  0  0  0  0  0  0  0
  147.1659  134.3680  151.2337 H   0  0  0  0  0  0  0  0  0  0  0  0
  145.0420  135.4749  149.9645 H   0  0  0  0  0  0  0  0  0  0  0  0
  144.8019  137.2565  151.9577 H   0  0  0  0  0  0  0  0  0  0  0  0
  146.1954  136.4037  152.5953 H   0  0  0  0  0  0  0  0  0  0  0  0
  147.3719  137.1968  151.0670 H   0  0  0  0  0  0  0  0  0  0  0  0
  143.0223  134.7573  150.9232 H   0  0  0  0  0  0  0  0  0  0  0  0
  143.5452  135.2976  152.5155 H   0  0  0  0  0  0  0  0  0  0  0  0
  144.2416  135.2433  156.2338 H   0  0  0  0  0  0  0  0  0  0  0  0
  149.6732  137.0654  154.7521 H   0  0  0  0  0  0  0  0  0  0  0  0
  152.0318  137.5018  156.6180 H   0  0  0  0  0  0  0  0  0  0  0  0
  151.8685  136.2346  155.3968 H   0  0  0  0  0  0  0  0  0  0  0  0
  153.1403  138.5494  154.7724 H   0  0  0  0  0  0  0  0  0  0  0  0
  152.0491  137.8063  153.5997 H   0  0  0  0  0  0  0  0  0  0  0  0
  149.1767  139.4090  155.0072 H   0  0  0  0  0  0  0  0  0  0  0  0
  150.2206  139.5494  156.4230 H   0  0  0  0  0  0  0  0  0  0  0  0
  1  2  1  0  0  0  0
  1 28  1  0  0  0  0
  2  3  1  0  0  0  0
  2 29  1  0  0  0  0
  2 30  1  0  0  0  0
  3  4  1  0  0  0  0
  3 23  1  0  0  0  0
  3 31  1  0  0  0  0
  4  5  1  0  0  0  0
  4 32  1  0  0  0  0
  4 33  1  0  0  0  0
  5 22  1  0  0  0  0
  5  6  1  0  0  0  0
  6  7  2  0  0  0  0
  6 34  1  0  0  0  0
  7  8  1  0  0  0  0
  8 22  2  0  0  0  0
  8  9  1  0  0  0  0
  9 10  1  0  0  0  0
  9 19  2  0  0  0  0
 10 14  1  0  0  0  0
 10 11  1  0  0  0  0
 11 18  1  0  0  0  0
 11 12  1  0  0  0  0
 11 35  1  0  0  0  0
 12 13  1  0  0  0  0
 12 36  1  0  0  0  0
 12 37  1  0  0  0  0
 13 14  1  0  0  0  0
 13 38  1  0  0  0  0
 13 39  1  0  0  0  0
 14 15  1  0  0  0  0
 14 40  1  0  0  0  0
 15 16  1  0  0  0  0
 15 18  1  0  0  0  0
 15 41  1  0  0  0  0
 16 17  1  0  0  0  0
 16 42  1  0  0  0  0
 16 43  1  0  0  0  0
 17 44  1  0  0  0  0
 18 45  1  0  0  0  0
 18 46  1  0  0  0  0
 19 20  1  0  0  0  0
 20 21  2  0  0  0  0
 20 47  1  0  0  0  0
 21 22  1  0  0  0  0
 23 27  1  0  0  0  0
 23 24  1  0  0  0  0
 23 48  1  0  0  0  0
 24 25  1  0  0  0  0
 24 49  1  0  0  0  0
 24 50  1  0  0  0  0
 25 26  1  0  0  0  0
 25 51  1  0  0  0  0
 25 52  1  0  0  0  0
 26 27  1  0  0  0  0
 27 53  1  0  0  0  0
 27 54  1  0  0  0  0
M  END
> <s_m_source_file>
AV-unprocessed.smi

> <i_m_source_file_index>
227

> <i_lp_mmshare_version>
43012

> <i_f3d_flags>
0

> <s_epik_input>
W0NIMl0xT1tDSDJdW0NIMl1bQ0BIXTFbQ0BIXShbQ0gyXVtPSF0pW0NIMl1uKFtjSF1uMiljKGMyMyluW2NIXW5jM04oW0NASF00NSlbQ0BASF0oW0NIMl1bQ0gyXTQpW0NASF0oW0NIMl01KVtDSDJdW09IXQ==

> <s_epik_cmdline>
J2VwaWtfcHl0aG9uJywgJy1waCcsICc3LjAnLCAnLXRuJywgJzgnLCAnLW1hJywgJzIwMCcsICctbWV0YWxfYmluZGluZycsICctaW1hZScsICc8aW5maWxlLm1hZT4nLCAnLW9tYWUnLCAnPG91dGZpbGUubWFlPic=

> <r_lp_tautomer_probability>
1

> <r_epik_Ionization_Penalty>
0.0055791

> <r_epik_Ionization_Penalty_Charging>
0

> <r_epik_Ionization_Penalty_Neutral>
0.0055791

> <r_epik_State_Penalty>
0.00401299

> <r_epik_Charging_Adjusted_Penalty>
0.00401299

> <i_epik_Tot_Q>
0

> <i_epik_Tot_abs_Q>
0

> <r_epik_Metal_State_Penalty>
-0

> <b_epik_Metal_Only>
0

> <s_lp_Force_Field>
OPLS_2005

> <r_lp_Energy>
88.0051

> <b_lp_Chiralities_Consistent>
1

> <s_lp_Variant>
AV-unprocessed.smi:227-5

> <Gold.Version>
5.8.1

> <Gold.Id.Protein>
6NUR|6NUR_protein|mol2

> <Gold.PLP.Fitness>
42.8715

> <Gold.PLP.PLP>
-35.4150

> <Gold.PLP.part.hbond>
-4.9235

> <Gold.PLP.part.metal>
0.0000

> <Gold.PLP.part.buried>
-7.2338

> <Gold.PLP.part.nonpolar>
-24.8018

> <Gold.PLP.part.repulsive>
1.1142

> <Gold.PLP.ligand.clash>
0.0000

> <Gold.PLP.ligand.torsion>
0.8800

> <Gold.PLP.Chemscore.Hbond>
2.9920

> <Gold.PLP.Chemscore.CHOScore>
0.0000

> <Gold.PLP.Chemscore.Metal>
0.0000

> <Gold.Chemscore.Hbonds>
donor molecule, donor type, donor heavy atom, donor atom, acceptor molecule, acceptor atom, score
      L1  H    17    44       P1  7948  1.00
      P1  H  6896  6907       L1     1  0.92
      P1  H  7989  7998       L1    26  1.00

> <Gold.PLP.Chemscore.Internal.Correction>
0.2405

> <Gold.Rescore>
     Score         DG    S(hbond)    S(metal)    S(lipo)     H(rot)  DE(clash)    DE(int)     intcor
     12.28     -13.92       2.55        0.00      78.21       3.61       0.31       1.33       ----

> <Gold.Chemscore.Fitness>
12.2800

> <Gold.Chemscore.DG>
-13.9211

> <Gold.Chemscore.ZeroCoef>
-5.4800

> <Gold.Chemscore.Hbond>
2.5521

> <Gold.Chemscore.Metal>
0.0000

> <Gold.Chemscore.Lipo>
78.2150

> <Gold.Chemscore.Internal_Hbond>
0.0000

> <Gold.Chemscore.DEClash>
0.3080

> <Gold.Chemscore.DEInternal>
1.3331

> <Gold.Chemscore.Rot>
3.6071

> <Gold.Chemscore.Internal.Correction>
   9.000000E+99

> <Gold.Chemscore.Hbonds>
donor molecule, donor type, donor heavy atom, donor atom, acceptor molecule, acceptor atom, score
      L1  H    17    44       P1  7948  0.97
      P1  H  6896  6907       L1     1  0.33
      P1  H  7989  7998       L1    26  0.92

> <Gold.Chemscore.Hbond.Weighted>
-8.5241

> <Gold.Chemscore.Metal.Weighted>
-0.0000

> <Gold.Chemscore.Lipo.Weighted>
-9.1512

> <Gold.Chemscore.Internal_Hbond.Weighted>
0.0000

> <Gold.Chemscore.DEClash.Weighted>
0.3080

> <Gold.Chemscore.DEInternal.Weighted>
1.3331

> <Gold.Chemscore.Rot.Weighted>
9.2342

> <Gold.Chemscore.Internal.Correction.Weighted>
   9.000000E+99

> <Gold.Protein.RotatedTorsions>
[ 6907 6896 6895 6894 ] final  -27.04 input  -60.11 | X-H torsion
[ 7974 7965 7964 7962 ] final -131.84 input  175.53 | X-H torsion
[ 8008 7997 7996 7995 ] final   73.52 input   59.86 | X-H torsion
[ 10167 10162 10161 10158 ] final   45.67 input  -65.29 | X-H torsion
[ 10718 10713 10712 10709 ] final   59.48 input   66.30 | X-H torsion
[ 10763 10752 10751 10750 ] final -135.50 input  -60.55 | X-H torsion
[ 11005 11000 10999 10996 ] final  -24.67 input  -57.11 | X-H torsion

> <Gold.Protein.ActiveResidues>
 VAL166  LYS551  ARG553  GLY616  TRP617  ASP618  TYR619  PRO620  LYS621  CYS622 
 ASP623  PHE694  ASN695  SER759  ASP760  ASP761  ALA762  ILE779  LEU786  VAL792 
 PHE793  MET794  SER795  GLU796  ALA797  LYS798  CYS799  TRP800  GLU811  SER814 

> <Gold.Protein.RotatedAtoms>
  151.1525  135.0234  159.8674 H   0  0  0  0  0  0  0  0  0  0  0  0  # atno 6907 bound_to 6896
  152.5452  134.1372  159.8474 H   0  0  0  0  0  0  0  0  0  0  0  0  # atno 6908 bound_to 6896
  151.1458  133.4894  159.2628 H   0  0  0  0  0  0  0  0  0  0  0  0  # atno 6909 bound_to 6896
  144.9341  140.7163  143.4887 H   0  0  0  0  0  0  0  0  0  0  0  0  # atno 7974 bound_to 7965
  155.7849  140.3481  155.5317 H   0  0  0  0  0  0  0  0  0  0  0  0  # atno 8008 bound_to 7997
  155.8692  140.0984  157.1582 H   0  0  0  0  0  0  0  0  0  0  0  0  # atno 8009 bound_to 7997
  154.4016  140.1344  156.4044 H   0  0  0  0  0  0  0  0  0  0  0  0  # atno 8010 bound_to 7997
  140.3218  144.2696  150.6181 H   0  0  0  0  0  0  0  0  0  0  0  0  # atno 10167 bound_to 10162
  157.5679  130.8885  149.9217 H   0  0  0  0  0  0  0  0  0  0  0  0  # atno 10718 bound_to 10713
  154.8702  135.3701  154.4909 H   0  0  0  0  0  0  0  0  0  0  0  0  # atno 10763 bound_to 10752
  153.5555  135.7024  153.5576 H   0  0  0  0  0  0  0  0  0  0  0  0  # atno 10764 bound_to 10752
  153.3675  135.4030  155.1728 H   0  0  0  0  0  0  0  0  0  0  0  0  # atno 10765 bound_to 10752
  140.8866  133.7617  156.0368 H   0  0  0  0  0  0  0  0  0  0  0  0  # atno 11005 bound_to 11000
  145.3095  139.1823  143.4646 LP  0  0  0  0  0  0  0  0  0  0  0  0  # atno 17320 bound_to 7965
  146.3259  140.3097  142.8626 LP  0  0  0  0  0  0  0  0  0  0  0  0  # atno 17321 bound_to 7965
  140.5477  143.2212  151.7980 LP  0  0  0  0  0  0  0  0  0  0  0  0  # atno 17342 bound_to 10162
  139.4873  144.4518  151.9645 LP  0  0  0  0  0  0  0  0  0  0  0  0  # atno 17343 bound_to 10162
  156.0726  130.3683  150.0745 LP  0  0  0  0  0  0  0  0  0  0  0  0  # atno 17370 bound_to 10713
  156.8901  130.9586  151.3589 LP  0  0  0  0  0  0  0  0  0  0  0  0  # atno 17371 bound_to 10713
  140.8397  134.3081  157.5318 LP  0  0  0  0  0  0  0  0  0  0  0  0  # atno 17394 bound_to 11000
  139.8725  134.9409  156.3782 LP  0  0  0  0  0  0  0  0  0  0  0  0  # atno 17395 bound_to 11000

$$$$
