AV-unprocessed.smi:2731|AV-procd|sdf|10531|dock5
  -GOLD-   2272014573D 1   1.00000     0.00000
 Structure written by MMmdl.
 46 47  0  0  0  0  0  0  0  0  2 V2000
  149.1945  141.5702  155.3585 C   0  0  0  0  0  0  0  0  0  0  0  0
  150.2169  141.8886  156.3964 C   0  0  0  0  0  0  0  0  0  0  0  0
  150.6261  143.1471  156.7092 N   0  3  0  0  0  0  0  0  0  0  0  0
  151.5660  143.1058  157.6643 N   0  0  0  0  0  0  0  0  0  0  0  0
  152.1431  144.3621  158.1436 C   0  0  0  0  0  0  0  0  0  0  0  0
  151.8129  141.8140  158.0253 C   0  0  0  0  0  0  0  0  0  0  0  0
  152.8094  141.3867  159.0537 C   0  0  0  0  0  0  0  0  0  0  0  0
  150.9669  141.0410  157.2193 C   0  0  0  0  0  0  0  0  0  0  0  0
  150.8939  139.5373  157.2130 C   0  0  0  0  0  0  0  0  0  0  0  0
  150.7293  138.9158  158.6148 C   0  0  0  0  0  0  0  0  0  0  0  0
  149.4329  138.2639  158.7878 N   0  0  0  0  0  0  0  0  0  0  0  0
  149.2378  136.9401  158.8933 C   0  0  0  0  0  0  0  0  0  0  0  0
  150.1518  136.1175  158.8151 O   0  0  0  0  0  0  0  0  0  0  0  0
  147.7923  136.4906  159.1436 C   0  0  0  0  0  0  0  0  0  0  0  0
  147.6572  135.6703  160.3547 N   0  0  0  0  0  0  0  0  0  0  0  0
  147.5533  134.2170  160.1721 C   0  0  0  0  0  0  0  0  0  0  0  0
  146.3754  133.6509  160.9833 C   0  0  0  0  0  0  0  0  0  0  0  0
  146.4219  134.0783  162.4645 C   0  0  0  0  0  0  0  0  0  0  0  0
  147.4041  135.2328  162.7642 C   0  0  0  0  0  0  0  0  0  0  0  0
  147.5601  136.2098  161.5918 C   0  0  0  0  0  0  0  0  0  0  0  0
  147.6020  137.4199  161.8130 O   0  0  0  0  0  0  0  0  0  0  0  0
  149.6813  141.2009  154.4558 H   0  0  0  0  0  0  0  0  0  0  0  0
  148.6165  142.4588  155.1032 H   0  0  0  0  0  0  0  0  0  0  0  0
  148.5095  140.8052  155.7236 H   0  0  0  0  0  0  0  0  0  0  0  0
  151.6586  144.6413  159.0794 H   0  0  0  0  0  0  0  0  0  0  0  0
  151.9937  145.1493  157.4034 H   0  0  0  0  0  0  0  0  0  0  0  0
  153.2119  144.2274  158.3109 H   0  0  0  0  0  0  0  0  0  0  0  0
  153.7096  141.0115  158.5670 H   0  0  0  0  0  0  0  0  0  0  0  0
  152.3952  140.5950  159.6772 H   0  0  0  0  0  0  0  0  0  0  0  0
  153.0852  142.2183  159.7020 H   0  0  0  0  0  0  0  0  0  0  0  0
  150.0686  139.2043  156.5837 H   0  0  0  0  0  0  0  0  0  0  0  0
  151.7906  139.1265  156.7481 H   0  0  0  0  0  0  0  0  0  0  0  0
  151.5091  138.1715  158.7771 H   0  0  0  0  0  0  0  0  0  0  0  0
  150.8775  139.6770  159.3826 H   0  0  0  0  0  0  0  0  0  0  0  0
  148.6254  138.8672  158.8512 H   0  0  0  0  0  0  0  0  0  0  0  0
  147.1526  137.3698  159.2345 H   0  0  0  0  0  0  0  0  0  0  0  0
  147.4329  135.9558  158.2630 H   0  0  0  0  0  0  0  0  0  0  0  0
  147.4232  133.9650  159.1192 H   0  0  0  0  0  0  0  0  0  0  0  0
  148.4886  133.7531  160.4886 H   0  0  0  0  0  0  0  0  0  0  0  0
  145.4466  134.0140  160.5406 H   0  0  0  0  0  0  0  0  0  0  0  0
  146.3437  132.5641  160.9031 H   0  0  0  0  0  0  0  0  0  0  0  0
  145.4183  134.3556  162.7888 H   0  0  0  0  0  0  0  0  0  0  0  0
  146.7022  133.2204  163.0764 H   0  0  0  0  0  0  0  0  0  0  0  0
  147.0957  135.7670  163.6637 H   0  0  0  0  0  0  0  0  0  0  0  0
  148.3926  134.8224  162.9742 H   0  0  0  0  0  0  0  0  0  0  0  0
  150.3166  144.0273  156.3169 H   0  0  0  0  0  0  0  0  0  0  0  0
  1  2  1  0  0  0  0
  1 22  1  0  0  0  0
  1 23  1  0  0  0  0
  1 24  1  0  0  0  0
  2  8  1  0  0  0  0
  2  3  2  0  0  0  0
  3  4  1  0  0  0  0
  3 46  1  0  0  0  0
  4  5  1  0  0  0  0
  4  6  1  0  0  0  0
  5 25  1  0  0  0  0
  5 26  1  0  0  0  0
  5 27  1  0  0  0  0
  6  7  1  0  0  0  0
  6  8  2  0  0  0  0
  7 28  1  0  0  0  0
  7 29  1  0  0  0  0
  7 30  1  0  0  0  0
  8  9  1  0  0  0  0
  9 10  1  0  0  0  0
  9 31  1  0  0  0  0
  9 32  1  0  0  0  0
 10 11  1  0  0  0  0
 10 33  1  0  0  0  0
 10 34  1  0  0  0  0
 11 12  1  0  0  0  0
 11 35  1  0  0  0  0
 12 13  2  0  0  0  0
 12 14  1  0  0  0  0
 14 15  1  0  0  0  0
 14 36  1  0  0  0  0
 14 37  1  0  0  0  0
 15 20  1  0  0  0  0
 15 16  1  0  0  0  0
 16 17  1  0  0  0  0
 16 38  1  0  0  0  0
 16 39  1  0  0  0  0
 17 18  1  0  0  0  0
 17 40  1  0  0  0  0
 17 41  1  0  0  0  0
 18 19  1  0  0  0  0
 18 42  1  0  0  0  0
 18 43  1  0  0  0  0
 19 20  1  0  0  0  0
 19 44  1  0  0  0  0
 19 45  1  0  0  0  0
 20 21  2  0  0  0  0
M  CHG  1   3   1
M  END
> <s_m_source_file>
AV-unprocessed.smi

> <i_m_source_file_index>
2731

> <i_lp_mmshare_version>
43012

> <i_f3d_flags>
0

> <s_epik_input>
W0NIM11jMW5uKFtDSDNdKWMoW0NIM10pYzFbQ0gyXVtDSDJdW05IXUMoPU8pW0NIMl1OMltDSDJdW0NIMl1bQ0gyXVtDSDJdQzI9Tw==

> <s_epik_cmdline>
J2VwaWtfcHl0aG9uJywgJy1waCcsICc3LjAnLCAnLXRuJywgJzgnLCAnLW1hJywgJzIwMCcsICctbWV0YWxfYmluZGluZycsICctaW1hZScsICc8aW5maWxlLm1hZT4nLCAnLW9tYWUnLCAnPG91dGZpbGUubWFlPic=

> <r_lp_tautomer_probability>
1

> <r_epik_Ionization_Penalty>
2.35701

> <r_epik_Ionization_Penalty_Charging>
2.357

> <r_epik_Ionization_Penalty_Neutral>
2.49505e-07

> <r_epik_State_Penalty>
2.51177

> <r_epik_Charging_Adjusted_Penalty>
4.86877

> <i_epik_Tot_Q>
1

> <i_epik_Tot_abs_Q>
1

> <r_epik_Metal_State_Penalty>
2.52284

> <b_epik_Metal_Only>
0

> <s_lp_Force_Field>
OPLS_2005

> <r_lp_Energy>
19.064

> <b_lp_Chiralities_Consistent>
1

> <s_lp_Variant>
AV-unprocessed.smi:2731-2

> <Gold.Version>
5.8.1

> <Gold.Id.Protein>
6NUR|6NUR_protein|mol2

> <Gold.PLP.Fitness>
55.7154

> <Gold.PLP.PLP>
-43.0663

> <Gold.PLP.part.hbond>
-3.5092

> <Gold.PLP.part.metal>
0.0000

> <Gold.PLP.part.buried>
-6.2392

> <Gold.PLP.part.nonpolar>
-34.6702

> <Gold.PLP.part.repulsive>
0.2698

> <Gold.PLP.ligand.clash>
0.0000

> <Gold.PLP.ligand.torsion>
0.8035

> <Gold.PLP.Chemscore.Hbond>
4.7433

> <Gold.PLP.Chemscore.CHOScore>
0.0000

> <Gold.PLP.Chemscore.Metal>
0.0000

> <Gold.Chemscore.Hbonds>
donor molecule, donor type, donor heavy atom, donor atom, acceptor molecule, acceptor atom, score
      L1  H     3    46       P1  8028  1.60
      P1  H  6896  6907       L1    13  1.00
      P1  H  6931  6943       L1    21  0.86
      P1  H  6934  6947       L1    21  0.66

> <Gold.PLP.Chemscore.Internal.Correction>
0.0262

> <Gold.Rescore>
     Score         DG    S(hbond)    S(metal)    S(lipo)     H(rot)  DE(clash)    DE(int)     intcor
     22.27     -22.94       3.58        0.00      87.57       1.85       0.00       0.66       ----

> <Gold.Chemscore.Fitness>
22.2696

> <Gold.Chemscore.DG>
-22.9357

> <Gold.Chemscore.ZeroCoef>
-5.4800

> <Gold.Chemscore.Hbond>
3.5768

> <Gold.Chemscore.Metal>
0.0000

> <Gold.Chemscore.Lipo>
87.5667

> <Gold.Chemscore.Internal_Hbond>
0.0000

> <Gold.Chemscore.DEClash>
0.0048

> <Gold.Chemscore.DEInternal>
0.6613

> <Gold.Chemscore.Rot>
1.8501

> <Gold.Chemscore.Internal.Correction>
   9.000000E+99

> <Gold.Chemscore.Hbonds>
donor molecule, donor type, donor heavy atom, donor atom, acceptor molecule, acceptor atom, score
      L1  H     3    46       P1  8028  0.80
      P1  H  6896  6907       L1    13  0.99
      P1  H  6931  6943       L1    21  0.84
      P1  H  6934  6947       L1    21  0.66

> <Gold.Chemscore.Hbond.Weighted>
-11.9466

> <Gold.Chemscore.Metal.Weighted>
-0.0000

> <Gold.Chemscore.Lipo.Weighted>
-10.2453

> <Gold.Chemscore.Internal_Hbond.Weighted>
0.0000

> <Gold.Chemscore.DEClash.Weighted>
0.0048

> <Gold.Chemscore.DEInternal.Weighted>
0.6613

> <Gold.Chemscore.Rot.Weighted>
4.7362

> <Gold.Chemscore.Internal.Correction.Weighted>
   9.000000E+99

> <Gold.Protein.RotatedTorsions>
[ 6907 6896 6895 6894 ] final  -54.66 input  -60.11 | X-H torsion
[ 7974 7965 7964 7962 ] final  -85.10 input  175.53 | X-H torsion
[ 8008 7997 7996 7995 ] final   98.81 input   59.86 | X-H torsion
[ 10167 10162 10161 10158 ] final   95.30 input  -65.29 | X-H torsion
[ 10718 10713 10712 10709 ] final -150.98 input   66.30 | X-H torsion
[ 10763 10752 10751 10750 ] final  123.94 input  -60.55 | X-H torsion
[ 11005 11000 10999 10996 ] final   65.46 input  -57.11 | X-H torsion

> <Gold.Protein.ActiveResidues>
 VAL166  LYS551  ARG553  GLY616  TRP617  ASP618  TYR619  PRO620  LYS621  CYS622 
 ASP623  PHE694  ASN695  SER759  ASP760  ASP761  ALA762  ILE779  LEU786  VAL792 
 PHE793  MET794  SER795  GLU796  ALA797  LYS798  CYS799  TRP800  GLU811  SER814 

> <Gold.Protein.RotatedAtoms>
  150.8319  134.7575  159.6860 H   0  0  0  0  0  0  0  0  0  0  0  0  # atno 6907 bound_to 6896
  152.4422  134.5565  159.9891 H   0  0  0  0  0  0  0  0  0  0  0  0  # atno 6908 bound_to 6896
  151.5724  133.3350  159.3028 H   0  0  0  0  0  0  0  0  0  0  0  0  # atno 6909 bound_to 6896
  145.4978  140.9549  143.1776 H   0  0  0  0  0  0  0  0  0  0  0  0  # atno 7974 bound_to 7965
  156.1042  140.3238  155.7983 H   0  0  0  0  0  0  0  0  0  0  0  0  # atno 8008 bound_to 7997
  155.4785  140.0552  157.2987 H   0  0  0  0  0  0  0  0  0  0  0  0  # atno 8009 bound_to 7997
  154.4717  140.2014  155.9994 H   0  0  0  0  0  0  0  0  0  0  0  0  # atno 8010 bound_to 7997
  139.8002  144.6817  150.9776 H   0  0  0  0  0  0  0  0  0  0  0  0  # atno 10167 bound_to 10162
  156.4532  130.8178  151.2409 H   0  0  0  0  0  0  0  0  0  0  0  0  # atno 10718 bound_to 10713
  153.6535  135.3358  155.3107 H   0  0  0  0  0  0  0  0  0  0  0  0  # atno 10763 bound_to 10752
  154.8532  135.4347  154.1879 H   0  0  0  0  0  0  0  0  0  0  0  0  # atno 10764 bound_to 10752
  153.2827  135.7010  153.7444 H   0  0  0  0  0  0  0  0  0  0  0  0  # atno 10765 bound_to 10752
  139.9893  134.6617  156.0119 H   0  0  0  0  0  0  0  0  0  0  0  0  # atno 11005 bound_to 11000
  144.7797  139.6552  143.7159 LP  0  0  0  0  0  0  0  0  0  0  0  0  # atno 17320 bound_to 7965
  146.2245  139.5697  142.9596 LP  0  0  0  0  0  0  0  0  0  0  0  0  # atno 17321 bound_to 7965
  140.7820  143.4290  151.0724 LP  0  0  0  0  0  0  0  0  0  0  0  0  # atno 17342 bound_to 10162
  139.7962  143.8148  152.3158 LP  0  0  0  0  0  0  0  0  0  0  0  0  # atno 17343 bound_to 10162
  157.7502  131.0131  150.3411 LP  0  0  0  0  0  0  0  0  0  0  0  0  # atno 17370 bound_to 10713
  156.3794  130.3877  149.7113 LP  0  0  0  0  0  0  0  0  0  0  0  0  # atno 17371 bound_to 10713
  141.1552  133.6543  156.4139 LP  0  0  0  0  0  0  0  0  0  0  0  0  # atno 17394 bound_to 11000
  140.4940  134.6548  157.5222 LP  0  0  0  0  0  0  0  0  0  0  0  0  # atno 17395 bound_to 11000

$$$$
