AV-unprocessed.smi:2531|AV-procd|sdf|9965|dock5
  -GOLD-   2272014 03D 1   1.00000     0.00000
 Structure written by MMmdl.
 47 49  0  0  0  0  0  0  0  0  2 V2000
  153.0220  142.5770  159.8928 O   0  0  0  0  0  0  0  0  0  0  0  0
  152.4190  142.6255  158.8200 C   0  0  0  0  0  0  0  0  0  0  0  0
  151.6330  143.8867  158.4127 C   0  0  0  0  0  0  0  0  0  0  0  0
  152.3401  145.1823  158.8584 C   0  0  0  0  0  0  0  0  0  0  0  0
  151.6182  145.6260  160.1295 C   0  0  0  0  0  0  0  0  0  0  0  0
  150.1652  145.2366  159.8747 C   0  0  0  0  0  0  0  0  0  0  0  0
  150.2347  143.9325  159.0709 C   0  0  0  0  0  0  0  0  0  0  0  0
  152.3524  141.5212  157.9670 N   0  0  0  0  0  0  0  0  0  0  0  0
  151.1164  141.1420  157.2990 C   0  0  0  0  0  0  0  0  0  0  0  0
  151.6444  139.7025  157.3676 C   0  0  0  0  0  0  0  0  0  0  0  0
  152.4524  139.1682  155.7888 S   0  0  0  0  0  0  0  0  0  0  0  0
  151.7871  139.8579  154.6727 O   0  0  0  0  0  0  0  0  0  0  0  0
  153.9155  139.2363  155.9235 O   0  0  0  0  0  0  0  0  0  0  0  0
  152.0247  137.4972  155.7032 N   0  0  0  0  0  0  0  0  0  0  0  0
  150.8601  137.0285  156.4594 C   0  0  0  0  0  0  0  0  0  0  0  0
  149.8004  136.3963  155.5393 C   0  0  0  0  0  0  0  0  0  0  0  0
  150.1352  134.9779  155.1140 C   0  0  0  0  0  0  0  0  0  0  0  0
  150.5237  133.9892  156.0437 C   0  0  0  0  0  0  0  0  0  0  0  0
  150.8553  132.6994  155.5792 C   0  0  0  0  0  0  0  0  0  0  0  0
  150.7909  132.4254  154.1972 C   0  0  0  0  0  0  0  0  0  0  0  0
  150.3965  133.4498  153.3128 C   0  0  0  0  0  0  0  0  0  0  0  0
  150.0874  134.6728  153.7966 N   0  3  0  0  0  0  0  0  0  0  0  0
  152.6272  140.1756  158.4473 C   0  0  0  0  0  0  0  0  0  0  0  0
  151.5368  143.9073  157.3262 H   0  0  0  0  0  0  0  0  0  0  0  0
  153.4128  145.0639  159.0196 H   0  0  0  0  0  0  0  0  0  0  0  0
  152.2188  145.9434  158.0864 H   0  0  0  0  0  0  0  0  0  0  0  0
  152.0044  145.0753  160.9884 H   0  0  0  0  0  0  0  0  0  0  0  0
  151.7395  146.6903  160.3321 H   0  0  0  0  0  0  0  0  0  0  0  0
  149.5928  145.1307  160.7966 H   0  0  0  0  0  0  0  0  0  0  0  0
  149.6834  146.0097  159.2746 H   0  0  0  0  0  0  0  0  0  0  0  0
  149.4413  143.8938  158.3238 H   0  0  0  0  0  0  0  0  0  0  0  0
  150.0768  143.0843  159.7396 H   0  0  0  0  0  0  0  0  0  0  0  0
  150.2260  141.3000  157.9108 H   0  0  0  0  0  0  0  0  0  0  0  0
  151.0125  141.5514  156.2936 H   0  0  0  0  0  0  0  0  0  0  0  0
  150.9015  138.9791  157.7039 H   0  0  0  0  0  0  0  0  0  0  0  0
  151.9840  137.1797  154.7344 H   0  0  0  0  0  0  0  0  0  0  0  0
  151.1754  136.3181  157.2251 H   0  0  0  0  0  0  0  0  0  0  0  0
  150.4280  137.8800  156.9853 H   0  0  0  0  0  0  0  0  0  0  0  0
  148.8369  136.3865  156.0503 H   0  0  0  0  0  0  0  0  0  0  0  0
  149.6635  137.0146  154.6508 H   0  0  0  0  0  0  0  0  0  0  0  0
  150.5780  134.2173  157.0983 H   0  0  0  0  0  0  0  0  0  0  0  0
  151.1595  131.9306  156.2745 H   0  0  0  0  0  0  0  0  0  0  0  0
  151.0429  131.4444  153.8217 H   0  0  0  0  0  0  0  0  0  0  0  0
  150.3225  133.3305  152.2418 H   0  0  0  0  0  0  0  0  0  0  0  0
  153.6604  139.8548  158.3129 H   0  0  0  0  0  0  0  0  0  0  0  0
  152.2640  139.9932  159.4606 H   0  0  0  0  0  0  0  0  0  0  0  0
  149.8114  135.4022  153.1389 H   0  0  0  0  0  0  0  0  0  0  0  0
  1  2  2  0  0  0  0
  2  3  1  0  0  0  0
  2  8  1  0  0  0  0
  3  7  1  0  0  0  0
  3  4  1  0  0  0  0
  3 24  1  0  0  0  0
  4  5  1  0  0  0  0
  4 25  1  0  0  0  0
  4 26  1  0  0  0  0
  5  6  1  0  0  0  0
  5 27  1  0  0  0  0
  5 28  1  0  0  0  0
  6  7  1  0  0  0  0
  6 29  1  0  0  0  0
  6 30  1  0  0  0  0
  7 31  1  0  0  0  0
  7 32  1  0  0  0  0
  8 23  1  0  0  0  0
  8  9  1  0  0  0  0
  9 10  1  0  0  0  0
  9 33  1  0  0  0  0
  9 34  1  0  0  0  0
 10 11  1  0  0  0  0
 10 23  1  0  0  0  0
 10 35  1  0  0  0  0
 11 12  2  0  0  0  0
 11 13  2  0  0  0  0
 11 14  1  0  0  0  0
 14 15  1  0  0  0  0
 14 36  1  0  0  0  0
 15 16  1  0  0  0  0
 15 37  1  0  0  0  0
 15 38  1  0  0  0  0
 16 17  1  0  0  0  0
 16 39  1  0  0  0  0
 16 40  1  0  0  0  0
 17 22  1  0  0  0  0
 17 18  2  0  0  0  0
 18 19  1  0  0  0  0
 18 41  1  0  0  0  0
 19 20  2  0  0  0  0
 19 42  1  0  0  0  0
 20 21  1  0  0  0  0
 20 43  1  0  0  0  0
 21 22  2  0  0  0  0
 21 44  1  0  0  0  0
 22 47  1  0  0  0  0
 23 45  1  0  0  0  0
 23 46  1  0  0  0  0
M  CHG  1  22   1
M  END
> <s_m_source_file>
AV-unprocessed.smi

> <i_m_source_file_index>
2531

> <i_lp_mmshare_version>
43012

> <i_f3d_flags>
0

> <s_epik_input>
W0NIMl0xW0NIMl1bQ0gyXVtDSDJdW0NIXTFDKD1PKU4yW0NIMl1bQ0hdKFtDSDJdMilTKD1PKSg9TylbTkhdW0NIMl1bQ0gyXWMzW2NIXVtjSF1bY0hdW2NIXW4z

> <s_epik_cmdline>
J2VwaWtfcHl0aG9uJywgJy1waCcsICc3LjAnLCAnLXRuJywgJzgnLCAnLW1hJywgJzIwMCcsICctbWV0YWxfYmluZGluZycsICctaW1hZScsICc8aW5maWxlLm1hZT4nLCAnLW9tYWUnLCAnPG91dGZpbGUubWFlPic=

> <r_epik_Ionization_Penalty>
2.00952

> <r_epik_Ionization_Penalty_Charging>
2.00945

> <r_epik_Ionization_Penalty_Neutral>
6.7549e-05

> <r_epik_State_Penalty>
2.13885

> <r_epik_Charging_Adjusted_Penalty>
4.1483

> <i_epik_Tot_Q>
1

> <i_epik_Tot_abs_Q>
1

> <r_epik_Metal_State_Penalty>
2.25125

> <b_epik_Metal_Only>
0

> <s_lp_Force_Field>
OPLS_2005

> <r_lp_Energy>
39.4399

> <b_lp_Chiralities_Consistent>
1

> <s_lp_Variant>
AV-unprocessed.smi:2531-2

> <Gold.Version>
5.8.1

> <Gold.Id.Protein>
6NUR|6NUR_protein|mol2

> <Gold.PLP.Fitness>
53.2932

> <Gold.PLP.PLP>
-44.8891

> <Gold.PLP.part.hbond>
-2.9941

> <Gold.PLP.part.metal>
0.0000

> <Gold.PLP.part.buried>
-8.6787

> <Gold.PLP.part.nonpolar>
-32.4632

> <Gold.PLP.part.repulsive>
0.0856

> <Gold.PLP.ligand.clash>
0.0000

> <Gold.PLP.ligand.torsion>
2.6397

> <Gold.PLP.Chemscore.Hbond>
4.0000

> <Gold.PLP.Chemscore.CHOScore>
0.0000

> <Gold.PLP.Chemscore.Metal>
0.0000

> <Gold.Chemscore.Hbonds>
donor molecule, donor type, donor heavy atom, donor atom, acceptor molecule, acceptor atom, score
      L1  H    22    47       P1  7948  0.20
      P1  H  7989  7998       L1    12  1.00

> <Gold.PLP.Chemscore.Internal.Correction>
1.6836

> <Gold.Rescore>
     Score         DG    S(hbond)    S(metal)    S(lipo)     H(rot)  DE(clash)    DE(int)     intcor
     18.11     -20.79       2.86        0.00      92.41       1.97       0.01       2.67       ----

> <Gold.Chemscore.Fitness>
18.1069

> <Gold.Chemscore.DG>
-20.7851

> <Gold.Chemscore.ZeroCoef>
-5.4800

> <Gold.Chemscore.Hbond>
2.8588

> <Gold.Chemscore.Metal>
0.0000

> <Gold.Chemscore.Lipo>
92.4122

> <Gold.Chemscore.Internal_Hbond>
0.0000

> <Gold.Chemscore.DEClash>
0.0126

> <Gold.Chemscore.DEInternal>
2.6656

> <Gold.Chemscore.Rot>
1.9749

> <Gold.Chemscore.Internal.Correction>
   9.000000E+99

> <Gold.Chemscore.Hbonds>
donor molecule, donor type, donor heavy atom, donor atom, acceptor molecule, acceptor atom, score
      P1  H  7989  7998       L1    12  0.90

> <Gold.Chemscore.Hbond.Weighted>
-9.5485

> <Gold.Chemscore.Metal.Weighted>
-0.0000

> <Gold.Chemscore.Lipo.Weighted>
-10.8122

> <Gold.Chemscore.Internal_Hbond.Weighted>
0.0000

> <Gold.Chemscore.DEClash.Weighted>
0.0126

> <Gold.Chemscore.DEInternal.Weighted>
2.6656

> <Gold.Chemscore.Rot.Weighted>
5.0556

> <Gold.Chemscore.Internal.Correction.Weighted>
   9.000000E+99

> <Gold.Protein.RotatedTorsions>
[ 6907 6896 6895 6894 ] final  172.58 input  -60.11 | X-H torsion
[ 7974 7965 7964 7962 ] final  115.63 input  175.53 | X-H torsion
[ 8008 7997 7996 7995 ] final -156.93 input   59.86 | X-H torsion
[ 10167 10162 10161 10158 ] final -173.75 input  -65.29 | X-H torsion
[ 10718 10713 10712 10709 ] final  126.04 input   66.30 | X-H torsion
[ 10763 10752 10751 10750 ] final  105.58 input  -60.55 | X-H torsion
[ 11005 11000 10999 10996 ] final    2.64 input  -57.11 | X-H torsion

> <Gold.Protein.ActiveResidues>
 VAL166  LYS551  ARG553  GLY616  TRP617  ASP618  TYR619  PRO620  LYS621  CYS622 
 ASP623  PHE694  ASN695  SER759  ASP760  ASP761  ALA762  ILE779  LEU786  VAL792 
 PHE793  MET794  SER795  GLU796  ALA797  LYS798  CYS799  TRP800  GLU811  SER814 

> <Gold.Protein.RotatedAtoms>
  151.7820  133.3350  159.3474 H   0  0  0  0  0  0  0  0  0  0  0  0  # atno 6907 bound_to 6896
  150.7423  134.5922  159.6002 H   0  0  0  0  0  0  0  0  0  0  0  0  # atno 6908 bound_to 6896
  152.3269  134.7310  160.0351 H   0  0  0  0  0  0  0  0  0  0  0  0  # atno 6909 bound_to 6896
  145.1896  139.3007  143.4375 H   0  0  0  0  0  0  0  0  0  0  0  0  # atno 7974 bound_to 7965
  155.7247  140.0794  157.2315 H   0  0  0  0  0  0  0  0  0  0  0  0  # atno 8008 bound_to 7997
  154.4040  140.1606  156.2495 H   0  0  0  0  0  0  0  0  0  0  0  0  # atno 8009 bound_to 7997
  155.9164  140.3400  155.6141 H   0  0  0  0  0  0  0  0  0  0  0  0  # atno 8010 bound_to 7997
  139.5671  144.1730  152.1329 H   0  0  0  0  0  0  0  0  0  0  0  0  # atno 10167 bound_to 10162
  157.5452  131.1096  150.8793 H   0  0  0  0  0  0  0  0  0  0  0  0  # atno 10718 bound_to 10713
  153.3813  135.3905  155.1859 H   0  0  0  0  0  0  0  0  0  0  0  0  # atno 10763 bound_to 10752
  154.8708  135.3726  154.4853 H   0  0  0  0  0  0  0  0  0  0  0  0  # atno 10764 bound_to 10752
  153.5330  135.7085  153.5735 H   0  0  0  0  0  0  0  0  0  0  0  0  # atno 10765 bound_to 10752
  140.6020  133.9827  155.8136 H   0  0  0  0  0  0  0  0  0  0  0  0  # atno 11005 bound_to 11000
  146.3438  140.2104  142.8590 LP  0  0  0  0  0  0  0  0  0  0  0  0  # atno 17320 bound_to 7965
  145.0054  140.8669  143.5256 LP  0  0  0  0  0  0  0  0  0  0  0  0  # atno 17321 bound_to 7965
  140.1255  144.5335  150.6836 LP  0  0  0  0  0  0  0  0  0  0  0  0  # atno 17342 bound_to 10162
  140.6955  143.2401  151.5013 LP  0  0  0  0  0  0  0  0  0  0  0  0  # atno 17343 bound_to 10162
  156.9334  130.5358  149.5279 LP  0  0  0  0  0  0  0  0  0  0  0  0  # atno 17370 bound_to 10713
  156.0530  130.5596  150.9030 LP  0  0  0  0  0  0  0  0  0  0  0  0  # atno 17371 bound_to 10713
  141.0865  133.9982  157.3304 LP  0  0  0  0  0  0  0  0  0  0  0  0  # atno 17394 bound_to 11000
  139.9228  135.0201  156.8127 LP  0  0  0  0  0  0  0  0  0  0  0  0  # atno 17395 bound_to 11000

$$$$
