AV-unprocessed.smi:1254|AV-procd|sdf|5277|dock9
  -GOLD-   22720 4393D 1   1.00000     0.00000
 Structure written by MMmdl.
 45 46  0  0  0  0  0  0  0  0  3 V2000
  151.2280  141.3233  156.1183 C   0  0  0  0  0  0  0  0  0  0  0  0
  151.4511  139.9408  155.6086 C   0  0  0  0  0  0  0  0  0  0  0  0
  150.6303  138.8575  155.4708 C   0  0  0  0  0  0  0  0  0  0  0  0
  151.4871  137.8700  154.9122 C   0  0  0  0  0  0  0  0  0  0  0  0
  151.1424  136.6109  154.6009 N   0  5  0  0  0  0  0  0  0  0  0  0
  150.2091  135.9602  155.3323 C   0  0  0  0  0  0  0  0  0  0  0  0
  150.3565  135.4951  156.4648 O   0  0  0  0  0  0  0  0  0  0  0  0
  149.0287  135.8411  154.7123 N   0  0  0  0  0  0  0  0  0  0  0  0
  147.8499  135.1938  155.2713 C   0  0  0  0  0  0  0  0  0  0  0  0
  147.3409  134.0945  154.3298 C   0  0  2  0  0  0  0  0  0  0  0  0
  145.8221  133.8679  154.4794 C   0  0  0  0  0  0  0  0  0  0  0  0
  145.3542  132.7581  153.6132 N   0  3  1  0  0  0  0  0  0  0  0  0
  145.2217  133.1354  152.1797 C   0  0  0  0  0  0  0  0  0  0  0  0
  144.4482  134.4558  151.9745 C   0  0  0  0  0  0  0  0  0  0  0  0
  142.9418  134.2357  152.1786 C   0  0  0  0  0  0  0  0  0  0  0  0
  144.7176  135.0693  150.5901 C   0  0  0  0  0  0  0  0  0  0  0  0
  146.1555  131.5324  153.8619 C   0  0  0  0  0  0  0  0  0  0  0  0
  147.6672  131.8171  153.7718 C   0  0  0  0  0  0  0  0  0  0  0  0
  148.0093  132.8786  154.6534 O   0  0  0  0  0  0  0  0  0  0  0  0
  152.7228  138.3100  154.7430 N   0  0  0  0  0  0  0  0  0  0  0  0
  152.7061  139.6399  155.1801 O   0  0  0  0  0  0  0  0  0  0  0  0
  150.3957  141.3477  156.8217 H   0  0  0  0  0  0  0  0  0  0  0  0
  150.9984  142.0033  155.2977 H   0  0  0  0  0  0  0  0  0  0  0  0
  152.1146  141.6975  156.6311 H   0  0  0  0  0  0  0  0  0  0  0  0
  149.5834  138.7830  155.7236 H   0  0  0  0  0  0  0  0  0  0  0  0
  148.9471  136.2298  153.7841 H   0  0  0  0  0  0  0  0  0  0  0  0
  148.0899  134.7783  156.2513 H   0  0  0  0  0  0  0  0  0  0  0  0
  147.0701  135.9428  155.4198 H   0  0  0  0  0  0  0  0  0  0  0  0
  147.5732  134.3789  153.3017 H   0  0  0  0  0  0  0  0  0  0  0  0
  145.5934  133.6125  155.5152 H   0  0  0  0  0  0  0  0  0  0  0  0
  145.2671  134.7814  154.2622 H   0  0  0  0  0  0  0  0  0  0  0  0
  146.2138  133.2534  151.7414 H   0  0  0  0  0  0  0  0  0  0  0  0
  144.7464  132.3262  151.6251 H   0  0  0  0  0  0  0  0  0  0  0  0
  144.7640  135.1774  152.7272 H   0  0  0  0  0  0  0  0  0  0  0  0
  142.5420  133.5248  151.4547 H   0  0  0  0  0  0  0  0  0  0  0  0
  142.3890  135.1691  152.0677 H   0  0  0  0  0  0  0  0  0  0  0  0
  142.7315  133.8485  153.1762 H   0  0  0  0  0  0  0  0  0  0  0  0
  144.4208  134.3902  149.7901 H   0  0  0  0  0  0  0  0  0  0  0  0
  145.7737  135.3030  150.4544 H   0  0  0  0  0  0  0  0  0  0  0  0
  144.1618  135.9980  150.4585 H   0  0  0  0  0  0  0  0  0  0  0  0
  145.9208  131.1744  154.8651 H   0  0  0  0  0  0  0  0  0  0  0  0
  145.8757  130.7296  153.1810 H   0  0  0  0  0  0  0  0  0  0  0  0
  148.2305  130.9292  154.0593 H   0  0  0  0  0  0  0  0  0  0  0  0
  147.9701  132.0621  152.7531 H   0  0  0  0  0  0  0  0  0  0  0  0
  144.4123  132.5546  153.9163 H   0  0  0  0  0  0  0  0  0  0  0  0
  1  2  1  0  0  0  0
  1 22  1  0  0  0  0
  1 23  1  0  0  0  0
  1 24  1  0  0  0  0
  2 21  1  0  0  0  0
  2  3  2  0  0  0  0
  3  4  1  0  0  0  0
  3 25  1  0  0  0  0
  4  5  1  0  0  0  0
  4 20  2  0  0  0  0
  5  6  1  0  0  0  0
  6  7  2  0  0  0  0
  6  8  1  0  0  0  0
  8  9  1  0  0  0  0
  8 26  1  0  0  0  0
  9 10  1  0  0  0  0
  9 27  1  0  0  0  0
  9 28  1  0  0  0  0
 10 19  1  0  0  0  0
 10 11  1  0  0  0  0
 10 29  1  0  0  0  0
 11 12  1  0  0  0  0
 11 30  1  0  0  0  0
 11 31  1  0  0  0  0
 12 13  1  0  0  0  0
 12 17  1  0  0  0  0
 12 45  1  0  0  0  0
 13 14  1  0  0  0  0
 13 32  1  0  0  0  0
 13 33  1  0  0  0  0
 14 15  1  0  0  0  0
 14 16  1  0  0  0  0
 14 34  1  0  0  0  0
 15 35  1  0  0  0  0
 15 36  1  0  0  0  0
 15 37  1  0  0  0  0
 16 38  1  0  0  0  0
 16 39  1  0  0  0  0
 16 40  1  0  0  0  0
 17 18  1  0  0  0  0
 17 41  1  0  0  0  0
 17 42  1  0  0  0  0
 18 19  1  0  0  0  0
 18 43  1  0  0  0  0
 18 44  1  0  0  0  0
 20 21  1  0  0  0  0
M  CHG  1   5  -1
M  CHG  1  12   1
M  END
> <s_m_source_file>
AV-unprocessed.smi

> <i_m_source_file_index>
1254

> <i_lp_mmshare_version>
43012

> <i_f3d_flags>
0

> <s_epik_input>
W0NIM11jMVtjSF1jKG5vMSlbTkhdQyg9TylbTkhdW0NIMl1bQ0BASF0yW0NIMl1OKFtDSDJdW0NIMl1PMilbQ0gyXVtDSF0oW0NIM10pW0NIM10=

> <s_epik_cmdline>
J2VwaWtfcHl0aG9uJywgJy1waCcsICc3LjAnLCAnLXRuJywgJzgnLCAnLW1hJywgJzIwMCcsICctbWV0YWxfYmluZGluZycsICctaW1hZScsICc8aW5maWxlLm1hZT4nLCAnLW9tYWUnLCAnPG91dGZpbGUubWFlPic=

> <r_epik_Ionization_Penalty>
6.33139

> <r_epik_Ionization_Penalty_Charging>
6.33128

> <r_epik_Ionization_Penalty_Neutral>
0.000104968

> <r_epik_State_Penalty>
6.32522

> <r_epik_Charging_Adjusted_Penalty>
12.6565

> <i_epik_Tot_Q>
0

> <i_epik_Tot_abs_Q>
2

> <r_epik_Metal_State_Penalty>
2.26285

> <b_epik_Metal_Only>
1

> <s_lp_Force_Field>
OPLS_2005

> <r_lp_Energy>
8.92976

> <b_lp_Chiralities_Consistent>
1

> <s_lp_Variant>
AV-unprocessed.smi:1254-9

> <Gold.Version>
5.8.1

> <Gold.Id.Protein>
6NUR|6NUR_protein|mol2

> <Gold.PLP.Fitness>
45.1733

> <Gold.PLP.PLP>
-30.3315

> <Gold.PLP.part.hbond>
-5.2349

> <Gold.PLP.part.metal>
0.0000

> <Gold.PLP.part.buried>
-7.4980

> <Gold.PLP.part.nonpolar>
-20.1034

> <Gold.PLP.part.repulsive>
0.8402

> <Gold.PLP.ligand.clash>
0.0000

> <Gold.PLP.ligand.torsion>
1.4512

> <Gold.PLP.Chemscore.Hbond>
5.8525

> <Gold.PLP.Chemscore.CHOScore>
0.0000

> <Gold.PLP.Chemscore.Metal>
0.0000

> <Gold.Chemscore.Hbonds>
donor molecule, donor type, donor heavy atom, donor atom, acceptor molecule, acceptor atom, score
      L1  H     8    26       P1  7948  1.00
      L1  H    12    45       P1 10957  1.69
      P1  H  7997  8008       L1    21  1.00
      P1  H 10752 10763       L1     5  1.95

> <Gold.PLP.Chemscore.Internal.Correction>
0.1866

> <Gold.Rescore>
     Score         DG    S(hbond)    S(metal)    S(lipo)     H(rot)  DE(clash)    DE(int)     intcor
     14.43     -16.00       2.41        0.00      58.22       1.69       0.03       1.54       ----

> <Gold.Chemscore.Fitness>
14.4328

> <Gold.Chemscore.DG>
-16.0048

> <Gold.Chemscore.ZeroCoef>
-5.4800

> <Gold.Chemscore.Hbond>
2.4091

> <Gold.Chemscore.Metal>
0.0000

> <Gold.Chemscore.Lipo>
58.2166

> <Gold.Chemscore.Internal_Hbond>
0.0000

> <Gold.Chemscore.DEClash>
0.0310

> <Gold.Chemscore.DEInternal>
1.5411

> <Gold.Chemscore.Rot>
1.6926

> <Gold.Chemscore.Internal.Correction>
   9.000000E+99

> <Gold.Chemscore.Hbonds>
donor molecule, donor type, donor heavy atom, donor atom, acceptor molecule, acceptor atom, score
      L1  H     8    26       P1  7948  0.98
      L1  H    12    45       P1 10957  0.45
      P1  H  7997  8008       L1    21  0.80
      P1  H 10752 10763       L1     5  0.41

> <Gold.Chemscore.Hbond.Weighted>
-8.0465

> <Gold.Chemscore.Metal.Weighted>
-0.0000

> <Gold.Chemscore.Lipo.Weighted>
-6.8113

> <Gold.Chemscore.Internal_Hbond.Weighted>
0.0000

> <Gold.Chemscore.DEClash.Weighted>
0.0310

> <Gold.Chemscore.DEInternal.Weighted>
1.5411

> <Gold.Chemscore.Rot.Weighted>
4.3330

> <Gold.Chemscore.Internal.Correction.Weighted>
   9.000000E+99

> <Gold.Protein.RotatedTorsions>
[ 6907 6896 6895 6894 ] final  163.14 input  -60.11 | X-H torsion
[ 7974 7965 7964 7962 ] final   48.75 input  175.53 | X-H torsion
[ 8008 7997 7996 7995 ] final  -37.67 input   59.86 | X-H torsion
[ 10167 10162 10161 10158 ] final -168.58 input  -65.29 | X-H torsion
[ 10718 10713 10712 10709 ] final   -7.82 input   66.30 | X-H torsion
[ 10763 10752 10751 10750 ] final   47.45 input  -60.55 | X-H torsion
[ 11005 11000 10999 10996 ] final  -47.38 input  -57.11 | X-H torsion

> <Gold.Protein.ActiveResidues>
 VAL166  LYS551  ARG553  GLY616  TRP617  ASP618  TYR619  PRO620  LYS621  CYS622 
 ASP623  PHE694  ASN695  SER759  ASP760  ASP761  ALA762  ILE779  LEU786  VAL792 
 PHE793  MET794  SER795  GLU796  ALA797  LYS798  CYS799  TRP800  GLU811  SER814 

> <Gold.Protein.RotatedAtoms>
  151.9298  133.3608  159.3926 H   0  0  0  0  0  0  0  0  0  0  0  0  # atno 6907 bound_to 6896
  150.7019  134.4549  159.5363 H   0  0  0  0  0  0  0  0  0  0  0  0  # atno 6908 bound_to 6896
  152.2187  134.8433  160.0539 H   0  0  0  0  0  0  0  0  0  0  0  0  # atno 6909 bound_to 6896
  146.0174  139.4612  142.9918 H   0  0  0  0  0  0  0  0  0  0  0  0  # atno 7974 bound_to 7965
  154.4049  140.1598  156.2575 H   0  0  0  0  0  0  0  0  0  0  0  0  # atno 8008 bound_to 7997
  155.9065  140.3430  155.6044 H   0  0  0  0  0  0  0  0  0  0  0  0  # atno 8009 bound_to 7997
  155.7386  140.0789  157.2247 H   0  0  0  0  0  0  0  0  0  0  0  0  # atno 8010 bound_to 7997
  139.5976  144.1078  152.1707 H   0  0  0  0  0  0  0  0  0  0  0  0  # atno 10167 bound_to 10162
  156.7116  130.5123  149.5890 H   0  0  0  0  0  0  0  0  0  0  0  0  # atno 10718 bound_to 10713
  152.9800  135.5976  154.3764 H   0  0  0  0  0  0  0  0  0  0  0  0  # atno 10763 bound_to 10752
  154.3433  135.2767  155.2413 H   0  0  0  0  0  0  0  0  0  0  0  0  # atno 10764 bound_to 10752
  154.4485  135.5996  153.6231 H   0  0  0  0  0  0  0  0  0  0  0  0  # atno 10765 bound_to 10752
  141.0637  133.6700  156.3290 H   0  0  0  0  0  0  0  0  0  0  0  0  # atno 11005 bound_to 11000
  145.7246  141.0063  143.1384 LP  0  0  0  0  0  0  0  0  0  0  0  0  # atno 17320 bound_to 7965
  144.6976  139.8911  143.7453 LP  0  0  0  0  0  0  0  0  0  0  0  0  # atno 17321 bound_to 7965
  140.0667  144.5812  150.7222 LP  0  0  0  0  0  0  0  0  0  0  0  0  # atno 17342 bound_to 10162
  140.7224  143.2602  151.4233 LP  0  0  0  0  0  0  0  0  0  0  0  0  # atno 17343 bound_to 10162
  156.1657  130.6404  151.0775 LP  0  0  0  0  0  0  0  0  0  0  0  0  # atno 17370 bound_to 10713
  157.6934  131.0802  150.7042 LP  0  0  0  0  0  0  0  0  0  0  0  0  # atno 17371 bound_to 10713
  140.5816  134.5740  157.5481 LP  0  0  0  0  0  0  0  0  0  0  0  0  # atno 17394 bound_to 11000
  139.9456  134.7707  156.0569 LP  0  0  0  0  0  0  0  0  0  0  0  0  # atno 17395 bound_to 11000

$$$$
