AV-unprocessed.smi:484|AV-procd|sdf|2689|dock8
  -GOLD-   2262023123D 1   1.00000     0.00000
 Structure written by MMmdl.
 47 49  0  0  0  0  0  0  0  0  2 V2000
  134.3848  137.9140  154.3703 C   0  0  0  0  0  0  0  0  0  0  0  0
  135.2367  139.1667  154.1384 C   0  0  0  0  0  0  0  0  0  0  0  0
  136.7118  138.8410  153.9998 C   0  0  0  0  0  0  0  0  0  0  0  0
  137.6327  139.8513  153.6579 C   0  0  0  0  0  0  0  0  0  0  0  0
  139.0015  139.5466  153.5314 C   0  0  0  0  0  0  0  0  0  0  0  0
  139.4721  138.2344  153.7420 C   0  0  0  0  0  0  0  0  0  0  0  0
  140.8263  138.0255  153.5942 O   0  0  0  0  0  0  0  0  0  0  0  0
  141.3654  136.7744  154.0027 C   0  0  0  0  0  0  0  0  0  0  0  0
  142.8531  136.7017  153.6231 C   0  0  2  0  0  0  0  0  0  0  0  0
  143.5171  137.8419  154.1297 O   0  0  0  0  0  0  0  0  0  0  0  0
  143.0949  136.5189  152.1106 C   0  0  0  0  0  0  0  0  0  0  0  0
  144.3844  135.8753  151.8142 N   0  0  0  0  0  0  0  0  0  0  0  0
  145.6484  136.3847  151.8674 C   0  0  0  0  0  0  0  0  0  0  0  0
  146.0280  137.7771  152.2605 C   0  0  0  0  0  0  0  0  0  0  0  0
  147.2432  138.2088  151.6842 O   0  0  0  0  0  0  0  0  0  0  0  0
  146.5003  135.3850  151.5001 N   0  3  0  0  0  0  0  0  0  0  0  0
  145.7766  134.2290  151.2070 C   0  0  0  0  0  0  0  0  0  0  0  0
  146.2003  132.9701  150.7922 C   0  0  0  0  0  0  0  0  0  0  0  0
  145.1962  132.0032  150.5784 C   0  0  0  0  0  0  0  0  0  0  0  0
  143.8331  132.3048  150.7760 C   0  0  0  0  0  0  0  0  0  0  0  0
  143.4160  133.5849  151.1961 C   0  0  0  0  0  0  0  0  0  0  0  0
  144.4149  134.5355  151.4071 C   0  0  0  0  0  0  0  0  0  0  0  0
  138.5413  137.2224  154.0879 C   0  0  0  0  0  0  0  0  0  0  0  0
  137.1720  137.5266  154.2158 C   0  0  0  0  0  0  0  0  0  0  0  0
  133.3305  138.1738  154.4652 H   0  0  0  0  0  0  0  0  0  0  0  0
  134.6840  137.3979  155.2831 H   0  0  0  0  0  0  0  0  0  0  0  0
  134.4816  137.2128  153.5409 H   0  0  0  0  0  0  0  0  0  0  0  0
  134.8973  139.6833  153.2396 H   0  0  0  0  0  0  0  0  0  0  0  0
  135.0987  139.8660  154.9641 H   0  0  0  0  0  0  0  0  0  0  0  0
  137.2926  140.8631  153.4925 H   0  0  0  0  0  0  0  0  0  0  0  0
  139.6981  140.3290  153.2688 H   0  0  0  0  0  0  0  0  0  0  0  0
  141.2381  136.6229  155.0761 H   0  0  0  0  0  0  0  0  0  0  0  0
  140.8341  135.9724  153.4879 H   0  0  0  0  0  0  0  0  0  0  0  0
  143.2853  135.8483  154.1464 H   0  0  0  0  0  0  0  0  0  0  0  0
  143.5858  138.4797  153.4357 H   0  0  0  0  0  0  0  0  0  0  0  0
  142.3136  135.8877  151.6858 H   0  0  0  0  0  0  0  0  0  0  0  0
  143.0378  137.4673  151.5764 H   0  0  0  0  0  0  0  0  0  0  0  0
  145.2352  138.4635  151.9630 H   0  0  0  0  0  0  0  0  0  0  0  0
  146.1128  137.8302  153.3462 H   0  0  0  0  0  0  0  0  0  0  0  0
  147.7893  137.4522  151.5327 H   0  0  0  0  0  0  0  0  0  0  0  0
  147.2441  132.7380  150.6386 H   0  0  0  0  0  0  0  0  0  0  0  0
  145.4768  131.0112  150.2552 H   0  0  0  0  0  0  0  0  0  0  0  0
  143.0912  131.5392  150.6007 H   0  0  0  0  0  0  0  0  0  0  0  0
  142.3684  133.8041  151.3390 H   0  0  0  0  0  0  0  0  0  0  0  0
  138.8517  136.2033  154.2608 H   0  0  0  0  0  0  0  0  0  0  0  0
  136.4750  136.7454  154.4817 H   0  0  0  0  0  0  0  0  0  0  0  0
  147.5054  135.4943  151.4543 H   0  0  0  0  0  0  0  0  0  0  0  0
  1  2  1  0  0  0  0
  1 25  1  0  0  0  0
  1 26  1  0  0  0  0
  1 27  1  0  0  0  0
  2  3  1  0  0  0  0
  2 28  1  0  0  0  0
  2 29  1  0  0  0  0
  3 24  1  0  0  0  0
  3  4  2  0  0  0  0
  4  5  1  0  0  0  0
  4 30  1  0  0  0  0
  5  6  2  0  0  0  0
  5 31  1  0  0  0  0
  6  7  1  0  0  0  0
  6 23  1  0  0  0  0
  7  8  1  0  0  0  0
  8  9  1  0  0  0  0
  8 32  1  0  0  0  0
  8 33  1  0  0  0  0
  9 10  1  0  0  0  0
  9 11  1  0  0  0  0
  9 34  1  0  0  0  0
 10 35  1  0  0  0  0
 11 12  1  0  0  0  0
 11 36  1  0  0  0  0
 11 37  1  0  0  0  0
 12 22  1  0  0  0  0
 12 13  1  0  0  0  0
 13 14  1  0  0  0  0
 13 16  2  0  0  0  0
 14 15  1  0  0  0  0
 14 38  1  0  0  0  0
 14 39  1  0  0  0  0
 15 40  1  0  0  0  0
 16 17  1  0  0  0  0
 16 47  1  0  0  0  0
 17 22  2  0  0  0  0
 17 18  1  0  0  0  0
 18 19  2  0  0  0  0
 18 41  1  0  0  0  0
 19 20  1  0  0  0  0
 19 42  1  0  0  0  0
 20 21  2  0  0  0  0
 20 43  1  0  0  0  0
 21 22  1  0  0  0  0
 21 44  1  0  0  0  0
 23 24  2  0  0  0  0
 23 45  1  0  0  0  0
 24 46  1  0  0  0  0
M  CHG  1  16   1
M  END
> <s_m_source_file>
AV-unprocessed.smi

> <i_m_source_file_index>
484

> <i_lp_mmshare_version>
43012

> <i_f3d_flags>
0

> <s_epik_input>
W0NIM11bQ0gyXWMxW2NIXVtjSF1jKFtjSF1bY0hdMSlPW0NIMl1bQ0BIXShbT0hdKVtDSDJdbihjKG4yKVtDSDJdW09IXSljKGMyMylbY0hdW2NIXVtjSF1bY0hdMw==

> <s_epik_cmdline>
J2VwaWtfcHl0aG9uJywgJy1waCcsICc3LjAnLCAnLXRuJywgJzgnLCAnLW1hJywgJzIwMCcsICctbWV0YWxfYmluZGluZycsICctaW1hZScsICc8aW5maWxlLm1hZT4nLCAnLW9tYWUnLCAnPG91dGZpbGUubWFlPic=

> <r_lp_tautomer_probability>
1

> <r_epik_Ionization_Penalty>
1.43166

> <r_epik_Ionization_Penalty_Charging>
1.43081

> <r_epik_Ionization_Penalty_Neutral>
0.000858184

> <r_epik_State_Penalty>
1.51538

> <r_epik_Charging_Adjusted_Penalty>
2.94618

> <i_epik_Tot_Q>
1

> <i_epik_Tot_abs_Q>
1

> <r_epik_Metal_State_Penalty>
5.56039

> <b_epik_Metal_Only>
0

> <s_lp_Force_Field>
OPLS_2005

> <r_lp_Energy>
18.7475

> <b_lp_Chiralities_Consistent>
1

> <s_lp_Variant>
AV-unprocessed.smi:484-3

> <Gold.Version>
5.8.1

> <Gold.Id.Protein>
6NUR|6NUR_protein|mol2

> <Gold.PLP.Fitness>
56.5091

> <Gold.PLP.PLP>
-46.2981

> <Gold.PLP.part.hbond>
-5.0000

> <Gold.PLP.part.metal>
0.0000

> <Gold.PLP.part.buried>
-4.9377

> <Gold.PLP.part.nonpolar>
-36.8136

> <Gold.PLP.part.repulsive>
0.2643

> <Gold.PLP.ligand.clash>
0.0000

> <Gold.PLP.ligand.torsion>
0.9830

> <Gold.PLP.Chemscore.Hbond>
4.0000

> <Gold.PLP.Chemscore.CHOScore>
0.0000

> <Gold.PLP.Chemscore.Metal>
0.0000

> <Gold.Chemscore.Hbonds>
donor molecule, donor type, donor heavy atom, donor atom, acceptor molecule, acceptor atom, score
      L1  H    10    35       P1 10175  0.62
      L1  H    15    40       P1  7948  1.00
      L1  H    16    47       P1  7948  2.00

> <Gold.PLP.Chemscore.Internal.Correction>
0.1771

> <Gold.Rescore>
     Score         DG    S(hbond)    S(metal)    S(lipo)     H(rot)  DE(clash)    DE(int)     intcor
     18.57     -20.36       2.95        0.00     112.67       3.18       0.79       1.00       ----

> <Gold.Chemscore.Fitness>
18.5699

> <Gold.Chemscore.DG>
-20.3594

> <Gold.Chemscore.ZeroCoef>
-5.4800

> <Gold.Chemscore.Hbond>
2.9454

> <Gold.Chemscore.Metal>
0.0000

> <Gold.Chemscore.Lipo>
112.6743

> <Gold.Chemscore.Internal_Hbond>
0.0000

> <Gold.Chemscore.DEClash>
0.7897

> <Gold.Chemscore.DEInternal>
0.9999

> <Gold.Chemscore.Rot>
3.1801

> <Gold.Chemscore.Internal.Correction>
   9.000000E+99

> <Gold.Chemscore.Hbonds>
donor molecule, donor type, donor heavy atom, donor atom, acceptor molecule, acceptor atom, score
      L1  H    10    35       P1 10175  0.62
      L1  H    15    40       P1  7948  0.99
      L1  H    16    47       P1  7948  0.89

> <Gold.Chemscore.Hbond.Weighted>
-9.8375

> <Gold.Chemscore.Metal.Weighted>
-0.0000

> <Gold.Chemscore.Lipo.Weighted>
-13.1829

> <Gold.Chemscore.Internal_Hbond.Weighted>
0.0000

> <Gold.Chemscore.DEClash.Weighted>
0.7897

> <Gold.Chemscore.DEInternal.Weighted>
0.9999

> <Gold.Chemscore.Rot.Weighted>
8.1410

> <Gold.Chemscore.Internal.Correction.Weighted>
   9.000000E+99

> <Gold.Protein.RotatedTorsions>
[ 6907 6896 6895 6894 ] final  -23.86 input  -60.11 | X-H torsion
[ 7974 7965 7964 7962 ] final   84.11 input  175.53 | X-H torsion
[ 8008 7997 7996 7995 ] final   -6.25 input   59.86 | X-H torsion
[ 10167 10162 10161 10158 ] final -114.65 input  -65.29 | X-H torsion
[ 10718 10713 10712 10709 ] final  126.87 input   66.30 | X-H torsion
[ 10763 10752 10751 10750 ] final    0.32 input  -60.55 | X-H torsion
[ 11005 11000 10999 10996 ] final  163.06 input  -57.11 | X-H torsion

> <Gold.Protein.ActiveResidues>
 VAL166  LYS551  ARG553  GLY616  TRP617  ASP618  TYR619  PRO620  LYS621  CYS622 
 ASP623  PHE694  ASN695  SER759  ASP760  ASP761  ALA762  ILE779  LEU786  VAL792 
 PHE793  MET794  SER795  GLU796  ALA797  LYS798  CYS799  TRP800  GLU811  SER814 

> <Gold.Protein.RotatedAtoms>
  151.1979  135.0430  159.8859 H   0  0  0  0  0  0  0  0  0  0  0  0  # atno 6907 bound_to 6896
  152.5435  134.0883  159.8275 H   0  0  0  0  0  0  0  0  0  0  0  0  # atno 6908 bound_to 6896
  151.1019  133.5189  159.2641 H   0  0  0  0  0  0  0  0  0  0  0  0  # atno 6909 bound_to 6896
  145.6030  139.2355  143.2235 H   0  0  0  0  0  0  0  0  0  0  0  0  # atno 7974 bound_to 7965
  154.5957  140.2438  155.7860 H   0  0  0  0  0  0  0  0  0  0  0  0  # atno 8008 bound_to 7997
  156.2277  140.2977  156.0062 H   0  0  0  0  0  0  0  0  0  0  0  0  # atno 8009 bound_to 7997
  155.2297  140.0403  157.2951 H   0  0  0  0  0  0  0  0  0  0  0  0  # atno 8010 bound_to 7997
  140.0986  143.4633  152.1826 H   0  0  0  0  0  0  0  0  0  0  0  0  # atno 10167 bound_to 10162
  157.5382  131.1097  150.8901 H   0  0  0  0  0  0  0  0  0  0  0  0  # atno 10718 bound_to 10713
  153.3222  135.6970  153.7021 H   0  0  0  0  0  0  0  0  0  0  0  0  # atno 10763 bound_to 10752
  153.5856  135.3489  155.2892 H   0  0  0  0  0  0  0  0  0  0  0  0  # atno 10764 bound_to 10752
  154.8600  135.4305  154.2389 H   0  0  0  0  0  0  0  0  0  0  0  0  # atno 10765 bound_to 10752
  140.2320  134.8117  157.3326 H   0  0  0  0  0  0  0  0  0  0  0  0  # atno 11005 bound_to 11000
  146.1562  140.6855  142.9299 LP  0  0  0  0  0  0  0  0  0  0  0  0  # atno 17320 bound_to 7965
  144.7302  140.4647  143.6944 LP  0  0  0  0  0  0  0  0  0  0  0  0  # atno 17321 bound_to 7965
  139.5684  144.7448  151.3959 LP  0  0  0  0  0  0  0  0  0  0  0  0  # atno 17342 bound_to 10162
  140.6990  143.7679  150.7372 LP  0  0  0  0  0  0  0  0  0  0  0  0  # atno 17343 bound_to 10162
  156.9462  130.5403  149.5281 LP  0  0  0  0  0  0  0  0  0  0  0  0  # atno 17370 bound_to 10713
  156.0475  130.5550  150.8915 LP  0  0  0  0  0  0  0  0  0  0  0  0  # atno 17371 bound_to 10713
  140.1741  134.4572  155.7813 LP  0  0  0  0  0  0  0  0  0  0  0  0  # atno 17394 bound_to 11000
  141.2217  133.6954  156.7757 LP  0  0  0  0  0  0  0  0  0  0  0  0  # atno 17395 bound_to 11000

$$$$
