AV-unprocessed.smi:2346|AV-procd|sdf|9368|dock10
  -GOLD-   2272012593D 1   1.00000     0.00000
 Structure written by MMmdl.
 45 47  0  0  0  0  0  0  0  0  2 V2000
  151.6207  132.9266  156.5017 C   0  0  0  0  0  0  0  0  0  0  0  0
  151.5712  134.3049  156.1633 O   0  0  0  0  0  0  0  0  0  0  0  0
  150.3689  134.8336  155.7401 C   0  0  0  0  0  0  0  0  0  0  0  0
  149.1794  134.0726  155.6096 C   0  0  0  0  0  0  0  0  0  0  0  0
  147.9868  134.6779  155.1680 C   0  0  0  0  0  0  0  0  0  0  0  0
  146.7736  133.8881  155.0378 C   0  0  0  0  0  0  0  0  0  0  0  0
  145.8081  133.2593  154.9339 N   0  0  0  0  0  0  0  0  0  0  0  0
  147.9729  136.0489  154.8530 C   0  0  0  0  0  0  0  0  0  0  0  0
  149.1470  136.8124  154.9810 C   0  0  0  0  0  0  0  0  0  0  0  0
  150.3524  136.2120  155.4249 C   0  0  0  0  0  0  0  0  0  0  0  0
  151.5399  136.8990  155.5723 O   0  0  0  0  0  0  0  0  0  0  0  0
  151.5268  138.3125  155.4388 C   0  0  0  0  0  0  0  0  0  0  0  0
  150.8197  138.9066  156.6624 C   0  0  0  0  0  0  0  0  0  0  0  0
  150.7034  140.3691  156.5723 N   0  0  0  0  0  0  0  0  0  0  0  0
  150.0127  141.1547  155.6938 C   0  0  0  0  0  0  0  0  0  0  0  0
  149.1421  140.7067  154.5599 C   0  0  1  0  0  0  0  0  0  0  0  0
  147.7148  141.2454  154.7232 C   0  0  0  0  0  0  0  0  0  0  0  0
  149.6423  141.1315  153.3093 O   0  0  0  0  0  0  0  0  0  0  0  0
  150.2335  142.4507  156.0567 N   0  3  0  0  0  0  0  0  0  0  0  0
  151.0674  142.4967  157.1733 C   0  0  0  0  0  0  0  0  0  0  0  0
  151.5643  143.5778  157.8947 C   0  0  0  0  0  0  0  0  0  0  0  0
  152.3892  143.2762  158.9980 C   0  0  0  0  0  0  0  0  0  0  0  0
  152.6898  141.9436  159.3471 C   0  0  0  0  0  0  0  0  0  0  0  0
  152.1807  140.8558  158.6068 C   0  0  0  0  0  0  0  0  0  0  0  0
  151.3685  141.1626  157.5150 C   0  0  0  0  0  0  0  0  0  0  0  0
  152.6384  132.6641  156.7895 H   0  0  0  0  0  0  0  0  0  0  0  0
  151.3470  132.2974  155.6535 H   0  0  0  0  0  0  0  0  0  0  0  0
  150.9700  132.6990  157.3470 H   0  0  0  0  0  0  0  0  0  0  0  0
  149.1626  133.0188  155.8450 H   0  0  0  0  0  0  0  0  0  0  0  0
  147.0636  136.5232  154.5119 H   0  0  0  0  0  0  0  0  0  0  0  0
  149.0953  137.8609  154.7309 H   0  0  0  0  0  0  0  0  0  0  0  0
  152.5474  138.6935  155.3830 H   0  0  0  0  0  0  0  0  0  0  0  0
  151.0012  138.6021  154.5276 H   0  0  0  0  0  0  0  0  0  0  0  0
  149.8264  138.4753  156.7884 H   0  0  0  0  0  0  0  0  0  0  0  0
  151.3700  138.6647  157.5712 H   0  0  0  0  0  0  0  0  0  0  0  0
  149.1085  139.6182  154.5389 H   0  0  0  0  0  0  0  0  0  0  0  0
  147.2726  140.9089  155.6611 H   0  0  0  0  0  0  0  0  0  0  0  0
  147.0697  140.9004  153.9145 H   0  0  0  0  0  0  0  0  0  0  0  0
  147.6973  142.3359  154.7207 H   0  0  0  0  0  0  0  0  0  0  0  0
  149.4434  140.4687  152.6654 H   0  0  0  0  0  0  0  0  0  0  0  0
  151.3330  144.5993  157.6301 H   0  0  0  0  0  0  0  0  0  0  0  0
  152.7978  144.0829  159.5893 H   0  0  0  0  0  0  0  0  0  0  0  0
  153.3242  141.7513  160.2003 H   0  0  0  0  0  0  0  0  0  0  0  0
  152.4159  139.8394  158.8861 H   0  0  0  0  0  0  0  0  0  0  0  0
  149.8347  143.2438  155.5707 H   0  0  0  0  0  0  0  0  0  0  0  0
  1  2  1  0  0  0  0
  1 26  1  0  0  0  0
  1 27  1  0  0  0  0
  1 28  1  0  0  0  0
  2  3  1  0  0  0  0
  3 10  1  0  0  0  0
  3  4  2  0  0  0  0
  4  5  1  0  0  0  0
  4 29  1  0  0  0  0
  5  6  1  0  0  0  0
  5  8  2  0  0  0  0
  6  7  3  0  0  0  0
  8  9  1  0  0  0  0
  8 30  1  0  0  0  0
  9 10  2  0  0  0  0
  9 31  1  0  0  0  0
 10 11  1  0  0  0  0
 11 12  1  0  0  0  0
 12 13  1  0  0  0  0
 12 32  1  0  0  0  0
 12 33  1  0  0  0  0
 13 14  1  0  0  0  0
 13 34  1  0  0  0  0
 13 35  1  0  0  0  0
 14 25  1  0  0  0  0
 14 15  1  0  0  0  0
 15 16  1  0  0  0  0
 15 19  2  0  0  0  0
 16 17  1  0  0  0  0
 16 18  1  0  0  0  0
 16 36  1  0  0  0  0
 17 37  1  0  0  0  0
 17 38  1  0  0  0  0
 17 39  1  0  0  0  0
 18 40  1  0  0  0  0
 19 20  1  0  0  0  0
 19 45  1  0  0  0  0
 20 25  2  0  0  0  0
 20 21  1  0  0  0  0
 21 22  2  0  0  0  0
 21 41  1  0  0  0  0
 22 23  1  0  0  0  0
 22 42  1  0  0  0  0
 23 24  2  0  0  0  0
 23 43  1  0  0  0  0
 24 25  1  0  0  0  0
 24 44  1  0  0  0  0
M  CHG  1  19   1
M  END
> <s_m_source_file>
AV-unprocessed.smi

> <i_m_source_file_index>
2346

> <i_lp_mmshare_version>
43012

> <i_f3d_flags>
0

> <s_epik_input>
W0NIM11PYzFbY0hdYyhDI04pW2NIXVtjSF1jMU9bQ0gyXVtDSDJdbihjKG4yKVtDQEhdKFtDSDNdKVtPSF0pYyhjMjMpW2NIXVtjSF1bY0hdW2NIXTM=

> <s_epik_cmdline>
J2VwaWtfcHl0aG9uJywgJy1waCcsICc3LjAnLCAnLXRuJywgJzgnLCAnLW1hJywgJzIwMCcsICctbWV0YWxfYmluZGluZycsICctaW1hZScsICc8aW5maWxlLm1hZT4nLCAnLW9tYWUnLCAnPG91dGZpbGUubWFlPic=

> <r_epik_Ionization_Penalty>
1.58928

> <r_epik_Ionization_Penalty_Charging>
1.58925

> <r_epik_Ionization_Penalty_Neutral>
2.92192e-05

> <r_epik_State_Penalty>
1.68649

> <r_epik_Charging_Adjusted_Penalty>
3.27574

> <i_epik_Tot_Q>
1

> <i_epik_Tot_abs_Q>
1

> <r_epik_Metal_State_Penalty>
5.74385

> <b_epik_Metal_Only>
0

> <s_lp_Force_Field>
OPLS_2005

> <r_lp_Energy>
24.4742

> <b_lp_Chiralities_Consistent>
1

> <s_lp_Variant>
AV-unprocessed.smi:2346-4

> <Gold.Version>
5.8.1

> <Gold.Id.Protein>
6NUR|6NUR_protein|mol2

> <Gold.PLP.Fitness>
52.8760

> <Gold.PLP.PLP>
-39.0648

> <Gold.PLP.part.hbond>
-5.3983

> <Gold.PLP.part.metal>
0.0000

> <Gold.PLP.part.buried>
-4.2685

> <Gold.PLP.part.nonpolar>
-30.8200

> <Gold.PLP.part.repulsive>
0.3015

> <Gold.PLP.ligand.clash>
0.0000

> <Gold.PLP.ligand.torsion>
0.1389

> <Gold.PLP.Chemscore.Hbond>
4.6668

> <Gold.PLP.Chemscore.CHOScore>
0.0000

> <Gold.PLP.Chemscore.Metal>
0.0000

> <Gold.Chemscore.Hbonds>
donor molecule, donor type, donor heavy atom, donor atom, acceptor molecule, acceptor atom, score
      L1  H    18    40       P1  7957  0.90
      L1  H    19    45       P1  8028  1.95
      P1  H  7989  7998       L1    18  0.13
      P1  H  8011  8017       L1    18  0.95
      P1  H 10752 10764       L1    11  0.75

> <Gold.PLP.Chemscore.Internal.Correction>
0.0885

> <Gold.Rescore>
     Score         DG    S(hbond)    S(metal)    S(lipo)     H(rot)  DE(clash)    DE(int)     intcor
     20.30     -20.54       2.93        0.00     103.05       2.65       0.03       0.20       ----

> <Gold.Chemscore.Fitness>
20.3018

> <Gold.Chemscore.DG>
-20.5373

> <Gold.Chemscore.ZeroCoef>
-5.4800

> <Gold.Chemscore.Hbond>
2.9268

> <Gold.Chemscore.Metal>
0.0000

> <Gold.Chemscore.Lipo>
103.0549

> <Gold.Chemscore.Internal_Hbond>
0.0000

> <Gold.Chemscore.DEClash>
0.0329

> <Gold.Chemscore.DEInternal>
0.2027

> <Gold.Chemscore.Rot>
2.6467

> <Gold.Chemscore.Internal.Correction>
   9.000000E+99

> <Gold.Chemscore.Hbonds>
donor molecule, donor type, donor heavy atom, donor atom, acceptor molecule, acceptor atom, score
      L1  H    18    40       P1  7957  0.84
      L1  H    19    45       P1  8028  0.93
      P1  H  7989  7998       L1    18  0.02
      P1  H  8011  8017       L1    18  0.21
      P1  H 10752 10764       L1    11  0.33

> <Gold.Chemscore.Hbond.Weighted>
-9.7755

> <Gold.Chemscore.Metal.Weighted>
-0.0000

> <Gold.Chemscore.Lipo.Weighted>
-12.0574

> <Gold.Chemscore.Internal_Hbond.Weighted>
0.0000

> <Gold.Chemscore.DEClash.Weighted>
0.0329

> <Gold.Chemscore.DEInternal.Weighted>
0.2027

> <Gold.Chemscore.Rot.Weighted>
6.7756

> <Gold.Chemscore.Internal.Correction.Weighted>
   9.000000E+99

> <Gold.Protein.RotatedTorsions>
[ 6907 6896 6895 6894 ] final   55.30 input  -60.11 | X-H torsion
[ 7974 7965 7964 7962 ] final  167.72 input  175.53 | X-H torsion
[ 8008 7997 7996 7995 ] final    5.97 input   59.86 | X-H torsion
[ 10167 10162 10161 10158 ] final   70.20 input  -65.29 | X-H torsion
[ 10718 10713 10712 10709 ] final  -99.67 input   66.30 | X-H torsion
[ 10763 10752 10751 10750 ] final  -46.36 input  -60.55 | X-H torsion
[ 11005 11000 10999 10996 ] final   74.84 input  -57.11 | X-H torsion

> <Gold.Protein.ActiveResidues>
 VAL166  LYS551  ARG553  GLY616  TRP617  ASP618  TYR619  PRO620  LYS621  CYS622 
 ASP623  PHE694  ASN695  SER759  ASP760  ASP761  ALA762  ILE779  LEU786  VAL792 
 PHE793  MET794  SER795  GLU796  ALA797  LYS798  CYS799  TRP800  GLU811  SER814 

> <Gold.Protein.RotatedAtoms>
  152.3525  134.6985  160.0231 H   0  0  0  0  0  0  0  0  0  0  0  0  # atno 6907 bound_to 6896
  151.7334  133.3313  159.3354 H   0  0  0  0  0  0  0  0  0  0  0  0  # atno 6908 bound_to 6896
  150.7550  134.6276  159.6214 H   0  0  0  0  0  0  0  0  0  0  0  0  # atno 6909 bound_to 6896
  144.7414  139.8802  143.6395 H   0  0  0  0  0  0  0  0  0  0  0  0  # atno 7974 bound_to 7965
  154.7350  140.2738  155.6422 H   0  0  0  0  0  0  0  0  0  0  0  0  # atno 8008 bound_to 7997
  156.2859  140.2708  156.1987 H   0  0  0  0  0  0  0  0  0  0  0  0  # atno 8009 bound_to 7997
  155.0332  140.0371  157.2471 H   0  0  0  0  0  0  0  0  0  0  0  0  # atno 8010 bound_to 7997
  140.0596  144.5244  150.7304 H   0  0  0  0  0  0  0  0  0  0  0  0  # atno 10167 bound_to 10162
  156.0140  130.5293  150.6704 H   0  0  0  0  0  0  0  0  0  0  0  0  # atno 10718 bound_to 10713
  154.0436  135.6640  153.4792 H   0  0  0  0  0  0  0  0  0  0  0  0  # atno 10763 bound_to 10752
  153.0491  135.5095  154.7818 H   0  0  0  0  0  0  0  0  0  0  0  0  # atno 10764 bound_to 10752
  154.6802  135.3044  154.9589 H   0  0  0  0  0  0  0  0  0  0  0  0  # atno 10765 bound_to 10752
  139.9372  134.7467  156.1197 H   0  0  0  0  0  0  0  0  0  0  0  0  # atno 11005 bound_to 11000
  146.1217  139.4236  143.0224 LP  0  0  0  0  0  0  0  0  0  0  0  0  # atno 17320 bound_to 7965
  145.7295  141.0047  143.1359 LP  0  0  0  0  0  0  0  0  0  0  0  0  # atno 17321 bound_to 7965
  140.7178  143.2561  151.4377 LP  0  0  0  0  0  0  0  0  0  0  0  0  # atno 17342 bound_to 10162
  139.5902  144.1515  152.2079 LP  0  0  0  0  0  0  0  0  0  0  0  0  # atno 17343 bound_to 10162
  157.4428  131.0863  151.0926 LP  0  0  0  0  0  0  0  0  0  0  0  0  # atno 17370 bound_to 10713
  157.1465  130.6166  149.5570 LP  0  0  0  0  0  0  0  0  0  0  0  0  # atno 17371 bound_to 10713
  141.0991  133.6684  156.2712 LP  0  0  0  0  0  0  0  0  0  0  0  0  # atno 17394 bound_to 11000
  140.6046  134.5521  157.5523 LP  0  0  0  0  0  0  0  0  0  0  0  0  # atno 17395 bound_to 11000

$$$$
