AV-unprocessed.smi:2703|AV-procd|sdf|10438|dock3
  -GOLD-   2272014483D 1   1.00000     0.00000
 Structure written by MMmdl.
 42 44  0  0  0  0  0  0  0  0  3 V2000
  152.9408  142.8958  160.8750 C   0  0  0  0  0  0  0  0  0  0  0  0
  152.3144  142.4680  159.5596 C   0  0  0  0  0  0  0  0  0  0  0  0
  152.2942  141.0958  159.2221 C   0  0  0  0  0  0  0  0  0  0  0  0
  151.7227  140.6568  158.0077 C   0  0  0  0  0  0  0  0  0  0  0  0
  151.5983  139.3821  157.4824 N   0  0  0  0  0  0  0  0  0  0  0  0
  150.9829  139.6269  156.3291 C   0  0  0  0  0  0  0  0  0  0  0  0
  150.6913  140.9107  156.0454 N   0  0  0  0  0  0  0  0  0  0  0  0
  150.0279  141.4115  154.8546 C   0  0  0  0  0  0  0  0  0  0  0  0
  148.6409  140.7759  154.6399 C   0  0  2  0  0  0  0  0  0  0  0  0
  148.7382  139.7263  153.6955 O   0  0  0  0  0  0  0  0  0  0  0  0
  147.6076  141.8043  154.1513 C   0  0  0  0  0  0  0  0  0  0  0  0
  146.2635  142.0471  155.3500 S   0  0  0  0  0  0  0  0  0  0  0  0
  145.2378  143.3793  154.7750 C   0  0  0  0  0  0  0  0  0  0  0  0
  145.4070  143.9613  153.4988 C   0  0  0  0  0  0  0  0  0  0  0  0
  144.5672  145.0110  153.0956 C   0  0  0  0  0  0  0  0  0  0  0  0
  143.5730  145.4600  153.9773 C   0  0  0  0  0  0  0  0  0  0  0  0
  143.4407  144.8512  155.2399 C   0  0  0  0  0  0  0  0  0  0  0  0
  144.2602  143.8280  155.6329 N   0  3  0  0  0  0  0  0  0  0  0  0
  144.0988  143.3046  156.7982 O   0  5  0  0  0  0  0  0  0  0  0  0
  151.1652  141.6358  157.1339 C   0  0  0  0  0  0  0  0  0  0  0  0
  151.1791  143.0037  157.4588 C   0  0  0  0  0  0  0  0  0  0  0  0
  151.7562  143.4254  158.6749 C   0  0  0  0  0  0  0  0  0  0  0  0
  151.7693  144.9052  159.0149 C   0  0  0  0  0  0  0  0  0  0  0  0
  153.3009  142.0371  161.4426 H   0  0  0  0  0  0  0  0  0  0  0  0
  152.2123  143.4224  161.4921 H   0  0  0  0  0  0  0  0  0  0  0  0
  153.7879  143.5582  160.6967 H   0  0  0  0  0  0  0  0  0  0  0  0
  152.7202  140.3664  159.8951 H   0  0  0  0  0  0  0  0  0  0  0  0
  150.7293  138.8266  155.6491 H   0  0  0  0  0  0  0  0  0  0  0  0
  149.9339  142.4942  154.9495 H   0  0  0  0  0  0  0  0  0  0  0  0
  150.6711  141.2304  153.9925 H   0  0  0  0  0  0  0  0  0  0  0  0
  148.2980  140.3477  155.5830 H   0  0  0  0  0  0  0  0  0  0  0  0
  149.2726  140.0180  152.9730 H   0  0  0  0  0  0  0  0  0  0  0  0
  148.0952  142.7666  153.9917 H   0  0  0  0  0  0  0  0  0  0  0  0
  147.1858  141.4931  153.1949 H   0  0  0  0  0  0  0  0  0  0  0  0
  146.1720  143.6151  152.8220 H   0  0  0  0  0  0  0  0  0  0  0  0
  144.6842  145.4653  152.1226 H   0  0  0  0  0  0  0  0  0  0  0  0
  142.9136  146.2661  153.6908 H   0  0  0  0  0  0  0  0  0  0  0  0
  142.6998  145.1429  155.9703 H   0  0  0  0  0  0  0  0  0  0  0  0
  150.7520  143.7224  156.7755 H   0  0  0  0  0  0  0  0  0  0  0  0
  151.3166  145.5000  158.2211 H   0  0  0  0  0  0  0  0  0  0  0  0
  152.7920  145.2565  159.1531 H   0  0  0  0  0  0  0  0  0  0  0  0
  151.2109  145.0912  159.9324 H   0  0  0  0  0  0  0  0  0  0  0  0
  1  2  1  0  0  0  0
  1 24  1  0  0  0  0
  1 25  1  0  0  0  0
  1 26  1  0  0  0  0
  2 22  1  0  0  0  0
  2  3  2  0  0  0  0
  3  4  1  0  0  0  0
  3 27  1  0  0  0  0
  4 20  2  0  0  0  0
  4  5  1  0  0  0  0
  5  6  2  0  0  0  0
  6  7  1  0  0  0  0
  6 28  1  0  0  0  0
  7  8  1  0  0  0  0
  7 20  1  0  0  0  0
  8  9  1  0  0  0  0
  8 29  1  0  0  0  0
  8 30  1  0  0  0  0
  9 10  1  0  0  0  0
  9 11  1  0  0  0  0
  9 31  1  0  0  0  0
 10 32  1  0  0  0  0
 11 12  1  0  0  0  0
 11 33  1  0  0  0  0
 11 34  1  0  0  0  0
 12 13  1  0  0  0  0
 13 18  1  0  0  0  0
 13 14  2  0  0  0  0
 14 15  1  0  0  0  0
 14 35  1  0  0  0  0
 15 16  2  0  0  0  0
 15 36  1  0  0  0  0
 16 17  1  0  0  0  0
 16 37  1  0  0  0  0
 17 18  2  0  0  0  0
 17 38  1  0  0  0  0
 18 19  1  0  0  0  0
 20 21  1  0  0  0  0
 21 22  2  0  0  0  0
 21 39  1  0  0  0  0
 22 23  1  0  0  0  0
 23 40  1  0  0  0  0
 23 41  1  0  0  0  0
 23 42  1  0  0  0  0
M  CHG  1  18   1
M  CHG  1  19  -1
M  END
> <s_m_source_file>
AV-unprocessed.smi

> <i_m_source_file_index>
2703

> <i_lp_mmshare_version>
43012

> <i_f3d_flags>
0

> <s_epik_input>
W0NIM11jKFtjSF0xKWMoW0NIM10pW2NIXWMoYzEyKW4oW2NIXW4yKVtDSDJdW0NASF0oW09IXSlbQ0gyXVNjM1tjSF1bY0hdW2NIXVtjSF1bbitdM1tPLV0=

> <s_epik_cmdline>
J2VwaWtfcHl0aG9uJywgJy1waCcsICc3LjAnLCAnLXRuJywgJzgnLCAnLW1hJywgJzIwMCcsICctbWV0YWxfYmluZGluZycsICctaW1hZScsICc8aW5maWxlLm1hZT4nLCAnLW9tYWUnLCAnPG91dGZpbGUubWFlPic=

> <r_epik_Ionization_Penalty>
0.106001

> <r_epik_Ionization_Penalty_Charging>
1.39204e-07

> <r_epik_Ionization_Penalty_Neutral>
0.106001

> <r_epik_State_Penalty>
0.0958598

> <r_epik_Charging_Adjusted_Penalty>
0.0958599

> <i_epik_Tot_Q>
0

> <i_epik_Tot_abs_Q>
2

> <r_epik_Metal_State_Penalty>
0.000104041

> <b_epik_Metal_Only>
0

> <s_lp_Force_Field>
OPLS_2005

> <r_lp_Energy>
16.8737

> <b_lp_Chiralities_Consistent>
1

> <s_lp_Variant>
AV-unprocessed.smi:2703-1

> <Gold.Version>
5.8.1

> <Gold.Id.Protein>
6NUR|6NUR_protein|mol2

> <Gold.PLP.Fitness>
54.5285

> <Gold.PLP.PLP>
-54.1441

> <Gold.PLP.part.hbond>
-1.0000

> <Gold.PLP.part.metal>
0.0000

> <Gold.PLP.part.buried>
-4.4227

> <Gold.PLP.part.nonpolar>
-48.5791

> <Gold.PLP.part.repulsive>
0.0374

> <Gold.PLP.ligand.clash>
0.0000

> <Gold.PLP.ligand.torsion>
1.3758

> <Gold.PLP.Chemscore.Hbond>
1.0000

> <Gold.PLP.Chemscore.CHOScore>
0.0000

> <Gold.PLP.Chemscore.Metal>
0.0000

> <Gold.Chemscore.Hbonds>
donor molecule, donor type, donor heavy atom, donor atom, acceptor molecule, acceptor atom, score
      L1  H    10    32       P1  7957  0.99

> <Gold.PLP.Chemscore.Internal.Correction>
0.1360

> <Gold.Rescore>
     Score         DG    S(hbond)    S(metal)    S(lipo)     H(rot)  DE(clash)    DE(int)     intcor
     17.11     -19.63       0.98        0.00     142.26       2.26       1.20       1.33       ----

> <Gold.Chemscore.Fitness>
17.1065

> <Gold.Chemscore.DG>
-19.6319

> <Gold.Chemscore.ZeroCoef>
-5.4800

> <Gold.Chemscore.Hbond>
0.9826

> <Gold.Chemscore.Metal>
0.0000

> <Gold.Chemscore.Lipo>
142.2639

> <Gold.Chemscore.Internal_Hbond>
0.0000

> <Gold.Chemscore.DEClash>
1.1960

> <Gold.Chemscore.DEInternal>
1.3294

> <Gold.Chemscore.Rot>
2.2558

> <Gold.Chemscore.Internal.Correction>
   9.000000E+99

> <Gold.Chemscore.Hbonds>
donor molecule, donor type, donor heavy atom, donor atom, acceptor molecule, acceptor atom, score
      L1  H    10    32       P1  7957  0.93

> <Gold.Chemscore.Hbond.Weighted>
-3.2818

> <Gold.Chemscore.Metal.Weighted>
-0.0000

> <Gold.Chemscore.Lipo.Weighted>
-16.6449

> <Gold.Chemscore.Internal_Hbond.Weighted>
0.0000

> <Gold.Chemscore.DEClash.Weighted>
1.1960

> <Gold.Chemscore.DEInternal.Weighted>
1.3294

> <Gold.Chemscore.Rot.Weighted>
5.7748

> <Gold.Chemscore.Internal.Correction.Weighted>
   9.000000E+99

> <Gold.Protein.RotatedTorsions>
[ 6907 6896 6895 6894 ] final   71.95 input  -60.11 | X-H torsion
[ 7974 7965 7964 7962 ] final   83.59 input  175.53 | X-H torsion
[ 8008 7997 7996 7995 ] final   23.83 input   59.86 | X-H torsion
[ 10167 10162 10161 10158 ] final   72.89 input  -65.29 | X-H torsion
[ 10718 10713 10712 10709 ] final   17.10 input   66.30 | X-H torsion
[ 10763 10752 10751 10750 ] final   69.05 input  -60.55 | X-H torsion
[ 11005 11000 10999 10996 ] final  119.76 input  -57.11 | X-H torsion

> <Gold.Protein.ActiveResidues>
 VAL166  LYS551  ARG553  GLY616  TRP617  ASP618  TYR619  PRO620  LYS621  CYS622 
 ASP623  PHE694  ASN695  SER759  ASP760  ASP761  ALA762  ILE779  LEU786  VAL792 
 PHE793  MET794  SER795  GLU796  ALA797  LYS798  CYS799  TRP800  GLU811  SER814 

> <Gold.Protein.RotatedAtoms>
  152.4840  134.4644  159.9615 H   0  0  0  0  0  0  0  0  0  0  0  0  # atno 6907 bound_to 6896
  151.4644  133.3578  159.2822 H   0  0  0  0  0  0  0  0  0  0  0  0  # atno 6908 bound_to 6896
  150.8935  134.8366  159.7370 H   0  0  0  0  0  0  0  0  0  0  0  0  # atno 6909 bound_to 6896
  145.6099  139.2366  143.2198 H   0  0  0  0  0  0  0  0  0  0  0  0  # atno 7974 bound_to 7965
  154.9870  140.3109  155.4922 H   0  0  0  0  0  0  0  0  0  0  0  0  # atno 8008 bound_to 7997
  156.2945  140.2256  156.4912 H   0  0  0  0  0  0  0  0  0  0  0  0  # atno 8009 bound_to 7997
  154.7738  140.0450  157.1060 H   0  0  0  0  0  0  0  0  0  0  0  0  # atno 8010 bound_to 7997
  140.0304  144.5470  150.7511 H   0  0  0  0  0  0  0  0  0  0  0  0  # atno 10167 bound_to 10162
  157.0774  130.6373  149.5819 H   0  0  0  0  0  0  0  0  0  0  0  0  # atno 10718 bound_to 10713
  153.0267  135.5225  154.7228 H   0  0  0  0  0  0  0  0  0  0  0  0  # atno 10763 bound_to 10752
  154.6278  135.2896  155.0253 H   0  0  0  0  0  0  0  0  0  0  0  0  # atno 10764 bound_to 10752
  154.1216  135.6606  153.4956 H   0  0  0  0  0  0  0  0  0  0  0  0  # atno 10765 bound_to 10752
  139.9159  134.9630  156.7704 H   0  0  0  0  0  0  0  0  0  0  0  0  # atno 11005 bound_to 11000
  146.1512  140.6923  142.9321 LP  0  0  0  0  0  0  0  0  0  0  0  0  # atno 17320 bound_to 7965
  144.7274  140.4567  143.6963 LP  0  0  0  0  0  0  0  0  0  0  0  0  # atno 17321 bound_to 7965
  140.7304  143.2683  151.3971 LP  0  0  0  0  0  0  0  0  0  0  0  0  # atno 17342 bound_to 10162
  139.6080  144.1158  152.2269 LP  0  0  0  0  0  0  0  0  0  0  0  0  # atno 17343 bound_to 10162
  155.9933  130.4994  150.7376 LP  0  0  0  0  0  0  0  0  0  0  0  0  # atno 17370 bound_to 10713
  157.4828  131.0904  151.0516 LP  0  0  0  0  0  0  0  0  0  0  0  0  # atno 17371 bound_to 10713
  140.6626  133.9632  155.7813 LP  0  0  0  0  0  0  0  0  0  0  0  0  # atno 17394 bound_to 11000
  141.0633  134.0314  157.3628 LP  0  0  0  0  0  0  0  0  0  0  0  0  # atno 17395 bound_to 11000

$$$$
