AV-unprocessed.smi:527|AV-procd|sdf|2826|dock9
  -GOLD-   2262023313D 1   1.00000     0.00000
 Structure written by MMmdl.
 43 44  0  0  0  0  0  0  0  0  2 V2000
  152.4241  139.5718  155.7885 C   0  0  0  0  0  0  0  0  0  0  0  0
  151.0024  139.2567  156.2974 C   0  0  1  0  0  0  0  0  0  0  0  0
  150.3386  140.4956  156.9317 C   0  0  0  0  0  0  0  0  0  0  0  0
  149.9224  141.5341  155.8782 C   0  0  0  0  0  0  0  0  0  0  0  0
  149.0012  140.9122  154.8194 C   0  0  0  0  0  0  0  0  0  0  0  0
  149.6361  139.6692  154.1602 C   0  0  2  0  0  0  0  0  0  0  0  0
  148.6873  139.0710  153.2222 N   0  0  0  0  0  0  0  0  0  0  0  0
  147.4948  138.5514  153.5490 C   0  0  0  0  0  0  0  0  0  0  0  0
  146.9039  138.8187  154.5977 O   0  0  0  0  0  0  0  0  0  0  0  0
  147.0509  137.7171  152.5886 N   0  0  0  0  0  0  0  0  0  0  0  0
  145.8130  137.1975  152.4599 C   0  0  0  0  0  0  0  0  0  0  0  0
  144.8718  137.4169  153.2269 O   0  0  0  0  0  0  0  0  0  0  0  0
  145.6252  136.2713  151.2512 C   0  0  0  0  0  0  0  0  0  0  0  0
  144.9928  134.9919  151.5990 N   0  0  0  0  0  0  0  0  0  0  0  0
  144.7328  133.9374  150.7609 C   0  0  0  0  0  0  0  0  0  0  0  0
  144.1254  132.9728  151.5229 C   0  0  0  0  0  0  0  0  0  0  0  0
  144.0408  133.4780  152.7927 N   0  3  0  0  0  0  0  0  0  0  0  0
  144.5684  134.7057  152.8373 C   0  0  0  0  0  0  0  0  0  0  0  0
  150.0678  138.6303  155.2279 C   0  0  1  0  0  0  0  0  0  0  0  0
  150.6570  137.3448  154.6138 C   0  0  0  0  0  0  0  0  0  0  0  0
  152.4179  140.2649  154.9480 H   0  0  0  0  0  0  0  0  0  0  0  0
  152.9449  138.6696  155.4689 H   0  0  0  0  0  0  0  0  0  0  0  0
  153.0273  140.0212  156.5777 H   0  0  0  0  0  0  0  0  0  0  0  0
  151.1216  138.5223  157.0952 H   0  0  0  0  0  0  0  0  0  0  0  0
  149.4549  140.1827  157.4896 H   0  0  0  0  0  0  0  0  0  0  0  0
  151.0082  140.9523  157.6612 H   0  0  0  0  0  0  0  0  0  0  0  0
  149.4155  142.3687  156.3629 H   0  0  0  0  0  0  0  0  0  0  0  0
  150.8058  141.9538  155.3964 H   0  0  0  0  0  0  0  0  0  0  0  0
  148.0542  140.6373  155.2865 H   0  0  0  0  0  0  0  0  0  0  0  0
  148.7635  141.6607  154.0626 H   0  0  0  0  0  0  0  0  0  0  0  0
  150.5234  139.9805  153.6065 H   0  0  0  0  0  0  0  0  0  0  0  0
  148.9592  139.0658  152.2501 H   0  0  0  0  0  0  0  0  0  0  0  0
  147.7231  137.4503  151.8844 H   0  0  0  0  0  0  0  0  0  0  0  0
  145.0011  136.7631  150.5036 H   0  0  0  0  0  0  0  0  0  0  0  0
  146.5910  136.0635  150.7878 H   0  0  0  0  0  0  0  0  0  0  0  0
  144.9889  133.9528  149.7112 H   0  0  0  0  0  0  0  0  0  0  0  0
  143.7553  131.9915  151.2633 H   0  0  0  0  0  0  0  0  0  0  0  0
  144.6333  135.3417  153.7021 H   0  0  0  0  0  0  0  0  0  0  0  0
  149.1631  138.3241  155.7564 H   0  0  0  0  0  0  0  0  0  0  0  0
  151.4978  137.5631  153.9553 H   0  0  0  0  0  0  0  0  0  0  0  0
  149.9144  136.8056  154.0257 H   0  0  0  0  0  0  0  0  0  0  0  0
  151.0071  136.6639  155.3901 H   0  0  0  0  0  0  0  0  0  0  0  0
  143.6346  132.9959  153.5848 H   0  0  0  0  0  0  0  0  0  0  0  0
  1  2  1  0  0  0  0
  1 21  1  0  0  0  0
  1 22  1  0  0  0  0
  1 23  1  0  0  0  0
  2 19  1  0  0  0  0
  2  3  1  0  0  0  0
  2 24  1  0  0  0  0
  3  4  1  0  0  0  0
  3 25  1  0  0  0  0
  3 26  1  0  0  0  0
  4  5  1  0  0  0  0
  4 27  1  0  0  0  0
  4 28  1  0  0  0  0
  5  6  1  0  0  0  0
  5 29  1  0  0  0  0
  5 30  1  0  0  0  0
  6  7  1  0  0  0  0
  6 19  1  0  0  0  0
  6 31  1  0  0  0  0
  7  8  1  0  0  0  0
  7 32  1  0  0  0  0
  8  9  2  0  0  0  0
  8 10  1  0  0  0  0
 10 11  1  0  0  0  0
 10 33  1  0  0  0  0
 11 12  2  0  0  0  0
 11 13  1  0  0  0  0
 13 14  1  0  0  0  0
 13 34  1  0  0  0  0
 13 35  1  0  0  0  0
 14 18  1  0  0  0  0
 14 15  1  0  0  0  0
 15 16  2  0  0  0  0
 15 36  1  0  0  0  0
 16 17  1  0  0  0  0
 16 37  1  0  0  0  0
 17 18  2  0  0  0  0
 17 43  1  0  0  0  0
 18 38  1  0  0  0  0
 19 20  1  0  0  0  0
 19 39  1  0  0  0  0
 20 40  1  0  0  0  0
 20 41  1  0  0  0  0
 20 42  1  0  0  0  0
M  CHG  1  17   1
M  END
> <s_m_source_file>
AV-unprocessed.smi

> <i_m_source_file_index>
527

> <i_lp_mmshare_version>
43012

> <i_f3d_flags>
0

> <s_epik_input>
W0NIM11bQ0BASF0xW0NIMl1bQ0gyXVtDSDJdW0NASF0oW0NASF0xW0NIM10pW05IXUMoPU8pW05IXUMoPU8pW0NIMl1uMltjSF1bY0hdbltjSF0y

> <s_epik_cmdline>
J2VwaWtfcHl0aG9uJywgJy1waCcsICc3LjAnLCAnLXRuJywgJzgnLCAnLW1hJywgJzIwMCcsICctbWV0YWxfYmluZGluZycsICctaW1hZScsICc8aW5maWxlLm1hZT4nLCAnLW9tYWUnLCAnPG91dGZpbGUubWFlPic=

> <r_lp_tautomer_probability>
1

> <r_epik_Ionization_Penalty>
0.816441

> <r_epik_Ionization_Penalty_Charging>
0

> <r_epik_Ionization_Penalty_Neutral>
0.816441

> <r_epik_State_Penalty>
0.849034

> <r_epik_Charging_Adjusted_Penalty>
0.849034

> <i_epik_Tot_Q>
1

> <i_epik_Tot_abs_Q>
1

> <r_epik_Metal_State_Penalty>
0.984327

> <b_epik_Metal_Only>
0

> <s_lp_Force_Field>
OPLS_2005

> <r_lp_Energy>
18.63

> <b_lp_Chiralities_Consistent>
1

> <s_lp_Variant>
AV-unprocessed.smi:527-12

> <Gold.Version>
5.8.1

> <Gold.Id.Protein>
6NUR|6NUR_protein|mol2

> <Gold.PLP.Fitness>
45.2036

> <Gold.PLP.PLP>
-32.1454

> <Gold.PLP.part.hbond>
-3.3574

> <Gold.PLP.part.metal>
0.0000

> <Gold.PLP.part.buried>
-2.4902

> <Gold.PLP.part.nonpolar>
-28.0125

> <Gold.PLP.part.repulsive>
0.4592

> <Gold.PLP.ligand.clash>
0.0000

> <Gold.PLP.ligand.torsion>
0.2347

> <Gold.PLP.Chemscore.Hbond>
3.5040

> <Gold.PLP.Chemscore.CHOScore>
1.0000

> <Gold.PLP.Chemscore.Metal>
0.0000

> <Gold.Chemscore.Hbonds>
donor molecule, donor type, donor heavy atom, donor atom, acceptor molecule, acceptor atom, score
      L1  H     7    32       P1  7957  0.83
      L1  H    10    33       P1  7948  0.67
      L1  H    17    43       P1 10957  2.00
      L1  C    15    36       P1  7921  1.00

> <Gold.PLP.Chemscore.Internal.Correction>
0.0156

> <Gold.Rescore>
     Score         DG    S(hbond)    S(metal)    S(lipo)     H(rot)  DE(clash)    DE(int)     intcor
     14.13     -17.78       2.78        0.00      63.10       1.71       0.06       3.58       ----

> <Gold.Chemscore.Fitness>
14.1300

> <Gold.Chemscore.DG>
-17.7790

> <Gold.Chemscore.ZeroCoef>
-5.4800

> <Gold.Chemscore.Hbond>
2.7789

> <Gold.Chemscore.Metal>
0.0000

> <Gold.Chemscore.Lipo>
63.1005

> <Gold.Chemscore.Internal_Hbond>
0.0000

> <Gold.Chemscore.DEClash>
0.0649

> <Gold.Chemscore.DEInternal>
3.5841

> <Gold.Chemscore.Rot>
1.7052

> <Gold.Chemscore.Internal.Correction>
   9.000000E+99

> <Gold.Chemscore.Hbonds>
donor molecule, donor type, donor heavy atom, donor atom, acceptor molecule, acceptor atom, score
      L1  H     7    32       P1  7957  0.78
      L1  H    10    33       P1  7948  0.68
      L1  H    17    43       P1 10957  0.89

> <Gold.Chemscore.Hbond.Weighted>
-9.2815

> <Gold.Chemscore.Metal.Weighted>
-0.0000

> <Gold.Chemscore.Lipo.Weighted>
-7.3828

> <Gold.Chemscore.Internal_Hbond.Weighted>
0.0000

> <Gold.Chemscore.DEClash.Weighted>
0.0649

> <Gold.Chemscore.DEInternal.Weighted>
3.5841

> <Gold.Chemscore.Rot.Weighted>
4.3653

> <Gold.Chemscore.Internal.Correction.Weighted>
   9.000000E+99

> <Gold.Protein.RotatedTorsions>
[ 6907 6896 6895 6894 ] final  104.24 input  -60.11 | X-H torsion
[ 7974 7965 7964 7962 ] final -136.94 input  175.53 | X-H torsion
[ 8008 7997 7996 7995 ] final -162.46 input   59.86 | X-H torsion
[ 10167 10162 10161 10158 ] final   66.69 input  -65.29 | X-H torsion
[ 10718 10713 10712 10709 ] final  123.29 input   66.30 | X-H torsion
[ 10763 10752 10751 10750 ] final   93.76 input  -60.55 | X-H torsion
[ 11005 11000 10999 10996 ] final   58.48 input  -57.11 | X-H torsion

> <Gold.Protein.ActiveResidues>
 VAL166  LYS551  ARG553  GLY616  TRP617  ASP618  TYR619  PRO620  LYS621  CYS622 
 ASP623  PHE694  ASN695  SER759  ASP760  ASP761  ALA762  ILE779  LEU786  VAL792 
 PHE793  MET794  SER795  GLU796  ALA797  LYS798  CYS799  TRP800  GLU811  SER814 

> <Gold.Protein.RotatedAtoms>
  152.5271  133.9707  159.7760 H   0  0  0  0  0  0  0  0  0  0  0  0  # atno 6907 bound_to 6896
  150.9979  133.6077  159.2706 H   0  0  0  0  0  0  0  0  0  0  0  0  # atno 6908 bound_to 6896
  151.3196  135.0821  159.9354 H   0  0  0  0  0  0  0  0  0  0  0  0  # atno 6909 bound_to 6896
  144.8884  140.6607  143.5161 H   0  0  0  0  0  0  0  0  0  0  0  0  # atno 7974 bound_to 7965
  155.8071  140.0900  157.1925 H   0  0  0  0  0  0  0  0  0  0  0  0  # atno 8008 bound_to 7997
  154.3980  140.1461  156.3402 H   0  0  0  0  0  0  0  0  0  0  0  0  # atno 8009 bound_to 7997
  155.8403  140.3439  155.5630 H   0  0  0  0  0  0  0  0  0  0  0  0  # atno 8010 bound_to 7997
  140.0977  144.4932  150.7058 H   0  0  0  0  0  0  0  0  0  0  0  0  # atno 10167 bound_to 10162
  157.5676  131.1085  150.8426 H   0  0  0  0  0  0  0  0  0  0  0  0  # atno 10718 bound_to 10713
  153.2339  135.4314  155.0625 H   0  0  0  0  0  0  0  0  0  0  0  0  # atno 10763 bound_to 10752
  154.8310  135.3386  154.6747 H   0  0  0  0  0  0  0  0  0  0  0  0  # atno 10764 bound_to 10752
  153.7173  135.7019  153.5078 H   0  0  0  0  0  0  0  0  0  0  0  0  # atno 10765 bound_to 10752
  140.0374  134.5923  155.9426 H   0  0  0  0  0  0  0  0  0  0  0  0  # atno 11005 bound_to 11000
  145.3827  139.1633  143.4271 LP  0  0  0  0  0  0  0  0  0  0  0  0  # atno 17320 bound_to 7965
  146.3038  140.3910  142.8694 LP  0  0  0  0  0  0  0  0  0  0  0  0  # atno 17321 bound_to 7965
  140.6995  143.2425  151.4906 LP  0  0  0  0  0  0  0  0  0  0  0  0  # atno 17342 bound_to 10162
  139.5689  144.1976  152.1807 LP  0  0  0  0  0  0  0  0  0  0  0  0  # atno 17343 bound_to 10162
  156.8906  130.5211  149.5286 LP  0  0  0  0  0  0  0  0  0  0  0  0  # atno 17370 bound_to 10713
  156.0723  130.5753  150.9408 LP  0  0  0  0  0  0  0  0  0  0  0  0  # atno 17371 bound_to 10713
  141.1865  133.6557  156.5241 LP  0  0  0  0  0  0  0  0  0  0  0  0  # atno 17394 bound_to 11000
  140.4124  134.7260  157.4844 LP  0  0  0  0  0  0  0  0  0  0  0  0  # atno 17395 bound_to 11000

$$$$
