AV-unprocessed.smi:2321|AV-procd|sdf|9283|dock7
  -GOLD-   2272012503D 1   1.00000     0.00000
 Structure written by MMmdl.
 36 37  0  0  0  0  0  0  0  0  1 V2000
  145.7614  138.6329  153.5955 O   0  0  0  0  0  0  0  0  0  0  0  0
  146.7348  138.0311  153.1475 C   0  0  0  0  0  0  0  0  0  0  0  0
  148.0194  138.3612  153.3845 N   0  0  0  0  0  0  0  0  0  0  0  0
  148.5419  139.4268  154.1661 C   0  0  0  0  0  0  0  0  0  0  0  0
  147.8316  140.6129  154.4721 C   0  0  0  0  0  0  0  0  0  0  0  0
  148.4728  141.6022  155.2446 C   0  0  0  0  0  0  0  0  0  0  0  0
  149.7367  141.4846  155.7045 N   0  0  0  0  0  0  0  0  0  0  0  0
  150.4154  140.3586  155.3984 C   0  0  0  0  0  0  0  0  0  0  0  0
  149.8680  139.3090  154.6337 C   0  0  0  0  0  0  0  0  0  0  0  0
  150.6055  138.2058  154.3585 F   0  0  0  0  0  0  0  0  0  0  0  0
  146.5799  136.9386  152.3766 N   0  0  0  0  0  0  0  0  0  0  0  0
  145.3360  136.3082  151.9280 C   0  0  2  0  0  0  0  0  0  0  0  0
  144.3177  136.3103  153.0820 C   0  0  0  0  0  0  0  0  0  0  0  0
  143.0121  135.6114  152.6747 C   0  0  0  0  0  0  0  0  0  0  0  0
  143.2768  134.1804  152.1815 C   0  0  0  0  0  0  0  0  0  0  0  0
  144.2899  134.1581  151.0176 C   0  0  2  0  0  0  0  0  0  0  0  0
  144.5487  132.7269  150.5032 C   0  0  0  0  0  0  0  0  0  0  0  0
  145.6162  132.6950  149.7050 F   0  0  0  0  0  0  0  0  0  0  0  0
  144.7543  131.9028  151.5307 F   0  0  0  0  0  0  0  0  0  0  0  0
  143.4890  132.2873  149.8242 F   0  0  0  0  0  0  0  0  0  0  0  0
  145.5954  134.8677  151.4368 C   0  0  0  0  0  0  0  0  0  0  0  0
  148.7103  137.7266  153.0113 H   0  0  0  0  0  0  0  0  0  0  0  0
  146.8256  140.7894  154.1245 H   0  0  0  0  0  0  0  0  0  0  0  0
  147.9569  142.5173  155.4947 H   0  0  0  0  0  0  0  0  0  0  0  0
  151.4264  140.2926  155.7726 H   0  0  0  0  0  0  0  0  0  0  0  0
  147.4296  136.4802  152.0803 H   0  0  0  0  0  0  0  0  0  0  0  0
  144.9079  136.8925  151.1113 H   0  0  0  0  0  0  0  0  0  0  0  0
  144.7409  135.8066  153.9524 H   0  0  0  0  0  0  0  0  0  0  0  0
  144.1034  137.3342  153.3911 H   0  0  0  0  0  0  0  0  0  0  0  0
  142.3234  135.5913  153.5199 H   0  0  0  0  0  0  0  0  0  0  0  0
  142.5191  136.1847  151.8887 H   0  0  0  0  0  0  0  0  0  0  0  0
  143.6506  133.5759  153.0088 H   0  0  0  0  0  0  0  0  0  0  0  0
  142.3357  133.7267  151.8692 H   0  0  0  0  0  0  0  0  0  0  0  0
  143.8568  134.7253  150.1921 H   0  0  0  0  0  0  0  0  0  0  0  0
  146.2886  134.8820  150.5953 H   0  0  0  0  0  0  0  0  0  0  0  0
  146.0856  134.2954  152.2257 H   0  0  0  0  0  0  0  0  0  0  0  0
  1  2  2  0  0  0  0
  2  3  1  0  0  0  0
  2 11  1  0  0  0  0
  3  4  1  0  0  0  0
  3 22  1  0  0  0  0
  4  9  1  0  0  0  0
  4  5  2  0  0  0  0
  5  6  1  0  0  0  0
  5 23  1  0  0  0  0
  6  7  2  0  0  0  0
  6 24  1  0  0  0  0
  7  8  1  0  0  0  0
  8  9  2  0  0  0  0
  8 25  1  0  0  0  0
  9 10  1  0  0  0  0
 11 12  1  0  0  0  0
 11 26  1  0  0  0  0
 12 21  1  0  0  0  0
 12 13  1  0  0  0  0
 12 27  1  0  0  0  0
 13 14  1  0  0  0  0
 13 28  1  0  0  0  0
 13 29  1  0  0  0  0
 14 15  1  0  0  0  0
 14 30  1  0  0  0  0
 14 31  1  0  0  0  0
 15 16  1  0  0  0  0
 15 32  1  0  0  0  0
 15 33  1  0  0  0  0
 16 17  1  0  0  0  0
 16 21  1  0  0  0  0
 16 34  1  0  0  0  0
 17 18  1  0  0  0  0
 17 19  1  0  0  0  0
 17 20  1  0  0  0  0
 21 35  1  0  0  0  0
 21 36  1  0  0  0  0
M  END
> <s_m_source_file>
AV-unprocessed.smi

> <i_m_source_file_index>
2321

> <i_lp_mmshare_version>
43012

> <i_f3d_flags>
0

> <s_epik_input>
RkMoRikoRilbQ0BASF0oW0NIMl0xKVtDSDJdW0NIMl1bQ0gyXVtDQEhdMVtOSF1DKD1PKVtOSF1jMltjSF1bY0hdbltjSF1jMkY=

> <s_epik_cmdline>
J2VwaWtfcHl0aG9uJywgJy1waCcsICc3LjAnLCAnLXRuJywgJzgnLCAnLW1hJywgJzIwMCcsICctbWV0YWxfYmluZGluZycsICctaW1hZScsICc8aW5maWxlLm1hZT4nLCAnLW9tYWUnLCAnPG91dGZpbGUubWFlPic=

> <r_epik_Ionization_Penalty>
0.00319438

> <r_epik_Ionization_Penalty_Charging>
0

> <r_epik_Ionization_Penalty_Neutral>
0.00319438

> <r_epik_State_Penalty>
0.00222511

> <r_epik_Charging_Adjusted_Penalty>
0.00222511

> <i_epik_Tot_Q>
0

> <i_epik_Tot_abs_Q>
0

> <r_epik_Metal_State_Penalty>
-0

> <b_epik_Metal_Only>
0

> <s_lp_Force_Field>
OPLS_2005

> <r_lp_Energy>
26.7556

> <b_lp_Chiralities_Consistent>
1

> <s_lp_Variant>
AV-unprocessed.smi:2321-3

> <Gold.Version>
5.8.1

> <Gold.Id.Protein>
6NUR|6NUR_protein|mol2

> <Gold.PLP.Fitness>
45.4390

> <Gold.PLP.PLP>
-38.2054

> <Gold.PLP.part.hbond>
-2.5516

> <Gold.PLP.part.metal>
0.0000

> <Gold.PLP.part.buried>
-3.2807

> <Gold.PLP.part.nonpolar>
-35.3142

> <Gold.PLP.part.repulsive>
1.6650

> <Gold.PLP.ligand.clash>
0.0000

> <Gold.PLP.ligand.torsion>
0.6973

> <Gold.PLP.Chemscore.Hbond>
1.8713

> <Gold.PLP.Chemscore.CHOScore>
0.9989

> <Gold.PLP.Chemscore.Metal>
0.0000

> <Gold.Chemscore.Hbonds>
donor molecule, donor type, donor heavy atom, donor atom, acceptor molecule, acceptor atom, score
      L1  H     3    22       P1  7948  0.90
      L1  H    11    26       P1  7948  1.00
      L1  C     6    24       P1  8028  0.97

> <Gold.PLP.Chemscore.Internal.Correction>
0.0177

> <Gold.Rescore>
     Score         DG    S(hbond)    S(metal)    S(lipo)     H(rot)  DE(clash)    DE(int)     intcor
     13.97     -17.18       1.91        0.00      67.33       1.00       0.05       3.16       ----

> <Gold.Chemscore.Fitness>
13.9673

> <Gold.Chemscore.DG>
-17.1787

> <Gold.Chemscore.ZeroCoef>
-5.4800

> <Gold.Chemscore.Hbond>
1.9107

> <Gold.Chemscore.Metal>
0.0000

> <Gold.Chemscore.Lipo>
67.3252

> <Gold.Chemscore.Internal_Hbond>
0.0000

> <Gold.Chemscore.DEClash>
0.0483

> <Gold.Chemscore.DEInternal>
3.1631

> <Gold.Chemscore.Rot>
1.0000

> <Gold.Chemscore.Internal.Correction>
   9.000000E+99

> <Gold.Chemscore.Hbonds>
donor molecule, donor type, donor heavy atom, donor atom, acceptor molecule, acceptor atom, score
      L1  H     3    22       P1  7948  0.88
      L1  H    11    26       P1  7948  0.94

> <Gold.Chemscore.Hbond.Weighted>
-6.3816

> <Gold.Chemscore.Metal.Weighted>
-0.0000

> <Gold.Chemscore.Lipo.Weighted>
-7.8771

> <Gold.Chemscore.Internal_Hbond.Weighted>
0.0000

> <Gold.Chemscore.DEClash.Weighted>
0.0483

> <Gold.Chemscore.DEInternal.Weighted>
3.1631

> <Gold.Chemscore.Rot.Weighted>
2.5600

> <Gold.Chemscore.Internal.Correction.Weighted>
   9.000000E+99

> <Gold.Protein.RotatedTorsions>
[ 6907 6896 6895 6894 ] final   -5.61 input  -60.11 | X-H torsion
[ 7974 7965 7964 7962 ] final  133.44 input  175.53 | X-H torsion
[ 8008 7997 7996 7995 ] final   53.44 input   59.86 | X-H torsion
[ 10167 10162 10161 10158 ] final  -79.21 input  -65.29 | X-H torsion
[ 10718 10713 10712 10709 ] final  167.67 input   66.30 | X-H torsion
[ 10763 10752 10751 10750 ] final   68.90 input  -60.55 | X-H torsion
[ 11005 11000 10999 10996 ] final  -39.20 input  -57.11 | X-H torsion

> <Gold.Protein.ActiveResidues>
 VAL166  LYS551  ARG553  GLY616  TRP617  ASP618  TYR619  PRO620  LYS621  CYS622 
 ASP623  PHE694  ASN695  SER759  ASP760  ASP761  ALA762  ILE779  LEU786  VAL792 
 PHE793  MET794  SER795  GLU796  ALA797  LYS798  CYS799  TRP800  GLU811  SER814 

> <Gold.Protein.RotatedAtoms>
  151.4789  135.1051  159.9771 H   0  0  0  0  0  0  0  0  0  0  0  0  # atno 6907 bound_to 6896
  152.4787  133.8197  159.7057 H   0  0  0  0  0  0  0  0  0  0  0  0  # atno 6908 bound_to 6896
  150.8843  133.7268  159.2949 H   0  0  0  0  0  0  0  0  0  0  0  0  # atno 6909 bound_to 6896
  144.9865  139.4450  143.5360 H   0  0  0  0  0  0  0  0  0  0  0  0  # atno 7974 bound_to 7965
  155.4683  140.3464  155.4322 H   0  0  0  0  0  0  0  0  0  0  0  0  # atno 8008 bound_to 7997
  156.1117  140.1463  156.9358 H   0  0  0  0  0  0  0  0  0  0  0  0  # atno 8009 bound_to 7997
  154.4761  140.0884  156.7244 H   0  0  0  0  0  0  0  0  0  0  0  0  # atno 8010 bound_to 7997
  140.4614  143.2452  151.8343 H   0  0  0  0  0  0  0  0  0  0  0  0  # atno 10167 bound_to 10162
  157.0481  131.0305  151.2690 H   0  0  0  0  0  0  0  0  0  0  0  0  # atno 10718 bound_to 10713
  153.0259  135.5230  154.7206 H   0  0  0  0  0  0  0  0  0  0  0  0  # atno 10763 bound_to 10752
  154.6262  135.2895  155.0271 H   0  0  0  0  0  0  0  0  0  0  0  0  # atno 10764 bound_to 10752
  154.1240  135.6603  153.4961 H   0  0  0  0  0  0  0  0  0  0  0  0  # atno 10765 bound_to 10752
  141.0084  133.6920  156.2154 H   0  0  0  0  0  0  0  0  0  0  0  0  # atno 11005 bound_to 11000
  146.3421  139.9170  142.8772 LP  0  0  0  0  0  0  0  0  0  0  0  0  # atno 17320 bound_to 7965
  145.2346  140.9986  143.3971 LP  0  0  0  0  0  0  0  0  0  0  0  0  # atno 17321 bound_to 7965
  139.4807  144.5003  151.9069 LP  0  0  0  0  0  0  0  0  0  0  0  0  # atno 17342 bound_to 10162
  140.4089  144.2395  150.5889 LP  0  0  0  0  0  0  0  0  0  0  0  0  # atno 17343 bound_to 10162
  157.5052  130.7904  149.7646 LP  0  0  0  0  0  0  0  0  0  0  0  0  # atno 17370 bound_to 10713
  156.0016  130.3877  150.2583 LP  0  0  0  0  0  0  0  0  0  0  0  0  # atno 17371 bound_to 10713
  140.6774  134.4803  157.5588 LP  0  0  0  0  0  0  0  0  0  0  0  0  # atno 17394 bound_to 11000
  139.9076  134.8415  156.1647 LP  0  0  0  0  0  0  0  0  0  0  0  0  # atno 17395 bound_to 11000

$$$$
