AV-unprocessed.smi:1820|AV-procd|sdf|7385|dock9
  -GOLD-   22720 9 53D 1   1.00000     0.00000
 Structure written by MMmdl.
 35 36  0  0  0  0  0  0  0  0  2 V2000
  150.3771  141.0702  157.9666 O   0  0  0  0  0  0  0  0  0  0  0  0
  150.0543  142.0591  157.3089 C   0  0  0  0  0  0  0  0  0  0  0  0
  149.9728  143.2952  157.8201 N   0  0  0  0  0  0  0  0  0  0  0  0
  150.2925  143.6578  159.1983 C   0  0  0  0  0  0  0  0  0  0  0  0
  151.7753  144.0700  159.3880 C   0  0  0  0  0  0  0  0  0  0  0  0
  152.0429  145.1732  158.5442 O   0  0  0  0  0  0  0  0  0  0  0  0
  152.1793  144.3672  160.8411 C   0  0  0  0  0  0  0  0  0  0  0  0
  152.4592  142.9937  161.4589 C   0  0  0  0  0  0  0  0  0  0  0  0
  152.8745  142.0822  160.2933 C   0  0  0  0  0  0  0  0  0  0  0  0
  152.7213  142.9194  159.0153 C   0  0  0  0  0  0  0  0  0  0  0  0
  149.7240  142.0505  156.0059 N   0  0  0  0  0  0  0  0  0  0  0  0
  149.6992  140.9516  155.1043 C   0  0  0  0  0  0  0  0  0  0  0  0
  150.7188  139.9818  155.2299 C   0  0  0  0  0  0  0  0  0  0  0  0
  150.7303  138.8677  154.3662 C   0  0  0  0  0  0  0  0  0  0  0  0
  149.7630  138.7292  153.4346 N   0  3  0  0  0  0  0  0  0  0  0  0
  148.7592  139.6200  153.2868 C   0  0  0  0  0  0  0  0  0  0  0  0
  148.6957  140.7548  154.1211 C   0  0  0  0  0  0  0  0  0  0  0  0
  149.6946  144.0482  157.2081 H   0  0  0  0  0  0  0  0  0  0  0  0
  149.6437  144.4973  159.4493 H   0  0  0  0  0  0  0  0  0  0  0  0
  150.0195  142.8600  159.8917 H   0  0  0  0  0  0  0  0  0  0  0  0
  151.3815  145.8318  158.6910 H   0  0  0  0  0  0  0  0  0  0  0  0
  153.1042  144.9462  160.8517 H   0  0  0  0  0  0  0  0  0  0  0  0
  151.4432  144.9411  161.4036 H   0  0  0  0  0  0  0  0  0  0  0  0
  153.2247  143.0480  162.2336 H   0  0  0  0  0  0  0  0  0  0  0  0
  151.5521  142.6044  161.9231 H   0  0  0  0  0  0  0  0  0  0  0  0
  153.8980  141.7227  160.4057 H   0  0  0  0  0  0  0  0  0  0  0  0
  152.2249  141.2069  160.2563 H   0  0  0  0  0  0  0  0  0  0  0  0
  152.3664  142.3316  158.1678 H   0  0  0  0  0  0  0  0  0  0  0  0
  153.7014  143.3152  158.7424 H   0  0  0  0  0  0  0  0  0  0  0  0
  149.4020  142.9290  155.6272 H   0  0  0  0  0  0  0  0  0  0  0  0
  151.4917  140.0906  155.9771 H   0  0  0  0  0  0  0  0  0  0  0  0
  151.4775  138.0881  154.3945 H   0  0  0  0  0  0  0  0  0  0  0  0
  148.0379  139.3980  152.5140 H   0  0  0  0  0  0  0  0  0  0  0  0
  147.8735  141.4426  153.9967 H   0  0  0  0  0  0  0  0  0  0  0  0
  149.7885  137.9151  152.8198 H   0  0  0  0  0  0  0  0  0  0  0  0
  1  2  2  0  0  0  0
  2  3  1  0  0  0  0
  2 11  1  0  0  0  0
  3  4  1  0  0  0  0
  3 18  1  0  0  0  0
  4  5  1  0  0  0  0
  4 19  1  0  0  0  0
  4 20  1  0  0  0  0
  5 10  1  0  0  0  0
  5  6  1  0  0  0  0
  5  7  1  0  0  0  0
  6 21  1  0  0  0  0
  7  8  1  0  0  0  0
  7 22  1  0  0  0  0
  7 23  1  0  0  0  0
  8  9  1  0  0  0  0
  8 24  1  0  0  0  0
  8 25  1  0  0  0  0
  9 10  1  0  0  0  0
  9 26  1  0  0  0  0
  9 27  1  0  0  0  0
 10 28  1  0  0  0  0
 10 29  1  0  0  0  0
 11 12  1  0  0  0  0
 11 30  1  0  0  0  0
 12 17  1  0  0  0  0
 12 13  2  0  0  0  0
 13 14  1  0  0  0  0
 13 31  1  0  0  0  0
 14 15  2  0  0  0  0
 14 32  1  0  0  0  0
 15 16  1  0  0  0  0
 15 35  1  0  0  0  0
 16 17  2  0  0  0  0
 16 33  1  0  0  0  0
 17 34  1  0  0  0  0
M  CHG  1  15   1
M  END
> <s_m_source_file>
AV-unprocessed.smi

> <i_m_source_file_index>
1820

> <i_lp_mmshare_version>
43012

> <i_f3d_flags>
0

> <s_epik_input>
W2NIXTFbY0hdbltjSF1bY0hdYzFbTkhdQyg9TylbTkhdW0NIMl1DMihbT0hdKVtDSDJdW0NIMl1bQ0gyXVtDSDJdMg==

> <s_epik_cmdline>
J2VwaWtfcHl0aG9uJywgJy1waCcsICc3LjAnLCAnLXRuJywgJzgnLCAnLW1hJywgJzIwMCcsICctbWV0YWxfYmluZGluZycsICctaW1hZScsICc8aW5maWxlLm1hZT4nLCAnLW9tYWUnLCAnPG91dGZpbGUubWFlPic=

> <r_epik_Ionization_Penalty>
0.972463

> <r_epik_Ionization_Penalty_Charging>
0.972441

> <r_epik_Ionization_Penalty_Neutral>
2.25054e-05

> <r_epik_State_Penalty>
1.01855

> <r_epik_Charging_Adjusted_Penalty>
1.99099

> <i_epik_Tot_Q>
1

> <i_epik_Tot_abs_Q>
1

> <r_epik_Metal_State_Penalty>
1.12508

> <b_epik_Metal_Only>
0

> <s_lp_Force_Field>
OPLS_2005

> <r_lp_Energy>
34.043

> <b_lp_Chiralities_Consistent>
1

> <s_lp_Variant>
AV-unprocessed.smi:1820-2

> <Gold.Version>
5.8.1

> <Gold.Id.Protein>
6NUR|6NUR_protein|mol2

> <Gold.PLP.Fitness>
49.8916

> <Gold.PLP.PLP>
-38.8561

> <Gold.PLP.part.hbond>
-4.0000

> <Gold.PLP.part.metal>
0.0000

> <Gold.PLP.part.buried>
-0.2128

> <Gold.PLP.part.nonpolar>
-34.8195

> <Gold.PLP.part.repulsive>
0.2455

> <Gold.PLP.ligand.clash>
0.0000

> <Gold.PLP.ligand.torsion>
0.4870

> <Gold.PLP.Chemscore.Hbond>
4.0000

> <Gold.PLP.Chemscore.CHOScore>
0.0000

> <Gold.PLP.Chemscore.Metal>
0.0000

> <Gold.Chemscore.Hbonds>
donor molecule, donor type, donor heavy atom, donor atom, acceptor molecule, acceptor atom, score
      L1  H     3    18       P1  8028  1.00
      L1  H    11    30       P1  8028  1.00
      L1  H    15    35       P1  7948  1.85

> <Gold.PLP.Chemscore.Internal.Correction>
0.0094

> <Gold.Rescore>
     Score         DG    S(hbond)    S(metal)    S(lipo)     H(rot)  DE(clash)    DE(int)     intcor
     17.20     -21.89       2.71        0.00     101.86       1.79       3.01       1.68       ----

> <Gold.Chemscore.Fitness>
17.1950

> <Gold.Chemscore.DG>
-21.8851

> <Gold.Chemscore.ZeroCoef>
-5.4800

> <Gold.Chemscore.Hbond>
2.7123

> <Gold.Chemscore.Metal>
0.0000

> <Gold.Chemscore.Lipo>
101.8591

> <Gold.Chemscore.Internal_Hbond>
0.0000

> <Gold.Chemscore.DEClash>
3.0140

> <Gold.Chemscore.DEInternal>
1.6760

> <Gold.Chemscore.Rot>
1.7858

> <Gold.Chemscore.Internal.Correction>
   9.000000E+99

> <Gold.Chemscore.Hbonds>
donor molecule, donor type, donor heavy atom, donor atom, acceptor molecule, acceptor atom, score
      L1  H     3    18       P1  8028  0.59
      L1  H    11    30       P1  8028  0.99
      L1  H    15    35       P1  7948  0.39

> <Gold.Chemscore.Hbond.Weighted>
-9.0592

> <Gold.Chemscore.Metal.Weighted>
-0.0000

> <Gold.Chemscore.Lipo.Weighted>
-11.9175

> <Gold.Chemscore.Internal_Hbond.Weighted>
0.0000

> <Gold.Chemscore.DEClash.Weighted>
3.0140

> <Gold.Chemscore.DEInternal.Weighted>
1.6760

> <Gold.Chemscore.Rot.Weighted>
4.5717

> <Gold.Chemscore.Internal.Correction.Weighted>
   9.000000E+99

> <Gold.Protein.RotatedTorsions>
[ 6907 6896 6895 6894 ] final -142.84 input  -60.11 | X-H torsion
[ 7974 7965 7964 7962 ] final  111.84 input  175.53 | X-H torsion
[ 8008 7997 7996 7995 ] final  142.02 input   59.86 | X-H torsion
[ 10167 10162 10161 10158 ] final  -13.59 input  -65.29 | X-H torsion
[ 10718 10713 10712 10709 ] final  -27.62 input   66.30 | X-H torsion
[ 10763 10752 10751 10750 ] final -170.13 input  -60.55 | X-H torsion
[ 11005 11000 10999 10996 ] final   -8.90 input  -57.11 | X-H torsion

> <Gold.Protein.ActiveResidues>
 VAL166  LYS551  ARG553  GLY616  TRP617  ASP618  TYR619  PRO620  LYS621  CYS622 
 ASP623  PHE694  ASN695  SER759  ASP760  ASP761  ALA762  ILE779  LEU786  VAL792 
 PHE793  MET794  SER795  GLU796  ALA797  LYS798  CYS799  TRP800  GLU811  SER814 

> <Gold.Protein.RotatedAtoms>
  151.0925  133.5305  159.2613 H   0  0  0  0  0  0  0  0  0  0  0  0  # atno 6907 bound_to 6896
  151.2167  135.0502  159.8943 H   0  0  0  0  0  0  0  0  0  0  0  0  # atno 6908 bound_to 6896
  152.5435  134.0733  159.8257 H   0  0  0  0  0  0  0  0  0  0  0  0  # atno 6909 bound_to 6896
  145.2371  139.2794  143.4137 H   0  0  0  0  0  0  0  0  0  0  0  0  # atno 7974 bound_to 7965
  156.2956  140.2300  156.4660 H   0  0  0  0  0  0  0  0  0  0  0  0  # atno 8008 bound_to 7997
  154.7976  140.0450  157.1270 H   0  0  0  0  0  0  0  0  0  0  0  0  # atno 8009 bound_to 7997
  154.9571  140.3049  155.5051 H   0  0  0  0  0  0  0  0  0  0  0  0  # atno 8010 bound_to 7997
  140.7185  143.5411  150.9408 H   0  0  0  0  0  0  0  0  0  0  0  0  # atno 10167 bound_to 10162
  156.4358  130.4454  149.7086 H   0  0  0  0  0  0  0  0  0  0  0  0  # atno 10718 bound_to 10713
  154.6448  135.2903  155.0060 H   0  0  0  0  0  0  0  0  0  0  0  0  # atno 10763 bound_to 10752
  154.1173  135.6553  153.4900 H   0  0  0  0  0  0  0  0  0  0  0  0  # atno 10764 bound_to 10752
  153.0345  135.5279  154.7330 H   0  0  0  0  0  0  0  0  0  0  0  0  # atno 10765 bound_to 10752
  140.7284  133.8769  155.8874 H   0  0  0  0  0  0  0  0  0  0  0  0  # atno 11005 bound_to 11000
  146.3338  140.2723  142.8606 LP  0  0  0  0  0  0  0  0  0  0  0  0  # atno 17320 bound_to 7965
  144.9623  140.8287  143.5506 LP  0  0  0  0  0  0  0  0  0  0  0  0  # atno 17321 bound_to 7965
  139.9133  143.6694  152.3111 LP  0  0  0  0  0  0  0  0  0  0  0  0  # atno 17342 bound_to 10162
  139.7084  144.7624  151.1153 LP  0  0  0  0  0  0  0  0  0  0  0  0  # atno 17343 bound_to 10162
  156.3971  130.7656  151.2661 LP  0  0  0  0  0  0  0  0  0  0  0  0  # atno 17370 bound_to 10713
  157.7507  131.0251  150.3903 LP  0  0  0  0  0  0  0  0  0  0  0  0  # atno 17371 bound_to 10713
  140.9942  134.1237  157.4379 LP  0  0  0  0  0  0  0  0  0  0  0  0  # atno 17394 bound_to 11000
  139.8832  135.0049  156.6282 LP  0  0  0  0  0  0  0  0  0  0  0  0  # atno 17395 bound_to 11000

$$$$
