AV-unprocessed.smi:320|AV-procd|sdf|2332|dock10
  -GOLD-   2262022233D 1   1.00000     0.00000
 Structure written by MMmdl.
 49 52  0  0  0  0  0  0  0  0  1 V2000
  150.4000  141.9256  155.8485 C   0  0  0  0  0  0  0  0  0  0  0  0
  150.0116  142.0128  157.3387 C   0  0  2  0  0  0  0  0  0  0  0  0
  148.6623  142.5718  157.4357 N   0  0  0  0  0  0  0  0  0  0  0  0
  147.5574  141.9039  157.8007 C   0  0  0  0  0  0  0  0  0  0  0  0
  147.5603  140.7138  158.1191 O   0  0  0  0  0  0  0  0  0  0  0  0
  146.2584  142.7228  157.8157 C   0  0  0  0  0  0  0  0  0  0  0  0
  145.5465  142.6689  159.1036 N   0  0  0  0  0  0  0  0  0  0  0  0
  144.1580  142.4332  159.0578 C   0  0  0  0  0  0  0  0  0  0  0  0
  143.4113  142.3711  160.1716 C   0  0  0  0  0  0  0  0  0  0  0  0
  144.0676  142.5533  161.4444 C   0  0  0  0  0  0  0  0  0  0  0  0
  145.3947  142.7832  161.4995 C   0  0  0  0  0  0  0  0  0  0  0  0
  146.2145  142.8546  160.2842 C   0  0  0  0  0  0  0  0  0  0  0  0
  147.4265  143.0685  160.3249 O   0  0  0  0  0  0  0  0  0  0  0  0
  151.0094  142.8026  158.2449 C   0  0  0  0  0  0  0  0  0  0  0  0
  150.2850  143.2502  159.5494 C   0  0  0  0  0  0  0  0  0  0  0  0
  151.2463  144.0156  160.4821 C   0  0  2  0  0  0  0  0  0  0  0  0
  151.7757  145.2692  159.7562 C   0  0  0  0  0  0  0  0  0  0  0  0
  152.5285  144.8364  158.4815 C   0  0  1  0  0  0  0  0  0  0  0  0
  153.7116  143.9239  158.8653 C   0  0  0  0  0  0  0  0  0  0  0  0
  153.1733  142.6751  159.5939 C   0  0  1  0  0  0  0  0  0  0  0  0
  152.4245  143.1013  160.8716 C   0  0  0  0  0  0  0  0  0  0  0  0
  152.2128  141.9080  158.6601 C   0  0  0  0  0  0  0  0  0  0  0  0
  151.5675  144.0747  157.5424 C   0  0  0  0  0  0  0  0  0  0  0  0
  151.3469  141.4078  155.7021 H   0  0  0  0  0  0  0  0  0  0  0  0
  150.4772  142.9101  155.3881 H   0  0  0  0  0  0  0  0  0  0  0  0
  149.6513  141.3659  155.2867 H   0  0  0  0  0  0  0  0  0  0  0  0
  149.9894  140.9887  157.7163 H   0  0  0  0  0  0  0  0  0  0  0  0
  148.5627  143.5481  157.1983 H   0  0  0  0  0  0  0  0  0  0  0  0
  146.5035  143.7540  157.5579 H   0  0  0  0  0  0  0  0  0  0  0  0
  145.6057  142.3757  157.0122 H   0  0  0  0  0  0  0  0  0  0  0  0
  143.7436  142.3153  158.0671 H   0  0  0  0  0  0  0  0  0  0  0  0
  142.3472  142.1940  160.1162 H   0  0  0  0  0  0  0  0  0  0  0  0
  143.4918  142.5060  162.3570 H   0  0  0  0  0  0  0  0  0  0  0  0
  145.8683  142.9190  162.4608 H   0  0  0  0  0  0  0  0  0  0  0  0
  149.4317  143.8899  159.3219 H   0  0  0  0  0  0  0  0  0  0  0  0
  149.8800  142.3822  160.0714 H   0  0  0  0  0  0  0  0  0  0  0  0
  150.7117  144.3183  161.3831 H   0  0  0  0  0  0  0  0  0  0  0  0
  150.9506  145.9353  159.5005 H   0  0  0  0  0  0  0  0  0  0  0  0
  152.4373  145.8352  160.4131 H   0  0  0  0  0  0  0  0  0  0  0  0
  152.9072  145.7212  157.9689 H   0  0  0  0  0  0  0  0  0  0  0  0
  154.2691  143.6322  157.9744 H   0  0  0  0  0  0  0  0  0  0  0  0
  154.4119  144.4623  159.5051 H   0  0  0  0  0  0  0  0  0  0  0  0
  154.0082  142.0277  159.8644 H   0  0  0  0  0  0  0  0  0  0  0  0
  153.1000  143.6227  161.5510 H   0  0  0  0  0  0  0  0  0  0  0  0
  152.0623  142.2235  161.4086 H   0  0  0  0  0  0  0  0  0  0  0  0
  151.8584  141.0024  159.1544 H   0  0  0  0  0  0  0  0  0  0  0  0
  152.7734  141.5799  157.7853 H   0  0  0  0  0  0  0  0  0  0  0  0
  152.0981  143.8075  156.6284 H   0  0  0  0  0  0  0  0  0  0  0  0
  150.7569  144.7390  157.2409 H   0  0  0  0  0  0  0  0  0  0  0  0
  1  2  1  0  0  0  0
  1 24  1  0  0  0  0
  1 25  1  0  0  0  0
  1 26  1  0  0  0  0
  2  3  1  0  0  0  0
  2 14  1  0  0  0  0
  2 27  1  0  0  0  0
  3  4  1  0  0  0  0
  3 28  1  0  0  0  0
  4  5  2  0  0  0  0
  4  6  1  0  0  0  0
  6  7  1  0  0  0  0
  6 29  1  0  0  0  0
  6 30  1  0  0  0  0
  7 12  1  0  0  0  0
  7  8  1  0  0  0  0
  8  9  2  0  0  0  0
  8 31  1  0  0  0  0
  9 10  1  0  0  0  0
  9 32  1  0  0  0  0
 10 11  2  0  0  0  0
 10 33  1  0  0  0  0
 11 12  1  0  0  0  0
 11 34  1  0  0  0  0
 12 13  2  0  0  0  0
 14 22  1  0  0  0  0
 14 23  1  0  0  0  0
 14 15  1  0  0  0  0
 15 16  1  0  0  0  0
 15 35  1  0  0  0  0
 15 36  1  0  0  0  0
 16 21  1  0  0  0  0
 16 17  1  0  0  0  0
 16 37  1  0  0  0  0
 17 18  1  0  0  0  0
 17 38  1  0  0  0  0
 17 39  1  0  0  0  0
 18 19  1  0  0  0  0
 18 23  1  0  0  0  0
 18 40  1  0  0  0  0
 19 20  1  0  0  0  0
 19 41  1  0  0  0  0
 19 42  1  0  0  0  0
 20 21  1  0  0  0  0
 20 22  1  0  0  0  0
 20 43  1  0  0  0  0
 21 44  1  0  0  0  0
 21 45  1  0  0  0  0
 22 46  1  0  0  0  0
 22 47  1  0  0  0  0
 23 48  1  0  0  0  0
 23 49  1  0  0  0  0
M  END
> <s_m_source_file>
AV-unprocessed.smi

> <i_m_source_file_index>
320

> <i_lp_mmshare_version>
43012

> <i_f3d_flags>
0

> <s_epik_input>
W0NIMl0xW0NAQEhdKFtDSDJdMilbQ0gyXVtDQEBIXShbQ0gyXTMpW0NIMl1bQ0BIXTFbQ0gyXUMyM1tDQEhdKFtDSDNdKVtOSF1DKD1PKVtDSDJdbjRbY0hdW2NIXVtjSF1bY0hdYzQ9Tw==

> <s_epik_cmdline>
J2VwaWtfcHl0aG9uJywgJy1waCcsICc3LjAnLCAnLXRuJywgJzgnLCAnLW1hJywgJzIwMCcsICctbWV0YWxfYmluZGluZycsICctaW1hZScsICc8aW5maWxlLm1hZT4nLCAnLW9tYWUnLCAnPG91dGZpbGUubWFlPic=

> <r_lp_tautomer_probability>
1

> <r_epik_Ionization_Penalty>
4.15949e-07

> <r_epik_Ionization_Penalty_Charging>
3.97363e-07

> <r_epik_Ionization_Penalty_Neutral>
1.85865e-08

> <r_epik_State_Penalty>
-0

> <r_epik_Charging_Adjusted_Penalty>
3.97363e-07

> <i_epik_Tot_Q>
0

> <i_epik_Tot_abs_Q>
0

> <r_epik_Metal_State_Penalty>
-0

> <b_epik_Metal_Only>
0

> <s_lp_Force_Field>
OPLS_2005

> <r_lp_Energy>
45.4177

> <b_lp_Chiralities_Consistent>
1

> <s_lp_Variant>
AV-unprocessed.smi:320-1

> <Gold.Version>
5.8.1

> <Gold.Id.Protein>
6NUR|6NUR_protein|mol2

> <Gold.PLP.Fitness>
48.5186

> <Gold.PLP.PLP>
-45.3912

> <Gold.PLP.part.hbond>
-3.2193

> <Gold.PLP.part.metal>
0.0000

> <Gold.PLP.part.buried>
-5.8995

> <Gold.PLP.part.nonpolar>
-36.0285

> <Gold.PLP.part.repulsive>
0.1372

> <Gold.PLP.ligand.clash>
0.0101

> <Gold.PLP.ligand.torsion>
0.9561

> <Gold.PLP.Chemscore.Hbond>
1.6660

> <Gold.PLP.Chemscore.CHOScore>
0.0000

> <Gold.PLP.Chemscore.Metal>
0.0000

> <Gold.Chemscore.Hbonds>
donor molecule, donor type, donor heavy atom, donor atom, acceptor molecule, acceptor atom, score
      L1  H     3    28       P1  8028  0.60
      P1  H  6933  6944       L1    13  1.00

> <Gold.PLP.Chemscore.Internal.Correction>
0.0516

> <Gold.Rescore>
     Score         DG    S(hbond)    S(metal)    S(lipo)     H(rot)  DE(clash)    DE(int)     intcor
     18.89     -23.00       1.26        0.00     147.20       1.52       2.21       1.90       ----

> <Gold.Chemscore.Fitness>
18.8941

> <Gold.Chemscore.DG>
-23.0034

> <Gold.Chemscore.ZeroCoef>
-5.4800

> <Gold.Chemscore.Hbond>
1.2553

> <Gold.Chemscore.Metal>
0.0000

> <Gold.Chemscore.Lipo>
147.1991

> <Gold.Chemscore.Internal_Hbond>
0.0000

> <Gold.Chemscore.DEClash>
2.2103

> <Gold.Chemscore.DEInternal>
1.8990

> <Gold.Chemscore.Rot>
1.5202

> <Gold.Chemscore.Internal.Correction>
   9.000000E+99

> <Gold.Chemscore.Hbonds>
donor molecule, donor type, donor heavy atom, donor atom, acceptor molecule, acceptor atom, score
      L1  H     3    28       P1  8028  0.07
      P1  H  6933  6944       L1    13  0.96

> <Gold.Chemscore.Hbond.Weighted>
-4.1927

> <Gold.Chemscore.Metal.Weighted>
-0.0000

> <Gold.Chemscore.Lipo.Weighted>
-17.2223

> <Gold.Chemscore.Internal_Hbond.Weighted>
0.0000

> <Gold.Chemscore.DEClash.Weighted>
2.2103

> <Gold.Chemscore.DEInternal.Weighted>
1.8990

> <Gold.Chemscore.Rot.Weighted>
3.8916

> <Gold.Chemscore.Internal.Correction.Weighted>
   9.000000E+99

> <Gold.Protein.RotatedTorsions>
[ 6907 6896 6895 6894 ] final  155.32 input  -60.11 | X-H torsion
[ 7974 7965 7964 7962 ] final  129.82 input  175.53 | X-H torsion
[ 8008 7997 7996 7995 ] final -169.01 input   59.86 | X-H torsion
[ 10167 10162 10161 10158 ] final  -77.06 input  -65.29 | X-H torsion
[ 10718 10713 10712 10709 ] final -162.03 input   66.30 | X-H torsion
[ 10763 10752 10751 10750 ] final  -79.51 input  -60.55 | X-H torsion
[ 11005 11000 10999 10996 ] final  127.70 input  -57.11 | X-H torsion

> <Gold.Protein.ActiveResidues>
 VAL166  LYS551  ARG553  GLY616  TRP617  ASP618  TYR619  PRO620  LYS621  CYS622 
 ASP623  PHE694  ASN695  SER759  ASP760  ASP761  ALA762  ILE779  LEU786  VAL792 
 PHE793  MET794  SER795  GLU796  ALA797  LYS798  CYS799  TRP800  GLU811  SER814 

> <Gold.Protein.RotatedAtoms>
  152.0458  133.3997  159.4355 H   0  0  0  0  0  0  0  0  0  0  0  0  # atno 6907 bound_to 6896
  150.6873  134.3363  159.4858 H   0  0  0  0  0  0  0  0  0  0  0  0  # atno 6908 bound_to 6896
  152.1167  134.9235  160.0615 H   0  0  0  0  0  0  0  0  0  0  0  0  # atno 6909 bound_to 6896
  145.0246  139.4101  143.5180 H   0  0  0  0  0  0  0  0  0  0  0  0  # atno 7974 bound_to 7965
  155.8991  140.1038  157.1363 H   0  0  0  0  0  0  0  0  0  0  0  0  # atno 8008 bound_to 7997
  154.4024  140.1296  156.4478 H   0  0  0  0  0  0  0  0  0  0  0  0  # atno 8009 bound_to 7997
  155.7444  140.3466  155.5122 H   0  0  0  0  0  0  0  0  0  0  0  0  # atno 8010 bound_to 7997
  140.4803  143.2404  151.8068 H   0  0  0  0  0  0  0  0  0  0  0  0  # atno 10167 bound_to 10162
  156.6046  130.8825  151.2922 H   0  0  0  0  0  0  0  0  0  0  0  0  # atno 10718 bound_to 10713
  154.5395  135.5693  153.6827 H   0  0  0  0  0  0  0  0  0  0  0  0  # atno 10763 bound_to 10752
  152.9960  135.6224  154.2521 H   0  0  0  0  0  0  0  0  0  0  0  0  # atno 10764 bound_to 10752
  154.2451  135.2861  155.2818 H   0  0  0  0  0  0  0  0  0  0  0  0  # atno 10765 bound_to 10752
  139.9521  134.9620  156.8893 H   0  0  0  0  0  0  0  0  0  0  0  0  # atno 11005 bound_to 11000
  146.3490  139.9762  142.8701 LP  0  0  0  0  0  0  0  0  0  0  0  0  # atno 17320 bound_to 7965
  145.1851  140.9785  143.4244 LP  0  0  0  0  0  0  0  0  0  0  0  0  # atno 17321 bound_to 7965
  139.4832  144.4780  151.9342 LP  0  0  0  0  0  0  0  0  0  0  0  0  # atno 17342 bound_to 10162
  140.3866  144.2669  150.5903 LP  0  0  0  0  0  0  0  0  0  0  0  0  # atno 17343 bound_to 10162
  157.7270  130.9637  150.1682 LP  0  0  0  0  0  0  0  0  0  0  0  0  # atno 17370 bound_to 10713
  156.2440  130.3694  149.8305 LP  0  0  0  0  0  0  0  0  0  0  0  0  # atno 17371 bound_to 10713
  140.5694  134.0458  155.7425 LP  0  0  0  0  0  0  0  0  0  0  0  0  # atno 17394 bound_to 11000
  141.1186  133.9499  157.2774 LP  0  0  0  0  0  0  0  0  0  0  0  0  # atno 17395 bound_to 11000

$$$$
