AV-unprocessed.smi:113|AV-procd|sdf|1092|dock9
  -GOLD-   2262018193D 1   1.00000     0.00000
 Structure written by MMmdl.
 52 55  0  0  0  0  0  0  0  0  1 V2000
  153.3961  139.0847  159.8927 C   0  0  0  0  0  0  0  0  0  0  0  0
  152.7183  140.3543  159.4210 C   0  0  0  0  0  0  0  0  0  0  0  0
  151.7823  140.3225  158.3722 C   0  0  0  0  0  0  0  0  0  0  0  0
  151.1748  141.5301  157.9576 C   0  0  0  0  0  0  0  0  0  0  0  0
  150.1502  141.5512  156.8177 C   0  0  0  0  0  0  0  0  0  0  0  0
  149.9535  140.3061  156.0886 N   0  0  0  0  0  0  0  0  0  0  0  0
  151.0905  139.6969  155.5064 C   0  0  0  0  0  0  0  0  0  0  0  0
  152.2120  140.2004  155.6009 O   0  0  0  0  0  0  0  0  0  0  0  0
  150.8309  138.4352  154.8101 C   0  0  0  0  0  0  0  0  0  0  0  0
  152.0024  137.7401  154.1333 C   0  0  0  0  0  0  0  0  0  0  0  0
  149.5759  137.9241  154.7831 C   0  0  0  0  0  0  0  0  0  0  0  0
  148.4820  138.5254  155.3905 N   0  0  0  0  0  0  0  0  0  0  0  0
  147.0917  137.9166  155.4028 C   0  0  1  0  0  0  0  0  0  0  0  0
  145.9617  138.8157  154.9078 C   0  0  0  0  0  0  0  0  0  0  0  0
  144.9014  137.7696  154.6318 C   0  0  1  0  0  0  0  0  0  0  0  0
  143.9318  138.2555  153.7242 O   0  0  0  0  0  0  0  0  0  0  0  0
  145.7275  136.5593  154.1368 C   0  0  1  0  0  0  0  0  0  0  0  0
  145.7297  136.3009  152.6178 C   0  0  0  0  0  0  0  0  0  0  0  0
  146.2352  137.4204  151.9199 O   0  0  0  0  0  0  0  0  0  0  0  0
  147.0753  136.8447  154.5145 O   0  0  0  0  0  0  0  0  0  0  0  0
  148.6530  139.7553  156.0614 C   0  0  0  0  0  0  0  0  0  0  0  0
  147.6999  140.3133  156.6113 O   0  0  0  0  0  0  0  0  0  0  0  0
  151.5443  142.7256  158.6310 C   0  0  0  0  0  0  0  0  0  0  0  0
  150.9800  143.9762  158.2808 C   0  0  0  0  0  0  0  0  0  0  0  0
  151.3611  145.1483  158.9579 C   0  0  0  0  0  0  0  0  0  0  0  0
  152.3104  145.0835  159.9910 C   0  0  0  0  0  0  0  0  0  0  0  0
  152.8748  143.8451  160.3460 C   0  0  0  0  0  0  0  0  0  0  0  0
  152.5065  142.6554  159.6816 C   0  0  0  0  0  0  0  0  0  0  0  0
  153.0730  141.4875  160.0571 N   0  0  0  0  0  0  0  0  0  0  0  0
  152.8390  138.2020  159.5765 H   0  0  0  0  0  0  0  0  0  0  0  0
  153.4687  139.0653  160.9806 H   0  0  0  0  0  0  0  0  0  0  0  0
  154.4027  139.0204  159.4790 H   0  0  0  0  0  0  0  0  0  0  0  0
  151.5458  139.3796  157.9029 H   0  0  0  0  0  0  0  0  0  0  0  0
  149.1767  141.8684  157.1943 H   0  0  0  0  0  0  0  0  0  0  0  0
  150.4166  142.3146  156.0848 H   0  0  0  0  0  0  0  0  0  0  0  0
  151.7016  136.8124  153.6458 H   0  0  0  0  0  0  0  0  0  0  0  0
  152.7728  137.4950  154.8654 H   0  0  0  0  0  0  0  0  0  0  0  0
  152.4442  138.3869  153.3746 H   0  0  0  0  0  0  0  0  0  0  0  0
  149.4482  137.0026  154.2392 H   0  0  0  0  0  0  0  0  0  0  0  0
  146.9287  137.5771  156.4282 H   0  0  0  0  0  0  0  0  0  0  0  0
  145.6779  139.5630  155.6497 H   0  0  0  0  0  0  0  0  0  0  0  0
  146.2409  139.2960  153.9695 H   0  0  0  0  0  0  0  0  0  0  0  0
  144.4040  137.5069  155.5665 H   0  0  0  0  0  0  0  0  0  0  0  0
  144.1987  139.1132  153.4293 H   0  0  0  0  0  0  0  0  0  0  0  0
  145.4135  135.6575  154.6644 H   0  0  0  0  0  0  0  0  0  0  0  0
  146.3026  135.4074  152.3670 H   0  0  0  0  0  0  0  0  0  0  0  0
  144.7103  136.1317  152.2695 H   0  0  0  0  0  0  0  0  0  0  0  0
  147.1566  137.2840  151.7593 H   0  0  0  0  0  0  0  0  0  0  0  0
  150.2484  144.0615  157.4920 H   0  0  0  0  0  0  0  0  0  0  0  0
  150.9247  146.0974  158.6834 H   0  0  0  0  0  0  0  0  0  0  0  0
  152.6060  145.9821  160.5120 H   0  0  0  0  0  0  0  0  0  0  0  0
  153.6032  143.8082  161.1430 H   0  0  0  0  0  0  0  0  0  0  0  0
  1  2  1  0  0  0  0
  1 30  1  0  0  0  0
  1 31  1  0  0  0  0
  1 32  1  0  0  0  0
  2 29  1  0  0  0  0
  2  3  2  0  0  0  0
  3  4  1  0  0  0  0
  3 33  1  0  0  0  0
  4  5  1  0  0  0  0
  4 23  2  0  0  0  0
  5  6  1  0  0  0  0
  5 34  1  0  0  0  0
  5 35  1  0  0  0  0
  6 21  1  0  0  0  0
  6  7  1  0  0  0  0
  7  8  2  0  0  0  0
  7  9  1  0  0  0  0
  9 10  1  0  0  0  0
  9 11  2  0  0  0  0
 10 36  1  0  0  0  0
 10 37  1  0  0  0  0
 10 38  1  0  0  0  0
 11 12  1  0  0  0  0
 11 39  1  0  0  0  0
 12 13  1  0  0  0  0
 12 21  1  0  0  0  0
 13 20  1  0  0  0  0
 13 14  1  0  0  0  0
 13 40  1  0  0  0  0
 14 15  1  0  0  0  0
 14 41  1  0  0  0  0
 14 42  1  0  0  0  0
 15 16  1  0  0  0  0
 15 17  1  0  0  0  0
 15 43  1  0  0  0  0
 16 44  1  0  0  0  0
 17 18  1  0  0  0  0
 17 20  1  0  0  0  0
 17 45  1  0  0  0  0
 18 19  1  0  0  0  0
 18 46  1  0  0  0  0
 18 47  1  0  0  0  0
 19 48  1  0  0  0  0
 21 22  2  0  0  0  0
 23 28  1  0  0  0  0
 23 24  1  0  0  0  0
 24 25  2  0  0  0  0
 24 49  1  0  0  0  0
 25 26  1  0  0  0  0
 25 50  1  0  0  0  0
 26 27  2  0  0  0  0
 26 51  1  0  0  0  0
 27 28  1  0  0  0  0
 27 52  1  0  0  0  0
 28 29  2  0  0  0  0
M  END
> <s_m_source_file>
AV-unprocessed.smi

> <i_m_source_file_index>
113

> <i_lp_mmshare_version>
43012

> <i_f3d_flags>
0

> <s_epik_input>
W2NIXTFbY0hdW2NIXVtjSF1jKGMxMiluYyhbQ0gzXSlbY0hdYzJbQ0gyXW4zYyg9TyljKFtDSDNdKVtjSF1uKGMzPU8pW0NAQEhdNFtDSDJdW0NAQEhdKFtPSF0pW0NASF0oTzQpW0NIMl1bT0hd

> <s_epik_cmdline>
J2VwaWtfcHl0aG9uJywgJy1waCcsICc3LjAnLCAnLXRuJywgJzgnLCAnLW1hJywgJzIwMCcsICctbWV0YWxfYmluZGluZycsICctaW1hZScsICc8aW5maWxlLm1hZT4nLCAnLW9tYWUnLCAnPG91dGZpbGUubWFlPic=

> <r_lp_tautomer_probability>
1

> <r_epik_Ionization_Penalty>
0.214728

> <r_epik_Ionization_Penalty_Charging>
3.04883e-08

> <r_epik_Ionization_Penalty_Neutral>
0.214728

> <r_epik_State_Penalty>
0.204913

> <r_epik_Charging_Adjusted_Penalty>
0.204913

> <i_epik_Tot_Q>
0

> <i_epik_Tot_abs_Q>
0

> <r_epik_Metal_State_Penalty>
0.000244761

> <b_epik_Metal_Only>
0

> <s_epik_Chemistry_Notes>
This compound contains an acetal/aminal-like group ( X-CH(R)-Y where X, Y are N, S, or O) that may be acid/base labile, releasing an aldehyde.

> <s_lp_Force_Field>
OPLS_2005

> <r_lp_Energy>
43.3088

> <b_lp_Chiralities_Consistent>
1

> <s_lp_Variant>
AV-unprocessed.smi:113-2

> <Gold.Version>
5.8.1

> <Gold.Id.Protein>
6NUR|6NUR_protein|mol2

> <Gold.PLP.Fitness>
54.4361

> <Gold.PLP.PLP>
-44.4469

> <Gold.PLP.part.hbond>
-3.4497

> <Gold.PLP.part.metal>
0.0000

> <Gold.PLP.part.buried>
-5.9075

> <Gold.PLP.part.nonpolar>
-35.1559

> <Gold.PLP.part.repulsive>
0.2269

> <Gold.PLP.ligand.clash>
0.0000

> <Gold.PLP.ligand.torsion>
0.2088

> <Gold.PLP.Chemscore.Hbond>
2.4585

> <Gold.PLP.Chemscore.CHOScore>
1.0000

> <Gold.PLP.Chemscore.Metal>
0.0000

> <Gold.Chemscore.Hbonds>
donor molecule, donor type, donor heavy atom, donor atom, acceptor molecule, acceptor atom, score
      L1  H    16    44       P1 10175  0.83
      L1  H    19    48       P1  7948  0.93
      P1  H  7989  7998       L1     8  0.01
      P1  H  7997  8008       L1     8  0.55
      L1  C    11    39       P1  7948  1.00

> <Gold.PLP.Chemscore.Internal.Correction>
0.0314

> <Gold.Rescore>
     Score         DG    S(hbond)    S(metal)    S(lipo)     H(rot)  DE(clash)    DE(int)     intcor
     17.18     -20.93       2.64        0.00     121.10       2.95       0.67       3.08       ----

> <Gold.Chemscore.Fitness>
17.1752

> <Gold.Chemscore.DG>
-20.9263

> <Gold.Chemscore.ZeroCoef>
-5.4800

> <Gold.Chemscore.Hbond>
2.6413

> <Gold.Chemscore.Metal>
0.0000

> <Gold.Chemscore.Lipo>
121.0953

> <Gold.Chemscore.Internal_Hbond>
0.0000

> <Gold.Chemscore.DEClash>
0.6728

> <Gold.Chemscore.DEInternal>
3.0782

> <Gold.Chemscore.Rot>
2.9469

> <Gold.Chemscore.Internal.Correction>
   9.000000E+99

> <Gold.Chemscore.Hbonds>
donor molecule, donor type, donor heavy atom, donor atom, acceptor molecule, acceptor atom, score
      L1  H    16    44       P1 10175  0.81
      L1  H    19    48       P1  7948  0.87
      P1  H  7997  8008       L1     8  0.56

> <Gold.Chemscore.Hbond.Weighted>
-8.8221

> <Gold.Chemscore.Metal.Weighted>
-0.0000

> <Gold.Chemscore.Lipo.Weighted>
-14.1682

> <Gold.Chemscore.Internal_Hbond.Weighted>
0.0000

> <Gold.Chemscore.DEClash.Weighted>
0.6728

> <Gold.Chemscore.DEInternal.Weighted>
3.0782

> <Gold.Chemscore.Rot.Weighted>
7.5439

> <Gold.Chemscore.Internal.Correction.Weighted>
   9.000000E+99

> <Gold.Protein.RotatedTorsions>
[ 6907 6896 6895 6894 ] final  171.21 input  -60.11 | X-H torsion
[ 7974 7965 7964 7962 ] final   59.44 input  175.53 | X-H torsion
[ 8008 7997 7996 7995 ] final  -30.51 input   59.86 | X-H torsion
[ 10167 10162 10161 10158 ] final  -95.67 input  -65.29 | X-H torsion
[ 10718 10713 10712 10709 ] final  126.94 input   66.30 | X-H torsion
[ 10763 10752 10751 10750 ] final  137.50 input  -60.55 | X-H torsion
[ 11005 11000 10999 10996 ] final   -3.47 input  -57.11 | X-H torsion

> <Gold.Protein.ActiveResidues>
 VAL166  LYS551  ARG553  GLY616  TRP617  ASP618  TYR619  PRO620  LYS621  CYS622 
 ASP623  PHE694  ASN695  SER759  ASP760  ASP761  ALA762  ILE779  LEU786  VAL792 
 PHE793  MET794  SER795  GLU796  ALA797  LYS798  CYS799  TRP800  GLU811  SER814 

> <Gold.Protein.RotatedAtoms>
  151.8039  133.3373  159.3534 H   0  0  0  0  0  0  0  0  0  0  0  0  # atno 6907 bound_to 6896
  150.7349  134.5728  159.5908 H   0  0  0  0  0  0  0  0  0  0  0  0  # atno 6908 bound_to 6896
  152.3123  134.7483  160.0385 H   0  0  0  0  0  0  0  0  0  0  0  0  # atno 6909 bound_to 6896
  145.9071  139.3626  143.0557 H   0  0  0  0  0  0  0  0  0  0  0  0  # atno 7974 bound_to 7965
  154.4248  140.1789  156.1418 H   0  0  0  0  0  0  0  0  0  0  0  0  # atno 8008 bound_to 7997
  155.9985  140.3362  155.6798 H   0  0  0  0  0  0  0  0  0  0  0  0  # atno 8009 bound_to 7997
  155.6275  140.0666  157.2650 H   0  0  0  0  0  0  0  0  0  0  0  0  # atno 8010 bound_to 7997
  140.3018  143.3158  152.0241 H   0  0  0  0  0  0  0  0  0  0  0  0  # atno 10167 bound_to 10162
  157.5375  131.1097  150.8911 H   0  0  0  0  0  0  0  0  0  0  0  0  # atno 10718 bound_to 10713
  153.8740  135.3052  155.3443 H   0  0  0  0  0  0  0  0  0  0  0  0  # atno 10763 bound_to 10752
  154.7792  135.4844  153.9812 H   0  0  0  0  0  0  0  0  0  0  0  0  # atno 10764 bound_to 10752
  153.1390  135.6820  153.9154 H   0  0  0  0  0  0  0  0  0  0  0  0  # atno 10765 bound_to 10752
  140.6697  133.9248  155.8486 H   0  0  0  0  0  0  0  0  0  0  0  0  # atno 11005 bound_to 11000
  145.8718  140.9415  143.0647 LP  0  0  0  0  0  0  0  0  0  0  0  0  # atno 17320 bound_to 7965
  144.6740  140.0664  143.7474 LP  0  0  0  0  0  0  0  0  0  0  0  0  # atno 17321 bound_to 7965
  139.4913  144.6450  151.6797 LP  0  0  0  0  0  0  0  0  0  0  0  0  # atno 17342 bound_to 10162
  140.5645  144.0213  150.6185 LP  0  0  0  0  0  0  0  0  0  0  0  0  # atno 17343 bound_to 10162
  156.9474  130.5407  149.5281 LP  0  0  0  0  0  0  0  0  0  0  0  0  # atno 17370 bound_to 10713
  156.0470  130.5545  150.8904 LP  0  0  0  0  0  0  0  0  0  0  0  0  # atno 17371 bound_to 10713
  141.0402  134.0632  157.3911 LP  0  0  0  0  0  0  0  0  0  0  0  0  # atno 17394 bound_to 11000
  139.8986  135.0155  156.7155 LP  0  0  0  0  0  0  0  0  0  0  0  0  # atno 17395 bound_to 11000

$$$$
