AV-unprocessed.smi:2261|AV-procd|sdf|9136|dock4
  -GOLD-   2272012343D 1   1.00000     0.00000
 Structure written by MMmdl.
 41 42  0  0  0  0  0  0  0  0  1 V2000
  149.0325  141.6006  154.8991 C   0  0  0  0  0  0  0  0  0  0  0  0
  150.0172  140.6989  155.6591 C   0  0  0  0  0  0  0  0  0  0  0  0
  151.1430  141.5280  156.3006 C   0  0  0  0  0  0  0  0  0  0  0  0
  149.3118  139.8012  156.6831 C   0  0  0  0  0  0  0  0  0  0  0  0
  150.1035  138.5100  156.6167 C   0  0  1  0  0  0  0  0  0  0  0  0
  149.3065  137.3717  157.0689 N   0  0  0  0  0  0  0  0  0  0  0  0
  149.5933  136.5918  158.1218 C   0  0  0  0  0  0  0  0  0  0  0  0
  150.5764  136.7555  158.8435 O   0  0  0  0  0  0  0  0  0  0  0  0
  148.6178  135.4501  158.4068 C   0  0  0  0  0  0  0  0  0  0  0  0
  148.1870  135.4787  159.8617 C   0  0  0  0  0  0  0  0  0  0  0  0
  147.6024  134.3475  160.4684 C   0  0  0  0  0  0  0  0  0  0  0  0
  147.2176  134.4258  161.8205 C   0  0  0  0  0  0  0  0  0  0  0  0
  147.4348  135.6351  162.5107 C   0  0  0  0  0  0  0  0  0  0  0  0
  147.9941  136.7242  161.9409 N   0  0  0  0  0  0  0  0  0  0  0  0
  148.3596  136.6411  160.6435 C   0  0  0  0  0  0  0  0  0  0  0  0
  150.5060  138.4438  155.1269 C   0  0  0  0  0  0  0  0  0  0  0  0
  151.8732  137.7736  154.9185 C   0  0  0  0  0  0  0  0  0  0  0  0
  149.4413  137.8086  154.2079 C   0  0  0  0  0  0  0  0  0  0  0  0
  150.6261  139.8078  154.7258 O   0  0  0  0  0  0  0  0  0  0  0  0
  148.5248  142.2884  155.5759 H   0  0  0  0  0  0  0  0  0  0  0  0
  148.2699  141.0116  154.3888 H   0  0  0  0  0  0  0  0  0  0  0  0
  149.5457  142.1953  154.1429 H   0  0  0  0  0  0  0  0  0  0  0  0
  150.7474  142.2280  157.0370 H   0  0  0  0  0  0  0  0  0  0  0  0
  151.6815  142.1071  155.5496 H   0  0  0  0  0  0  0  0  0  0  0  0
  151.8702  140.8918  156.8056 H   0  0  0  0  0  0  0  0  0  0  0  0
  149.2858  140.2305  157.6854 H   0  0  0  0  0  0  0  0  0  0  0  0
  148.2792  139.6207  156.3795 H   0  0  0  0  0  0  0  0  0  0  0  0
  150.9908  138.6243  157.2426 H   0  0  0  0  0  0  0  0  0  0  0  0
  148.4755  137.1598  156.5363 H   0  0  0  0  0  0  0  0  0  0  0  0
  147.7453  135.5264  157.7562 H   0  0  0  0  0  0  0  0  0  0  0  0
  149.0957  134.4959  158.1812 H   0  0  0  0  0  0  0  0  0  0  0  0
  147.4486  133.4366  159.9086 H   0  0  0  0  0  0  0  0  0  0  0  0
  146.7662  133.5799  162.3172 H   0  0  0  0  0  0  0  0  0  0  0  0
  147.1517  135.7297  163.5486 H   0  0  0  0  0  0  0  0  0  0  0  0
  148.8016  137.5295  160.2164 H   0  0  0  0  0  0  0  0  0  0  0  0
  151.8457  136.7203  155.1979 H   0  0  0  0  0  0  0  0  0  0  0  0
  152.6460  138.2570  155.5170 H   0  0  0  0  0  0  0  0  0  0  0  0
  152.1837  137.8302  153.8750 H   0  0  0  0  0  0  0  0  0  0  0  0
  149.3151  136.7454  154.4142 H   0  0  0  0  0  0  0  0  0  0  0  0
  149.7256  137.9036  153.1597 H   0  0  0  0  0  0  0  0  0  0  0  0
  148.4697  138.2889  154.3253 H   0  0  0  0  0  0  0  0  0  0  0  0
  1  2  1  0  0  0  0
  1 20  1  0  0  0  0
  1 21  1  0  0  0  0
  1 22  1  0  0  0  0
  2 19  1  0  0  0  0
  2  3  1  0  0  0  0
  2  4  1  0  0  0  0
  3 23  1  0  0  0  0
  3 24  1  0  0  0  0
  3 25  1  0  0  0  0
  4  5  1  0  0  0  0
  4 26  1  0  0  0  0
  4 27  1  0  0  0  0
  5  6  1  0  0  0  0
  5 16  1  0  0  0  0
  5 28  1  0  0  0  0
  6  7  1  0  0  0  0
  6 29  1  0  0  0  0
  7  8  2  0  0  0  0
  7  9  1  0  0  0  0
  9 10  1  0  0  0  0
  9 30  1  0  0  0  0
  9 31  1  0  0  0  0
 10 15  1  0  0  0  0
 10 11  2  0  0  0  0
 11 12  1  0  0  0  0
 11 32  1  0  0  0  0
 12 13  2  0  0  0  0
 12 33  1  0  0  0  0
 13 14  1  0  0  0  0
 13 34  1  0  0  0  0
 14 15  2  0  0  0  0
 15 35  1  0  0  0  0
 16 17  1  0  0  0  0
 16 18  1  0  0  0  0
 16 19  1  0  0  0  0
 17 36  1  0  0  0  0
 17 37  1  0  0  0  0
 17 38  1  0  0  0  0
 18 39  1  0  0  0  0
 18 40  1  0  0  0  0
 18 41  1  0  0  0  0
M  END
> <s_m_source_file>
AV-unprocessed.smi

> <i_m_source_file_index>
2261

> <i_lp_mmshare_version>
43012

> <i_f3d_flags>
0

> <s_epik_input>
W0NIM11DMShbQ0gzXSlbQ0gyXVtDQEhdKEMoTzEpKFtDSDNdKVtDSDNdKVtOSF1DKD1PKVtDSDJdYzJbY0hdW2NIXVtjSF1uW2NIXTI=

> <s_epik_cmdline>
J2VwaWtfcHl0aG9uJywgJy1waCcsICc3LjAnLCAnLXRuJywgJzgnLCAnLW1hJywgJzIwMCcsICctbWV0YWxfYmluZGluZycsICctaW1hZScsICc8aW5maWxlLm1hZT4nLCAnLW9tYWUnLCAnPG91dGZpbGUubWFlPic=

> <r_epik_Ionization_Penalty>
0.00420617

> <r_epik_Ionization_Penalty_Charging>
0

> <r_epik_Ionization_Penalty_Neutral>
0.00420617

> <r_epik_State_Penalty>
0.0030219

> <r_epik_Charging_Adjusted_Penalty>
0.0030219

> <i_epik_Tot_Q>
0

> <i_epik_Tot_abs_Q>
0

> <r_epik_Metal_State_Penalty>
-0

> <b_epik_Metal_Only>
0

> <s_lp_Force_Field>
OPLS_2005

> <r_lp_Energy>
17.0757

> <b_lp_Chiralities_Consistent>
1

> <s_lp_Variant>
AV-unprocessed.smi:2261-1

> <Gold.Version>
5.8.1

> <Gold.Id.Protein>
6NUR|6NUR_protein|mol2

> <Gold.PLP.Fitness>
35.3967

> <Gold.PLP.PLP>
-29.4867

> <Gold.PLP.part.hbond>
-3.0000

> <Gold.PLP.part.metal>
0.0000

> <Gold.PLP.part.buried>
-1.1588

> <Gold.PLP.part.nonpolar>
-26.2603

> <Gold.PLP.part.repulsive>
0.0799

> <Gold.PLP.ligand.clash>
0.0000

> <Gold.PLP.ligand.torsion>
0.3383

> <Gold.PLP.Chemscore.Hbond>
2.1913

> <Gold.PLP.Chemscore.CHOScore>
0.0000

> <Gold.PLP.Chemscore.Metal>
0.0000

> <Gold.Chemscore.Hbonds>
donor molecule, donor type, donor heavy atom, donor atom, acceptor molecule, acceptor atom, score
      P1  H  6896  6907       L1     8  0.99
      P1  H  6931  6943       L1    14  0.20
      P1  H  7989  7998       L1    19  1.00

> <Gold.PLP.Chemscore.Internal.Correction>
0.0129

> <Gold.Rescore>
     Score         DG    S(hbond)    S(metal)    S(lipo)     H(rot)  DE(clash)    DE(int)     intcor
     15.88     -17.39       1.86        0.00      76.77       1.28       0.04       1.47       ----

> <Gold.Chemscore.Fitness>
15.8770

> <Gold.Chemscore.DG>
-17.3923

> <Gold.Chemscore.ZeroCoef>
-5.4800

> <Gold.Chemscore.Hbond>
1.8617

> <Gold.Chemscore.Metal>
0.0000

> <Gold.Chemscore.Lipo>
76.7674

> <Gold.Chemscore.Internal_Hbond>
0.0000

> <Gold.Chemscore.DEClash>
0.0419

> <Gold.Chemscore.DEInternal>
1.4734

> <Gold.Chemscore.Rot>
1.2842

> <Gold.Chemscore.Internal.Correction>
   9.000000E+99

> <Gold.Chemscore.Hbonds>
donor molecule, donor type, donor heavy atom, donor atom, acceptor molecule, acceptor atom, score
      P1  H  6896  6907       L1     8  0.60
      P1  H  7989  7998       L1    19  0.60

> <Gold.Chemscore.Hbond.Weighted>
-6.2180

> <Gold.Chemscore.Metal.Weighted>
-0.0000

> <Gold.Chemscore.Lipo.Weighted>
-8.9818

> <Gold.Chemscore.Internal_Hbond.Weighted>
0.0000

> <Gold.Chemscore.DEClash.Weighted>
0.0419

> <Gold.Chemscore.DEInternal.Weighted>
1.4734

> <Gold.Chemscore.Rot.Weighted>
3.2875

> <Gold.Chemscore.Internal.Correction.Weighted>
   9.000000E+99

> <Gold.Protein.RotatedTorsions>
[ 6907 6896 6895 6894 ] final  -38.63 input  -60.11 | X-H torsion
[ 7974 7965 7964 7962 ] final  -35.79 input  175.53 | X-H torsion
[ 8008 7997 7996 7995 ] final -158.79 input   59.86 | X-H torsion
[ 10167 10162 10161 10158 ] final  164.35 input  -65.29 | X-H torsion
[ 10718 10713 10712 10709 ] final   40.62 input   66.30 | X-H torsion
[ 10763 10752 10751 10750 ] final -102.87 input  -60.55 | X-H torsion
[ 11005 11000 10999 10996 ] final   77.23 input  -57.11 | X-H torsion

> <Gold.Protein.ActiveResidues>
 VAL166  LYS551  ARG553  GLY616  TRP617  ASP618  TYR619  PRO620  LYS621  CYS622 
 ASP623  PHE694  ASN695  SER759  ASP760  ASP761  ALA762  ILE779  LEU786  VAL792 
 PHE793  MET794  SER795  GLU796  ALA797  LYS798  CYS799  TRP800  GLU811  SER814 

> <Gold.Protein.RotatedAtoms>
  151.0001  134.9315  159.7948 H   0  0  0  0  0  0  0  0  0  0  0  0  # atno 6907 bound_to 6896
  152.5275  134.3166  159.9143 H   0  0  0  0  0  0  0  0  0  0  0  0  # atno 6908 bound_to 6896
  151.3172  133.4014  159.2686 H   0  0  0  0  0  0  0  0  0  0  0  0  # atno 6909 bound_to 6896
  146.0717  140.6201  142.8949 H   0  0  0  0  0  0  0  0  0  0  0  0  # atno 7974 bound_to 7965
  155.7528  140.0829  157.2193 H   0  0  0  0  0  0  0  0  0  0  0  0  # atno 8008 bound_to 7997
  154.4010  140.1557  156.2799 H   0  0  0  0  0  0  0  0  0  0  0  0  # atno 8009 bound_to 7997
  155.8914  140.3415  155.5962 H   0  0  0  0  0  0  0  0  0  0  0  0  # atno 8010 bound_to 7997
  139.4887  144.4244  151.9147 H   0  0  0  0  0  0  0  0  0  0  0  0  # atno 10167 bound_to 10162
  157.3843  130.7771  149.7218 H   0  0  0  0  0  0  0  0  0  0  0  0  # atno 10718 bound_to 10713
  154.7766  135.4844  153.9757 H   0  0  0  0  0  0  0  0  0  0  0  0  # atno 10763 bound_to 10752
  153.1437  135.6777  153.8995 H   0  0  0  0  0  0  0  0  0  0  0  0  # atno 10764 bound_to 10752
  153.8661  135.3149  155.3418 H   0  0  0  0  0  0  0  0  0  0  0  0  # atno 10765 bound_to 10752
  139.9263  134.7666  156.1496 H   0  0  0  0  0  0  0  0  0  0  0  0  # atno 11005 bound_to 11000
  144.7235  140.4452  143.6990 LP  0  0  0  0  0  0  0  0  0  0  0  0  # atno 17320 bound_to 7965
  145.6380  139.1546  143.2931 LP  0  0  0  0  0  0  0  0  0  0  0  0  # atno 17321 bound_to 7965
  140.3689  144.2880  150.5922 LP  0  0  0  0  0  0  0  0  0  0  0  0  # atno 17342 bound_to 10162
  140.5336  143.2238  151.8198 LP  0  0  0  0  0  0  0  0  0  0  0  0  # atno 17343 bound_to 10162
  155.9783  130.4053  150.3658 LP  0  0  0  0  0  0  0  0  0  0  0  0  # atno 17370 bound_to 10713
  157.1766  131.0382  151.2769 LP  0  0  0  0  0  0  0  0  0  0  0  0  # atno 17371 bound_to 10713
  141.0823  133.6749  156.2362 LP  0  0  0  0  0  0  0  0  0  0  0  0  # atno 17394 bound_to 11000
  140.6326  134.5248  157.5561 LP  0  0  0  0  0  0  0  0  0  0  0  0  # atno 17395 bound_to 11000

$$$$
