AV-unprocessed.smi:76|AV-procd|sdf|769|dock2
  -GOLD-   2262017113D 1   1.00000     0.00000
 Structure written by MMmdl.
 55 58  0  0  0  0  0  0  0  0  1 V2000
  152.9948  139.4540  158.9433 C   0  0  0  0  0  0  0  0  0  0  0  0
  152.6613  140.7651  158.2005 C   0  0  2  0  0  0  0  0  0  0  0  0
  152.2789  141.8582  159.2210 C   0  0  0  0  0  0  0  0  0  0  0  0
  151.9049  143.1880  158.5368 C   0  0  2  0  0  0  0  0  0  0  0  0
  151.5166  144.2796  159.5546 C   0  0  0  0  0  0  0  0  0  0  0  0
  150.2684  144.1028  159.9890 F   0  0  0  0  0  0  0  0  0  0  0  0
  152.3451  144.2451  160.5981 F   0  0  0  0  0  0  0  0  0  0  0  0
  151.6096  145.4831  158.9889 F   0  0  0  0  0  0  0  0  0  0  0  0
  150.7889  142.9257  157.5087 C   0  0  0  0  0  0  0  0  0  0  0  0
  151.2080  141.8350  156.5134 C   0  0  0  0  0  0  0  0  0  0  0  0
  151.5896  140.6057  157.2075 N   0  0  0  0  0  0  0  0  0  0  0  0
  151.7538  139.5784  156.3436 C   0  0  0  0  0  0  0  0  0  0  0  0
  152.8085  139.5713  155.4858 N   0  0  0  0  0  0  0  0  0  0  0  0
  152.9736  138.5463  154.6440 C   0  0  0  0  0  0  0  0  0  0  0  0
  152.2201  137.4532  154.5006 N   0  0  0  0  0  0  0  0  0  0  0  0
  151.1617  137.4623  155.3617 C   0  0  0  0  0  0  0  0  0  0  0  0
  150.8586  138.4781  156.3096 C   0  0  0  0  0  0  0  0  0  0  0  0
  149.7140  138.1440  157.0206 N   0  0  0  0  0  0  0  0  0  0  0  0
  149.3599  136.9909  156.5217 C   0  0  0  0  0  0  0  0  0  0  0  0
  150.1636  136.5138  155.5096 N   0  0  0  0  0  0  0  0  0  0  0  0
  150.0065  135.2595  154.7867 C   0  0  0  0  0  0  0  0  0  0  0  0
  149.9337  133.9823  155.6818 C   0  0  0  0  0  0  0  0  0  0  0  0
  151.1012  134.0276  156.7067 C   0  0  0  0  0  0  0  0  0  0  0  0
  150.8521  133.2743  157.8773 O   0  0  0  0  0  0  0  0  0  0  0  0
  148.5714  133.9654  156.4222 C   0  0  0  0  0  0  0  0  0  0  0  0
  147.3876  133.6635  155.4831 C   0  0  0  0  0  0  0  0  0  0  0  0
  147.6074  132.4390  154.7932 O   0  0  0  0  0  0  0  0  0  0  0  0
  148.7697  132.4600  153.9735 C   0  0  0  0  0  0  0  0  0  0  0  0
  150.0199  132.6800  154.8439 C   0  0  0  0  0  0  0  0  0  0  0  0
  153.7554  139.6220  159.7060 H   0  0  0  0  0  0  0  0  0  0  0  0
  153.3856  138.6901  158.2708 H   0  0  0  0  0  0  0  0  0  0  0  0
  152.1138  139.0443  159.4388 H   0  0  0  0  0  0  0  0  0  0  0  0
  153.5579  141.0936  157.6725 H   0  0  0  0  0  0  0  0  0  0  0  0
  151.4401  141.5119  159.8267 H   0  0  0  0  0  0  0  0  0  0  0  0
  153.1081  142.0190  159.9105 H   0  0  0  0  0  0  0  0  0  0  0  0
  152.7830  143.5417  157.9941 H   0  0  0  0  0  0  0  0  0  0  0  0
  149.8748  142.6203  158.0192 H   0  0  0  0  0  0  0  0  0  0  0  0
  150.5503  143.8408  156.9666 H   0  0  0  0  0  0  0  0  0  0  0  0
  150.3857  141.6322  155.8255 H   0  0  0  0  0  0  0  0  0  0  0  0
  152.0459  142.1912  155.9118 H   0  0  0  0  0  0  0  0  0  0  0  0
  153.8332  138.6104  153.9931 H   0  0  0  0  0  0  0  0  0  0  0  0
  148.4926  136.4547  156.8786 H   0  0  0  0  0  0  0  0  0  0  0  0
  149.1010  135.3364  154.1834 H   0  0  0  0  0  0  0  0  0  0  0  0
  150.8229  135.1988  154.0690 H   0  0  0  0  0  0  0  0  0  0  0  0
  152.0195  133.6399  156.2657 H   0  0  0  0  0  0  0  0  0  0  0  0
  151.3034  135.0567  157.0056 H   0  0  0  0  0  0  0  0  0  0  0  0
  150.0911  132.7338  157.7305 H   0  0  0  0  0  0  0  0  0  0  0  0
  148.5727  133.1988  157.1973 H   0  0  0  0  0  0  0  0  0  0  0  0
  148.4062  134.9118  156.9382 H   0  0  0  0  0  0  0  0  0  0  0  0
  146.4711  133.5707  156.0660 H   0  0  0  0  0  0  0  0  0  0  0  0
  147.2176  134.4717  154.7716 H   0  0  0  0  0  0  0  0  0  0  0  0
  148.8441  131.5035  153.4558 H   0  0  0  0  0  0  0  0  0  0  0  0
  148.6750  133.2241  153.2018 H   0  0  0  0  0  0  0  0  0  0  0  0
  150.9181  132.6645  154.2280 H   0  0  0  0  0  0  0  0  0  0  0  0
  150.1097  131.8191  155.5071 H   0  0  0  0  0  0  0  0  0  0  0  0
  1  2  1  0  0  0  0
  1 30  1  0  0  0  0
  1 31  1  0  0  0  0
  1 32  1  0  0  0  0
  2 11  1  0  0  0  0
  2  3  1  0  0  0  0
  2 33  1  0  0  0  0
  3  4  1  0  0  0  0
  3 34  1  0  0  0  0
  3 35  1  0  0  0  0
  4  5  1  0  0  0  0
  4  9  1  0  0  0  0
  4 36  1  0  0  0  0
  5  6  1  0  0  0  0
  5  7  1  0  0  0  0
  5  8  1  0  0  0  0
  9 10  1  0  0  0  0
  9 37  1  0  0  0  0
  9 38  1  0  0  0  0
 10 11  1  0  0  0  0
 10 39  1  0  0  0  0
 10 40  1  0  0  0  0
 11 12  1  0  0  0  0
 12 17  1  0  0  0  0
 12 13  2  0  0  0  0
 13 14  1  0  0  0  0
 14 15  2  0  0  0  0
 14 41  1  0  0  0  0
 15 16  1  0  0  0  0
 16 20  1  0  0  0  0
 16 17  2  0  0  0  0
 17 18  1  0  0  0  0
 18 19  2  0  0  0  0
 19 20  1  0  0  0  0
 19 42  1  0  0  0  0
 20 21  1  0  0  0  0
 21 22  1  0  0  0  0
 21 43  1  0  0  0  0
 21 44  1  0  0  0  0
 22 29  1  0  0  0  0
 22 23  1  0  0  0  0
 22 25  1  0  0  0  0
 23 24  1  0  0  0  0
 23 45  1  0  0  0  0
 23 46  1  0  0  0  0
 24 47  1  0  0  0  0
 25 26  1  0  0  0  0
 25 48  1  0  0  0  0
 25 49  1  0  0  0  0
 26 27  1  0  0  0  0
 26 50  1  0  0  0  0
 26 51  1  0  0  0  0
 27 28  1  0  0  0  0
 28 29  1  0  0  0  0
 28 52  1  0  0  0  0
 28 53  1  0  0  0  0
 29 54  1  0  0  0  0
 29 55  1  0  0  0  0
M  END
> <s_m_source_file>
AV-unprocessed.smi

> <i_m_source_file_index>
76

> <i_lp_mmshare_version>
43012

> <i_f3d_flags>
0

> <s_epik_input>
W0NIM11bQ0BASF0xW0NIMl1bQ0BASF0oQyhGKShGKUYpW0NIMl1bQ0gyXU4xYyhuW2NIXW4yKWMoYzIzKW5bY0hdbjNbQ0gyXUM0KFtDSDJdW09IXSlbQ0gyXVtDSDJdT1tDSDJdW0NIMl00

> <s_epik_cmdline>
J2VwaWtfcHl0aG9uJywgJy1waCcsICc3LjAnLCAnLXRuJywgJzgnLCAnLW1hJywgJzIwMCcsICctbWV0YWxfYmluZGluZycsICctaW1hZScsICc8aW5maWxlLm1hZT4nLCAnLW9tYWUnLCAnPG91dGZpbGUubWFlPic=

> <r_lp_tautomer_probability>
1

> <r_epik_Ionization_Penalty>
0.00244097

> <r_epik_Ionization_Penalty_Charging>
0

> <r_epik_Ionization_Penalty_Neutral>
0.00244097

> <r_epik_State_Penalty>
0.00151846

> <r_epik_Charging_Adjusted_Penalty>
0.00151846

> <i_epik_Tot_Q>
0

> <i_epik_Tot_abs_Q>
0

> <r_epik_Metal_State_Penalty>
-0

> <b_epik_Metal_Only>
0

> <s_lp_Force_Field>
OPLS_2005

> <r_lp_Energy>
38.0325

> <b_lp_Chiralities_Consistent>
1

> <s_lp_Variant>
AV-unprocessed.smi:76-3

> <Gold.Version>
5.8.1

> <Gold.Id.Protein>
6NUR|6NUR_protein|mol2

> <Gold.PLP.Fitness>
52.5972

> <Gold.PLP.PLP>
-46.2535

> <Gold.PLP.part.hbond>
-3.0000

> <Gold.PLP.part.metal>
0.0000

> <Gold.PLP.part.buried>
-3.9815

> <Gold.PLP.part.nonpolar>
-39.8774

> <Gold.PLP.part.repulsive>
0.1756

> <Gold.PLP.ligand.clash>
0.0000

> <Gold.PLP.ligand.torsion>
1.0169

> <Gold.PLP.Chemscore.Hbond>
2.6880

> <Gold.PLP.Chemscore.CHOScore>
0.0000

> <Gold.PLP.Chemscore.Metal>
0.0000

> <Gold.Chemscore.Hbonds>
donor molecule, donor type, donor heavy atom, donor atom, acceptor molecule, acceptor atom, score
      P1  H  6896  6907       L1    24  0.55
      P1  H  7997  8008       L1    13  1.00
      P1  H 10752 10765       L1    15  0.69

> <Gold.PLP.Chemscore.Internal.Correction>
0.3134

> <Gold.Rescore>
     Score         DG    S(hbond)    S(metal)    S(lipo)     H(rot)  DE(clash)    DE(int)     intcor
     13.91     -16.14       1.94        0.00      89.76       2.47       1.09       1.14       ----

> <Gold.Chemscore.Fitness>
13.9123

> <Gold.Chemscore.DG>
-16.1394

> <Gold.Chemscore.ZeroCoef>
-5.4800

> <Gold.Chemscore.Hbond>
1.9378

> <Gold.Chemscore.Metal>
0.0000

> <Gold.Chemscore.Lipo>
89.7550

> <Gold.Chemscore.Internal_Hbond>
0.0000

> <Gold.Chemscore.DEClash>
1.0856

> <Gold.Chemscore.DEInternal>
1.1415

> <Gold.Chemscore.Rot>
2.4665

> <Gold.Chemscore.Internal.Correction>
   9.000000E+99

> <Gold.Chemscore.Hbonds>
donor molecule, donor type, donor heavy atom, donor atom, acceptor molecule, acceptor atom, score
      P1  H  6896  6907       L1    24  0.36
      P1  H  7997  8008       L1    13  0.70
      P1  H 10752 10765       L1    15  0.63

> <Gold.Chemscore.Hbond.Weighted>
-6.4722

> <Gold.Chemscore.Metal.Weighted>
-0.0000

> <Gold.Chemscore.Lipo.Weighted>
-10.5013

> <Gold.Chemscore.Internal_Hbond.Weighted>
0.0000

> <Gold.Chemscore.DEClash.Weighted>
1.0856

> <Gold.Chemscore.DEInternal.Weighted>
1.1415

> <Gold.Chemscore.Rot.Weighted>
6.3142

> <Gold.Chemscore.Internal.Correction.Weighted>
   9.000000E+99

> <Gold.Protein.RotatedTorsions>
[ 6907 6896 6895 6894 ] final -115.50 input  -60.11 | X-H torsion
[ 7974 7965 7964 7962 ] final  -66.91 input  175.53 | X-H torsion
[ 8008 7997 7996 7995 ] final  -44.43 input   59.86 | X-H torsion
[ 10167 10162 10161 10158 ] final  -70.96 input  -65.29 | X-H torsion
[ 10718 10713 10712 10709 ] final  -10.35 input   66.30 | X-H torsion
[ 10763 10752 10751 10750 ] final  144.79 input  -60.55 | X-H torsion
[ 11005 11000 10999 10996 ] final  -82.80 input  -57.11 | X-H torsion

> <Gold.Protein.ActiveResidues>
 VAL166  LYS551  ARG553  GLY616  TRP617  ASP618  TYR619  PRO620  LYS621  CYS622 
 ASP623  PHE694  ASN695  SER759  ASP760  ASP761  ALA762  ILE779  LEU786  VAL792 
 PHE793  MET794  SER795  GLU796  ALA797  LYS798  CYS799  TRP800  GLU811  SER814 

> <Gold.Protein.RotatedAtoms>
  150.7982  133.8650  159.3242 H   0  0  0  0  0  0  0  0  0  0  0  0  # atno 6907 bound_to 6896
  151.6469  135.1004  160.0162 H   0  0  0  0  0  0  0  0  0  0  0  0  # atno 6908 bound_to 6896
  152.4067  133.6860  159.6397 H   0  0  0  0  0  0  0  0  0  0  0  0  # atno 6909 bound_to 6896
  145.7358  140.8976  143.0556 H   0  0  0  0  0  0  0  0  0  0  0  0  # atno 7974 bound_to 7965
  154.3997  140.1422  156.3682 H   0  0  0  0  0  0  0  0  0  0  0  0  # atno 8008 bound_to 7997
  155.8118  140.3472  155.5441 H   0  0  0  0  0  0  0  0  0  0  0  0  # atno 8009 bound_to 7997
  155.8379  140.0922  157.1743 H   0  0  0  0  0  0  0  0  0  0  0  0  # atno 8010 bound_to 7997
  140.5311  143.2321  151.7260 H   0  0  0  0  0  0  0  0  0  0  0  0  # atno 10167 bound_to 10162
  156.6748  130.5020  149.5989 H   0  0  0  0  0  0  0  0  0  0  0  0  # atno 10718 bound_to 10713
  153.9946  135.2929  155.3408 H   0  0  0  0  0  0  0  0  0  0  0  0  # atno 10763 bound_to 10752
  154.7195  135.5115  153.8792 H   0  0  0  0  0  0  0  0  0  0  0  0  # atno 10764 bound_to 10752
  153.0794  135.6674  154.0195 H   0  0  0  0  0  0  0  0  0  0  0  0  # atno 10765 bound_to 10752
  141.1661  133.7262  156.8625 H   0  0  0  0  0  0  0  0  0  0  0  0  # atno 11005 bound_to 11000
  144.6882  139.9393  143.7474 LP  0  0  0  0  0  0  0  0  0  0  0  0  # atno 17320 bound_to 7965
  146.0495  139.3497  143.0648 LP  0  0  0  0  0  0  0  0  0  0  0  0  # atno 17321 bound_to 7965
  139.4954  144.4113  152.0078 LP  0  0  0  0  0  0  0  0  0  0  0  0  # atno 17342 bound_to 10162
  140.3215  144.3422  150.6008 LP  0  0  0  0  0  0  0  0  0  0  0  0  # atno 17343 bound_to 10162
  156.1911  130.6560  151.1062 LP  0  0  0  0  0  0  0  0  0  0  0  0  # atno 17370 bound_to 10713
  157.7064  131.0754  150.6651 LP  0  0  0  0  0  0  0  0  0  0  0  0  # atno 17371 bound_to 10713
  140.1838  134.9014  157.2980 LP  0  0  0  0  0  0  0  0  0  0  0  0  # atno 17394 bound_to 11000
  140.2365  134.3846  155.7499 LP  0  0  0  0  0  0  0  0  0  0  0  0  # atno 17395 bound_to 11000

$$$$
