AV-unprocessed.smi:1046|AV-procd|sdf|4549|dock9
  -GOLD-   22720 2573D 1   1.00000     0.00000
 Structure written by MMmdl.
 53 55  0  0  0  0  0  0  0  0  2 V2000
  153.3408  142.6071  161.2448 C   0  0  0  0  0  0  0  0  0  0  0  0
  152.6862  142.2357  159.9260 C   0  0  0  0  0  0  0  0  0  0  0  0
  153.1028  141.0618  159.2590 C   0  0  0  0  0  0  0  0  0  0  0  0
  152.5180  140.6802  158.0321 C   0  0  0  0  0  0  0  0  0  0  0  0
  152.7651  139.5865  157.2202 N   0  0  0  0  0  0  0  0  0  0  0  0
  151.9039  139.7891  156.2278 C   0  0  0  0  0  0  0  0  0  0  0  0
  151.1245  140.8853  156.3010 N   0  0  0  0  0  0  0  0  0  0  0  0
  150.1190  141.3063  155.3418 C   0  0  0  0  0  0  0  0  0  0  0  0
  149.0812  140.2015  155.0558 C   0  0  1  0  0  0  0  0  0  0  0  0
  147.8341  140.7977  154.7604 O   0  0  0  0  0  0  0  0  0  0  0  0
  149.4676  139.3066  153.8599 C   0  0  0  0  0  0  0  0  0  0  0  0
  149.4516  137.8567  154.1826 N   0  3  0  0  0  0  0  0  0  0  0  0
  148.3457  137.4963  155.1068 C   0  0  0  0  0  0  0  0  0  0  0  0
  148.3179  135.9722  155.3439 C   0  0  0  0  0  0  0  0  0  0  0  0
  149.5793  135.4443  155.8632 N   0  0  0  0  0  0  0  0  0  0  0  0
  149.8180  135.8134  157.2621 C   0  0  0  0  0  0  0  0  0  0  0  0
  148.7208  135.3696  158.2429 C   0  0  0  0  0  0  0  0  0  0  0  0
  148.9187  134.0159  158.5861 O   0  0  0  0  0  0  0  0  0  0  0  0
  150.6554  135.8187  154.9425 C   0  0  0  0  0  0  0  0  0  0  0  0
  150.7488  137.3382  154.6939 C   0  0  0  0  0  0  0  0  0  0  0  0
  151.4976  141.5125  157.4852 C   0  0  0  0  0  0  0  0  0  0  0  0
  151.0751  142.6831  158.1392 C   0  0  0  0  0  0  0  0  0  0  0  0
  151.6695  143.0494  159.3648 C   0  0  0  0  0  0  0  0  0  0  0  0
  151.2055  144.3146  160.0643 C   0  0  0  0  0  0  0  0  0  0  0  0
  154.0855  141.8683  161.5421 H   0  0  0  0  0  0  0  0  0  0  0  0
  152.5951  142.6676  162.0377 H   0  0  0  0  0  0  0  0  0  0  0  0
  153.8407  143.5725  161.1640 H   0  0  0  0  0  0  0  0  0  0  0  0
  153.8774  140.4421  159.6863 H   0  0  0  0  0  0  0  0  0  0  0  0
  151.8339  139.0989  155.3996 H   0  0  0  0  0  0  0  0  0  0  0  0
  149.6299  142.2061  155.7178 H   0  0  0  0  0  0  0  0  0  0  0  0
  150.6326  141.5938  154.4238 H   0  0  0  0  0  0  0  0  0  0  0  0
  148.9344  139.5964  155.9500 H   0  0  0  0  0  0  0  0  0  0  0  0
  147.9538  141.4173  154.0560 H   0  0  0  0  0  0  0  0  0  0  0  0
  148.8031  139.4906  153.0139 H   0  0  0  0  0  0  0  0  0  0  0  0
  150.4685  139.5884  153.5285 H   0  0  0  0  0  0  0  0  0  0  0  0
  148.4558  138.0358  156.0483 H   0  0  0  0  0  0  0  0  0  0  0  0
  147.3935  137.8080  154.6761 H   0  0  0  0  0  0  0  0  0  0  0  0
  147.5017  135.7170  156.0208 H   0  0  0  0  0  0  0  0  0  0  0  0
  148.0862  135.4741  154.4015 H   0  0  0  0  0  0  0  0  0  0  0  0
  150.7810  135.4325  157.6016 H   0  0  0  0  0  0  0  0  0  0  0  0
  149.8923  136.9000  157.3242 H   0  0  0  0  0  0  0  0  0  0  0  0
  148.7472  135.9740  159.1500 H   0  0  0  0  0  0  0  0  0  0  0  0
  147.7274  135.4702  157.8070 H   0  0  0  0  0  0  0  0  0  0  0  0
  148.2159  133.5050  158.2143 H   0  0  0  0  0  0  0  0  0  0  0  0
  151.6129  135.4396  155.2976 H   0  0  0  0  0  0  0  0  0  0  0  0
  150.4870  135.3207  153.9866 H   0  0  0  0  0  0  0  0  0  0  0  0
  151.5398  137.5204  153.9680 H   0  0  0  0  0  0  0  0  0  0  0  0
  151.0321  137.8666  155.6050 H   0  0  0  0  0  0  0  0  0  0  0  0
  150.2978  143.2927  157.7026 H   0  0  0  0  0  0  0  0  0  0  0  0
  150.4372  144.8302  159.4873 H   0  0  0  0  0  0  0  0  0  0  0  0
  152.0392  145.0037  160.2009 H   0  0  0  0  0  0  0  0  0  0  0  0
  150.7873  144.0778  161.0428 H   0  0  0  0  0  0  0  0  0  0  0  0
  149.2619  137.3703  153.3183 H   0  0  0  0  0  0  0  0  0  0  0  0
  1  2  1  0  0  0  0
  1 25  1  0  0  0  0
  1 26  1  0  0  0  0
  1 27  1  0  0  0  0
  2 23  1  0  0  0  0
  2  3  2  0  0  0  0
  3  4  1  0  0  0  0
  3 28  1  0  0  0  0
  4 21  2  0  0  0  0
  4  5  1  0  0  0  0
  5  6  2  0  0  0  0
  6  7  1  0  0  0  0
  6 29  1  0  0  0  0
  7  8  1  0  0  0  0
  7 21  1  0  0  0  0
  8  9  1  0  0  0  0
  8 30  1  0  0  0  0
  8 31  1  0  0  0  0
  9 10  1  0  0  0  0
  9 11  1  0  0  0  0
  9 32  1  0  0  0  0
 10 33  1  0  0  0  0
 11 12  1  0  0  0  0
 11 34  1  0  0  0  0
 11 35  1  0  0  0  0
 12 20  1  0  0  0  0
 12 13  1  0  0  0  0
 12 53  1  0  0  0  0
 13 14  1  0  0  0  0
 13 36  1  0  0  0  0
 13 37  1  0  0  0  0
 14 15  1  0  0  0  0
 14 38  1  0  0  0  0
 14 39  1  0  0  0  0
 15 16  1  0  0  0  0
 15 19  1  0  0  0  0
 16 17  1  0  0  0  0
 16 40  1  0  0  0  0
 16 41  1  0  0  0  0
 17 18  1  0  0  0  0
 17 42  1  0  0  0  0
 17 43  1  0  0  0  0
 18 44  1  0  0  0  0
 19 20  1  0  0  0  0
 19 45  1  0  0  0  0
 19 46  1  0  0  0  0
 20 47  1  0  0  0  0
 20 48  1  0  0  0  0
 21 22  1  0  0  0  0
 22 23  2  0  0  0  0
 22 49  1  0  0  0  0
 23 24  1  0  0  0  0
 24 50  1  0  0  0  0
 24 51  1  0  0  0  0
 24 52  1  0  0  0  0
M  CHG  1  12   1
M  END
> <s_m_source_file>
AV-unprocessed.smi

> <i_m_source_file_index>
1046

> <i_lp_mmshare_version>
43012

> <i_f3d_flags>
0

> <s_epik_input>
W0NIM11jKFtjSF0xKWMoW0NIM10pW2NIXWMoYzEyKW4oW2NIXW4yKVtDSDJdW0NASF0oW09IXSlbQ0gyXU4zW0NIMl1bQ0gyXU4oW0NIMl1bQ0gyXTMpW0NIMl1bQ0gyXVtPSF0=

> <s_epik_cmdline>
J2VwaWtfcHl0aG9uJywgJy1waCcsICc3LjAnLCAnLXRuJywgJzgnLCAnLW1hJywgJzIwMCcsICctbWV0YWxfYmluZGluZycsICctaW1hZScsICc8aW5maWxlLm1hZT4nLCAnLW9tYWUnLCAnPG91dGZpbGUubWFlPic=

> <r_epik_Ionization_Penalty>
0.131947

> <r_epik_Ionization_Penalty_Charging>
0.00213896

> <r_epik_Ionization_Penalty_Neutral>
0.129808

> <r_epik_State_Penalty>
0.319681

> <r_epik_Charging_Adjusted_Penalty>
0.32182

> <i_epik_Tot_Q>
1

> <i_epik_Tot_abs_Q>
1

> <r_epik_Metal_State_Penalty>
0.225417

> <b_epik_Metal_Only>
0

> <s_lp_Force_Field>
OPLS_2005

> <r_lp_Energy>
33.7571

> <b_lp_Chiralities_Consistent>
1

> <s_lp_Variant>
AV-unprocessed.smi:1046-2

> <Gold.Version>
5.8.1

> <Gold.Id.Protein>
6NUR|6NUR_protein|mol2

> <Gold.PLP.Fitness>
49.3939

> <Gold.PLP.PLP>
-40.4128

> <Gold.PLP.part.hbond>
-3.0000

> <Gold.PLP.part.metal>
0.0000

> <Gold.PLP.part.buried>
-1.9536

> <Gold.PLP.part.nonpolar>
-34.2381

> <Gold.PLP.part.repulsive>
0.0741

> <Gold.PLP.ligand.clash>
0.0000

> <Gold.PLP.ligand.torsion>
1.5698

> <Gold.PLP.Chemscore.Hbond>
4.0000

> <Gold.PLP.Chemscore.CHOScore>
0.0000

> <Gold.PLP.Chemscore.Metal>
0.0000

> <Gold.Chemscore.Hbonds>
donor molecule, donor type, donor heavy atom, donor atom, acceptor molecule, acceptor atom, score
      L1  H    12    53       P1  7948  2.00
      P1  H  6896  6909       L1    18  1.00
      P1  H  7997  8010       L1     5  1.00

> <Gold.PLP.Chemscore.Internal.Correction>
0.1208

> <Gold.Rescore>
     Score         DG    S(hbond)    S(metal)    S(lipo)     H(rot)  DE(clash)    DE(int)     intcor
     16.64     -19.84       2.60        0.00     118.61       3.21       1.57       1.63       ----

> <Gold.Chemscore.Fitness>
16.6366

> <Gold.Chemscore.DG>
-19.8416

> <Gold.Chemscore.ZeroCoef>
-5.4800

> <Gold.Chemscore.Hbond>
2.6022

> <Gold.Chemscore.Metal>
0.0000

> <Gold.Chemscore.Lipo>
118.6075

> <Gold.Chemscore.Internal_Hbond>
0.0000

> <Gold.Chemscore.DEClash>
1.5734

> <Gold.Chemscore.DEInternal>
1.6315

> <Gold.Chemscore.Rot>
3.2058

> <Gold.Chemscore.Internal.Correction>
   9.000000E+99

> <Gold.Chemscore.Hbonds>
donor molecule, donor type, donor heavy atom, donor atom, acceptor molecule, acceptor atom, score
      L1  H    12    53       P1  7948  0.98
      P1  H  6896  6909       L1    18  0.58
      P1  H  7997  8010       L1     5  0.07

> <Gold.Chemscore.Hbond.Weighted>
-8.6912

> <Gold.Chemscore.Metal.Weighted>
-0.0000

> <Gold.Chemscore.Lipo.Weighted>
-13.8771

> <Gold.Chemscore.Internal_Hbond.Weighted>
0.0000

> <Gold.Chemscore.DEClash.Weighted>
1.5734

> <Gold.Chemscore.DEInternal.Weighted>
1.6315

> <Gold.Chemscore.Rot.Weighted>
8.2067

> <Gold.Chemscore.Internal.Correction.Weighted>
   9.000000E+99

> <Gold.Protein.RotatedTorsions>
[ 6907 6896 6895 6894 ] final    4.04 input  -60.11 | X-H torsion
[ 7974 7965 7964 7962 ] final    6.54 input  175.53 | X-H torsion
[ 8008 7997 7996 7995 ] final   75.52 input   59.86 | X-H torsion
[ 10167 10162 10161 10158 ] final  171.26 input  -65.29 | X-H torsion
[ 10718 10713 10712 10709 ] final -139.75 input   66.30 | X-H torsion
[ 10763 10752 10751 10750 ] final -174.17 input  -60.55 | X-H torsion
[ 11005 11000 10999 10996 ] final  -16.73 input  -57.11 | X-H torsion

> <Gold.Protein.ActiveResidues>
 VAL166  LYS551  ARG553  GLY616  TRP617  ASP618  TYR619  PRO620  LYS621  CYS622 
 ASP623  PHE694  ASN695  SER759  ASP760  ASP761  ALA762  ILE779  LEU786  VAL792 
 PHE793  MET794  SER795  GLU796  ALA797  LYS798  CYS799  TRP800  GLU811  SER814 

> <Gold.Protein.RotatedAtoms>
  151.6348  135.1019  160.0128 H   0  0  0  0  0  0  0  0  0  0  0  0  # atno 6907 bound_to 6896
  152.4086  133.6924  159.6387 H   0  0  0  0  0  0  0  0  0  0  0  0  # atno 6908 bound_to 6896
  150.7979  133.8581  159.3265 H   0  0  0  0  0  0  0  0  0  0  0  0  # atno 6909 bound_to 6896
  146.2434  140.0218  142.8397 H   0  0  0  0  0  0  0  0  0  0  0  0  # atno 7974 bound_to 7965
  155.8141  140.3472  155.5475 H   0  0  0  0  0  0  0  0  0  0  0  0  # atno 8008 bound_to 7997
  155.8410  140.0941  157.1755 H   0  0  0  0  0  0  0  0  0  0  0  0  # atno 8009 bound_to 7997
  154.4005  140.1394  156.3716 H   0  0  0  0  0  0  0  0  0  0  0  0  # atno 8010 bound_to 7997
  139.5041  144.3505  151.9927 H   0  0  0  0  0  0  0  0  0  0  0  0  # atno 10167 bound_to 10162
  156.3143  130.7499  151.1582 H   0  0  0  0  0  0  0  0  0  0  0  0  # atno 10718 bound_to 10713
  154.5993  135.2853  155.0552 H   0  0  0  0  0  0  0  0  0  0  0  0  # atno 10763 bound_to 10752
  154.1823  135.6454  153.5041 H   0  0  0  0  0  0  0  0  0  0  0  0  # atno 10764 bound_to 10752
  153.0151  135.5426  154.6707 H   0  0  0  0  0  0  0  0  0  0  0  0  # atno 10765 bound_to 10752
  140.8097  133.8150  155.9551 H   0  0  0  0  0  0  0  0  0  0  0  0  # atno 11005 bound_to 11000
  145.1234  140.9476  143.4587 LP  0  0  0  0  0  0  0  0  0  0  0  0  # atno 17320 bound_to 7965
  145.0458  139.3222  143.5953 LP  0  0  0  0  0  0  0  0  0  0  0  0  # atno 17321 bound_to 7965
  140.2942  144.3719  150.6079 LP  0  0  0  0  0  0  0  0  0  0  0  0  # atno 17342 bound_to 10162
  140.5923  143.2167  151.7230 LP  0  0  0  0  0  0  0  0  0  0  0  0  # atno 17343 bound_to 10162
  157.7398  131.0525  150.5208 LP  0  0  0  0  0  0  0  0  0  0  0  0  # atno 17370 bound_to 10713
  156.5352  130.4194  149.6181 LP  0  0  0  0  0  0  0  0  0  0  0  0  # atno 17371 bound_to 10713
  140.9210  134.2141  157.4926 LP  0  0  0  0  0  0  0  0  0  0  0  0  # atno 17394 bound_to 11000
  139.8715  134.9792  156.5028 LP  0  0  0  0  0  0  0  0  0  0  0  0  # atno 17395 bound_to 11000

$$$$
