AV-unprocessed.smi:2063|AV-procd|sdf|8414|dock5
  -GOLD-   2272011103D 1   1.00000     0.00000
 Structure written by MMmdl.
 38 39  0  0  0  0  0  0  0  0  2 V2000
  151.9664  144.3783  158.1771 C   0  0  0  0  0  0  0  0  0  0  0  0
  151.7977  143.6358  159.5106 C   0  0  0  0  0  0  0  0  0  0  0  0
  152.0618  144.5254  160.7338 C   0  0  0  0  0  0  0  0  0  0  0  0
  152.5910  142.3672  159.5546 C   0  0  0  0  0  0  0  0  0  0  0  0
  152.4689  141.3968  158.6434 N   0  0  0  0  0  0  0  0  0  0  0  0
  153.3120  140.3258  158.9011 N   0  0  0  0  0  0  0  0  0  0  0  0
  154.0663  140.5020  159.9947 C   0  0  0  0  0  0  0  0  0  0  0  0
  154.9462  139.5799  160.4187 N   0  5  0  0  0  0  0  0  0  0  0  0
  155.9705  139.9421  161.2244 C   0  0  0  0  0  0  0  0  0  0  0  0
  157.1335  140.1576  160.8753 O   0  0  0  0  0  0  0  0  0  0  0  0
  155.6243  140.0616  162.5144 N   0  0  0  0  0  0  0  0  0  0  0  0
  156.5049  140.4488  163.6146 C   0  0  2  0  0  0  0  0  0  0  0  0
  156.7672  139.2330  164.5219 C   0  0  0  0  0  0  0  0  0  0  0  0
  155.8623  141.6195  164.3831 C   0  0  1  0  0  0  0  0  0  0  0  0
  156.7398  142.2298  165.4782 C   0  0  0  0  0  0  0  0  0  0  0  0
  156.2465  143.6652  165.5853 C   0  0  0  0  0  0  0  0  0  0  0  0
  155.3658  143.8518  164.3476 C   0  0  0  0  0  0  0  0  0  0  0  0
  155.6522  142.7311  163.5249 O   0  0  0  0  0  0  0  0  0  0  0  0
  153.7655  142.0326  160.8168 S   0  0  0  0  0  0  0  0  0  0  0  0
  151.6904  143.7409  157.3365 H   0  0  0  0  0  0  0  0  0  0  0  0
  152.9985  144.6976  158.0285 H   0  0  0  0  0  0  0  0  0  0  0  0
  151.3354  145.2664  158.1396 H   0  0  0  0  0  0  0  0  0  0  0  0
  150.7483  143.3434  159.5663 H   0  0  0  0  0  0  0  0  0  0  0  0
  151.8504  143.9905  161.6601 H   0  0  0  0  0  0  0  0  0  0  0  0
  151.4327  145.4157  160.7151 H   0  0  0  0  0  0  0  0  0  0  0  0
  153.1011  144.8535  160.7683 H   0  0  0  0  0  0  0  0  0  0  0  0
  154.6600  139.8796  162.7499 H   0  0  0  0  0  0  0  0  0  0  0  0
  157.4566  140.7918  163.2047 H   0  0  0  0  0  0  0  0  0  0  0  0
  157.4556  139.4808  165.3297 H   0  0  0  0  0  0  0  0  0  0  0  0
  157.2120  138.4100  163.9617 H   0  0  0  0  0  0  0  0  0  0  0  0
  155.8431  138.8676  164.9710 H   0  0  0  0  0  0  0  0  0  0  0  0
  154.9021  141.3162  164.8057 H   0  0  0  0  0  0  0  0  0  0  0  0
  156.6676  141.6884  166.4218 H   0  0  0  0  0  0  0  0  0  0  0  0
  157.7861  142.2279  165.1693 H   0  0  0  0  0  0  0  0  0  0  0  0
  155.6720  143.8287  166.4977 H   0  0  0  0  0  0  0  0  0  0  0  0
  157.0860  144.3610  165.5869 H   0  0  0  0  0  0  0  0  0  0  0  0
  154.3099  143.8337  164.6213 H   0  0  0  0  0  0  0  0  0  0  0  0
  155.5664  144.7872  163.8252 H   0  0  0  0  0  0  0  0  0  0  0  0
  1  2  1  0  0  0  0
  1 20  1  0  0  0  0
  1 21  1  0  0  0  0
  1 22  1  0  0  0  0
  2  3  1  0  0  0  0
  2  4  1  0  0  0  0
  2 23  1  0  0  0  0
  3 24  1  0  0  0  0
  3 25  1  0  0  0  0
  3 26  1  0  0  0  0
  4 19  1  0  0  0  0
  4  5  2  0  0  0  0
  5  6  1  0  0  0  0
  6  7  2  0  0  0  0
  7  8  1  0  0  0  0
  7 19  1  0  0  0  0
  8  9  1  0  0  0  0
  9 10  2  0  0  0  0
  9 11  1  0  0  0  0
 11 12  1  0  0  0  0
 11 27  1  0  0  0  0
 12 13  1  0  0  0  0
 12 14  1  0  0  0  0
 12 28  1  0  0  0  0
 13 29  1  0  0  0  0
 13 30  1  0  0  0  0
 13 31  1  0  0  0  0
 14 18  1  0  0  0  0
 14 15  1  0  0  0  0
 14 32  1  0  0  0  0
 15 16  1  0  0  0  0
 15 33  1  0  0  0  0
 15 34  1  0  0  0  0
 16 17  1  0  0  0  0
 16 35  1  0  0  0  0
 16 36  1  0  0  0  0
 17 18  1  0  0  0  0
 17 37  1  0  0  0  0
 17 38  1  0  0  0  0
M  CHG  1   8  -1
M  END
> <s_m_source_file>
AV-unprocessed.smi

> <i_m_source_file_index>
2063

> <i_lp_mmshare_version>
43012

> <i_f3d_flags>
0

> <s_epik_input>
W0NIM11bQ0hdKFtDSDNdKWMxbm5jKHMxKVtOSF1DKD1PKVtOSF1bQ0BIXShbQ0gzXSlbQ0BASF0yW0NIMl1bQ0gyXVtDSDJdTzI=

> <s_epik_cmdline>
J2VwaWtfcHl0aG9uJywgJy1waCcsICc3LjAnLCAnLXRuJywgJzgnLCAnLW1hJywgJzIwMCcsICctbWV0YWxfYmluZGluZycsICctaW1hZScsICc8aW5maWxlLm1hZT4nLCAnLW9tYWUnLCAnPG91dGZpbGUubWFlPic=

> <r_lp_tautomer_probability>
1

> <r_epik_Ionization_Penalty>
4.37022

> <r_epik_Ionization_Penalty_Charging>
4.21437

> <r_epik_Ionization_Penalty_Neutral>
0.15585

> <r_epik_State_Penalty>
4.21389

> <r_epik_Charging_Adjusted_Penalty>
8.42826

> <i_epik_Tot_Q>
-1

> <i_epik_Tot_abs_Q>
1

> <r_epik_Metal_State_Penalty>
0.693772

> <b_epik_Metal_Only>
1

> <s_lp_Force_Field>
OPLS_2005

> <r_lp_Energy>
10.221

> <b_lp_Chiralities_Consistent>
1

> <s_lp_Variant>
AV-unprocessed.smi:2063-7

> <Gold.Version>
5.8.1

> <Gold.Id.Protein>
6NUR|6NUR_protein|mol2

> <Gold.PLP.Fitness>
42.2339

> <Gold.PLP.PLP>
-42.1509

> <Gold.PLP.part.hbond>
-3.0000

> <Gold.PLP.part.metal>
0.0000

> <Gold.PLP.part.buried>
-2.4081

> <Gold.PLP.part.nonpolar>
-35.1972

> <Gold.PLP.part.repulsive>
0.0000

> <Gold.PLP.ligand.clash>
0.0000

> <Gold.PLP.ligand.torsion>
0.9653

> <Gold.PLP.Chemscore.Hbond>
0.6339

> <Gold.PLP.Chemscore.CHOScore>
0.0000

> <Gold.PLP.Chemscore.Metal>
0.0000

> <Gold.Chemscore.Hbonds>
donor molecule, donor type, donor heavy atom, donor atom, acceptor molecule, acceptor atom, score
      P1  H  7997  8008       L1     6  0.34

> <Gold.PLP.Chemscore.Internal.Correction>
0.1119

> <Gold.Rescore>
     Score         DG    S(hbond)    S(metal)    S(lipo)     H(rot)  DE(clash)    DE(int)     intcor
     13.05     -15.60       0.44        0.00     104.46       1.39       1.54       1.01       ----

> <Gold.Chemscore.Fitness>
13.0493

> <Gold.Chemscore.DG>
-15.6009

> <Gold.Chemscore.ZeroCoef>
-5.4800

> <Gold.Chemscore.Hbond>
0.4360

> <Gold.Chemscore.Metal>
0.0000

> <Gold.Chemscore.Lipo>
104.4570

> <Gold.Chemscore.Internal_Hbond>
0.0000

> <Gold.Chemscore.DEClash>
1.5386

> <Gold.Chemscore.DEInternal>
1.0131

> <Gold.Chemscore.Rot>
1.3893

> <Gold.Chemscore.Internal.Correction>
   9.000000E+99

> <Gold.Chemscore.Hbonds>
donor molecule, donor type, donor heavy atom, donor atom, acceptor molecule, acceptor atom, score
      P1  H  7997  8008       L1     6  0.12

> <Gold.Chemscore.Hbond.Weighted>
-1.4561

> <Gold.Chemscore.Metal.Weighted>
-0.0000

> <Gold.Chemscore.Lipo.Weighted>
-12.2215

> <Gold.Chemscore.Internal_Hbond.Weighted>
0.0000

> <Gold.Chemscore.DEClash.Weighted>
1.5386

> <Gold.Chemscore.DEInternal.Weighted>
1.0131

> <Gold.Chemscore.Rot.Weighted>
3.5567

> <Gold.Chemscore.Internal.Correction.Weighted>
   9.000000E+99

> <Gold.Protein.RotatedTorsions>
[ 6907 6896 6895 6894 ] final   99.56 input  -60.11 | X-H torsion
[ 7974 7965 7964 7962 ] final -110.88 input  175.53 | X-H torsion
[ 8008 7997 7996 7995 ] final -103.67 input   59.86 | X-H torsion
[ 10167 10162 10161 10158 ] final  168.48 input  -65.29 | X-H torsion
[ 10718 10713 10712 10709 ] final -151.87 input   66.30 | X-H torsion
[ 10763 10752 10751 10750 ] final  -67.47 input  -60.55 | X-H torsion
[ 11005 11000 10999 10996 ] final   19.70 input  -57.11 | X-H torsion

> <Gold.Protein.ActiveResidues>
 VAL166  LYS551  ARG553  GLY616  TRP617  ASP618  TYR619  PRO620  LYS621  CYS622 
 ASP623  PHE694  ASN695  SER759  ASP760  ASP761  ALA762  ILE779  LEU786  VAL792 
 PHE793  MET794  SER795  GLU796  ALA797  LYS798  CYS799  TRP800  GLU811  SER814 

> <Gold.Protein.RotatedAtoms>
  152.5389  134.0410  159.8067 H   0  0  0  0  0  0  0  0  0  0  0  0  # atno 6907 bound_to 6896
  151.0566  133.5572  159.2645 H   0  0  0  0  0  0  0  0  0  0  0  0  # atno 6908 bound_to 6896
  151.2486  135.0622  159.9107 H   0  0  0  0  0  0  0  0  0  0  0  0  # atno 6909 bound_to 6896
  145.1629  140.8887  143.3580 H   0  0  0  0  0  0  0  0  0  0  0  0  # atno 7974 bound_to 7965
  154.8742  140.0421  157.1743 H   0  0  0  0  0  0  0  0  0  0  0  0  # atno 8008 bound_to 7997
  154.8707  140.2958  155.5462 H   0  0  0  0  0  0  0  0  0  0  0  0  # atno 8009 bound_to 7997
  156.2999  140.2429  156.3695 H   0  0  0  0  0  0  0  0  0  0  0  0  # atno 8010 bound_to 7997
  139.4969  144.3809  151.9623 H   0  0  0  0  0  0  0  0  0  0  0  0  # atno 10167 bound_to 10162
  156.4649  130.8231  151.2461 H   0  0  0  0  0  0  0  0  0  0  0  0  # atno 10718 bound_to 10713
  154.3749  135.6087  153.5760 H   0  0  0  0  0  0  0  0  0  0  0  0  # atno 10763 bound_to 10752
  152.9789  135.5847  154.4478 H   0  0  0  0  0  0  0  0  0  0  0  0  # atno 10764 bound_to 10752
  154.4238  135.2846  155.1935 H   0  0  0  0  0  0  0  0  0  0  0  0  # atno 10765 bound_to 10752
  140.4108  134.1620  155.7667 H   0  0  0  0  0  0  0  0  0  0  0  0  # atno 11005 bound_to 11000
  145.0312  139.3339  143.6023 LP  0  0  0  0  0  0  0  0  0  0  0  0  # atno 17320 bound_to 7965
  146.3480  139.9650  142.8713 LP  0  0  0  0  0  0  0  0  0  0  0  0  # atno 17321 bound_to 7965
  140.3246  144.3388  150.6001 LP  0  0  0  0  0  0  0  0  0  0  0  0  # atno 17342 bound_to 10162
  140.5695  143.2182  151.7624 LP  0  0  0  0  0  0  0  0  0  0  0  0  # atno 17343 bound_to 10162
  157.7495  131.0095  150.3269 LP  0  0  0  0  0  0  0  0  0  0  0  0  # atno 17370 bound_to 10713
  156.3678  130.3858  149.7200 LP  0  0  0  0  0  0  0  0  0  0  0  0  # atno 17371 bound_to 10713
  141.1822  133.8390  157.1218 LP  0  0  0  0  0  0  0  0  0  0  0  0  # atno 17394 bound_to 11000
  140.0269  134.9920  157.0703 LP  0  0  0  0  0  0  0  0  0  0  0  0  # atno 17395 bound_to 11000

$$$$
