AV-unprocessed.smi:2193|AV-procd|sdf|8901|dock1
  -GOLD-   2272012113D 1   1.00000     0.00000
 Structure written by MMmdl.
 41 43  0  0  0  0  0  0  0  0  2 V2000
  146.7125  137.7602  150.4320 O   0  0  0  0  0  0  0  0  0  0  0  0
  146.4324  137.7522  151.8163 C   0  0  0  0  0  0  0  0  0  0  0  0
  145.1965  136.9842  152.1635 C   0  0  0  0  0  0  0  0  0  0  0  0
  144.0541  137.4944  152.7071 N   0  3  0  0  0  0  0  0  0  0  0  0
  143.1213  136.4742  152.8955 C   0  0  0  0  0  0  0  0  0  0  0  0
  141.8297  136.5029  153.4124 C   0  0  0  0  0  0  0  0  0  0  0  0
  141.1430  135.2722  153.4677 C   0  0  0  0  0  0  0  0  0  0  0  0
  141.7419  134.0763  153.0206 C   0  0  0  0  0  0  0  0  0  0  0  0
  143.0522  134.0598  152.4986 C   0  0  0  0  0  0  0  0  0  0  0  0
  143.7231  135.2812  152.4464 C   0  0  0  0  0  0  0  0  0  0  0  0
  144.9989  135.6439  152.0010 N   0  0  0  0  0  0  0  0  0  0  0  0
  145.8913  134.6059  151.4613 C   0  0  0  0  0  0  0  0  0  0  0  0
  146.7321  133.9084  152.5498 C   0  0  1  0  0  0  0  0  0  0  0  0
  147.0611  134.8537  153.5487 O   0  0  0  0  0  0  0  0  0  0  0  0
  145.9710  132.7448  153.2046 C   0  0  0  0  0  0  0  0  0  0  0  0
  146.9041  131.9022  153.8686 O   0  0  0  0  0  0  0  0  0  0  0  0
  147.1804  130.6695  153.3166 C   0  0  0  0  0  0  0  0  0  0  0  0
  148.3857  130.0496  153.7071 C   0  0  0  0  0  0  0  0  0  0  0  0
  148.7487  128.7896  153.1934 C   0  0  0  0  0  0  0  0  0  0  0  0
  147.9052  128.1343  152.2778 C   0  0  0  0  0  0  0  0  0  0  0  0
  148.2525  126.9231  151.7818 F   0  0  0  0  0  0  0  0  0  0  0  0
  146.7000  128.7410  151.8784 C   0  0  0  0  0  0  0  0  0  0  0  0
  146.3366  130.0012  152.3931 C   0  0  0  0  0  0  0  0  0  0  0  0
  145.9125  137.9480  149.9648 H   0  0  0  0  0  0  0  0  0  0  0  0
  147.2852  137.3235  152.3431 H   0  0  0  0  0  0  0  0  0  0  0  0
  146.3205  138.7802  152.1616 H   0  0  0  0  0  0  0  0  0  0  0  0
  141.3689  137.4176  153.7560 H   0  0  0  0  0  0  0  0  0  0  0  0
  140.1371  135.2448  153.8611 H   0  0  0  0  0  0  0  0  0  0  0  0
  141.1845  133.1524  153.0792 H   0  0  0  0  0  0  0  0  0  0  0  0
  143.5022  133.1389  152.1583 H   0  0  0  0  0  0  0  0  0  0  0  0
  145.2743  133.8769  150.9343 H   0  0  0  0  0  0  0  0  0  0  0  0
  146.5322  135.0646  150.7072 H   0  0  0  0  0  0  0  0  0  0  0  0
  147.6546  133.5334  152.1054 H   0  0  0  0  0  0  0  0  0  0  0  0
  147.7096  135.4455  153.1989 H   0  0  0  0  0  0  0  0  0  0  0  0
  145.2046  133.1176  153.8868 H   0  0  0  0  0  0  0  0  0  0  0  0
  145.4726  132.1596  152.4301 H   0  0  0  0  0  0  0  0  0  0  0  0
  149.0395  130.5454  154.4094 H   0  0  0  0  0  0  0  0  0  0  0  0
  149.6743  128.3266  153.5024 H   0  0  0  0  0  0  0  0  0  0  0  0
  146.0520  128.2392  151.1751 H   0  0  0  0  0  0  0  0  0  0  0  0
  145.4047  130.4338  152.0623 H   0  0  0  0  0  0  0  0  0  0  0  0
  143.9287  138.4737  152.9295 H   0  0  0  0  0  0  0  0  0  0  0  0
  1  2  1  0  0  0  0
  1 24  1  0  0  0  0
  2  3  1  0  0  0  0
  2 25  1  0  0  0  0
  2 26  1  0  0  0  0
  3 11  1  0  0  0  0
  3  4  2  0  0  0  0
  4  5  1  0  0  0  0
  4 41  1  0  0  0  0
  5 10  2  0  0  0  0
  5  6  1  0  0  0  0
  6  7  2  0  0  0  0
  6 27  1  0  0  0  0
  7  8  1  0  0  0  0
  7 28  1  0  0  0  0
  8  9  2  0  0  0  0
  8 29  1  0  0  0  0
  9 10  1  0  0  0  0
  9 30  1  0  0  0  0
 10 11  1  0  0  0  0
 11 12  1  0  0  0  0
 12 13  1  0  0  0  0
 12 31  1  0  0  0  0
 12 32  1  0  0  0  0
 13 14  1  0  0  0  0
 13 15  1  0  0  0  0
 13 33  1  0  0  0  0
 14 34  1  0  0  0  0
 15 16  1  0  0  0  0
 15 35  1  0  0  0  0
 15 36  1  0  0  0  0
 16 17  1  0  0  0  0
 17 23  1  0  0  0  0
 17 18  2  0  0  0  0
 18 19  1  0  0  0  0
 18 37  1  0  0  0  0
 19 20  2  0  0  0  0
 19 38  1  0  0  0  0
 20 21  1  0  0  0  0
 20 22  1  0  0  0  0
 22 23  2  0  0  0  0
 22 39  1  0  0  0  0
 23 40  1  0  0  0  0
M  CHG  1   4   1
M  END
> <s_m_source_file>
AV-unprocessed.smi

> <i_m_source_file_index>
2193

> <i_lp_mmshare_version>
43012

> <i_f3d_flags>
0

> <s_epik_input>
W2NIXTFbY0hdW2NIXVtjSF1jKGMxMiluKGMobjIpW0NIMl1bT0hdKVtDSDJdW0NASF0oW09IXSlbQ0gyXU9jM1tjSF1bY0hdYyhGKVtjSF1bY0hdMw==

> <s_epik_cmdline>
J2VwaWtfcHl0aG9uJywgJy1waCcsICc3LjAnLCAnLXRuJywgJzgnLCAnLW1hJywgJzIwMCcsICctbWV0YWxfYmluZGluZycsICctaW1hZScsICc8aW5maWxlLm1hZT4nLCAnLW9tYWUnLCAnPG91dGZpbGUubWFlPic=

> <r_lp_tautomer_probability>
1

> <r_epik_Ionization_Penalty>
1.43752

> <r_epik_Ionization_Penalty_Charging>
1.43666

> <r_epik_Ionization_Penalty_Neutral>
0.000858184

> <r_epik_State_Penalty>
1.52171

> <r_epik_Charging_Adjusted_Penalty>
2.95837

> <i_epik_Tot_Q>
1

> <i_epik_Tot_abs_Q>
1

> <r_epik_Metal_State_Penalty>
5.56725

> <b_epik_Metal_Only>
0

> <s_lp_Force_Field>
OPLS_2005

> <r_lp_Energy>
18.7626

> <b_lp_Chiralities_Consistent>
1

> <s_lp_Variant>
AV-unprocessed.smi:2193-4

> <Gold.Version>
5.8.1

> <Gold.Id.Protein>
6NUR|6NUR_protein|mol2

> <Gold.PLP.Fitness>
59.7115

> <Gold.PLP.PLP>
-47.7812

> <Gold.PLP.part.hbond>
-5.4057

> <Gold.PLP.part.metal>
0.0000

> <Gold.PLP.part.buried>
-4.2665

> <Gold.PLP.part.nonpolar>
-40.1790

> <Gold.PLP.part.repulsive>
0.1261

> <Gold.PLP.ligand.clash>
0.0000

> <Gold.PLP.ligand.torsion>
1.4528

> <Gold.PLP.Chemscore.Hbond>
4.9280

> <Gold.PLP.Chemscore.CHOScore>
0.0000

> <Gold.PLP.Chemscore.Metal>
0.0000

> <Gold.Chemscore.Hbonds>
donor molecule, donor type, donor heavy atom, donor atom, acceptor molecule, acceptor atom, score
      L1  H     1    24       P1 10171  0.78
      L1  H     4    41       P1 10175  1.95
      L1  H    14    34       P1  7948  1.00
      P1  H  7954  7966       L1     1  0.96

> <Gold.PLP.Chemscore.Internal.Correction>
0.0520

> <Gold.Rescore>
     Score         DG    S(hbond)    S(metal)    S(lipo)     H(rot)  DE(clash)    DE(int)     intcor
     19.36     -21.02       3.67        0.00     100.41       3.31       0.32       1.34       ----

> <Gold.Chemscore.Fitness>
19.3589

> <Gold.Chemscore.DG>
-21.0182

> <Gold.Chemscore.ZeroCoef>
-5.4800

> <Gold.Chemscore.Hbond>
3.6744

> <Gold.Chemscore.Metal>
0.0000

> <Gold.Chemscore.Lipo>
100.4095

> <Gold.Chemscore.Internal_Hbond>
0.0000

> <Gold.Chemscore.DEClash>
0.3187

> <Gold.Chemscore.DEInternal>
1.3406

> <Gold.Chemscore.Rot>
3.3134

> <Gold.Chemscore.Internal.Correction>
   9.000000E+99

> <Gold.Chemscore.Hbonds>
donor molecule, donor type, donor heavy atom, donor atom, acceptor molecule, acceptor atom, score
      L1  H     1    24       P1 10171  0.75
      L1  H     4    41       P1 10175  0.90
      L1  H    14    34       P1  7948  0.97
      P1  H  7954  7966       L1     1  0.86

> <Gold.Chemscore.Hbond.Weighted>
-12.2726

> <Gold.Chemscore.Metal.Weighted>
-0.0000

> <Gold.Chemscore.Lipo.Weighted>
-11.7479

> <Gold.Chemscore.Internal_Hbond.Weighted>
0.0000

> <Gold.Chemscore.DEClash.Weighted>
0.3187

> <Gold.Chemscore.DEInternal.Weighted>
1.3406

> <Gold.Chemscore.Rot.Weighted>
8.4823

> <Gold.Chemscore.Internal.Correction.Weighted>
   9.000000E+99

> <Gold.Protein.RotatedTorsions>
[ 6907 6896 6895 6894 ] final  -45.69 input  -60.11 | X-H torsion
[ 7974 7965 7964 7962 ] final  156.53 input  175.53 | X-H torsion
[ 8008 7997 7996 7995 ] final  -87.93 input   59.86 | X-H torsion
[ 10167 10162 10161 10158 ] final  144.23 input  -65.29 | X-H torsion
[ 10718 10713 10712 10709 ] final   -5.06 input   66.30 | X-H torsion
[ 10763 10752 10751 10750 ] final  158.50 input  -60.55 | X-H torsion
[ 11005 11000 10999 10996 ] final  103.68 input  -57.11 | X-H torsion

> <Gold.Protein.ActiveResidues>
 VAL166  LYS551  ARG553  GLY616  TRP617  ASP618  TYR619  PRO620  LYS621  CYS622 
 ASP623  PHE694  ASN695  SER759  ASP760  ASP761  ALA762  ILE779  LEU786  VAL792 
 PHE793  MET794  SER795  GLU796  ALA797  LYS798  CYS799  TRP800  GLU811  SER814 

> <Gold.Protein.RotatedAtoms>
  150.9192  134.8610  159.7477 H   0  0  0  0  0  0  0  0  0  0  0  0  # atno 6907 bound_to 6896
  152.4984  134.4243  159.9501 H   0  0  0  0  0  0  0  0  0  0  0  0  # atno 6908 bound_to 6896
  151.4279  133.3639  159.2800 H   0  0  0  0  0  0  0  0  0  0  0  0  # atno 6909 bound_to 6896
  144.7958  139.7216  143.6202 H   0  0  0  0  0  0  0  0  0  0  0  0  # atno 7974 bound_to 7965
  154.6689  140.0560  157.0144 H   0  0  0  0  0  0  0  0  0  0  0  0  # atno 8008 bound_to 7997
  155.1118  140.3239  155.4501 H   0  0  0  0  0  0  0  0  0  0  0  0  # atno 8009 bound_to 7997
  156.2649  140.2013  156.6242 H   0  0  0  0  0  0  0  0  0  0  0  0  # atno 8010 bound_to 7997
  139.4951  144.5986  151.6529 H   0  0  0  0  0  0  0  0  0  0  0  0  # atno 10167 bound_to 10162
  156.7521  130.5243  149.5802 H   0  0  0  0  0  0  0  0  0  0  0  0  # atno 10718 bound_to 10713
  154.2171  135.2783  155.2938 H   0  0  0  0  0  0  0  0  0  0  0  0  # atno 10763 bound_to 10752
  154.5732  135.5612  153.7118 H   0  0  0  0  0  0  0  0  0  0  0  0  # atno 10764 bound_to 10752
  153.0050  135.6326  154.2310 H   0  0  0  0  0  0  0  0  0  0  0  0  # atno 10765 bound_to 10752
  139.8785  134.9272  156.5246 H   0  0  0  0  0  0  0  0  0  0  0  0  # atno 11005 bound_to 11000
  146.2225  139.5662  142.9609 LP  0  0  0  0  0  0  0  0  0  0  0  0  # atno 17320 bound_to 7965
  145.5678  141.0397  143.2191 LP  0  0  0  0  0  0  0  0  0  0  0  0  # atno 17321 bound_to 7965
  140.5630  144.0236  150.6179 LP  0  0  0  0  0  0  0  0  0  0  0  0  # atno 17342 bound_to 10162
  140.3329  143.3067  152.0669 LP  0  0  0  0  0  0  0  0  0  0  0  0  # atno 17343 bound_to 10162
  156.1394  130.6234  151.0446 LP  0  0  0  0  0  0  0  0  0  0  0  0  # atno 17370 bound_to 10713
  157.6772  131.0847  150.7463 LP  0  0  0  0  0  0  0  0  0  0  0  0  # atno 17371 bound_to 10713
  140.8425  133.8194  155.9089 LP  0  0  0  0  0  0  0  0  0  0  0  0  # atno 17394 bound_to 11000
  140.9223  134.2126  157.4918 LP  0  0  0  0  0  0  0  0  0  0  0  0  # atno 17395 bound_to 11000

$$$$
