AV-unprocessed.smi:3092|AV-procd|sdf|11783|dock2
  -GOLD-   2272017163D 1   1.00000     0.00000
 Structure written by MMmdl.
 25 26  0  0  0  0  0  0  0  0  2 V2000
  154.7111  141.0580  159.8298 C   0  0  0  0  0  0  0  0  0  0  0  0
  153.6823  141.7616  160.5720 N   0  0  0  0  0  0  0  0  0  0  0  0
  153.6815  141.9785  161.9439 C   0  0  0  0  0  0  0  0  0  0  0  0
  152.5336  142.6747  162.2335 C   0  0  0  0  0  0  0  0  0  0  0  0
  151.8215  142.8946  161.0598 N   0  0  0  0  0  0  0  0  0  0  0  0
  152.5531  142.3305  160.1020 C   0  0  0  0  0  0  0  0  0  0  0  0
  152.1556  142.3226  158.6527 C   0  0  1  0  0  0  0  0  0  0  0  0
  150.9497  141.4535  158.3047 C   0  0  0  0  0  0  0  0  0  0  0  0
  150.4845  142.0158  156.9532 C   0  0  0  0  0  0  0  0  0  0  0  0
  151.0451  143.3806  156.8412 N   0  3  0  0  0  0  0  0  0  0  0  0
  151.7542  143.6869  158.0960 C   0  0  0  0  0  0  0  0  0  0  0  0
  155.4768  140.6834  160.5099 H   0  0  0  0  0  0  0  0  0  0  0  0
  155.1773  141.7347  159.1131 H   0  0  0  0  0  0  0  0  0  0  0  0
  154.2718  140.2135  159.2980 H   0  0  0  0  0  0  0  0  0  0  0  0
  154.4766  141.6276  162.5855 H   0  0  0  0  0  0  0  0  0  0  0  0
  152.1690  143.0303  163.1861 H   0  0  0  0  0  0  0  0  0  0  0  0
  152.9950  141.9655  158.0557 H   0  0  0  0  0  0  0  0  0  0  0  0
  151.1859  140.3895  158.2711 H   0  0  0  0  0  0  0  0  0  0  0  0
  150.1582  141.5962  159.0421 H   0  0  0  0  0  0  0  0  0  0  0  0
  150.8681  141.4131  156.1295 H   0  0  0  0  0  0  0  0  0  0  0  0
  149.3966  142.0338  156.8787 H   0  0  0  0  0  0  0  0  0  0  0  0
  151.7089  143.3903  156.0798 H   0  0  0  0  0  0  0  0  0  0  0  0
  151.0545  144.1873  158.7673 H   0  0  0  0  0  0  0  0  0  0  0  0
  152.6049  144.3498  157.9363 H   0  0  0  0  0  0  0  0  0  0  0  0
  150.3183  144.0604  156.6679 H   0  0  0  0  0  0  0  0  0  0  0  0
  1  2  1  0  0  0  0
  1 12  1  0  0  0  0
  1 13  1  0  0  0  0
  1 14  1  0  0  0  0
  2  6  1  0  0  0  0
  2  3  1  0  0  0  0
  3  4  2  0  0  0  0
  3 15  1  0  0  0  0
  4  5  1  0  0  0  0
  4 16  1  0  0  0  0
  5  6  2  0  0  0  0
  6  7  1  0  0  0  0
  7 11  1  0  0  0  0
  7  8  1  0  0  0  0
  7 17  1  0  0  0  0
  8  9  1  0  0  0  0
  8 18  1  0  0  0  0
  8 19  1  0  0  0  0
  9 10  1  0  0  0  0
  9 20  1  0  0  0  0
  9 21  1  0  0  0  0
 10 11  1  0  0  0  0
 10 22  1  0  0  0  0
 10 25  1  0  0  0  0
 11 23  1  0  0  0  0
 11 24  1  0  0  0  0
M  CHG  1  10   1
M  END
> <s_m_source_file>
AV-unprocessed.smi

> <i_m_source_file_index>
3092

> <i_lp_mmshare_version>
43012

> <i_f3d_flags>
0

> <s_epik_input>
W0NIM11uMVtjSF1bY0hdbmMxW0NAQEhdMltDSDJdW0NIMl1bTkhdW0NIMl0y

> <s_epik_cmdline>
J2VwaWtfcHl0aG9uJywgJy1waCcsICc3LjAnLCAnLXRuJywgJzgnLCAnLW1hJywgJzIwMCcsICctbWV0YWxfYmluZGluZycsICctaW1hZScsICc8aW5maWxlLm1hZT4nLCAnLW9tYWUnLCAnPG91dGZpbGUubWFlPic=

> <r_lp_tautomer_probability>
1

> <r_epik_Ionization_Penalty>
0.177139

> <r_epik_Ionization_Penalty_Charging>
0.177139

> <r_epik_Ionization_Penalty_Neutral>
7.43304e-14

> <r_epik_State_Penalty>
0.16632

> <r_epik_Charging_Adjusted_Penalty>
0.343459

> <i_epik_Tot_Q>
1

> <i_epik_Tot_abs_Q>
1

> <r_epik_Metal_State_Penalty>
0.000191838

> <b_epik_Metal_Only>
0

> <s_lp_Force_Field>
OPLS_2005

> <r_lp_Energy>
23.658

> <b_lp_Chiralities_Consistent>
1

> <s_lp_Variant>
AV-unprocessed.smi:3092-2

> <Gold.Version>
5.8.1

> <Gold.Id.Protein>
6NUR|6NUR_protein|mol2

> <Gold.PLP.Fitness>
37.3619

> <Gold.PLP.PLP>
-31.7326

> <Gold.PLP.part.hbond>
-1.8338

> <Gold.PLP.part.metal>
0.0000

> <Gold.PLP.part.buried>
-4.1141

> <Gold.PLP.part.nonpolar>
-26.2915

> <Gold.PLP.part.repulsive>
0.1252

> <Gold.PLP.ligand.clash>
0.0000

> <Gold.PLP.ligand.torsion>
0.1860

> <Gold.PLP.Chemscore.Hbond>
2.0000

> <Gold.PLP.Chemscore.CHOScore>
0.0000

> <Gold.PLP.Chemscore.Metal>
0.0000

> <Gold.Chemscore.Hbonds>
donor molecule, donor type, donor heavy atom, donor atom, acceptor molecule, acceptor atom, score
      L1  H    10    25       P1  8028  2.00
      P1  H  6933  6945       L1     5  0.01

> <Gold.PLP.Chemscore.Internal.Correction>
0.0012

> <Gold.Rescore>
     Score         DG    S(hbond)    S(metal)    S(lipo)     H(rot)  DE(clash)    DE(int)     intcor
     14.16     -14.19       1.00        0.00      67.87       1.00       0.02       0.01       ----

> <Gold.Chemscore.Fitness>
14.1608

> <Gold.Chemscore.DG>
-14.1903

> <Gold.Chemscore.ZeroCoef>
-5.4800

> <Gold.Chemscore.Hbond>
0.9968

> <Gold.Chemscore.Metal>
0.0000

> <Gold.Chemscore.Lipo>
67.8704

> <Gold.Chemscore.Internal_Hbond>
0.0000

> <Gold.Chemscore.DEClash>
0.0202

> <Gold.Chemscore.DEInternal>
0.0092

> <Gold.Chemscore.Rot>
1.0000

> <Gold.Chemscore.Internal.Correction>
   9.000000E+99

> <Gold.Chemscore.Hbonds>
donor molecule, donor type, donor heavy atom, donor atom, acceptor molecule, acceptor atom, score
      L1  H    10    25       P1  8028  0.97

> <Gold.Chemscore.Hbond.Weighted>
-3.3294

> <Gold.Chemscore.Metal.Weighted>
-0.0000

> <Gold.Chemscore.Lipo.Weighted>
-7.9408

> <Gold.Chemscore.Internal_Hbond.Weighted>
0.0000

> <Gold.Chemscore.DEClash.Weighted>
0.0202

> <Gold.Chemscore.DEInternal.Weighted>
0.0092

> <Gold.Chemscore.Rot.Weighted>
2.5600

> <Gold.Chemscore.Internal.Correction.Weighted>
   9.000000E+99

> <Gold.Protein.RotatedTorsions>
[ 6907 6896 6895 6894 ] final  166.00 input  -60.11 | X-H torsion
[ 7974 7965 7964 7962 ] final  112.81 input  175.53 | X-H torsion
[ 8008 7997 7996 7995 ] final   83.24 input   59.86 | X-H torsion
[ 10167 10162 10161 10158 ] final  161.61 input  -65.29 | X-H torsion
[ 10718 10713 10712 10709 ] final  175.88 input   66.30 | X-H torsion
[ 10763 10752 10751 10750 ] final  168.19 input  -60.55 | X-H torsion
[ 11005 11000 10999 10996 ] final   64.98 input  -57.11 | X-H torsion

> <Gold.Protein.ActiveResidues>
 VAL166  LYS551  ARG553  GLY616  TRP617  ASP618  TYR619  PRO620  LYS621  CYS622 
 ASP623  PHE694  ASN695  SER759  ASP760  ASP761  ALA762  ILE779  LEU786  VAL792 
 PHE793  MET794  SER795  GLU796  ALA797  LYS798  CYS799  TRP800  GLU811  SER814 

> <Gold.Protein.RotatedAtoms>
  151.8857  133.3505  159.3780 H   0  0  0  0  0  0  0  0  0  0  0  0  # atno 6907 bound_to 6896
  150.7116  134.4974  159.5554 H   0  0  0  0  0  0  0  0  0  0  0  0  # atno 6908 bound_to 6896
  152.2534  134.8109  160.0493 H   0  0  0  0  0  0  0  0  0  0  0  0  # atno 6909 bound_to 6896
  145.2248  139.2845  143.4199 H   0  0  0  0  0  0  0  0  0  0  0  0  # atno 7974 bound_to 7965
  155.9214  140.3421  155.6175 H   0  0  0  0  0  0  0  0  0  0  0  0  # atno 8008 bound_to 7997
  155.7269  140.0790  157.2325 H   0  0  0  0  0  0  0  0  0  0  0  0  # atno 8009 bound_to 7997
  154.4070  140.1595  156.2452 H   0  0  0  0  0  0  0  0  0  0  0  0  # atno 8010 bound_to 7997
  139.4851  144.4519  151.8818 H   0  0  0  0  0  0  0  0  0  0  0  0  # atno 10167 bound_to 10162
  156.9283  130.9963  151.2992 H   0  0  0  0  0  0  0  0  0  0  0  0  # atno 10718 bound_to 10713
  154.3650  135.2753  155.2299 H   0  0  0  0  0  0  0  0  0  0  0  0  # atno 10763 bound_to 10752
  154.4471  135.5940  153.6170 H   0  0  0  0  0  0  0  0  0  0  0  0  # atno 10764 bound_to 10752
  152.9841  135.6033  154.3874 H   0  0  0  0  0  0  0  0  0  0  0  0  # atno 10765 bound_to 10752
  139.9923  134.6571  156.0069 H   0  0  0  0  0  0  0  0  0  0  0  0  # atno 11005 bound_to 11000
  146.3367  140.2565  142.8600 LP  0  0  0  0  0  0  0  0  0  0  0  0  # atno 17320 bound_to 7965
  144.9731  140.8388  143.5443 LP  0  0  0  0  0  0  0  0  0  0  0  0  # atno 17321 bound_to 7965
  140.3977  144.2534  150.5895 LP  0  0  0  0  0  0  0  0  0  0  0  0  # atno 17342 bound_to 10162
  140.5087  143.2297  151.8569 LP  0  0  0  0  0  0  0  0  0  0  0  0  # atno 17343 bound_to 10162
  157.5863  130.8412  149.8594 LP  0  0  0  0  0  0  0  0  0  0  0  0  # atno 17370 bound_to 10713
  156.0459  130.3728  150.1320 LP  0  0  0  0  0  0  0  0  0  0  0  0  # atno 17371 bound_to 10713
  141.1576  133.6541  156.4213 LP  0  0  0  0  0  0  0  0  0  0  0  0  # atno 17394 bound_to 11000
  140.4884  134.6599  157.5200 LP  0  0  0  0  0  0  0  0  0  0  0  0  # atno 17395 bound_to 11000

$$$$
