AV-unprocessed.smi:2131|AV-procd|sdf|8689|dock7
  -GOLD-   2272011443D 1   1.00000     0.00000
 Structure written by MMmdl.
 41 43  0  0  0  0  0  0  0  0  2 V2000
  144.4033  143.5011  154.7086 N   0  0  0  0  0  0  0  0  0  0  0  0
  144.7899  142.6314  155.3666 C   0  0  0  0  0  0  0  0  0  0  0  0
  145.2819  141.5258  156.2027 C   0  0  0  0  0  0  0  0  0  0  0  0
  146.5876  140.9590  155.6846 C   0  0  0  0  0  0  0  0  0  0  0  0
  147.2230  141.5445  154.5724 C   0  0  0  0  0  0  0  0  0  0  0  0
  148.4353  141.0138  154.0913 C   0  0  0  0  0  0  0  0  0  0  0  0
  149.0306  139.8948  154.7099 C   0  0  0  0  0  0  0  0  0  0  0  0
  150.2162  139.4400  154.1732 O   0  0  0  0  0  0  0  0  0  0  0  0
  151.0697  138.6550  154.9956 C   0  0  0  0  0  0  0  0  0  0  0  0
  152.1447  139.5612  155.6140 C   0  0  2  0  0  0  0  0  0  0  0  0
  153.3848  138.8848  155.5540 O   0  0  0  0  0  0  0  0  0  0  0  0
  151.8228  139.9502  157.0707 C   0  0  0  0  0  0  0  0  0  0  0  0
  151.3892  141.3486  157.2023 N   0  0  0  0  0  0  0  0  0  0  0  0
  150.5390  142.0690  156.4219 C   0  0  0  0  0  0  0  0  0  0  0  0
  150.4570  143.3218  156.9493 N   0  3  0  0  0  0  0  0  0  0  0  0
  151.2674  143.4043  158.0833 C   0  0  0  0  0  0  0  0  0  0  0  0
  151.5128  144.4640  158.9511 C   0  0  0  0  0  0  0  0  0  0  0  0
  152.4017  144.2157  160.0176 C   0  0  0  0  0  0  0  0  0  0  0  0
  153.0084  142.9545  160.1894 C   0  0  0  0  0  0  0  0  0  0  0  0
  152.7519  141.8873  159.3035 C   0  0  0  0  0  0  0  0  0  0  0  0
  151.8706  142.1398  158.2524 C   0  0  0  0  0  0  0  0  0  0  0  0
  148.3851  139.3107  155.8294 C   0  0  0  0  0  0  0  0  0  0  0  0
  147.1724  139.8411  156.3109 C   0  0  0  0  0  0  0  0  0  0  0  0
  145.4099  141.8932  157.2213 H   0  0  0  0  0  0  0  0  0  0  0  0
  144.5196  140.7468  156.2290 H   0  0  0  0  0  0  0  0  0  0  0  0
  146.7811  142.4009  154.0845 H   0  0  0  0  0  0  0  0  0  0  0  0
  148.9133  141.4701  153.2368 H   0  0  0  0  0  0  0  0  0  0  0  0
  150.4996  138.1584  155.7829 H   0  0  0  0  0  0  0  0  0  0  0  0
  151.5482  137.8854  154.3872 H   0  0  0  0  0  0  0  0  0  0  0  0
  152.2374  140.4651  155.0105 H   0  0  0  0  0  0  0  0  0  0  0  0
  153.4967  138.5417  154.6804 H   0  0  0  0  0  0  0  0  0  0  0  0
  151.0109  139.3291  157.4508 H   0  0  0  0  0  0  0  0  0  0  0  0
  152.6743  139.7713  157.7275 H   0  0  0  0  0  0  0  0  0  0  0  0
  150.0237  141.7116  155.5418 H   0  0  0  0  0  0  0  0  0  0  0  0
  151.0505  145.4315  158.8209 H   0  0  0  0  0  0  0  0  0  0  0  0
  152.6236  145.0086  160.7171 H   0  0  0  0  0  0  0  0  0  0  0  0
  153.6861  142.8022  161.0169 H   0  0  0  0  0  0  0  0  0  0  0  0
  153.2274  140.9277  159.4414 H   0  0  0  0  0  0  0  0  0  0  0  0
  148.7991  138.4528  156.3369 H   0  0  0  0  0  0  0  0  0  0  0  0
  146.6903  139.3851  157.1632 H   0  0  0  0  0  0  0  0  0  0  0  0
  149.8903  144.0646  156.5607 H   0  0  0  0  0  0  0  0  0  0  0  0
  1  2  3  0  0  0  0
  2  3  1  0  0  0  0
  3  4  1  0  0  0  0
  3 24  1  0  0  0  0
  3 25  1  0  0  0  0
  4 23  1  0  0  0  0
  4  5  2  0  0  0  0
  5  6  1  0  0  0  0
  5 26  1  0  0  0  0
  6  7  2  0  0  0  0
  6 27  1  0  0  0  0
  7  8  1  0  0  0  0
  7 22  1  0  0  0  0
  8  9  1  0  0  0  0
  9 10  1  0  0  0  0
  9 28  1  0  0  0  0
  9 29  1  0  0  0  0
 10 11  1  0  0  0  0
 10 12  1  0  0  0  0
 10 30  1  0  0  0  0
 11 31  1  0  0  0  0
 12 13  1  0  0  0  0
 12 32  1  0  0  0  0
 12 33  1  0  0  0  0
 13 21  1  0  0  0  0
 13 14  1  0  0  0  0
 14 15  2  0  0  0  0
 14 34  1  0  0  0  0
 15 16  1  0  0  0  0
 15 41  1  0  0  0  0
 16 21  2  0  0  0  0
 16 17  1  0  0  0  0
 17 18  2  0  0  0  0
 17 35  1  0  0  0  0
 18 19  1  0  0  0  0
 18 36  1  0  0  0  0
 19 20  2  0  0  0  0
 19 37  1  0  0  0  0
 20 21  1  0  0  0  0
 20 38  1  0  0  0  0
 22 23  2  0  0  0  0
 22 39  1  0  0  0  0
 23 40  1  0  0  0  0
M  CHG  1  15   1
M  END
> <s_m_source_file>
AV-unprocessed.smi

> <i_m_source_file_index>
2131

> <i_lp_mmshare_version>
43012

> <i_f3d_flags>
0

> <s_epik_input>
TiNDW0NIMl1jMVtjSF1bY0hdYyhbY0hdW2NIXTEpT1tDSDJdW0NASF0oW09IXSlbQ0gyXW4oW2NIXW4yKWMoYzIzKVtjSF1bY0hdW2NIXVtjSF0z

> <s_epik_cmdline>
J2VwaWtfcHl0aG9uJywgJy1waCcsICc3LjAnLCAnLXRuJywgJzgnLCAnLW1hJywgJzIwMCcsICctbWV0YWxfYmluZGluZycsICctaW1hZScsICc8aW5maWxlLm1hZT4nLCAnLW9tYWUnLCAnPG91dGZpbGUubWFlPic=

> <r_lp_tautomer_probability>
1

> <r_epik_Ionization_Penalty>
1.3774

> <r_epik_Ionization_Penalty_Charging>
1.37739

> <r_epik_Ionization_Penalty_Neutral>
2.3994e-06

> <r_epik_State_Penalty>
1.45762

> <r_epik_Charging_Adjusted_Penalty>
2.83501

> <i_epik_Tot_Q>
1

> <i_epik_Tot_abs_Q>
1

> <r_epik_Metal_State_Penalty>
5.49752

> <b_epik_Metal_Only>
0

> <s_lp_Force_Field>
OPLS_2005

> <r_lp_Energy>
20.896

> <b_lp_Chiralities_Consistent>
1

> <s_lp_Variant>
AV-unprocessed.smi:2131-3

> <Gold.Version>
5.8.1

> <Gold.Id.Protein>
6NUR|6NUR_protein|mol2

> <Gold.PLP.Fitness>
55.5372

> <Gold.PLP.PLP>
-48.2941

> <Gold.PLP.part.hbond>
-3.0000

> <Gold.PLP.part.metal>
0.0000

> <Gold.PLP.part.buried>
-6.2325

> <Gold.PLP.part.nonpolar>
-40.5129

> <Gold.PLP.part.repulsive>
0.9489

> <Gold.PLP.ligand.clash>
0.0000

> <Gold.PLP.ligand.torsion>
2.0566

> <Gold.PLP.Chemscore.Hbond>
3.7456

> <Gold.PLP.Chemscore.CHOScore>
0.0000

> <Gold.PLP.Chemscore.Metal>
0.0000

> <Gold.Chemscore.Hbonds>
donor molecule, donor type, donor heavy atom, donor atom, acceptor molecule, acceptor atom, score
      L1  H    15    41       P1  8028  1.76
      P1  H  7989  7998       L1     8  0.76
      P1  H  7997  8008       L1    11  0.93

> <Gold.PLP.Chemscore.Internal.Correction>
0.1195

> <Gold.Rescore>
     Score         DG    S(hbond)    S(metal)    S(lipo)     H(rot)  DE(clash)    DE(int)     intcor
     15.26     -17.58       1.62        0.00     118.86       2.81       0.35       1.97       ----

> <Gold.Chemscore.Fitness>
15.2641

> <Gold.Chemscore.DG>
-17.5768

> <Gold.Chemscore.ZeroCoef>
-5.4800

> <Gold.Chemscore.Hbond>
1.6150

> <Gold.Chemscore.Metal>
0.0000

> <Gold.Chemscore.Lipo>
118.8592

> <Gold.Chemscore.Internal_Hbond>
0.0000

> <Gold.Chemscore.DEClash>
0.3454

> <Gold.Chemscore.DEInternal>
1.9673

> <Gold.Chemscore.Rot>
2.8140

> <Gold.Chemscore.Internal.Correction>
   9.000000E+99

> <Gold.Chemscore.Hbonds>
donor molecule, donor type, donor heavy atom, donor atom, acceptor molecule, acceptor atom, score
      L1  H    15    41       P1  8028  0.85
      P1  H  7989  7998       L1     8  0.16
      P1  H  7997  8008       L1    11  0.22

> <Gold.Chemscore.Hbond.Weighted>
-5.3942

> <Gold.Chemscore.Metal.Weighted>
-0.0000

> <Gold.Chemscore.Lipo.Weighted>
-13.9065

> <Gold.Chemscore.Internal_Hbond.Weighted>
0.0000

> <Gold.Chemscore.DEClash.Weighted>
0.3454

> <Gold.Chemscore.DEInternal.Weighted>
1.9673

> <Gold.Chemscore.Rot.Weighted>
7.2039

> <Gold.Chemscore.Internal.Correction.Weighted>
   9.000000E+99

> <Gold.Protein.RotatedTorsions>
[ 6907 6896 6895 6894 ] final  137.51 input  -60.11 | X-H torsion
[ 7974 7965 7964 7962 ] final  -56.94 input  175.53 | X-H torsion
[ 8008 7997 7996 7995 ] final  -14.28 input   59.86 | X-H torsion
[ 10167 10162 10161 10158 ] final -128.79 input  -65.29 | X-H torsion
[ 10718 10713 10712 10709 ] final  126.67 input   66.30 | X-H torsion
[ 10763 10752 10751 10750 ] final  153.43 input  -60.55 | X-H torsion
[ 11005 11000 10999 10996 ] final   75.92 input  -57.11 | X-H torsion

> <Gold.Protein.ActiveResidues>
 VAL166  LYS551  ARG553  GLY616  TRP617  ASP618  TYR619  PRO620  LYS621  CYS622 
 ASP623  PHE694  ASN695  SER759  ASP760  ASP761  ALA762  ILE779  LEU786  VAL792 
 PHE793  MET794  SER795  GLU796  ALA797  LYS798  CYS799  TRP800  GLU811  SER814 

> <Gold.Protein.RotatedAtoms>
  152.2772  133.5437  159.5475 H   0  0  0  0  0  0  0  0  0  0  0  0  # atno 6907 bound_to 6896
  150.7182  134.0614  159.3841 H   0  0  0  0  0  0  0  0  0  0  0  0  # atno 6908 bound_to 6896
  151.8527  135.0552  160.0511 H   0  0  0  0  0  0  0  0  0  0  0  0  # atno 6909 bound_to 6896
  145.8569  140.8313  142.9957 H   0  0  0  0  0  0  0  0  0  0  0  0  # atno 7974 bound_to 7965
  154.5223  140.2227  155.8954 H   0  0  0  0  0  0  0  0  0  0  0  0  # atno 8008 bound_to 7997
  156.1675  140.3129  155.8879 H   0  0  0  0  0  0  0  0  0  0  0  0  # atno 8009 bound_to 7997
  155.3626  140.0462  157.3037 H   0  0  0  0  0  0  0  0  0  0  0  0  # atno 8010 bound_to 7997
  139.9465  143.6103  152.2488 H   0  0  0  0  0  0  0  0  0  0  0  0  # atno 10167 bound_to 10162
  157.5399  131.1097  150.8875 H   0  0  0  0  0  0  0  0  0  0  0  0  # atno 10718 bound_to 10713
  154.1360  135.2823  155.3173 H   0  0  0  0  0  0  0  0  0  0  0  0  # atno 10763 bound_to 10752
  154.6321  135.5431  153.7696 H   0  0  0  0  0  0  0  0  0  0  0  0  # atno 10764 bound_to 10752
  153.0266  135.6465  154.1509 H   0  0  0  0  0  0  0  0  0  0  0  0  # atno 10765 bound_to 10752
  139.9321  134.7558  156.1331 H   0  0  0  0  0  0  0  0  0  0  0  0  # atno 11005 bound_to 11000
  144.6727  140.1036  143.7459 LP  0  0  0  0  0  0  0  0  0  0  0  0  # atno 17320 bound_to 7965
  145.9293  139.2596  143.1334 LP  0  0  0  0  0  0  0  0  0  0  0  0  # atno 17321 bound_to 7965
  139.6662  144.7662  151.1868 LP  0  0  0  0  0  0  0  0  0  0  0  0  # atno 17342 bound_to 10162
  140.7595  143.5934  150.8773 LP  0  0  0  0  0  0  0  0  0  0  0  0  # atno 17343 bound_to 10162
  156.9431  130.5392  149.5280 LP  0  0  0  0  0  0  0  0  0  0  0  0  # atno 17370 bound_to 10713
  156.0488  130.5561  150.8943 LP  0  0  0  0  0  0  0  0  0  0  0  0  # atno 17371 bound_to 10713
  141.0916  133.6712  156.2553 LP  0  0  0  0  0  0  0  0  0  0  0  0  # atno 17394 bound_to 11000
  140.6173  134.5397  157.5542 LP  0  0  0  0  0  0  0  0  0  0  0  0  # atno 17395 bound_to 11000

$$$$
