AV-unprocessed.smi:2069|AV-procd|sdf|8432|dock5
  -GOLD-   2272011133D 1   1.00000     0.00000
 Structure written by MMmdl.
 38 39  0  0  0  0  0  0  0  0  1 V2000
  144.3506  132.2905  149.8635 C   0  0  0  0  0  0  0  0  0  0  0  0
  144.7915  133.4926  150.6269 C   0  0  0  0  0  0  0  0  0  0  0  0
  145.7430  133.4459  151.5673 N   0  0  0  0  0  0  0  0  0  0  0  0
  145.9813  134.6888  152.1372 N   0  0  0  0  0  0  0  0  0  0  0  0
  145.2005  135.6400  151.6066 C   0  0  0  0  0  0  0  0  0  0  0  0
  145.2358  137.0030  152.0037 N   0  0  0  0  0  0  0  0  0  0  0  0
  145.6923  137.5242  153.1562 C   0  0  0  0  0  0  0  0  0  0  0  0
  146.1682  136.8777  154.0897 O   0  0  0  0  0  0  0  0  0  0  0  0
  145.5588  138.8590  153.1687 N   0  0  0  0  0  0  0  0  0  0  0  0
  145.9547  139.7448  154.2618 C   0  0  0  0  0  0  0  0  0  0  0  0
  147.1712  140.6455  153.9046 C   0  0  1  0  0  0  0  0  0  0  0  0
  146.7238  142.1293  153.9198 C   0  0  0  0  0  0  0  0  0  0  0  0
  148.3524  140.3962  154.7646 N   0  0  0  0  0  0  0  0  0  0  0  0
  149.0905  139.1864  154.3821 C   0  0  0  0  0  0  0  0  0  0  0  0
  150.3332  138.9422  155.2561 C   0  0  0  0  0  0  0  0  0  0  0  0
  151.1894  140.0744  155.2001 O   0  0  0  0  0  0  0  0  0  0  0  0
  150.5365  141.2564  155.6415 C   0  0  0  0  0  0  0  0  0  0  0  0
  149.2972  141.5196  154.7685 C   0  0  0  0  0  0  0  0  0  0  0  0
  144.1004  135.0875  150.3547 S   0  0  0  0  0  0  0  0  0  0  0  0
  144.6882  131.3778  150.3555 H   0  0  0  0  0  0  0  0  0  0  0  0
  144.7635  132.3182  148.8551 H   0  0  0  0  0  0  0  0  0  0  0  0
  143.2628  132.2676  149.7969 H   0  0  0  0  0  0  0  0  0  0  0  0
  144.8704  137.6590  151.3295 H   0  0  0  0  0  0  0  0  0  0  0  0
  145.1528  139.3010  152.3572 H   0  0  0  0  0  0  0  0  0  0  0  0
  145.1213  140.3628  154.6002 H   0  0  0  0  0  0  0  0  0  0  0  0
  146.1895  139.0719  155.0843 H   0  0  0  0  0  0  0  0  0  0  0  0
  147.4501  140.4098  152.8763 H   0  0  0  0  0  0  0  0  0  0  0  0
  145.8354  142.3025  153.3140 H   0  0  0  0  0  0  0  0  0  0  0  0
  147.4787  142.7950  153.5043 H   0  0  0  0  0  0  0  0  0  0  0  0
  146.4992  142.4622  154.9336 H   0  0  0  0  0  0  0  0  0  0  0  0
  148.4617  138.3037  154.4786 H   0  0  0  0  0  0  0  0  0  0  0  0
  149.3907  139.2512  153.3351 H   0  0  0  0  0  0  0  0  0  0  0  0
  150.0452  138.7444  156.2897 H   0  0  0  0  0  0  0  0  0  0  0  0
  150.8782  138.0667  154.9028 H   0  0  0  0  0  0  0  0  0  0  0  0
  150.2562  141.1574  156.6912 H   0  0  0  0  0  0  0  0  0  0  0  0
  151.2314  142.0934  155.5739 H   0  0  0  0  0  0  0  0  0  0  0  0
  149.6144  141.7408  153.7483 H   0  0  0  0  0  0  0  0  0  0  0  0
  148.8232  142.4196  155.1556 H   0  0  0  0  0  0  0  0  0  0  0  0
  1  2  1  0  0  0  0
  1 20  1  0  0  0  0
  1 21  1  0  0  0  0
  1 22  1  0  0  0  0
  2 19  1  0  0  0  0
  2  3  2  0  0  0  0
  3  4  1  0  0  0  0
  4  5  2  0  0  0  0
  5  6  1  0  0  0  0
  5 19  1  0  0  0  0
  6  7  1  0  0  0  0
  6 23  1  0  0  0  0
  7  8  2  0  0  0  0
  7  9  1  0  0  0  0
  9 10  1  0  0  0  0
  9 24  1  0  0  0  0
 10 11  1  0  0  0  0
 10 25  1  0  0  0  0
 10 26  1  0  0  0  0
 11 12  1  0  0  0  0
 11 13  1  0  0  0  0
 11 27  1  0  0  0  0
 12 28  1  0  0  0  0
 12 29  1  0  0  0  0
 12 30  1  0  0  0  0
 13 18  1  0  0  0  0
 13 14  1  0  0  0  0
 14 15  1  0  0  0  0
 14 31  1  0  0  0  0
 14 32  1  0  0  0  0
 15 16  1  0  0  0  0
 15 33  1  0  0  0  0
 15 34  1  0  0  0  0
 16 17  1  0  0  0  0
 17 18  1  0  0  0  0
 17 35  1  0  0  0  0
 17 36  1  0  0  0  0
 18 37  1  0  0  0  0
 18 38  1  0  0  0  0
M  END
> <s_m_source_file>
AV-unprocessed.smi

> <i_m_source_file_index>
2069

> <i_lp_mmshare_version>
43012

> <i_f3d_flags>
0

> <s_epik_input>
W0NIM11jMW5uYyhzMSlbTkhdQyg9TylbTkhdW0NIMl1bQ0BIXShbQ0gzXSlOMltDSDJdW0NIMl1PW0NIMl1bQ0gyXTI=

> <s_epik_cmdline>
J2VwaWtfcHl0aG9uJywgJy1waCcsICc3LjAnLCAnLXRuJywgJzgnLCAnLW1hJywgJzIwMCcsICctbWV0YWxfYmluZGluZycsICctaW1hZScsICc8aW5maWxlLm1hZT4nLCAnLW9tYWUnLCAnPG91dGZpbGUubWFlPic=

> <r_lp_tautomer_probability>
1

> <r_epik_Ionization_Penalty>
0.221104

> <r_epik_Ionization_Penalty_Charging>
0

> <r_epik_Ionization_Penalty_Neutral>
0.221104

> <r_epik_State_Penalty>
0.209349

> <r_epik_Charging_Adjusted_Penalty>
0.209349

> <i_epik_Tot_Q>
0

> <i_epik_Tot_abs_Q>
0

> <r_epik_Metal_State_Penalty>
0.561068

> <b_epik_Metal_Only>
0

> <s_lp_Force_Field>
OPLS_2005

> <r_lp_Energy>
28.2693

> <b_lp_Chiralities_Consistent>
1

> <s_lp_Variant>
AV-unprocessed.smi:2069-2

> <Gold.Version>
5.8.1

> <Gold.Id.Protein>
6NUR|6NUR_protein|mol2

> <Gold.PLP.Fitness>
35.5161

> <Gold.PLP.PLP>
-30.2306

> <Gold.PLP.part.hbond>
-3.0000

> <Gold.PLP.part.metal>
0.0000

> <Gold.PLP.part.buried>
-3.2496

> <Gold.PLP.part.nonpolar>
-25.2834

> <Gold.PLP.part.repulsive>
0.5713

> <Gold.PLP.ligand.clash>
0.0000

> <Gold.PLP.ligand.torsion>
1.3075

> <Gold.PLP.Chemscore.Hbond>
2.6240

> <Gold.PLP.Chemscore.CHOScore>
0.0000

> <Gold.PLP.Chemscore.Metal>
0.0000

> <Gold.Chemscore.Hbonds>
donor molecule, donor type, donor heavy atom, donor atom, acceptor molecule, acceptor atom, score
      L1  H     6    23       P1 10171  0.98
      L1  H     9    24       P1 10175  0.46
      P1  H  7989  7998       L1    16  0.60

> <Gold.PLP.Chemscore.Internal.Correction>
0.0284

> <Gold.Rescore>
     Score         DG    S(hbond)    S(metal)    S(lipo)     H(rot)  DE(clash)    DE(int)     intcor
     14.03     -16.70       2.21        0.00      67.92       1.60       0.15       2.52       ----

> <Gold.Chemscore.Fitness>
14.0271

> <Gold.Chemscore.DG>
-16.6993

> <Gold.Chemscore.ZeroCoef>
-5.4800

> <Gold.Chemscore.Hbond>
2.2075

> <Gold.Chemscore.Metal>
0.0000

> <Gold.Chemscore.Lipo>
67.9173

> <Gold.Chemscore.Internal_Hbond>
0.0000

> <Gold.Chemscore.DEClash>
0.1491

> <Gold.Chemscore.DEInternal>
2.5231

> <Gold.Chemscore.Rot>
1.6016

> <Gold.Chemscore.Internal.Correction>
   9.000000E+99

> <Gold.Chemscore.Hbonds>
donor molecule, donor type, donor heavy atom, donor atom, acceptor molecule, acceptor atom, score
      L1  H     6    23       P1 10171  0.91
      L1  H     9    24       P1 10175  0.46
      P1  H  7989  7998       L1    16  0.04

> <Gold.Chemscore.Hbond.Weighted>
-7.3731

> <Gold.Chemscore.Metal.Weighted>
-0.0000

> <Gold.Chemscore.Lipo.Weighted>
-7.9463

> <Gold.Chemscore.Internal_Hbond.Weighted>
0.0000

> <Gold.Chemscore.DEClash.Weighted>
0.1491

> <Gold.Chemscore.DEInternal.Weighted>
2.5231

> <Gold.Chemscore.Rot.Weighted>
4.1001

> <Gold.Chemscore.Internal.Correction.Weighted>
   9.000000E+99

> <Gold.Protein.RotatedTorsions>
[ 6907 6896 6895 6894 ] final  151.76 input  -60.11 | X-H torsion
[ 7974 7965 7964 7962 ] final   44.66 input  175.53 | X-H torsion
[ 8008 7997 7996 7995 ] final -123.13 input   59.86 | X-H torsion
[ 10167 10162 10161 10158 ] final -138.56 input  -65.29 | X-H torsion
[ 10718 10713 10712 10709 ] final   44.74 input   66.30 | X-H torsion
[ 10763 10752 10751 10750 ] final   99.33 input  -60.55 | X-H torsion
[ 11005 11000 10999 10996 ] final   33.87 input  -57.11 | X-H torsion

> <Gold.Protein.ActiveResidues>
 VAL166  LYS551  ARG553  GLY616  TRP617  ASP618  TYR619  PRO620  LYS621  CYS622 
 ASP623  PHE694  ASN695  SER759  ASP760  ASP761  ALA762  ILE779  LEU786  VAL792 
 PHE793  MET794  SER795  GLU796  ALA797  LYS798  CYS799  TRP800  GLU811  SER814 

> <Gold.Protein.RotatedAtoms>
  152.0962  133.4225  159.4565 H   0  0  0  0  0  0  0  0  0  0  0  0  # atno 6907 bound_to 6896
  150.6863  134.2814  159.4638 H   0  0  0  0  0  0  0  0  0  0  0  0  # atno 6908 bound_to 6896
  152.0670  134.9557  160.0625 H   0  0  0  0  0  0  0  0  0  0  0  0  # atno 6909 bound_to 6896
  146.0548  139.5049  142.9695 H   0  0  0  0  0  0  0  0  0  0  0  0  # atno 7974 bound_to 7965
  155.1754  140.0409  157.2871 H   0  0  0  0  0  0  0  0  0  0  0  0  # atno 8008 bound_to 7997
  154.6240  140.2508  155.7487 H   0  0  0  0  0  0  0  0  0  0  0  0  # atno 8009 bound_to 7997
  156.2449  140.2889  156.0561 H   0  0  0  0  0  0  0  0  0  0  0  0  # atno 8010 bound_to 7997
  139.8466  143.7253  152.2660 H   0  0  0  0  0  0  0  0  0  0  0  0  # atno 10167 bound_to 10162
  157.4301  130.8020  149.7595 H   0  0  0  0  0  0  0  0  0  0  0  0  # atno 10718 bound_to 10713
  153.3000  135.4117  155.1244 H   0  0  0  0  0  0  0  0  0  0  0  0  # atno 10763 bound_to 10752
  154.8546  135.3539  154.5864 H   0  0  0  0  0  0  0  0  0  0  0  0  # atno 10764 bound_to 10752
  153.6289  135.7061  153.5341 H   0  0  0  0  0  0  0  0  0  0  0  0  # atno 10765 bound_to 10752
  140.2587  134.3217  155.7865 H   0  0  0  0  0  0  0  0  0  0  0  0  # atno 11005 bound_to 11000
  145.6662  141.0228  143.1682 LP  0  0  0  0  0  0  0  0  0  0  0  0  # atno 17320 bound_to 7965
  144.7142  139.8257  143.7404 LP  0  0  0  0  0  0  0  0  0  0  0  0  # atno 17321 bound_to 7965
  139.7507  144.7535  151.0511 LP  0  0  0  0  0  0  0  0  0  0  0  0  # atno 17342 bound_to 10162
  140.7792  143.4864  150.9951 LP  0  0  0  0  0  0  0  0  0  0  0  0  # atno 17343 bound_to 10162
  155.9910  130.3940  150.3003 LP  0  0  0  0  0  0  0  0  0  0  0  0  # atno 17370 bound_to 10713
  157.1159  131.0234  151.3029 LP  0  0  0  0  0  0  0  0  0  0  0  0  # atno 17371 bound_to 10713
  141.2193  133.7396  156.9153 LP  0  0  0  0  0  0  0  0  0  0  0  0  # atno 17394 bound_to 11000
  140.1486  134.9245  157.2562 LP  0  0  0  0  0  0  0  0  0  0  0  0  # atno 17395 bound_to 11000

$$$$
