AV-unprocessed.smi:3329|AV-procd|sdf|12800|dock3
  -GOLD-   2272019163D 1   1.00000     0.00000
 Structure written by MMmdl.
 41 42  0  0  0  0  0  0  0  0  3 V2000
  152.7672  143.8594  162.2749 C   0  0  0  0  0  0  0  0  0  0  0  0
  152.5566  143.4915  160.8345 C   0  0  0  0  0  0  0  0  0  0  0  0
  153.2050  142.4630  160.0936 C   0  0  0  0  0  0  0  0  0  0  0  0
  152.7934  142.3956  158.8380 N   0  0  0  0  0  0  0  0  0  0  0  0
  151.8698  143.3737  158.7329 N   0  0  0  0  0  0  0  0  0  0  0  0
  151.1843  143.5850  157.4702 C   0  0  0  0  0  0  0  0  0  0  0  0
  150.8398  142.2596  156.7714 C   0  0  0  0  0  0  0  0  0  0  0  0
  149.5176  142.3335  156.1220 N   0  3  0  0  0  0  0  0  0  0  0  0
  149.4147  141.6134  154.8380 C   0  0  0  0  0  0  0  0  0  0  0  0
  149.4665  140.1082  155.1049 C   0  0  0  0  0  0  0  0  0  0  0  0
  148.5412  139.5718  155.7119 O   0  0  0  0  0  0  0  0  0  0  0  0
  150.6022  139.5522  154.6116 N   0  5  0  0  0  0  0  0  0  0  0  0
  151.4730  138.6717  155.3901 C   0  0  2  0  0  0  0  0  0  0  0  0
  152.7742  138.3973  154.6107 C   0  0  0  0  0  0  0  0  0  0  0  0
  150.7919  137.3965  155.7054 C   0  0  0  0  0  0  0  0  0  0  0  0
  150.2589  136.3987  155.9527 N   0  0  0  0  0  0  0  0  0  0  0  0
  151.8071  139.4183  156.6805 C   0  0  0  0  0  0  0  0  0  0  0  0
  152.2308  138.6984  157.9421 C   0  0  0  0  0  0  0  0  0  0  0  0
  150.8969  139.4078  157.8894 C   0  0  0  0  0  0  0  0  0  0  0  0
  151.7083  144.0528  159.9226 C   0  0  0  0  0  0  0  0  0  0  0  0
  153.7198  144.3676  162.4240 H   0  0  0  0  0  0  0  0  0  0  0  0
  152.7679  142.9794  162.9183 H   0  0  0  0  0  0  0  0  0  0  0  0
  151.9862  144.5250  162.6430 H   0  0  0  0  0  0  0  0  0  0  0  0
  153.9587  141.7664  160.4306 H   0  0  0  0  0  0  0  0  0  0  0  0
  150.2793  144.1658  157.6544 H   0  0  0  0  0  0  0  0  0  0  0  0
  151.8227  144.1936  156.8284 H   0  0  0  0  0  0  0  0  0  0  0  0
  151.5928  142.0266  156.0180 H   0  0  0  0  0  0  0  0  0  0  0  0
  150.8471  141.4428  157.4946 H   0  0  0  0  0  0  0  0  0  0  0  0
  148.8349  141.9197  156.7420 H   0  0  0  0  0  0  0  0  0  0  0  0
  148.4819  141.8796  154.3391 H   0  0  0  0  0  0  0  0  0  0  0  0
  150.2357  141.8952  154.1766 H   0  0  0  0  0  0  0  0  0  0  0  0
  153.4671  137.8053  155.2095 H   0  0  0  0  0  0  0  0  0  0  0  0
  153.2834  139.3237  154.3417 H   0  0  0  0  0  0  0  0  0  0  0  0
  152.5895  137.8409  153.6915 H   0  0  0  0  0  0  0  0  0  0  0  0
  152.3214  140.3619  156.5019 H   0  0  0  0  0  0  0  0  0  0  0  0
  152.2217  137.6104  157.9433 H   0  0  0  0  0  0  0  0  0  0  0  0
  153.0183  139.1553  158.5379 H   0  0  0  0  0  0  0  0  0  0  0  0
  150.8011  140.3368  158.4467 H   0  0  0  0  0  0  0  0  0  0  0  0
  149.9983  138.7958  157.8527 H   0  0  0  0  0  0  0  0  0  0  0  0
  151.0070  144.8681  160.0235 H   0  0  0  0  0  0  0  0  0  0  0  0
  149.2672  143.3000  155.9722 H   0  0  0  0  0  0  0  0  0  0  0  0
  1  2  1  0  0  0  0
  1 21  1  0  0  0  0
  1 22  1  0  0  0  0
  1 23  1  0  0  0  0
  2 20  2  0  0  0  0
  2  3  1  0  0  0  0
  3  4  2  0  0  0  0
  3 24  1  0  0  0  0
  4  5  1  0  0  0  0
  5  6  1  0  0  0  0
  5 20  1  0  0  0  0
  6  7  1  0  0  0  0
  6 25  1  0  0  0  0
  6 26  1  0  0  0  0
  7  8  1  0  0  0  0
  7 27  1  0  0  0  0
  7 28  1  0  0  0  0
  8  9  1  0  0  0  0
  8 29  1  0  0  0  0
  8 41  1  0  0  0  0
  9 10  1  0  0  0  0
  9 30  1  0  0  0  0
  9 31  1  0  0  0  0
 10 11  2  0  0  0  0
 10 12  1  0  0  0  0
 12 13  1  0  0  0  0
 13 14  1  0  0  0  0
 13 15  1  0  0  0  0
 13 17  1  0  0  0  0
 14 32  1  0  0  0  0
 14 33  1  0  0  0  0
 14 34  1  0  0  0  0
 15 16  3  0  0  0  0
 17 19  1  0  0  0  0
 17 18  1  0  0  0  0
 17 35  1  0  0  0  0
 18 19  1  0  0  0  0
 18 36  1  0  0  0  0
 18 37  1  0  0  0  0
 19 38  1  0  0  0  0
 19 39  1  0  0  0  0
 20 40  1  0  0  0  0
M  CHG  1   8   1
M  CHG  1  12  -1
M  END
> <s_m_source_file>
AV-unprocessed.smi

> <i_m_source_file_index>
3329

> <i_lp_mmshare_version>
43012

> <i_f3d_flags>
0

> <s_epik_input>
W0NIM11jMVtjSF1ubihbY0hdMSlbQ0gyXVtDSDJdW05IXVtDSDJdQyg9TylbTkhdW0NAQF0oW0NIM10pKEMjTilbQ0hdMltDSDJdW0NIMl0y

> <s_epik_cmdline>
J2VwaWtfcHl0aG9uJywgJy1waCcsICc3LjAnLCAnLXRuJywgJzgnLCAnLW1hJywgJzIwMCcsICctbWV0YWxfYmluZGluZycsICctaW1hZScsICc8aW5maWxlLm1hZT4nLCAnLW9tYWUnLCAnPG91dGZpbGUubWFlPic=

> <r_lp_tautomer_probability>
1

> <r_epik_Ionization_Penalty>
5.61187

> <r_epik_Ionization_Penalty_Charging>
5.61186

> <r_epik_Ionization_Penalty_Neutral>
4.91277e-06

> <r_epik_State_Penalty>
5.94522

> <r_epik_Charging_Adjusted_Penalty>
11.5571

> <i_epik_Tot_Q>
0

> <i_epik_Tot_abs_Q>
2

> <r_epik_Metal_State_Penalty>
1.9215

> <b_epik_Metal_Only>
1

> <s_lp_Force_Field>
OPLS_2005

> <r_lp_Energy>
5.18635

> <b_lp_Chiralities_Consistent>
1

> <s_lp_Variant>
AV-unprocessed.smi:3329-6

> <Gold.Version>
5.8.1

> <Gold.Id.Protein>
6NUR|6NUR_protein|mol2

> <Gold.PLP.Fitness>
48.5258

> <Gold.PLP.PLP>
-42.1182

> <Gold.PLP.part.hbond>
-2.0000

> <Gold.PLP.part.metal>
0.0000

> <Gold.PLP.part.buried>
-4.7109

> <Gold.PLP.part.nonpolar>
-35.6628

> <Gold.PLP.part.repulsive>
0.3449

> <Gold.PLP.ligand.clash>
0.0000

> <Gold.PLP.ligand.torsion>
2.1519

> <Gold.PLP.Chemscore.Hbond>
3.0000

> <Gold.PLP.Chemscore.CHOScore>
0.0000

> <Gold.PLP.Chemscore.Metal>
0.0000

> <Gold.Chemscore.Hbonds>
donor molecule, donor type, donor heavy atom, donor atom, acceptor molecule, acceptor atom, score
      L1  H     8    41       P1  8028  1.85
      P1  H  7989  7998       L1    12  1.00

> <Gold.PLP.Chemscore.Internal.Correction>
1.7113

> <Gold.Rescore>
     Score         DG    S(hbond)    S(metal)    S(lipo)     H(rot)  DE(clash)    DE(int)     intcor
     15.26     -17.81       1.75        0.00     106.19       2.31       0.22       2.33       ----

> <Gold.Chemscore.Fitness>
15.2559

> <Gold.Chemscore.DG>
-17.8140

> <Gold.Chemscore.ZeroCoef>
-5.4800

> <Gold.Chemscore.Hbond>
1.7467

> <Gold.Chemscore.Metal>
0.0000

> <Gold.Chemscore.Lipo>
106.1853

> <Gold.Chemscore.Internal_Hbond>
0.0000

> <Gold.Chemscore.DEClash>
0.2235

> <Gold.Chemscore.DEInternal>
2.3346

> <Gold.Chemscore.Rot>
2.3140

> <Gold.Chemscore.Internal.Correction>
   9.000000E+99

> <Gold.Chemscore.Hbonds>
donor molecule, donor type, donor heavy atom, donor atom, acceptor molecule, acceptor atom, score
      L1  H     8    41       P1  8028  0.89
      P1  H  7989  7998       L1    12  0.64

> <Gold.Chemscore.Hbond.Weighted>
-5.8341

> <Gold.Chemscore.Metal.Weighted>
-0.0000

> <Gold.Chemscore.Lipo.Weighted>
-12.4237

> <Gold.Chemscore.Internal_Hbond.Weighted>
0.0000

> <Gold.Chemscore.DEClash.Weighted>
0.2235

> <Gold.Chemscore.DEInternal.Weighted>
2.3346

> <Gold.Chemscore.Rot.Weighted>
5.9238

> <Gold.Chemscore.Internal.Correction.Weighted>
   9.000000E+99

> <Gold.Protein.RotatedTorsions>
[ 6907 6896 6895 6894 ] final  -29.03 input  -60.11 | X-H torsion
[ 7974 7965 7964 7962 ] final  102.50 input  175.53 | X-H torsion
[ 8008 7997 7996 7995 ] final  149.17 input   59.86 | X-H torsion
[ 10167 10162 10161 10158 ] final -155.86 input  -65.29 | X-H torsion
[ 10718 10713 10712 10709 ] final  -58.03 input   66.30 | X-H torsion
[ 10763 10752 10751 10750 ] final   24.85 input  -60.55 | X-H torsion
[ 11005 11000 10999 10996 ] final  -98.15 input  -57.11 | X-H torsion

> <Gold.Protein.ActiveResidues>
 VAL166  LYS551  ARG553  GLY616  TRP617  ASP618  TYR619  PRO620  LYS621  CYS622 
 ASP623  PHE694  ASN695  SER759  ASP760  ASP761  ALA762  ILE779  LEU786  VAL792 
 PHE793  MET794  SER795  GLU796  ALA797  LYS798  CYS799  TRP800  GLU811  SER814 

> <Gold.Protein.RotatedAtoms>
  151.1248  135.0099  159.8554 H   0  0  0  0  0  0  0  0  0  0  0  0  # atno 6907 bound_to 6896
  152.5449  134.1680  159.8595 H   0  0  0  0  0  0  0  0  0  0  0  0  # atno 6908 bound_to 6896
  151.1741  133.4721  159.2627 H   0  0  0  0  0  0  0  0  0  0  0  0  # atno 6909 bound_to 6896
  145.3583  139.2423  143.3520 H   0  0  0  0  0  0  0  0  0  0  0  0  # atno 7974 bound_to 7965
  156.2765  140.2109  156.5815 H   0  0  0  0  0  0  0  0  0  0  0  0  # atno 8008 bound_to 7997
  154.7055  140.0517  157.0523 H   0  0  0  0  0  0  0  0  0  0  0  0  # atno 8009 bound_to 7997
  155.0676  140.3173  155.4643 H   0  0  0  0  0  0  0  0  0  0  0  0  # atno 8010 bound_to 7997
  139.6897  143.9441  152.2379 H   0  0  0  0  0  0  0  0  0  0  0  0  # atno 10167 bound_to 10162
  156.1166  130.4170  150.0521 H   0  0  0  0  0  0  0  0  0  0  0  0  # atno 10718 bound_to 10713
  153.0734  135.6596  154.0198 H   0  0  0  0  0  0  0  0  0  0  0  0  # atno 10763 bound_to 10752
  153.9838  135.2952  155.3419 H   0  0  0  0  0  0  0  0  0  0  0  0  # atno 10764 bound_to 10752
  154.7115  135.5203  153.8744 H   0  0  0  0  0  0  0  0  0  0  0  0  # atno 10765 bound_to 10752
  141.1354  133.8224  157.0802 H   0  0  0  0  0  0  0  0  0  0  0  0  # atno 11005 bound_to 11000
  146.2938  140.4212  142.8729 LP  0  0  0  0  0  0  0  0  0  0  0  0  # atno 17320 bound_to 7965
  144.8665  140.7214  143.6074 LP  0  0  0  0  0  0  0  0  0  0  0  0  # atno 17321 bound_to 7965
  139.9254  144.6774  150.8418 LP  0  0  0  0  0  0  0  0  0  0  0  0  # atno 17342 bound_to 10162
  140.7679  143.3345  151.2337 LP  0  0  0  0  0  0  0  0  0  0  0  0  # atno 17343 bound_to 10162
  156.8470  130.9446  151.3628 LP  0  0  0  0  0  0  0  0  0  0  0  0  # atno 17370 bound_to 10713
  157.6349  130.8759  149.9341 LP  0  0  0  0  0  0  0  0  0  0  0  0  # atno 17371 bound_to 10713
  140.0456  134.9832  157.1043 LP  0  0  0  0  0  0  0  0  0  0  0  0  # atno 17394 bound_to 11000
  140.4067  134.2024  155.7163 LP  0  0  0  0  0  0  0  0  0  0  0  0  # atno 17395 bound_to 11000

$$$$
