AV-unprocessed.smi:148|AV-procd|sdf|1217|dock5
  -GOLD-   2262018403D 1   1.00000     0.00000
 Structure written by MMmdl.
 63 67  0  0  0  0  0  0  0  0  1 V2000
  147.2701  134.8556  153.8386 O   0  0  0  0  0  0  0  0  0  0  0  0
  148.0914  134.9825  154.9804 C   0  0  0  0  0  0  0  0  0  0  0  0
  149.3314  134.0588  154.9083 C   0  0  1  0  0  0  0  0  0  0  0  0
  150.2921  134.3398  156.0950 C   0  0  0  0  0  0  0  0  0  0  0  0
  150.3269  135.7326  156.5221 N   0  0  0  0  0  0  0  0  0  0  0  0
  149.7689  136.2545  157.6692 C   0  0  0  0  0  0  0  0  0  0  0  0
  149.9349  137.5373  157.8404 N   0  0  0  0  0  0  0  0  0  0  0  0
  150.6437  137.9346  156.7154 C   0  0  0  0  0  0  0  0  0  0  0  0
  151.1436  139.1814  156.2576 C   0  0  0  0  0  0  0  0  0  0  0  0
  150.9908  140.3186  156.9759 N   0  0  0  0  0  0  0  0  0  0  0  0
  152.2515  140.6411  157.6443 C   0  0  0  0  0  0  0  0  0  0  0  0
  152.0792  141.7865  158.6481 C   0  0  0  0  0  0  0  0  0  0  0  0
  151.4851  143.0116  157.9487 C   0  0  0  0  0  0  0  0  0  0  0  0
  150.1540  142.6380  157.2840 C   0  0  0  0  0  0  0  0  0  0  0  0
  150.3014  141.4397  156.3082 C   0  0  2  0  0  0  0  0  0  0  0  0
  148.9458  141.0068  155.6642 C   0  0  1  0  0  0  0  0  0  0  0  0
  147.6725  141.4147  156.4305 C   0  0  0  0  0  0  0  0  0  0  0  0
  146.5587  141.5506  155.3791 C   0  0  0  0  0  0  0  0  0  0  0  0
  147.1969  141.2105  154.0281 C   0  0  0  0  0  0  0  0  0  0  0  0
  148.6869  141.4855  154.2280 C   0  0  2  0  0  0  0  0  0  0  0  0
  149.4711  140.7893  153.2817 O   0  0  0  0  0  0  0  0  0  0  0  0
  151.8136  139.2041  155.0750 N   0  0  0  0  0  0  0  0  0  0  0  0
  151.9669  138.0758  154.3756 C   0  0  0  0  0  0  0  0  0  0  0  0
  151.5477  136.8444  154.6756 N   0  0  0  0  0  0  0  0  0  0  0  0
  150.8897  136.8175  155.8698 C   0  0  0  0  0  0  0  0  0  0  0  0
  148.9556  132.5543  154.8082 C   0  0  2  0  0  0  0  0  0  0  0  0
  147.8765  132.1101  155.7830 C   0  0  0  0  0  0  0  0  0  0  0  0
  148.0244  130.5923  155.7682 C   0  0  0  0  0  0  0  0  0  0  0  0
  149.4001  130.3417  155.5034 O   0  0  0  0  0  0  0  0  0  0  0  0
  150.0602  131.5618  155.1851 C   0  0  0  0  0  0  0  0  0  0  0  0
  147.8038  134.9775  153.0681 H   0  0  0  0  0  0  0  0  0  0  0  0
  148.4001  136.0270  155.0257 H   0  0  0  0  0  0  0  0  0  0  0  0
  147.5039  134.7828  155.8772 H   0  0  0  0  0  0  0  0  0  0  0  0
  149.8816  134.3250  154.0042 H   0  0  0  0  0  0  0  0  0  0  0  0
  150.0415  133.7182  156.9545 H   0  0  0  0  0  0  0  0  0  0  0  0
  151.3068  134.0535  155.8160 H   0  0  0  0  0  0  0  0  0  0  0  0
  149.2354  135.6479  158.3864 H   0  0  0  0  0  0  0  0  0  0  0  0
  152.6354  139.7614  158.1639 H   0  0  0  0  0  0  0  0  0  0  0  0
  152.9960  140.9173  156.8959 H   0  0  0  0  0  0  0  0  0  0  0  0
  151.4257  141.4698  159.4621 H   0  0  0  0  0  0  0  0  0  0  0  0
  153.0402  142.0379  159.0969 H   0  0  0  0  0  0  0  0  0  0  0  0
  151.3342  143.8189  158.6659 H   0  0  0  0  0  0  0  0  0  0  0  0
  152.1827  143.3850  157.1979 H   0  0  0  0  0  0  0  0  0  0  0  0
  149.4292  142.4112  158.0648 H   0  0  0  0  0  0  0  0  0  0  0  0
  149.7801  143.5168  156.7608 H   0  0  0  0  0  0  0  0  0  0  0  0
  150.9534  141.7732  155.4994 H   0  0  0  0  0  0  0  0  0  0  0  0
  148.9258  139.9173  155.6090 H   0  0  0  0  0  0  0  0  0  0  0  0
  147.4177  140.6714  157.1865 H   0  0  0  0  0  0  0  0  0  0  0  0
  147.7957  142.3634  156.9504 H   0  0  0  0  0  0  0  0  0  0  0  0
  145.7116  140.8988  155.5952 H   0  0  0  0  0  0  0  0  0  0  0  0
  146.1866  142.5759  155.3688 H   0  0  0  0  0  0  0  0  0  0  0  0
  147.0378  140.1528  153.8119 H   0  0  0  0  0  0  0  0  0  0  0  0
  146.7698  141.7839  153.2047 H   0  0  0  0  0  0  0  0  0  0  0  0
  148.8571  142.5563  154.1246 H   0  0  0  0  0  0  0  0  0  0  0  0
  148.9600  140.0735  152.9362 H   0  0  0  0  0  0  0  0  0  0  0  0
  152.5028  138.1725  153.4429 H   0  0  0  0  0  0  0  0  0  0  0  0
  148.6315  132.3232  153.7926 H   0  0  0  0  0  0  0  0  0  0  0  0
  148.0879  132.4934  156.7824 H   0  0  0  0  0  0  0  0  0  0  0  0
  146.8722  132.4288  155.5087 H   0  0  0  0  0  0  0  0  0  0  0  0
  147.7081  130.1349  156.7058 H   0  0  0  0  0  0  0  0  0  0  0  0
  147.4313  130.1594  154.9618 H   0  0  0  0  0  0  0  0  0  0  0  0
  150.7842  131.4136  154.3837 H   0  0  0  0  0  0  0  0  0  0  0  0
  150.5977  131.8992  156.0726 H   0  0  0  0  0  0  0  0  0  0  0  0
  1  2  1  0  0  0  0
  1 31  1  0  0  0  0
  2  3  1  0  0  0  0
  2 32  1  0  0  0  0
  2 33  1  0  0  0  0
  3  4  1  0  0  0  0
  3 26  1  0  0  0  0
  3 34  1  0  0  0  0
  4  5  1  0  0  0  0
  4 35  1  0  0  0  0
  4 36  1  0  0  0  0
  5 25  1  0  0  0  0
  5  6  1  0  0  0  0
  6  7  2  0  0  0  0
  6 37  1  0  0  0  0
  7  8  1  0  0  0  0
  8 25  2  0  0  0  0
  8  9  1  0  0  0  0
  9 10  1  0  0  0  0
  9 22  2  0  0  0  0
 10 15  1  0  0  0  0
 10 11  1  0  0  0  0
 11 12  1  0  0  0  0
 11 38  1  0  0  0  0
 11 39  1  0  0  0  0
 12 13  1  0  0  0  0
 12 40  1  0  0  0  0
 12 41  1  0  0  0  0
 13 14  1  0  0  0  0
 13 42  1  0  0  0  0
 13 43  1  0  0  0  0
 14 15  1  0  0  0  0
 14 44  1  0  0  0  0
 14 45  1  0  0  0  0
 15 16  1  0  0  0  0
 15 46  1  0  0  0  0
 16 20  1  0  0  0  0
 16 17  1  0  0  0  0
 16 47  1  0  0  0  0
 17 18  1  0  0  0  0
 17 48  1  0  0  0  0
 17 49  1  0  0  0  0
 18 19  1  0  0  0  0
 18 50  1  0  0  0  0
 18 51  1  0  0  0  0
 19 20  1  0  0  0  0
 19 52  1  0  0  0  0
 19 53  1  0  0  0  0
 20 21  1  0  0  0  0
 20 54  1  0  0  0  0
 21 55  1  0  0  0  0
 22 23  1  0  0  0  0
 23 24  2  0  0  0  0
 23 56  1  0  0  0  0
 24 25  1  0  0  0  0
 26 30  1  0  0  0  0
 26 27  1  0  0  0  0
 26 57  1  0  0  0  0
 27 28  1  0  0  0  0
 27 58  1  0  0  0  0
 27 59  1  0  0  0  0
 28 29  1  0  0  0  0
 28 60  1  0  0  0  0
 28 61  1  0  0  0  0
 29 30  1  0  0  0  0
 30 62  1  0  0  0  0
 30 63  1  0  0  0  0
M  END
> <s_m_source_file>
AV-unprocessed.smi

> <i_m_source_file_index>
148

> <i_lp_mmshare_version>
43012

> <i_f3d_flags>
0

> <s_epik_input>
W0NIMl0xT1tDSDJdW0NIMl1bQ0BIXTFbQ0BIXShbQ0gyXVtPSF0pW0NIMl1uKFtjSF1uMiljKGMyMyluW2NIXW5jM040W0NIMl1bQ0gyXVtDSDJdW0NIMl1bQ0BIXTRbQ0BASF01W0NIMl1bQ0gyXVtDSDJdW0NASF01W09IXQ==

> <s_epik_cmdline>
J2VwaWtfcHl0aG9uJywgJy1waCcsICc3LjAnLCAnLXRuJywgJzgnLCAnLW1hJywgJzIwMCcsICctbWV0YWxfYmluZGluZycsICctaW1hZScsICc8aW5maWxlLm1hZT4nLCAnLW9tYWUnLCAnPG91dGZpbGUubWFlPic=

> <r_lp_tautomer_probability>
1

> <r_epik_Ionization_Penalty>
0.00556303

> <r_epik_Ionization_Penalty_Charging>
0

> <r_epik_Ionization_Penalty_Neutral>
0.00556303

> <r_epik_State_Penalty>
0.00401767

> <r_epik_Charging_Adjusted_Penalty>
0.00401767

> <i_epik_Tot_Q>
0

> <i_epik_Tot_abs_Q>
0

> <r_epik_Metal_State_Penalty>
-0

> <b_epik_Metal_Only>
0

> <s_lp_Force_Field>
OPLS_2005

> <r_lp_Energy>
67.8341

> <b_lp_Chiralities_Consistent>
1

> <s_lp_Variant>
AV-unprocessed.smi:148-16

> <Gold.Version>
5.8.1

> <Gold.Id.Protein>
6NUR|6NUR_protein|mol2

> <Gold.PLP.Fitness>
49.0281

> <Gold.PLP.PLP>
-41.3450

> <Gold.PLP.part.hbond>
-5.6585

> <Gold.PLP.part.metal>
0.0000

> <Gold.PLP.part.buried>
-3.8169

> <Gold.PLP.part.nonpolar>
-30.6922

> <Gold.PLP.part.repulsive>
0.1705

> <Gold.PLP.ligand.clash>
0.0000

> <Gold.PLP.ligand.torsion>
2.1717

> <Gold.PLP.Chemscore.Hbond>
3.8488

> <Gold.PLP.Chemscore.CHOScore>
0.0000

> <Gold.PLP.Chemscore.Metal>
0.0000

> <Gold.Chemscore.Hbonds>
donor molecule, donor type, donor heavy atom, donor atom, acceptor molecule, acceptor atom, score
      L1  H     1    31       P1  7948  0.93
      P1  H  7989  7998       L1    22  0.36
      P1  H  8011  8017       L1    21  0.55
      P1  H 10752 10765       L1    24  1.00

> <Gold.PLP.Chemscore.Internal.Correction>
0.4803

> <Gold.Rescore>
     Score         DG    S(hbond)    S(metal)    S(lipo)     H(rot)  DE(clash)    DE(int)     intcor
     15.19     -17.24       2.71        0.00      95.69       3.32       0.19       1.85       ----

> <Gold.Chemscore.Fitness>
15.1916

> <Gold.Chemscore.DG>
-17.2372

> <Gold.Chemscore.ZeroCoef>
-5.4800

> <Gold.Chemscore.Hbond>
2.7129

> <Gold.Chemscore.Metal>
0.0000

> <Gold.Chemscore.Lipo>
95.6938

> <Gold.Chemscore.Internal_Hbond>
0.0000

> <Gold.Chemscore.DEClash>
0.1916

> <Gold.Chemscore.DEInternal>
1.8540

> <Gold.Chemscore.Rot>
3.3203

> <Gold.Chemscore.Internal.Correction>
   9.000000E+99

> <Gold.Chemscore.Hbonds>
donor molecule, donor type, donor heavy atom, donor atom, acceptor molecule, acceptor atom, score
      L1  H     1    31       P1  7948  0.84
      L1  H    21    55       P1  7957  0.06
      P1  H  7989  7998       L1    21  0.19
      P1  H  8011  8017       L1    21  0.03
      P1  H 10752 10765       L1    24  0.68

> <Gold.Chemscore.Hbond.Weighted>
-9.0610

> <Gold.Chemscore.Metal.Weighted>
-0.0000

> <Gold.Chemscore.Lipo.Weighted>
-11.1962

> <Gold.Chemscore.Internal_Hbond.Weighted>
0.0000

> <Gold.Chemscore.DEClash.Weighted>
0.1916

> <Gold.Chemscore.DEInternal.Weighted>
1.8540

> <Gold.Chemscore.Rot.Weighted>
8.5000

> <Gold.Chemscore.Internal.Correction.Weighted>
   9.000000E+99

> <Gold.Protein.RotatedTorsions>
[ 6907 6896 6895 6894 ] final   97.24 input  -60.11 | X-H torsion
[ 7974 7965 7964 7962 ] final   10.71 input  175.53 | X-H torsion
[ 8008 7997 7996 7995 ] final    8.62 input   59.86 | X-H torsion
[ 10167 10162 10161 10158 ] final   59.00 input  -65.29 | X-H torsion
[ 10718 10713 10712 10709 ] final   42.57 input   66.30 | X-H torsion
[ 10763 10752 10751 10750 ] final  167.78 input  -60.55 | X-H torsion
[ 11005 11000 10999 10996 ] final   67.90 input  -57.11 | X-H torsion

> <Gold.Protein.ActiveResidues>
 VAL166  LYS551  ARG553  GLY616  TRP617  ASP618  TYR619  PRO620  LYS621  CYS622 
 ASP623  PHE694  ASN695  SER759  ASP760  ASP761  ALA762  ILE779  LEU786  VAL792 
 PHE793  MET794  SER795  GLU796  ALA797  LYS798  CYS799  TRP800  GLU811  SER814 

> <Gold.Protein.RotatedAtoms>
  152.5426  134.0763  159.8215 H   0  0  0  0  0  0  0  0  0  0  0  0  # atno 6907 bound_to 6896
  151.0871  133.5337  159.2624 H   0  0  0  0  0  0  0  0  0  0  0  0  # atno 6908 bound_to 6896
  151.2143  135.0502  159.8978 H   0  0  0  0  0  0  0  0  0  0  0  0  # atno 6909 bound_to 6896
  146.2384  139.9593  142.8460 H   0  0  0  0  0  0  0  0  0  0  0  0  # atno 7974 bound_to 7965
  154.7693  140.2799  155.6151 H   0  0  0  0  0  0  0  0  0  0  0  0  # atno 8008 bound_to 7997
  156.2930  140.2644  156.2419 H   0  0  0  0  0  0  0  0  0  0  0  0  # atno 8009 bound_to 7997
  154.9920  140.0373  157.2313 H   0  0  0  0  0  0  0  0  0  0  0  0  # atno 8010 bound_to 7997
  140.1812  144.4180  150.6614 H   0  0  0  0  0  0  0  0  0  0  0  0  # atno 10167 bound_to 10162
  157.4062  130.7888  149.7391 H   0  0  0  0  0  0  0  0  0  0  0  0  # atno 10718 bound_to 10713
  154.3589  135.2753  155.2331 H   0  0  0  0  0  0  0  0  0  0  0  0  # atno 10763 bound_to 10752
  154.4528  135.5926  153.6206 H   0  0  0  0  0  0  0  0  0  0  0  0  # atno 10764 bound_to 10752
  152.9845  135.6046  154.3807 H   0  0  0  0  0  0  0  0  0  0  0  0  # atno 10765 bound_to 10752
  139.9743  134.6848  156.0385 H   0  0  0  0  0  0  0  0  0  0  0  0  # atno 11005 bound_to 11000
  145.1786  140.9756  143.4279 LP  0  0  0  0  0  0  0  0  0  0  0  0  # atno 17320 bound_to 7965
  144.9963  139.3641  143.6190 LP  0  0  0  0  0  0  0  0  0  0  0  0  # atno 17321 bound_to 7965
  140.6518  143.2227  151.6059 LP  0  0  0  0  0  0  0  0  0  0  0  0  # atno 17342 bound_to 10162
  139.5295  144.2957  152.1115 LP  0  0  0  0  0  0  0  0  0  0  0  0  # atno 17343 bound_to 10162
  155.9837  130.3998  150.3348 LP  0  0  0  0  0  0  0  0  0  0  0  0  # atno 17370 bound_to 10713
  157.1481  131.0314  151.2897 LP  0  0  0  0  0  0  0  0  0  0  0  0  # atno 17371 bound_to 10713
  141.1421  133.6563  156.3760 LP  0  0  0  0  0  0  0  0  0  0  0  0  # atno 17394 bound_to 11000
  140.5228  134.6288  157.5324 LP  0  0  0  0  0  0  0  0  0  0  0  0  # atno 17395 bound_to 11000

$$$$
