AV-unprocessed.smi:2651|AV-procd|sdf|10292|dock6
  -GOLD-   2272014303D 1   1.00000     0.00000
 Structure written by MMmdl.
 43 44  0  0  0  0  0  0  0  0  1 V2000
  150.1668  142.0239  155.7754 C   0  0  0  0  0  0  0  0  0  0  0  0
  149.9576  140.7038  155.1165 C   0  0  0  0  0  0  0  0  0  0  0  0
  148.8367  140.0250  154.7291 C   0  0  0  0  0  0  0  0  0  0  0  0
  149.3635  138.8285  154.1743 C   0  0  0  0  0  0  0  0  0  0  0  0
  148.5034  137.8299  153.6516 N   0  0  0  0  0  0  0  0  0  0  0  0
  147.2315  137.5765  154.0025 C   0  0  0  0  0  0  0  0  0  0  0  0
  146.6044  138.1842  154.8699 O   0  0  0  0  0  0  0  0  0  0  0  0
  146.7271  136.5680  153.2718 N   0  0  0  0  0  0  0  0  0  0  0  0
  145.3784  135.9817  153.3063 C   0  0  1  0  0  0  0  0  0  0  0  0
  145.1399  135.2918  154.6737 C   0  0  0  0  0  0  0  0  0  0  0  0
  144.3226  137.1131  153.1334 C   0  0  0  0  0  0  0  0  0  0  0  0
  144.4978  137.8314  151.9284 O   0  0  0  0  0  0  0  0  0  0  0  0
  145.2987  134.9318  152.1407 C   0  0  0  0  0  0  0  0  0  0  0  0
  143.9429  134.1761  152.0789 C   0  0  0  0  0  0  0  0  0  0  0  0
  143.8771  133.1886  150.9027 C   0  0  0  0  0  0  0  0  0  0  0  0
  145.0304  132.1795  150.9573 C   0  0  0  0  0  0  0  0  0  0  0  0
  146.3808  132.9051  150.9914 C   0  0  0  0  0  0  0  0  0  0  0  0
  146.4544  133.8939  152.1657 C   0  0  0  0  0  0  0  0  0  0  0  0
  150.6863  138.7836  154.2134 N   0  0  0  0  0  0  0  0  0  0  0  0
  151.0738  139.9852  154.8177 O   0  0  0  0  0  0  0  0  0  0  0  0
  149.2282  142.4173  156.1662 H   0  0  0  0  0  0  0  0  0  0  0  0
  150.5695  142.7488  155.0680 H   0  0  0  0  0  0  0  0  0  0  0  0
  150.8672  141.9355  156.6064 H   0  0  0  0  0  0  0  0  0  0  0  0
  147.8075  140.3351  154.8314 H   0  0  0  0  0  0  0  0  0  0  0  0
  148.8939  137.2565  152.9188 H   0  0  0  0  0  0  0  0  0  0  0  0
  147.3501  136.1531  152.5944 H   0  0  0  0  0  0  0  0  0  0  0  0
  144.2349  134.6837  154.6566 H   0  0  0  0  0  0  0  0  0  0  0  0
  145.0173  136.0161  155.4793 H   0  0  0  0  0  0  0  0  0  0  0  0
  145.9688  134.6448  154.9598 H   0  0  0  0  0  0  0  0  0  0  0  0
  143.3100  136.7092  153.1268 H   0  0  0  0  0  0  0  0  0  0  0  0
  144.3559  137.8173  153.9648 H   0  0  0  0  0  0  0  0  0  0  0  0
  144.4469  138.7554  152.1200 H   0  0  0  0  0  0  0  0  0  0  0  0
  145.3848  135.4785  151.2006 H   0  0  0  0  0  0  0  0  0  0  0  0
  143.7684  133.6325  153.0077 H   0  0  0  0  0  0  0  0  0  0  0  0
  143.1151  134.8756  151.9725 H   0  0  0  0  0  0  0  0  0  0  0  0
  142.9228  132.6613  150.9141 H   0  0  0  0  0  0  0  0  0  0  0  0
  143.9147  133.7378  149.9610 H   0  0  0  0  0  0  0  0  0  0  0  0
  144.9276  131.5507  151.8429 H   0  0  0  0  0  0  0  0  0  0  0  0
  144.9855  131.5133  150.0953 H   0  0  0  0  0  0  0  0  0  0  0  0
  147.1898  132.1781  151.0682 H   0  0  0  0  0  0  0  0  0  0  0  0
  146.5341  133.4393  150.0529 H   0  0  0  0  0  0  0  0  0  0  0  0
  147.4219  134.3917  152.1210 H   0  0  0  0  0  0  0  0  0  0  0  0
  146.4394  133.3346  153.1016 H   0  0  0  0  0  0  0  0  0  0  0  0
  1  2  1  0  0  0  0
  1 21  1  0  0  0  0
  1 22  1  0  0  0  0
  1 23  1  0  0  0  0
  2 20  1  0  0  0  0
  2  3  2  0  0  0  0
  3  4  1  0  0  0  0
  3 24  1  0  0  0  0
  4  5  1  0  0  0  0
  4 19  2  0  0  0  0
  5  6  1  0  0  0  0
  5 25  1  0  0  0  0
  6  7  2  0  0  0  0
  6  8  1  0  0  0  0
  8  9  1  0  0  0  0
  8 26  1  0  0  0  0
  9 10  1  0  0  0  0
  9 11  1  0  0  0  0
  9 13  1  0  0  0  0
 10 27  1  0  0  0  0
 10 28  1  0  0  0  0
 10 29  1  0  0  0  0
 11 12  1  0  0  0  0
 11 30  1  0  0  0  0
 11 31  1  0  0  0  0
 12 32  1  0  0  0  0
 13 18  1  0  0  0  0
 13 14  1  0  0  0  0
 13 33  1  0  0  0  0
 14 15  1  0  0  0  0
 14 34  1  0  0  0  0
 14 35  1  0  0  0  0
 15 16  1  0  0  0  0
 15 36  1  0  0  0  0
 15 37  1  0  0  0  0
 16 17  1  0  0  0  0
 16 38  1  0  0  0  0
 16 39  1  0  0  0  0
 17 18  1  0  0  0  0
 17 40  1  0  0  0  0
 17 41  1  0  0  0  0
 18 42  1  0  0  0  0
 18 43  1  0  0  0  0
 19 20  1  0  0  0  0
M  END
> <s_m_source_file>
AV-unprocessed.smi

> <i_m_source_file_index>
2651

> <i_lp_mmshare_version>
43012

> <i_f3d_flags>
0

> <s_epik_input>
W0NIM11jMVtjSF1jKG5vMSlbTkhdQyg9TylbTkhdW0NAQF0oW0NIM10pKFtDSDJdW09IXSlbQ0hdMltDSDJdW0NIMl1bQ0gyXVtDSDJdW0NIMl0y

> <s_epik_cmdline>
J2VwaWtfcHl0aG9uJywgJy1waCcsICc3LjAnLCAnLXRuJywgJzgnLCAnLW1hJywgJzIwMCcsICctbWV0YWxfYmluZGluZycsICctaW1hZScsICc8aW5maWxlLm1hZT4nLCAnLW9tYWUnLCAnPG91dGZpbGUubWFlPic=

> <r_lp_tautomer_probability>
1

> <r_epik_Ionization_Penalty>
2.26451e-05

> <r_epik_Ionization_Penalty_Charging>
0

> <r_epik_Ionization_Penalty_Neutral>
2.26451e-05

> <r_epik_State_Penalty>
-0

> <r_epik_Charging_Adjusted_Penalty>
0

> <i_epik_Tot_Q>
0

> <i_epik_Tot_abs_Q>
0

> <r_epik_Metal_State_Penalty>
-0

> <b_epik_Metal_Only>
0

> <s_lp_Force_Field>
OPLS_2005

> <r_lp_Energy>
17.1045

> <b_lp_Chiralities_Consistent>
1

> <s_lp_Variant>
AV-unprocessed.smi:2651-1

> <Gold.Version>
5.8.1

> <Gold.Id.Protein>
6NUR|6NUR_protein|mol2

> <Gold.PLP.Fitness>
39.8533

> <Gold.PLP.PLP>
-29.0988

> <Gold.PLP.part.hbond>
-4.6271

> <Gold.PLP.part.metal>
0.0000

> <Gold.PLP.part.buried>
-4.9659

> <Gold.PLP.part.nonpolar>
-20.8406

> <Gold.PLP.part.repulsive>
0.3248

> <Gold.PLP.ligand.clash>
0.0000

> <Gold.PLP.ligand.torsion>
0.2532

> <Gold.PLP.Chemscore.Hbond>
3.7405

> <Gold.PLP.Chemscore.CHOScore>
0.0000

> <Gold.PLP.Chemscore.Metal>
0.0000

> <Gold.Chemscore.Hbonds>
donor molecule, donor type, donor heavy atom, donor atom, acceptor molecule, acceptor atom, score
      L1  H     5    25       P1  7948  0.81
      L1  H     8    26       P1  7948  0.93
      L1  H    12    32       P1 10175  1.00
      P1  H  7989  7998       L1    20  1.00

> <Gold.PLP.Chemscore.Internal.Correction>
0.0396

> <Gold.Rescore>
     Score         DG    S(hbond)    S(metal)    S(lipo)     H(rot)  DE(clash)    DE(int)     intcor
     16.45     -17.65       2.96        0.00      65.32       2.09       0.01       1.19       ----

> <Gold.Chemscore.Fitness>
16.4492

> <Gold.Chemscore.DG>
-17.6534

> <Gold.Chemscore.ZeroCoef>
-5.4800

> <Gold.Chemscore.Hbond>
2.9611

> <Gold.Chemscore.Metal>
0.0000

> <Gold.Chemscore.Lipo>
65.3227

> <Gold.Chemscore.Internal_Hbond>
0.0000

> <Gold.Chemscore.DEClash>
0.0132

> <Gold.Chemscore.DEInternal>
1.1910

> <Gold.Chemscore.Rot>
2.0935

> <Gold.Chemscore.Internal.Correction>
   9.000000E+99

> <Gold.Chemscore.Hbonds>
donor molecule, donor type, donor heavy atom, donor atom, acceptor molecule, acceptor atom, score
      L1  H     5    25       P1  7948  0.80
      L1  H     8    26       P1  7948  0.90
      L1  H    12    32       P1 10175  0.99
      P1  H  7989  7998       L1    20  0.09

> <Gold.Chemscore.Hbond.Weighted>
-9.8900

> <Gold.Chemscore.Metal.Weighted>
-0.0000

> <Gold.Chemscore.Lipo.Weighted>
-7.6428

> <Gold.Chemscore.Internal_Hbond.Weighted>
0.0000

> <Gold.Chemscore.DEClash.Weighted>
0.0132

> <Gold.Chemscore.DEInternal.Weighted>
1.1910

> <Gold.Chemscore.Rot.Weighted>
5.3594

> <Gold.Chemscore.Internal.Correction.Weighted>
   9.000000E+99

> <Gold.Protein.RotatedTorsions>
[ 6907 6896 6895 6894 ] final   61.21 input  -60.11 | X-H torsion
[ 7974 7965 7964 7962 ] final  -89.90 input  175.53 | X-H torsion
[ 8008 7997 7996 7995 ] final  -26.38 input   59.86 | X-H torsion
[ 10167 10162 10161 10158 ] final  -31.92 input  -65.29 | X-H torsion
[ 10718 10713 10712 10709 ] final   63.49 input   66.30 | X-H torsion
[ 10763 10752 10751 10750 ] final -130.04 input  -60.55 | X-H torsion
[ 11005 11000 10999 10996 ] final  175.24 input  -57.11 | X-H torsion

> <Gold.Protein.ActiveResidues>
 VAL166  LYS551  ARG553  GLY616  TRP617  ASP618  TYR619  PRO620  LYS621  CYS622 
 ASP623  PHE694  ASN695  SER759  ASP760  ASP761  ALA762  ILE779  LEU786  VAL792 
 PHE793  MET794  SER795  GLU796  ALA797  LYS798  CYS799  TRP800  GLU811  SER814 

> <Gold.Protein.RotatedAtoms>
  152.4069  134.6191  160.0045 H   0  0  0  0  0  0  0  0  0  0  0  0  # atno 6907 bound_to 6896
  151.6380  133.3322  159.3132 H   0  0  0  0  0  0  0  0  0  0  0  0  # atno 6908 bound_to 6896
  150.7963  134.7066  159.6625 H   0  0  0  0  0  0  0  0  0  0  0  0  # atno 6909 bound_to 6896
  145.4337  140.9557  143.2114 H   0  0  0  0  0  0  0  0  0  0  0  0  # atno 7974 bound_to 7965
  154.4428  140.1901  156.0766 H   0  0  0  0  0  0  0  0  0  0  0  0  # atno 8008 bound_to 7997
  156.0471  140.3313  155.7282 H   0  0  0  0  0  0  0  0  0  0  0  0  # atno 8009 bound_to 7997
  155.5613  140.0604  157.2819 H   0  0  0  0  0  0  0  0  0  0  0  0  # atno 8010 bound_to 7997
  140.7229  143.3733  151.1736 H   0  0  0  0  0  0  0  0  0  0  0  0  # atno 10167 bound_to 10162
  157.5975  130.9108  149.9723 H   0  0  0  0  0  0  0  0  0  0  0  0  # atno 10718 bound_to 10713
  154.8756  135.3876  154.4017 H   0  0  0  0  0  0  0  0  0  0  0  0  # atno 10763 bound_to 10752
  153.4741  135.7030  153.5981 H   0  0  0  0  0  0  0  0  0  0  0  0  # atno 10764 bound_to 10752
  153.4425  135.3852  155.2204 H   0  0  0  0  0  0  0  0  0  0  0  0  # atno 10765 bound_to 10752
  140.3600  134.7121  157.4325 H   0  0  0  0  0  0  0  0  0  0  0  0  # atno 11005 bound_to 11000
  144.8166  139.5865  143.7005 LP  0  0  0  0  0  0  0  0  0  0  0  0  # atno 17320 bound_to 7965
  146.2593  139.6375  142.9373 LP  0  0  0  0  0  0  0  0  0  0  0  0  # atno 17321 bound_to 7965
  139.7309  143.9074  152.3019 LP  0  0  0  0  0  0  0  0  0  0  0  0  # atno 17342 bound_to 10162
  139.8863  144.6990  150.8821 LP  0  0  0  0  0  0  0  0  0  0  0  0  # atno 17343 bound_to 10162
  156.1040  130.3654  150.0166 LP  0  0  0  0  0  0  0  0  0  0  0  0  # atno 17370 bound_to 10713
  156.8277  130.9381  151.3638 LP  0  0  0  0  0  0  0  0  0  0  0  0  # atno 17371 bound_to 10713
  140.0634  134.5964  155.8723 LP  0  0  0  0  0  0  0  0  0  0  0  0  # atno 17394 bound_to 11000
  141.1987  133.6603  156.5804 LP  0  0  0  0  0  0  0  0  0  0  0  0  # atno 17395 bound_to 11000

$$$$
