AV-unprocessed.smi:1022|AV-procd|sdf|4459|dock4
  -GOLD-   22720 2433D 1   1.00000     0.00000
 Structure written by MMmdl.
 33 34  0  0  0  0  0  0  0  0  1 V2000
  147.9944  144.9914  161.6019 C   0  0  0  0  0  0  0  0  0  0  0  0
  147.7481  143.9168  160.7119 O   0  0  0  0  0  0  0  0  0  0  0  0
  146.3940  143.4942  160.7307 C   0  0  0  0  0  0  0  0  0  0  0  0
  145.7694  143.7154  159.3445 C   0  0  1  0  0  0  0  0  0  0  0  0
  145.1292  145.1087  159.2327 C   0  0  0  0  0  0  0  0  0  0  0  0
  146.7925  143.5451  158.3155 N   0  0  0  0  0  0  0  0  0  0  0  0
  147.4075  142.3914  158.0171 C   0  0  0  0  0  0  0  0  0  0  0  0
  147.1602  141.3246  158.5804 O   0  0  0  0  0  0  0  0  0  0  0  0
  148.3125  142.5625  157.0375 N   0  0  0  0  0  0  0  0  0  0  0  0
  149.1502  141.5878  156.4333 C   0  0  0  0  0  0  0  0  0  0  0  0
  149.5970  141.6682  155.1725 N   0  0  0  0  0  0  0  0  0  0  0  0
  150.4018  140.5881  154.8381 N   0  0  0  0  0  0  0  0  0  0  0  0
  150.5380  139.7233  155.8506 C   0  0  0  0  0  0  0  0  0  0  0  0
  151.3582  138.4820  155.7328 C   0  0  0  0  0  0  0  0  0  0  0  0
  152.2766  138.2702  154.5508 C   0  0  0  0  0  0  0  0  0  0  0  0
  151.0416  137.4193  154.7030 C   0  0  0  0  0  0  0  0  0  0  0  0
  149.6810  140.1707  157.3225 S   0  0  0  0  0  0  0  0  0  0  0  0
  149.0447  145.2776  161.5485 H   0  0  0  0  0  0  0  0  0  0  0  0
  147.7742  144.7098  162.6325 H   0  0  0  0  0  0  0  0  0  0  0  0
  147.3945  145.8645  161.3413 H   0  0  0  0  0  0  0  0  0  0  0  0
  146.3498  142.4358  160.9930 H   0  0  0  0  0  0  0  0  0  0  0  0
  145.8354  144.0419  161.4918 H   0  0  0  0  0  0  0  0  0  0  0  0
  144.9888  142.9653  159.2034 H   0  0  0  0  0  0  0  0  0  0  0  0
  144.3573  145.2463  159.9902 H   0  0  0  0  0  0  0  0  0  0  0  0
  144.6595  145.2532  158.2593 H   0  0  0  0  0  0  0  0  0  0  0  0
  145.8700  145.8977  159.3654 H   0  0  0  0  0  0  0  0  0  0  0  0
  147.0620  144.3738  157.8058 H   0  0  0  0  0  0  0  0  0  0  0  0
  148.4120  143.5007  156.6792 H   0  0  0  0  0  0  0  0  0  0  0  0
  151.7025  138.1544  156.7119 H   0  0  0  0  0  0  0  0  0  0  0  0
  152.2732  139.0245  153.7660 H   0  0  0  0  0  0  0  0  0  0  0  0
  153.2388  137.7993  154.7416 H   0  0  0  0  0  0  0  0  0  0  0  0
  151.1797  136.3808  154.9969 H   0  0  0  0  0  0  0  0  0  0  0  0
  150.2250  137.6018  154.0072 H   0  0  0  0  0  0  0  0  0  0  0  0
  1  2  1  0  0  0  0
  1 18  1  0  0  0  0
  1 19  1  0  0  0  0
  1 20  1  0  0  0  0
  2  3  1  0  0  0  0
  3  4  1  0  0  0  0
  3 21  1  0  0  0  0
  3 22  1  0  0  0  0
  4  5  1  0  0  0  0
  4  6  1  0  0  0  0
  4 23  1  0  0  0  0
  5 24  1  0  0  0  0
  5 25  1  0  0  0  0
  5 26  1  0  0  0  0
  6  7  1  0  0  0  0
  6 27  1  0  0  0  0
  7  8  2  0  0  0  0
  7  9  1  0  0  0  0
  9 10  1  0  0  0  0
  9 28  1  0  0  0  0
 10 17  1  0  0  0  0
 10 11  2  0  0  0  0
 11 12  1  0  0  0  0
 12 13  2  0  0  0  0
 13 14  1  0  0  0  0
 13 17  1  0  0  0  0
 14 16  1  0  0  0  0
 14 15  1  0  0  0  0
 14 29  1  0  0  0  0
 15 16  1  0  0  0  0
 15 30  1  0  0  0  0
 15 31  1  0  0  0  0
 16 32  1  0  0  0  0
 16 33  1  0  0  0  0
M  END
> <s_m_source_file>
AV-unprocessed.smi

> <i_m_source_file_index>
1022

> <i_lp_mmshare_version>
43012

> <i_f3d_flags>
0

> <s_epik_input>
W0NIM11PW0NIMl1bQ0BIXShbQ0gzXSlbTkhdQyg9TylbTkhdYzFubmMoczEpW0NIXTJbQ0gyXVtDSDJdMg==

> <s_epik_cmdline>
J2VwaWtfcHl0aG9uJywgJy1waCcsICc3LjAnLCAnLXRuJywgJzgnLCAnLW1hJywgJzIwMCcsICctbWV0YWxfYmluZGluZycsICctaW1hZScsICc8aW5maWxlLm1hZT4nLCAnLW9tYWUnLCAnPG91dGZpbGUubWFlPic=

> <r_lp_tautomer_probability>
1

> <r_epik_Ionization_Penalty>
0.00129266

> <r_epik_Ionization_Penalty_Charging>
0

> <r_epik_Ionization_Penalty_Neutral>
0.00129266

> <r_epik_State_Penalty>
-0

> <r_epik_Charging_Adjusted_Penalty>
0

> <i_epik_Tot_Q>
0

> <i_epik_Tot_abs_Q>
0

> <r_epik_Metal_State_Penalty>
0.30857

> <b_epik_Metal_Only>
0

> <s_lp_Force_Field>
OPLS_2005

> <r_lp_Energy>
1.4297

> <b_lp_Chiralities_Consistent>
1

> <s_lp_Variant>
AV-unprocessed.smi:1022-2

> <Gold.Version>
5.8.1

> <Gold.Id.Protein>
6NUR|6NUR_protein|mol2

> <Gold.PLP.Fitness>
36.7714

> <Gold.PLP.PLP>
-26.9365

> <Gold.PLP.part.hbond>
-5.0000

> <Gold.PLP.part.metal>
0.0000

> <Gold.PLP.part.buried>
-5.0599

> <Gold.PLP.part.nonpolar>
-17.6224

> <Gold.PLP.part.repulsive>
0.4052

> <Gold.PLP.ligand.clash>
0.0000

> <Gold.PLP.ligand.torsion>
1.0913

> <Gold.PLP.Chemscore.Hbond>
3.9572

> <Gold.PLP.Chemscore.CHOScore>
0.0000

> <Gold.PLP.Chemscore.Metal>
0.0000

> <Gold.Chemscore.Hbonds>
donor molecule, donor type, donor heavy atom, donor atom, acceptor molecule, acceptor atom, score
      L1  H     6    27       P1  8029  0.90
      L1  H     9    28       P1  8028  1.00
      P1  H  6933  6944       L1     2  0.90
      P1  H  6934  6946       L1     8  0.21
      P1  H  7989  7998       L1    12  0.94

> <Gold.PLP.Chemscore.Internal.Correction>
0.1459

> <Gold.Rescore>
     Score         DG    S(hbond)    S(metal)    S(lipo)     H(rot)  DE(clash)    DE(int)     intcor
     13.10     -14.17       2.29        0.00      46.86       1.73       0.00       1.07       ----

> <Gold.Chemscore.Fitness>
13.0966

> <Gold.Chemscore.DG>
-14.1692

> <Gold.Chemscore.ZeroCoef>
-5.4800

> <Gold.Chemscore.Hbond>
2.2873

> <Gold.Chemscore.Metal>
0.0000

> <Gold.Chemscore.Lipo>
46.8630

> <Gold.Chemscore.Internal_Hbond>
0.0000

> <Gold.Chemscore.DEClash>
0.0038

> <Gold.Chemscore.DEInternal>
1.0687

> <Gold.Chemscore.Rot>
1.7318

> <Gold.Chemscore.Internal.Correction>
   9.000000E+99

> <Gold.Chemscore.Hbonds>
donor molecule, donor type, donor heavy atom, donor atom, acceptor molecule, acceptor atom, score
      L1  H     6    27       P1  8029  0.18
      L1  H     9    28       P1  8028  0.25
      P1  H  6933  6944       L1     2  0.12
      P1  H  6934  6946       L1     8  0.21
      P1  H  7989  7998       L1    12  0.84

> <Gold.Chemscore.Hbond.Weighted>
-7.6397

> <Gold.Chemscore.Metal.Weighted>
-0.0000

> <Gold.Chemscore.Lipo.Weighted>
-5.4830

> <Gold.Chemscore.Internal_Hbond.Weighted>
0.0000

> <Gold.Chemscore.DEClash.Weighted>
0.0038

> <Gold.Chemscore.DEInternal.Weighted>
1.0687

> <Gold.Chemscore.Rot.Weighted>
4.4335

> <Gold.Chemscore.Internal.Correction.Weighted>
   9.000000E+99

> <Gold.Protein.RotatedTorsions>
[ 6907 6896 6895 6894 ] final  154.23 input  -60.11 | X-H torsion
[ 7974 7965 7964 7962 ] final -107.43 input  175.53 | X-H torsion
[ 8008 7997 7996 7995 ] final  -89.24 input   59.86 | X-H torsion
[ 10167 10162 10161 10158 ] final  169.40 input  -65.29 | X-H torsion
[ 10718 10713 10712 10709 ] final  -55.91 input   66.30 | X-H torsion
[ 10763 10752 10751 10750 ] final  -94.99 input  -60.55 | X-H torsion
[ 11005 11000 10999 10996 ] final  -65.06 input  -57.11 | X-H torsion

> <Gold.Protein.ActiveResidues>
 VAL166  LYS551  ARG553  GLY616  TRP617  ASP618  TYR619  PRO620  LYS621  CYS622 
 ASP623  PHE694  ASN695  SER759  ASP760  ASP761  ALA762  ILE779  LEU786  VAL792 
 PHE793  MET794  SER795  GLU796  ALA797  LYS798  CYS799  TRP800  GLU811  SER814 

> <Gold.Protein.RotatedAtoms>
  152.0614  133.4064  159.4419 H   0  0  0  0  0  0  0  0  0  0  0  0  # atno 6907 bound_to 6896
  150.6866  134.3195  159.4790 H   0  0  0  0  0  0  0  0  0  0  0  0  # atno 6908 bound_to 6896
  152.1017  134.9336  160.0620 H   0  0  0  0  0  0  0  0  0  0  0  0  # atno 6909 bound_to 6896
  145.2054  140.9074  143.3345 H   0  0  0  0  0  0  0  0  0  0  0  0  # atno 7974 bound_to 7965
  154.6843  140.0544  157.0298 H   0  0  0  0  0  0  0  0  0  0  0  0  # atno 8008 bound_to 7997
  155.0907  140.3219  155.4556 H   0  0  0  0  0  0  0  0  0  0  0  0  # atno 8009 bound_to 7997
  156.2705  140.2048  156.6034 H   0  0  0  0  0  0  0  0  0  0  0  0  # atno 8010 bound_to 7997
  139.4991  144.3710  151.9725 H   0  0  0  0  0  0  0  0  0  0  0  0  # atno 10167 bound_to 10162
  156.1330  130.4158  150.0235 H   0  0  0  0  0  0  0  0  0  0  0  0  # atno 10718 bound_to 10713
  154.7107  135.5137  153.8662 H   0  0  0  0  0  0  0  0  0  0  0  0  # atno 10763 bound_to 10752
  153.0778  135.6622  154.0117 H   0  0  0  0  0  0  0  0  0  0  0  0  # atno 10764 bound_to 10752
  153.9959  135.3015  155.3387 H   0  0  0  0  0  0  0  0  0  0  0  0  # atno 10765 bound_to 10752
  141.1443  133.6675  156.5928 H   0  0  0  0  0  0  0  0  0  0  0  0  # atno 11005 bound_to 11000
  144.9907  139.3692  143.6216 LP  0  0  0  0  0  0  0  0  0  0  0  0  # atno 17320 bound_to 7965
  146.3409  139.9088  142.8783 LP  0  0  0  0  0  0  0  0  0  0  0  0  # atno 17321 bound_to 7965
  140.3146  144.3498  150.6025 LP  0  0  0  0  0  0  0  0  0  0  0  0  # atno 17342 bound_to 10162
  140.5771  143.2175  151.7495 LP  0  0  0  0  0  0  0  0  0  0  0  0  # atno 17343 bound_to 10162
  156.8141  130.9335  151.3643 LP  0  0  0  0  0  0  0  0  0  0  0  0  # atno 17370 bound_to 10713
  157.6506  130.8881  149.9626 LP  0  0  0  0  0  0  0  0  0  0  0  0  # atno 17371 bound_to 10713
  140.3749  134.7573  157.4623 LP  0  0  0  0  0  0  0  0  0  0  0  0  # atno 17394 bound_to 11000
  140.0682  134.5900  155.8672 LP  0  0  0  0  0  0  0  0  0  0  0  0  # atno 17395 bound_to 11000

$$$$
