AV-unprocessed.smi:54|AV-procd|sdf|529|dock3
  -GOLD-   2262016403D 1   1.00000     0.00000
 Structure written by MMmdl.
 44 46  0  0  0  0  0  0  0  0  1 V2000
  152.1678  145.1899  158.9451 C   0  0  0  0  0  0  0  0  0  0  0  0
  151.6735  143.9575  159.7196 C   0  0  0  0  0  0  0  0  0  0  0  0
  152.1517  143.9871  161.1805 C   0  0  0  0  0  0  0  0  0  0  0  0
  152.1303  142.6667  159.0310 C   0  0  0  0  0  0  0  0  0  0  0  0
  153.1589  142.0781  159.3639 O   0  0  0  0  0  0  0  0  0  0  0  0
  151.2772  142.1974  157.9559 N   0  0  0  0  0  0  0  0  0  0  0  0
  151.4413  141.0793  157.2127 C   0  0  0  0  0  0  0  0  0  0  0  0
  150.7409  140.8304  156.1148 N   0  0  0  0  0  0  0  0  0  0  0  0
  151.0730  139.6656  155.4766 C   0  0  0  0  0  0  0  0  0  0  0  0
  152.0400  138.7638  155.8744 C   0  0  0  0  0  0  0  0  0  0  0  0
  152.1002  137.6972  154.9855 N   0  0  0  0  0  0  0  0  0  0  0  0
  151.1949  137.9800  154.0921 C   0  0  0  0  0  0  0  0  0  0  0  0
  150.5241  139.1583  154.3133 N   0  0  0  0  0  0  0  0  0  0  0  0
  149.4402  139.7542  153.4734 C   0  0  2  0  0  0  0  0  0  0  0  0
  149.1834  141.0434  153.9395 O   0  0  0  0  0  0  0  0  0  0  0  0
  147.7789  141.2661  153.9919 C   0  0  2  0  0  0  0  0  0  0  0  0
  147.4663  142.3597  155.0253 C   0  0  0  0  0  0  0  0  0  0  0  0
  148.3586  142.2673  156.1153 O   0  0  0  0  0  0  0  0  0  0  0  0
  147.2366  139.8862  154.3689 C   0  0  1  0  0  0  0  0  0  0  0  0
  145.8639  139.7302  154.0607 O   0  0  0  0  0  0  0  0  0  0  0  0
  148.1444  138.9364  153.5928 C   0  0  1  0  0  0  0  0  0  0  0  0
  147.6266  138.6234  152.3123 O   0  0  0  0  0  0  0  0  0  0  0  0
  152.8043  139.0194  157.0609 C   0  0  0  0  0  0  0  0  0  0  0  0
  153.6938  138.3315  157.5574 O   0  0  0  0  0  0  0  0  0  0  0  0
  152.4385  140.2226  157.6758 N   0  0  0  0  0  0  0  0  0  0  0  0
  149.8538  139.7804  152.4641 H   0  0  0  0  0  0  0  0  0  0  0  0
  147.4194  141.5413  152.9981 H   0  0  0  0  0  0  0  0  0  0  0  0
  147.3735  139.7129  155.4351 H   0  0  0  0  0  0  0  0  0  0  0  0
  148.3136  138.0059  154.1368 H   0  0  0  0  0  0  0  0  0  0  0  0
  151.8332  145.1668  157.9071 H   0  0  0  0  0  0  0  0  0  0  0  0
  153.2567  145.2531  158.9425 H   0  0  0  0  0  0  0  0  0  0  0  0
  151.7852  146.1087  159.3906 H   0  0  0  0  0  0  0  0  0  0  0  0
  150.5827  143.9752  159.7212 H   0  0  0  0  0  0  0  0  0  0  0  0
  151.8079  143.1087  161.7284 H   0  0  0  0  0  0  0  0  0  0  0  0
  151.7664  144.8660  161.6983 H   0  0  0  0  0  0  0  0  0  0  0  0
  153.2404  144.0159  161.2471 H   0  0  0  0  0  0  0  0  0  0  0  0
  150.4982  142.7928  157.7161 H   0  0  0  0  0  0  0  0  0  0  0  0
  150.9913  137.3363  153.2487 H   0  0  0  0  0  0  0  0  0  0  0  0
  147.5935  143.3470  154.5804 H   0  0  0  0  0  0  0  0  0  0  0  0
  146.4362  142.2920  155.3757 H   0  0  0  0  0  0  0  0  0  0  0  0
  148.7906  143.1011  156.2208 H   0  0  0  0  0  0  0  0  0  0  0  0
  145.6875  140.1801  153.2486 H   0  0  0  0  0  0  0  0  0  0  0  0
  148.1067  137.8852  151.9688 H   0  0  0  0  0  0  0  0  0  0  0  0
  152.9416  140.4710  158.5151 H   0  0  0  0  0  0  0  0  0  0  0  0
  1  2  1  0  0  0  0
  1 30  1  0  0  0  0
  1 31  1  0  0  0  0
  1 32  1  0  0  0  0
  2  3  1  0  0  0  0
  2  4  1  0  0  0  0
  2 33  1  0  0  0  0
  3 34  1  0  0  0  0
  3 35  1  0  0  0  0
  3 36  1  0  0  0  0
  4  5  2  0  0  0  0
  4  6  1  0  0  0  0
  6 37  1  0  0  0  0
  6  7  1  0  0  0  0
  7 25  1  0  0  0  0
  7  8  2  0  0  0  0
  8  9  1  0  0  0  0
  9 13  1  0  0  0  0
  9 10  2  0  0  0  0
 10 11  1  0  0  0  0
 10 23  1  0  0  0  0
 11 12  2  0  0  0  0
 12 13  1  0  0  0  0
 12 38  1  0  0  0  0
 13 14  1  0  0  0  0
 14 26  1  0  0  0  0
 14 21  1  0  0  0  0
 14 15  1  0  0  0  0
 15 16  1  0  0  0  0
 16 27  1  0  0  0  0
 16 17  1  0  0  0  0
 16 19  1  0  0  0  0
 17 18  1  0  0  0  0
 17 39  1  0  0  0  0
 17 40  1  0  0  0  0
 18 41  1  0  0  0  0
 19 28  1  0  0  0  0
 19 20  1  0  0  0  0
 19 21  1  0  0  0  0
 20 42  1  0  0  0  0
 21 29  1  0  0  0  0
 21 22  1  0  0  0  0
 22 43  1  0  0  0  0
 23 24  2  0  0  0  0
 23 25  1  0  0  0  0
 25 44  1  0  0  0  0
M  END
> <s_m_source_file>
AV-unprocessed.smi

> <i_m_source_file_index>
54

> <i_lp_mmshare_version>
43012

> <i_f3d_flags>
0

> <s_epik_input>
W0NIM11bQ0hdKFtDSDNdKUMoPU8pW05IXWMobjEpW25IXWMoPU8pYyhjMTIpbltjSF1uMltDQEBIXTNPW0NASF0oW0NIMl1bT0hdKVtDQEBIXShbT0hdKVtDQEhdM1tPSF0=

> <s_epik_cmdline>
J2VwaWtfcHl0aG9uJywgJy1waCcsICc3LjAnLCAnLXRuJywgJzgnLCAnLW1hJywgJzIwMCcsICctbWV0YWxfYmluZGluZycsICctaW1hZScsICc8aW5maWxlLm1hZT4nLCAnLW9tYWUnLCAnPG91dGZpbGUubWFlPic=

> <r_lp_tautomer_probability>
0.85571

> <r_epik_Ionization_Penalty>
0.0316551

> <r_epik_Ionization_Penalty_Charging>
0.0316043

> <r_epik_Ionization_Penalty_Neutral>
5.07097e-05

> <r_epik_State_Penalty>
3.15494e-07

> <r_epik_Charging_Adjusted_Penalty>
0.0316047

> <i_epik_Tot_Q>
0

> <i_epik_Tot_abs_Q>
0

> <r_epik_Metal_State_Penalty>
0.421206

> <b_epik_Metal_Only>
0

> <s_epik_Chemistry_Notes>
This compound contains an acetal/aminal-like group ( X-CH(R)-Y where X, Y are N, S, or O) that may be acid/base labile, releasing an aldehyde.

> <s_lp_Force_Field>
OPLS_2005

> <r_lp_Energy>
41.8927

> <b_lp_Chiralities_Consistent>
1

> <s_lp_Variant>
AV-unprocessed.smi:54-1

> <Gold.Version>
5.8.1

> <Gold.Id.Protein>
6NUR|6NUR_protein|mol2

> <Gold.PLP.Fitness>
50.9201

> <Gold.PLP.PLP>
-40.9393

> <Gold.PLP.part.hbond>
-7.2509

> <Gold.PLP.part.metal>
0.0000

> <Gold.PLP.part.buried>
3.2890

> <Gold.PLP.part.nonpolar>
-38.0322

> <Gold.PLP.part.repulsive>
1.2884

> <Gold.PLP.ligand.clash>
0.0000

> <Gold.PLP.ligand.torsion>
1.1446

> <Gold.PLP.Chemscore.Hbond>
2.9838

> <Gold.PLP.Chemscore.CHOScore>
1.0970

> <Gold.PLP.Chemscore.Metal>
0.0000

> <Gold.Chemscore.Hbonds>
donor molecule, donor type, donor heavy atom, donor atom, acceptor molecule, acceptor atom, score
      L1  H    18    41       P1  8028  0.90
      L1  H    20    42       P1 10175  0.30
      L1  H    22    43       P1  7948  1.00
      P1  H  8011  8017       L1    15  0.52
      P1  H 10752 10764       L1    11  0.25
      L1  C    12    38       P1  7948  0.06
      L1  C    12    38       P1  7949  1.00

> <Gold.PLP.Chemscore.Internal.Correction>
0.0272

> <Gold.Rescore>
     Score         DG    S(hbond)    S(metal)    S(lipo)     H(rot)  DE(clash)    DE(int)     intcor
      8.30     -13.41       3.21        0.00      64.81       4.05       2.39       2.72       ----

> <Gold.Chemscore.Fitness>
8.3002

> <Gold.Chemscore.DG>
-13.4091

> <Gold.Chemscore.ZeroCoef>
-5.4800

> <Gold.Chemscore.Hbond>
3.2073

> <Gold.Chemscore.Metal>
0.0000

> <Gold.Chemscore.Lipo>
64.8102

> <Gold.Chemscore.Internal_Hbond>
0.0000

> <Gold.Chemscore.DEClash>
2.3912

> <Gold.Chemscore.DEInternal>
2.7177

> <Gold.Chemscore.Rot>
4.0493

> <Gold.Chemscore.Internal.Correction>
   9.000000E+99

> <Gold.Chemscore.Hbonds>
donor molecule, donor type, donor heavy atom, donor atom, acceptor molecule, acceptor atom, score
      L1  H    18    41       P1  8028  0.87
      L1  H    20    42       P1 10175  0.30
      L1  H    22    43       P1  7948  1.00
      P1  H  8011  8017       L1    15  0.10
      P1  H 10752 10764       L1    11  0.20

> <Gold.Chemscore.Hbond.Weighted>
-10.7125

> <Gold.Chemscore.Metal.Weighted>
-0.0000

> <Gold.Chemscore.Lipo.Weighted>
-7.5828

> <Gold.Chemscore.Internal_Hbond.Weighted>
0.0000

> <Gold.Chemscore.DEClash.Weighted>
2.3912

> <Gold.Chemscore.DEInternal.Weighted>
2.7177

> <Gold.Chemscore.Rot.Weighted>
10.3662

> <Gold.Chemscore.Internal.Correction.Weighted>
   9.000000E+99

> <Gold.Protein.RotatedTorsions>
[ 6907 6896 6895 6894 ] final  108.63 input  -60.11 | X-H torsion
[ 7974 7965 7964 7962 ] final -138.18 input  175.53 | X-H torsion
[ 8008 7997 7996 7995 ] final   45.34 input   59.86 | X-H torsion
[ 10167 10162 10161 10158 ] final   67.79 input  -65.29 | X-H torsion
[ 10718 10713 10712 10709 ] final  -14.68 input   66.30 | X-H torsion
[ 10763 10752 10751 10750 ] final  -55.76 input  -60.55 | X-H torsion
[ 11005 11000 10999 10996 ] final  117.99 input  -57.11 | X-H torsion

> <Gold.Protein.ActiveResidues>
 VAL166  LYS551  ARG553  GLY616  TRP617  ASP618  TYR619  PRO620  LYS621  CYS622 
 ASP623  PHE694  ASN695  SER759  ASP760  ASP761  ALA762  ILE779  LEU786  VAL792 
 PHE793  MET794  SER795  GLU796  ALA797  LYS798  CYS799  TRP800  GLU811  SER814 

> <Gold.Protein.RotatedAtoms>
  152.5103  133.9061  159.7464 H   0  0  0  0  0  0  0  0  0  0  0  0  # atno 6907 bound_to 6896
  150.9465  133.6588  159.2787 H   0  0  0  0  0  0  0  0  0  0  0  0  # atno 6908 bound_to 6896
  151.3882  135.0956  159.9570 H   0  0  0  0  0  0  0  0  0  0  0  0  # atno 6909 bound_to 6896
  144.8780  140.6465  143.5224 H   0  0  0  0  0  0  0  0  0  0  0  0  # atno 7974 bound_to 7965
  155.3343  140.3404  155.4239 H   0  0  0  0  0  0  0  0  0  0  0  0  # atno 8008 bound_to 7997
  156.1846  140.1676  156.8246 H   0  0  0  0  0  0  0  0  0  0  0  0  # atno 8009 bound_to 7997
  154.5371  140.0732  156.8430 H   0  0  0  0  0  0  0  0  0  0  0  0  # atno 8010 bound_to 7997
  140.0857  144.5032  150.7132 H   0  0  0  0  0  0  0  0  0  0  0  0  # atno 10167 bound_to 10162
  156.6125  130.4853  149.6196 H   0  0  0  0  0  0  0  0  0  0  0  0  # atno 10718 bound_to 10713
  154.1960  135.6419  153.5073 H   0  0  0  0  0  0  0  0  0  0  0  0  # atno 10763 bound_to 10752
  153.0023  135.5440  154.6365 H   0  0  0  0  0  0  0  0  0  0  0  0  # atno 10764 bound_to 10752
  154.5766  135.2921  155.0747 H   0  0  0  0  0  0  0  0  0  0  0  0  # atno 10765 bound_to 10752
  139.9094  134.9616  156.7435 H   0  0  0  0  0  0  0  0  0  0  0  0  # atno 11005 bound_to 11000
  145.4007  139.1598  143.4179 LP  0  0  0  0  0  0  0  0  0  0  0  0  # atno 17320 bound_to 7965
  146.2975  140.4104  142.8716 LP  0  0  0  0  0  0  0  0  0  0  0  0  # atno 17321 bound_to 7965
  140.7054  143.2464  151.4740 LP  0  0  0  0  0  0  0  0  0  0  0  0  # atno 17342 bound_to 10162
  139.5753  144.1833  152.1895 LP  0  0  0  0  0  0  0  0  0  0  0  0  # atno 17343 bound_to 10162
  156.2378  130.6833  151.1526 LP  0  0  0  0  0  0  0  0  0  0  0  0  # atno 17370 bound_to 10713
  157.7250  131.0656  150.5970 LP  0  0  0  0  0  0  0  0  0  0  0  0  # atno 17371 bound_to 10713
  140.6830  133.9457  155.7921 LP  0  0  0  0  0  0  0  0  0  0  0  0  # atno 17394 bound_to 11000
  141.0496  134.0503  157.3800 LP  0  0  0  0  0  0  0  0  0  0  0  0  # atno 17395 bound_to 11000

$$$$
