AV-unprocessed.smi:1606|AV-procd|sdf|6461|dock7
  -GOLD-   22720 7113D 1   1.00000     0.00000
 Structure written by MMmdl.
 35 36  0  0  0  0  0  0  0  0  1 V2000
  156.8847  140.4898  160.8718 O   0  0  0  0  0  0  0  0  0  0  0  0
  155.9481  139.9911  161.4966 C   0  0  0  0  0  0  0  0  0  0  0  0
  154.7470  140.5777  161.6119 N   0  0  0  0  0  0  0  0  0  0  0  0
  154.3640  141.8355  160.9784 C   0  0  0  0  0  0  0  0  0  0  0  0
  153.3583  141.6492  159.8233 C   0  0  0  0  0  0  0  0  0  0  0  0
  152.5441  142.8946  159.5104 C   0  0  0  0  0  0  0  0  0  0  0  0
  152.5581  143.9983  160.3894 C   0  0  0  0  0  0  0  0  0  0  0  0
  151.7770  145.1247  160.0655 C   0  0  0  0  0  0  0  0  0  0  0  0
  151.0136  145.1036  158.8825 C   0  0  0  0  0  0  0  0  0  0  0  0
  151.0664  143.9527  158.0715 C   0  0  0  0  0  0  0  0  0  0  0  0
  151.8128  142.8686  158.3723 N   0  0  0  0  0  0  0  0  0  0  0  0
  156.1086  138.6273  162.1801 C   0  0  0  0  0  0  0  0  0  0  0  0
  154.9888  137.6528  161.7729 C   0  0  0  0  0  0  0  0  0  0  0  0
  155.1190  136.3308  162.5466 C   0  0  0  0  0  0  0  0  0  0  0  0
  155.0959  136.5819  163.9479 O   0  0  0  0  0  0  0  0  0  0  0  0
  156.1801  137.3942  164.3859 C   0  0  0  0  0  0  0  0  0  0  0  0
  156.1094  138.7739  163.7119 C   0  0  0  0  0  0  0  0  0  0  0  0
  154.0342  140.0985  162.1429 H   0  0  0  0  0  0  0  0  0  0  0  0
  153.9184  142.4672  161.7471 H   0  0  0  0  0  0  0  0  0  0  0  0
  155.2518  142.3624  160.6256 H   0  0  0  0  0  0  0  0  0  0  0  0
  153.8917  141.3402  158.9237 H   0  0  0  0  0  0  0  0  0  0  0  0
  152.6748  140.8315  160.0576 H   0  0  0  0  0  0  0  0  0  0  0  0
  153.1506  143.9825  161.2923 H   0  0  0  0  0  0  0  0  0  0  0  0
  151.7622  145.9882  160.7140 H   0  0  0  0  0  0  0  0  0  0  0  0
  150.4022  145.9490  158.6033 H   0  0  0  0  0  0  0  0  0  0  0  0
  150.4936  143.9002  157.1575 H   0  0  0  0  0  0  0  0  0  0  0  0
  157.0639  138.1951  161.8763 H   0  0  0  0  0  0  0  0  0  0  0  0
  154.0097  138.0891  161.9779 H   0  0  0  0  0  0  0  0  0  0  0  0
  155.0258  137.4590  160.7003 H   0  0  0  0  0  0  0  0  0  0  0  0
  154.2915  135.6674  162.2951 H   0  0  0  0  0  0  0  0  0  0  0  0
  156.0385  135.8097  162.2753 H   0  0  0  0  0  0  0  0  0  0  0  0
  156.1227  137.5038  165.4689 H   0  0  0  0  0  0  0  0  0  0  0  0
  157.1286  136.9017  164.1664 H   0  0  0  0  0  0  0  0  0  0  0  0
  156.9536  139.3855  164.0336 H   0  0  0  0  0  0  0  0  0  0  0  0
  155.2069  139.2886  164.0448 H   0  0  0  0  0  0  0  0  0  0  0  0
  1  2  2  0  0  0  0
  2  3  1  0  0  0  0
  2 12  1  0  0  0  0
  3  4  1  0  0  0  0
  3 18  1  0  0  0  0
  4  5  1  0  0  0  0
  4 19  1  0  0  0  0
  4 20  1  0  0  0  0
  5  6  1  0  0  0  0
  5 21  1  0  0  0  0
  5 22  1  0  0  0  0
  6 11  1  0  0  0  0
  6  7  2  0  0  0  0
  7  8  1  0  0  0  0
  7 23  1  0  0  0  0
  8  9  2  0  0  0  0
  8 24  1  0  0  0  0
  9 10  1  0  0  0  0
  9 25  1  0  0  0  0
 10 11  2  0  0  0  0
 10 26  1  0  0  0  0
 12 17  1  0  0  0  0
 12 13  1  0  0  0  0
 12 27  1  0  0  0  0
 13 14  1  0  0  0  0
 13 28  1  0  0  0  0
 13 29  1  0  0  0  0
 14 15  1  0  0  0  0
 14 30  1  0  0  0  0
 14 31  1  0  0  0  0
 15 16  1  0  0  0  0
 16 17  1  0  0  0  0
 16 32  1  0  0  0  0
 16 33  1  0  0  0  0
 17 34  1  0  0  0  0
 17 35  1  0  0  0  0
M  END
> <s_m_source_file>
AV-unprocessed.smi

> <i_m_source_file_index>
1606

> <i_lp_mmshare_version>
43012

> <i_f3d_flags>
0

> <s_epik_input>
W0NIMl0xW0NIMl1PW0NIMl1bQ0gyXVtDSF0xQyg9TylbTkhdW0NIMl1bQ0gyXWMyW2NIXVtjSF1bY0hdW2NIXW4y

> <s_epik_cmdline>
J2VwaWtfcHl0aG9uJywgJy1waCcsICc3LjAnLCAnLXRuJywgJzgnLCAnLW1hJywgJzIwMCcsICctbWV0YWxfYmluZGluZycsICctaW1hZScsICc8aW5maWxlLm1hZT4nLCAnLW9tYWUnLCAnPG91dGZpbGUubWFlPic=

> <r_epik_Ionization_Penalty>
0.0277532

> <r_epik_Ionization_Penalty_Charging>
0

> <r_epik_Ionization_Penalty_Neutral>
0.0277532

> <r_epik_State_Penalty>
0.022734

> <r_epik_Charging_Adjusted_Penalty>
0.022734

> <i_epik_Tot_Q>
0

> <i_epik_Tot_abs_Q>
0

> <r_epik_Metal_State_Penalty>
0.0217131

> <b_epik_Metal_Only>
0

> <s_lp_Force_Field>
OPLS_2005

> <r_lp_Energy>
8.37046

> <b_lp_Chiralities_Consistent>
1

> <s_lp_Variant>
AV-unprocessed.smi:1606-1

> <Gold.Version>
5.8.1

> <Gold.Id.Protein>
6NUR|6NUR_protein|mol2

> <Gold.PLP.Fitness>
42.3632

> <Gold.PLP.PLP>
-40.2281

> <Gold.PLP.part.hbond>
-1.0000

> <Gold.PLP.part.metal>
0.0000

> <Gold.PLP.part.buried>
-4.6616

> <Gold.PLP.part.nonpolar>
-34.0700

> <Gold.PLP.part.repulsive>
0.0808

> <Gold.PLP.ligand.clash>
0.0000

> <Gold.PLP.ligand.torsion>
0.4389

> <Gold.PLP.Chemscore.Hbond>
0.0000

> <Gold.PLP.Chemscore.CHOScore>
1.0000

> <Gold.PLP.Chemscore.Metal>
0.0000

> <Gold.Chemscore.Hbonds>
donor molecule, donor type, donor heavy atom, donor atom, acceptor molecule, acceptor atom, score
      L1  C    10    26       P1  8028  1.00

> <Gold.PLP.Chemscore.Internal.Correction>
0.0128

> <Gold.Rescore>
     Score         DG    S(hbond)    S(metal)    S(lipo)     H(rot)  DE(clash)    DE(int)     intcor
     14.87     -15.38       0.00        0.00     116.70       1.47       0.17       0.34       ----

> <Gold.Chemscore.Fitness>
14.8705

> <Gold.Chemscore.DG>
-15.3775

> <Gold.Chemscore.ZeroCoef>
-5.4800

> <Gold.Chemscore.Hbond>
0.0000

> <Gold.Chemscore.Metal>
0.0000

> <Gold.Chemscore.Lipo>
116.7024

> <Gold.Chemscore.Internal_Hbond>
0.0000

> <Gold.Chemscore.DEClash>
0.1708

> <Gold.Chemscore.DEInternal>
0.3362

> <Gold.Chemscore.Rot>
1.4674

> <Gold.Chemscore.Internal.Correction>
   9.000000E+99

> <Gold.Chemscore.Hbond.Weighted>
-0.0000

> <Gold.Chemscore.Metal.Weighted>
-0.0000

> <Gold.Chemscore.Lipo.Weighted>
-13.6542

> <Gold.Chemscore.Internal_Hbond.Weighted>
0.0000

> <Gold.Chemscore.DEClash.Weighted>
0.1708

> <Gold.Chemscore.DEInternal.Weighted>
0.3362

> <Gold.Chemscore.Rot.Weighted>
3.7567

> <Gold.Chemscore.Internal.Correction.Weighted>
   9.000000E+99

> <Gold.Protein.RotatedTorsions>
[ 6907 6896 6895 6894 ] final -112.22 input  -60.11 | X-H torsion
[ 7974 7965 7964 7962 ] final  169.51 input  175.53 | X-H torsion
[ 8008 7997 7996 7995 ] final -102.40 input   59.86 | X-H torsion
[ 10167 10162 10161 10158 ] final  -78.28 input  -65.29 | X-H torsion
[ 10718 10713 10712 10709 ] final   40.61 input   66.30 | X-H torsion
[ 10763 10752 10751 10750 ] final  -71.86 input  -60.55 | X-H torsion
[ 11005 11000 10999 10996 ] final  -38.45 input  -57.11 | X-H torsion

> <Gold.Protein.ActiveResidues>
 VAL166  LYS551  ARG553  GLY616  TRP617  ASP618  TYR619  PRO620  LYS621  CYS622 
 ASP623  PHE694  ASN695  SER759  ASP760  ASP761  ALA762  ILE779  LEU786  VAL792 
 PHE793  MET794  SER795  GLU796  ALA797  LYS798  CYS799  TRP800  GLU811  SER814 

> <Gold.Protein.RotatedAtoms>
  150.7744  133.9120  159.3372 H   0  0  0  0  0  0  0  0  0  0  0  0  # atno 6907 bound_to 6896
  151.6999  135.0930  160.0258 H   0  0  0  0  0  0  0  0  0  0  0  0  # atno 6908 bound_to 6896
  152.3774  133.6461  159.6170 H   0  0  0  0  0  0  0  0  0  0  0  0  # atno 6909 bound_to 6896
  144.7353  139.9065  143.6412 H   0  0  0  0  0  0  0  0  0  0  0  0  # atno 7974 bound_to 7965
  154.8561  140.0428  157.1635 H   0  0  0  0  0  0  0  0  0  0  0  0  # atno 8008 bound_to 7997
  154.8890  140.2984  155.5361 H   0  0  0  0  0  0  0  0  0  0  0  0  # atno 8009 bound_to 7997
  156.2997  140.2397  156.3903 H   0  0  0  0  0  0  0  0  0  0  0  0  # atno 8010 bound_to 7997
  140.4696  143.2430  151.8226 H   0  0  0  0  0  0  0  0  0  0  0  0  # atno 10167 bound_to 10162
  157.3841  130.7770  149.7216 H   0  0  0  0  0  0  0  0  0  0  0  0  # atno 10718 bound_to 10713
  154.4377  135.5948  153.6109 H   0  0  0  0  0  0  0  0  0  0  0  0  # atno 10763 bound_to 10752
  152.9803  135.5990  154.3761 H   0  0  0  0  0  0  0  0  0  0  0  0  # atno 10764 bound_to 10752
  154.3607  135.2841  155.2300 H   0  0  0  0  0  0  0  0  0  0  0  0  # atno 10765 bound_to 10752
  141.0029  133.6946  156.2055 H   0  0  0  0  0  0  0  0  0  0  0  0  # atno 11005 bound_to 11000
  146.1033  139.4030  143.0333 LP  0  0  0  0  0  0  0  0  0  0  0  0  # atno 17320 bound_to 7965
  145.7548  140.9958  143.1231 LP  0  0  0  0  0  0  0  0  0  0  0  0  # atno 17321 bound_to 7965
  139.4816  144.4908  151.9187 LP  0  0  0  0  0  0  0  0  0  0  0  0  # atno 17342 bound_to 10162
  140.3994  144.2513  150.5894 LP  0  0  0  0  0  0  0  0  0  0  0  0  # atno 17343 bound_to 10162
  155.9782  130.4053  150.3660 LP  0  0  0  0  0  0  0  0  0  0  0  0  # atno 17370 bound_to 10713
  157.1768  131.0382  151.2768 LP  0  0  0  0  0  0  0  0  0  0  0  0  # atno 17371 bound_to 10713
  140.6860  134.4716  157.5589 LP  0  0  0  0  0  0  0  0  0  0  0  0  # atno 17394 bound_to 11000
  139.9048  134.8474  156.1750 LP  0  0  0  0  0  0  0  0  0  0  0  0  # atno 17395 bound_to 11000

$$$$
