AV-unprocessed.smi:1039|AV-procd|sdf|4522|dock8
  -GOLD-   22720 2543D 1   1.00000     0.00000
 Structure written by MMmdl.
 40 41  0  0  0  0  0  0  0  0  1 V2000
  145.7649  143.2217  155.2831 C   0  0  0  0  0  0  0  0  0  0  0  0
  146.4529  141.8656  155.0760 C   0  0  0  0  0  0  0  0  0  0  0  0
  146.7640  141.1719  156.4200 C   0  0  0  0  0  0  0  0  0  0  0  0
  147.5483  139.8648  156.2050 C   0  0  0  0  0  0  0  0  0  0  0  0
  148.7786  140.1680  155.4533 N   0  0  0  0  0  0  0  0  0  0  0  0
  150.0285  140.2542  155.9742 C   0  0  0  0  0  0  0  0  0  0  0  0
  151.0333  140.4667  155.2941 O   0  0  0  0  0  0  0  0  0  0  0  0
  150.0959  140.0408  157.2970 N   0  0  0  0  0  0  0  0  0  0  0  0
  151.3109  140.1081  158.0991 C   0  0  0  0  0  0  0  0  0  0  0  0
  151.8782  141.5377  158.1537 C   0  0  0  0  0  0  0  0  0  0  0  0
  152.4614  141.9054  159.4874 C   0  0  0  0  0  0  0  0  0  0  0  0
  153.0483  141.0263  160.2939 N   0  0  0  0  0  0  0  0  0  0  0  0
  153.4647  141.7715  161.3906 C   0  0  0  0  0  0  0  0  0  0  0  0
  153.1077  143.0852  161.2098 C   0  0  0  0  0  0  0  0  0  0  0  0
  152.4536  143.1594  159.9849 N   0  0  0  0  0  0  0  0  0  0  0  0
  151.8898  144.3572  159.3818 C   0  0  0  0  0  0  0  0  0  0  0  0
  151.9865  145.3942  160.2145 F   0  0  0  0  0  0  0  0  0  0  0  0
  152.5223  144.6406  158.2440 F   0  0  0  0  0  0  0  0  0  0  0  0
  148.4673  140.6534  154.1034 C   0  0  0  0  0  0  0  0  0  0  0  0
  147.7272  141.9989  154.2144 C   0  0  0  0  0  0  0  0  0  0  0  0
  146.4091  143.9141  155.8260 H   0  0  0  0  0  0  0  0  0  0  0  0
  144.8415  143.1105  155.8519 H   0  0  0  0  0  0  0  0  0  0  0  0
  145.5110  143.6826  154.3281 H   0  0  0  0  0  0  0  0  0  0  0  0
  145.7573  141.2249  154.5322 H   0  0  0  0  0  0  0  0  0  0  0  0
  147.3455  141.8402  157.0569 H   0  0  0  0  0  0  0  0  0  0  0  0
  145.8378  140.9632  156.9565 H   0  0  0  0  0  0  0  0  0  0  0  0
  147.7227  139.3839  157.1673 H   0  0  0  0  0  0  0  0  0  0  0  0
  146.9443  139.1576  155.6344 H   0  0  0  0  0  0  0  0  0  0  0  0
  149.2347  139.8496  157.7884 H   0  0  0  0  0  0  0  0  0  0  0  0
  151.1221  139.7430  159.1098 H   0  0  0  0  0  0  0  0  0  0  0  0
  152.0478  139.4398  157.6513 H   0  0  0  0  0  0  0  0  0  0  0  0
  152.6322  141.6560  157.3765 H   0  0  0  0  0  0  0  0  0  0  0  0
  151.0897  142.2515  157.9132 H   0  0  0  0  0  0  0  0  0  0  0  0
  153.9853  141.3099  162.2165 H   0  0  0  0  0  0  0  0  0  0  0  0
  153.2595  143.9493  161.8398 H   0  0  0  0  0  0  0  0  0  0  0  0
  150.8319  144.2086  159.1651 H   0  0  0  0  0  0  0  0  0  0  0  0
  149.3576  140.7651  153.4829 H   0  0  0  0  0  0  0  0  0  0  0  0
  147.8412  139.9218  153.5911 H   0  0  0  0  0  0  0  0  0  0  0  0
  147.4690  142.3619  153.2191 H   0  0  0  0  0  0  0  0  0  0  0  0
  148.3943  142.7432  154.6517 H   0  0  0  0  0  0  0  0  0  0  0  0
  1  2  1  0  0  0  0
  1 21  1  0  0  0  0
  1 22  1  0  0  0  0
  1 23  1  0  0  0  0
  2 20  1  0  0  0  0
  2  3  1  0  0  0  0
  2 24  1  0  0  0  0
  3  4  1  0  0  0  0
  3 25  1  0  0  0  0
  3 26  1  0  0  0  0
  4  5  1  0  0  0  0
  4 27  1  0  0  0  0
  4 28  1  0  0  0  0
  5  6  1  0  0  0  0
  5 19  1  0  0  0  0
  6  7  2  0  0  0  0
  6  8  1  0  0  0  0
  8  9  1  0  0  0  0
  8 29  1  0  0  0  0
  9 10  1  0  0  0  0
  9 30  1  0  0  0  0
  9 31  1  0  0  0  0
 10 11  1  0  0  0  0
 10 32  1  0  0  0  0
 10 33  1  0  0  0  0
 11 15  1  0  0  0  0
 11 12  2  0  0  0  0
 12 13  1  0  0  0  0
 13 14  2  0  0  0  0
 13 34  1  0  0  0  0
 14 15  1  0  0  0  0
 14 35  1  0  0  0  0
 15 16  1  0  0  0  0
 16 17  1  0  0  0  0
 16 18  1  0  0  0  0
 16 36  1  0  0  0  0
 19 20  1  0  0  0  0
 19 37  1  0  0  0  0
 19 38  1  0  0  0  0
 20 39  1  0  0  0  0
 20 40  1  0  0  0  0
M  END
> <s_m_source_file>
AV-unprocessed.smi

> <i_m_source_file_index>
1039

> <i_lp_mmshare_version>
43012

> <i_f3d_flags>
0

> <s_epik_input>
W0NIM11bQ0hdMVtDSDJdW0NIMl1OKFtDSDJdW0NIMl0xKUMoPU8pW05IXVtDSDJdW0NIMl1jMm5bY0hdW2NIXW4yW0NIXShGKUY=

> <s_epik_cmdline>
J2VwaWtfcHl0aG9uJywgJy1waCcsICc3LjAnLCAnLXRuJywgJzgnLCAnLW1hJywgJzIwMCcsICctbWV0YWxfYmluZGluZycsICctaW1hZScsICc8aW5maWxlLm1hZT4nLCAnLW9tYWUnLCAnPG91dGZpbGUubWFlPic=

> <r_lp_tautomer_probability>
1

> <r_epik_Ionization_Penalty>
0.101783

> <r_epik_Ionization_Penalty_Charging>
0.101715

> <r_epik_Ionization_Penalty_Neutral>
6.87123e-05

> <r_epik_State_Penalty>
0.091697

> <r_epik_Charging_Adjusted_Penalty>
0.193412

> <i_epik_Tot_Q>
0

> <i_epik_Tot_abs_Q>
0

> <r_epik_Metal_State_Penalty>
0.0781553

> <b_epik_Metal_Only>
0

> <s_lp_Force_Field>
OPLS_2005

> <r_lp_Energy>
33.8957

> <b_lp_Chiralities_Consistent>
1

> <s_lp_Variant>
AV-unprocessed.smi:1039-1

> <Gold.Version>
5.8.1

> <Gold.Id.Protein>
6NUR|6NUR_protein|mol2

> <Gold.PLP.Fitness>
48.2388

> <Gold.PLP.PLP>
-46.7633

> <Gold.PLP.part.hbond>
-1.0000

> <Gold.PLP.part.metal>
0.0000

> <Gold.PLP.part.buried>
-5.0925

> <Gold.PLP.part.nonpolar>
-39.6286

> <Gold.PLP.part.repulsive>
0.0647

> <Gold.PLP.ligand.clash>
0.0000

> <Gold.PLP.ligand.torsion>
0.7351

> <Gold.PLP.Chemscore.Hbond>
0.9600

> <Gold.PLP.Chemscore.CHOScore>
0.0000

> <Gold.PLP.Chemscore.Metal>
0.0000

> <Gold.Chemscore.Hbonds>
donor molecule, donor type, donor heavy atom, donor atom, acceptor molecule, acceptor atom, score
      P1  H  7989  7998       L1     7  0.98

> <Gold.PLP.Chemscore.Internal.Correction>
0.0657

> <Gold.Rescore>
     Score         DG    S(hbond)    S(metal)    S(lipo)     H(rot)  DE(clash)    DE(int)     intcor
     12.81     -13.65       0.98        0.00      76.01       1.56       0.10       0.74       ----

> <Gold.Chemscore.Fitness>
12.8052

> <Gold.Chemscore.DG>
-13.6488

> <Gold.Chemscore.ZeroCoef>
-5.4800

> <Gold.Chemscore.Hbond>
0.9807

> <Gold.Chemscore.Metal>
0.0000

> <Gold.Chemscore.Lipo>
76.0143

> <Gold.Chemscore.Internal_Hbond>
0.0000

> <Gold.Chemscore.DEClash>
0.1003

> <Gold.Chemscore.DEInternal>
0.7433

> <Gold.Chemscore.Rot>
1.5626

> <Gold.Chemscore.Internal.Correction>
   9.000000E+99

> <Gold.Chemscore.Hbonds>
donor molecule, donor type, donor heavy atom, donor atom, acceptor molecule, acceptor atom, score
      P1  H  7989  7998       L1     7  0.93

> <Gold.Chemscore.Hbond.Weighted>
-3.2755

> <Gold.Chemscore.Metal.Weighted>
-0.0000

> <Gold.Chemscore.Lipo.Weighted>
-8.8937

> <Gold.Chemscore.Internal_Hbond.Weighted>
0.0000

> <Gold.Chemscore.DEClash.Weighted>
0.1003

> <Gold.Chemscore.DEInternal.Weighted>
0.7433

> <Gold.Chemscore.Rot.Weighted>
4.0004

> <Gold.Chemscore.Internal.Correction.Weighted>
   9.000000E+99

> <Gold.Protein.RotatedTorsions>
[ 6907 6896 6895 6894 ] final  -41.78 input  -60.11 | X-H torsion
[ 7974 7965 7964 7962 ] final -132.12 input  175.53 | X-H torsion
[ 8008 7997 7996 7995 ] final -177.71 input   59.86 | X-H torsion
[ 10167 10162 10161 10158 ] final    0.60 input  -65.29 | X-H torsion
[ 10718 10713 10712 10709 ] final   91.59 input   66.30 | X-H torsion
[ 10763 10752 10751 10750 ] final  -99.21 input  -60.55 | X-H torsion
[ 11005 11000 10999 10996 ] final    3.01 input  -57.11 | X-H torsion

> <Gold.Protein.ActiveResidues>
 VAL166  LYS551  ARG553  GLY616  TRP617  ASP618  TYR619  PRO620  LYS621  CYS622 
 ASP623  PHE694  ASN695  SER759  ASP760  ASP761  ALA762  ILE779  LEU786  VAL792 
 PHE793  MET794  SER795  GLU796  ALA797  LYS798  CYS799  TRP800  GLU811  SER814 

> <Gold.Protein.RotatedAtoms>
  150.9628  134.9013  159.7740 H   0  0  0  0  0  0  0  0  0  0  0  0  # atno 6907 bound_to 6896
  152.5162  134.3649  159.9308 H   0  0  0  0  0  0  0  0  0  0  0  0  # atno 6908 bound_to 6896
  151.3661  133.3831  159.2729 H   0  0  0  0  0  0  0  0  0  0  0  0  # atno 6909 bound_to 6896
  144.9315  140.7133  143.4903 H   0  0  0  0  0  0  0  0  0  0  0  0  # atno 7974 bound_to 7965
  156.0102  140.1239  157.0461 H   0  0  0  0  0  0  0  0  0  0  0  0  # atno 8008 bound_to 7997
  154.4273  140.1089  156.5888 H   0  0  0  0  0  0  0  0  0  0  0  0  # atno 8009 bound_to 7997
  155.6090  140.3471  155.4619 H   0  0  0  0  0  0  0  0  0  0  0  0  # atno 8010 bound_to 7997
  140.6721  143.7019  150.7945 H   0  0  0  0  0  0  0  0  0  0  0  0  # atno 10167 bound_to 10162
  157.6960  131.0413  150.3752 H   0  0  0  0  0  0  0  0  0  0  0  0  # atno 10718 bound_to 10713
  154.7479  135.4980  153.9237 H   0  0  0  0  0  0  0  0  0  0  0  0  # atno 10763 bound_to 10752
  153.1112  135.6709  153.9505 H   0  0  0  0  0  0  0  0  0  0  0  0  # atno 10764 bound_to 10752
  153.9264  135.3082  155.3425 H   0  0  0  0  0  0  0  0  0  0  0  0  # atno 10765 bound_to 10752
  140.5978  133.9864  155.8118 H   0  0  0  0  0  0  0  0  0  0  0  0  # atno 11005 bound_to 11000
  145.3135  139.1811  143.4626 LP  0  0  0  0  0  0  0  0  0  0  0  0  # atno 17320 bound_to 7965
  146.3249  140.3142  142.8629 LP  0  0  0  0  0  0  0  0  0  0  0  0  # atno 17321 bound_to 7965
  140.0706  143.5065  152.2582 LP  0  0  0  0  0  0  0  0  0  0  0  0  # atno 17342 bound_to 10162
  139.5995  144.7578  151.3206 LP  0  0  0  0  0  0  0  0  0  0  0  0  # atno 17343 bound_to 10162
  156.4173  130.3946  149.6850 LP  0  0  0  0  0  0  0  0  0  0  0  0  # atno 17370 bound_to 10713
  156.4113  130.7723  151.2736 LP  0  0  0  0  0  0  0  0  0  0  0  0  # atno 17371 bound_to 10713
  141.0892  133.9943  157.3264 LP  0  0  0  0  0  0  0  0  0  0  0  0  # atno 17394 bound_to 11000
  139.9245  135.0201  156.8186 LP  0  0  0  0  0  0  0  0  0  0  0  0  # atno 17395 bound_to 11000

$$$$
