AV-unprocessed.smi:3055|AV-procd|sdf|11644|dock8
  -GOLD-   2272017 43D 1   1.00000     0.00000
 Structure written by MMmdl.
 47 49  0  0  0  0  0  0  0  0  2 V2000
  150.0986  133.1378  155.5067 O   0  0  0  0  0  0  0  0  0  0  0  0
  149.6718  133.4918  154.4068 C   0  0  0  0  0  0  0  0  0  0  0  0
  149.3900  134.7750  154.1304 N   0  0  0  0  0  0  0  0  0  0  0  0
  149.5739  135.8815  155.0587 C   0  0  0  0  0  0  0  0  0  0  0  0
  150.9119  136.5854  154.7980 C   0  0  0  0  0  0  0  0  0  0  0  0
  150.7662  138.0265  154.8231 N   0  0  0  0  0  0  0  0  0  0  0  0
  149.5796  138.7473  154.8485 C   0  0  0  0  0  0  0  0  0  0  0  0
  149.9290  140.0786  154.8606 C   0  0  0  0  0  0  0  0  0  0  0  0
  151.3168  140.1993  154.8441 N   0  0  0  0  0  0  0  0  0  0  0  0
  151.7436  138.9431  154.8219 C   0  0  0  0  0  0  0  0  0  0  0  0
  149.4184  132.6229  153.3952 N   0  0  0  0  0  0  0  0  0  0  0  0
  149.7372  131.1866  153.3875 C   0  0  0  0  0  0  0  0  0  0  0  0
  148.4450  130.4039  153.6738 C   0  0  0  0  0  0  0  0  0  0  0  0
  147.3403  130.7693  152.6631 C   0  0  0  0  0  0  0  0  0  0  0  0
  147.1398  132.3026  152.5327 C   0  0  2  0  0  0  0  0  0  0  0  0
  146.1740  132.6462  151.4518 N   0  3  0  0  0  0  0  0  0  0  0  0
  144.8514  131.9904  151.5467 C   0  0  0  0  0  0  0  0  0  0  0  0
  143.9206  132.8523  150.7025 C   0  0  0  0  0  0  0  0  0  0  0  0
  144.4196  134.2646  150.9829 C   0  0  0  0  0  0  0  0  0  0  0  0
  145.9175  134.0986  151.2750 C   0  0  0  0  0  0  0  0  0  0  0  0
  148.5166  132.9702  152.2900 C   0  0  0  0  0  0  0  0  0  0  0  0
  149.0274  134.9979  153.2149 H   0  0  0  0  0  0  0  0  0  0  0  0
  148.7480  136.5854  154.9455 H   0  0  0  0  0  0  0  0  0  0  0  0
  149.5424  135.5079  156.0838 H   0  0  0  0  0  0  0  0  0  0  0  0
  151.6478  136.3004  155.5512 H   0  0  0  0  0  0  0  0  0  0  0  0
  151.3178  136.2919  153.8285 H   0  0  0  0  0  0  0  0  0  0  0  0
  148.6121  138.2668  154.8539 H   0  0  0  0  0  0  0  0  0  0  0  0
  149.2940  140.9520  154.8791 H   0  0  0  0  0  0  0  0  0  0  0  0
  152.7922  138.6842  154.8027 H   0  0  0  0  0  0  0  0  0  0  0  0
  150.1318  130.9099  152.4085 H   0  0  0  0  0  0  0  0  0  0  0  0
  150.5108  130.9005  154.1001 H   0  0  0  0  0  0  0  0  0  0  0  0
  148.6404  129.3317  153.6402 H   0  0  0  0  0  0  0  0  0  0  0  0
  148.1023  130.6245  154.6858 H   0  0  0  0  0  0  0  0  0  0  0  0
  147.6054  130.3560  151.6888 H   0  0  0  0  0  0  0  0  0  0  0  0
  146.4148  130.2786  152.9647 H   0  0  0  0  0  0  0  0  0  0  0  0
  146.7321  132.6753  153.4744 H   0  0  0  0  0  0  0  0  0  0  0  0
  144.8816  130.9573  151.1987 H   0  0  0  0  0  0  0  0  0  0  0  0
  144.5127  131.9924  152.5844 H   0  0  0  0  0  0  0  0  0  0  0  0
  144.0498  132.6147  149.6456 H   0  0  0  0  0  0  0  0  0  0  0  0
  142.8686  132.7145  150.9545 H   0  0  0  0  0  0  0  0  0  0  0  0
  144.2250  134.9477  150.1555 H   0  0  0  0  0  0  0  0  0  0  0  0
  143.9160  134.6612  151.8657 H   0  0  0  0  0  0  0  0  0  0  0  0
  146.1839  134.6701  152.1656 H   0  0  0  0  0  0  0  0  0  0  0  0
  146.5251  134.4691  150.4489 H   0  0  0  0  0  0  0  0  0  0  0  0
  148.4238  134.0508  152.1767 H   0  0  0  0  0  0  0  0  0  0  0  0
  148.9450  132.6194  151.3497 H   0  0  0  0  0  0  0  0  0  0  0  0
  146.5759  132.3268  150.5819 H   0  0  0  0  0  0  0  0  0  0  0  0
  1  2  2  0  0  0  0
  2  3  1  0  0  0  0
  2 11  1  0  0  0  0
  3  4  1  0  0  0  0
  3 22  1  0  0  0  0
  4  5  1  0  0  0  0
  4 23  1  0  0  0  0
  4 24  1  0  0  0  0
  5  6  1  0  0  0  0
  5 25  1  0  0  0  0
  5 26  1  0  0  0  0
  6 10  1  0  0  0  0
  6  7  1  0  0  0  0
  7  8  2  0  0  0  0
  7 27  1  0  0  0  0
  8  9  1  0  0  0  0
  8 28  1  0  0  0  0
  9 10  2  0  0  0  0
 10 29  1  0  0  0  0
 11 21  1  0  0  0  0
 11 12  1  0  0  0  0
 12 13  1  0  0  0  0
 12 30  1  0  0  0  0
 12 31  1  0  0  0  0
 13 14  1  0  0  0  0
 13 32  1  0  0  0  0
 13 33  1  0  0  0  0
 14 15  1  0  0  0  0
 14 34  1  0  0  0  0
 14 35  1  0  0  0  0
 15 16  1  0  0  0  0
 15 21  1  0  0  0  0
 15 36  1  0  0  0  0
 16 20  1  0  0  0  0
 16 17  1  0  0  0  0
 16 47  1  0  0  0  0
 17 18  1  0  0  0  0
 17 37  1  0  0  0  0
 17 38  1  0  0  0  0
 18 19  1  0  0  0  0
 18 39  1  0  0  0  0
 18 40  1  0  0  0  0
 19 20  1  0  0  0  0
 19 41  1  0  0  0  0
 19 42  1  0  0  0  0
 20 43  1  0  0  0  0
 20 44  1  0  0  0  0
 21 45  1  0  0  0  0
 21 46  1  0  0  0  0
M  CHG  1  16   1
M  END
> <s_m_source_file>
AV-unprocessed.smi

> <i_m_source_file_index>
3055

> <i_lp_mmshare_version>
43012

> <i_f3d_flags>
0

> <s_epik_input>
W2NIXTFuW2NIXVtjSF1uMVtDSDJdW0NIMl1bTkhdQyg9TylOMltDSDJdW0NIMl1bQ0gyXVtDQEhdKFtDSDJdMilOM1tDSDJdW0NIMl1bQ0gyXVtDSDJdMw==

> <s_epik_cmdline>
J2VwaWtfcHl0aG9uJywgJy1waCcsICc3LjAnLCAnLXRuJywgJzgnLCAnLW1hJywgJzIwMCcsICctbWV0YWxfYmluZGluZycsICctaW1hZScsICc8aW5maWxlLm1hZT4nLCAnLW9tYWUnLCAnPG91dGZpbGUubWFlPic=

> <r_lp_tautomer_probability>
1

> <r_epik_Ionization_Penalty>
0.618392

> <r_epik_Ionization_Penalty_Charging>
0.618355

> <r_epik_Ionization_Penalty_Neutral>
3.68592e-05

> <r_epik_State_Penalty>
0.635579

> <r_epik_Charging_Adjusted_Penalty>
1.25393

> <i_epik_Tot_Q>
1

> <i_epik_Tot_abs_Q>
1

> <r_epik_Metal_State_Penalty>
0.306847

> <b_epik_Metal_Only>
0

> <s_lp_Force_Field>
OPLS_2005

> <r_lp_Energy>
57.1272

> <b_lp_Chiralities_Consistent>
1

> <s_lp_Variant>
AV-unprocessed.smi:3055-4

> <Gold.Version>
5.8.1

> <Gold.Id.Protein>
6NUR|6NUR_protein|mol2

> <Gold.PLP.Fitness>
44.1306

> <Gold.PLP.PLP>
-40.5236

> <Gold.PLP.part.hbond>
-1.8956

> <Gold.PLP.part.metal>
0.0000

> <Gold.PLP.part.buried>
-5.2158

> <Gold.PLP.part.nonpolar>
-33.7109

> <Gold.PLP.part.repulsive>
0.0937

> <Gold.PLP.ligand.clash>
1.0282

> <Gold.PLP.ligand.torsion>
0.6856

> <Gold.PLP.Chemscore.Hbond>
1.9760

> <Gold.PLP.Chemscore.CHOScore>
0.0000

> <Gold.PLP.Chemscore.Metal>
0.0000

> <Gold.Chemscore.Hbonds>
donor molecule, donor type, donor heavy atom, donor atom, acceptor molecule, acceptor atom, score
      L1  H     3    22       P1  7948  0.84
      P1  H  7989  7998       L1     9  1.00

> <Gold.PLP.Chemscore.Internal.Correction>
0.0784

> <Gold.Rescore>
     Score         DG    S(hbond)    S(metal)    S(lipo)     H(rot)  DE(clash)    DE(int)     intcor
     13.30     -13.96       1.31        0.00      74.70       1.81       0.00       0.66       ----

> <Gold.Chemscore.Fitness>
13.2981

> <Gold.Chemscore.DG>
-13.9573

> <Gold.Chemscore.ZeroCoef>
-5.4800

> <Gold.Chemscore.Hbond>
1.3062

> <Gold.Chemscore.Metal>
0.0000

> <Gold.Chemscore.Lipo>
74.6973

> <Gold.Chemscore.Internal_Hbond>
0.0000

> <Gold.Chemscore.DEClash>
0.0000

> <Gold.Chemscore.DEInternal>
0.6591

> <Gold.Chemscore.Rot>
1.8066

> <Gold.Chemscore.Internal.Correction>
   9.000000E+99

> <Gold.Chemscore.Hbonds>
donor molecule, donor type, donor heavy atom, donor atom, acceptor molecule, acceptor atom, score
      L1  H     3    22       P1  7948  0.16
      P1  H  7989  7998       L1     9  0.32

> <Gold.Chemscore.Hbond.Weighted>
-4.3626

> <Gold.Chemscore.Metal.Weighted>
-0.0000

> <Gold.Chemscore.Lipo.Weighted>
-8.7396

> <Gold.Chemscore.Internal_Hbond.Weighted>
0.0000

> <Gold.Chemscore.DEClash.Weighted>
0.0000

> <Gold.Chemscore.DEInternal.Weighted>
0.6591

> <Gold.Chemscore.Rot.Weighted>
4.6249

> <Gold.Chemscore.Internal.Correction.Weighted>
   9.000000E+99

> <Gold.Protein.RotatedTorsions>
[ 6907 6896 6895 6894 ] final  106.94 input  -60.11 | X-H torsion
[ 7974 7965 7964 7962 ] final   81.67 input  175.53 | X-H torsion
[ 8008 7997 7996 7995 ] final -109.15 input   59.86 | X-H torsion
[ 10167 10162 10161 10158 ] final  150.85 input  -65.29 | X-H torsion
[ 10718 10713 10712 10709 ] final -133.48 input   66.30 | X-H torsion
[ 10763 10752 10751 10750 ] final   90.59 input  -60.55 | X-H torsion
[ 11005 11000 10999 10996 ] final  -40.09 input  -57.11 | X-H torsion

> <Gold.Protein.ActiveResidues>
 VAL166  LYS551  ARG553  GLY616  TRP617  ASP618  TYR619  PRO620  LYS621  CYS622 
 ASP623  PHE694  ASN695  SER759  ASP760  ASP761  ALA762  ILE779  LEU786  VAL792 
 PHE793  MET794  SER795  GLU796  ALA797  LYS798  CYS799  TRP800  GLU811  SER814 

> <Gold.Protein.RotatedAtoms>
  152.5174  133.9308  159.7579 H   0  0  0  0  0  0  0  0  0  0  0  0  # atno 6907 bound_to 6896
  150.9659  133.6387  159.2753 H   0  0  0  0  0  0  0  0  0  0  0  0  # atno 6908 bound_to 6896
  151.3615  135.0910  159.9489 H   0  0  0  0  0  0  0  0  0  0  0  0  # atno 6909 bound_to 6896
  145.6351  139.2413  143.2062 H   0  0  0  0  0  0  0  0  0  0  0  0  # atno 7974 bound_to 7965
  154.9550  140.0400  157.2163 H   0  0  0  0  0  0  0  0  0  0  0  0  # atno 8008 bound_to 7997
  154.7942  140.2840  155.5947 H   0  0  0  0  0  0  0  0  0  0  0  0  # atno 8009 bound_to 7997
  156.2953  140.2567  156.2796 H   0  0  0  0  0  0  0  0  0  0  0  0  # atno 8010 bound_to 7997
  139.4846  144.5488  151.7436 H   0  0  0  0  0  0  0  0  0  0  0  0  # atno 10167 bound_to 10162
  156.2453  130.7121  151.0998 H   0  0  0  0  0  0  0  0  0  0  0  0  # atno 10718 bound_to 10713
  153.1992  135.4428  155.0245 H   0  0  0  0  0  0  0  0  0  0  0  0  # atno 10763 bound_to 10752
  154.8137  135.3305  154.7239 H   0  0  0  0  0  0  0  0  0  0  0  0  # atno 10764 bound_to 10752
  153.7685  135.6986  153.4966 H   0  0  0  0  0  0  0  0  0  0  0  0  # atno 10765 bound_to 10752
  141.0150  133.6890  156.2275 H   0  0  0  0  0  0  0  0  0  0  0  0  # atno 11005 bound_to 11000
  146.1325  140.7166  142.9405 LP  0  0  0  0  0  0  0  0  0  0  0  0  # atno 17320 bound_to 7965
  144.7178  140.4271  143.7031 LP  0  0  0  0  0  0  0  0  0  0  0  0  # atno 17321 bound_to 7965
  140.5039  144.1127  150.5978 LP  0  0  0  0  0  0  0  0  0  0  0  0  # atno 17342 bound_to 10162
  140.4030  143.2694  151.9925 LP  0  0  0  0  0  0  0  0  0  0  0  0  # atno 17343 bound_to 10162
  157.7192  131.0691  150.6203 LP  0  0  0  0  0  0  0  0  0  0  0  0  # atno 17370 bound_to 10713
  156.6279  130.4424  149.5797 LP  0  0  0  0  0  0  0  0  0  0  0  0  # atno 17371 bound_to 10713
  140.6670  134.4907  157.5586 LP  0  0  0  0  0  0  0  0  0  0  0  0  # atno 17394 bound_to 11000
  139.9111  134.8342  156.1524 LP  0  0  0  0  0  0  0  0  0  0  0  0  # atno 17395 bound_to 11000

$$$$
