AV-unprocessed.smi:1056|AV-procd|sdf|4645|dock10
  -GOLD-   22720 3153D 1   1.00000     0.00000
 Structure written by MMmdl.
 44 46  0  0  0  0  0  0  0  0  3 V2000
  152.2238  143.0105  160.7949 C   0  0  0  0  0  0  0  0  0  0  0  0
  151.9207  142.2261  159.5299 C   0  0  0  0  0  0  0  0  0  0  0  0
  152.6165  141.0207  159.2861 C   0  0  0  0  0  0  0  0  0  0  0  0
  152.3615  140.2596  158.1245 C   0  0  0  0  0  0  0  0  0  0  0  0
  152.9190  139.0694  157.6898 N   0  0  0  0  0  0  0  0  0  0  0  0
  152.2693  138.8703  156.5471 C   0  0  0  0  0  0  0  0  0  0  0  0
  151.3585  139.7943  156.1864 N   0  0  0  0  0  0  0  0  0  0  0  0
  150.5367  139.7858  154.9898 C   0  0  0  0  0  0  0  0  0  0  0  0
  149.6278  138.5444  154.9033 C   0  0  1  0  0  0  0  0  0  0  0  0
  148.8617  138.6632  153.7210 O   0  0  0  0  0  0  0  0  0  0  0  0
  150.4141  137.2144  154.8659 C   0  0  0  0  0  0  0  0  0  0  0  0
  149.5404  136.0294  154.6718 N   0  3  1  0  0  0  0  0  0  0  0  0
  150.2585  134.7490  154.8985 C   0  0  0  0  0  0  0  0  0  0  0  0
  149.4172  133.5655  154.3837 C   0  0  0  0  0  0  0  0  0  0  0  0
  148.0339  133.6767  154.8612 N   0  5  0  0  0  0  0  0  0  0  0  0
  147.4030  134.8224  155.2667 C   0  0  0  0  0  0  0  0  0  0  0  0
  146.2080  134.9204  155.5362 O   0  0  0  0  0  0  0  0  0  0  0  0
  148.2708  136.0964  155.4518 C   0  0  0  0  0  0  0  0  0  0  0  0
  151.3822  140.7398  157.2066 C   0  0  0  0  0  0  0  0  0  0  0  0
  150.6851  141.9390  157.4367 C   0  0  0  0  0  0  0  0  0  0  0  0
  150.9538  142.6884  158.6013 C   0  0  0  0  0  0  0  0  0  0  0  0
  150.1960  143.9820  158.8410 C   0  0  0  0  0  0  0  0  0  0  0  0
  152.9482  142.4905  161.4222 H   0  0  0  0  0  0  0  0  0  0  0  0
  151.3175  143.1544  161.3832 H   0  0  0  0  0  0  0  0  0  0  0  0
  152.6360  143.9891  160.5481 H   0  0  0  0  0  0  0  0  0  0  0  0
  153.3535  140.6687  159.9929 H   0  0  0  0  0  0  0  0  0  0  0  0
  152.4682  138.0031  155.9341 H   0  0  0  0  0  0  0  0  0  0  0  0
  149.9339  140.6953  154.9875 H   0  0  0  0  0  0  0  0  0  0  0  0
  151.1891  139.8449  154.1175 H   0  0  0  0  0  0  0  0  0  0  0  0
  148.9443  138.5644  155.7514 H   0  0  0  0  0  0  0  0  0  0  0  0
  149.2918  139.2677  153.1358 H   0  0  0  0  0  0  0  0  0  0  0  0
  151.1446  137.2725  154.0576 H   0  0  0  0  0  0  0  0  0  0  0  0
  150.9877  137.0703  155.7818 H   0  0  0  0  0  0  0  0  0  0  0  0
  151.2174  134.7507  154.3792 H   0  0  0  0  0  0  0  0  0  0  0  0
  150.4737  134.6354  155.9623 H   0  0  0  0  0  0  0  0  0  0  0  0
  149.4490  133.5659  153.2940 H   0  0  0  0  0  0  0  0  0  0  0  0
  149.8824  132.6302  154.6940 H   0  0  0  0  0  0  0  0  0  0  0  0
  148.4915  136.2140  156.5137 H   0  0  0  0  0  0  0  0  0  0  0  0
  147.6827  136.9609  155.1460 H   0  0  0  0  0  0  0  0  0  0  0  0
  149.9498  142.2798  156.7230 H   0  0  0  0  0  0  0  0  0  0  0  0
  149.5329  144.2152  158.0075 H   0  0  0  0  0  0  0  0  0  0  0  0
  150.8884  144.8157  158.9600 H   0  0  0  0  0  0  0  0  0  0  0  0
  149.5877  143.9050  159.7423 H   0  0  0  0  0  0  0  0  0  0  0  0
  149.2797  136.0149  153.6966 H   0  0  0  0  0  0  0  0  0  0  0  0
  1  2  1  0  0  0  0
  1 23  1  0  0  0  0
  1 24  1  0  0  0  0
  1 25  1  0  0  0  0
  2 21  1  0  0  0  0
  2  3  2  0  0  0  0
  3  4  1  0  0  0  0
  3 26  1  0  0  0  0
  4 19  2  0  0  0  0
  4  5  1  0  0  0  0
  5  6  2  0  0  0  0
  6  7  1  0  0  0  0
  6 27  1  0  0  0  0
  7  8  1  0  0  0  0
  7 19  1  0  0  0  0
  8  9  1  0  0  0  0
  8 28  1  0  0  0  0
  8 29  1  0  0  0  0
  9 10  1  0  0  0  0
  9 11  1  0  0  0  0
  9 30  1  0  0  0  0
 10 31  1  0  0  0  0
 11 12  1  0  0  0  0
 11 32  1  0  0  0  0
 11 33  1  0  0  0  0
 12 18  1  0  0  0  0
 12 13  1  0  0  0  0
 12 44  1  0  0  0  0
 13 14  1  0  0  0  0
 13 34  1  0  0  0  0
 13 35  1  0  0  0  0
 14 15  1  0  0  0  0
 14 36  1  0  0  0  0
 14 37  1  0  0  0  0
 15 16  1  0  0  0  0
 16 17  2  0  0  0  0
 16 18  1  0  0  0  0
 18 38  1  0  0  0  0
 18 39  1  0  0  0  0
 19 20  1  0  0  0  0
 20 21  2  0  0  0  0
 20 40  1  0  0  0  0
 21 22  1  0  0  0  0
 22 41  1  0  0  0  0
 22 42  1  0  0  0  0
 22 43  1  0  0  0  0
M  CHG  1  12   1
M  CHG  1  15  -1
M  END
> <s_m_source_file>
AV-unprocessed.smi

> <i_m_source_file_index>
1056

> <i_lp_mmshare_version>
43012

> <i_f3d_flags>
0

> <s_epik_input>
W0NIM11jKFtjSF0xKWMoW0NIM10pW2NIXWMoYzEyKW4oW2NIXW4yKVtDSDJdW0NASF0oW09IXSlbQ0gyXU4zW0NIMl1bQ0gyXVtOSF1DKD1PKVtDSDJdMw==

> <s_epik_cmdline>
J2VwaWtfcHl0aG9uJywgJy1waCcsICc3LjAnLCAnLXRuJywgJzgnLCAnLW1hJywgJzIwMCcsICctbWV0YWxfYmluZGluZycsICctaW1hZScsICc8aW5maWxlLm1hZT4nLCAnLW9tYWUnLCAnPG91dGZpbGUubWFlPic=

> <r_epik_Ionization_Penalty>
5.13411

> <r_epik_Ionization_Penalty_Charging>
5.04792

> <r_epik_Ionization_Penalty_Neutral>
0.0861879

> <r_epik_State_Penalty>
5.18224

> <r_epik_Charging_Adjusted_Penalty>
10.2302

> <i_epik_Tot_Q>
0

> <i_epik_Tot_abs_Q>
2

> <r_epik_Metal_State_Penalty>
1.33873

> <b_epik_Metal_Only>
1

> <s_lp_Force_Field>
OPLS_2005

> <r_lp_Energy>
19.55

> <b_lp_Chiralities_Consistent>
1

> <s_lp_Variant>
AV-unprocessed.smi:1056-16

> <Gold.Version>
5.8.1

> <Gold.Id.Protein>
6NUR|6NUR_protein|mol2

> <Gold.PLP.Fitness>
48.1707

> <Gold.PLP.PLP>
-38.0463

> <Gold.PLP.part.hbond>
-4.0000

> <Gold.PLP.part.metal>
0.0000

> <Gold.PLP.part.buried>
-1.7408

> <Gold.PLP.part.nonpolar>
-32.6512

> <Gold.PLP.part.repulsive>
0.1076

> <Gold.PLP.ligand.clash>
0.0000

> <Gold.PLP.ligand.torsion>
0.1269

> <Gold.PLP.Chemscore.Hbond>
3.4500

> <Gold.PLP.Chemscore.CHOScore>
0.0000

> <Gold.PLP.Chemscore.Metal>
0.0000

> <Gold.Chemscore.Hbonds>
donor molecule, donor type, donor heavy atom, donor atom, acceptor molecule, acceptor atom, score
      L1  H    10    31       P1  7957  0.73
      L1  H    12    44       P1  7948  2.00
      P1  H  7997  8010       L1     5  0.33

> <Gold.PLP.Chemscore.Internal.Correction>
0.0283

> <Gold.Rescore>
     Score         DG    S(hbond)    S(metal)    S(lipo)     H(rot)  DE(clash)    DE(int)     intcor
     17.04     -18.52       1.95        0.00     106.57       2.31       0.30       1.18       ----

> <Gold.Chemscore.Fitness>
17.0426

> <Gold.Chemscore.DG>
-18.5228

> <Gold.Chemscore.ZeroCoef>
-5.4800

> <Gold.Chemscore.Hbond>
1.9460

> <Gold.Chemscore.Metal>
0.0000

> <Gold.Chemscore.Lipo>
106.5705

> <Gold.Chemscore.Internal_Hbond>
0.0000

> <Gold.Chemscore.DEClash>
0.3004

> <Gold.Chemscore.DEInternal>
1.1799

> <Gold.Chemscore.Rot>
2.3147

> <Gold.Chemscore.Internal.Correction>
   9.000000E+99

> <Gold.Chemscore.Hbonds>
donor molecule, donor type, donor heavy atom, donor atom, acceptor molecule, acceptor atom, score
      L1  H    10    31       P1  7957  0.69
      L1  H    12    44       P1  7948  0.78

> <Gold.Chemscore.Hbond.Weighted>
-6.4996

> <Gold.Chemscore.Metal.Weighted>
-0.0000

> <Gold.Chemscore.Lipo.Weighted>
-12.4688

> <Gold.Chemscore.Internal_Hbond.Weighted>
0.0000

> <Gold.Chemscore.DEClash.Weighted>
0.3004

> <Gold.Chemscore.DEInternal.Weighted>
1.1799

> <Gold.Chemscore.Rot.Weighted>
5.9256

> <Gold.Chemscore.Internal.Correction.Weighted>
   9.000000E+99

> <Gold.Protein.RotatedTorsions>
[ 6907 6896 6895 6894 ] final  146.76 input  -60.11 | X-H torsion
[ 7974 7965 7964 7962 ] final -169.85 input  175.53 | X-H torsion
[ 8008 7997 7996 7995 ] final   53.11 input   59.86 | X-H torsion
[ 10167 10162 10161 10158 ] final   23.52 input  -65.29 | X-H torsion
[ 10718 10713 10712 10709 ] final   81.36 input   66.30 | X-H torsion
[ 10763 10752 10751 10750 ] final  -56.48 input  -60.55 | X-H torsion
[ 11005 11000 10999 10996 ] final  108.28 input  -57.11 | X-H torsion

> <Gold.Protein.ActiveResidues>
 VAL166  LYS551  ARG553  GLY616  TRP617  ASP618  TYR619  PRO620  LYS621  CYS622 
 ASP623  PHE694  ASN695  SER759  ASP760  ASP761  ALA762  ILE779  LEU786  VAL792 
 PHE793  MET794  SER795  GLU796  ALA797  LYS798  CYS799  TRP800  GLU811  SER814 

> <Gold.Protein.RotatedAtoms>
  152.1637  133.4598  159.4873 H   0  0  0  0  0  0  0  0  0  0  0  0  # atno 6907 bound_to 6896
  150.6910  134.2040  159.4342 H   0  0  0  0  0  0  0  0  0  0  0  0  # atno 6908 bound_to 6896
  151.9943  134.9962  160.0613 H   0  0  0  0  0  0  0  0  0  0  0  0  # atno 6909 bound_to 6896
  144.7179  140.2159  143.6322 H   0  0  0  0  0  0  0  0  0  0  0  0  # atno 7974 bound_to 7965
  155.4628  140.3462  155.4315 H   0  0  0  0  0  0  0  0  0  0  0  0  # atno 8008 bound_to 7997
  156.1150  140.1471  156.9315 H   0  0  0  0  0  0  0  0  0  0  0  0  # atno 8009 bound_to 7997
  154.4782  140.0878  156.7293 H   0  0  0  0  0  0  0  0  0  0  0  0  # atno 8010 bound_to 7997
  140.5262  143.9919  150.6441 H   0  0  0  0  0  0  0  0  0  0  0  0  # atno 10167 bound_to 10162
  157.6831  131.0000  150.2215 H   0  0  0  0  0  0  0  0  0  0  0  0  # atno 10718 bound_to 10713
  154.2073  135.6400  153.5105 H   0  0  0  0  0  0  0  0  0  0  0  0  # atno 10763 bound_to 10752
  152.9998  135.5465  154.6252 H   0  0  0  0  0  0  0  0  0  0  0  0  # atno 10764 bound_to 10752
  154.5680  135.2914  155.0828 H   0  0  0  0  0  0  0  0  0  0  0  0  # atno 10765 bound_to 10752
  139.8841  134.9426  156.5949 H   0  0  0  0  0  0  0  0  0  0  0  0  # atno 11005 bound_to 11000
  145.8547  139.2193  143.1751 LP  0  0  0  0  0  0  0  0  0  0  0  0  # atno 17320 bound_to 7965
  146.0228  140.8331  142.9914 LP  0  0  0  0  0  0  0  0  0  0  0  0  # atno 17321 bound_to 7965
  140.3282  143.3094  152.0715 LP  0  0  0  0  0  0  0  0  0  0  0  0  # atno 17342 bound_to 10162
  139.4939  144.6527  151.6639 LP  0  0  0  0  0  0  0  0  0  0  0  0  # atno 17343 bound_to 10162
  156.2866  130.3740  149.7883 LP  0  0  0  0  0  0  0  0  0  0  0  0  # atno 17370 bound_to 10713
  156.5555  130.8360  151.3313 LP  0  0  0  0  0  0  0  0  0  0  0  0  # atno 17371 bound_to 10713
  140.7927  133.8569  155.8660 LP  0  0  0  0  0  0  0  0  0  0  0  0  # atno 17394 bound_to 11000
  140.9662  134.1590  157.4614 LP  0  0  0  0  0  0  0  0  0  0  0  0  # atno 17395 bound_to 11000

$$$$
