AV-unprocessed.smi:2703|AV-procd|sdf|10441|dock2
  -GOLD-   2272014483D 1   1.00000     0.00000
 Structure written by MMmdl.
 43 45  0  0  0  0  0  0  0  0  4 V2000
  152.2296  143.4105  159.5973 C   0  0  0  0  0  0  0  0  0  0  0  0
  151.8578  142.4152  158.5115 C   0  0  0  0  0  0  0  0  0  0  0  0
  150.9831  142.8337  157.4836 C   0  0  0  0  0  0  0  0  0  0  0  0
  150.6621  141.9007  156.5046 C   0  0  0  0  0  0  0  0  0  0  0  0
  149.8448  142.0032  155.3768 N   0  3  0  0  0  0  0  0  0  0  0  0
  149.8363  140.8147  154.7123 C   0  0  0  0  0  0  0  0  0  0  0  0
  150.6347  139.9539  155.3997 N   0  0  0  0  0  0  0  0  0  0  0  0
  150.9613  138.5490  155.1166 C   0  0  0  0  0  0  0  0  0  0  0  0
  149.7583  137.6027  155.2965 C   0  0  1  0  0  0  0  0  0  0  0  0
  148.9165  137.6682  154.1614 O   0  0  0  0  0  0  0  0  0  0  0  0
  150.2049  136.1470  155.5044 C   0  0  0  0  0  0  0  0  0  0  0  0
  148.7935  135.0229  155.7157 S   0  0  0  0  0  0  0  0  0  0  0  0
  149.3228  133.3857  155.2724 C   0  0  0  0  0  0  0  0  0  0  0  0
  148.8792  132.7467  154.0931 C   0  0  0  0  0  0  0  0  0  0  0  0
  149.3278  131.4513  153.7922 C   0  0  0  0  0  0  0  0  0  0  0  0
  150.2129  130.8185  154.6774 C   0  0  0  0  0  0  0  0  0  0  0  0
  150.6277  131.4923  155.8419 C   0  0  0  0  0  0  0  0  0  0  0  0
  150.1892  132.7553  156.1353 N   0  3  0  0  0  0  0  0  0  0  0  0
  150.5980  133.3292  157.2129 O   0  5  0  0  0  0  0  0  0  0  0  0
  151.1754  140.5891  156.5243 C   0  0  0  0  0  0  0  0  0  0  0  0
  152.0407  140.1619  157.5290 C   0  0  0  0  0  0  0  0  0  0  0  0
  152.3820  141.0968  158.5324 C   0  0  0  0  0  0  0  0  0  0  0  0
  153.3273  140.6594  159.6384 C   0  0  0  0  0  0  0  0  0  0  0  0
  151.7354  144.3707  159.4453 H   0  0  0  0  0  0  0  0  0  0  0  0
  153.3055  143.5866  159.6023 H   0  0  0  0  0  0  0  0  0  0  0  0
  151.9345  143.0361  160.5778 H   0  0  0  0  0  0  0  0  0  0  0  0
  150.5823  143.8365  157.4599 H   0  0  0  0  0  0  0  0  0  0  0  0
  149.2919  140.5937  153.8053 H   0  0  0  0  0  0  0  0  0  0  0  0
  151.3811  138.4718  154.1132 H   0  0  0  0  0  0  0  0  0  0  0  0
  151.7603  138.2643  155.8025 H   0  0  0  0  0  0  0  0  0  0  0  0
  149.1803  137.9269  156.1630 H   0  0  0  0  0  0  0  0  0  0  0  0
  149.1226  138.4572  153.6828 H   0  0  0  0  0  0  0  0  0  0  0  0
  150.8094  135.8144  154.6596 H   0  0  0  0  0  0  0  0  0  0  0  0
  150.8280  136.0761  156.3965 H   0  0  0  0  0  0  0  0  0  0  0  0
  148.1968  133.2335  153.4144 H   0  0  0  0  0  0  0  0  0  0  0  0
  148.9967  130.9499  152.8947 H   0  0  0  0  0  0  0  0  0  0  0  0
  150.5731  129.8219  154.4684 H   0  0  0  0  0  0  0  0  0  0  0  0
  151.3059  131.0690  156.5690 H   0  0  0  0  0  0  0  0  0  0  0  0
  152.4447  139.1605  157.5427 H   0  0  0  0  0  0  0  0  0  0  0  0
  153.6535  139.6281  159.5002 H   0  0  0  0  0  0  0  0  0  0  0  0
  152.8376  140.7263  160.6102 H   0  0  0  0  0  0  0  0  0  0  0  0
  154.2167  141.2895  159.6540 H   0  0  0  0  0  0  0  0  0  0  0  0
  149.3302  142.8226  155.0800 H   0  0  0  0  0  0  0  0  0  0  0  0
  1  2  1  0  0  0  0
  1 24  1  0  0  0  0
  1 25  1  0  0  0  0
  1 26  1  0  0  0  0
  2 22  1  0  0  0  0
  2  3  2  0  0  0  0
  3  4  1  0  0  0  0
  3 27  1  0  0  0  0
  4 20  2  0  0  0  0
  4  5  1  0  0  0  0
  5  6  2  0  0  0  0
  5 43  1  0  0  0  0
  6  7  1  0  0  0  0
  6 28  1  0  0  0  0
  7  8  1  0  0  0  0
  7 20  1  0  0  0  0
  8  9  1  0  0  0  0
  8 29  1  0  0  0  0
  8 30  1  0  0  0  0
  9 10  1  0  0  0  0
  9 11  1  0  0  0  0
  9 31  1  0  0  0  0
 10 32  1  0  0  0  0
 11 12  1  0  0  0  0
 11 33  1  0  0  0  0
 11 34  1  0  0  0  0
 12 13  1  0  0  0  0
 13 18  1  0  0  0  0
 13 14  2  0  0  0  0
 14 15  1  0  0  0  0
 14 35  1  0  0  0  0
 15 16  2  0  0  0  0
 15 36  1  0  0  0  0
 16 17  1  0  0  0  0
 16 37  1  0  0  0  0
 17 18  2  0  0  0  0
 17 38  1  0  0  0  0
 18 19  1  0  0  0  0
 20 21  1  0  0  0  0
 21 22  2  0  0  0  0
 21 39  1  0  0  0  0
 22 23  1  0  0  0  0
 23 40  1  0  0  0  0
 23 41  1  0  0  0  0
 23 42  1  0  0  0  0
M  CHG  1   5   1
M  CHG  1  18   1
M  CHG  1  19  -1
M  END
> <s_m_source_file>
AV-unprocessed.smi

> <i_m_source_file_index>
2703

> <i_lp_mmshare_version>
43012

> <i_f3d_flags>
0

> <s_epik_input>
W0NIM11jKFtjSF0xKWMoW0NIM10pW2NIXWMoYzEyKW4oW2NIXW4yKVtDSDJdW0NASF0oW09IXSlbQ0gyXVNjM1tjSF1bY0hdW2NIXVtjSF1bbitdM1tPLV0=

> <s_epik_cmdline>
J2VwaWtfcHl0aG9uJywgJy1waCcsICc3LjAnLCAnLXRuJywgJzgnLCAnLW1hJywgJzIwMCcsICctbWV0YWxfYmluZGluZycsICctaW1hZScsICc8aW5maWxlLm1hZT4nLCAnLW9tYWUnLCAnPG91dGZpbGUubWFlPic=

> <r_epik_Ionization_Penalty>
1.07182

> <r_epik_Ionization_Penalty_Charging>
1.07181

> <r_epik_Ionization_Penalty_Neutral>
2.88913e-06

> <r_epik_State_Penalty>
1.12646

> <r_epik_Charging_Adjusted_Penalty>
2.19828

> <i_epik_Tot_Q>
1

> <i_epik_Tot_abs_Q>
3

> <r_epik_Metal_State_Penalty>
5.12345

> <b_epik_Metal_Only>
0

> <s_lp_Force_Field>
OPLS_2005

> <r_lp_Energy>
21.0295

> <b_lp_Chiralities_Consistent>
1

> <s_lp_Variant>
AV-unprocessed.smi:2703-4

> <Gold.Version>
5.8.1

> <Gold.Id.Protein>
6NUR|6NUR_protein|mol2

> <Gold.PLP.Fitness>
53.2807

> <Gold.PLP.PLP>
-44.8659

> <Gold.PLP.part.hbond>
-3.0000

> <Gold.PLP.part.metal>
0.0000

> <Gold.PLP.part.buried>
-3.5240

> <Gold.PLP.part.nonpolar>
-38.6356

> <Gold.PLP.part.repulsive>
0.1891

> <Gold.PLP.ligand.clash>
0.0000

> <Gold.PLP.ligand.torsion>
0.4965

> <Gold.PLP.Chemscore.Hbond>
2.5693

> <Gold.PLP.Chemscore.CHOScore>
0.5467

> <Gold.PLP.Chemscore.Metal>
0.0000

> <Gold.Chemscore.Hbonds>
donor molecule, donor type, donor heavy atom, donor atom, acceptor molecule, acceptor atom, score
      L1  H     5    43       P1  8028  1.70
      P1  H  6896  6908       L1    19  0.84
      L1  C     6    28       P1  7957  0.53

> <Gold.PLP.Chemscore.Internal.Correction>
0.0597

> <Gold.Rescore>
     Score         DG    S(hbond)    S(metal)    S(lipo)     H(rot)  DE(clash)    DE(int)     intcor
     18.36     -19.06       1.85        0.00     114.25       2.33       0.07       0.63       ----

> <Gold.Chemscore.Fitness>
18.3595

> <Gold.Chemscore.DG>
-19.0572

> <Gold.Chemscore.ZeroCoef>
-5.4800

> <Gold.Chemscore.Hbond>
1.8469

> <Gold.Chemscore.Metal>
0.0000

> <Gold.Chemscore.Lipo>
114.2457

> <Gold.Chemscore.Internal_Hbond>
0.0000

> <Gold.Chemscore.DEClash>
0.0659

> <Gold.Chemscore.DEInternal>
0.6318

> <Gold.Chemscore.Rot>
2.3274

> <Gold.Chemscore.Internal.Correction>
   9.000000E+99

> <Gold.Chemscore.Hbonds>
donor molecule, donor type, donor heavy atom, donor atom, acceptor molecule, acceptor atom, score
      L1  H     5    43       P1  8028  0.78
      P1  H  6896  6908       L1    19  0.79

> <Gold.Chemscore.Hbond.Weighted>
-6.1687

> <Gold.Chemscore.Metal.Weighted>
-0.0000

> <Gold.Chemscore.Lipo.Weighted>
-13.3667

> <Gold.Chemscore.Internal_Hbond.Weighted>
0.0000

> <Gold.Chemscore.DEClash.Weighted>
0.0659

> <Gold.Chemscore.DEInternal.Weighted>
0.6318

> <Gold.Chemscore.Rot.Weighted>
5.9583

> <Gold.Chemscore.Internal.Correction.Weighted>
   9.000000E+99

> <Gold.Protein.RotatedTorsions>
[ 6907 6896 6895 6894 ] final   92.92 input  -60.11 | X-H torsion
[ 7974 7965 7964 7962 ] final   87.82 input  175.53 | X-H torsion
[ 8008 7997 7996 7995 ] final  164.16 input   59.86 | X-H torsion
[ 10167 10162 10161 10158 ] final   33.07 input  -65.29 | X-H torsion
[ 10718 10713 10712 10709 ] final  -84.22 input   66.30 | X-H torsion
[ 10763 10752 10751 10750 ] final   11.19 input  -60.55 | X-H torsion
[ 11005 11000 10999 10996 ] final -150.03 input  -57.11 | X-H torsion

> <Gold.Protein.ActiveResidues>
 VAL166  LYS551  ARG553  GLY616  TRP617  ASP618  TYR619  PRO620  LYS621  CYS622 
 ASP623  PHE694  ASN695  SER759  ASP760  ASP761  ALA762  ILE779  LEU786  VAL792 
 PHE793  MET794  SER795  GLU796  ALA797  LYS798  CYS799  TRP800  GLU811  SER814 

> <Gold.Protein.RotatedAtoms>
  152.5453  134.1428  159.8485 H   0  0  0  0  0  0  0  0  0  0  0  0  # atno 6907 bound_to 6896
  151.1462  133.4931  159.2603 H   0  0  0  0  0  0  0  0  0  0  0  0  # atno 6908 bound_to 6896
  151.1520  135.0242  159.8727 H   0  0  0  0  0  0  0  0  0  0  0  0  # atno 6909 bound_to 6896
  145.5539  139.2298  143.2497 H   0  0  0  0  0  0  0  0  0  0  0  0  # atno 7974 bound_to 7965
  156.1902  140.1704  156.8107 H   0  0  0  0  0  0  0  0  0  0  0  0  # atno 8008 bound_to 7997
  154.5462  140.0727  156.8624 H   0  0  0  0  0  0  0  0  0  0  0  0  # atno 8009 bound_to 7997
  155.3118  140.3368  155.4246 H   0  0  0  0  0  0  0  0  0  0  0  0  # atno 8010 bound_to 7997
  140.4441  144.1144  150.6179 H   0  0  0  0  0  0  0  0  0  0  0  0  # atno 10167 bound_to 10162
  156.0009  130.4691  150.4377 H   0  0  0  0  0  0  0  0  0  0  0  0  # atno 10718 bound_to 10713
  153.1952  135.6848  153.8301 H   0  0  0  0  0  0  0  0  0  0  0  0  # atno 10763 bound_to 10752
  153.7586  135.3213  155.3334 H   0  0  0  0  0  0  0  0  0  0  0  0  # atno 10764 bound_to 10752
  154.8140  135.4698  154.0693 H   0  0  0  0  0  0  0  0  0  0  0  0  # atno 10765 bound_to 10752
  140.7445  134.3477  157.5140 H   0  0  0  0  0  0  0  0  0  0  0  0  # atno 11005 bound_to 11000
  146.1898  140.6362  142.9151 LP  0  0  0  0  0  0  0  0  0  0  0  0  # atno 17320 bound_to 7965
  144.7516  140.5204  143.6798 LP  0  0  0  0  0  0  0  0  0  0  0  0  # atno 17321 bound_to 7965
  140.4284  143.2579  151.9627 LP  0  0  0  0  0  0  0  0  0  0  0  0  # atno 17342 bound_to 10162
  139.4791  144.5767  151.8001 LP  0  0  0  0  0  0  0  0  0  0  0  0  # atno 17343 bound_to 10162
  157.2421  131.0527  151.2430 LP  0  0  0  0  0  0  0  0  0  0  0  0  # atno 17370 bound_to 10713
  157.3610  130.7131  149.6502 LP  0  0  0  0  0  0  0  0  0  0  0  0  # atno 17371 bound_to 10713
  139.8799  134.9102  156.3008 LP  0  0  0  0  0  0  0  0  0  0  0  0  # atno 17394 bound_to 11000
  140.9807  133.7269  156.0668 LP  0  0  0  0  0  0  0  0  0  0  0  0  # atno 17395 bound_to 11000

$$$$
