AV-unprocessed.smi:102|AV-procd|sdf|946|dock2
  -GOLD-   2262017473D 1   1.00000     0.00000
 Structure written by MMmdl.
 44 45  0  0  0  0  0  0  0  0  1 V2000
  152.3663  144.8247  158.6425 C   0  0  0  0  0  0  0  0  0  0  0  0
  151.2452  143.8003  158.5273 C   0  0  0  0  0  0  0  0  0  0  0  0
  150.4207  143.6458  159.4284 O   0  0  0  0  0  0  0  0  0  0  0  0
  151.2850  143.1244  157.3685 O   0  0  0  0  0  0  0  0  0  0  0  0
  150.2632  142.1889  157.0644 C   0  0  0  0  0  0  0  0  0  0  0  0
  150.3953  141.7541  155.5927 C   0  0  1  0  0  0  0  0  0  0  0  0
  151.4794  140.8326  155.4693 O   0  0  0  0  0  0  0  0  0  0  0  0
  151.0279  139.5064  155.4347 C   0  0  1  0  0  0  0  0  0  0  0  0
  151.6575  138.7174  156.5661 N   0  0  0  0  0  0  0  0  0  0  0  0
  152.0852  139.3123  157.7470 C   0  0  0  0  0  0  0  0  0  0  0  0
  152.6256  138.6106  158.7711 C   0  0  0  0  0  0  0  0  0  0  0  0
  153.0143  139.2558  159.8839 F   0  0  0  0  0  0  0  0  0  0  0  0
  152.7918  137.1633  158.6771 C   0  0  0  0  0  0  0  0  0  0  0  0
  153.2659  136.4420  159.5527 O   0  0  0  0  0  0  0  0  0  0  0  0
  152.3594  136.6098  157.4687 N   0  0  0  0  0  0  0  0  0  0  0  0
  151.8011  137.3216  156.4059 C   0  0  0  0  0  0  0  0  0  0  0  0
  151.4468  136.7326  155.3857 O   0  0  0  0  0  0  0  0  0  0  0  0
  149.4868  139.5382  155.5073 C   0  0  1  0  0  0  0  0  0  0  0  0
  149.0317  139.3090  156.8421 O   0  0  0  0  0  0  0  0  0  0  0  0
  148.9147  138.0622  157.3286 C   0  0  0  0  0  0  0  0  0  0  0  0
  148.5499  138.0518  158.8067 C   0  0  0  0  0  0  0  0  0  0  0  0
  149.0743  137.0170  156.6989 O   0  0  0  0  0  0  0  0  0  0  0  0
  149.2026  140.9626  155.0505 C   0  0  1  0  0  0  0  0  0  0  0  0
  147.9404  141.4674  155.4736 O   0  0  0  0  0  0  0  0  0  0  0  0
  146.9542  141.6606  154.5802 C   0  0  0  0  0  0  0  0  0  0  0  0
  145.7689  142.4073  155.1766 C   0  0  0  0  0  0  0  0  0  0  0  0
  146.9549  141.2846  153.4081 O   0  0  0  0  0  0  0  0  0  0  0  0
  152.4568  135.6111  157.3573 H   0  0  0  0  0  0  0  0  0  0  0  0
  153.3054  144.4048  158.2817 H   0  0  0  0  0  0  0  0  0  0  0  0
  152.5019  145.1271  159.6812 H   0  0  0  0  0  0  0  0  0  0  0  0
  152.1316  145.7100  158.0518 H   0  0  0  0  0  0  0  0  0  0  0  0
  150.3189  141.3267  157.7289 H   0  0  0  0  0  0  0  0  0  0  0  0
  149.2988  142.6681  157.2353 H   0  0  0  0  0  0  0  0  0  0  0  0
  150.5757  142.6318  154.9712 H   0  0  0  0  0  0  0  0  0  0  0  0
  151.4018  139.0525  154.5150 H   0  0  0  0  0  0  0  0  0  0  0  0
  151.9972  140.3787  157.8811 H   0  0  0  0  0  0  0  0  0  0  0  0
  149.0833  138.8026  154.8100 H   0  0  0  0  0  0  0  0  0  0  0  0
  147.9207  138.9075  159.0528 H   0  0  0  0  0  0  0  0  0  0  0  0
  149.4521  138.0982  159.4170 H   0  0  0  0  0  0  0  0  0  0  0  0
  148.0067  137.1410  159.0585 H   0  0  0  0  0  0  0  0  0  0  0  0
  149.2647  140.9931  153.9612 H   0  0  0  0  0  0  0  0  0  0  0  0
  146.1094  143.2766  155.7394 H   0  0  0  0  0  0  0  0  0  0  0  0
  145.2126  141.7538  155.8488 H   0  0  0  0  0  0  0  0  0  0  0  0
  145.0957  142.7476  154.3894 H   0  0  0  0  0  0  0  0  0  0  0  0
  1  2  1  0  0  0  0
  1 29  1  0  0  0  0
  1 30  1  0  0  0  0
  1 31  1  0  0  0  0
  2  3  2  0  0  0  0
  2  4  1  0  0  0  0
  4  5  1  0  0  0  0
  5  6  1  0  0  0  0
  5 32  1  0  0  0  0
  5 33  1  0  0  0  0
  6 23  1  0  0  0  0
  6  7  1  0  0  0  0
  6 34  1  0  0  0  0
  7  8  1  0  0  0  0
  8  9  1  0  0  0  0
  8 18  1  0  0  0  0
  8 35  1  0  0  0  0
  9 16  1  0  0  0  0
  9 10  1  0  0  0  0
 10 11  2  0  0  0  0
 10 36  1  0  0  0  0
 11 12  1  0  0  0  0
 11 13  1  0  0  0  0
 13 14  2  0  0  0  0
 13 15  1  0  0  0  0
 15 28  1  0  0  0  0
 15 16  1  0  0  0  0
 16 17  2  0  0  0  0
 18 19  1  0  0  0  0
 18 23  1  0  0  0  0
 18 37  1  0  0  0  0
 19 20  1  0  0  0  0
 20 21  1  0  0  0  0
 20 22  2  0  0  0  0
 21 38  1  0  0  0  0
 21 39  1  0  0  0  0
 21 40  1  0  0  0  0
 23 24  1  0  0  0  0
 23 41  1  0  0  0  0
 24 25  1  0  0  0  0
 25 26  1  0  0  0  0
 25 27  2  0  0  0  0
 26 42  1  0  0  0  0
 26 43  1  0  0  0  0
 26 44  1  0  0  0  0
M  END
> <s_m_source_file>
AV-unprocessed.smi

> <i_m_source_file_index>
102

> <i_lp_mmshare_version>
43012

> <i_f3d_flags>
0

> <s_epik_input>
W0NIM11DKD1PKU9bQ0gyXVtDQEBIXTFPW0NASF0oW0NAQEhdKE9DKD1PKVtDSDNdKVtDQEhdMU9DKD1PKVtDSDNdKW4yW2NIXWMoRiljKD1PKVtuSF1jMj1P

> <s_epik_cmdline>
J2VwaWtfcHl0aG9uJywgJy1waCcsICc3LjAnLCAnLXRuJywgJzgnLCAnLW1hJywgJzIwMCcsICctbWV0YWxfYmluZGluZycsICctaW1hZScsICc8aW5maWxlLm1hZT4nLCAnLW9tYWUnLCAnPG91dGZpbGUubWFlPic=

> <r_lp_tautomer_probability>
0.999537

> <r_epik_Ionization_Penalty>
0.058267

> <r_epik_Ionization_Penalty_Charging>
0.058267

> <r_epik_Ionization_Penalty_Neutral>
6.57791e-16

> <r_epik_State_Penalty>
0.0503774

> <r_epik_Charging_Adjusted_Penalty>
0.108644

> <i_epik_Tot_Q>
0

> <i_epik_Tot_abs_Q>
0

> <r_epik_Metal_State_Penalty>
2.6644

> <b_epik_Metal_Only>
0

> <s_epik_Chemistry_Notes>
This compound has an ester and may undergo hydrolysis at high or low pH. This compound contains an acetal/aminal-like group ( X-CH(R)-Y where X, Y are N, S, or O) that may be acid/base labile, releasing an aldehyde.

> <s_lp_Force_Field>
OPLS_2005

> <r_lp_Energy>
16.4745

> <b_lp_Chiralities_Consistent>
1

> <s_lp_Variant>
AV-unprocessed.smi:102-2

> <Gold.Version>
5.8.1

> <Gold.Id.Protein>
6NUR|6NUR_protein|mol2

> <Gold.PLP.Fitness>
37.9087

> <Gold.PLP.PLP>
-33.9658

> <Gold.PLP.part.hbond>
-3.5025

> <Gold.PLP.part.metal>
0.0000

> <Gold.PLP.part.buried>
-5.0536

> <Gold.PLP.part.nonpolar>
-25.7538

> <Gold.PLP.part.repulsive>
0.7484

> <Gold.PLP.ligand.clash>
0.0000

> <Gold.PLP.ligand.torsion>
1.8407

> <Gold.PLP.Chemscore.Hbond>
2.4347

> <Gold.PLP.Chemscore.CHOScore>
0.0000

> <Gold.PLP.Chemscore.Metal>
0.0000

> <Gold.Chemscore.Hbonds>
donor molecule, donor type, donor heavy atom, donor atom, acceptor molecule, acceptor atom, score
      P1  H  6896  6907       L1    14  1.00
      P1  H  7989  7998       L1     7  0.36
      P1  H 10752 10763       L1    17  0.86

> <Gold.PLP.Chemscore.Internal.Correction>
0.3201

> <Gold.Rescore>
     Score         DG    S(hbond)    S(metal)    S(lipo)     H(rot)  DE(clash)    DE(int)     intcor
      5.10      -7.14       1.72        0.00      53.76       4.05       0.01       2.04       ----

> <Gold.Chemscore.Fitness>
5.0951

> <Gold.Chemscore.DG>
-7.1445

> <Gold.Chemscore.ZeroCoef>
-5.4800

> <Gold.Chemscore.Hbond>
1.7209

> <Gold.Chemscore.Metal>
0.0000

> <Gold.Chemscore.Lipo>
53.7581

> <Gold.Chemscore.Internal_Hbond>
0.0000

> <Gold.Chemscore.DEClash>
0.0135

> <Gold.Chemscore.DEInternal>
2.0358

> <Gold.Chemscore.Rot>
4.0520

> <Gold.Chemscore.Internal.Correction>
   9.000000E+99

> <Gold.Chemscore.Hbonds>
donor molecule, donor type, donor heavy atom, donor atom, acceptor molecule, acceptor atom, score
      P1  H  6896  6907       L1    14  0.92
      P1  H  7989  7998       L1     7  0.01
      P1  H 10752 10763       L1    17  0.75

> <Gold.Chemscore.Hbond.Weighted>
-5.7480

> <Gold.Chemscore.Metal.Weighted>
-0.0000

> <Gold.Chemscore.Lipo.Weighted>
-6.2897

> <Gold.Chemscore.Internal_Hbond.Weighted>
0.0000

> <Gold.Chemscore.DEClash.Weighted>
0.0135

> <Gold.Chemscore.DEInternal.Weighted>
2.0358

> <Gold.Chemscore.Rot.Weighted>
10.3732

> <Gold.Chemscore.Internal.Correction.Weighted>
   9.000000E+99

> <Gold.Protein.RotatedTorsions>
[ 6907 6896 6895 6894 ] final   53.05 input  -60.11 | X-H torsion
[ 7974 7965 7964 7962 ] final   75.82 input  175.53 | X-H torsion
[ 8008 7997 7996 7995 ] final -134.66 input   59.86 | X-H torsion
[ 10167 10162 10161 10158 ] final  -16.92 input  -65.29 | X-H torsion
[ 10718 10713 10712 10709 ] final   70.56 input   66.30 | X-H torsion
[ 10763 10752 10751 10750 ] final   47.86 input  -60.55 | X-H torsion
[ 11005 11000 10999 10996 ] final   18.03 input  -57.11 | X-H torsion

> <Gold.Protein.ActiveResidues>
 VAL166  LYS551  ARG553  GLY616  TRP617  ASP618  TYR619  PRO620  LYS621  CYS622 
 ASP623  PHE694  ASN695  SER759  ASP760  ASP761  ALA762  ILE779  LEU786  VAL792 
 PHE793  MET794  SER795  GLU796  ALA797  LYS798  CYS799  TRP800  GLU811  SER814 

> <Gold.Protein.RotatedAtoms>
  152.3297  134.7275  160.0292 H   0  0  0  0  0  0  0  0  0  0  0  0  # atno 6907 bound_to 6896
  151.7696  133.3335  159.3449 H   0  0  0  0  0  0  0  0  0  0  0  0  # atno 6908 bound_to 6896
  150.7416  134.5962  159.6057 H   0  0  0  0  0  0  0  0  0  0  0  0  # atno 6909 bound_to 6896
  145.7107  139.2614  143.1652 H   0  0  0  0  0  0  0  0  0  0  0  0  # atno 7974 bound_to 7965
  155.3658  140.0485  157.3046 H   0  0  0  0  0  0  0  0  0  0  0  0  # atno 8008 bound_to 7997
  154.5155  140.2207  155.9037 H   0  0  0  0  0  0  0  0  0  0  0  0  # atno 8009 bound_to 7997
  156.1631  140.3112  155.8848 H   0  0  0  0  0  0  0  0  0  0  0  0  # atno 8010 bound_to 7997
  140.7240  143.5067  150.9800 H   0  0  0  0  0  0  0  0  0  0  0  0  # atno 10167 bound_to 10162
  157.6406  130.9483  150.0668 H   0  0  0  0  0  0  0  0  0  0  0  0  # atno 10718 bound_to 10713
  152.9796  135.5963  154.3831 H   0  0  0  0  0  0  0  0  0  0  0  0  # atno 10763 bound_to 10752
  154.3494  135.2767  155.2382 H   0  0  0  0  0  0  0  0  0  0  0  0  # atno 10764 bound_to 10752
  154.4428  135.6009  153.6196 H   0  0  0  0  0  0  0  0  0  0  0  0  # atno 10765 bound_to 10752
  140.4294  134.1436  155.7679 H   0  0  0  0  0  0  0  0  0  0  0  0  # atno 11005 bound_to 11000
  146.0715  140.7864  142.9686 LP  0  0  0  0  0  0  0  0  0  0  0  0  # atno 17320 bound_to 7965
  144.6943  140.3349  143.7209 LP  0  0  0  0  0  0  0  0  0  0  0  0  # atno 17321 bound_to 7965
  139.8779  143.7109  152.3160 LP  0  0  0  0  0  0  0  0  0  0  0  0  # atno 17342 bound_to 10162
  139.7381  144.7566  151.0696 LP  0  0  0  0  0  0  0  0  0  0  0  0  # atno 17343 bound_to 10162
  156.1684  130.3645  149.9200 LP  0  0  0  0  0  0  0  0  0  0  0  0  # atno 17370 bound_to 10713
  156.7181  130.8996  151.3615 LP  0  0  0  0  0  0  0  0  0  0  0  0  # atno 17371 bound_to 10713
  141.1752  133.8529  157.1445 LP  0  0  0  0  0  0  0  0  0  0  0  0  # atno 17394 bound_to 11000
  140.0145  134.9973  157.0464 LP  0  0  0  0  0  0  0  0  0  0  0  0  # atno 17395 bound_to 11000

$$$$
