AV-unprocessed.smi:303|AV-procd|sdf|2274|dock5
  -GOLD-   2262022163D 1   1.00000     0.00000
 Structure written by MMmdl.
 45 46  0  0  0  0  0  0  0  0  1 V2000
  150.9235  137.5334  159.1885 C   0  0  0  0  0  0  0  0  0  0  0  0
  150.6088  138.2775  157.8853 C   0  0  0  0  0  0  0  0  0  0  0  0
  152.0227  138.2163  156.6951 S   0  0  0  0  0  0  0  0  0  0  0  0
  153.2257  138.7064  157.3854 O   0  0  0  0  0  0  0  0  0  0  0  0
  152.0408  136.8962  156.0456 O   0  0  0  0  0  0  0  0  0  0  0  0
  151.6072  139.3920  155.4792 N   0  0  0  0  0  0  0  0  0  0  0  0
  151.0371  138.9481  154.1930 C   0  0  0  0  0  0  0  0  0  0  0  0
  149.5159  139.1753  154.1451 C   0  0  0  0  0  0  0  0  0  0  0  0
  149.1618  140.6441  154.4396 C   0  0  0  0  0  0  0  0  0  0  0  0
  147.6450  140.8679  154.4236 C   0  0  0  0  0  0  0  0  0  0  0  0
  146.8800  139.9175  154.2546 O   0  0  0  0  0  0  0  0  0  0  0  0
  147.2250  142.1271  154.6259 N   0  0  0  0  0  0  0  0  0  0  0  0
  145.8313  142.5491  154.7444 C   0  0  0  0  0  0  0  0  0  0  0  0
  145.4966  143.7216  153.8010 C   0  0  0  0  0  0  0  0  0  0  0  0
  144.4387  144.6633  154.3511 C   0  0  0  0  0  0  0  0  0  0  0  0
  143.9824  144.5392  155.6814 C   0  0  0  0  0  0  0  0  0  0  0  0
  142.9707  145.4110  156.1277 C   0  0  0  0  0  0  0  0  0  0  0  0
  142.4608  146.3719  155.2337 C   0  0  0  0  0  0  0  0  0  0  0  0
  142.9889  146.4194  153.9280 C   0  0  0  0  0  0  0  0  0  0  0  0
  143.9571  145.5868  153.4892 N   0  0  0  0  0  0  0  0  0  0  0  0
  149.7550  141.0419  155.8034 C   0  0  0  0  0  0  0  0  0  0  0  0
  151.2701  140.7800  155.8592 C   0  0  0  0  0  0  0  0  0  0  0  0
  150.0692  137.5596  159.8648 H   0  0  0  0  0  0  0  0  0  0  0  0
  151.7690  137.9866  159.7065 H   0  0  0  0  0  0  0  0  0  0  0  0
  151.1678  136.4883  159.0013 H   0  0  0  0  0  0  0  0  0  0  0  0
  149.7145  137.8862  157.4072 H   0  0  0  0  0  0  0  0  0  0  0  0
  150.4164  139.3263  158.1105 H   0  0  0  0  0  0  0  0  0  0  0  0
  151.5173  139.5087  153.3902 H   0  0  0  0  0  0  0  0  0  0  0  0
  151.2706  137.8981  154.0183 H   0  0  0  0  0  0  0  0  0  0  0  0
  149.1400  138.8906  153.1616 H   0  0  0  0  0  0  0  0  0  0  0  0
  149.0235  138.5166  154.8603 H   0  0  0  0  0  0  0  0  0  0  0  0
  149.6161  141.2689  153.6683 H   0  0  0  0  0  0  0  0  0  0  0  0
  147.9265  142.8427  154.7497 H   0  0  0  0  0  0  0  0  0  0  0  0
  145.1988  141.6952  154.5012 H   0  0  0  0  0  0  0  0  0  0  0  0
  145.5938  142.8174  155.7751 H   0  0  0  0  0  0  0  0  0  0  0  0
  146.4027  144.2900  153.5873 H   0  0  0  0  0  0  0  0  0  0  0  0
  145.1543  143.3317  152.8415 H   0  0  0  0  0  0  0  0  0  0  0  0
  144.3857  143.7846  156.3406 H   0  0  0  0  0  0  0  0  0  0  0  0
  142.5904  145.3412  157.1360 H   0  0  0  0  0  0  0  0  0  0  0  0
  141.6842  147.0567  155.5406 H   0  0  0  0  0  0  0  0  0  0  0  0
  142.6225  147.1442  153.2162 H   0  0  0  0  0  0  0  0  0  0  0  0
  149.5704  142.1003  155.9917 H   0  0  0  0  0  0  0  0  0  0  0  0
  149.2557  140.5072  156.6106 H   0  0  0  0  0  0  0  0  0  0  0  0
  151.6571  141.0115  156.8508 H   0  0  0  0  0  0  0  0  0  0  0  0
  151.7783  141.4544  155.1692 H   0  0  0  0  0  0  0  0  0  0  0  0
  1  2  1  0  0  0  0
  1 23  1  0  0  0  0
  1 24  1  0  0  0  0
  1 25  1  0  0  0  0
  2  3  1  0  0  0  0
  2 26  1  0  0  0  0
  2 27  1  0  0  0  0
  3  4  2  0  0  0  0
  3  5  2  0  0  0  0
  3  6  1  0  0  0  0
  6 22  1  0  0  0  0
  6  7  1  0  0  0  0
  7  8  1  0  0  0  0
  7 28  1  0  0  0  0
  7 29  1  0  0  0  0
  8  9  1  0  0  0  0
  8 30  1  0  0  0  0
  8 31  1  0  0  0  0
  9 10  1  0  0  0  0
  9 21  1  0  0  0  0
  9 32  1  0  0  0  0
 10 11  2  0  0  0  0
 10 12  1  0  0  0  0
 12 13  1  0  0  0  0
 12 33  1  0  0  0  0
 13 14  1  0  0  0  0
 13 34  1  0  0  0  0
 13 35  1  0  0  0  0
 14 15  1  0  0  0  0
 14 36  1  0  0  0  0
 14 37  1  0  0  0  0
 15 20  1  0  0  0  0
 15 16  2  0  0  0  0
 16 17  1  0  0  0  0
 16 38  1  0  0  0  0
 17 18  2  0  0  0  0
 17 39  1  0  0  0  0
 18 19  1  0  0  0  0
 18 40  1  0  0  0  0
 19 20  2  0  0  0  0
 19 41  1  0  0  0  0
 21 22  1  0  0  0  0
 21 42  1  0  0  0  0
 21 43  1  0  0  0  0
 22 44  1  0  0  0  0
 22 45  1  0  0  0  0
M  END
> <s_m_source_file>
AV-unprocessed.smi

> <i_m_source_file_index>
303

> <i_lp_mmshare_version>
43012

> <i_f3d_flags>
0

> <s_epik_input>
W0NIM11bQ0gyXVMoPU8pKD1PKU4xW0NIMl1bQ0gyXVtDSF0oW0NIMl1bQ0gyXTEpQyg9TylbTkhdW0NIMl1bQ0gyXWMyW2NIXVtjSF1bY0hdW2NIXW4y

> <s_epik_cmdline>
J2VwaWtfcHl0aG9uJywgJy1waCcsICc3LjAnLCAnLXRuJywgJzgnLCAnLW1hJywgJzIwMCcsICctbWV0YWxfYmluZGluZycsICctaW1hZScsICc8aW5maWxlLm1hZT4nLCAnLW9tYWUnLCAnPG91dGZpbGUubWFlPic=

> <r_epik_Ionization_Penalty>
0.0277532

> <r_epik_Ionization_Penalty_Charging>
0

> <r_epik_Ionization_Penalty_Neutral>
0.0277532

> <r_epik_State_Penalty>
0.022734

> <r_epik_Charging_Adjusted_Penalty>
0.022734

> <i_epik_Tot_Q>
0

> <i_epik_Tot_abs_Q>
0

> <r_epik_Metal_State_Penalty>
0.021713

> <b_epik_Metal_Only>
0

> <s_lp_Force_Field>
OPLS_2005

> <r_lp_Energy>
1.72058

> <b_lp_Chiralities_Consistent>
1

> <s_lp_Variant>
AV-unprocessed.smi:303-1

> <Gold.Version>
5.8.1

> <Gold.Id.Protein>
6NUR|6NUR_protein|mol2

> <Gold.PLP.Fitness>
45.5655

> <Gold.PLP.PLP>
-38.6318

> <Gold.PLP.part.hbond>
-3.4049

> <Gold.PLP.part.metal>
0.0000

> <Gold.PLP.part.buried>
-2.6818

> <Gold.PLP.part.nonpolar>
-31.2111

> <Gold.PLP.part.repulsive>
0.3208

> <Gold.PLP.ligand.clash>
0.0000

> <Gold.PLP.ligand.torsion>
1.5945

> <Gold.PLP.Chemscore.Hbond>
2.6333

> <Gold.PLP.Chemscore.CHOScore>
0.0000

> <Gold.PLP.Chemscore.Metal>
0.0000

> <Gold.Chemscore.Hbonds>
donor molecule, donor type, donor heavy atom, donor atom, acceptor molecule, acceptor atom, score
      L1  H    12    33       P1  8028  0.42
      P1  H  7997  8008       L1     4  1.00
      P1  H 10752 10764       L1     5  0.93

> <Gold.PLP.Chemscore.Internal.Correction>
2.2229

> <Gold.Rescore>
     Score         DG    S(hbond)    S(metal)    S(lipo)     H(rot)  DE(clash)    DE(int)     intcor
     17.79     -20.16       2.58        0.00      87.95       1.66       0.77       1.59       ----

> <Gold.Chemscore.Fitness>
17.7949

> <Gold.Chemscore.DG>
-20.1587

> <Gold.Chemscore.ZeroCoef>
-5.4800

> <Gold.Chemscore.Hbond>
2.5836

> <Gold.Chemscore.Metal>
0.0000

> <Gold.Chemscore.Lipo>
87.9452

> <Gold.Chemscore.Internal_Hbond>
0.0000

> <Gold.Chemscore.DEClash>
0.7742

> <Gold.Chemscore.DEInternal>
1.5896

> <Gold.Chemscore.Rot>
1.6563

> <Gold.Chemscore.Internal.Correction>
   9.000000E+99

> <Gold.Chemscore.Hbonds>
donor molecule, donor type, donor heavy atom, donor atom, acceptor molecule, acceptor atom, score
      L1  H    12    33       P1  8028  0.38
      P1  H  7997  8008       L1     4  0.99
      P1  H 10752 10764       L1     5  0.84

> <Gold.Chemscore.Hbond.Weighted>
-8.6292

> <Gold.Chemscore.Metal.Weighted>
-0.0000

> <Gold.Chemscore.Lipo.Weighted>
-10.2896

> <Gold.Chemscore.Internal_Hbond.Weighted>
0.0000

> <Gold.Chemscore.DEClash.Weighted>
0.7742

> <Gold.Chemscore.DEInternal.Weighted>
1.5896

> <Gold.Chemscore.Rot.Weighted>
4.2401

> <Gold.Chemscore.Internal.Correction.Weighted>
   9.000000E+99

> <Gold.Protein.RotatedTorsions>
[ 6907 6896 6895 6894 ] final   80.96 input  -60.11 | X-H torsion
[ 7974 7965 7964 7962 ] final  -53.19 input  175.53 | X-H torsion
[ 8008 7997 7996 7995 ] final  -67.26 input   59.86 | X-H torsion
[ 10167 10162 10161 10158 ] final  132.22 input  -65.29 | X-H torsion
[ 10718 10713 10712 10709 ] final   40.23 input   66.30 | X-H torsion
[ 10763 10752 10751 10750 ] final  -46.22 input  -60.55 | X-H torsion
[ 11005 11000 10999 10996 ] final   16.31 input  -57.11 | X-H torsion

> <Gold.Protein.ActiveResidues>
 VAL166  LYS551  ARG553  GLY616  TRP617  ASP618  TYR619  PRO620  LYS621  CYS622 
 ASP623  PHE694  ASN695  SER759  ASP760  ASP761  ALA762  ILE779  LEU786  VAL792 
 PHE793  MET794  SER795  GLU796  ALA797  LYS798  CYS799  TRP800  GLU811  SER814 

> <Gold.Protein.RotatedAtoms>
  152.5252  134.3278  159.9171 H   0  0  0  0  0  0  0  0  0  0  0  0  # atno 6907 bound_to 6896
  151.3227  133.4027  159.2663 H   0  0  0  0  0  0  0  0  0  0  0  0  # atno 6908 bound_to 6896
  150.9945  134.9290  159.7976 H   0  0  0  0  0  0  0  0  0  0  0  0  # atno 6909 bound_to 6896
  145.8996  140.8005  142.9750 H   0  0  0  0  0  0  0  0  0  0  0  0  # atno 7974 bound_to 7965
  154.4788  140.0896  156.7327 H   0  0  0  0  0  0  0  0  0  0  0  0  # atno 8008 bound_to 7997
  155.4525  140.3458  155.4284 H   0  0  0  0  0  0  0  0  0  0  0  0  # atno 8009 bound_to 7997
  156.1159  140.1460  156.9262 H   0  0  0  0  0  0  0  0  0  0  0  0  # atno 8010 bound_to 7997
  139.5349  144.6672  151.4820 H   0  0  0  0  0  0  0  0  0  0  0  0  # atno 10167 bound_to 10162
  157.3797  130.7747  149.7183 H   0  0  0  0  0  0  0  0  0  0  0  0  # atno 10718 bound_to 10713
  154.0413  135.6643  153.4790 H   0  0  0  0  0  0  0  0  0  0  0  0  # atno 10763 bound_to 10752
  153.0500  135.5090  154.7839 H   0  0  0  0  0  0  0  0  0  0  0  0  # atno 10764 bound_to 10752
  154.6816  135.3046  154.9571 H   0  0  0  0  0  0  0  0  0  0  0  0  # atno 10765 bound_to 10752
  140.4486  134.1248  155.7699 H   0  0  0  0  0  0  0  0  0  0  0  0  # atno 11005 bound_to 11000
  144.6735  140.1656  143.7419 LP  0  0  0  0  0  0  0  0  0  0  0  0  # atno 17320 bound_to 7965
  145.8808  139.2322  143.1606 LP  0  0  0  0  0  0  0  0  0  0  0  0  # atno 17321 bound_to 7965
  140.6550  143.8618  150.6825 LP  0  0  0  0  0  0  0  0  0  0  0  0  # atno 17342 bound_to 10162
  140.1995  143.3971  152.1802 LP  0  0  0  0  0  0  0  0  0  0  0  0  # atno 17343 bound_to 10162
  155.9773  130.4065  150.3721 LP  0  0  0  0  0  0  0  0  0  0  0  0  # atno 17370 bound_to 10713
  157.1823  131.0395  151.2742 LP  0  0  0  0  0  0  0  0  0  0  0  0  # atno 17371 bound_to 10713
  141.1674  133.8676  157.1673 LP  0  0  0  0  0  0  0  0  0  0  0  0  # atno 17394 bound_to 11000
  140.0022  135.0023  157.0214 LP  0  0  0  0  0  0  0  0  0  0  0  0  # atno 17395 bound_to 11000

$$$$
