AV-unprocessed.smi:1600|AV-procd|sdf|6429|dock1
  -GOLD-   22720 7 73D 1   1.00000     0.00000
 Structure written by MMmdl.
 46 47  0  0  0  0  0  0  0  0  2 V2000
  150.7532  142.2686  156.4424 C   0  0  0  0  0  0  0  0  0  0  0  0
  150.4766  141.0414  155.6247 C   0  0  0  0  0  0  0  0  0  0  0  0
  149.2874  140.7119  154.9117 C   0  0  0  0  0  0  0  0  0  0  0  0
  149.5943  139.4985  154.3587 C   0  0  0  0  0  0  0  0  0  0  0  0
  148.8263  138.6991  153.5711 N   0  0  0  0  0  0  0  0  0  0  0  0
  147.5438  138.8655  153.2034 C   0  0  0  0  0  0  0  0  0  0  0  0
  146.8192  139.8028  153.5385 O   0  0  0  0  0  0  0  0  0  0  0  0
  147.1335  137.8672  152.4078 N   0  0  0  0  0  0  0  0  0  0  0  0
  145.8033  137.7624  151.8166 C   0  0  0  0  0  0  0  0  0  0  0  0
  145.0454  136.5113  152.3013 C   0  0  2  0  0  0  0  0  0  0  0  0
  145.5958  135.8811  153.5799 C   0  0  0  0  0  0  0  0  0  0  0  0
  145.1728  134.4076  153.5017 C   0  0  0  0  0  0  0  0  0  0  0  0
  144.7051  134.1580  152.1143 N   0  3  2  0  0  0  0  0  0  0  0  0
  145.0984  132.8406  151.5389 C   0  0  0  0  0  0  0  0  0  0  0  0
  146.6118  132.7688  151.2576 C   0  0  0  0  0  0  0  0  0  0  0  0
  144.3203  132.5474  150.2418 C   0  0  0  0  0  0  0  0  0  0  0  0
  145.0890  135.3440  151.3183 C   0  0  0  0  0  0  0  0  0  0  0  0
  150.8744  139.1512  154.7303 N   0  0  0  0  0  0  0  0  0  0  0  0
  151.6408  137.9651  154.4013 C   0  0  0  0  0  0  0  0  0  0  0  0
  151.4159  140.1085  155.5140 N   0  0  0  0  0  0  0  0  0  0  0  0
  149.9084  142.9572  156.4176 H   0  0  0  0  0  0  0  0  0  0  0  0
  151.6267  142.8022  156.0672 H   0  0  0  0  0  0  0  0  0  0  0  0
  150.9405  142.0113  157.4853 H   0  0  0  0  0  0  0  0  0  0  0  0
  148.3753  141.2840  154.8341 H   0  0  0  0  0  0  0  0  0  0  0  0
  149.2930  137.8826  153.2047 H   0  0  0  0  0  0  0  0  0  0  0  0
  147.7927  137.1369  152.1809 H   0  0  0  0  0  0  0  0  0  0  0  0
  145.2286  138.6624  152.0417 H   0  0  0  0  0  0  0  0  0  0  0  0
  145.9179  137.7357  150.7326 H   0  0  0  0  0  0  0  0  0  0  0  0
  143.9974  136.7661  152.4695 H   0  0  0  0  0  0  0  0  0  0  0  0
  146.6848  135.9464  153.5910 H   0  0  0  0  0  0  0  0  0  0  0  0
  145.2265  136.3745  154.4797 H   0  0  0  0  0  0  0  0  0  0  0  0
  146.0163  133.7692  153.7689 H   0  0  0  0  0  0  0  0  0  0  0  0
  144.3596  134.1915  154.1953 H   0  0  0  0  0  0  0  0  0  0  0  0
  144.8546  132.0660  152.2679 H   0  0  0  0  0  0  0  0  0  0  0  0
  146.8769  131.8188  150.7924 H   0  0  0  0  0  0  0  0  0  0  0  0
  147.2026  132.8458  152.1705 H   0  0  0  0  0  0  0  0  0  0  0  0
  146.9289  133.5654  150.5834 H   0  0  0  0  0  0  0  0  0  0  0  0
  144.6227  131.5914  149.8132 H   0  0  0  0  0  0  0  0  0  0  0  0
  144.5005  133.3165  149.4898 H   0  0  0  0  0  0  0  0  0  0  0  0
  143.2449  132.4920  150.4095 H   0  0  0  0  0  0  0  0  0  0  0  0
  144.4187  135.4989  150.4722 H   0  0  0  0  0  0  0  0  0  0  0  0
  146.1021  135.2150  150.9327 H   0  0  0  0  0  0  0  0  0  0  0  0
  151.5898  137.7798  153.3280 H   0  0  0  0  0  0  0  0  0  0  0  0
  151.2310  137.1060  154.9333 H   0  0  0  0  0  0  0  0  0  0  0  0
  152.6865  138.0934  154.6850 H   0  0  0  0  0  0  0  0  0  0  0  0
  143.6959  134.1726  152.1554 H   0  0  0  0  0  0  0  0  0  0  0  0
  1  2  1  0  0  0  0
  1 21  1  0  0  0  0
  1 22  1  0  0  0  0
  1 23  1  0  0  0  0
  2 20  2  0  0  0  0
  2  3  1  0  0  0  0
  3  4  2  0  0  0  0
  3 24  1  0  0  0  0
  4  5  1  0  0  0  0
  4 18  1  0  0  0  0
  5  6  1  0  0  0  0
  5 25  1  0  0  0  0
  6  7  2  0  0  0  0
  6  8  1  0  0  0  0
  8  9  1  0  0  0  0
  8 26  1  0  0  0  0
  9 10  1  0  0  0  0
  9 27  1  0  0  0  0
  9 28  1  0  0  0  0
 10 17  1  0  0  0  0
 10 11  1  0  0  0  0
 10 29  1  0  0  0  0
 11 12  1  0  0  0  0
 11 30  1  0  0  0  0
 11 31  1  0  0  0  0
 12 13  1  0  0  0  0
 12 32  1  0  0  0  0
 12 33  1  0  0  0  0
 13 14  1  0  0  0  0
 13 17  1  0  0  0  0
 13 46  1  0  0  0  0
 14 15  1  0  0  0  0
 14 16  1  0  0  0  0
 14 34  1  0  0  0  0
 15 35  1  0  0  0  0
 15 36  1  0  0  0  0
 15 37  1  0  0  0  0
 16 38  1  0  0  0  0
 16 39  1  0  0  0  0
 16 40  1  0  0  0  0
 17 41  1  0  0  0  0
 17 42  1  0  0  0  0
 18 19  1  0  0  0  0
 18 20  1  0  0  0  0
 19 43  1  0  0  0  0
 19 44  1  0  0  0  0
 19 45  1  0  0  0  0
M  CHG  1  13   1
M  END
> <s_m_source_file>
AV-unprocessed.smi

> <i_m_source_file_index>
1600

> <i_lp_mmshare_version>
43012

> <i_f3d_flags>
0

> <s_epik_input>
W0NIM11jMVtjSF1jKG4objEpW0NIM10pW05IXUMoPU8pW05IXVtDSDJdW0NAQEhdMltDSDJdW0NIMl1OKFtDSDJdMilbQ0hdKFtDSDNdKVtDSDNd

> <s_epik_cmdline>
J2VwaWtfcHl0aG9uJywgJy1waCcsICc3LjAnLCAnLXRuJywgJzgnLCAnLW1hJywgJzIwMCcsICctbWV0YWxfYmluZGluZycsICctaW1hZScsICc8aW5maWxlLm1hZT4nLCAnLW9tYWUnLCAnPG91dGZpbGUubWFlPic=

> <r_lp_tautomer_probability>
1

> <r_epik_Ionization_Penalty>
0.000297652

> <r_epik_Ionization_Penalty_Charging>
0.000213653

> <r_epik_Ionization_Penalty_Neutral>
8.3999e-05

> <r_epik_State_Penalty>
-0

> <r_epik_Charging_Adjusted_Penalty>
0.000213653

> <i_epik_Tot_Q>
1

> <i_epik_Tot_abs_Q>
1

> <r_epik_Metal_State_Penalty>
-0

> <b_epik_Metal_Only>
0

> <s_lp_Force_Field>
OPLS_2005

> <r_lp_Energy>
32.0246

> <b_lp_Chiralities_Consistent>
1

> <s_lp_Variant>
AV-unprocessed.smi:1600-3

> <Gold.Version>
5.8.1

> <Gold.Id.Protein>
6NUR|6NUR_protein|mol2

> <Gold.PLP.Fitness>
41.4518

> <Gold.PLP.PLP>
-37.0234

> <Gold.PLP.part.hbond>
-3.6401

> <Gold.PLP.part.metal>
0.0000

> <Gold.PLP.part.buried>
-0.6319

> <Gold.PLP.part.nonpolar>
-34.3947

> <Gold.PLP.part.repulsive>
0.3458

> <Gold.PLP.ligand.clash>
0.0000

> <Gold.PLP.ligand.torsion>
0.6623

> <Gold.PLP.Chemscore.Hbond>
1.8960

> <Gold.PLP.Chemscore.CHOScore>
0.0000

> <Gold.PLP.Chemscore.Metal>
0.0000

> <Gold.Chemscore.Hbonds>
donor molecule, donor type, donor heavy atom, donor atom, acceptor molecule, acceptor atom, score
      L1  H     5    25       P1  7948  0.64
      L1  H     8    26       P1  7948  0.89

> <Gold.PLP.Chemscore.Internal.Correction>
0.0649

> <Gold.Rescore>
     Score         DG    S(hbond)    S(metal)    S(lipo)     H(rot)  DE(clash)    DE(int)     intcor
     13.45     -16.90       1.86        0.00      75.92       1.44       1.85       1.60       ----

> <Gold.Chemscore.Fitness>
13.4508

> <Gold.Chemscore.DG>
-16.8996

> <Gold.Chemscore.ZeroCoef>
-5.4800

> <Gold.Chemscore.Hbond>
1.8608

> <Gold.Chemscore.Metal>
0.0000

> <Gold.Chemscore.Lipo>
75.9241

> <Gold.Chemscore.Internal_Hbond>
0.0000

> <Gold.Chemscore.DEClash>
1.8462

> <Gold.Chemscore.DEInternal>
1.6026

> <Gold.Chemscore.Rot>
1.4369

> <Gold.Chemscore.Internal.Correction>
   9.000000E+99

> <Gold.Chemscore.Hbonds>
donor molecule, donor type, donor heavy atom, donor atom, acceptor molecule, acceptor atom, score
      L1  H     5    25       P1  7948  0.62
      L1  H     8    26       P1  7948  0.87

> <Gold.Chemscore.Hbond.Weighted>
-6.2150

> <Gold.Chemscore.Metal.Weighted>
-0.0000

> <Gold.Chemscore.Lipo.Weighted>
-8.8831

> <Gold.Chemscore.Internal_Hbond.Weighted>
0.0000

> <Gold.Chemscore.DEClash.Weighted>
1.8462

> <Gold.Chemscore.DEInternal.Weighted>
1.6026

> <Gold.Chemscore.Rot.Weighted>
3.6785

> <Gold.Chemscore.Internal.Correction.Weighted>
   9.000000E+99

> <Gold.Protein.RotatedTorsions>
[ 6907 6896 6895 6894 ] final  -55.11 input  -60.11 | X-H torsion
[ 7974 7965 7964 7962 ] final   33.25 input  175.53 | X-H torsion
[ 8008 7997 7996 7995 ] final -119.39 input   59.86 | X-H torsion
[ 10167 10162 10161 10158 ] final -116.95 input  -65.29 | X-H torsion
[ 10718 10713 10712 10709 ] final  146.93 input   66.30 | X-H torsion
[ 10763 10752 10751 10750 ] final  -79.04 input  -60.55 | X-H torsion
[ 11005 11000 10999 10996 ] final   62.43 input  -57.11 | X-H torsion

> <Gold.Protein.ActiveResidues>
 VAL166  LYS551  ARG553  GLY616  TRP617  ASP618  TYR619  PRO620  LYS621  CYS622 
 ASP623  PHE694  ASN695  SER759  ASP760  ASP761  ALA762  ILE779  LEU786  VAL792 
 PHE793  MET794  SER795  GLU796  ALA797  LYS798  CYS799  TRP800  GLU811  SER814 

> <Gold.Protein.RotatedAtoms>
  150.8280  134.7520  159.6829 H   0  0  0  0  0  0  0  0  0  0  0  0  # atno 6907 bound_to 6896
  152.4388  134.5629  159.9909 H   0  0  0  0  0  0  0  0  0  0  0  0  # atno 6908 bound_to 6896
  151.5796  133.3342  159.3042 H   0  0  0  0  0  0  0  0  0  0  0  0  # atno 6909 bound_to 6896
  146.1433  139.6420  142.9148 H   0  0  0  0  0  0  0  0  0  0  0  0  # atno 7974 bound_to 7965
  155.1149  140.0398  157.2734 H   0  0  0  0  0  0  0  0  0  0  0  0  # atno 8008 bound_to 7997
  154.6657  140.2601  155.7035 H   0  0  0  0  0  0  0  0  0  0  0  0  # atno 8009 bound_to 7997
  156.2638  140.2808  156.1146 H   0  0  0  0  0  0  0  0  0  0  0  0  # atno 8010 bound_to 7997
  140.0737  143.4853  152.1965 H   0  0  0  0  0  0  0  0  0  0  0  0  # atno 10167 bound_to 10162
  157.3272  131.0914  151.1192 H   0  0  0  0  0  0  0  0  0  0  0  0  # atno 10718 bound_to 10713
  154.5336  135.5709  153.6779 H   0  0  0  0  0  0  0  0  0  0  0  0  # atno 10763 bound_to 10752
  152.9945  135.6210  154.2596 H   0  0  0  0  0  0  0  0  0  0  0  0  # atno 10764 bound_to 10752
  154.2523  135.2858  155.2791 H   0  0  0  0  0  0  0  0  0  0  0  0  # atno 10765 bound_to 10752
  140.0093  134.6322  155.9806 H   0  0  0  0  0  0  0  0  0  0  0  0  # atno 11005 bound_to 11000
  145.4997  141.0438  143.2547 LP  0  0  0  0  0  0  0  0  0  0  0  0  # atno 17320 bound_to 7965
  144.7817  139.6512  143.7151 LP  0  0  0  0  0  0  0  0  0  0  0  0  # atno 17321 bound_to 7965
  139.5821  144.7515  151.3614 LP  0  0  0  0  0  0  0  0  0  0  0  0  # atno 17342 bound_to 10162
  140.7113  143.7383  150.7572 LP  0  0  0  0  0  0  0  0  0  0  0  0  # atno 17343 bound_to 10162
  157.2454  130.6589  149.5908 LP  0  0  0  0  0  0  0  0  0  0  0  0  # atno 17370 bound_to 10713
  155.9692  130.4555  150.5890 LP  0  0  0  0  0  0  0  0  0  0  0  0  # atno 17371 bound_to 10713
  141.1699  133.6537  156.4614 LP  0  0  0  0  0  0  0  0  0  0  0  0  # atno 17394 bound_to 11000
  140.4584  134.6864  157.5074 LP  0  0  0  0  0  0  0  0  0  0  0  0  # atno 17395 bound_to 11000

$$$$
