AV-unprocessed.smi:2005|AV-procd|sdf|8128|dock8
  -GOLD-   2272010363D 1   1.00000     0.00000
 Structure written by MMmdl.
 38 39  0  0  0  0  0  0  0  0  2 V2000
  152.2316  143.8133  161.2137 C   0  0  0  0  0  0  0  0  0  0  0  0
  152.6513  143.6771  159.7427 C   0  0  0  0  0  0  0  0  0  0  0  0
  151.9437  144.6785  158.8181 C   0  0  0  0  0  0  0  0  0  0  0  0
  152.5285  142.2690  159.2497 C   0  0  0  0  0  0  0  0  0  0  0  0
  153.2430  141.2551  159.7482 N   0  0  0  0  0  0  0  0  0  0  0  0
  152.9509  140.0510  159.1251 N   0  0  0  0  0  0  0  0  0  0  0  0
  152.0305  140.1693  158.1579 C   0  0  0  0  0  0  0  0  0  0  0  0
  151.6077  139.1204  157.4331 N   0  5  0  0  0  0  0  0  0  0  0  0
  151.1726  139.3061  156.1658 C   0  0  0  0  0  0  0  0  0  0  0  0
  151.7653  138.9783  155.1351 O   0  0  0  0  0  0  0  0  0  0  0  0
  149.9769  139.9090  156.0884 N   0  0  0  0  0  0  0  0  0  0  0  0
  149.2569  140.2412  154.8618 C   0  0  2  0  0  0  0  0  0  0  0  0
  148.6162  141.6340  155.0001 C   0  0  0  0  0  0  0  0  0  0  0  0
  147.8083  142.0113  153.7458 C   0  0  0  0  0  0  0  0  0  0  0  0
  146.7521  140.9481  153.3894 C   0  0  2  0  0  0  0  0  0  0  0  0
  145.7091  140.9613  154.3443 O   0  0  0  0  0  0  0  0  0  0  0  0
  147.3713  139.5403  153.3002 C   0  0  0  0  0  0  0  0  0  0  0  0
  148.1832  139.1776  154.5560 C   0  0  0  0  0  0  0  0  0  0  0  0
  151.4267  141.8138  157.9598 S   0  0  0  0  0  0  0  0  0  0  0  0
  152.8156  143.1480  161.8504 H   0  0  0  0  0  0  0  0  0  0  0  0
  151.1782  143.5659  161.3507 H   0  0  0  0  0  0  0  0  0  0  0  0
  152.3832  144.8315  161.5729 H   0  0  0  0  0  0  0  0  0  0  0  0
  153.7131  143.9236  159.7037 H   0  0  0  0  0  0  0  0  0  0  0  0
  152.3252  144.6084  157.7988 H   0  0  0  0  0  0  0  0  0  0  0  0
  152.0968  145.7029  159.1585 H   0  0  0  0  0  0  0  0  0  0  0  0
  150.8688  144.4965  158.7854 H   0  0  0  0  0  0  0  0  0  0  0  0
  149.5290  140.1567  156.9586 H   0  0  0  0  0  0  0  0  0  0  0  0
  149.9659  140.2775  154.0323 H   0  0  0  0  0  0  0  0  0  0  0  0
  147.9634  141.6562  155.8741 H   0  0  0  0  0  0  0  0  0  0  0  0
  149.3887  142.3838  155.1753 H   0  0  0  0  0  0  0  0  0  0  0  0
  147.3350  142.9843  153.8830 H   0  0  0  0  0  0  0  0  0  0  0  0
  148.4951  142.1239  152.9060 H   0  0  0  0  0  0  0  0  0  0  0  0
  146.3037  141.2009  152.4279 H   0  0  0  0  0  0  0  0  0  0  0  0
  144.8825  140.9431  153.8864 H   0  0  0  0  0  0  0  0  0  0  0  0
  146.5950  138.7943  153.1270 H   0  0  0  0  0  0  0  0  0  0  0  0
  148.0310  139.4979  152.4326 H   0  0  0  0  0  0  0  0  0  0  0  0
  148.6492  138.2017  154.4164 H   0  0  0  0  0  0  0  0  0  0  0  0
  147.5109  139.0763  155.4092 H   0  0  0  0  0  0  0  0  0  0  0  0
  1  2  1  0  0  0  0
  1 20  1  0  0  0  0
  1 21  1  0  0  0  0
  1 22  1  0  0  0  0
  2  3  1  0  0  0  0
  2  4  1  0  0  0  0
  2 23  1  0  0  0  0
  3 24  1  0  0  0  0
  3 25  1  0  0  0  0
  3 26  1  0  0  0  0
  4 19  1  0  0  0  0
  4  5  2  0  0  0  0
  5  6  1  0  0  0  0
  6  7  2  0  0  0  0
  7  8  1  0  0  0  0
  7 19  1  0  0  0  0
  8  9  1  0  0  0  0
  9 10  2  0  0  0  0
  9 11  1  0  0  0  0
 11 12  1  0  0  0  0
 11 27  1  0  0  0  0
 12 18  1  0  0  0  0
 12 13  1  0  0  0  0
 12 28  1  0  0  0  0
 13 14  1  0  0  0  0
 13 29  1  0  0  0  0
 13 30  1  0  0  0  0
 14 15  1  0  0  0  0
 14 31  1  0  0  0  0
 14 32  1  0  0  0  0
 15 16  1  0  0  0  0
 15 17  1  0  0  0  0
 15 33  1  0  0  0  0
 16 34  1  0  0  0  0
 17 18  1  0  0  0  0
 17 35  1  0  0  0  0
 17 36  1  0  0  0  0
 18 37  1  0  0  0  0
 18 38  1  0  0  0  0
M  CHG  1   8  -1
M  END
> <s_m_source_file>
AV-unprocessed.smi

> <i_m_source_file_index>
2005

> <i_lp_mmshare_version>
43012

> <i_f3d_flags>
0

> <s_epik_input>
W0NIM11bQ0hdKFtDSDNdKWMxbm5jKHMxKVtOSF1DKD1PKVtOSF1bQ0BASF0yW0NIMl1bQ0gyXVtDQEBIXShbT0hdKVtDSDJdW0NIMl0y

> <s_epik_cmdline>
J2VwaWtfcHl0aG9uJywgJy1waCcsICc3LjAnLCAnLXRuJywgJzgnLCAnLW1hJywgJzIwMCcsICctbWV0YWxfYmluZGluZycsICctaW1hZScsICc8aW5maWxlLm1hZT4nLCAnLW9tYWUnLCAnPG91dGZpbGUubWFlPic=

> <r_lp_tautomer_probability>
1

> <r_epik_Ionization_Penalty>
4.58298

> <r_epik_Ionization_Penalty_Charging>
4.41114

> <r_epik_Ionization_Penalty_Neutral>
0.171842

> <r_epik_State_Penalty>
4.41079

> <r_epik_Charging_Adjusted_Penalty>
8.82193

> <i_epik_Tot_Q>
-1

> <i_epik_Tot_abs_Q>
1

> <r_epik_Metal_State_Penalty>
0.7766

> <b_epik_Metal_Only>
1

> <s_lp_Force_Field>
OPLS_2005

> <r_lp_Energy>
2.0831

> <b_lp_Chiralities_Consistent>
1

> <s_lp_Variant>
AV-unprocessed.smi:2005-4

> <Gold.Version>
5.8.1

> <Gold.Id.Protein>
6NUR|6NUR_protein|mol2

> <Gold.PLP.Fitness>
42.3013

> <Gold.PLP.PLP>
-37.2899

> <Gold.PLP.part.hbond>
-3.0000

> <Gold.PLP.part.metal>
0.0000

> <Gold.PLP.part.buried>
1.4314

> <Gold.PLP.part.nonpolar>
-33.1718

> <Gold.PLP.part.repulsive>
0.1325

> <Gold.PLP.ligand.clash>
0.0000

> <Gold.PLP.ligand.torsion>
1.2786

> <Gold.PLP.Chemscore.Hbond>
2.4951

> <Gold.PLP.Chemscore.CHOScore>
0.0000

> <Gold.PLP.Chemscore.Metal>
0.0000

> <Gold.Chemscore.Hbonds>
donor molecule, donor type, donor heavy atom, donor atom, acceptor molecule, acceptor atom, score
      L1  H    16    34       P1 10175  1.00

> <Gold.PLP.Chemscore.Internal.Correction>
0.0834

> <Gold.Rescore>
     Score         DG    S(hbond)    S(metal)    S(lipo)     H(rot)  DE(clash)    DE(int)     intcor
     16.30     -18.40       1.67        0.00      99.84       1.70       0.87       1.23       ----

> <Gold.Chemscore.Fitness>
16.3008

> <Gold.Chemscore.DG>
-18.4012

> <Gold.Chemscore.ZeroCoef>
-5.4800

> <Gold.Chemscore.Hbond>
1.6718

> <Gold.Chemscore.Metal>
0.0000

> <Gold.Chemscore.Lipo>
99.8410

> <Gold.Chemscore.Internal_Hbond>
0.0000

> <Gold.Chemscore.DEClash>
0.8681

> <Gold.Chemscore.DEInternal>
1.2322

> <Gold.Chemscore.Rot>
1.6968

> <Gold.Chemscore.Internal.Correction>
   9.000000E+99

> <Gold.Chemscore.Hbonds>
donor molecule, donor type, donor heavy atom, donor atom, acceptor molecule, acceptor atom, score
      L1  H    16    34       P1 10175  0.87
      P1  H  7989  7998       L1    10  0.01

> <Gold.Chemscore.Hbond.Weighted>
-5.5837

> <Gold.Chemscore.Metal.Weighted>
-0.0000

> <Gold.Chemscore.Lipo.Weighted>
-11.6814

> <Gold.Chemscore.Internal_Hbond.Weighted>
0.0000

> <Gold.Chemscore.DEClash.Weighted>
0.8681

> <Gold.Chemscore.DEInternal.Weighted>
1.2322

> <Gold.Chemscore.Rot.Weighted>
4.3439

> <Gold.Chemscore.Internal.Correction.Weighted>
   9.000000E+99

> <Gold.Protein.RotatedTorsions>
[ 6907 6896 6895 6894 ] final -150.81 input  -60.11 | X-H torsion
[ 7974 7965 7964 7962 ] final   98.09 input  175.53 | X-H torsion
[ 8008 7997 7996 7995 ] final -110.03 input   59.86 | X-H torsion
[ 10167 10162 10161 10158 ] final   34.26 input  -65.29 | X-H torsion
[ 10718 10713 10712 10709 ] final  -53.51 input   66.30 | X-H torsion
[ 10763 10752 10751 10750 ] final  -63.64 input  -60.55 | X-H torsion
[ 11005 11000 10999 10996 ] final  -11.77 input  -57.11 | X-H torsion

> <Gold.Protein.ActiveResidues>
 VAL166  LYS551  ARG553  GLY616  TRP617  ASP618  TYR619  PRO620  LYS621  CYS622 
 ASP623  PHE694  ASN695  SER759  ASP760  ASP761  ALA762  ILE779  LEU786  VAL792 
 PHE793  MET794  SER795  GLU796  ALA797  LYS798  CYS799  TRP800  GLU811  SER814 

> <Gold.Protein.RotatedAtoms>
  151.2039  133.4594  159.2596 H   0  0  0  0  0  0  0  0  0  0  0  0  # atno 6907 bound_to 6896
  151.1042  134.9990  159.8473 H   0  0  0  0  0  0  0  0  0  0  0  0  # atno 6908 bound_to 6896
  152.5446  134.1964  159.8747 H   0  0  0  0  0  0  0  0  0  0  0  0  # atno 6909 bound_to 6896
  145.4168  139.2326  143.3218 H   0  0  0  0  0  0  0  0  0  0  0  0  # atno 7974 bound_to 7965
  154.9683  140.0398  157.2222 H   0  0  0  0  0  0  0  0  0  0  0  0  # atno 8008 bound_to 7997
  154.7825  140.2821  155.6030 H   0  0  0  0  0  0  0  0  0  0  0  0  # atno 8009 bound_to 7997
  156.2938  140.2589  156.2654 H   0  0  0  0  0  0  0  0  0  0  0  0  # atno 8010 bound_to 7997
  140.4331  144.1295  150.6162 H   0  0  0  0  0  0  0  0  0  0  0  0  # atno 10167 bound_to 10162
  156.1529  130.4151  149.9915 H   0  0  0  0  0  0  0  0  0  0  0  0  # atno 10718 bound_to 10713
  154.3181  135.6202  153.5495 H   0  0  0  0  0  0  0  0  0  0  0  0  # atno 10763 bound_to 10752
  152.9822  135.5717  154.5101 H   0  0  0  0  0  0  0  0  0  0  0  0  # atno 10764 bound_to 10752
  154.4764  135.2861  155.1580 H   0  0  0  0  0  0  0  0  0  0  0  0  # atno 10765 bound_to 10752
  140.7588  133.8532  155.9107 H   0  0  0  0  0  0  0  0  0  0  0  0  # atno 11005 bound_to 11000
  146.2677  140.4887  142.8827 LP  0  0  0  0  0  0  0  0  0  0  0  0  # atno 17320 bound_to 7965
  144.8272  140.6648  143.6314 LP  0  0  0  0  0  0  0  0  0  0  0  0  # atno 17321 bound_to 7965
  140.4404  143.2529  151.9480 LP  0  0  0  0  0  0  0  0  0  0  0  0  # atno 17342 bound_to 10162
  139.4786  144.5660  151.8165 LP  0  0  0  0  0  0  0  0  0  0  0  0  # atno 17343 bound_to 10162
  156.7768  130.9206  151.3645 LP  0  0  0  0  0  0  0  0  0  0  0  0  # atno 17370 bound_to 10713
  157.6672  130.9018  149.9958 LP  0  0  0  0  0  0  0  0  0  0  0  0  # atno 17371 bound_to 10713
  140.9683  134.1565  157.4598 LP  0  0  0  0  0  0  0  0  0  0  0  0  # atno 17394 bound_to 11000
  139.8774  134.9969  156.5820 LP  0  0  0  0  0  0  0  0  0  0  0  0  # atno 17395 bound_to 11000

$$$$
