AV-unprocessed.smi:2449|AV-procd|sdf|9663|dock8
  -GOLD-   2272013303D 1   1.00000     0.00000
 Structure written by MMmdl.
 37 37  0  0  0  0  0  0  0  0  1 V2000
  152.5695  142.8318  162.2686 C   0  0  0  0  0  0  0  0  0  0  0  0
  152.0799  143.7439  161.1391 C   0  0  0  0  0  0  0  0  0  0  0  0
  152.0703  143.0295  159.7719 C   0  0  0  0  0  0  0  0  0  0  0  0
  151.5865  143.8808  158.5640 C   0  0  0  0  0  0  0  0  0  0  0  0
  150.5675  144.9388  159.0311 C   0  0  0  0  0  0  0  0  0  0  0  0
  152.7860  144.6205  157.9322 C   0  0  0  0  0  0  0  0  0  0  0  0
  150.9135  143.0545  157.5531 N   0  0  0  0  0  0  0  0  0  0  0  0
  151.0855  141.7456  157.2952 C   0  0  0  0  0  0  0  0  0  0  0  0
  151.9029  141.0336  157.8792 O   0  0  0  0  0  0  0  0  0  0  0  0
  150.1952  141.1565  156.1924 C   0  0  0  0  0  0  0  0  0  0  0  0
  150.4351  139.7217  155.9792 N   0  0  0  0  0  0  0  0  0  0  0  0
  149.4330  138.7962  156.2338 C   0  0  0  0  0  0  0  0  0  0  0  0
  149.5840  137.4636  156.0457 C   0  0  0  0  0  0  0  0  0  0  0  0
  150.8464  136.9254  155.5505 C   0  0  0  0  0  0  0  0  0  0  0  0
  151.0802  135.7359  155.3494 O   0  0  0  0  0  0  0  0  0  0  0  0
  151.8289  137.8882  155.3042 N   0  0  0  0  0  0  0  0  0  0  0  0
  151.6801  139.2626  155.4956 C   0  0  0  0  0  0  0  0  0  0  0  0
  152.6117  140.0264  155.2442 O   0  0  0  0  0  0  0  0  0  0  0  0
  152.7194  137.5626  154.9568 H   0  0  0  0  0  0  0  0  0  0  0  0
  152.5706  143.3618  163.2214 H   0  0  0  0  0  0  0  0  0  0  0  0
  153.5849  142.4818  162.0805 H   0  0  0  0  0  0  0  0  0  0  0  0
  151.9266  141.9577  162.3751 H   0  0  0  0  0  0  0  0  0  0  0  0
  151.0803  144.0994  161.3889 H   0  0  0  0  0  0  0  0  0  0  0  0
  152.7199  144.6247  161.0990 H   0  0  0  0  0  0  0  0  0  0  0  0
  153.0748  142.6585  159.5636 H   0  0  0  0  0  0  0  0  0  0  0  0
  151.4512  142.1360  159.8571 H   0  0  0  0  0  0  0  0  0  0  0  0
  150.9829  145.5711  159.8167 H   0  0  0  0  0  0  0  0  0  0  0  0
  149.6562  144.4853  159.4209 H   0  0  0  0  0  0  0  0  0  0  0  0
  150.2721  145.5923  158.2093 H   0  0  0  0  0  0  0  0  0  0  0  0
  153.2377  145.3132  158.6431 H   0  0  0  0  0  0  0  0  0  0  0  0
  152.4819  145.2003  157.0599 H   0  0  0  0  0  0  0  0  0  0  0  0
  153.5715  143.9353  157.6133 H   0  0  0  0  0  0  0  0  0  0  0  0
  150.2171  143.5322  156.9997 H   0  0  0  0  0  0  0  0  0  0  0  0
  149.1419  141.3254  156.4261 H   0  0  0  0  0  0  0  0  0  0  0  0
  150.3811  141.7163  155.2748 H   0  0  0  0  0  0  0  0  0  0  0  0
  148.4786  139.1493  156.5976 H   0  0  0  0  0  0  0  0  0  0  0  0
  148.7655  136.7922  156.2616 H   0  0  0  0  0  0  0  0  0  0  0  0
  1  2  1  0  0  0  0
  1 20  1  0  0  0  0
  1 21  1  0  0  0  0
  1 22  1  0  0  0  0
  2  3  1  0  0  0  0
  2 23  1  0  0  0  0
  2 24  1  0  0  0  0
  3  4  1  0  0  0  0
  3 25  1  0  0  0  0
  3 26  1  0  0  0  0
  4  5  1  0  0  0  0
  4  6  1  0  0  0  0
  4  7  1  0  0  0  0
  5 27  1  0  0  0  0
  5 28  1  0  0  0  0
  5 29  1  0  0  0  0
  6 30  1  0  0  0  0
  6 31  1  0  0  0  0
  6 32  1  0  0  0  0
  7  8  1  0  0  0  0
  7 33  1  0  0  0  0
  8  9  2  0  0  0  0
  8 10  1  0  0  0  0
 10 11  1  0  0  0  0
 10 34  1  0  0  0  0
 10 35  1  0  0  0  0
 11 17  1  0  0  0  0
 11 12  1  0  0  0  0
 12 13  2  0  0  0  0
 12 36  1  0  0  0  0
 13 14  1  0  0  0  0
 13 37  1  0  0  0  0
 14 15  2  0  0  0  0
 14 16  1  0  0  0  0
 16 19  1  0  0  0  0
 16 17  1  0  0  0  0
 17 18  2  0  0  0  0
M  END
> <s_m_source_file>
AV-unprocessed.smi

> <i_m_source_file_index>
2449

> <i_lp_mmshare_version>
43012

> <i_f3d_flags>
0

> <s_epik_input>
W0NIM11bQ0gyXVtDSDJdQyhbQ0gzXSkoW0NIM10pW05IXUMoPU8pW0NIMl1uMVtjSF1bY0hdYyg9TylbbkhdYzE9Tw==

> <s_epik_cmdline>
J2VwaWtfcHl0aG9uJywgJy1waCcsICc3LjAnLCAnLXRuJywgJzgnLCAnLW1hJywgJzIwMCcsICctbWV0YWxfYmluZGluZycsICctaW1hZScsICc8aW5maWxlLm1hZT4nLCAnLW9tYWUnLCAnPG91dGZpbGUubWFlPic=

> <r_lp_tautomer_probability>
0.999537

> <r_epik_Ionization_Penalty>
0.00292856

> <r_epik_Ionization_Penalty_Charging>
0.00292854

> <r_epik_Ionization_Penalty_Neutral>
1.95902e-08

> <r_epik_State_Penalty>
0.00205284

> <r_epik_Charging_Adjusted_Penalty>
0.00498138

> <i_epik_Tot_Q>
0

> <i_epik_Tot_abs_Q>
0

> <r_epik_Metal_State_Penalty>
0.360056

> <b_epik_Metal_Only>
0

> <s_lp_Force_Field>
OPLS_2005

> <r_lp_Energy>
5.67084

> <b_lp_Chiralities_Consistent>
1

> <s_lp_Variant>
AV-unprocessed.smi:2449-1

> <Gold.Version>
5.8.1

> <Gold.Id.Protein>
6NUR|6NUR_protein|mol2

> <Gold.PLP.Fitness>
43.5734

> <Gold.PLP.PLP>
-36.6884

> <Gold.PLP.part.hbond>
-3.4699

> <Gold.PLP.part.metal>
0.0000

> <Gold.PLP.part.buried>
-4.1269

> <Gold.PLP.part.nonpolar>
-30.2041

> <Gold.PLP.part.repulsive>
0.2783

> <Gold.PLP.ligand.clash>
0.0000

> <Gold.PLP.ligand.torsion>
1.1307

> <Gold.PLP.Chemscore.Hbond>
3.0365

> <Gold.PLP.Chemscore.CHOScore>
0.0000

> <Gold.PLP.Chemscore.Metal>
0.0000

> <Gold.Chemscore.Hbonds>
donor molecule, donor type, donor heavy atom, donor atom, acceptor molecule, acceptor atom, score
      L1  H     7    33       P1  8028  0.52
      P1  H  7989  7998       L1    18  0.29
      P1  H  7997  8008       L1    18  1.00
      P1  H 10752 10764       L1    15  1.00

> <Gold.PLP.Chemscore.Internal.Correction>
0.0370

> <Gold.Rescore>
     Score         DG    S(hbond)    S(metal)    S(lipo)     H(rot)  DE(clash)    DE(int)     intcor
     16.36     -19.01       2.69        0.00      85.72       2.14       0.24       2.40       ----

> <Gold.Chemscore.Fitness>
16.3626

> <Gold.Chemscore.DG>
-19.0070

> <Gold.Chemscore.ZeroCoef>
-5.4800

> <Gold.Chemscore.Hbond>
2.6874

> <Gold.Chemscore.Metal>
0.0000

> <Gold.Chemscore.Lipo>
85.7152

> <Gold.Chemscore.Internal_Hbond>
0.0000

> <Gold.Chemscore.DEClash>
0.2403

> <Gold.Chemscore.DEInternal>
2.4041

> <Gold.Chemscore.Rot>
2.1397

> <Gold.Chemscore.Internal.Correction>
   9.000000E+99

> <Gold.Chemscore.Hbonds>
donor molecule, donor type, donor heavy atom, donor atom, acceptor molecule, acceptor atom, score
      L1  H     7    33       P1  8028  0.52
      P1  H  7989  7998       L1    18  0.04
      P1  H  7997  8008       L1    18  0.99
      P1  H 10752 10764       L1    15  0.68

> <Gold.Chemscore.Hbond.Weighted>
-8.9760

> <Gold.Chemscore.Metal.Weighted>
-0.0000

> <Gold.Chemscore.Lipo.Weighted>
-10.0287

> <Gold.Chemscore.Internal_Hbond.Weighted>
0.0000

> <Gold.Chemscore.DEClash.Weighted>
0.2403

> <Gold.Chemscore.DEInternal.Weighted>
2.4041

> <Gold.Chemscore.Rot.Weighted>
5.4777

> <Gold.Chemscore.Internal.Correction.Weighted>
   9.000000E+99

> <Gold.Protein.RotatedTorsions>
[ 6907 6896 6895 6894 ] final  -51.86 input  -60.11 | X-H torsion
[ 7974 7965 7964 7962 ] final   -9.37 input  175.53 | X-H torsion
[ 8008 7997 7996 7995 ] final  -28.55 input   59.86 | X-H torsion
[ 10167 10162 10161 10158 ] final  -21.38 input  -65.29 | X-H torsion
[ 10718 10713 10712 10709 ] final -142.34 input   66.30 | X-H torsion
[ 10763 10752 10751 10750 ] final  -45.94 input  -60.55 | X-H torsion
[ 11005 11000 10999 10996 ] final  -11.78 input  -57.11 | X-H torsion

> <Gold.Protein.ActiveResidues>
 VAL166  LYS551  ARG553  GLY616  TRP617  ASP618  TYR619  PRO620  LYS621  CYS622 
 ASP623  PHE694  ASN695  SER759  ASP760  ASP761  ALA762  ILE779  LEU786  VAL792 
 PHE793  MET794  SER795  GLU796  ALA797  LYS798  CYS799  TRP800  GLU811  SER814 

> <Gold.Protein.RotatedAtoms>
  150.8572  134.7914  159.7054 H   0  0  0  0  0  0  0  0  0  0  0  0  # atno 6907 bound_to 6896
  152.4620  134.5159  159.9778 H   0  0  0  0  0  0  0  0  0  0  0  0  # atno 6908 bound_to 6896
  151.5270  133.3418  159.2947 H   0  0  0  0  0  0  0  0  0  0  0  0  # atno 6909 bound_to 6896
  146.2253  140.2607  142.8351 H   0  0  0  0  0  0  0  0  0  0  0  0  # atno 7974 bound_to 7965
  154.4327  140.1842  156.1107 H   0  0  0  0  0  0  0  0  0  0  0  0  # atno 8008 bound_to 7997
  156.0220  140.3340  155.7023 H   0  0  0  0  0  0  0  0  0  0  0  0  # atno 8009 bound_to 7997
  155.5962  140.0636  157.2736 H   0  0  0  0  0  0  0  0  0  0  0  0  # atno 8010 bound_to 7997
  140.7281  143.4633  151.0349 H   0  0  0  0  0  0  0  0  0  0  0  0  # atno 10167 bound_to 10162
  156.3447  130.7656  151.1799 H   0  0  0  0  0  0  0  0  0  0  0  0  # atno 10718 bound_to 10713
  154.0368  135.6649  153.4786 H   0  0  0  0  0  0  0  0  0  0  0  0  # atno 10763 bound_to 10752
  153.0518  135.5080  154.7880 H   0  0  0  0  0  0  0  0  0  0  0  0  # atno 10764 bound_to 10752
  154.6843  135.3050  154.9535 H   0  0  0  0  0  0  0  0  0  0  0  0  # atno 10765 bound_to 10752
  140.7588  133.8532  155.9107 H   0  0  0  0  0  0  0  0  0  0  0  0  # atno 11005 bound_to 11000
  144.9342  140.8008  143.5670 LP  0  0  0  0  0  0  0  0  0  0  0  0  # atno 17320 bound_to 7965
  145.2553  139.2014  143.4921 LP  0  0  0  0  0  0  0  0  0  0  0  0  # atno 17321 bound_to 7965
  139.8319  143.7679  152.3180 LP  0  0  0  0  0  0  0  0  0  0  0  0  # atno 17342 bound_to 10162
  139.7798  144.7448  151.0105 LP  0  0  0  0  0  0  0  0  0  0  0  0  # atno 17343 bound_to 10162
  157.7452  131.0444  150.4793 LP  0  0  0  0  0  0  0  0  0  0  0  0  # atno 17370 bound_to 10713
  156.4979  130.4110  149.6369 LP  0  0  0  0  0  0  0  0  0  0  0  0  # atno 17371 bound_to 10713
  140.9682  134.1566  157.4598 LP  0  0  0  0  0  0  0  0  0  0  0  0  # atno 17394 bound_to 11000
  139.8774  134.9969  156.5820 LP  0  0  0  0  0  0  0  0  0  0  0  0  # atno 17395 bound_to 11000

$$$$
