AV-unprocessed.smi:2881|AV-procd|sdf|11069|dock3
  -GOLD-   2272015543D 1   1.00000     0.00000
 Structure written by MMmdl.
 40 42  0  0  0  0  0  0  0  0  1 V2000
  152.9315  142.9150  162.2463 C   0  0  0  0  0  0  0  0  0  0  0  0
  152.6350  142.6725  160.7957 C   0  0  0  0  0  0  0  0  0  0  0  0
  151.7546  143.4010  159.9431 C   0  0  0  0  0  0  0  0  0  0  0  0
  151.8611  142.7755  158.7322 C   0  0  0  0  0  0  0  0  0  0  0  0
  151.2016  143.0491  157.4174 C   0  0  0  0  0  0  0  0  0  0  0  0
  150.5725  141.7863  156.8205 C   0  0  0  0  0  0  0  0  0  0  0  0
  150.8306  140.6771  157.2890 O   0  0  0  0  0  0  0  0  0  0  0  0
  149.7523  141.9678  155.7742 N   0  0  0  0  0  0  0  0  0  0  0  0
  149.0597  140.8960  155.0574 C   0  0  2  0  0  0  0  0  0  0  0  0
  148.2593  141.3929  153.8249 C   0  0  2  0  0  0  0  0  0  0  0  0
  147.3497  142.5850  154.1906 C   0  0  0  0  0  0  0  0  0  0  0  0
  146.2695  141.9255  155.0664 C   0  0  0  0  0  0  0  0  0  0  0  0
  146.6828  140.4385  155.0655 C   0  0  1  0  0  0  0  0  0  0  0  0
  147.2258  140.2849  153.6497 C   0  0  0  0  0  0  0  0  0  0  0  0
  147.9627  140.1864  155.9005 C   0  0  2  0  0  0  0  0  0  0  0  0
  147.8789  140.5487  157.4004 C   0  0  0  0  0  0  0  0  0  0  0  0
  146.8374  139.8247  158.0203 O   0  0  0  0  0  0  0  0  0  0  0  0
  152.7546  141.7435  158.9121 N   0  0  0  0  0  0  0  0  0  0  0  0
  153.2347  141.6722  160.1675 N   0  0  0  0  0  0  0  0  0  0  0  0
  153.0442  141.0914  158.1972 H   0  0  0  0  0  0  0  0  0  0  0  0
  152.3118  143.7177  162.6461 H   0  0  0  0  0  0  0  0  0  0  0  0
  153.9746  143.1973  162.3913 H   0  0  0  0  0  0  0  0  0  0  0  0
  152.7410  142.0218  162.8418 H   0  0  0  0  0  0  0  0  0  0  0  0
  151.1418  144.2572  160.1837 H   0  0  0  0  0  0  0  0  0  0  0  0
  151.9344  143.4371  156.7096 H   0  0  0  0  0  0  0  0  0  0  0  0
  150.4435  143.8245  157.5381 H   0  0  0  0  0  0  0  0  0  0  0  0
  149.6012  142.9100  155.4449 H   0  0  0  0  0  0  0  0  0  0  0  0
  149.7948  140.1519  154.7436 H   0  0  0  0  0  0  0  0  0  0  0  0
  148.8811  141.5773  152.9481 H   0  0  0  0  0  0  0  0  0  0  0  0
  147.8701  143.3947  154.7018 H   0  0  0  0  0  0  0  0  0  0  0  0
  146.8997  143.0094  153.2921 H   0  0  0  0  0  0  0  0  0  0  0  0
  146.2130  142.3584  156.0639 H   0  0  0  0  0  0  0  0  0  0  0  0
  145.2880  142.0477  154.6067 H   0  0  0  0  0  0  0  0  0  0  0  0
  145.8646  139.7604  155.3097 H   0  0  0  0  0  0  0  0  0  0  0  0
  146.4866  140.4985  152.8754 H   0  0  0  0  0  0  0  0  0  0  0  0
  147.6689  139.3062  153.4565 H   0  0  0  0  0  0  0  0  0  0  0  0
  148.1701  139.1154  155.8547 H   0  0  0  0  0  0  0  0  0  0  0  0
  148.8133  140.2906  157.8995 H   0  0  0  0  0  0  0  0  0  0  0  0
  147.7197  141.6144  157.5609 H   0  0  0  0  0  0  0  0  0  0  0  0
  147.2129  139.0862  158.4746 H   0  0  0  0  0  0  0  0  0  0  0  0
  1 21  1  0  0  0  0
  1 22  1  0  0  0  0
  1 23  1  0  0  0  0
  1  2  1  0  0  0  0
  2 19  2  0  0  0  0
  2  3  1  0  0  0  0
  3  4  2  0  0  0  0
  3 24  1  0  0  0  0
  4 18  1  0  0  0  0
  4  5  1  0  0  0  0
  5  6  1  0  0  0  0
  5 25  1  0  0  0  0
  5 26  1  0  0  0  0
  6  7  2  0  0  0  0
  6  8  1  0  0  0  0
  8  9  1  0  0  0  0
  8 27  1  0  0  0  0
  9 15  1  0  0  0  0
  9 10  1  0  0  0  0
  9 28  1  0  0  0  0
 10 14  1  0  0  0  0
 10 11  1  0  0  0  0
 10 29  1  0  0  0  0
 11 12  1  0  0  0  0
 11 30  1  0  0  0  0
 11 31  1  0  0  0  0
 12 13  1  0  0  0  0
 12 32  1  0  0  0  0
 12 33  1  0  0  0  0
 13 14  1  0  0  0  0
 13 15  1  0  0  0  0
 13 34  1  0  0  0  0
 14 35  1  0  0  0  0
 14 36  1  0  0  0  0
 15 16  1  0  0  0  0
 15 37  1  0  0  0  0
 16 17  1  0  0  0  0
 16 38  1  0  0  0  0
 16 39  1  0  0  0  0
 17 40  1  0  0  0  0
 18 19  1  0  0  0  0
 18 20  1  0  0  0  0
M  END
> <s_m_source_file>
AV-unprocessed.smi

> <i_m_source_file_index>
2881

> <i_lp_mmshare_version>
43012

> <i_f3d_flags>
0

> <s_epik_input>
W0NIM11jMVtjSF1jKG5bbkhdMSlbQ0gyXUMoPU8pW05IXVtDQEhdKFtDQEBIXTIzKVtDQEhdKFtDSDJdW09IXSlbQ0BASF0oW0NIMl0zKVtDSDJdW0NIMl0y

> <s_epik_cmdline>
J2VwaWtfcHl0aG9uJywgJy1waCcsICc3LjAnLCAnLXRuJywgJzgnLCAnLW1hJywgJzIwMCcsICctbWV0YWxfYmluZGluZycsICctaW1hZScsICc8aW5maWxlLm1hZT4nLCAnLW9tYWUnLCAnPG91dGZpbGUubWFlPic=

> <r_lp_tautomer_probability>
0.5

> <r_epik_Ionization_Penalty>
0.00013396

> <r_epik_Ionization_Penalty_Charging>
0

> <r_epik_Ionization_Penalty_Neutral>
0.00013396

> <r_epik_State_Penalty>
0.41068

> <r_epik_Charging_Adjusted_Penalty>
0.41068

> <i_epik_Tot_Q>
0

> <i_epik_Tot_abs_Q>
0

> <r_epik_Metal_State_Penalty>
0.41066

> <b_epik_Metal_Only>
0

> <s_lp_Force_Field>
OPLS_2005

> <r_lp_Energy>
50.1234

> <b_lp_Chiralities_Consistent>
1

> <s_lp_Variant>
AV-unprocessed.smi:2881-15

> <Gold.Version>
5.8.1

> <Gold.Id.Protein>
6NUR|6NUR_protein|mol2

> <Gold.PLP.Fitness>
38.1293

> <Gold.PLP.PLP>
-35.6298

> <Gold.PLP.part.hbond>
-1.9378

> <Gold.PLP.part.metal>
0.0000

> <Gold.PLP.part.buried>
-3.5515

> <Gold.PLP.part.nonpolar>
-29.8827

> <Gold.PLP.part.repulsive>
0.2308

> <Gold.PLP.ligand.clash>
0.0000

> <Gold.PLP.ligand.torsion>
0.2564

> <Gold.PLP.Chemscore.Hbond>
1.0000

> <Gold.PLP.Chemscore.CHOScore>
0.0000

> <Gold.PLP.Chemscore.Metal>
0.0000

> <Gold.Chemscore.Hbonds>
donor molecule, donor type, donor heavy atom, donor atom, acceptor molecule, acceptor atom, score
      L1  H     8    27       P1  8028  1.00

> <Gold.PLP.Chemscore.Internal.Correction>
0.0123

> <Gold.Rescore>
     Score         DG    S(hbond)    S(metal)    S(lipo)     H(rot)  DE(clash)    DE(int)     intcor
     13.52     -14.06       1.00        0.00      94.61       2.28       0.20       0.34       ----

> <Gold.Chemscore.Fitness>
13.5193

> <Gold.Chemscore.DG>
-14.0567

> <Gold.Chemscore.ZeroCoef>
-5.4800

> <Gold.Chemscore.Hbond>
0.9978

> <Gold.Chemscore.Metal>
0.0000

> <Gold.Chemscore.Lipo>
94.6082

> <Gold.Chemscore.Internal_Hbond>
0.0000

> <Gold.Chemscore.DEClash>
0.2002

> <Gold.Chemscore.DEInternal>
0.3372

> <Gold.Chemscore.Rot>
2.2755

> <Gold.Chemscore.Internal.Correction>
   9.000000E+99

> <Gold.Chemscore.Hbonds>
donor molecule, donor type, donor heavy atom, donor atom, acceptor molecule, acceptor atom, score
      L1  H     8    27       P1  8028  0.95

> <Gold.Chemscore.Hbond.Weighted>
-3.3327

> <Gold.Chemscore.Metal.Weighted>
-0.0000

> <Gold.Chemscore.Lipo.Weighted>
-11.0692

> <Gold.Chemscore.Internal_Hbond.Weighted>
0.0000

> <Gold.Chemscore.DEClash.Weighted>
0.2002

> <Gold.Chemscore.DEInternal.Weighted>
0.3372

> <Gold.Chemscore.Rot.Weighted>
5.8252

> <Gold.Chemscore.Internal.Correction.Weighted>
   9.000000E+99

> <Gold.Protein.RotatedTorsions>
[ 6907 6896 6895 6894 ] final  163.30 input  -60.11 | X-H torsion
[ 7974 7965 7964 7962 ] final -139.65 input  175.53 | X-H torsion
[ 8008 7997 7996 7995 ] final -138.55 input   59.86 | X-H torsion
[ 10167 10162 10161 10158 ] final   89.03 input  -65.29 | X-H torsion
[ 10718 10713 10712 10709 ] final -137.63 input   66.30 | X-H torsion
[ 10763 10752 10751 10750 ] final   48.80 input  -60.55 | X-H torsion
[ 11005 11000 10999 10996 ] final  -23.95 input  -57.11 | X-H torsion

> <Gold.Protein.ActiveResidues>
 VAL166  LYS551  ARG553  GLY616  TRP617  ASP618  TYR619  PRO620  LYS621  CYS622 
 ASP623  PHE694  ASN695  SER759  ASP760  ASP761  ALA762  ILE779  LEU786  VAL792 
 PHE793  MET794  SER795  GLU796  ALA797  LYS798  CYS799  TRP800  GLU811  SER814 

> <Gold.Protein.RotatedAtoms>
  151.9273  133.3601  159.3918 H   0  0  0  0  0  0  0  0  0  0  0  0  # atno 6907 bound_to 6896
  150.7024  134.4573  159.5373 H   0  0  0  0  0  0  0  0  0  0  0  0  # atno 6908 bound_to 6896
  152.2208  134.8415  160.0537 H   0  0  0  0  0  0  0  0  0  0  0  0  # atno 6909 bound_to 6896
  144.8660  140.6293  143.5298 H   0  0  0  0  0  0  0  0  0  0  0  0  # atno 7974 bound_to 7965
  155.4302  140.0524  157.3019 H   0  0  0  0  0  0  0  0  0  0  0  0  # atno 8008 bound_to 7997
  154.4863  140.2102  155.9606 H   0  0  0  0  0  0  0  0  0  0  0  0  # atno 8009 bound_to 7997
  156.1279  140.3177  155.8310 H   0  0  0  0  0  0  0  0  0  0  0  0  # atno 8010 bound_to 7997
  139.8613  144.6542  150.9055 H   0  0  0  0  0  0  0  0  0  0  0  0  # atno 10167 bound_to 10162
  156.2902  130.7371  151.1394 H   0  0  0  0  0  0  0  0  0  0  0  0  # atno 10718 bound_to 10713
  152.9790  135.5932  154.3985 H   0  0  0  0  0  0  0  0  0  0  0  0  # atno 10763 bound_to 10752
  154.3633  135.2767  155.2309 H   0  0  0  0  0  0  0  0  0  0  0  0  # atno 10764 bound_to 10752
  154.4297  135.6039  153.6115 H   0  0  0  0  0  0  0  0  0  0  0  0  # atno 10765 bound_to 10752
  140.8799  133.7661  156.0289 H   0  0  0  0  0  0  0  0  0  0  0  0  # atno 11005 bound_to 11000
  145.4221  139.1562  143.4068 LP  0  0  0  0  0  0  0  0  0  0  0  0  # atno 17320 bound_to 7965
  146.2896  140.4332  142.8744 LP  0  0  0  0  0  0  0  0  0  0  0  0  # atno 17321 bound_to 7965
  140.7774  143.3742  151.1594 LP  0  0  0  0  0  0  0  0  0  0  0  0  # atno 17342 bound_to 10162
  139.7371  143.8982  152.3038 LP  0  0  0  0  0  0  0  0  0  0  0  0  # atno 17343 bound_to 10162
  157.7340  131.0585  150.5546 LP  0  0  0  0  0  0  0  0  0  0  0  0  # atno 17370 bound_to 10713
  156.5662  130.4268  149.6040 LP  0  0  0  0  0  0  0  0  0  0  0  0  # atno 17371 bound_to 10713
  140.8473  134.2995  157.5289 LP  0  0  0  0  0  0  0  0  0  0  0  0  # atno 17394 bound_to 11000
  139.8719  134.9449  156.3893 LP  0  0  0  0  0  0  0  0  0  0  0  0  # atno 17395 bound_to 11000

$$$$
