AV-unprocessed.smi:1812|AV-procd|sdf|7336|dock6
  -GOLD-   22720 8593D 1   1.00000     0.00000
 Structure written by MMmdl.
 34 36  0  0  0  0  0  0  0  0  1 V2000
  145.8760  138.9483  153.7758 O   0  0  0  0  0  0  0  0  0  0  0  0
  146.7798  138.3550  153.1862 C   0  0  0  0  0  0  0  0  0  0  0  0
  146.5624  137.3733  152.2995 N   0  0  0  0  0  0  0  0  0  0  0  0
  145.2474  136.8867  151.8978 C   0  0  0  0  0  0  0  0  0  0  0  0
  145.3555  135.6562  150.9821 C   0  0  2  0  0  0  0  0  0  0  0  0
  144.0060  135.0346  150.6266 C   0  0  0  0  0  0  0  0  0  0  0  0
  144.4004  133.6084  150.3181 C   0  0  0  0  0  0  0  0  0  0  0  0
  145.4725  133.3503  151.3721 C   0  0  0  0  0  0  0  0  0  0  0  0
  146.0835  134.6127  151.6270 O   0  0  0  0  0  0  0  0  0  0  0  0
  148.0945  138.5957  153.3335 N   0  0  0  0  0  0  0  0  0  0  0  0
  148.7250  139.5546  154.1699 C   0  0  0  0  0  0  0  0  0  0  0  0
  148.1191  140.6602  154.6242 N   0  0  0  0  0  0  0  0  0  0  0  0
  148.9618  141.4225  155.4208 N   0  0  0  0  0  0  0  0  0  0  0  0
  150.1761  140.8738  155.5469 C   0  0  0  0  0  0  0  0  0  0  0  0
  151.2561  141.5095  156.3574 C   0  0  0  0  0  0  0  0  0  0  0  0
  151.1925  141.5537  157.8687 C   0  0  0  0  0  0  0  0  0  0  0  0
  151.0167  142.8205  157.0708 C   0  0  0  0  0  0  0  0  0  0  0  0
  150.3913  139.3542  154.6839 S   0  0  0  0  0  0  0  0  0  0  0  0
  147.3605  136.9417  151.8572 H   0  0  0  0  0  0  0  0  0  0  0  0
  144.6832  136.6367  152.7966 H   0  0  0  0  0  0  0  0  0  0  0  0
  144.6948  137.6835  151.3970 H   0  0  0  0  0  0  0  0  0  0  0  0
  145.8787  135.9094  150.0583 H   0  0  0  0  0  0  0  0  0  0  0  0
  143.3312  135.0572  151.4837 H   0  0  0  0  0  0  0  0  0  0  0  0
  143.5154  135.5339  149.7906 H   0  0  0  0  0  0  0  0  0  0  0  0
  143.5667  132.9081  150.3753 H   0  0  0  0  0  0  0  0  0  0  0  0
  144.8323  133.5475  149.3182 H   0  0  0  0  0  0  0  0  0  0  0  0
  145.0186  132.9945  152.2979 H   0  0  0  0  0  0  0  0  0  0  0  0
  146.2046  132.6105  151.0481 H   0  0  0  0  0  0  0  0  0  0  0  0
  148.7182  138.0279  152.7792 H   0  0  0  0  0  0  0  0  0  0  0  0
  152.2278  141.3516  155.8937 H   0  0  0  0  0  0  0  0  0  0  0  0
  150.3094  141.1510  158.3605 H   0  0  0  0  0  0  0  0  0  0  0  0
  152.1261  141.4293  158.4135 H   0  0  0  0  0  0  0  0  0  0  0  0
  151.8323  143.5406  157.0838 H   0  0  0  0  0  0  0  0  0  0  0  0
  150.0171  143.2477  157.0219 H   0  0  0  0  0  0  0  0  0  0  0  0
  1  2  2  0  0  0  0
  2  3  1  0  0  0  0
  2 10  1  0  0  0  0
  3  4  1  0  0  0  0
  3 19  1  0  0  0  0
  4  5  1  0  0  0  0
  4 20  1  0  0  0  0
  4 21  1  0  0  0  0
  5  9  1  0  0  0  0
  5  6  1  0  0  0  0
  5 22  1  0  0  0  0
  6  7  1  0  0  0  0
  6 23  1  0  0  0  0
  6 24  1  0  0  0  0
  7  8  1  0  0  0  0
  7 25  1  0  0  0  0
  7 26  1  0  0  0  0
  8  9  1  0  0  0  0
  8 27  1  0  0  0  0
  8 28  1  0  0  0  0
 10 11  1  0  0  0  0
 10 29  1  0  0  0  0
 11 18  1  0  0  0  0
 11 12  2  0  0  0  0
 12 13  1  0  0  0  0
 13 14  2  0  0  0  0
 14 15  1  0  0  0  0
 14 18  1  0  0  0  0
 15 17  1  0  0  0  0
 15 16  1  0  0  0  0
 15 30  1  0  0  0  0
 16 17  1  0  0  0  0
 16 31  1  0  0  0  0
 16 32  1  0  0  0  0
 17 33  1  0  0  0  0
 17 34  1  0  0  0  0
M  END
> <s_m_source_file>
AV-unprocessed.smi

> <i_m_source_file_index>
1812

> <i_lp_mmshare_version>
43012

> <i_f3d_flags>
0

> <s_epik_input>
TzFbQ0gyXVtDSDJdW0NIMl1bQ0BIXTFbQ0gyXVtOSF1DKD1PKVtOSF1jMm5uYyhzMilbQ0hdM1tDSDJdW0NIMl0z

> <s_epik_cmdline>
J2VwaWtfcHl0aG9uJywgJy1waCcsICc3LjAnLCAnLXRuJywgJzgnLCAnLW1hJywgJzIwMCcsICctbWV0YWxfYmluZGluZycsICctaW1hZScsICc8aW5maWxlLm1hZT4nLCAnLW9tYWUnLCAnPG91dGZpbGUubWFlPic=

> <r_lp_tautomer_probability>
1

> <r_epik_Ionization_Penalty>
0.000281817

> <r_epik_Ionization_Penalty_Charging>
0

> <r_epik_Ionization_Penalty_Neutral>
0.000281817

> <r_epik_State_Penalty>
-0

> <r_epik_Charging_Adjusted_Penalty>
0

> <i_epik_Tot_Q>
0

> <i_epik_Tot_abs_Q>
0

> <r_epik_Metal_State_Penalty>
0.157535

> <b_epik_Metal_Only>
0

> <s_lp_Force_Field>
OPLS_2005

> <r_lp_Energy>
14.57

> <b_lp_Chiralities_Consistent>
1

> <s_lp_Variant>
AV-unprocessed.smi:1812-1

> <Gold.Version>
5.8.1

> <Gold.Id.Protein>
6NUR|6NUR_protein|mol2

> <Gold.PLP.Fitness>
35.0612

> <Gold.PLP.PLP>
-29.8300

> <Gold.PLP.part.hbond>
-3.0000

> <Gold.PLP.part.metal>
0.0000

> <Gold.PLP.part.buried>
-3.5924

> <Gold.PLP.part.nonpolar>
-25.2023

> <Gold.PLP.part.repulsive>
0.9542

> <Gold.PLP.ligand.clash>
0.0000

> <Gold.PLP.ligand.torsion>
0.2480

> <Gold.PLP.Chemscore.Hbond>
1.8640

> <Gold.PLP.Chemscore.CHOScore>
0.0000

> <Gold.PLP.Chemscore.Metal>
0.0000

> <Gold.Chemscore.Hbonds>
donor molecule, donor type, donor heavy atom, donor atom, acceptor molecule, acceptor atom, score
      L1  H     3    19       P1  7948  1.00
      L1  H    10    29       P1  7948  0.93

> <Gold.PLP.Chemscore.Internal.Correction>
0.1352

> <Gold.Rescore>
     Score         DG    S(hbond)    S(metal)    S(lipo)     H(rot)  DE(clash)    DE(int)     intcor
     14.37     -15.84       1.95        0.00      64.95       1.47       0.07       1.40       ----

> <Gold.Chemscore.Fitness>
14.3684

> <Gold.Chemscore.DG>
-15.8382

> <Gold.Chemscore.ZeroCoef>
-5.4800

> <Gold.Chemscore.Hbond>
1.9547

> <Gold.Chemscore.Metal>
0.0000

> <Gold.Chemscore.Lipo>
64.9493

> <Gold.Chemscore.Internal_Hbond>
0.0000

> <Gold.Chemscore.DEClash>
0.0686

> <Gold.Chemscore.DEInternal>
1.4012

> <Gold.Chemscore.Rot>
1.4725

> <Gold.Chemscore.Internal.Correction>
   9.000000E+99

> <Gold.Chemscore.Hbonds>
donor molecule, donor type, donor heavy atom, donor atom, acceptor molecule, acceptor atom, score
      L1  H     3    19       P1  7948  0.98
      L1  H    10    29       P1  7948  0.86

> <Gold.Chemscore.Hbond.Weighted>
-6.5286

> <Gold.Chemscore.Metal.Weighted>
-0.0000

> <Gold.Chemscore.Lipo.Weighted>
-7.5991

> <Gold.Chemscore.Internal_Hbond.Weighted>
0.0000

> <Gold.Chemscore.DEClash.Weighted>
0.0686

> <Gold.Chemscore.DEInternal.Weighted>
1.4012

> <Gold.Chemscore.Rot.Weighted>
3.7695

> <Gold.Chemscore.Internal.Correction.Weighted>
   9.000000E+99

> <Gold.Protein.RotatedTorsions>
[ 6907 6896 6895 6894 ] final   71.77 input  -60.11 | X-H torsion
[ 7974 7965 7964 7962 ] final   30.97 input  175.53 | X-H torsion
[ 8008 7997 7996 7995 ] final  -35.82 input   59.86 | X-H torsion
[ 10167 10162 10161 10158 ] final  -44.29 input  -65.29 | X-H torsion
[ 10718 10713 10712 10709 ] final -143.08 input   66.30 | X-H torsion
[ 10763 10752 10751 10750 ] final  143.17 input  -60.55 | X-H torsion
[ 11005 11000 10999 10996 ] final -139.87 input  -57.11 | X-H torsion

> <Gold.Protein.ActiveResidues>
 VAL166  LYS551  ARG553  GLY616  TRP617  ASP618  TYR619  PRO620  LYS621  CYS622 
 ASP623  PHE694  ASN695  SER759  ASP760  ASP761  ALA762  ILE779  LEU786  VAL792 
 PHE793  MET794  SER795  GLU796  ALA797  LYS798  CYS799  TRP800  GLU811  SER814 

> <Gold.Protein.RotatedAtoms>
  152.4829  134.4670  159.9623 H   0  0  0  0  0  0  0  0  0  0  0  0  # atno 6907 bound_to 6896
  151.4672  133.3572  159.2826 H   0  0  0  0  0  0  0  0  0  0  0  0  # atno 6908 bound_to 6896
  150.8916  134.8346  159.7358 H   0  0  0  0  0  0  0  0  0  0  0  0  # atno 6909 bound_to 6896
  146.1579  139.6718  142.9054 H   0  0  0  0  0  0  0  0  0  0  0  0  # atno 7974 bound_to 7965
  154.4086  140.1647  156.2274 H   0  0  0  0  0  0  0  0  0  0  0  0  # atno 8008 bound_to 7997
  155.9312  140.3414  155.6227 H   0  0  0  0  0  0  0  0  0  0  0  0  # atno 8009 bound_to 7997
  155.7105  140.0756  157.2364 H   0  0  0  0  0  0  0  0  0  0  0  0  # atno 8010 bound_to 7997
  140.6902  143.2938  151.3474 H   0  0  0  0  0  0  0  0  0  0  0  0  # atno 10167 bound_to 10162
  156.3537  130.7701  151.1858 H   0  0  0  0  0  0  0  0  0  0  0  0  # atno 10718 bound_to 10713
  153.9679  135.2953  155.3429 H   0  0  0  0  0  0  0  0  0  0  0  0  # atno 10763 bound_to 10752
  154.7338  135.5055  153.9011 H   0  0  0  0  0  0  0  0  0  0  0  0  # atno 10764 bound_to 10752
  153.0914  135.6709  153.9958 H   0  0  0  0  0  0  0  0  0  0  0  0  # atno 10765 bound_to 10752
  140.8478  134.2323  157.4777 H   0  0  0  0  0  0  0  0  0  0  0  0  # atno 11005 bound_to 11000
  145.4662  141.0434  143.2724 LP  0  0  0  0  0  0  0  0  0  0  0  0  # atno 17320 bound_to 7965
  144.7987  139.6182  143.7081 LP  0  0  0  0  0  0  0  0  0  0  0  0  # atno 17321 bound_to 7965
  139.6298  144.0743  152.2466 LP  0  0  0  0  0  0  0  0  0  0  0  0  # atno 17342 bound_to 10162
  140.0214  144.6150  150.7564 LP  0  0  0  0  0  0  0  0  0  0  0  0  # atno 17343 bound_to 10162
  157.7464  131.0420  150.4674 LP  0  0  0  0  0  0  0  0  0  0  0  0  # atno 17370 bound_to 10713
  156.4873  130.4087  149.6427 LP  0  0  0  0  0  0  0  0  0  0  0  0  # atno 17371 bound_to 10713
  139.8703  134.9668  156.4574 LP  0  0  0  0  0  0  0  0  0  0  0  0  # atno 17394 bound_to 11000
  140.8824  133.7908  155.9481 LP  0  0  0  0  0  0  0  0  0  0  0  0  # atno 17395 bound_to 11000

$$$$
