AV-unprocessed.smi:234|AV-procd|sdf|1800|dock4
  -GOLD-   2262020373D 1   1.00000     0.00000
 Structure written by MMmdl.
 59 62  0  0  0  0  0  0  0  0  1 V2000
  153.0127  143.1604  160.4243 C   0  0  0  0  0  0  0  0  0  0  0  0
  152.8785  141.7915  159.7540 C   0  0  0  0  0  0  0  0  0  0  0  0
  151.8372  141.8513  158.7936 O   0  0  0  0  0  0  0  0  0  0  0  0
  151.7471  140.6782  157.9999 C   0  0  1  0  0  0  0  0  0  0  0  0
  150.9621  139.5687  158.6975 C   0  0  0  0  0  0  0  0  0  0  0  0
  150.3074  139.2616  157.3366 C   0  0  2  0  0  0  0  0  0  0  0  0
  150.9192  138.1814  156.5413 N   0  0  0  0  0  0  0  0  0  0  0  0
  152.3569  138.1672  156.3109 C   0  0  0  0  0  0  0  0  0  0  0  0
  150.2592  137.0585  156.1811 C   0  0  0  0  0  0  0  0  0  0  0  0
  150.9181  135.8724  156.2063 N   0  0  0  0  0  0  0  0  0  0  0  0
  150.2865  134.7513  155.8453 C   0  0  0  0  0  0  0  0  0  0  0  0
  149.0292  134.6004  155.4222 N   0  0  0  0  0  0  0  0  0  0  0  0
  148.3732  135.7956  155.3780 C   0  0  0  0  0  0  0  0  0  0  0  0
  148.9104  137.0629  155.7357 C   0  0  0  0  0  0  0  0  0  0  0  0
  147.9537  138.0545  155.5601 N   0  0  0  0  0  0  0  0  0  0  0  0
  146.9053  137.4075  155.1285 C   0  0  0  0  0  0  0  0  0  0  0  0
  147.0723  136.0483  154.9789 N   0  0  0  0  0  0  0  0  0  0  0  0
  146.0788  135.0941  154.5093 C   0  0  0  0  0  0  0  0  0  0  0  0
  146.0365  134.9581  152.9643 C   0  0  2  0  0  0  0  0  0  0  0  0
  146.5212  136.1653  152.4010 O   0  0  0  0  0  0  0  0  0  0  0  0
  144.6309  134.7172  152.4151 C   0  0  0  0  0  0  0  0  0  0  0  0
  144.8808  133.8760  151.1729 C   0  0  0  0  0  0  0  0  0  0  0  0
  145.9261  133.0200  151.5966 O   0  0  0  0  0  0  0  0  0  0  0  0
  146.8583  133.7888  152.3506 C   0  0  2  0  0  0  0  0  0  0  0  0
  147.5737  132.8471  153.3320 C   0  0  0  0  0  0  0  0  0  0  0  0
  150.6699  140.7109  156.8857 C   0  0  0  0  0  0  0  0  0  0  0  0
  149.5278  141.7163  157.0926 C   0  0  0  0  0  0  0  0  0  0  0  0
  151.1817  140.9416  155.4584 C   0  0  0  0  0  0  0  0  0  0  0  0
  153.8031  143.1504  161.1749 H   0  0  0  0  0  0  0  0  0  0  0  0
  152.0846  143.4467  160.9193 H   0  0  0  0  0  0  0  0  0  0  0  0
  153.2548  143.9311  159.6922 H   0  0  0  0  0  0  0  0  0  0  0  0
  153.8214  141.5191  159.2798 H   0  0  0  0  0  0  0  0  0  0  0  0
  152.6541  141.0305  160.5026 H   0  0  0  0  0  0  0  0  0  0  0  0
  152.7185  140.3184  157.6556 H   0  0  0  0  0  0  0  0  0  0  0  0
  151.5760  138.7985  159.1589 H   0  0  0  0  0  0  0  0  0  0  0  0
  150.2434  139.9598  159.4190 H   0  0  0  0  0  0  0  0  0  0  0  0
  149.2306  139.1236  157.4400 H   0  0  0  0  0  0  0  0  0  0  0  0
  152.5718  137.9804  155.2583 H   0  0  0  0  0  0  0  0  0  0  0  0
  152.8412  137.3908  156.9035 H   0  0  0  0  0  0  0  0  0  0  0  0
  152.8005  139.1258  156.5807 H   0  0  0  0  0  0  0  0  0  0  0  0
  150.8726  133.8458  155.9024 H   0  0  0  0  0  0  0  0  0  0  0  0
  145.9763  137.9091  154.8997 H   0  0  0  0  0  0  0  0  0  0  0  0
  146.2868  134.1289  154.9734 H   0  0  0  0  0  0  0  0  0  0  0  0
  145.1096  135.4174  154.8893 H   0  0  0  0  0  0  0  0  0  0  0  0
  147.4136  136.0291  152.1214 H   0  0  0  0  0  0  0  0  0  0  0  0
  144.0484  134.1244  153.1214 H   0  0  0  0  0  0  0  0  0  0  0  0
  144.0719  135.6315  152.2096 H   0  0  0  0  0  0  0  0  0  0  0  0
  144.0013  133.3141  150.8579 H   0  0  0  0  0  0  0  0  0  0  0  0
  145.2192  134.4925  150.3385 H   0  0  0  0  0  0  0  0  0  0  0  0
  147.5991  134.1759  151.6482 H   0  0  0  0  0  0  0  0  0  0  0  0
  148.3084  133.3828  153.9332 H   0  0  0  0  0  0  0  0  0  0  0  0
  148.1049  132.0635  152.7915 H   0  0  0  0  0  0  0  0  0  0  0  0
  146.8700  132.3573  154.0050 H   0  0  0  0  0  0  0  0  0  0  0  0
  148.7163  141.5475  156.3842 H   0  0  0  0  0  0  0  0  0  0  0  0
  149.8651  142.7451  156.9633 H   0  0  0  0  0  0  0  0  0  0  0  0
  149.0986  141.6454  158.0921 H   0  0  0  0  0  0  0  0  0  0  0  0
  150.4268  140.6835  154.7154 H   0  0  0  0  0  0  0  0  0  0  0  0
  152.0713  140.3514  155.2425 H   0  0  0  0  0  0  0  0  0  0  0  0
  151.4541  141.9841  155.2922 H   0  0  0  0  0  0  0  0  0  0  0  0
  1  2  1  0  0  0  0
  1 29  1  0  0  0  0
  1 30  1  0  0  0  0
  1 31  1  0  0  0  0
  2  3  1  0  0  0  0
  2 32  1  0  0  0  0
  2 33  1  0  0  0  0
  3  4  1  0  0  0  0
  4 26  1  0  0  0  0
  4  5  1  0  0  0  0
  4 34  1  0  0  0  0
  5  6  1  0  0  0  0
  5 35  1  0  0  0  0
  5 36  1  0  0  0  0
  6  7  1  0  0  0  0
  6 26  1  0  0  0  0
  6 37  1  0  0  0  0
  7  8  1  0  0  0  0
  7  9  1  0  0  0  0
  8 38  1  0  0  0  0
  8 39  1  0  0  0  0
  8 40  1  0  0  0  0
  9 14  1  0  0  0  0
  9 10  2  0  0  0  0
 10 11  1  0  0  0  0
 11 12  2  0  0  0  0
 11 41  1  0  0  0  0
 12 13  1  0  0  0  0
 13 17  1  0  0  0  0
 13 14  2  0  0  0  0
 14 15  1  0  0  0  0
 15 16  2  0  0  0  0
 16 17  1  0  0  0  0
 16 42  1  0  0  0  0
 17 18  1  0  0  0  0
 18 19  1  0  0  0  0
 18 43  1  0  0  0  0
 18 44  1  0  0  0  0
 19 24  1  0  0  0  0
 19 20  1  0  0  0  0
 19 21  1  0  0  0  0
 20 45  1  0  0  0  0
 21 22  1  0  0  0  0
 21 46  1  0  0  0  0
 21 47  1  0  0  0  0
 22 23  1  0  0  0  0
 22 48  1  0  0  0  0
 22 49  1  0  0  0  0
 23 24  1  0  0  0  0
 24 25  1  0  0  0  0
 24 50  1  0  0  0  0
 25 51  1  0  0  0  0
 25 52  1  0  0  0  0
 25 53  1  0  0  0  0
 26 27  1  0  0  0  0
 26 28  1  0  0  0  0
 27 54  1  0  0  0  0
 27 55  1  0  0  0  0
 27 56  1  0  0  0  0
 28 57  1  0  0  0  0
 28 58  1  0  0  0  0
 28 59  1  0  0  0  0
M  END
> <s_m_source_file>
AV-unprocessed.smi

> <i_m_source_file_index>
234

> <i_lp_mmshare_version>
43012

> <i_f3d_flags>
0

> <s_epik_input>
W0NIM11bQ0gyXU9bQ0BASF0oQzEoW0NIM10pW0NIM10pW0NIMl1bQ0BIXTFOKFtDSDNdKWMobltjSF1uMiljKGMyMyluW2NIXW4zW0NIMl1bQ0BAXTQoW09IXSlbQ0gyXVtDSDJdT1tDQEhdNFtDSDNd

> <s_epik_cmdline>
J2VwaWtfcHl0aG9uJywgJy1waCcsICc3LjAnLCAnLXRuJywgJzgnLCAnLW1hJywgJzIwMCcsICctbWV0YWxfYmluZGluZycsICctaW1hZScsICc8aW5maWxlLm1hZT4nLCAnLW9tYWUnLCAnPG91dGZpbGUubWFlPic=

> <r_lp_tautomer_probability>
1

> <r_epik_Ionization_Penalty>
0.00349132

> <r_epik_Ionization_Penalty_Charging>
0

> <r_epik_Ionization_Penalty_Neutral>
0.00349132

> <r_epik_State_Penalty>
0.00242418

> <r_epik_Charging_Adjusted_Penalty>
0.00242418

> <i_epik_Tot_Q>
0

> <i_epik_Tot_abs_Q>
0

> <r_epik_Metal_State_Penalty>
-0

> <b_epik_Metal_Only>
0

> <s_lp_Force_Field>
OPLS_2005

> <r_lp_Energy>
53.0859

> <b_lp_Chiralities_Consistent>
1

> <s_lp_Variant>
AV-unprocessed.smi:234-16

> <Gold.Version>
5.8.1

> <Gold.Id.Protein>
6NUR|6NUR_protein|mol2

> <Gold.PLP.Fitness>
37.5275

> <Gold.PLP.PLP>
-34.5120

> <Gold.PLP.part.hbond>
-1.9636

> <Gold.PLP.part.metal>
0.0000

> <Gold.PLP.part.buried>
-6.3901

> <Gold.PLP.part.nonpolar>
-26.4879

> <Gold.PLP.part.repulsive>
0.3187

> <Gold.PLP.ligand.clash>
0.0000

> <Gold.PLP.ligand.torsion>
1.9164

> <Gold.PLP.Chemscore.Hbond>
2.0000

> <Gold.PLP.Chemscore.CHOScore>
0.0000

> <Gold.PLP.Chemscore.Metal>
0.0000

> <Gold.Chemscore.Hbonds>
donor molecule, donor type, donor heavy atom, donor atom, acceptor molecule, acceptor atom, score
      L1  H    20    45       P1  7948  1.00

> <Gold.PLP.Chemscore.Internal.Correction>
0.8483

> <Gold.Rescore>
     Score         DG    S(hbond)    S(metal)    S(lipo)     H(rot)  DE(clash)    DE(int)     intcor
     11.61     -14.22       1.68        0.00      78.60       2.37       0.07       2.54       ----

> <Gold.Chemscore.Fitness>
11.6121

> <Gold.Chemscore.DG>
-14.2245

> <Gold.Chemscore.ZeroCoef>
-5.4800

> <Gold.Chemscore.Hbond>
1.6796

> <Gold.Chemscore.Metal>
0.0000

> <Gold.Chemscore.Lipo>
78.5957

> <Gold.Chemscore.Internal_Hbond>
0.0000

> <Gold.Chemscore.DEClash>
0.0701

> <Gold.Chemscore.DEInternal>
2.5423

> <Gold.Chemscore.Rot>
2.3676

> <Gold.Chemscore.Internal.Correction>
   9.000000E+99

> <Gold.Chemscore.Hbonds>
donor molecule, donor type, donor heavy atom, donor atom, acceptor molecule, acceptor atom, score
      L1  H    20    45       P1  7948  0.95

> <Gold.Chemscore.Hbond.Weighted>
-5.6098

> <Gold.Chemscore.Metal.Weighted>
-0.0000

> <Gold.Chemscore.Lipo.Weighted>
-9.1957

> <Gold.Chemscore.Internal_Hbond.Weighted>
0.0000

> <Gold.Chemscore.DEClash.Weighted>
0.0701

> <Gold.Chemscore.DEInternal.Weighted>
2.5423

> <Gold.Chemscore.Rot.Weighted>
6.0610

> <Gold.Chemscore.Internal.Correction.Weighted>
   9.000000E+99

> <Gold.Protein.RotatedTorsions>
[ 6907 6896 6895 6894 ] final    3.55 input  -60.11 | X-H torsion
[ 7974 7965 7964 7962 ] final   44.15 input  175.53 | X-H torsion
[ 8008 7997 7996 7995 ] final   -1.38 input   59.86 | X-H torsion
[ 10167 10162 10161 10158 ] final  170.27 input  -65.29 | X-H torsion
[ 10718 10713 10712 10709 ] final  -24.84 input   66.30 | X-H torsion
[ 10763 10752 10751 10750 ] final -173.04 input  -60.55 | X-H torsion
[ 11005 11000 10999 10996 ] final  116.42 input  -57.11 | X-H torsion

> <Gold.Protein.ActiveResidues>
 VAL166  LYS551  ARG553  GLY616  TRP617  ASP618  TYR619  PRO620  LYS621  CYS622 
 ASP623  PHE694  ASN695  SER759  ASP760  ASP761  ALA762  ILE779  LEU786  VAL792 
 PHE793  MET794  SER795  GLU796  ALA797  LYS798  CYS799  TRP800  GLU811  SER814 

> <Gold.Protein.RotatedAtoms>
  151.6269  135.1027  160.0113 H   0  0  0  0  0  0  0  0  0  0  0  0  # atno 6907 bound_to 6896
  152.4128  133.6985  159.6421 H   0  0  0  0  0  0  0  0  0  0  0  0  # atno 6908 bound_to 6896
  150.8017  133.8511  159.3246 H   0  0  0  0  0  0  0  0  0  0  0  0  # atno 6909 bound_to 6896
  146.0593  139.5106  142.9668 H   0  0  0  0  0  0  0  0  0  0  0  0  # atno 7974 bound_to 7965
  154.6474  140.2560  155.7253 H   0  0  0  0  0  0  0  0  0  0  0  0  # atno 8008 bound_to 7997
  156.2558  140.2875  156.0814 H   0  0  0  0  0  0  0  0  0  0  0  0  # atno 8009 bound_to 7997
  155.1503  140.0382  157.2810 H   0  0  0  0  0  0  0  0  0  0  0  0  # atno 8010 bound_to 7997
  139.5014  144.3615  151.9819 H   0  0  0  0  0  0  0  0  0  0  0  0  # atno 10167 bound_to 10162
  156.4723  130.4527  149.6862 H   0  0  0  0  0  0  0  0  0  0  0  0  # atno 10718 bound_to 10713
  154.6125  135.2866  155.0417 H   0  0  0  0  0  0  0  0  0  0  0  0  # atno 10763 bound_to 10752
  154.1641  135.6483  153.4997 H   0  0  0  0  0  0  0  0  0  0  0  0  # atno 10764 bound_to 10752
  153.0201  135.5385  154.6883 H   0  0  0  0  0  0  0  0  0  0  0  0  # atno 10765 bound_to 10752
  139.9041  134.9597  156.7195 H   0  0  0  0  0  0  0  0  0  0  0  0  # atno 11005 bound_to 11000
  145.6588  141.0245  143.1720 LP  0  0  0  0  0  0  0  0  0  0  0  0  # atno 17320 bound_to 7965
  144.7166  139.8176  143.7396 LP  0  0  0  0  0  0  0  0  0  0  0  0  # atno 17321 bound_to 7965
  140.3051  144.3602  150.6049 LP  0  0  0  0  0  0  0  0  0  0  0  0  # atno 17342 bound_to 10162
  140.5843  143.2171  151.7372 LP  0  0  0  0  0  0  0  0  0  0  0  0  # atno 17343 bound_to 10162
  156.3606  130.7479  151.2451 LP  0  0  0  0  0  0  0  0  0  0  0  0  # atno 17370 bound_to 10713
  157.7490  131.0351  150.4349 LP  0  0  0  0  0  0  0  0  0  0  0  0  # atno 17371 bound_to 10713
  140.7012  133.9305  155.8025 LP  0  0  0  0  0  0  0  0  0  0  0  0  # atno 17394 bound_to 11000
  141.0370  134.0675  157.3947 LP  0  0  0  0  0  0  0  0  0  0  0  0  # atno 17395 bound_to 11000

$$$$
