AV-unprocessed.smi:528|AV-procd|sdf|2836|dock7
  -GOLD-   2262023323D 1   1.00000     0.00000
 Structure written by MMmdl.
 45 47  0  0  0  0  0  0  0  0  1 V2000
  146.5823  132.9001  152.1381 C   0  0  0  0  0  0  0  0  0  0  0  0
  146.6140  133.7138  153.4427 C   0  0  1  0  0  0  0  0  0  0  0  0
  147.9897  134.1519  153.6744 N   0  0  0  0  0  0  0  0  0  0  0  0
  148.7470  133.8497  154.7404 C   0  0  0  0  0  0  0  0  0  0  0  0
  148.3797  133.1026  155.6478 O   0  0  0  0  0  0  0  0  0  0  0  0
  150.1400  134.4915  154.7792 C   0  0  0  0  0  0  0  0  0  0  0  0
  150.1740  135.7234  155.5849 N   0  0  0  0  0  0  0  0  0  0  0  0
  150.4992  136.9216  154.9186 C   0  0  0  0  0  0  0  0  0  0  0  0
  150.5786  138.1108  155.5463 C   0  0  0  0  0  0  0  0  0  0  0  0
  150.8788  139.3968  154.7917 C   0  0  0  0  0  0  0  0  0  0  0  0
  150.7709  140.4578  155.5917 F   0  0  0  0  0  0  0  0  0  0  0  0
  152.1223  139.3620  154.3146 F   0  0  0  0  0  0  0  0  0  0  0  0
  150.0440  139.5601  153.7647 F   0  0  0  0  0  0  0  0  0  0  0  0
  150.2765  138.1135  156.9643 C   0  0  0  0  0  0  0  0  0  0  0  0
  149.9573  136.9779  157.6154 C   0  0  0  0  0  0  0  0  0  0  0  0
  149.8971  135.6884  156.9235 C   0  0  0  0  0  0  0  0  0  0  0  0
  149.6144  134.6426  157.5094 O   0  0  0  0  0  0  0  0  0  0  0  0
  145.6760  134.9473  153.4084 C   0  0  2  0  0  0  0  0  0  0  0  0
  144.1674  134.5894  153.3684 C   0  0  0  0  0  0  0  0  0  0  0  0
  143.6467  135.3756  152.1533 C   0  0  1  0  0  0  0  0  0  0  0  0
  143.6693  136.8831  152.4637 C   0  0  0  0  0  0  0  0  0  0  0  0
  145.1736  137.2111  152.4315 C   0  0  0  0  0  0  0  0  0  0  0  0
  145.8159  135.8389  152.1482 C   0  0  2  0  0  0  0  0  0  0  0  0
  144.8073  135.2299  151.1791 C   0  0  0  0  0  0  0  0  0  0  0  0
  145.5997  132.4683  151.9522 H   0  0  0  0  0  0  0  0  0  0  0  0
  147.2907  132.0718  152.1789 H   0  0  0  0  0  0  0  0  0  0  0  0
  146.8437  133.5170  151.2777 H   0  0  0  0  0  0  0  0  0  0  0  0
  146.2909  133.0551  154.2503 H   0  0  0  0  0  0  0  0  0  0  0  0
  148.3864  134.7685  152.9803 H   0  0  0  0  0  0  0  0  0  0  0  0
  150.8421  133.7516  155.1653 H   0  0  0  0  0  0  0  0  0  0  0  0
  150.4796  134.7057  153.7638 H   0  0  0  0  0  0  0  0  0  0  0  0
  150.6845  136.8123  153.8599 H   0  0  0  0  0  0  0  0  0  0  0  0
  150.3129  139.0413  157.5161 H   0  0  0  0  0  0  0  0  0  0  0  0
  149.7421  137.0167  158.6732 H   0  0  0  0  0  0  0  0  0  0  0  0
  145.8800  135.5446  154.2988 H   0  0  0  0  0  0  0  0  0  0  0  0
  144.0089  133.5230  153.2034 H   0  0  0  0  0  0  0  0  0  0  0  0
  143.6525  134.8582  154.2914 H   0  0  0  0  0  0  0  0  0  0  0  0
  142.6853  135.0191  151.7825 H   0  0  0  0  0  0  0  0  0  0  0  0
  143.1366  137.4474  151.6973 H   0  0  0  0  0  0  0  0  0  0  0  0
  143.2135  137.1121  153.4277 H   0  0  0  0  0  0  0  0  0  0  0  0
  145.3939  137.9136  151.6267 H   0  0  0  0  0  0  0  0  0  0  0  0
  145.5250  137.6546  153.3639 H   0  0  0  0  0  0  0  0  0  0  0  0
  146.8285  135.9226  151.7562 H   0  0  0  0  0  0  0  0  0  0  0  0
  145.0249  134.1937  150.9150 H   0  0  0  0  0  0  0  0  0  0  0  0
  144.6796  135.8118  150.2646 H   0  0  0  0  0  0  0  0  0  0  0  0
  1  2  1  0  0  0  0
  1 25  1  0  0  0  0
  1 26  1  0  0  0  0
  1 27  1  0  0  0  0
  2  3  1  0  0  0  0
  2 18  1  0  0  0  0
  2 28  1  0  0  0  0
  3  4  1  0  0  0  0
  3 29  1  0  0  0  0
  4  5  2  0  0  0  0
  4  6  1  0  0  0  0
  6  7  1  0  0  0  0
  6 30  1  0  0  0  0
  6 31  1  0  0  0  0
  7 16  1  0  0  0  0
  7  8  1  0  0  0  0
  8  9  2  0  0  0  0
  8 32  1  0  0  0  0
  9 10  1  0  0  0  0
  9 14  1  0  0  0  0
 10 11  1  0  0  0  0
 10 12  1  0  0  0  0
 10 13  1  0  0  0  0
 14 15  2  0  0  0  0
 14 33  1  0  0  0  0
 15 16  1  0  0  0  0
 15 34  1  0  0  0  0
 16 17  2  0  0  0  0
 18 23  1  0  0  0  0
 18 19  1  0  0  0  0
 18 35  1  0  0  0  0
 19 20  1  0  0  0  0
 19 36  1  0  0  0  0
 19 37  1  0  0  0  0
 20 24  1  0  0  0  0
 20 21  1  0  0  0  0
 20 38  1  0  0  0  0
 21 22  1  0  0  0  0
 21 39  1  0  0  0  0
 21 40  1  0  0  0  0
 22 23  1  0  0  0  0
 22 41  1  0  0  0  0
 22 42  1  0  0  0  0
 23 24  1  0  0  0  0
 23 43  1  0  0  0  0
 24 44  1  0  0  0  0
 24 45  1  0  0  0  0
M  END
> <s_m_source_file>
AV-unprocessed.smi

> <i_m_source_file_index>
528

> <i_lp_mmshare_version>
43012

> <i_f3d_flags>
0

> <s_epik_input>
W0NIMl0xW0NIMl1bQ0BASF0oW0NIMl0yKVtDQEBIXShbQ0gyXVtDQEhdMTIpW0NASF0oW0NIM10pW05IXUMoPU8pW0NIMl1uM1tjSF1jKEMoRikoRilGKVtjSF1bY0hdYzM9Tw==

> <s_epik_cmdline>
J2VwaWtfcHl0aG9uJywgJy1waCcsICc3LjAnLCAnLXRuJywgJzgnLCAnLW1hJywgJzIwMCcsICctbWV0YWxfYmluZGluZycsICctaW1hZScsICc8aW5maWxlLm1hZT4nLCAnLW9tYWUnLCAnPG91dGZpbGUubWFlPic=

> <r_lp_tautomer_probability>
1

> <r_epik_Ionization_Penalty>
4.09479e-08

> <r_epik_Ionization_Penalty_Charging>
1.9321e-08

> <r_epik_Ionization_Penalty_Neutral>
2.16269e-08

> <r_epik_State_Penalty>
-0

> <r_epik_Charging_Adjusted_Penalty>
1.9321e-08

> <i_epik_Tot_Q>
0

> <i_epik_Tot_abs_Q>
0

> <r_epik_Metal_State_Penalty>
-0

> <b_epik_Metal_Only>
0

> <s_lp_Force_Field>
OPLS_2005

> <r_lp_Energy>
62.8614

> <b_lp_Chiralities_Consistent>
1

> <s_lp_Variant>
AV-unprocessed.smi:528-6

> <Gold.Version>
5.8.1

> <Gold.Id.Protein>
6NUR|6NUR_protein|mol2

> <Gold.PLP.Fitness>
42.2232

> <Gold.PLP.PLP>
-35.7237

> <Gold.PLP.part.hbond>
-1.5932

> <Gold.PLP.part.metal>
0.0000

> <Gold.PLP.part.buried>
-1.7792

> <Gold.PLP.part.nonpolar>
-31.2776

> <Gold.PLP.part.repulsive>
0.0008

> <Gold.PLP.ligand.clash>
0.0000

> <Gold.PLP.ligand.torsion>
0.5248

> <Gold.PLP.Chemscore.Hbond>
1.5525

> <Gold.PLP.Chemscore.CHOScore>
0.9367

> <Gold.PLP.Chemscore.Metal>
0.0000

> <Gold.Chemscore.Hbonds>
donor molecule, donor type, donor heavy atom, donor atom, acceptor molecule, acceptor atom, score
      L1  H     3    29       P1  7948  1.00
      P1  H  6896  6907       L1    17  0.54
      L1  C     8    32       P1  7948  0.33
      L1  C     8    32       P1  7949  0.67

> <Gold.PLP.Chemscore.Internal.Correction>
0.0816

> <Gold.Rescore>
     Score         DG    S(hbond)    S(metal)    S(lipo)     H(rot)  DE(clash)    DE(int)     intcor
     11.02     -14.21       1.81        0.00      60.53       1.71       0.73       2.46       ----

> <Gold.Chemscore.Fitness>
11.0213

> <Gold.Chemscore.DG>
-14.2108

> <Gold.Chemscore.ZeroCoef>
-5.4800

> <Gold.Chemscore.Hbond>
1.8064

> <Gold.Chemscore.Metal>
0.0000

> <Gold.Chemscore.Lipo>
60.5260

> <Gold.Chemscore.Internal_Hbond>
0.0000

> <Gold.Chemscore.DEClash>
0.7278

> <Gold.Chemscore.DEInternal>
2.4616

> <Gold.Chemscore.Rot>
1.7125

> <Gold.Chemscore.Internal.Correction>
   9.000000E+99

> <Gold.Chemscore.Hbonds>
donor molecule, donor type, donor heavy atom, donor atom, acceptor molecule, acceptor atom, score
      L1  H     3    29       P1  7948  0.55
      P1  H  6896  6907       L1    17  0.51

> <Gold.Chemscore.Hbond.Weighted>
-6.0333

> <Gold.Chemscore.Metal.Weighted>
-0.0000

> <Gold.Chemscore.Lipo.Weighted>
-7.0815

> <Gold.Chemscore.Internal_Hbond.Weighted>
0.0000

> <Gold.Chemscore.DEClash.Weighted>
0.7278

> <Gold.Chemscore.DEInternal.Weighted>
2.4616

> <Gold.Chemscore.Rot.Weighted>
4.3840

> <Gold.Chemscore.Internal.Correction.Weighted>
   9.000000E+99

> <Gold.Protein.RotatedTorsions>
[ 6907 6896 6895 6894 ] final -110.11 input  -60.11 | X-H torsion
[ 7974 7965 7964 7962 ] final   24.89 input  175.53 | X-H torsion
[ 8008 7997 7996 7995 ] final   51.33 input   59.86 | X-H torsion
[ 10167 10162 10161 10158 ] final -178.34 input  -65.29 | X-H torsion
[ 10718 10713 10712 10709 ] final  -21.04 input   66.30 | X-H torsion
[ 10763 10752 10751 10750 ] final  161.02 input  -60.55 | X-H torsion
[ 11005 11000 10999 10996 ] final  -38.05 input  -57.11 | X-H torsion

> <Gold.Protein.ActiveResidues>
 VAL166  LYS551  ARG553  GLY616  TRP617  ASP618  TYR619  PRO620  LYS621  CYS622 
 ASP623  PHE694  ASN695  SER759  ASP760  ASP761  ALA762  ILE779  LEU786  VAL792 
 PHE793  MET794  SER795  GLU796  ALA797  LYS798  CYS799  TRP800  GLU811  SER814 

> <Gold.Protein.RotatedAtoms>
  150.7604  133.9430  159.3461 H   0  0  0  0  0  0  0  0  0  0  0  0  # atno 6907 bound_to 6896
  151.7340  135.0867  160.0314 H   0  0  0  0  0  0  0  0  0  0  0  0  # atno 6908 bound_to 6896
  152.3572  133.6214  159.6024 H   0  0  0  0  0  0  0  0  0  0  0  0  # atno 6909 bound_to 6896
  146.1916  139.7542  142.8828 H   0  0  0  0  0  0  0  0  0  0  0  0  # atno 7974 bound_to 7965
  155.4335  140.3451  155.4282 H   0  0  0  0  0  0  0  0  0  0  0  0  # atno 8008 bound_to 7997
  156.1322  140.1517  156.9079 H   0  0  0  0  0  0  0  0  0  0  0  0  # atno 8009 bound_to 7997
  154.4903  140.0843  156.7560 H   0  0  0  0  0  0  0  0  0  0  0  0  # atno 8010 bound_to 7997
  139.5437  144.2293  152.0946 H   0  0  0  0  0  0  0  0  0  0  0  0  # atno 10167 bound_to 10162
  156.5236  130.4638  149.6584 H   0  0  0  0  0  0  0  0  0  0  0  0  # atno 10718 bound_to 10713
  154.2565  135.2770  155.2795 H   0  0  0  0  0  0  0  0  0  0  0  0  # atno 10763 bound_to 10752
  154.5421  135.5700  153.6851 H   0  0  0  0  0  0  0  0  0  0  0  0  # atno 10764 bound_to 10752
  152.9970  135.6253  154.2714 H   0  0  0  0  0  0  0  0  0  0  0  0  # atno 10765 bound_to 10752
  140.9998  133.6961  156.2002 H   0  0  0  0  0  0  0  0  0  0  0  0  # atno 11005 bound_to 11000
  145.3775  141.0353  143.3196 LP  0  0  0  0  0  0  0  0  0  0  0  0  # atno 17320 bound_to 7965
  144.8497  139.5341  143.6862 LP  0  0  0  0  0  0  0  0  0  0  0  0  # atno 17321 bound_to 7965
  140.1776  144.4875  150.6545 LP  0  0  0  0  0  0  0  0  0  0  0  0  # atno 17342 bound_to 10162
  140.6677  143.2274  151.5702 LP  0  0  0  0  0  0  0  0  0  0  0  0  # atno 17343 bound_to 10162
  156.3126  130.7237  151.2133 LP  0  0  0  0  0  0  0  0  0  0  0  0  # atno 17370 bound_to 10713
  157.7433  131.0477  150.4958 LP  0  0  0  0  0  0  0  0  0  0  0  0  # atno 17371 bound_to 10713
  140.6907  134.4669  157.5588 LP  0  0  0  0  0  0  0  0  0  0  0  0  # atno 17394 bound_to 11000
  139.9033  134.8506  156.1807 LP  0  0  0  0  0  0  0  0  0  0  0  0  # atno 17395 bound_to 11000

$$$$
