AV-unprocessed.smi:2339|AV-procd|sdf|9338|dock4
  -GOLD-   2272012563D 1   1.00000     0.00000
 Structure written by MMmdl.
 49 52  0  0  0  0  0  0  0  0  1 V2000
  148.4071  130.9936  161.6366 C   0  0  0  0  0  0  0  0  0  0  0  0
  147.3379  131.8036  160.8949 C   0  0  0  0  0  0  0  0  0  0  0  0
  147.4982  133.2344  161.1100 N   0  0  0  0  0  0  0  0  0  0  0  0
  146.9844  133.8603  162.2411 C   0  0  0  0  0  0  0  0  0  0  0  0
  147.0406  135.1884  162.4600 C   0  0  0  0  0  0  0  0  0  0  0  0
  147.6789  136.0612  161.4542 C   0  0  0  0  0  0  0  0  0  0  0  0
  147.7463  137.2795  161.6198 O   0  0  0  0  0  0  0  0  0  0  0  0
  148.2273  135.3920  160.2455 C   0  0  0  0  0  0  0  0  0  0  0  0
  148.8465  136.2279  159.3037 N   0  0  0  0  0  0  0  0  0  0  0  0
  148.4640  137.4363  158.8429 C   0  0  0  0  0  0  0  0  0  0  0  0
  147.4673  138.0560  159.2069 O   0  0  0  0  0  0  0  0  0  0  0  0
  149.3041  137.9531  157.9301 N   0  0  0  0  0  0  0  0  0  0  0  0
  149.1803  139.2444  157.2345 C   0  0  2  0  0  0  0  0  0  0  0  0
  149.4458  139.1760  155.7260 C   0  0  2  0  0  0  0  0  0  0  0  0
  149.4380  138.1082  154.6917 C   0  0  0  0  0  0  0  0  0  0  0  0
  150.7283  138.5438  153.9482 C   0  0  0  0  0  0  0  0  0  0  0  0
  151.3419  139.5625  154.7780 O   0  0  0  0  0  0  0  0  0  0  0  0
  150.9142  139.2459  156.0888 C   0  0  1  0  0  0  0  0  0  0  0  0
  150.4815  140.1347  157.2790 C   0  0  0  0  0  0  0  0  0  0  0  0
  150.3330  141.6451  157.0041 C   0  0  0  0  0  0  0  0  0  0  0  0
  150.9710  142.4095  158.1642 C   0  0  0  0  0  0  0  0  0  0  0  0
  151.9961  141.4403  158.7339 C   0  0  0  0  0  0  0  0  0  0  0  0
  151.3452  140.0730  158.5460 C   0  0  0  0  0  0  0  0  0  0  0  0
  148.1049  134.0434  160.1518 C   0  0  0  0  0  0  0  0  0  0  0  0
  148.2801  129.9266  161.4539 H   0  0  0  0  0  0  0  0  0  0  0  0
  148.3507  131.1574  162.7131 H   0  0  0  0  0  0  0  0  0  0  0  0
  149.4091  131.2696  161.3069 H   0  0  0  0  0  0  0  0  0  0  0  0
  147.3868  131.5909  159.8263 H   0  0  0  0  0  0  0  0  0  0  0  0
  146.3450  131.4936  161.2225 H   0  0  0  0  0  0  0  0  0  0  0  0
  146.5291  133.1881  162.9540 H   0  0  0  0  0  0  0  0  0  0  0  0
  146.6292  135.6304  163.3556 H   0  0  0  0  0  0  0  0  0  0  0  0
  149.7166  135.8698  158.9367 H   0  0  0  0  0  0  0  0  0  0  0  0
  150.1347  137.4174  157.7229 H   0  0  0  0  0  0  0  0  0  0  0  0
  148.2780  139.7997  157.4962 H   0  0  0  0  0  0  0  0  0  0  0  0
  149.0859  140.1069  155.2760 H   0  0  0  0  0  0  0  0  0  0  0  0
  149.5341  137.1115  155.1240 H   0  0  0  0  0  0  0  0  0  0  0  0
  148.5527  138.1400  154.0562 H   0  0  0  0  0  0  0  0  0  0  0  0
  151.4066  137.6992  153.8209 H   0  0  0  0  0  0  0  0  0  0  0  0
  150.5121  138.9562  152.9622 H   0  0  0  0  0  0  0  0  0  0  0  0
  151.3451  138.2921  156.4099 H   0  0  0  0  0  0  0  0  0  0  0  0
  150.8475  141.9098  156.0795 H   0  0  0  0  0  0  0  0  0  0  0  0
  149.2920  141.9438  156.8766 H   0  0  0  0  0  0  0  0  0  0  0  0
  151.4123  143.3570  157.8540 H   0  0  0  0  0  0  0  0  0  0  0  0
  150.2145  142.6252  158.9201 H   0  0  0  0  0  0  0  0  0  0  0  0
  152.9159  141.4937  158.1501 H   0  0  0  0  0  0  0  0  0  0  0  0
  152.2457  141.6506  159.7744 H   0  0  0  0  0  0  0  0  0  0  0  0
  150.7191  139.8590  159.4131 H   0  0  0  0  0  0  0  0  0  0  0  0
  152.0974  139.2850  158.4998 H   0  0  0  0  0  0  0  0  0  0  0  0
  148.4904  133.4742  159.3213 H   0  0  0  0  0  0  0  0  0  0  0  0
  1  2  1  0  0  0  0
  1 25  1  0  0  0  0
  1 26  1  0  0  0  0
  1 27  1  0  0  0  0
  2  3  1  0  0  0  0
  2 28  1  0  0  0  0
  2 29  1  0  0  0  0
  3 24  1  0  0  0  0
  3  4  1  0  0  0  0
  4  5  2  0  0  0  0
  4 30  1  0  0  0  0
  5  6  1  0  0  0  0
  5 31  1  0  0  0  0
  6  7  2  0  0  0  0
  6  8  1  0  0  0  0
  8  9  1  0  0  0  0
  8 24  2  0  0  0  0
  9 10  1  0  0  0  0
  9 32  1  0  0  0  0
 10 11  2  0  0  0  0
 10 12  1  0  0  0  0
 12 13  1  0  0  0  0
 12 33  1  0  0  0  0
 13 19  1  0  0  0  0
 13 14  1  0  0  0  0
 13 34  1  0  0  0  0
 14 18  1  0  0  0  0
 14 15  1  0  0  0  0
 14 35  1  0  0  0  0
 15 16  1  0  0  0  0
 15 36  1  0  0  0  0
 15 37  1  0  0  0  0
 16 17  1  0  0  0  0
 16 38  1  0  0  0  0
 16 39  1  0  0  0  0
 17 18  1  0  0  0  0
 18 19  1  0  0  0  0
 18 40  1  0  0  0  0
 19 23  1  0  0  0  0
 19 20  1  0  0  0  0
 20 21  1  0  0  0  0
 20 41  1  0  0  0  0
 20 42  1  0  0  0  0
 21 22  1  0  0  0  0
 21 43  1  0  0  0  0
 21 44  1  0  0  0  0
 22 23  1  0  0  0  0
 22 45  1  0  0  0  0
 22 46  1  0  0  0  0
 23 47  1  0  0  0  0
 23 48  1  0  0  0  0
 24 49  1  0  0  0  0
M  END
> <s_m_source_file>
AV-unprocessed.smi

> <i_m_source_file_index>
2339

> <i_lp_mmshare_version>
43012

> <i_f3d_flags>
0

> <s_epik_input>
W0NIM11bQ0gyXW4xW2NIXVtjSF1jKD1PKWMoW2NIXTEpW05IXUMoPU8pW05IXVtDQEBIXTJbQ0BASF0oW0NIMl1bQ0gyXU8zKVtDQEBIXTNDMjRbQ0gyXVtDSDJdW0NIMl1bQ0gyXTQ=

> <s_epik_cmdline>
J2VwaWtfcHl0aG9uJywgJy1waCcsICc3LjAnLCAnLXRuJywgJzgnLCAnLW1hJywgJzIwMCcsICctbWV0YWxfYmluZGluZycsICctaW1hZScsICc8aW5maWxlLm1hZT4nLCAnLW9tYWUnLCAnPG91dGZpbGUubWFlPic=

> <r_lp_tautomer_probability>
1

> <r_epik_Ionization_Penalty>
0.00145966

> <r_epik_Ionization_Penalty_Charging>
0.00143969

> <r_epik_Ionization_Penalty_Neutral>
1.99697e-05

> <r_epik_State_Penalty>
0.000961843

> <r_epik_Charging_Adjusted_Penalty>
0.00240153

> <i_epik_Tot_Q>
0

> <i_epik_Tot_abs_Q>
0

> <r_epik_Metal_State_Penalty>
-0

> <b_epik_Metal_Only>
0

> <s_lp_Force_Field>
OPLS_2005

> <r_lp_Energy>
81.9731

> <b_lp_Chiralities_Consistent>
1

> <s_lp_Variant>
AV-unprocessed.smi:2339-3

> <Gold.Version>
5.8.1

> <Gold.Id.Protein>
6NUR|6NUR_protein|mol2

> <Gold.PLP.Fitness>
46.3682

> <Gold.PLP.PLP>
-39.5460

> <Gold.PLP.part.hbond>
-4.0000

> <Gold.PLP.part.metal>
0.0000

> <Gold.PLP.part.buried>
-5.7479

> <Gold.PLP.part.nonpolar>
-30.4786

> <Gold.PLP.part.repulsive>
0.3174

> <Gold.PLP.ligand.clash>
0.0000

> <Gold.PLP.ligand.torsion>
0.7725

> <Gold.PLP.Chemscore.Hbond>
2.6960

> <Gold.PLP.Chemscore.CHOScore>
0.0000

> <Gold.PLP.Chemscore.Metal>
0.0000

> <Gold.Chemscore.Hbonds>
donor molecule, donor type, donor heavy atom, donor atom, acceptor molecule, acceptor atom, score
      P1  H  6931  6943       L1     7  0.99
      P1  H  6934  6947       L1     7  0.70
      P1  H  7989  7998       L1    17  1.00

> <Gold.PLP.Chemscore.Internal.Correction>
0.2792

> <Gold.Rescore>
     Score         DG    S(hbond)    S(metal)    S(lipo)     H(rot)  DE(clash)    DE(int)     intcor
     17.38     -21.70       2.60        0.00      90.06       1.17       0.06       4.26       ----

> <Gold.Chemscore.Fitness>
17.3815

> <Gold.Chemscore.DG>
-21.6999

> <Gold.Chemscore.ZeroCoef>
-5.4800

> <Gold.Chemscore.Hbond>
2.5957

> <Gold.Chemscore.Metal>
0.0000

> <Gold.Chemscore.Lipo>
90.0647

> <Gold.Chemscore.Internal_Hbond>
0.0000

> <Gold.Chemscore.DEClash>
0.0602

> <Gold.Chemscore.DEInternal>
4.2582

> <Gold.Chemscore.Rot>
1.1670

> <Gold.Chemscore.Internal.Correction>
   9.000000E+99

> <Gold.Chemscore.Hbonds>
donor molecule, donor type, donor heavy atom, donor atom, acceptor molecule, acceptor atom, score
      P1  H  6931  6943       L1     7  0.94
      P1  H  6934  6947       L1     7  0.69
      P1  H  7989  7998       L1    17  0.26

> <Gold.Chemscore.Hbond.Weighted>
-8.6698

> <Gold.Chemscore.Metal.Weighted>
-0.0000

> <Gold.Chemscore.Lipo.Weighted>
-10.5376

> <Gold.Chemscore.Internal_Hbond.Weighted>
0.0000

> <Gold.Chemscore.DEClash.Weighted>
0.0602

> <Gold.Chemscore.DEInternal.Weighted>
4.2582

> <Gold.Chemscore.Rot.Weighted>
2.9874

> <Gold.Chemscore.Internal.Correction.Weighted>
   9.000000E+99

> <Gold.Protein.RotatedTorsions>
[ 6907 6896 6895 6894 ] final    8.90 input  -60.11 | X-H torsion
[ 7974 7965 7964 7962 ] final  110.52 input  175.53 | X-H torsion
[ 8008 7997 7996 7995 ] final  102.28 input   59.86 | X-H torsion
[ 10167 10162 10161 10158 ] final -120.31 input  -65.29 | X-H torsion
[ 10718 10713 10712 10709 ] final  143.61 input   66.30 | X-H torsion
[ 10763 10752 10751 10750 ] final -131.25 input  -60.55 | X-H torsion
[ 11005 11000 10999 10996 ] final  -31.77 input  -57.11 | X-H torsion

> <Gold.Protein.ActiveResidues>
 VAL166  LYS551  ARG553  GLY616  TRP617  ASP618  TYR619  PRO620  LYS621  CYS622 
 ASP623  PHE694  ASN695  SER759  ASP760  ASP761  ALA762  ILE779  LEU786  VAL792 
 PHE793  MET794  SER795  GLU796  ALA797  LYS798  CYS799  TRP800  GLU811  SER814 

> <Gold.Protein.RotatedAtoms>
  151.7134  135.0908  160.0271 H   0  0  0  0  0  0  0  0  0  0  0  0  # atno 6907 bound_to 6896
  152.3647  133.6337  159.6050 H   0  0  0  0  0  0  0  0  0  0  0  0  # atno 6908 bound_to 6896
  150.7629  133.9283  159.3460 H   0  0  0  0  0  0  0  0  0  0  0  0  # atno 6909 bound_to 6896
  145.2539  139.2728  143.4052 H   0  0  0  0  0  0  0  0  0  0  0  0  # atno 7974 bound_to 7965
  156.1378  140.3184  155.8449 H   0  0  0  0  0  0  0  0  0  0  0  0  # atno 8008 bound_to 7997
  155.4211  140.0512  157.3042 H   0  0  0  0  0  0  0  0  0  0  0  0  # atno 8009 bound_to 7997
  154.4951  140.2108  155.9476 H   0  0  0  0  0  0  0  0  0  0  0  0  # atno 8010 bound_to 7997
  140.0372  143.5189  152.2148 H   0  0  0  0  0  0  0  0  0  0  0  0  # atno 10167 bound_to 10162
  157.3669  131.0973  151.0864 H   0  0  0  0  0  0  0  0  0  0  0  0  # atno 10718 bound_to 10713
  154.8752  135.3836  154.4216 H   0  0  0  0  0  0  0  0  0  0  0  0  # atno 10763 bound_to 10752
  153.4919  135.7030  153.5884 H   0  0  0  0  0  0  0  0  0  0  0  0  # atno 10764 bound_to 10752
  153.4254  135.3891  155.2104 H   0  0  0  0  0  0  0  0  0  0  0  0  # atno 10765 bound_to 10752
  140.9496  133.7229  156.1199 H   0  0  0  0  0  0  0  0  0  0  0  0  # atno 11005 bound_to 11000
  146.3294  140.2938  142.8617 LP  0  0  0  0  0  0  0  0  0  0  0  0  # atno 17320 bound_to 7965
  144.9478  140.8146  143.5591 LP  0  0  0  0  0  0  0  0  0  0  0  0  # atno 17321 bound_to 7965
  139.6037  144.7590  151.3111 LP  0  0  0  0  0  0  0  0  0  0  0  0  # atno 17342 bound_to 10162
  140.7276  143.6958  150.7885 LP  0  0  0  0  0  0  0  0  0  0  0  0  # atno 17343 bound_to 10162
  157.1983  130.6383  149.5729 LP  0  0  0  0  0  0  0  0  0  0  0  0  # atno 17370 bound_to 10713
  155.9748  130.4699  150.6412 LP  0  0  0  0  0  0  0  0  0  0  0  0  # atno 17371 bound_to 10713
  140.7621  134.3927  157.5523 LP  0  0  0  0  0  0  0  0  0  0  0  0  # atno 17394 bound_to 11000
  139.8843  134.8968  156.2709 LP  0  0  0  0  0  0  0  0  0  0  0  0  # atno 17395 bound_to 11000

$$$$
