AV-unprocessed.smi:2925|AV-procd|sdf|11224|dock6
  -GOLD-   2272016113D 1   1.00000     0.00000
 Structure written by MMmdl.
 44 45  0  0  0  0  0  0  0  0  1 V2000
  144.0961  141.3842  156.6678 C   0  0  0  0  0  0  0  0  0  0  0  0
  145.4315  142.0157  157.0888 C   0  0  0  0  0  0  0  0  0  0  0  0
  146.6338  141.0517  157.0106 C   0  0  2  0  0  0  0  0  0  0  0  0
  147.8833  141.7960  157.1712 N   0  0  0  0  0  0  0  0  0  0  0  0
  148.9129  141.4444  157.9543 C   0  0  0  0  0  0  0  0  0  0  0  0
  148.9333  140.4287  158.6504 O   0  0  0  0  0  0  0  0  0  0  0  0
  149.8963  142.3603  157.9052 N   0  0  0  0  0  0  0  0  0  0  0  0
  151.0763  142.3448  158.6645 C   0  0  0  0  0  0  0  0  0  0  0  0
  151.5243  143.5075  159.2072 C   0  0  0  0  0  0  0  0  0  0  0  0
  150.7631  144.8137  159.0428 C   0  0  0  0  0  0  0  0  0  0  0  0
  152.7452  143.4962  159.9856 C   0  0  0  0  0  0  0  0  0  0  0  0
  153.4105  142.3451  160.1510 C   0  0  0  0  0  0  0  0  0  0  0  0
  152.9656  141.1472  159.5731 N   0  0  0  0  0  0  0  0  0  0  0  0
  153.7746  139.9459  159.7965 C   0  0  0  0  0  0  0  0  0  0  0  0
  151.8460  141.0841  158.7964 C   0  0  0  0  0  0  0  0  0  0  0  0
  151.5249  140.0344  158.2343 O   0  0  0  0  0  0  0  0  0  0  0  0
  146.6653  140.2781  155.6773 C   0  0  1  0  0  0  0  0  0  0  0  0
  146.7308  141.1600  154.4281 C   0  0  0  0  0  0  0  0  0  0  0  0
  147.3166  140.2057  153.4133 C   0  0  0  0  0  0  0  0  0  0  0  0
  148.3260  139.4325  154.2568 C   0  0  0  0  0  0  0  0  0  0  0  0
  147.8305  139.4606  155.5933 O   0  0  0  0  0  0  0  0  0  0  0  0
  143.2969  142.1252  156.6838 H   0  0  0  0  0  0  0  0  0  0  0  0
  143.8047  140.5743  157.3366 H   0  0  0  0  0  0  0  0  0  0  0  0
  144.1541  140.9800  155.6568 H   0  0  0  0  0  0  0  0  0  0  0  0
  145.6185  142.8763  156.4458 H   0  0  0  0  0  0  0  0  0  0  0  0
  145.3395  142.4105  158.1014 H   0  0  0  0  0  0  0  0  0  0  0  0
  146.5293  140.3180  157.8120 H   0  0  0  0  0  0  0  0  0  0  0  0
  147.9635  142.6543  156.6461 H   0  0  0  0  0  0  0  0  0  0  0  0
  149.7154  143.2083  157.3888 H   0  0  0  0  0  0  0  0  0  0  0  0
  151.2667  145.6322  159.5575 H   0  0  0  0  0  0  0  0  0  0  0  0
  149.7579  144.7252  159.4565 H   0  0  0  0  0  0  0  0  0  0  0  0
  150.6822  145.0801  157.9884 H   0  0  0  0  0  0  0  0  0  0  0  0
  153.1165  144.4037  160.4395 H   0  0  0  0  0  0  0  0  0  0  0  0
  154.3235  142.2738  160.7239 H   0  0  0  0  0  0  0  0  0  0  0  0
  153.1556  139.1198  160.1503 H   0  0  0  0  0  0  0  0  0  0  0  0
  154.5569  140.0995  160.5406 H   0  0  0  0  0  0  0  0  0  0  0  0
  154.2576  139.6365  158.8686 H   0  0  0  0  0  0  0  0  0  0  0  0
  145.7951  139.6235  155.6016 H   0  0  0  0  0  0  0  0  0  0  0  0
  145.7587  141.5546  154.1313 H   0  0  0  0  0  0  0  0  0  0  0  0
  147.4086  142.0007  154.5848 H   0  0  0  0  0  0  0  0  0  0  0  0
  146.5415  139.5330  153.0434 H   0  0  0  0  0  0  0  0  0  0  0  0
  147.7699  140.7092  152.5589 H   0  0  0  0  0  0  0  0  0  0  0  0
  148.4600  138.4096  153.9046 H   0  0  0  0  0  0  0  0  0  0  0  0
  149.2981  139.9267  154.2395 H   0  0  0  0  0  0  0  0  0  0  0  0
  1  2  1  0  0  0  0
  1 22  1  0  0  0  0
  1 23  1  0  0  0  0
  1 24  1  0  0  0  0
  2  3  1  0  0  0  0
  2 25  1  0  0  0  0
  2 26  1  0  0  0  0
  3  4  1  0  0  0  0
  3 17  1  0  0  0  0
  3 27  1  0  0  0  0
  4  5  1  0  0  0  0
  4 28  1  0  0  0  0
  5  6  2  0  0  0  0
  5  7  1  0  0  0  0
  7  8  1  0  0  0  0
  7 29  1  0  0  0  0
  8 15  1  0  0  0  0
  8  9  2  0  0  0  0
  9 10  1  0  0  0  0
  9 11  1  0  0  0  0
 10 30  1  0  0  0  0
 10 31  1  0  0  0  0
 10 32  1  0  0  0  0
 11 12  2  0  0  0  0
 11 33  1  0  0  0  0
 12 13  1  0  0  0  0
 12 34  1  0  0  0  0
 13 14  1  0  0  0  0
 13 15  1  0  0  0  0
 14 35  1  0  0  0  0
 14 36  1  0  0  0  0
 14 37  1  0  0  0  0
 15 16  2  0  0  0  0
 17 21  1  0  0  0  0
 17 18  1  0  0  0  0
 17 38  1  0  0  0  0
 18 19  1  0  0  0  0
 18 39  1  0  0  0  0
 18 40  1  0  0  0  0
 19 20  1  0  0  0  0
 19 41  1  0  0  0  0
 19 42  1  0  0  0  0
 20 21  1  0  0  0  0
 20 43  1  0  0  0  0
 20 44  1  0  0  0  0
M  END
> <s_m_source_file>
AV-unprocessed.smi

> <i_m_source_file_index>
2925

> <i_lp_mmshare_version>
43012

> <i_f3d_flags>
0

> <s_epik_input>
TzFbQ0gyXVtDSDJdW0NIMl1bQ0BIXTFbQ0BIXShbQ0gyXVtDSDNdKVtOSF1DKD1PKVtOSF1jMmMoW0NIM10pW2NIXVtjSF1uKFtDSDNdKWMyPU8=

> <s_epik_cmdline>
J2VwaWtfcHl0aG9uJywgJy1waCcsICc3LjAnLCAnLXRuJywgJzgnLCAnLW1hJywgJzIwMCcsICctbWV0YWxfYmluZGluZycsICctaW1hZScsICc8aW5maWxlLm1hZT4nLCAnLW9tYWUnLCAnPG91dGZpbGUubWFlPic=

> <r_lp_tautomer_probability>
1

> <r_epik_Ionization_Penalty>
2.58789e-05

> <r_epik_Ionization_Penalty_Charging>
6.72534e-06

> <r_epik_Ionization_Penalty_Neutral>
1.91535e-05

> <r_epik_State_Penalty>
-0

> <r_epik_Charging_Adjusted_Penalty>
6.72534e-06

> <i_epik_Tot_Q>
0

> <i_epik_Tot_abs_Q>
0

> <r_epik_Metal_State_Penalty>
-0

> <b_epik_Metal_Only>
0

> <s_lp_Force_Field>
OPLS_2005

> <r_lp_Energy>
34.9681

> <b_lp_Chiralities_Consistent>
1

> <s_lp_Variant>
AV-unprocessed.smi:2925-3

> <Gold.Version>
5.8.1

> <Gold.Id.Protein>
6NUR|6NUR_protein|mol2

> <Gold.PLP.Fitness>
42.8900

> <Gold.PLP.PLP>
-37.8898

> <Gold.PLP.part.hbond>
-3.0811

> <Gold.PLP.part.metal>
0.0000

> <Gold.PLP.part.buried>
-4.1631

> <Gold.PLP.part.nonpolar>
-31.0676

> <Gold.PLP.part.repulsive>
0.0953

> <Gold.PLP.ligand.clash>
0.0000

> <Gold.PLP.ligand.torsion>
0.6566

> <Gold.PLP.Chemscore.Hbond>
1.8960

> <Gold.PLP.Chemscore.CHOScore>
0.0000

> <Gold.PLP.Chemscore.Metal>
0.0000

> <Gold.PLP.Chemscore.Internal.Correction>
0.6254

> <Gold.Rescore>
     Score         DG    S(hbond)    S(metal)    S(lipo)     H(rot)  DE(clash)    DE(int)     intcor
     16.77     -17.80       1.61        0.00      89.05       1.36       0.03       1.00       ----

> <Gold.Chemscore.Fitness>
16.7662

> <Gold.Chemscore.DG>
-17.7990

> <Gold.Chemscore.ZeroCoef>
-5.4800

> <Gold.Chemscore.Hbond>
1.6098

> <Gold.Chemscore.Metal>
0.0000

> <Gold.Chemscore.Lipo>
89.0480

> <Gold.Chemscore.Internal_Hbond>
0.0000

> <Gold.Chemscore.DEClash>
0.0300

> <Gold.Chemscore.DEInternal>
1.0028

> <Gold.Chemscore.Rot>
1.3579

> <Gold.Chemscore.Internal.Correction>
   9.000000E+99

> <Gold.Chemscore.Hbonds>
donor molecule, donor type, donor heavy atom, donor atom, acceptor molecule, acceptor atom, score
      L1  H     4    28       P1  8028  0.02
      L1  H     7    29       P1  8028  0.06

> <Gold.Chemscore.Hbond.Weighted>
-5.3767

> <Gold.Chemscore.Metal.Weighted>
-0.0000

> <Gold.Chemscore.Lipo.Weighted>
-10.4186

> <Gold.Chemscore.Internal_Hbond.Weighted>
0.0000

> <Gold.Chemscore.DEClash.Weighted>
0.0300

> <Gold.Chemscore.DEInternal.Weighted>
1.0028

> <Gold.Chemscore.Rot.Weighted>
3.4763

> <Gold.Chemscore.Internal.Correction.Weighted>
   9.000000E+99

> <Gold.Protein.RotatedTorsions>
[ 6907 6896 6895 6894 ] final   -6.92 input  -60.11 | X-H torsion
[ 7974 7965 7964 7962 ] final    9.67 input  175.53 | X-H torsion
[ 8008 7997 7996 7995 ] final  -33.99 input   59.86 | X-H torsion
[ 10167 10162 10161 10158 ] final  -13.46 input  -65.29 | X-H torsion
[ 10718 10713 10712 10709 ] final -109.32 input   66.30 | X-H torsion
[ 10763 10752 10751 10750 ] final   96.20 input  -60.55 | X-H torsion
[ 11005 11000 10999 10996 ] final  -64.49 input  -57.11 | X-H torsion

> <Gold.Protein.ActiveResidues>
 VAL166  LYS551  ARG553  GLY616  TRP617  ASP618  TYR619  PRO620  LYS621  CYS622 
 ASP623  PHE694  ASN695  SER759  ASP760  ASP761  ALA762  ILE779  LEU786  VAL792 
 PHE793  MET794  SER795  GLU796  ALA797  LYS798  CYS799  TRP800  GLU811  SER814 

> <Gold.Protein.RotatedAtoms>
  151.4578  135.1036  159.9715 H   0  0  0  0  0  0  0  0  0  0  0  0  # atno 6907 bound_to 6896
  152.4864  133.8380  159.7148 H   0  0  0  0  0  0  0  0  0  0  0  0  # atno 6908 bound_to 6896
  150.8977  133.7099  159.2914 H   0  0  0  0  0  0  0  0  0  0  0  0  # atno 6909 bound_to 6896
  146.2400  139.9749  142.8442 H   0  0  0  0  0  0  0  0  0  0  0  0  # atno 7974 bound_to 7965
  154.4133  140.1696  156.1977 H   0  0  0  0  0  0  0  0  0  0  0  0  # atno 8008 bound_to 7997
  155.9550  140.3398  155.6417 H   0  0  0  0  0  0  0  0  0  0  0  0  # atno 8009 bound_to 7997
  155.6821  140.0724  157.2471 H   0  0  0  0  0  0  0  0  0  0  0  0  # atno 8010 bound_to 7997
  140.7182  143.5424  150.9394 H   0  0  0  0  0  0  0  0  0  0  0  0  # atno 10167 bound_to 10162
  156.0531  130.5758  150.8084 H   0  0  0  0  0  0  0  0  0  0  0  0  # atno 10718 bound_to 10713
  153.2621  135.4227  155.0905 H   0  0  0  0  0  0  0  0  0  0  0  0  # atno 10763 bound_to 10752
  154.8424  135.3451  154.6362 H   0  0  0  0  0  0  0  0  0  0  0  0  # atno 10764 bound_to 10752
  153.6782  135.7040  153.5183 H   0  0  0  0  0  0  0  0  0  0  0  0  # atno 10765 bound_to 10752
  141.1426  133.6666  156.5841 H   0  0  0  0  0  0  0  0  0  0  0  0  # atno 11005 bound_to 11000
  145.1646  140.9690  143.4357 LP  0  0  0  0  0  0  0  0  0  0  0  0  # atno 17320 bound_to 7965
  145.0085  139.3532  143.6132 LP  0  0  0  0  0  0  0  0  0  0  0  0  # atno 17321 bound_to 7965
  139.9147  143.6678  152.3108 LP  0  0  0  0  0  0  0  0  0  0  0  0  # atno 17342 bound_to 10162
  139.7073  144.7626  151.1171 LP  0  0  0  0  0  0  0  0  0  0  0  0  # atno 17343 bound_to 10162
  157.5476  131.0943  150.9740 LP  0  0  0  0  0  0  0  0  0  0  0  0  # atno 17370 bound_to 10713
  157.0008  130.5599  149.5311 LP  0  0  0  0  0  0  0  0  0  0  0  0  # atno 17371 bound_to 10713
  140.3814  134.7520  157.4663 LP  0  0  0  0  0  0  0  0  0  0  0  0  # atno 17394 bound_to 11000
  140.0635  134.5963  155.8722 LP  0  0  0  0  0  0  0  0  0  0  0  0  # atno 17395 bound_to 11000

$$$$
