AV-unprocessed.smi:3345|AV-procd|sdf|12899|dock9
  -GOLD-   2272019313D 1   1.00000     0.00000
 Structure written by MMmdl.
 40 41  0  0  0  0  0  0  0  0  1 V2000
  154.9213  139.6765  160.5211 C   0  0  0  0  0  0  0  0  0  0  0  0
  153.9076  140.5796  159.8067 C   0  0  2  0  0  0  0  0  0  0  0  0
  153.3571  141.6739  160.7469 C   0  0  0  0  0  0  0  0  0  0  0  0
  152.4380  142.6314  160.1271 N   0  0  0  0  0  0  0  0  0  0  0  0
  152.9961  143.2619  158.9334 C   0  0  0  0  0  0  0  0  0  0  0  0
  152.0103  144.2604  158.3028 C   0  0  0  0  0  0  0  0  0  0  0  0
  151.6366  145.2384  159.2679 O   0  0  0  0  0  0  0  0  0  0  0  0
  151.0502  144.6663  160.4325 C   0  0  0  0  0  0  0  0  0  0  0  0
  152.0336  143.6685  161.0686 C   0  0  0  0  0  0  0  0  0  0  0  0
  152.8005  139.7694  159.3051 N   0  0  0  0  0  0  0  0  0  0  0  0
  152.3743  139.7222  158.0325 C   0  0  0  0  0  0  0  0  0  0  0  0
  152.9870  140.2290  157.0922 O   0  0  0  0  0  0  0  0  0  0  0  0
  151.0198  139.0337  157.8087 C   0  0  2  0  0  0  0  0  0  0  0  0
  150.9509  137.6243  158.4316 C   0  0  0  0  0  0  0  0  0  0  0  0
  150.7093  139.0270  156.3829 N   0  0  0  0  0  0  0  0  0  0  0  0
  150.7503  140.0212  155.4929 C   0  0  0  0  0  0  0  0  0  0  0  0
  150.4703  139.6477  154.2525 N   0  0  0  0  0  0  0  0  0  0  0  0
  150.2642  138.3134  154.4584 C   0  0  0  0  0  0  0  0  0  0  0  0
  150.4055  137.8871  155.7131 N   0  0  0  0  0  0  0  0  0  0  0  0
  155.7637  140.2570  160.8983 H   0  0  0  0  0  0  0  0  0  0  0  0
  155.3200  138.9212  159.8430 H   0  0  0  0  0  0  0  0  0  0  0  0
  154.4682  139.1592  161.3674 H   0  0  0  0  0  0  0  0  0  0  0  0
  154.4344  141.0595  158.9812 H   0  0  0  0  0  0  0  0  0  0  0  0
  152.8361  141.1745  161.5652 H   0  0  0  0  0  0  0  0  0  0  0  0
  154.1881  142.2095  161.2084 H   0  0  0  0  0  0  0  0  0  0  0  0
  153.9231  143.7785  159.1860 H   0  0  0  0  0  0  0  0  0  0  0  0
  153.2508  142.5088  158.1889 H   0  0  0  0  0  0  0  0  0  0  0  0
  152.4688  144.7580  157.4484 H   0  0  0  0  0  0  0  0  0  0  0  0
  151.1225  143.7445  157.9348 H   0  0  0  0  0  0  0  0  0  0  0  0
  150.8074  145.4616  161.1372 H   0  0  0  0  0  0  0  0  0  0  0  0
  150.1135  144.1725  160.1712 H   0  0  0  0  0  0  0  0  0  0  0  0
  151.5668  143.2135  161.9429 H   0  0  0  0  0  0  0  0  0  0  0  0
  152.9126  144.2060  161.4274 H   0  0  0  0  0  0  0  0  0  0  0  0
  152.2341  139.3090  160.0026 H   0  0  0  0  0  0  0  0  0  0  0  0
  150.2595  139.6429  158.3002 H   0  0  0  0  0  0  0  0  0  0  0  0
  151.1267  137.6617  159.5072 H   0  0  0  0  0  0  0  0  0  0  0  0
  151.6895  136.9474  158.0002 H   0  0  0  0  0  0  0  0  0  0  0  0
  149.9671  137.1798  158.2776 H   0  0  0  0  0  0  0  0  0  0  0  0
  151.0005  141.0384  155.7563 H   0  0  0  0  0  0  0  0  0  0  0  0
  150.0124  137.6338  153.6575 H   0  0  0  0  0  0  0  0  0  0  0  0
  1  2  1  0  0  0  0
  1 20  1  0  0  0  0
  1 21  1  0  0  0  0
  1 22  1  0  0  0  0
  2  3  1  0  0  0  0
  2 10  1  0  0  0  0
  2 23  1  0  0  0  0
  3  4  1  0  0  0  0
  3 24  1  0  0  0  0
  3 25  1  0  0  0  0
  4  9  1  0  0  0  0
  4  5  1  0  0  0  0
  5  6  1  0  0  0  0
  5 26  1  0  0  0  0
  5 27  1  0  0  0  0
  6  7  1  0  0  0  0
  6 28  1  0  0  0  0
  6 29  1  0  0  0  0
  7  8  1  0  0  0  0
  8  9  1  0  0  0  0
  8 30  1  0  0  0  0
  8 31  1  0  0  0  0
  9 32  1  0  0  0  0
  9 33  1  0  0  0  0
 10 11  1  0  0  0  0
 10 34  1  0  0  0  0
 11 12  2  0  0  0  0
 11 13  1  0  0  0  0
 13 14  1  0  0  0  0
 13 15  1  0  0  0  0
 13 35  1  0  0  0  0
 14 36  1  0  0  0  0
 14 37  1  0  0  0  0
 14 38  1  0  0  0  0
 15 19  1  0  0  0  0
 15 16  1  0  0  0  0
 16 17  2  0  0  0  0
 16 39  1  0  0  0  0
 17 18  1  0  0  0  0
 18 19  2  0  0  0  0
 18 40  1  0  0  0  0
M  END
> <s_m_source_file>
AV-unprocessed.smi

> <i_m_source_file_index>
3345

> <i_lp_mmshare_version>
43012

> <i_f3d_flags>
0

> <s_epik_input>
W0NIMl0xW0NIMl1PW0NIMl1bQ0gyXU4xW0NIMl1bQ0BASF0oW0NIM10pW05IXUMoPU8pW0NASF0oW0NIM10pbjJbY0hdbltjSF1uMg==

> <s_epik_cmdline>
J2VwaWtfcHl0aG9uJywgJy1waCcsICc3LjAnLCAnLXRuJywgJzgnLCAnLW1hJywgJzIwMCcsICctbWV0YWxfYmluZGluZycsICctaW1hZScsICc8aW5maWxlLm1hZT4nLCAnLW9tYWUnLCAnPG91dGZpbGUubWFlPic=

> <r_lp_tautomer_probability>
1

> <r_epik_Ionization_Penalty>
0.211373

> <r_epik_Ionization_Penalty_Charging>
0

> <r_epik_Ionization_Penalty_Neutral>
0.211373

> <r_epik_State_Penalty>
0.201459

> <r_epik_Charging_Adjusted_Penalty>
0.201459

> <i_epik_Tot_Q>
0

> <i_epik_Tot_abs_Q>
0

> <r_epik_Metal_State_Penalty>
0.201458

> <b_epik_Metal_Only>
0

> <s_lp_Force_Field>
OPLS_2005

> <r_lp_Energy>
29.1887

> <b_lp_Chiralities_Consistent>
1

> <s_lp_Variant>
AV-unprocessed.smi:3345-1

> <Gold.Version>
5.8.1

> <Gold.Id.Protein>
6NUR|6NUR_protein|mol2

> <Gold.PLP.Fitness>
45.5469

> <Gold.PLP.PLP>
-37.6425

> <Gold.PLP.part.hbond>
-2.0000

> <Gold.PLP.part.metal>
0.0000

> <Gold.PLP.part.buried>
-3.9741

> <Gold.PLP.part.nonpolar>
-31.6077

> <Gold.PLP.part.repulsive>
0.3644

> <Gold.PLP.ligand.clash>
0.0000

> <Gold.PLP.ligand.torsion>
0.2231

> <Gold.PLP.Chemscore.Hbond>
2.0000

> <Gold.PLP.Chemscore.CHOScore>
0.7318

> <Gold.PLP.Chemscore.Metal>
0.0000

> <Gold.Chemscore.Hbonds>
donor molecule, donor type, donor heavy atom, donor atom, acceptor molecule, acceptor atom, score
      P1  H  7989  7998       L1    17  0.70
      P1  H  7997  8008       L1    12  0.83
      L1  C    18    40       P1  7948  1.00

> <Gold.PLP.Chemscore.Internal.Correction>
0.1552

> <Gold.Rescore>
     Score         DG    S(hbond)    S(metal)    S(lipo)     H(rot)  DE(clash)    DE(int)     intcor
     13.56     -15.23       1.98        0.00      82.40       2.54       0.07       1.60       ----

> <Gold.Chemscore.Fitness>
13.5643

> <Gold.Chemscore.DG>
-15.2298

> <Gold.Chemscore.ZeroCoef>
-5.4800

> <Gold.Chemscore.Hbond>
1.9761

> <Gold.Chemscore.Metal>
0.0000

> <Gold.Chemscore.Lipo>
82.3953

> <Gold.Chemscore.Internal_Hbond>
0.0000

> <Gold.Chemscore.DEClash>
0.0666

> <Gold.Chemscore.DEInternal>
1.5989

> <Gold.Chemscore.Rot>
2.5353

> <Gold.Chemscore.Internal.Correction>
   9.000000E+99

> <Gold.Chemscore.Hbonds>
donor molecule, donor type, donor heavy atom, donor atom, acceptor molecule, acceptor atom, score
      P1  H  7989  7998       L1    17  0.07
      P1  H  7997  8008       L1    12  0.78

> <Gold.Chemscore.Hbond.Weighted>
-6.6001

> <Gold.Chemscore.Metal.Weighted>
-0.0000

> <Gold.Chemscore.Lipo.Weighted>
-9.6402

> <Gold.Chemscore.Internal_Hbond.Weighted>
0.0000

> <Gold.Chemscore.DEClash.Weighted>
0.0666

> <Gold.Chemscore.DEInternal.Weighted>
1.5989

> <Gold.Chemscore.Rot.Weighted>
6.4905

> <Gold.Chemscore.Internal.Correction.Weighted>
   9.000000E+99

> <Gold.Protein.RotatedTorsions>
[ 6907 6896 6895 6894 ] final -111.00 input  -60.11 | X-H torsion
[ 7974 7965 7964 7962 ] final   76.34 input  175.53 | X-H torsion
[ 8008 7997 7996 7995 ] final  -62.61 input   59.86 | X-H torsion
[ 10167 10162 10161 10158 ] final   34.16 input  -65.29 | X-H torsion
[ 10718 10713 10712 10709 ] final   26.78 input   66.30 | X-H torsion
[ 10763 10752 10751 10750 ] final -153.46 input  -60.55 | X-H torsion
[ 11005 11000 10999 10996 ] final   86.44 input  -57.11 | X-H torsion

> <Gold.Protein.ActiveResidues>
 VAL166  LYS551  ARG553  GLY616  TRP617  ASP618  TYR619  PRO620  LYS621  CYS622 
 ASP623  PHE694  ASN695  SER759  ASP760  ASP761  ALA762  ILE779  LEU786  VAL792 
 PHE793  MET794  SER795  GLU796  ALA797  LYS798  CYS799  TRP800  GLU811  SER814 

> <Gold.Protein.RotatedAtoms>
  150.7661  133.9300  159.3423 H   0  0  0  0  0  0  0  0  0  0  0  0  # atno 6907 bound_to 6896
  151.7197  135.0895  160.0291 H   0  0  0  0  0  0  0  0  0  0  0  0  # atno 6908 bound_to 6896
  152.3657  133.6316  159.6085 H   0  0  0  0  0  0  0  0  0  0  0  0  # atno 6909 bound_to 6896
  145.7041  139.2592  143.1688 H   0  0  0  0  0  0  0  0  0  0  0  0  # atno 7974 bound_to 7965
  154.4509  140.0992  156.6613 H   0  0  0  0  0  0  0  0  0  0  0  0  # atno 8008 bound_to 7997
  155.5289  140.3481  155.4404 H   0  0  0  0  0  0  0  0  0  0  0  0  # atno 8009 bound_to 7997
  156.0678  140.1342  156.9854 H   0  0  0  0  0  0  0  0  0  0  0  0  # atno 8010 bound_to 7997
  140.4340  144.1283  150.6163 H   0  0  0  0  0  0  0  0  0  0  0  0  # atno 10167 bound_to 10162
  157.2114  130.6936  149.6230 H   0  0  0  0  0  0  0  0  0  0  0  0  # atno 10718 bound_to 10713
  154.7926  135.3212  154.7742 H   0  0  0  0  0  0  0  0  0  0  0  0  # atno 10763 bound_to 10752
  153.8428  135.6869  153.4805 H   0  0  0  0  0  0  0  0  0  0  0  0  # atno 10764 bound_to 10752
  153.1602  135.4664  154.9702 H   0  0  0  0  0  0  0  0  0  0  0  0  # atno 10765 bound_to 10752
  139.8944  134.8355  156.2721 H   0  0  0  0  0  0  0  0  0  0  0  0  # atno 11005 bound_to 11000
  146.0772  140.7804  142.9659 LP  0  0  0  0  0  0  0  0  0  0  0  0  # atno 17320 bound_to 7965
  144.6960  140.3432  143.7195 LP  0  0  0  0  0  0  0  0  0  0  0  0  # atno 17321 bound_to 7965
  140.4394  143.2533  151.9492 LP  0  0  0  0  0  0  0  0  0  0  0  0  # atno 17342 bound_to 10162
  139.4786  144.5668  151.8151 LP  0  0  0  0  0  0  0  0  0  0  0  0  # atno 17343 bound_to 10162
  155.9690  130.4550  150.5870 LP  0  0  0  0  0  0  0  0  0  0  0  0  # atno 17370 bound_to 10713
  157.3668  131.0759  151.1591 LP  0  0  0  0  0  0  0  0  0  0  0  0  # atno 17371 bound_to 10713
  141.0094  133.7104  156.1087 LP  0  0  0  0  0  0  0  0  0  0  0  0  # atno 17394 bound_to 11000
  140.7388  134.4173  157.5557 LP  0  0  0  0  0  0  0  0  0  0  0  0  # atno 17395 bound_to 11000

$$$$
