AV-unprocessed.smi:2698|AV-procd|sdf|10422|dock1
  -GOLD-   2272014463D 1   1.00000     0.00000
 Structure written by MMmdl.
 33 33  0  0  0  0  0  0  0  0  2 V2000
  151.7152  144.6740  159.2541 C   0  0  0  0  0  0  0  0  0  0  0  0
  151.6648  143.1445  159.1207 C   0  0  0  0  0  0  0  0  0  0  0  0
  152.8604  142.5047  159.8506 C   0  0  0  0  0  0  0  0  0  0  0  0
  151.5628  142.7324  157.6336 C   0  0  0  0  0  0  0  0  0  0  0  0
  151.3411  141.2308  157.4332 C   0  0  0  0  0  0  0  0  0  0  0  0
  151.1672  140.4968  158.4061 O   0  0  0  0  0  0  0  0  0  0  0  0
  151.3536  140.7920  156.1642 N   0  0  0  0  0  0  0  0  0  0  0  0
  151.1116  139.4190  155.7204 C   0  0  1  0  0  0  0  0  0  0  0  0
  150.4476  139.3865  154.3262 C   0  0  0  0  0  0  0  0  0  0  0  0
  149.1677  140.1769  154.2064 C   0  0  0  0  0  0  0  0  0  0  0  0
  147.8716  139.7100  154.1290 C   0  0  0  0  0  0  0  0  0  0  0  0
  147.0597  140.8281  154.0625 N   0  0  0  0  0  0  0  0  0  0  0  0
  147.8596  141.8941  154.0983 C   0  0  0  0  0  0  0  0  0  0  0  0
  149.1444  141.5767  154.1824 N   0  0  0  0  0  0  0  0  0  0  0  0
  152.4106  138.6097  155.7877 C   0  0  0  0  0  0  0  0  0  0  0  0
  153.4463  139.2150  156.1442 O   0  0  0  0  0  0  0  0  0  0  0  0
  152.3497  137.3997  155.4778 O   0  5  0  0  0  0  0  0  0  0  0  0
  146.0517  140.8360  154.0056 H   0  0  0  0  0  0  0  0  0  0  0  0
  152.6066  145.0836  158.7781 H   0  0  0  0  0  0  0  0  0  0  0  0
  151.7270  144.9774  160.3013 H   0  0  0  0  0  0  0  0  0  0  0  0
  150.8454  145.1390  158.7893 H   0  0  0  0  0  0  0  0  0  0  0  0
  150.7566  142.8104  159.6253 H   0  0  0  0  0  0  0  0  0  0  0  0
  153.8029  142.7625  159.3667 H   0  0  0  0  0  0  0  0  0  0  0  0
  152.7855  141.4180  159.8786 H   0  0  0  0  0  0  0  0  0  0  0  0
  152.9144  142.8454  160.8847 H   0  0  0  0  0  0  0  0  0  0  0  0
  150.7428  143.2709  157.1559 H   0  0  0  0  0  0  0  0  0  0  0  0
  152.4672  143.0280  157.1001 H   0  0  0  0  0  0  0  0  0  0  0  0
  151.5265  141.4668  155.4332 H   0  0  0  0  0  0  0  0  0  0  0  0
  150.4203  138.9457  156.4206 H   0  0  0  0  0  0  0  0  0  0  0  0
  151.1455  139.7409  153.5660 H   0  0  0  0  0  0  0  0  0  0  0  0
  150.2176  138.3530  154.0644 H   0  0  0  0  0  0  0  0  0  0  0  0
  147.4757  138.7053  154.1282 H   0  0  0  0  0  0  0  0  0  0  0  0
  147.4991  142.9117  154.0657 H   0  0  0  0  0  0  0  0  0  0  0  0
  1  2  1  0  0  0  0
  1 19  1  0  0  0  0
  1 20  1  0  0  0  0
  1 21  1  0  0  0  0
  2  3  1  0  0  0  0
  2  4  1  0  0  0  0
  2 22  1  0  0  0  0
  3 23  1  0  0  0  0
  3 24  1  0  0  0  0
  3 25  1  0  0  0  0
  4  5  1  0  0  0  0
  4 26  1  0  0  0  0
  4 27  1  0  0  0  0
  5  6  2  0  0  0  0
  5  7  1  0  0  0  0
  7  8  1  0  0  0  0
  7 28  1  0  0  0  0
  8  9  1  0  0  0  0
  8 15  1  0  0  0  0
  8 29  1  0  0  0  0
  9 10  1  0  0  0  0
  9 30  1  0  0  0  0
  9 31  1  0  0  0  0
 10 14  1  0  0  0  0
 10 11  2  0  0  0  0
 11 12  1  0  0  0  0
 11 32  1  0  0  0  0
 12 18  1  0  0  0  0
 12 13  1  0  0  0  0
 13 14  2  0  0  0  0
 13 33  1  0  0  0  0
 15 16  2  0  0  0  0
 15 17  1  0  0  0  0
M  CHG  1  17  -1
M  END
> <s_m_source_file>
AV-unprocessed.smi

> <i_m_source_file_index>
2698

> <i_lp_mmshare_version>
43012

> <i_f3d_flags>
0

> <s_epik_input>
W0NIM11bQ0hdKFtDSDNdKVtDSDJdQyg9TylbTkhdW0NAQEhdKEMoPU8pW09IXSlbQ0gyXWMxW2NIXVtuSF1bY0hdbjE=

> <s_epik_cmdline>
J2VwaWtfcHl0aG9uJywgJy1waCcsICc3LjAnLCAnLXRuJywgJzgnLCAnLW1hJywgJzIwMCcsICctbWV0YWxfYmluZGluZycsICctaW1hZScsICc8aW5maWxlLm1hZT4nLCAnLW9tYWUnLCAnPG91dGZpbGUubWFlPic=

> <r_lp_tautomer_probability>
0.5

> <r_epik_Ionization_Penalty>
0.818672

> <r_epik_Ionization_Penalty_Charging>
0.818672

> <r_epik_Ionization_Penalty_Neutral>
7.99661e-08

> <r_epik_State_Penalty>
0.927032

> <r_epik_Charging_Adjusted_Penalty>
1.7457

> <i_epik_Tot_Q>
-1

> <i_epik_Tot_abs_Q>
1

> <r_epik_Metal_State_Penalty>
0.525537

> <b_epik_Metal_Only>
0

> <s_lp_Force_Field>
OPLS_2005

> <r_lp_Energy>
1.97611

> <b_lp_Chiralities_Consistent>
1

> <s_lp_Variant>
AV-unprocessed.smi:2698-6

> <Gold.Version>
5.8.1

> <Gold.Id.Protein>
6NUR|6NUR_protein|mol2

> <Gold.PLP.Fitness>
47.0334

> <Gold.PLP.PLP>
-33.2722

> <Gold.PLP.part.hbond>
-3.6351

> <Gold.PLP.part.metal>
0.0000

> <Gold.PLP.part.buried>
-2.9534

> <Gold.PLP.part.nonpolar>
-26.1258

> <Gold.PLP.part.repulsive>
0.3981

> <Gold.PLP.ligand.clash>
0.0000

> <Gold.PLP.ligand.torsion>
0.5774

> <Gold.PLP.Chemscore.Hbond>
4.1085

> <Gold.PLP.Chemscore.CHOScore>
0.7965

> <Gold.PLP.Chemscore.Metal>
0.0000

> <Gold.Chemscore.Hbonds>
donor molecule, donor type, donor heavy atom, donor atom, acceptor molecule, acceptor atom, score
      P1  H  7997  8008       L1    16  0.78
      P1  H  8011  8017       L1    14  0.41
      P1  H 10752 10764       L1    17  1.33
      L1  C    13    33       P1  8028  0.36

> <Gold.PLP.Chemscore.Internal.Correction>
0.2011

> <Gold.Rescore>
     Score         DG    S(hbond)    S(metal)    S(lipo)     H(rot)  DE(clash)    DE(int)     intcor
     11.09     -12.04       1.84        0.00      69.53       3.01       0.22       0.72       ----

> <Gold.Chemscore.Fitness>
11.0888

> <Gold.Chemscore.DG>
-12.0354

> <Gold.Chemscore.ZeroCoef>
-5.4800

> <Gold.Chemscore.Hbond>
1.8376

> <Gold.Chemscore.Metal>
0.0000

> <Gold.Chemscore.Lipo>
69.5298

> <Gold.Chemscore.Internal_Hbond>
0.0000

> <Gold.Chemscore.DEClash>
0.2242

> <Gold.Chemscore.DEInternal>
0.7224

> <Gold.Chemscore.Rot>
3.0145

> <Gold.Chemscore.Internal.Correction>
   9.000000E+99

> <Gold.Chemscore.Hbonds>
donor molecule, donor type, donor heavy atom, donor atom, acceptor molecule, acceptor atom, score
      P1  H  7997  8008       L1    16  0.39
      P1  H  8011  8017       L1    14  0.07
      P1  H 10752 10764       L1    17  0.64

> <Gold.Chemscore.Hbond.Weighted>
-6.1375

> <Gold.Chemscore.Metal.Weighted>
-0.0000

> <Gold.Chemscore.Lipo.Weighted>
-8.1350

> <Gold.Chemscore.Internal_Hbond.Weighted>
0.0000

> <Gold.Chemscore.DEClash.Weighted>
0.2242

> <Gold.Chemscore.DEInternal.Weighted>
0.7224

> <Gold.Chemscore.Rot.Weighted>
7.7171

> <Gold.Chemscore.Internal.Correction.Weighted>
   9.000000E+99

> <Gold.Protein.RotatedTorsions>
[ 6907 6896 6895 6894 ] final   77.18 input  -60.11 | X-H torsion
[ 7974 7965 7964 7962 ] final  -98.99 input  175.53 | X-H torsion
[ 8008 7997 7996 7995 ] final  -48.85 input   59.86 | X-H torsion
[ 10167 10162 10161 10158 ] final  -25.59 input  -65.29 | X-H torsion
[ 10718 10713 10712 10709 ] final  -50.19 input   66.30 | X-H torsion
[ 10763 10752 10751 10750 ] final  -49.09 input  -60.55 | X-H torsion
[ 11005 11000 10999 10996 ] final  127.64 input  -57.11 | X-H torsion

> <Gold.Protein.ActiveResidues>
 VAL166  LYS551  ARG553  GLY616  TRP617  ASP618  TYR619  PRO620  LYS621  CYS622 
 ASP623  PHE694  ASN695  SER759  ASP760  ASP761  ALA762  ILE779  LEU786  VAL792 
 PHE793  MET794  SER795  GLU796  ALA797  LYS798  CYS799  TRP800  GLU811  SER814 

> <Gold.Protein.RotatedAtoms>
  152.5106  134.3857  159.9366 H   0  0  0  0  0  0  0  0  0  0  0  0  # atno 6907 bound_to 6896
  151.3815  133.3813  159.2718 H   0  0  0  0  0  0  0  0  0  0  0  0  # atno 6908 bound_to 6896
  150.9501  134.8922  159.7725 H   0  0  0  0  0  0  0  0  0  0  0  0  # atno 6909 bound_to 6896
  145.3133  140.9405  143.2757 H   0  0  0  0  0  0  0  0  0  0  0  0  # atno 7974 bound_to 7965
  154.4035  140.1311  156.4406 H   0  0  0  0  0  0  0  0  0  0  0  0  # atno 8008 bound_to 7997
  155.7463  140.3489  155.5108 H   0  0  0  0  0  0  0  0  0  0  0  0  # atno 8009 bound_to 7997
  155.8992  140.1016  157.1353 H   0  0  0  0  0  0  0  0  0  0  0  0  # atno 8010 bound_to 7997
  140.7286  143.4251  151.0889 H   0  0  0  0  0  0  0  0  0  0  0  0  # atno 10167 bound_to 10162
  156.1824  130.4151  149.9488 H   0  0  0  0  0  0  0  0  0  0  0  0  # atno 10718 bound_to 10713
  154.0884  135.6581  153.4848 H   0  0  0  0  0  0  0  0  0  0  0  0  # atno 10763 bound_to 10752
  153.0330  135.5196  154.7404 H   0  0  0  0  0  0  0  0  0  0  0  0  # atno 10764 bound_to 10752
  154.6521  135.3002  154.9943 H   0  0  0  0  0  0  0  0  0  0  0  0  # atno 10765 bound_to 10752
  139.9518  134.9620  156.8884 H   0  0  0  0  0  0  0  0  0  0  0  0  # atno 11005 bound_to 11000
  144.8998  139.4665  143.6638 LP  0  0  0  0  0  0  0  0  0  0  0  0  # atno 17320 bound_to 7965
  146.3109  139.7745  142.9020 LP  0  0  0  0  0  0  0  0  0  0  0  0  # atno 17321 bound_to 7965
  139.7902  143.8230  152.3150 LP  0  0  0  0  0  0  0  0  0  0  0  0  # atno 17342 bound_to 10162
  139.8211  144.7295  150.9572 LP  0  0  0  0  0  0  0  0  0  0  0  0  # atno 17343 bound_to 10162
  156.7254  130.9023  151.3621 LP  0  0  0  0  0  0  0  0  0  0  0  0  # atno 17370 bound_to 10713
  157.6876  130.9201  150.0429 LP  0  0  0  0  0  0  0  0  0  0  0  0  # atno 17371 bound_to 10713
  140.5701  134.0451  155.7427 LP  0  0  0  0  0  0  0  0  0  0  0  0  # atno 17394 bound_to 11000
  141.1182  133.9505  157.2781 LP  0  0  0  0  0  0  0  0  0  0  0  0  # atno 17395 bound_to 11000

$$$$
