AV-unprocessed.smi:3187|AV-procd|sdf|12181|dock3
  -GOLD-   2272018 23D 1   1.00000     0.00000
 Structure written by MMmdl.
 42 43  0  0  0  0  0  0  0  0  3 V2000
  153.1823  140.9009  160.3430 C   0  0  0  0  0  0  0  0  0  0  0  0
  152.6525  142.2932  160.0419 C   0  0  0  0  0  0  0  0  0  0  0  0
  152.6099  143.2177  161.0204 C   0  0  0  0  0  0  0  0  0  0  0  0
  152.1745  144.6509  160.8207 C   0  0  0  0  0  0  0  0  0  0  0  0
  152.2767  145.0556  159.3483 C   0  0  0  0  0  0  0  0  0  0  0  0
  151.5968  144.0232  158.4340 C   0  0  1  0  0  0  0  0  0  0  0  0
  151.6438  144.5216  156.9766 C   0  0  0  0  0  0  0  0  0  0  0  0
  152.2029  142.5946  158.5971 C   0  0  2  0  0  0  0  0  0  0  0  0
  151.2184  141.5319  158.0405 C   0  0  0  0  0  0  0  0  0  0  0  0
  151.0553  141.6072  156.5736 N   0  3  0  0  0  0  0  0  0  0  0  0
  149.9168  140.8243  156.0540 C   0  0  0  0  0  0  0  0  0  0  0  0
  149.6213  141.1813  154.5904 C   0  0  0  0  0  0  0  0  0  0  0  0
  148.1961  141.4396  154.3699 N   0  0  0  0  0  0  0  0  0  0  0  0
  147.4042  142.3462  155.0273 C   0  0  0  0  0  0  0  0  0  0  0  0
  146.1487  142.2321  154.4877 C   0  0  0  0  0  0  0  0  0  0  0  0
  146.2271  141.2623  153.5245 N   0  3  0  0  0  0  0  0  0  0  0  0
  147.4727  140.7813  153.4544 C   0  0  0  0  0  0  0  0  0  0  0  0
  153.9510  140.6203  159.6227 H   0  0  0  0  0  0  0  0  0  0  0  0
  152.3807  140.1633  160.3146 H   0  0  0  0  0  0  0  0  0  0  0  0
  153.6296  140.8539  161.3365 H   0  0  0  0  0  0  0  0  0  0  0  0
  152.9136  142.9560  162.0237 H   0  0  0  0  0  0  0  0  0  0  0  0
  151.1523  144.7601  161.1842 H   0  0  0  0  0  0  0  0  0  0  0  0
  152.8027  145.3044  161.4266 H   0  0  0  0  0  0  0  0  0  0  0  0
  151.8284  146.0406  159.2133 H   0  0  0  0  0  0  0  0  0  0  0  0
  153.3269  145.1547  159.0695 H   0  0  0  0  0  0  0  0  0  0  0  0
  150.5485  143.9814  158.7350 H   0  0  0  0  0  0  0  0  0  0  0  0
  152.6695  144.5750  156.6103 H   0  0  0  0  0  0  0  0  0  0  0  0
  151.2148  145.5209  156.8932 H   0  0  0  0  0  0  0  0  0  0  0  0
  151.0831  143.8814  156.2975 H   0  0  0  0  0  0  0  0  0  0  0  0
  153.1146  142.5628  157.9985 H   0  0  0  0  0  0  0  0  0  0  0  0
  151.5576  140.5336  158.3215 H   0  0  0  0  0  0  0  0  0  0  0  0
  150.2270  141.6499  158.4745 H   0  0  0  0  0  0  0  0  0  0  0  0
  150.9308  142.5757  156.3149 H   0  0  0  0  0  0  0  0  0  0  0  0
  150.1457  139.7610  156.1395 H   0  0  0  0  0  0  0  0  0  0  0  0
  149.0377  141.0167  156.6708 H   0  0  0  0  0  0  0  0  0  0  0  0
  150.1713  142.0752  154.2921 H   0  0  0  0  0  0  0  0  0  0  0  0
  149.9311  140.3753  153.9233 H   0  0  0  0  0  0  0  0  0  0  0  0
  147.7808  142.9894  155.8096 H   0  0  0  0  0  0  0  0  0  0  0  0
  145.2296  142.7549  154.7106 H   0  0  0  0  0  0  0  0  0  0  0  0
  147.8223  140.0131  152.7877 H   0  0  0  0  0  0  0  0  0  0  0  0
  151.9035  141.2655  156.1442 H   0  0  0  0  0  0  0  0  0  0  0  0
  145.4555  140.9533  152.9461 H   0  0  0  0  0  0  0  0  0  0  0  0
  1  2  1  0  0  0  0
  1 18  1  0  0  0  0
  1 19  1  0  0  0  0
  1 20  1  0  0  0  0
  2  8  1  0  0  0  0
  2  3  2  0  0  0  0
  3  4  1  0  0  0  0
  3 21  1  0  0  0  0
  4  5  1  0  0  0  0
  4 22  1  0  0  0  0
  4 23  1  0  0  0  0
  5  6  1  0  0  0  0
  5 24  1  0  0  0  0
  5 25  1  0  0  0  0
  6  7  1  0  0  0  0
  6  8  1  0  0  0  0
  6 26  1  0  0  0  0
  7 27  1  0  0  0  0
  7 28  1  0  0  0  0
  7 29  1  0  0  0  0
  8  9  1  0  0  0  0
  8 30  1  0  0  0  0
  9 10  1  0  0  0  0
  9 31  1  0  0  0  0
  9 32  1  0  0  0  0
 10 11  1  0  0  0  0
 10 33  1  0  0  0  0
 10 41  1  0  0  0  0
 11 12  1  0  0  0  0
 11 34  1  0  0  0  0
 11 35  1  0  0  0  0
 12 13  1  0  0  0  0
 12 36  1  0  0  0  0
 12 37  1  0  0  0  0
 13 17  1  0  0  0  0
 13 14  1  0  0  0  0
 14 15  2  0  0  0  0
 14 38  1  0  0  0  0
 15 16  1  0  0  0  0
 15 39  1  0  0  0  0
 16 17  2  0  0  0  0
 16 42  1  0  0  0  0
 17 40  1  0  0  0  0
M  CHG  1  10   1
M  CHG  1  16   1
M  END
> <s_m_source_file>
AV-unprocessed.smi

> <i_m_source_file_index>
3187

> <i_lp_mmshare_version>
43012

> <i_f3d_flags>
0

> <s_epik_input>
W0NIM11DMT1bQ0hdW0NIMl1bQ0gyXVtDQEBIXShbQ0gzXSlbQ0BIXTFbQ0gyXVtOSF1bQ0gyXVtDSDJdbjJbY0hdW2NIXW5bY0hdMg==

> <s_epik_cmdline>
J2VwaWtfcHl0aG9uJywgJy1waCcsICc3LjAnLCAnLXRuJywgJzgnLCAnLW1hJywgJzIwMCcsICctbWV0YWxfYmluZGluZycsICctaW1hZScsICc8aW5maWxlLm1hZT4nLCAnLW9tYWUnLCAnPG91dGZpbGUubWFlPic=

> <r_lp_tautomer_probability>
1

> <r_epik_Ionization_Penalty>
1.51066

> <r_epik_Ionization_Penalty_Charging>
0.0026721

> <r_epik_Ionization_Penalty_Neutral>
1.50798

> <r_epik_State_Penalty>
1.12593

> <r_epik_Charging_Adjusted_Penalty>
1.12861

> <i_epik_Tot_Q>
2

> <i_epik_Tot_abs_Q>
2

> <r_epik_Metal_State_Penalty>
5.12155

> <b_epik_Metal_Only>
0

> <s_lp_Force_Field>
OPLS_2005

> <r_lp_Energy>
24.2978

> <b_lp_Chiralities_Consistent>
1

> <s_lp_Variant>
AV-unprocessed.smi:3187-7

> <Gold.Version>
5.8.1

> <Gold.Id.Protein>
6NUR|6NUR_protein|mol2

> <Gold.PLP.Fitness>
53.5264

> <Gold.PLP.PLP>
-42.4652

> <Gold.PLP.part.hbond>
-1.0000

> <Gold.PLP.part.metal>
0.0000

> <Gold.PLP.part.buried>
-0.1445

> <Gold.PLP.part.nonpolar>
-41.9291

> <Gold.PLP.part.repulsive>
0.1137

> <Gold.PLP.ligand.clash>
0.0000

> <Gold.PLP.ligand.torsion>
0.5069

> <Gold.PLP.Chemscore.Hbond>
2.0000

> <Gold.PLP.Chemscore.CHOScore>
1.9798

> <Gold.PLP.Chemscore.Metal>
0.0000

> <Gold.Chemscore.Hbonds>
donor molecule, donor type, donor heavy atom, donor atom, acceptor molecule, acceptor atom, score
      L1  H    16    42       P1 10175  2.00
      L1  C    14    38       P1  8028  0.98
      L1  C    17    40       P1  7957  1.00

> <Gold.PLP.Chemscore.Internal.Correction>
0.1358

> <Gold.Rescore>
     Score         DG    S(hbond)    S(metal)    S(lipo)     H(rot)  DE(clash)    DE(int)     intcor
     15.32     -18.21       0.96        0.00     124.66       1.97       1.48       1.41       ----

> <Gold.Chemscore.Fitness>
15.3192

> <Gold.Chemscore.DG>
-18.2143

> <Gold.Chemscore.ZeroCoef>
-5.4800

> <Gold.Chemscore.Hbond>
0.9583

> <Gold.Chemscore.Metal>
0.0000

> <Gold.Chemscore.Lipo>
124.6573

> <Gold.Chemscore.Internal_Hbond>
0.0000

> <Gold.Chemscore.DEClash>
1.4817

> <Gold.Chemscore.DEInternal>
1.4134

> <Gold.Chemscore.Rot>
1.9732

> <Gold.Chemscore.Internal.Correction>
   9.000000E+99

> <Gold.Chemscore.Hbonds>
donor molecule, donor type, donor heavy atom, donor atom, acceptor molecule, acceptor atom, score
      L1  H    16    42       P1 10175  0.30

> <Gold.Chemscore.Hbond.Weighted>
-3.2008

> <Gold.Chemscore.Metal.Weighted>
-0.0000

> <Gold.Chemscore.Lipo.Weighted>
-14.5849

> <Gold.Chemscore.Internal_Hbond.Weighted>
0.0000

> <Gold.Chemscore.DEClash.Weighted>
1.4817

> <Gold.Chemscore.DEInternal.Weighted>
1.4134

> <Gold.Chemscore.Rot.Weighted>
5.0514

> <Gold.Chemscore.Internal.Correction.Weighted>
   9.000000E+99

> <Gold.Protein.RotatedTorsions>
[ 6907 6896 6895 6894 ] final  136.22 input  -60.11 | X-H torsion
[ 7974 7965 7964 7962 ] final  -12.18 input  175.53 | X-H torsion
[ 8008 7997 7996 7995 ] final  -46.93 input   59.86 | X-H torsion
[ 10167 10162 10161 10158 ] final   -4.32 input  -65.29 | X-H torsion
[ 10718 10713 10712 10709 ] final  -47.50 input   66.30 | X-H torsion
[ 10763 10752 10751 10750 ] final  -23.47 input  -60.55 | X-H torsion
[ 11005 11000 10999 10996 ] final -172.04 input  -57.11 | X-H torsion

> <Gold.Protein.ActiveResidues>
 VAL166  LYS551  ARG553  GLY616  TRP617  ASP618  TYR619  PRO620  LYS621  CYS622 
 ASP623  PHE694  ASN695  SER759  ASP760  ASP761  ALA762  ILE779  LEU786  VAL792 
 PHE793  MET794  SER795  GLU796  ALA797  LYS798  CYS799  TRP800  GLU811  SER814 

> <Gold.Protein.RotatedAtoms>
  152.2918  133.5568  159.5561 H   0  0  0  0  0  0  0  0  0  0  0  0  # atno 6907 bound_to 6896
  150.7238  134.0418  159.3777 H   0  0  0  0  0  0  0  0  0  0  0  0  # atno 6908 bound_to 6896
  151.8323  135.0617  160.0489 H   0  0  0  0  0  0  0  0  0  0  0  0  # atno 6909 bound_to 6896
  146.2161  140.3020  142.8376 H   0  0  0  0  0  0  0  0  0  0  0  0  # atno 7974 bound_to 7965
  154.4012  140.1359  156.4092 H   0  0  0  0  0  0  0  0  0  0  0  0  # atno 8008 bound_to 7997
  155.7750  140.3483  155.5247 H   0  0  0  0  0  0  0  0  0  0  0  0  # atno 8009 bound_to 7997
  155.8730  140.0975  157.1528 H   0  0  0  0  0  0  0  0  0  0  0  0  # atno 8010 bound_to 7997
  140.6923  143.6437  150.8412 H   0  0  0  0  0  0  0  0  0  0  0  0  # atno 10167 bound_to 10162
  156.2078  130.4159  149.9154 H   0  0  0  0  0  0  0  0  0  0  0  0  # atno 10718 bound_to 10713
  153.6683  135.6973  153.5155 H   0  0  0  0  0  0  0  0  0  0  0  0  # atno 10763 bound_to 10752
  153.2577  135.4254  155.0862 H   0  0  0  0  0  0  0  0  0  0  0  0  # atno 10764 bound_to 10752
  154.8433  135.3547  154.6228 H   0  0  0  0  0  0  0  0  0  0  0  0  # atno 10765 bound_to 10752
  140.5015  134.5889  157.4989 H   0  0  0  0  0  0  0  0  0  0  0  0  # atno 11005 bound_to 11000
  144.9050  140.7689  143.5843 LP  0  0  0  0  0  0  0  0  0  0  0  0  # atno 17320 bound_to 7965
  145.2948  139.1871  143.4721 LP  0  0  0  0  0  0  0  0  0  0  0  0  # atno 17321 bound_to 7965
  140.0152  143.5601  152.2823 LP  0  0  0  0  0  0  0  0  0  0  0  0  # atno 17342 bound_to 10162
  139.6339  144.7647  151.2479 LP  0  0  0  0  0  0  0  0  0  0  0  0  # atno 17343 bound_to 10162
  156.6842  130.8870  151.3580 LP  0  0  0  0  0  0  0  0  0  0  0  0  # atno 17370 bound_to 10713
  157.7022  130.9345  150.0820 LP  0  0  0  0  0  0  0  0  0  0  0  0  # atno 17371 bound_to 10713
  139.9711  134.7292  156.0040 LP  0  0  0  0  0  0  0  0  0  0  0  0  # atno 17394 bound_to 11000
  141.1433  133.6560  156.3793 LP  0  0  0  0  0  0  0  0  0  0  0  0  # atno 17395 bound_to 11000

$$$$
