AV-unprocessed.smi:1740|AV-procd|sdf|7008|dock5
  -GOLD-   22720 8223D 1   1.00000     0.00000
 Structure written by MMmdl.
 52 54  0  0  0  0  0  0  0  0  2 V2000
  149.2802  133.9492  153.2518 N   0  0  0  0  0  0  0  0  0  0  0  0
  149.5503  134.0607  154.5541 C   0  0  0  0  0  0  0  0  0  0  0  0
  150.1476  133.1848  155.1771 O   0  0  0  0  0  0  0  0  0  0  0  0
  149.0975  135.3507  155.2461 C   0  0  0  0  0  0  0  0  0  0  0  0
  149.5725  136.5782  154.5568 N   0  3  2  0  0  0  0  0  0  0  0  0
  151.0544  136.6496  154.4465 C   0  0  0  0  0  0  0  0  0  0  0  0
  151.4910  137.8612  153.6035 C   0  0  0  0  0  0  0  0  0  0  0  0
  150.9205  139.1825  154.1536 C   0  0  2  0  0  0  0  0  0  0  0  0
  151.5554  139.5594  155.4161 N   0  0  0  0  0  0  0  0  0  0  0  0
  151.3565  140.7122  156.0710 C   0  0  0  0  0  0  0  0  0  0  0  0
  150.6071  141.6015  155.6685 O   0  0  0  0  0  0  0  0  0  0  0  0
  152.0672  140.7482  157.2104 N   0  0  0  0  0  0  0  0  0  0  0  0
  152.0682  141.7502  158.2223 C   0  0  0  0  0  0  0  0  0  0  0  0
  151.0424  142.7235  158.3109 C   0  0  0  0  0  0  0  0  0  0  0  0
  151.1278  143.7290  159.2890 C   0  0  0  0  0  0  0  0  0  0  0  0
  152.2471  143.7380  160.1374 C   0  0  0  0  0  0  0  0  0  0  0  0
  153.2388  142.8288  160.0570 N   0  0  0  0  0  0  0  0  0  0  0  0
  153.1639  141.8437  159.1284 C   0  0  0  0  0  0  0  0  0  0  0  0
  154.2256  140.9102  159.0999 N   0  0  0  0  0  0  0  0  0  0  0  0
  153.8950  139.4942  159.2336 C   0  0  0  0  0  0  0  0  0  0  0  0
  155.0252  138.8595  160.0512 C   0  0  0  0  0  0  0  0  0  0  0  0
  156.1850  139.8366  159.8851 C   0  0  0  0  0  0  0  0  0  0  0  0
  155.4682  141.1817  159.8150 C   0  0  0  0  0  0  0  0  0  0  0  0
  149.3976  139.0587  154.3321 C   0  0  0  0  0  0  0  0  0  0  0  0
  149.0091  137.8159  155.1537 C   0  0  0  0  0  0  0  0  0  0  0  0
  149.5654  133.1194  152.7507 H   0  0  0  0  0  0  0  0  0  0  0  0
  148.7992  134.6926  152.7662 H   0  0  0  0  0  0  0  0  0  0  0  0
  148.0068  135.3325  155.2526 H   0  0  0  0  0  0  0  0  0  0  0  0
  149.4167  135.3598  156.2898 H   0  0  0  0  0  0  0  0  0  0  0  0
  151.4937  136.7061  155.4436 H   0  0  0  0  0  0  0  0  0  0  0  0
  151.4410  135.7399  153.9864 H   0  0  0  0  0  0  0  0  0  0  0  0
  152.5794  137.9071  153.5489 H   0  0  0  0  0  0  0  0  0  0  0  0
  151.1448  137.7223  152.5785 H   0  0  0  0  0  0  0  0  0  0  0  0
  151.1091  139.9756  153.4275 H   0  0  0  0  0  0  0  0  0  0  0  0
  152.1834  138.8862  155.8301 H   0  0  0  0  0  0  0  0  0  0  0  0
  152.5788  139.9092  157.4409 H   0  0  0  0  0  0  0  0  0  0  0  0
  150.2040  142.7315  157.6320 H   0  0  0  0  0  0  0  0  0  0  0  0
  150.3598  144.4831  159.3776 H   0  0  0  0  0  0  0  0  0  0  0  0
  152.3536  144.4990  160.8963 H   0  0  0  0  0  0  0  0  0  0  0  0
  152.9251  139.3409  159.7090 H   0  0  0  0  0  0  0  0  0  0  0  0
  153.8600  139.0455  158.2406 H   0  0  0  0  0  0  0  0  0  0  0  0
  154.7355  138.8125  161.1018 H   0  0  0  0  0  0  0  0  0  0  0  0
  155.2687  137.8484  159.7241 H   0  0  0  0  0  0  0  0  0  0  0  0
  156.9105  139.7828  160.6972 H   0  0  0  0  0  0  0  0  0  0  0  0
  156.7070  139.6412  158.9473 H   0  0  0  0  0  0  0  0  0  0  0  0
  156.0668  141.9343  159.3012 H   0  0  0  0  0  0  0  0  0  0  0  0
  155.2650  141.5359  160.8263 H   0  0  0  0  0  0  0  0  0  0  0  0
  148.9966  139.9589  154.7998 H   0  0  0  0  0  0  0  0  0  0  0  0
  148.9279  138.9948  153.3495 H   0  0  0  0  0  0  0  0  0  0  0  0
  147.9217  137.7433  155.1927 H   0  0  0  0  0  0  0  0  0  0  0  0
  149.3560  137.9154  156.1835 H   0  0  0  0  0  0  0  0  0  0  0  0
  149.2098  136.5261  153.6151 H   0  0  0  0  0  0  0  0  0  0  0  0
  1  2  1  0  0  0  0
  1 26  1  0  0  0  0
  1 27  1  0  0  0  0
  2  3  2  0  0  0  0
  2  4  1  0  0  0  0
  4  5  1  0  0  0  0
  4 28  1  0  0  0  0
  4 29  1  0  0  0  0
  5 25  1  0  0  0  0
  5  6  1  0  0  0  0
  5 52  1  0  0  0  0
  6  7  1  0  0  0  0
  6 30  1  0  0  0  0
  6 31  1  0  0  0  0
  7  8  1  0  0  0  0
  7 32  1  0  0  0  0
  7 33  1  0  0  0  0
  8  9  1  0  0  0  0
  8 24  1  0  0  0  0
  8 34  1  0  0  0  0
  9 10  1  0  0  0  0
  9 35  1  0  0  0  0
 10 11  2  0  0  0  0
 10 12  1  0  0  0  0
 12 13  1  0  0  0  0
 12 36  1  0  0  0  0
 13 18  1  0  0  0  0
 13 14  2  0  0  0  0
 14 15  1  0  0  0  0
 14 37  1  0  0  0  0
 15 16  2  0  0  0  0
 15 38  1  0  0  0  0
 16 17  1  0  0  0  0
 16 39  1  0  0  0  0
 17 18  2  0  0  0  0
 18 19  1  0  0  0  0
 19 23  1  0  0  0  0
 19 20  1  0  0  0  0
 20 21  1  0  0  0  0
 20 40  1  0  0  0  0
 20 41  1  0  0  0  0
 21 22  1  0  0  0  0
 21 42  1  0  0  0  0
 21 43  1  0  0  0  0
 22 23  1  0  0  0  0
 22 44  1  0  0  0  0
 22 45  1  0  0  0  0
 23 46  1  0  0  0  0
 23 47  1  0  0  0  0
 24 25  1  0  0  0  0
 24 48  1  0  0  0  0
 24 49  1  0  0  0  0
 25 50  1  0  0  0  0
 25 51  1  0  0  0  0
M  CHG  1   5   1
M  END
> <s_m_source_file>
AV-unprocessed.smi

> <i_m_source_file_index>
1740

> <i_lp_mmshare_version>
43012

> <i_f3d_flags>
0

> <s_epik_input>
W05IMl1DKD1PKVtDSDJdTjFbQ0gyXVtDSDJdW0NIXShbQ0gyXVtDSDJdMSlbTkhdQyg9TylbTkhdYzJbY0hdW2NIXVtjSF1uYzJOM1tDSDJdW0NIMl1bQ0gyXVtDSDJdMw==

> <s_epik_cmdline>
J2VwaWtfcHl0aG9uJywgJy1waCcsICc3LjAnLCAnLXRuJywgJzgnLCAnLW1hJywgJzIwMCcsICctbWV0YWxfYmluZGluZycsICctaW1hZScsICc8aW5maWxlLm1hZT4nLCAnLW9tYWUnLCAnPG91dGZpbGUubWFlPic=

> <r_lp_tautomer_probability>
1

> <r_epik_Ionization_Penalty>
0.91661

> <r_epik_Ionization_Penalty_Charging>
0.838844

> <r_epik_Ionization_Penalty_Neutral>
0.0777664

> <r_epik_State_Penalty>
0.927046

> <r_epik_Charging_Adjusted_Penalty>
1.76589

> <i_epik_Tot_Q>
1

> <i_epik_Tot_abs_Q>
1

> <r_epik_Metal_State_Penalty>
0.950555

> <b_epik_Metal_Only>
0

> <s_lp_Force_Field>
OPLS_2005

> <r_lp_Energy>
41.6121

> <b_lp_Chiralities_Consistent>
1

> <s_lp_Variant>
AV-unprocessed.smi:1740-3

> <Gold.Version>
5.8.1

> <Gold.Id.Protein>
6NUR|6NUR_protein|mol2

> <Gold.PLP.Fitness>
46.6498

> <Gold.PLP.PLP>
-37.3135

> <Gold.PLP.part.hbond>
-3.0000

> <Gold.PLP.part.metal>
0.0000

> <Gold.PLP.part.buried>
-1.5426

> <Gold.PLP.part.nonpolar>
-32.8838

> <Gold.PLP.part.repulsive>
0.3042

> <Gold.PLP.ligand.clash>
0.0000

> <Gold.PLP.ligand.torsion>
0.3349

> <Gold.PLP.Chemscore.Hbond>
3.2184

> <Gold.PLP.Chemscore.CHOScore>
0.0000

> <Gold.PLP.Chemscore.Metal>
0.0000

> <Gold.Chemscore.Hbonds>
donor molecule, donor type, donor heavy atom, donor atom, acceptor molecule, acceptor atom, score
      L1  H     1    27       P1  7948  0.59
      L1  H     5    52       P1  7948  2.00

> <Gold.PLP.Chemscore.Internal.Correction>
0.3509

> <Gold.Rescore>
     Score         DG    S(hbond)    S(metal)    S(lipo)     H(rot)  DE(clash)    DE(int)     intcor
     14.13     -18.15       1.91        0.00     101.93       2.19       1.32       2.71       ----

> <Gold.Chemscore.Fitness>
14.1272

> <Gold.Chemscore.DG>
-18.1545

> <Gold.Chemscore.ZeroCoef>
-5.4800

> <Gold.Chemscore.Hbond>
1.9056

> <Gold.Chemscore.Metal>
0.0000

> <Gold.Chemscore.Lipo>
101.9327

> <Gold.Chemscore.Internal_Hbond>
0.0000

> <Gold.Chemscore.DEClash>
1.3204

> <Gold.Chemscore.DEInternal>
2.7070

> <Gold.Chemscore.Rot>
2.1939

> <Gold.Chemscore.Internal.Correction>
   9.000000E+99

> <Gold.Chemscore.Hbonds>
donor molecule, donor type, donor heavy atom, donor atom, acceptor molecule, acceptor atom, score
      L1  H     1    27       P1  7948  0.05
      L1  H     5    52       P1  7948  0.97

> <Gold.Chemscore.Hbond.Weighted>
-6.3647

> <Gold.Chemscore.Metal.Weighted>
-0.0000

> <Gold.Chemscore.Lipo.Weighted>
-11.9261

> <Gold.Chemscore.Internal_Hbond.Weighted>
0.0000

> <Gold.Chemscore.DEClash.Weighted>
1.3204

> <Gold.Chemscore.DEInternal.Weighted>
2.7070

> <Gold.Chemscore.Rot.Weighted>
5.6163

> <Gold.Chemscore.Internal.Correction.Weighted>
   9.000000E+99

> <Gold.Protein.RotatedTorsions>
[ 6907 6896 6895 6894 ] final  114.71 input  -60.11 | X-H torsion
[ 7974 7965 7964 7962 ] final   50.29 input  175.53 | X-H torsion
[ 8008 7997 7996 7995 ] final   48.86 input   59.86 | X-H torsion
[ 10167 10162 10161 10158 ] final   81.10 input  -65.29 | X-H torsion
[ 10718 10713 10712 10709 ] final  -70.28 input   66.30 | X-H torsion
[ 10763 10752 10751 10750 ] final  141.52 input  -60.55 | X-H torsion
[ 11005 11000 10999 10996 ] final   34.02 input  -57.11 | X-H torsion

> <Gold.Protein.ActiveResidues>
 VAL166  LYS551  ARG553  GLY616  TRP617  ASP618  TYR619  PRO620  LYS621  CYS622 
 ASP623  PHE694  ASN695  SER759  ASP760  ASP761  ALA762  ILE779  LEU786  VAL792 
 PHE793  MET794  SER795  GLU796  ALA797  LYS798  CYS799  TRP800  GLU811  SER814 

> <Gold.Protein.RotatedAtoms>
  152.4786  133.8198  159.7047 H   0  0  0  0  0  0  0  0  0  0  0  0  # atno 6907 bound_to 6896
  150.8819  133.7351  159.2936 H   0  0  0  0  0  0  0  0  0  0  0  0  # atno 6908 bound_to 6896
  151.4852  135.1058  159.9840 H   0  0  0  0  0  0  0  0  0  0  0  0  # atno 6909 bound_to 6896
  146.0027  139.4456  143.0005 H   0  0  0  0  0  0  0  0  0  0  0  0  # atno 7974 bound_to 7965
  155.3926  140.3434  155.4252 H   0  0  0  0  0  0  0  0  0  0  0  0  # atno 8008 bound_to 7997
  156.1549  140.1582  156.8742 H   0  0  0  0  0  0  0  0  0  0  0  0  # atno 8009 bound_to 7997
  154.5085  140.0796  156.7925 H   0  0  0  0  0  0  0  0  0  0  0  0  # atno 8010 bound_to 7997
  139.9428  144.6078  150.8235 H   0  0  0  0  0  0  0  0  0  0  0  0  # atno 10167 bound_to 10162
  156.0415  130.4328  150.2272 H   0  0  0  0  0  0  0  0  0  0  0  0  # atno 10718 bound_to 10713
  153.9406  135.2980  155.3443 H   0  0  0  0  0  0  0  0  0  0  0  0  # atno 10763 bound_to 10752
  154.7479  135.4994  153.9239 H   0  0  0  0  0  0  0  0  0  0  0  0  # atno 10764 bound_to 10752
  153.1044  135.6743  153.9720 H   0  0  0  0  0  0  0  0  0  0  0  0  # atno 10765 bound_to 10752
  140.2572  134.3235  155.7870 H   0  0  0  0  0  0  0  0  0  0  0  0  # atno 11005 bound_to 11000
  145.7463  140.9989  143.1274 LP  0  0  0  0  0  0  0  0  0  0  0  0  # atno 17320 bound_to 7965
  144.6925  139.9160  143.7465 LP  0  0  0  0  0  0  0  0  0  0  0  0  # atno 17321 bound_to 7965
  140.7606  143.3154  151.2744 LP  0  0  0  0  0  0  0  0  0  0  0  0  # atno 17342 bound_to 10162
  139.6691  144.0053  152.2741 LP  0  0  0  0  0  0  0  0  0  0  0  0  # atno 17343 bound_to 10162
  157.0367  131.0023  151.3296 LP  0  0  0  0  0  0  0  0  0  0  0  0  # atno 17370 bound_to 10713
  157.5239  130.8015  149.7840 LP  0  0  0  0  0  0  0  0  0  0  0  0  # atno 17371 bound_to 10713
  141.2195  133.7388  156.9129 LP  0  0  0  0  0  0  0  0  0  0  0  0  # atno 17394 bound_to 11000
  140.1500  134.9236  157.2580 LP  0  0  0  0  0  0  0  0  0  0  0  0  # atno 17395 bound_to 11000

$$$$
