AV-unprocessed.smi:2955|AV-procd|sdf|11302|dock9
  -GOLD-   2272016203D 1   1.00000     0.00000
 Structure written by MMmdl.
 45 47  0  0  0  0  0  0  0  0  1 V2000
  152.9496  142.9850  163.0038 C   0  0  0  0  0  0  0  0  0  0  0  0
  152.3919  143.1407  161.6038 C   0  0  0  0  0  0  0  0  0  0  0  0
  151.9271  144.3950  161.1609 C   0  0  0  0  0  0  0  0  0  0  0  0
  151.4144  144.5338  159.8581 C   0  0  0  0  0  0  0  0  0  0  0  0
  151.3670  143.4209  158.9976 C   0  0  0  0  0  0  0  0  0  0  0  0
  151.8294  142.1587  159.4232 C   0  0  0  0  0  0  0  0  0  0  0  0
  151.7489  141.1239  158.5159 O   0  0  0  0  0  0  0  0  0  0  0  0
  150.7343  141.1785  157.5220 C   0  0  0  0  0  0  0  0  0  0  0  0
  151.3300  140.8535  156.1452 C   0  0  0  0  0  0  0  0  0  0  0  0
  150.3899  140.1448  155.2864 N   0  0  0  0  0  0  0  0  0  0  0  0
  150.4554  138.8768  154.7980 C   0  0  0  0  0  0  0  0  0  0  0  0
  151.5952  137.9353  155.0979 C   0  0  1  0  0  0  0  0  0  0  0  0
  152.9570  138.5271  154.7067 C   0  0  0  0  0  0  0  0  0  0  0  0
  151.5676  137.6201  156.5222 N   0  0  0  0  0  0  0  0  0  0  0  0
  152.4987  136.8900  157.1489 C   0  0  0  0  0  0  0  0  0  0  0  0
  153.4744  136.4103  156.5773 O   0  0  0  0  0  0  0  0  0  0  0  0
  149.4498  138.5195  153.9944 N   0  0  0  0  0  0  0  0  0  0  0  0
  148.6449  139.6399  153.9880 C   0  0  0  0  0  0  0  0  0  0  0  0
  147.4177  139.8853  153.3315 C   0  0  0  0  0  0  0  0  0  0  0  0
  146.7668  141.1280  153.4767 C   0  0  0  0  0  0  0  0  0  0  0  0
  147.3325  142.1399  154.2787 C   0  0  0  0  0  0  0  0  0  0  0  0
  148.5557  141.9159  154.9394 C   0  0  0  0  0  0  0  0  0  0  0  0
  149.2021  140.6739  154.7905 C   0  0  0  0  0  0  0  0  0  0  0  0
  152.3437  142.0279  160.7387 C   0  0  0  0  0  0  0  0  0  0  0  0
  152.6493  143.8155  163.6435 H   0  0  0  0  0  0  0  0  0  0  0  0
  154.0389  142.9527  162.9722 H   0  0  0  0  0  0  0  0  0  0  0  0
  152.5916  142.0613  163.4593 H   0  0  0  0  0  0  0  0  0  0  0  0
  151.9626  145.2528  161.8167 H   0  0  0  0  0  0  0  0  0  0  0  0
  151.0578  145.4948  159.5181 H   0  0  0  0  0  0  0  0  0  0  0  0
  150.9695  143.5387  158.0005 H   0  0  0  0  0  0  0  0  0  0  0  0
  149.9412  140.4651  157.7522 H   0  0  0  0  0  0  0  0  0  0  0  0
  150.2928  142.1758  157.4944 H   0  0  0  0  0  0  0  0  0  0  0  0
  151.6133  141.7808  155.6469 H   0  0  0  0  0  0  0  0  0  0  0  0
  152.2529  140.2828  156.2400 H   0  0  0  0  0  0  0  0  0  0  0  0
  151.4848  137.0102  154.5349 H   0  0  0  0  0  0  0  0  0  0  0  0
  152.9770  138.7904  153.6495 H   0  0  0  0  0  0  0  0  0  0  0  0
  153.7612  137.8132  154.8863 H   0  0  0  0  0  0  0  0  0  0  0  0
  153.1811  139.4306  155.2751 H   0  0  0  0  0  0  0  0  0  0  0  0
  150.7815  137.9601  157.0570 H   0  0  0  0  0  0  0  0  0  0  0  0
  152.2795  136.7769  158.2223 H   0  0  0  0  0  0  0  0  0  0  0  0
  146.9757  139.1158  152.7156 H   0  0  0  0  0  0  0  0  0  0  0  0
  145.8291  141.3049  152.9705 H   0  0  0  0  0  0  0  0  0  0  0  0
  146.8275  143.0887  154.3858 H   0  0  0  0  0  0  0  0  0  0  0  0
  148.9907  142.6895  155.5544 H   0  0  0  0  0  0  0  0  0  0  0  0
  152.7097  141.0815  161.1069 H   0  0  0  0  0  0  0  0  0  0  0  0
  1  2  1  0  0  0  0
  1 25  1  0  0  0  0
  1 26  1  0  0  0  0
  1 27  1  0  0  0  0
  2 24  1  0  0  0  0
  2  3  2  0  0  0  0
  3  4  1  0  0  0  0
  3 28  1  0  0  0  0
  4  5  2  0  0  0  0
  4 29  1  0  0  0  0
  5  6  1  0  0  0  0
  5 30  1  0  0  0  0
  6  7  1  0  0  0  0
  6 24  2  0  0  0  0
  7  8  1  0  0  0  0
  8  9  1  0  0  0  0
  8 31  1  0  0  0  0
  8 32  1  0  0  0  0
  9 10  1  0  0  0  0
  9 33  1  0  0  0  0
  9 34  1  0  0  0  0
 10 23  1  0  0  0  0
 10 11  1  0  0  0  0
 11 12  1  0  0  0  0
 11 17  2  0  0  0  0
 12 13  1  0  0  0  0
 12 14  1  0  0  0  0
 12 35  1  0  0  0  0
 13 36  1  0  0  0  0
 13 37  1  0  0  0  0
 13 38  1  0  0  0  0
 14 15  1  0  0  0  0
 14 39  1  0  0  0  0
 15 16  2  0  0  0  0
 15 40  1  0  0  0  0
 17 18  1  0  0  0  0
 18 23  2  0  0  0  0
 18 19  1  0  0  0  0
 19 20  2  0  0  0  0
 19 41  1  0  0  0  0
 20 21  1  0  0  0  0
 20 42  1  0  0  0  0
 21 22  2  0  0  0  0
 21 43  1  0  0  0  0
 22 23  1  0  0  0  0
 22 44  1  0  0  0  0
 24 45  1  0  0  0  0
M  END
> <s_m_source_file>
AV-unprocessed.smi

> <i_m_source_file_index>
2955

> <i_lp_mmshare_version>
43012

> <i_f3d_flags>
0

> <s_epik_input>
W0NIM11jMVtjSF1bY0hdW2NIXWMoW2NIXTEpT1tDSDJdW0NIMl1uKGMobjIpW0NASF0oW0NIM10pW05IXVtDSF09TyljKGMyMylbY0hdW2NIXVtjSF1bY0hdMw==

> <s_epik_cmdline>
J2VwaWtfcHl0aG9uJywgJy1waCcsICc3LjAnLCAnLXRuJywgJzgnLCAnLW1hJywgJzIwMCcsICctbWV0YWxfYmluZGluZycsICctaW1hZScsICc8aW5maWxlLm1hZT4nLCAnLW9tYWUnLCAnPG91dGZpbGUubWFlPic=

> <r_lp_tautomer_probability>
1

> <r_epik_Ionization_Penalty>
0.0917757

> <r_epik_Ionization_Penalty_Charging>
0

> <r_epik_Ionization_Penalty_Neutral>
0.0917757

> <r_epik_State_Penalty>
0.0820948

> <r_epik_Charging_Adjusted_Penalty>
0.0820948

> <i_epik_Tot_Q>
0

> <i_epik_Tot_abs_Q>
0

> <r_epik_Metal_State_Penalty>
0.0709956

> <b_epik_Metal_Only>
0

> <s_lp_Force_Field>
OPLS_2005

> <r_lp_Energy>
12.9149

> <b_lp_Chiralities_Consistent>
1

> <s_lp_Variant>
AV-unprocessed.smi:2955-2

> <Gold.Version>
5.8.1

> <Gold.Id.Protein>
6NUR|6NUR_protein|mol2

> <Gold.PLP.Fitness>
54.8740

> <Gold.PLP.PLP>
-53.8611

> <Gold.PLP.part.hbond>
-0.8180

> <Gold.PLP.part.metal>
0.0000

> <Gold.PLP.part.buried>
-2.5566

> <Gold.PLP.part.nonpolar>
-51.7753

> <Gold.PLP.part.repulsive>
0.3191

> <Gold.PLP.ligand.clash>
0.0000

> <Gold.PLP.ligand.torsion>
1.0403

> <Gold.PLP.Chemscore.Hbond>
1.0000

> <Gold.PLP.Chemscore.CHOScore>
0.0000

> <Gold.PLP.Chemscore.Metal>
0.0000

> <Gold.Chemscore.Hbonds>
donor molecule, donor type, donor heavy atom, donor atom, acceptor molecule, acceptor atom, score
      P1  H 10752 10764       L1    16  0.96

> <Gold.PLP.Chemscore.Internal.Correction>
0.0935

> <Gold.Rescore>
     Score         DG    S(hbond)    S(metal)    S(lipo)     H(rot)  DE(clash)    DE(int)     intcor
     17.40     -19.70       1.00        0.00     142.54       2.26       0.03       2.27       ----

> <Gold.Chemscore.Fitness>
17.4014

> <Gold.Chemscore.DG>
-19.6966

> <Gold.Chemscore.ZeroCoef>
-5.4800

> <Gold.Chemscore.Hbond>
0.9968

> <Gold.Chemscore.Metal>
0.0000

> <Gold.Chemscore.Lipo>
142.5449

> <Gold.Chemscore.Internal_Hbond>
0.0000

> <Gold.Chemscore.DEClash>
0.0299

> <Gold.Chemscore.DEInternal>
2.2653

> <Gold.Chemscore.Rot>
2.2619

> <Gold.Chemscore.Internal.Correction>
   9.000000E+99

> <Gold.Chemscore.Hbonds>
donor molecule, donor type, donor heavy atom, donor atom, acceptor molecule, acceptor atom, score
      P1  H 10752 10764       L1    16  0.91

> <Gold.Chemscore.Hbond.Weighted>
-3.3294

> <Gold.Chemscore.Metal.Weighted>
-0.0000

> <Gold.Chemscore.Lipo.Weighted>
-16.6778

> <Gold.Chemscore.Internal_Hbond.Weighted>
0.0000

> <Gold.Chemscore.DEClash.Weighted>
0.0299

> <Gold.Chemscore.DEInternal.Weighted>
2.2653

> <Gold.Chemscore.Rot.Weighted>
5.7906

> <Gold.Chemscore.Internal.Correction.Weighted>
   9.000000E+99

> <Gold.Protein.RotatedTorsions>
[ 6907 6896 6895 6894 ] final  134.82 input  -60.11 | X-H torsion
[ 7974 7965 7964 7962 ] final -144.90 input  175.53 | X-H torsion
[ 8008 7997 7996 7995 ] final -160.22 input   59.86 | X-H torsion
[ 10167 10162 10161 10158 ] final   90.69 input  -65.29 | X-H torsion
[ 10718 10713 10712 10709 ] final  115.68 input   66.30 | X-H torsion
[ 10763 10752 10751 10750 ] final   12.30 input  -60.55 | X-H torsion
[ 11005 11000 10999 10996 ] final  -82.48 input  -57.11 | X-H torsion

> <Gold.Protein.ActiveResidues>
 VAL166  LYS551  ARG553  GLY616  TRP617  ASP618  TYR619  PRO620  LYS621  CYS622 
 ASP623  PHE694  ASN695  SER759  ASP760  ASP761  ALA762  ILE779  LEU786  VAL792 
 PHE793  MET794  SER795  GLU796  ALA797  LYS798  CYS799  TRP800  GLU811  SER814 

> <Gold.Protein.RotatedAtoms>
  152.3072  133.5715  159.5656 H   0  0  0  0  0  0  0  0  0  0  0  0  # atno 6907 bound_to 6896
  150.7305  134.0205  159.3709 H   0  0  0  0  0  0  0  0  0  0  0  0  # atno 6908 bound_to 6896
  151.8101  135.0684  160.0462 H   0  0  0  0  0  0  0  0  0  0  0  0  # atno 6909 bound_to 6896
  144.8265  140.5651  143.5544 H   0  0  0  0  0  0  0  0  0  0  0  0  # atno 7974 bound_to 7965
  155.7742  140.0856  157.2092 H   0  0  0  0  0  0  0  0  0  0  0  0  # atno 8008 bound_to 7997
  154.3994  140.1519  156.3034 H   0  0  0  0  0  0  0  0  0  0  0  0  # atno 8009 bound_to 7997
  155.8717  140.3425  155.5828 H   0  0  0  0  0  0  0  0  0  0  0  0  # atno 8010 bound_to 7997
  139.8449  144.6623  150.9239 H   0  0  0  0  0  0  0  0  0  0  0  0  # atno 10167 bound_to 10162
  157.6207  131.1015  150.7364 H   0  0  0  0  0  0  0  0  0  0  0  0  # atno 10718 bound_to 10713
  153.1836  135.6831  153.8445 H   0  0  0  0  0  0  0  0  0  0  0  0  # atno 10763 bound_to 10752
  153.7768  135.3188  155.3361 H   0  0  0  0  0  0  0  0  0  0  0  0  # atno 10764 bound_to 10752
  154.8075  135.4739  154.0525 H   0  0  0  0  0  0  0  0  0  0  0  0  # atno 10765 bound_to 10752
  141.1663  133.7247  156.8578 H   0  0  0  0  0  0  0  0  0  0  0  0  # atno 11005 bound_to 11000
  145.4990  139.1484  143.3668 LP  0  0  0  0  0  0  0  0  0  0  0  0  # atno 17320 bound_to 7965
  146.2570  140.5129  142.8869 LP  0  0  0  0  0  0  0  0  0  0  0  0  # atno 17321 bound_to 7965
  140.7794  143.3879  151.1360 LP  0  0  0  0  0  0  0  0  0  0  0  0  # atno 17342 bound_to 10162
  139.7523  143.8760  152.3080 LP  0  0  0  0  0  0  0  0  0  0  0  0  # atno 17343 bound_to 10162
  156.7722  130.4832  149.5416 LP  0  0  0  0  0  0  0  0  0  0  0  0  # atno 17370 bound_to 10713
  156.1351  130.6205  151.0389 LP  0  0  0  0  0  0  0  0  0  0  0  0  # atno 17371 bound_to 10713
  140.1870  134.8993  157.3015 LP  0  0  0  0  0  0  0  0  0  0  0  0  # atno 17394 bound_to 11000
  140.2332  134.3884  155.7512 LP  0  0  0  0  0  0  0  0  0  0  0  0  # atno 17395 bound_to 11000

$$$$
