AV-unprocessed.smi:2489|AV-procd|sdf|9806|dock2
  -GOLD-   2272013443D 1   1.00000     0.00000
 Structure written by MMmdl.
 34 35  0  0  0  0  0  0  0  0  2 V2000
  153.1890  142.5670  161.7567 C   0  0  0  0  0  0  0  0  0  0  0  0
  152.9344  142.0314  160.4663 O   0  0  0  0  0  0  0  0  0  0  0  0
  152.2228  142.8038  159.5742 C   0  0  0  0  0  0  0  0  0  0  0  0
  151.9662  144.1882  159.7415 C   0  0  0  0  0  0  0  0  0  0  0  0
  151.2154  144.8722  158.7663 C   0  0  0  0  0  0  0  0  0  0  0  0
  150.7547  144.2118  157.6831 N   0  3  0  0  0  0  0  0  0  0  0  0
  150.9797  142.8974  157.4598 C   0  0  0  0  0  0  0  0  0  0  0  0
  150.4198  142.3341  156.2817 N   0  0  0  0  0  0  0  0  0  0  0  0
  150.6259  141.1107  155.7599 C   0  0  0  0  0  0  0  0  0  0  0  0
  151.3679  140.2604  156.2530 O   0  0  0  0  0  0  0  0  0  0  0  0
  149.8593  140.8119  154.4609 C   0  0  1  0  0  0  0  0  0  0  0  0
  148.8827  139.6211  154.5546 C   0  0  0  0  0  0  0  0  0  0  0  0
  147.5187  140.2298  154.2740 C   0  0  0  0  0  0  0  0  0  0  0  0
  147.7236  141.7052  154.6000 C   0  0  2  0  0  0  0  0  0  0  0  0
  146.7351  142.6460  153.9035 C   0  0  0  0  0  0  0  0  0  0  0  0
  149.0476  141.9401  154.1419 O   0  0  0  0  0  0  0  0  0  0  0  0
  151.7166  142.1631  158.4227 C   0  0  0  0  0  0  0  0  0  0  0  0
  153.7589  141.8439  162.3399 H   0  0  0  0  0  0  0  0  0  0  0  0
  152.2617  142.7672  162.2952 H   0  0  0  0  0  0  0  0  0  0  0  0
  153.7793  143.4827  161.6997 H   0  0  0  0  0  0  0  0  0  0  0  0
  152.3250  144.7375  160.5988 H   0  0  0  0  0  0  0  0  0  0  0  0
  150.9708  145.9232  158.8205 H   0  0  0  0  0  0  0  0  0  0  0  0
  149.8451  142.9556  155.7313 H   0  0  0  0  0  0  0  0  0  0  0  0
  150.5662  140.6550  153.6444 H   0  0  0  0  0  0  0  0  0  0  0  0
  149.1218  138.8457  153.8261 H   0  0  0  0  0  0  0  0  0  0  0  0
  148.8902  139.1472  155.5370 H   0  0  0  0  0  0  0  0  0  0  0  0
  147.2754  140.1075  153.2176 H   0  0  0  0  0  0  0  0  0  0  0  0
  146.7198  139.7735  154.8592 H   0  0  0  0  0  0  0  0  0  0  0  0
  147.6862  141.8573  155.6799 H   0  0  0  0  0  0  0  0  0  0  0  0
  145.7127  142.4453  154.2242 H   0  0  0  0  0  0  0  0  0  0  0  0
  146.7757  142.5320  152.8198 H   0  0  0  0  0  0  0  0  0  0  0  0
  146.9589  143.6870  154.1371 H   0  0  0  0  0  0  0  0  0  0  0  0
  151.8953  141.1051  158.3056 H   0  0  0  0  0  0  0  0  0  0  0  0
  150.2139  144.7370  156.9955 H   0  0  0  0  0  0  0  0  0  0  0  0
  1  2  1  0  0  0  0
  1 18  1  0  0  0  0
  1 19  1  0  0  0  0
  1 20  1  0  0  0  0
  2  3  1  0  0  0  0
  3 17  1  0  0  0  0
  3  4  2  0  0  0  0
  4  5  1  0  0  0  0
  4 21  1  0  0  0  0
  5  6  2  0  0  0  0
  5 22  1  0  0  0  0
  6  7  1  0  0  0  0
  6 34  1  0  0  0  0
  7  8  1  0  0  0  0
  7 17  2  0  0  0  0
  8  9  1  0  0  0  0
  8 23  1  0  0  0  0
  9 10  2  0  0  0  0
  9 11  1  0  0  0  0
 11 16  1  0  0  0  0
 11 12  1  0  0  0  0
 11 24  1  0  0  0  0
 12 13  1  0  0  0  0
 12 25  1  0  0  0  0
 12 26  1  0  0  0  0
 13 14  1  0  0  0  0
 13 27  1  0  0  0  0
 13 28  1  0  0  0  0
 14 15  1  0  0  0  0
 14 16  1  0  0  0  0
 14 29  1  0  0  0  0
 15 30  1  0  0  0  0
 15 31  1  0  0  0  0
 15 32  1  0  0  0  0
 17 33  1  0  0  0  0
M  CHG  1   6   1
M  END
> <s_m_source_file>
AV-unprocessed.smi

> <i_m_source_file_index>
2489

> <i_lp_mmshare_version>
43012

> <i_f3d_flags>
0

> <s_epik_input>
W0NIM11PYzFbY0hdW2NIXW5jKFtjSF0xKVtOSF1DKD1PKVtDQEBIXTJbQ0gyXVtDSDJdW0NASF0oTzIpW0NIM10=

> <s_epik_cmdline>
J2VwaWtfcHl0aG9uJywgJy1waCcsICc3LjAnLCAnLXRuJywgJzgnLCAnLW1hJywgJzIwMCcsICctbWV0YWxfYmluZGluZycsICctaW1hZScsICc8aW5maWxlLm1hZT4nLCAnLW9tYWUnLCAnPG91dGZpbGUubWFlPic=

> <r_epik_Ionization_Penalty>
1.58956

> <r_epik_Ionization_Penalty_Charging>
1.1784

> <r_epik_Ionization_Penalty_Neutral>
0.411158

> <r_epik_State_Penalty>
1.31089

> <r_epik_Charging_Adjusted_Penalty>
2.48928

> <i_epik_Tot_Q>
1

> <i_epik_Tot_abs_Q>
1

> <r_epik_Metal_State_Penalty>
5.00213

> <b_epik_Metal_Only>
0

> <s_lp_Force_Field>
OPLS_2005

> <r_lp_Energy>
33.2408

> <b_lp_Chiralities_Consistent>
1

> <s_lp_Variant>
AV-unprocessed.smi:2489-12

> <Gold.Version>
5.8.1

> <Gold.Id.Protein>
6NUR|6NUR_protein|mol2

> <Gold.PLP.Fitness>
48.8782

> <Gold.PLP.PLP>
-39.1189

> <Gold.PLP.part.hbond>
-3.2751

> <Gold.PLP.part.metal>
0.0000

> <Gold.PLP.part.buried>
-4.7410

> <Gold.PLP.part.nonpolar>
-31.2103

> <Gold.PLP.part.repulsive>
0.3309

> <Gold.PLP.ligand.clash>
0.0000

> <Gold.PLP.ligand.torsion>
0.1917

> <Gold.PLP.Chemscore.Hbond>
3.3760

> <Gold.PLP.Chemscore.CHOScore>
0.0000

> <Gold.PLP.Chemscore.Metal>
0.0000

> <Gold.Chemscore.Hbonds>
donor molecule, donor type, donor heavy atom, donor atom, acceptor molecule, acceptor atom, score
      L1  H     6    34       P1  8028  1.98
      L1  H     8    23       P1  8028  0.93
      P1  H  8011  8017       L1    16  0.43

> <Gold.PLP.Chemscore.Internal.Correction>
0.0148

> <Gold.Rescore>
     Score         DG    S(hbond)    S(metal)    S(lipo)     H(rot)  DE(clash)    DE(int)     intcor
     16.54     -17.89       1.68        0.00      85.23       1.24       0.06       1.29       ----

> <Gold.Chemscore.Fitness>
16.5417

> <Gold.Chemscore.DG>
-17.8897

> <Gold.Chemscore.ZeroCoef>
-5.4800

> <Gold.Chemscore.Hbond>
1.6811

> <Gold.Chemscore.Metal>
0.0000

> <Gold.Chemscore.Lipo>
85.2268

> <Gold.Chemscore.Internal_Hbond>
0.0000

> <Gold.Chemscore.DEClash>
0.0580

> <Gold.Chemscore.DEInternal>
1.2900

> <Gold.Chemscore.Rot>
1.2409

> <Gold.Chemscore.Internal.Correction>
   9.000000E+99

> <Gold.Chemscore.Hbonds>
donor molecule, donor type, donor heavy atom, donor atom, acceptor molecule, acceptor atom, score
      L1  H     6    34       P1  8028  0.47
      L1  H     8    23       P1  8028  0.87
      P1  H  8011  8017       L1    16  0.13

> <Gold.Chemscore.Hbond.Weighted>
-5.6148

> <Gold.Chemscore.Metal.Weighted>
-0.0000

> <Gold.Chemscore.Lipo.Weighted>
-9.9715

> <Gold.Chemscore.Internal_Hbond.Weighted>
0.0000

> <Gold.Chemscore.DEClash.Weighted>
0.0580

> <Gold.Chemscore.DEInternal.Weighted>
1.2900

> <Gold.Chemscore.Rot.Weighted>
3.1767

> <Gold.Chemscore.Internal.Correction.Weighted>
   9.000000E+99

> <Gold.Protein.RotatedTorsions>
[ 6907 6896 6895 6894 ] final   23.25 input  -60.11 | X-H torsion
[ 7974 7965 7964 7962 ] final  126.15 input  175.53 | X-H torsion
[ 8008 7997 7996 7995 ] final   -4.20 input   59.86 | X-H torsion
[ 10167 10162 10161 10158 ] final   38.37 input  -65.29 | X-H torsion
[ 10718 10713 10712 10709 ] final  -96.89 input   66.30 | X-H torsion
[ 10763 10752 10751 10750 ] final  -64.60 input  -60.55 | X-H torsion
[ 11005 11000 10999 10996 ] final   81.18 input  -57.11 | X-H torsion

> <Gold.Protein.ActiveResidues>
 VAL166  LYS551  ARG553  GLY616  TRP617  ASP618  TYR619  PRO620  LYS621  CYS622 
 ASP623  PHE694  ASN695  SER759  ASP760  ASP761  ALA762  ILE779  LEU786  VAL792 
 PHE793  MET794  SER795  GLU796  ALA797  LYS798  CYS799  TRP800  GLU811  SER814 

> <Gold.Protein.RotatedAtoms>
  151.9395  135.0220  160.0534 H   0  0  0  0  0  0  0  0  0  0  0  0  # atno 6907 bound_to 6896
  152.2048  133.4863  159.5086 H   0  0  0  0  0  0  0  0  0  0  0  0  # atno 6908 bound_to 6896
  150.6962  134.1460  159.4165 H   0  0  0  0  0  0  0  0  0  0  0  0  # atno 6909 bound_to 6896
  145.0649  139.3775  143.4987 H   0  0  0  0  0  0  0  0  0  0  0  0  # atno 7974 bound_to 7965
  154.6168  140.2490  155.7600 H   0  0  0  0  0  0  0  0  0  0  0  0  # atno 8008 bound_to 7997
  156.2403  140.2935  156.0375 H   0  0  0  0  0  0  0  0  0  0  0  0  # atno 8009 bound_to 7997
  155.1962  140.0393  157.2899 H   0  0  0  0  0  0  0  0  0  0  0  0  # atno 8010 bound_to 7997
  140.3943  144.1810  150.6131 H   0  0  0  0  0  0  0  0  0  0  0  0  # atno 10167 bound_to 10162
  156.0071  130.5170  150.6292 H   0  0  0  0  0  0  0  0  0  0  0  0  # atno 10718 bound_to 10713
  154.3326  135.6173  153.5558 H   0  0  0  0  0  0  0  0  0  0  0  0  # atno 10763 bound_to 10752
  152.9810  135.5750  154.4945 H   0  0  0  0  0  0  0  0  0  0  0  0  # atno 10764 bound_to 10752
  154.4634  135.2856  155.1673 H   0  0  0  0  0  0  0  0  0  0  0  0  # atno 10765 bound_to 10752
  139.9107  134.7977  156.2007 H   0  0  0  0  0  0  0  0  0  0  0  0  # atno 11005 bound_to 11000
  146.3526  140.0366  142.8646 LP  0  0  0  0  0  0  0  0  0  0  0  0  # atno 17320 bound_to 7965
  145.1363  140.9546  143.4515 LP  0  0  0  0  0  0  0  0  0  0  0  0  # atno 17321 bound_to 7965
  140.4807  143.2380  151.8959 LP  0  0  0  0  0  0  0  0  0  0  0  0  # atno 17342 bound_to 10162
  139.4787  144.5272  151.8718 LP  0  0  0  0  0  0  0  0  0  0  0  0  # atno 17343 bound_to 10162
  157.4093  131.0821  151.1235 LP  0  0  0  0  0  0  0  0  0  0  0  0  # atno 17370 bound_to 10713
  157.1872  130.6335  149.5692 LP  0  0  0  0  0  0  0  0  0  0  0  0  # atno 17371 bound_to 10713
  141.0527  133.6881  156.1801 LP  0  0  0  0  0  0  0  0  0  0  0  0  # atno 17394 bound_to 11000
  140.6785  134.4792  157.5588 LP  0  0  0  0  0  0  0  0  0  0  0  0  # atno 17395 bound_to 11000

$$$$
