AV-unprocessed.smi:199|AV-procd|sdf|1575|dock2
  -GOLD-   2262019453D 1   1.00000     0.00000
 Structure written by MMmdl.
 51 55  0  0  0  0  0  0  0  0  1 V2000
  147.0101  133.0615  161.8628 C   0  0  0  0  0  0  0  0  0  0  0  0
  146.5508  134.4710  162.2674 C   0  0  1  0  0  0  0  0  0  0  0  0
  147.3158  134.8660  163.4035 O   0  0  0  0  0  0  0  0  0  0  0  0
  147.4748  136.2734  163.3845 C   0  0  0  0  0  0  0  0  0  0  0  0
  147.7120  136.5550  161.9090 C   0  0  0  0  0  0  0  0  0  0  0  0
  146.7428  135.6009  161.2160 C   0  0  2  0  0  0  0  0  0  0  0  0
  145.5000  136.2696  161.0758 O   0  0  0  0  0  0  0  0  0  0  0  0
  147.2086  135.1587  159.8037 C   0  0  0  0  0  0  0  0  0  0  0  0
  147.5074  136.2732  158.9167 N   0  0  0  0  0  0  0  0  0  0  0  0
  146.6339  136.8971  158.0559 C   0  0  0  0  0  0  0  0  0  0  0  0
  147.1426  137.8784  157.3629 N   0  0  0  0  0  0  0  0  0  0  0  0
  148.4724  137.9307  157.7645 C   0  0  0  0  0  0  0  0  0  0  0  0
  149.5888  138.7455  157.4157 C   0  0  0  0  0  0  0  0  0  0  0  0
  149.5356  139.7463  156.4959 N   0  0  0  0  0  0  0  0  0  0  0  0
  150.6893  140.5890  156.2241 C   0  0  2  0  0  0  0  0  0  0  0  0
  150.0848  141.6860  155.3309 C   0  0  0  0  0  0  0  0  0  0  0  0
  149.0345  140.8868  154.5412 C   0  0  0  0  0  0  0  0  0  0  0  0
  149.2543  139.4672  155.0948 C   0  0  1  0  0  0  0  0  0  0  0  0
  150.5833  138.9180  154.5167 C   0  0  2  0  0  0  0  0  0  0  0  0
  150.7203  137.3853  154.5954 C   0  0  0  0  0  0  0  0  0  0  0  0
  151.9530  136.9785  154.0406 O   0  0  0  0  0  0  0  0  0  0  0  0
  151.6091  139.6900  155.3718 C   0  0  0  0  0  0  0  0  0  0  0  0
  150.7595  138.5065  158.0649 N   0  0  0  0  0  0  0  0  0  0  0  0
  150.8481  137.5250  158.9661 C   0  0  0  0  0  0  0  0  0  0  0  0
  149.9005  136.6794  159.3725 N   0  0  0  0  0  0  0  0  0  0  0  0
  148.7156  136.9262  158.7449 C   0  0  0  0  0  0  0  0  0  0  0  0
  146.4545  132.6941  161.0001 H   0  0  0  0  0  0  0  0  0  0  0  0
  146.8470  132.3569  162.6784 H   0  0  0  0  0  0  0  0  0  0  0  0
  148.0727  133.0395  161.6207 H   0  0  0  0  0  0  0  0  0  0  0  0
  145.5056  134.4141  162.5780 H   0  0  0  0  0  0  0  0  0  0  0  0
  146.5619  136.7549  163.7380 H   0  0  0  0  0  0  0  0  0  0  0  0
  148.3045  136.5938  164.0148 H   0  0  0  0  0  0  0  0  0  0  0  0
  147.5710  137.6031  161.6407 H   0  0  0  0  0  0  0  0  0  0  0  0
  148.7407  136.2857  161.6671 H   0  0  0  0  0  0  0  0  0  0  0  0
  145.6668  137.1506  160.7769 H   0  0  0  0  0  0  0  0  0  0  0  0
  148.1046  134.5412  159.8717 H   0  0  0  0  0  0  0  0  0  0  0  0
  146.4452  134.5424  159.3273 H   0  0  0  0  0  0  0  0  0  0  0  0
  145.5984  136.6029  157.9627 H   0  0  0  0  0  0  0  0  0  0  0  0
  151.1797  140.9960  157.1093 H   0  0  0  0  0  0  0  0  0  0  0  0
  149.6053  142.4600  155.9313 H   0  0  0  0  0  0  0  0  0  0  0  0
  150.8270  142.1629  154.6898 H   0  0  0  0  0  0  0  0  0  0  0  0
  148.0301  141.2415  154.7758 H   0  0  0  0  0  0  0  0  0  0  0  0
  149.1708  140.9524  153.4613 H   0  0  0  0  0  0  0  0  0  0  0  0
  148.3983  138.8230  154.9007 H   0  0  0  0  0  0  0  0  0  0  0  0
  150.6702  139.2074  153.4681 H   0  0  0  0  0  0  0  0  0  0  0  0
  150.6602  137.0237  155.6213 H   0  0  0  0  0  0  0  0  0  0  0  0
  149.9158  136.9058  154.0374 H   0  0  0  0  0  0  0  0  0  0  0  0
  151.8142  136.7544  153.1330 H   0  0  0  0  0  0  0  0  0  0  0  0
  152.3147  140.2617  154.7685 H   0  0  0  0  0  0  0  0  0  0  0  0
  152.1867  139.0161  156.0060 H   0  0  0  0  0  0  0  0  0  0  0  0
  151.8164  137.4003  159.4277 H   0  0  0  0  0  0  0  0  0  0  0  0
  1  2  1  0  0  0  0
  1 27  1  0  0  0  0
  1 28  1  0  0  0  0
  1 29  1  0  0  0  0
  2  6  1  0  0  0  0
  2  3  1  0  0  0  0
  2 30  1  0  0  0  0
  3  4  1  0  0  0  0
  4  5  1  0  0  0  0
  4 31  1  0  0  0  0
  4 32  1  0  0  0  0
  5  6  1  0  0  0  0
  5 33  1  0  0  0  0
  5 34  1  0  0  0  0
  6  7  1  0  0  0  0
  6  8  1  0  0  0  0
  7 35  1  0  0  0  0
  8  9  1  0  0  0  0
  8 36  1  0  0  0  0
  8 37  1  0  0  0  0
  9 26  1  0  0  0  0
  9 10  1  0  0  0  0
 10 11  2  0  0  0  0
 10 38  1  0  0  0  0
 11 12  1  0  0  0  0
 12 26  2  0  0  0  0
 12 13  1  0  0  0  0
 13 14  1  0  0  0  0
 13 23  2  0  0  0  0
 14 18  1  0  0  0  0
 14 15  1  0  0  0  0
 15 22  1  0  0  0  0
 15 16  1  0  0  0  0
 15 39  1  0  0  0  0
 16 17  1  0  0  0  0
 16 40  1  0  0  0  0
 16 41  1  0  0  0  0
 17 18  1  0  0  0  0
 17 42  1  0  0  0  0
 17 43  1  0  0  0  0
 18 19  1  0  0  0  0
 18 44  1  0  0  0  0
 19 20  1  0  0  0  0
 19 22  1  0  0  0  0
 19 45  1  0  0  0  0
 20 21  1  0  0  0  0
 20 46  1  0  0  0  0
 20 47  1  0  0  0  0
 21 48  1  0  0  0  0
 22 49  1  0  0  0  0
 22 50  1  0  0  0  0
 23 24  1  0  0  0  0
 24 25  2  0  0  0  0
 24 51  1  0  0  0  0
 25 26  1  0  0  0  0
M  END
> <s_m_source_file>
AV-unprocessed.smi

> <i_m_source_file_index>
199

> <i_lp_mmshare_version>
43012

> <i_f3d_flags>
0

> <s_epik_input>
W0NIMl0xW0NIMl1PW0NAQEhdKFtDSDNdKVtDQEBdMShbT0hdKVtDSDJdbihbY0hdbjIpYyhjMjMpbltjSF1uYzNOKFtDQEBIXTQ1KVtDQEhdKFtDSDJdW0NIMl00KVtDQEhdKFtDSDJdNSlbQ0gyXVtPSF0=

> <s_epik_cmdline>
J2VwaWtfcHl0aG9uJywgJy1waCcsICc3LjAnLCAnLXRuJywgJzgnLCAnLW1hJywgJzIwMCcsICctbWV0YWxfYmluZGluZycsICctaW1hZScsICc8aW5maWxlLm1hZT4nLCAnLW9tYWUnLCAnPG91dGZpbGUubWFlPic=

> <r_lp_tautomer_probability>
1

> <r_epik_Ionization_Penalty>
0.00583903

> <r_epik_Ionization_Penalty_Charging>
0

> <r_epik_Ionization_Penalty_Neutral>
0.00583903

> <r_epik_State_Penalty>
-0

> <r_epik_Charging_Adjusted_Penalty>
0

> <i_epik_Tot_Q>
0

> <i_epik_Tot_abs_Q>
0

> <r_epik_Metal_State_Penalty>
-0

> <b_epik_Metal_Only>
0

> <s_lp_Force_Field>
OPLS_2005

> <r_lp_Energy>
84.1241

> <b_lp_Chiralities_Consistent>
1

> <s_lp_Variant>
AV-unprocessed.smi:199-16

> <Gold.Version>
5.8.1

> <Gold.Id.Protein>
6NUR|6NUR_protein|mol2

> <Gold.PLP.Fitness>
51.6908

> <Gold.PLP.PLP>
-43.6960

> <Gold.PLP.part.hbond>
-4.4240

> <Gold.PLP.part.metal>
0.0000

> <Gold.PLP.part.buried>
-4.5082

> <Gold.PLP.part.nonpolar>
-35.0140

> <Gold.PLP.part.repulsive>
0.0253

> <Gold.PLP.ligand.clash>
0.0000

> <Gold.PLP.ligand.torsion>
0.4269

> <Gold.PLP.Chemscore.Hbond>
2.9440

> <Gold.PLP.Chemscore.CHOScore>
0.0000

> <Gold.PLP.Chemscore.Metal>
0.0000

> <Gold.Chemscore.Hbonds>
donor molecule, donor type, donor heavy atom, donor atom, acceptor molecule, acceptor atom, score
      L1  H    21    48       P1  7949  1.00
      P1  H  6896  6909       L1    25  0.91
      P1  H 10752 10765       L1    21  0.79

> <Gold.PLP.Chemscore.Internal.Correction>
0.0165

> <Gold.Rescore>
     Score         DG    S(hbond)    S(metal)    S(lipo)     H(rot)  DE(clash)    DE(int)     intcor
     14.55     -17.03       2.39        0.00      97.82       3.07       1.23       1.24       ----

> <Gold.Chemscore.Fitness>
14.5472

> <Gold.Chemscore.DG>
-17.0251

> <Gold.Chemscore.ZeroCoef>
-5.4800

> <Gold.Chemscore.Hbond>
2.3853

> <Gold.Chemscore.Metal>
0.0000

> <Gold.Chemscore.Lipo>
97.8193

> <Gold.Chemscore.Internal_Hbond>
0.0000

> <Gold.Chemscore.DEClash>
1.2339

> <Gold.Chemscore.DEInternal>
1.2439

> <Gold.Chemscore.Rot>
3.0729

> <Gold.Chemscore.Internal.Correction>
   9.000000E+99

> <Gold.Chemscore.Hbonds>
donor molecule, donor type, donor heavy atom, donor atom, acceptor molecule, acceptor atom, score
      L1  H    21    48       P1  7949  0.99
      P1  H  6896  6909       L1    25  0.52
      P1  H 10752 10765       L1    21  0.13

> <Gold.Chemscore.Hbond.Weighted>
-7.9669

> <Gold.Chemscore.Metal.Weighted>
-0.0000

> <Gold.Chemscore.Lipo.Weighted>
-11.4449

> <Gold.Chemscore.Internal_Hbond.Weighted>
0.0000

> <Gold.Chemscore.DEClash.Weighted>
1.2339

> <Gold.Chemscore.DEInternal.Weighted>
1.2439

> <Gold.Chemscore.Rot.Weighted>
7.8667

> <Gold.Chemscore.Internal.Correction.Weighted>
   9.000000E+99

> <Gold.Protein.RotatedTorsions>
[ 6907 6896 6895 6894 ] final   68.71 input  -60.11 | X-H torsion
[ 7974 7965 7964 7962 ] final   39.14 input  175.53 | X-H torsion
[ 8008 7997 7996 7995 ] final  -45.27 input   59.86 | X-H torsion
[ 10167 10162 10161 10158 ] final  -22.35 input  -65.29 | X-H torsion
[ 10718 10713 10712 10709 ] final  -79.93 input   66.30 | X-H torsion
[ 10763 10752 10751 10750 ] final  171.16 input  -60.55 | X-H torsion
[ 11005 11000 10999 10996 ] final -111.93 input  -57.11 | X-H torsion

> <Gold.Protein.ActiveResidues>
 VAL166  LYS551  ARG553  GLY616  TRP617  ASP618  TYR619  PRO620  LYS621  CYS622 
 ASP623  PHE694  ASN695  SER759  ASP760  ASP761  ALA762  ILE779  LEU786  VAL792 
 PHE793  MET794  SER795  GLU796  ALA797  LYS798  CYS799  TRP800  GLU811  SER814 

> <Gold.Protein.RotatedAtoms>
  152.4638  134.5122  159.9757 H   0  0  0  0  0  0  0  0  0  0  0  0  # atno 6907 bound_to 6896
  151.5165  133.3469  159.2902 H   0  0  0  0  0  0  0  0  0  0  0  0  # atno 6908 bound_to 6896
  150.8613  134.7995  159.7147 H   0  0  0  0  0  0  0  0  0  0  0  0  # atno 6909 bound_to 6896
  146.1007  139.5687  142.9416 H   0  0  0  0  0  0  0  0  0  0  0  0  # atno 7974 bound_to 7965
  154.4000  140.1401  156.3819 H   0  0  0  0  0  0  0  0  0  0  0  0  # atno 8008 bound_to 7997
  155.7996  140.3476  155.5374 H   0  0  0  0  0  0  0  0  0  0  0  0  # atno 8009 bound_to 7997
  155.8497  140.0939  157.1673 H   0  0  0  0  0  0  0  0  0  0  0  0  # atno 8010 bound_to 7997
  140.7285  143.4543  151.0471 H   0  0  0  0  0  0  0  0  0  0  0  0  # atno 10167 bound_to 10162
  156.0081  130.4559  150.3723 H   0  0  0  0  0  0  0  0  0  0  0  0  # atno 10718 bound_to 10713
  154.4079  135.2756  155.2055 H   0  0  0  0  0  0  0  0  0  0  0  0  # atno 10763 bound_to 10752
  154.4054  135.6035  153.5925 H   0  0  0  0  0  0  0  0  0  0  0  0  # atno 10764 bound_to 10752
  152.9831  135.5936  154.4356 H   0  0  0  0  0  0  0  0  0  0  0  0  # atno 10765 bound_to 10752
  141.0705  133.9387  157.2494 H   0  0  0  0  0  0  0  0  0  0  0  0  # atno 11005 bound_to 11000
  145.5859  141.0376  143.2096 LP  0  0  0  0  0  0  0  0  0  0  0  0  # atno 17320 bound_to 7965
  144.7431  139.7395  143.7303 LP  0  0  0  0  0  0  0  0  0  0  0  0  # atno 17321 bound_to 7965
  139.8222  143.7805  152.3177 LP  0  0  0  0  0  0  0  0  0  0  0  0  # atno 17342 bound_to 10162
  139.7891  144.7417  150.9980 LP  0  0  0  0  0  0  0  0  0  0  0  0  # atno 17343 bound_to 10162
  157.1807  131.0391  151.2750 LP  0  0  0  0  0  0  0  0  0  0  0  0  # atno 17370 bound_to 10713
  157.4148  130.7405  149.6867 LP  0  0  0  0  0  0  0  0  0  0  0  0  # atno 17371 bound_to 10713
  139.9519  135.0174  156.9017 LP  0  0  0  0  0  0  0  0  0  0  0  0  # atno 17394 bound_to 11000
  140.5683  134.0468  155.7422 LP  0  0  0  0  0  0  0  0  0  0  0  0  # atno 17395 bound_to 11000

$$$$
