AV-unprocessed.smi:2202|AV-procd|sdf|8929|dock7
  -GOLD-   2272012143D 1   1.00000     0.00000
 Structure written by MMmdl.
 42 44  0  0  0  0  0  0  0  0  1 V2000
  146.3428  135.5288  155.8625 O   0  0  0  0  0  0  0  0  0  0  0  0
  147.5447  135.2735  155.7730 C   0  0  0  0  0  0  0  0  0  0  0  0
  148.5864  136.0744  156.5683 C   0  0  0  0  0  0  0  0  0  0  0  0
  149.4291  136.9350  155.7250 N   0  0  0  0  0  0  0  0  0  0  0  0
  150.7669  136.8786  155.6961 C   0  0  0  0  0  0  0  0  0  0  0  0
  151.4713  136.1271  156.3712 O   0  0  0  0  0  0  0  0  0  0  0  0
  151.3480  137.8716  154.6868 C   0  0  2  0  0  0  0  0  0  0  0  0
  152.3770  138.8246  155.3500 C   0  0  0  0  0  0  0  0  0  0  0  0
  151.7215  139.9940  156.0550 C   0  0  0  0  0  0  0  0  0  0  0  0
  150.6235  140.5768  155.5560 C   0  0  0  0  0  0  0  0  0  0  0  0
  149.9943  140.0894  154.2673 C   0  0  0  0  0  0  0  0  0  0  0  0
  150.0740  138.5482  154.1067 C   0  0  2  0  0  0  0  0  0  0  0  0
  148.9481  137.8434  154.8666 C   0  0  0  0  0  0  0  0  0  0  0  0
  147.7579  138.0967  154.6775 O   0  0  0  0  0  0  0  0  0  0  0  0
  148.0294  134.3016  154.9857 N   0  0  0  0  0  0  0  0  0  0  0  0
  147.2178  133.4311  154.1427 C   0  0  0  0  0  0  0  0  0  0  0  0
  146.4325  134.2340  153.0919 C   0  0  0  0  0  0  0  0  0  0  0  0
  145.8046  133.3410  152.0391 C   0  0  0  0  0  0  0  0  0  0  0  0
  146.5983  132.4636  151.2695 C   0  0  0  0  0  0  0  0  0  0  0  0
  145.9625  131.6514  150.3102 C   0  0  0  0  0  0  0  0  0  0  0  0
  144.5656  131.7465  150.1594 C   0  0  0  0  0  0  0  0  0  0  0  0
  143.8632  132.6533  150.9783 C   0  0  0  0  0  0  0  0  0  0  0  0
  144.4629  133.4355  151.9013 N   0  0  0  0  0  0  0  0  0  0  0  0
  148.0705  136.6772  157.3179 H   0  0  0  0  0  0  0  0  0  0  0  0
  149.2077  135.3752  157.1304 H   0  0  0  0  0  0  0  0  0  0  0  0
  151.8478  137.2903  153.9107 H   0  0  0  0  0  0  0  0  0  0  0  0
  153.0036  138.2885  156.0642 H   0  0  0  0  0  0  0  0  0  0  0  0
  153.0551  139.2243  154.5954 H   0  0  0  0  0  0  0  0  0  0  0  0
  152.1965  140.3795  156.9453 H   0  0  0  0  0  0  0  0  0  0  0  0
  150.1916  141.4439  156.0339 H   0  0  0  0  0  0  0  0  0  0  0  0
  148.9602  140.4343  154.2280 H   0  0  0  0  0  0  0  0  0  0  0  0
  150.5062  140.5778  153.4375 H   0  0  0  0  0  0  0  0  0  0  0  0
  149.9627  138.2925  153.0521 H   0  0  0  0  0  0  0  0  0  0  0  0
  149.0285  134.1549  154.9687 H   0  0  0  0  0  0  0  0  0  0  0  0
  147.8805  132.7207  153.6476 H   0  0  0  0  0  0  0  0  0  0  0  0
  146.5388  132.8420  154.7620 H   0  0  0  0  0  0  0  0  0  0  0  0
  145.6429  134.8149  153.5711 H   0  0  0  0  0  0  0  0  0  0  0  0
  147.0904  134.9558  152.6059 H   0  0  0  0  0  0  0  0  0  0  0  0
  147.6681  132.4121  151.4099 H   0  0  0  0  0  0  0  0  0  0  0  0
  146.5357  130.9679  149.7013 H   0  0  0  0  0  0  0  0  0  0  0  0
  144.0444  131.1396  149.4339 H   0  0  0  0  0  0  0  0  0  0  0  0
  142.7915  132.7527  150.8903 H   0  0  0  0  0  0  0  0  0  0  0  0
  1  2  2  0  0  0  0
  2  3  1  0  0  0  0
  2 15  1  0  0  0  0
  3  4  1  0  0  0  0
  3 24  1  0  0  0  0
  3 25  1  0  0  0  0
  4 13  1  0  0  0  0
  4  5  1  0  0  0  0
  5  6  2  0  0  0  0
  5  7  1  0  0  0  0
  7 12  1  0  0  0  0
  7  8  1  0  0  0  0
  7 26  1  0  0  0  0
  8  9  1  0  0  0  0
  8 27  1  0  0  0  0
  8 28  1  0  0  0  0
  9 10  2  0  0  0  0
  9 29  1  0  0  0  0
 10 11  1  0  0  0  0
 10 30  1  0  0  0  0
 11 12  1  0  0  0  0
 11 31  1  0  0  0  0
 11 32  1  0  0  0  0
 12 13  1  0  0  0  0
 12 33  1  0  0  0  0
 13 14  2  0  0  0  0
 15 16  1  0  0  0  0
 15 34  1  0  0  0  0
 16 17  1  0  0  0  0
 16 35  1  0  0  0  0
 16 36  1  0  0  0  0
 17 18  1  0  0  0  0
 17 37  1  0  0  0  0
 17 38  1  0  0  0  0
 18 23  1  0  0  0  0
 18 19  2  0  0  0  0
 19 20  1  0  0  0  0
 19 39  1  0  0  0  0
 20 21  2  0  0  0  0
 20 40  1  0  0  0  0
 21 22  1  0  0  0  0
 21 41  1  0  0  0  0
 22 23  2  0  0  0  0
 22 42  1  0  0  0  0
M  END
> <s_m_source_file>
AV-unprocessed.smi

> <i_m_source_file_index>
2202

> <i_lp_mmshare_version>
43012

> <i_f3d_flags>
0

> <s_epik_input>
W0NIMl0xW0NIXT1bQ0hdW0NIMl1bQ0BIXShbQ0BIXTEyKUMoPU8pTihDMj1PKVtDSDJdQyg9TylbTkhdW0NIMl1bQ0gyXWMzW2NIXVtjSF1bY0hdW2NIXW4z

> <s_epik_cmdline>
J2VwaWtfcHl0aG9uJywgJy1waCcsICc3LjAnLCAnLXRuJywgJzgnLCAnLW1hJywgJzIwMCcsICctbWV0YWxfYmluZGluZycsICctaW1hZScsICc8aW5maWxlLm1hZT4nLCAnLW9tYWUnLCAnPG91dGZpbGUubWFlPic=

> <r_lp_tautomer_probability>
1

> <r_epik_Ionization_Penalty>
0.0244696

> <r_epik_Ionization_Penalty_Charging>
0

> <r_epik_Ionization_Penalty_Neutral>
0.0244696

> <r_epik_State_Penalty>
0.0198648

> <r_epik_Charging_Adjusted_Penalty>
0.0198648

> <i_epik_Tot_Q>
0

> <i_epik_Tot_abs_Q>
0

> <r_epik_Metal_State_Penalty>
0.0190699

> <b_epik_Metal_Only>
0

> <s_lp_Force_Field>
OPLS_2005

> <r_lp_Energy>
13.8656

> <b_lp_Chiralities_Consistent>
1

> <s_lp_Variant>
AV-unprocessed.smi:2202-1

> <Gold.Version>
5.8.1

> <Gold.Id.Protein>
6NUR|6NUR_protein|mol2

> <Gold.PLP.Fitness>
45.5210

> <Gold.PLP.PLP>
-39.7938

> <Gold.PLP.part.hbond>
-1.2339

> <Gold.PLP.part.metal>
0.0000

> <Gold.PLP.part.buried>
-2.9388

> <Gold.PLP.part.nonpolar>
-35.9319

> <Gold.PLP.part.repulsive>
0.2756

> <Gold.PLP.ligand.clash>
0.0000

> <Gold.PLP.ligand.torsion>
0.1481

> <Gold.PLP.Chemscore.Hbond>
1.0000

> <Gold.PLP.Chemscore.CHOScore>
0.9912

> <Gold.PLP.Chemscore.Metal>
0.0000

> <Gold.Chemscore.Hbonds>
donor molecule, donor type, donor heavy atom, donor atom, acceptor molecule, acceptor atom, score
      P1  H 10752 10765       L1     6  0.46
      L1  C    22    42       P1 10186  0.37

> <Gold.PLP.Chemscore.Internal.Correction>
0.0496

> <Gold.Rescore>
     Score         DG    S(hbond)    S(metal)    S(lipo)     H(rot)  DE(clash)    DE(int)     intcor
     14.49     -16.03       0.98        0.00     102.61       1.85       0.45       1.09       ----

> <Gold.Chemscore.Fitness>
14.4905

> <Gold.Chemscore.DG>
-16.0281

> <Gold.Chemscore.ZeroCoef>
-5.4800

> <Gold.Chemscore.Hbond>
0.9848

> <Gold.Chemscore.Metal>
0.0000

> <Gold.Chemscore.Lipo>
102.6084

> <Gold.Chemscore.Internal_Hbond>
0.0000

> <Gold.Chemscore.DEClash>
0.4453

> <Gold.Chemscore.DEInternal>
1.0924

> <Gold.Chemscore.Rot>
1.8540

> <Gold.Chemscore.Internal.Correction>
   9.000000E+99

> <Gold.Chemscore.Hbonds>
donor molecule, donor type, donor heavy atom, donor atom, acceptor molecule, acceptor atom, score
      P1  H 10752 10765       L1     6  0.14

> <Gold.Chemscore.Hbond.Weighted>
-3.2892

> <Gold.Chemscore.Metal.Weighted>
-0.0000

> <Gold.Chemscore.Lipo.Weighted>
-12.0052

> <Gold.Chemscore.Internal_Hbond.Weighted>
0.0000

> <Gold.Chemscore.DEClash.Weighted>
0.4453

> <Gold.Chemscore.DEInternal.Weighted>
1.0924

> <Gold.Chemscore.Rot.Weighted>
4.7462

> <Gold.Chemscore.Internal.Correction.Weighted>
   9.000000E+99

> <Gold.Protein.RotatedTorsions>
[ 6907 6896 6895 6894 ] final -109.54 input  -60.11 | X-H torsion
[ 7974 7965 7964 7962 ] final  136.22 input  175.53 | X-H torsion
[ 8008 7997 7996 7995 ] final  -31.30 input   59.86 | X-H torsion
[ 10167 10162 10161 10158 ] final -171.54 input  -65.29 | X-H torsion
[ 10718 10713 10712 10709 ] final   -3.88 input   66.30 | X-H torsion
[ 10763 10752 10751 10750 ] final -164.90 input  -60.55 | X-H torsion
[ 11005 11000 10999 10996 ] final   66.53 input  -57.11 | X-H torsion

> <Gold.Protein.ActiveResidues>
 VAL166  LYS551  ARG553  GLY616  TRP617  ASP618  TYR619  PRO620  LYS621  CYS622 
 ASP623  PHE694  ASN695  SER759  ASP760  ASP761  ALA762  ILE779  LEU786  VAL792 
 PHE793  MET794  SER795  GLU796  ALA797  LYS798  CYS799  TRP800  GLU811  SER814 

> <Gold.Protein.RotatedAtoms>
  150.7568  133.9514  159.3486 H   0  0  0  0  0  0  0  0  0  0  0  0  # atno 6907 bound_to 6896
  151.7432  135.0847  160.0328 H   0  0  0  0  0  0  0  0  0  0  0  0  # atno 6908 bound_to 6896
  152.3515  133.6148  159.5984 H   0  0  0  0  0  0  0  0  0  0  0  0  # atno 6909 bound_to 6896
  144.9586  139.4736  143.5490 H   0  0  0  0  0  0  0  0  0  0  0  0  # atno 7974 bound_to 7965
  154.4219  140.1768  156.1545 H   0  0  0  0  0  0  0  0  0  0  0  0  # atno 8008 bound_to 7997
  155.9888  140.3371  155.6709 H   0  0  0  0  0  0  0  0  0  0  0  0  # atno 8009 bound_to 7997
  155.6400  140.0679  157.2612 H   0  0  0  0  0  0  0  0  0  0  0  0  # atno 8010 bound_to 7997
  139.5796  144.1452  152.1498 H   0  0  0  0  0  0  0  0  0  0  0  0  # atno 10167 bound_to 10162
  156.7695  130.5295  149.5770 H   0  0  0  0  0  0  0  0  0  0  0  0  # atno 10718 bound_to 10713
  154.6984  135.2983  154.9378 H   0  0  0  0  0  0  0  0  0  0  0  0  # atno 10763 bound_to 10752
  154.0318  135.6669  153.4785 H   0  0  0  0  0  0  0  0  0  0  0  0  # atno 10764 bound_to 10752
  153.0663  135.5086  154.8114 H   0  0  0  0  0  0  0  0  0  0  0  0  # atno 10765 bound_to 10752
  139.9826  134.6719  156.0234 H   0  0  0  0  0  0  0  0  0  0  0  0  # atno 11005 bound_to 11000
  146.3345  139.8720  142.8838 LP  0  0  0  0  0  0  0  0  0  0  0  0  # atno 17320 bound_to 7965
  145.2734  141.0116  143.3759 LP  0  0  0  0  0  0  0  0  0  0  0  0  # atno 17321 bound_to 7965
  140.1003  144.5545  150.6994 LP  0  0  0  0  0  0  0  0  0  0  0  0  # atno 17342 bound_to 10162
  140.7076  143.2480  151.4679 LP  0  0  0  0  0  0  0  0  0  0  0  0  # atno 17343 bound_to 10162
  156.1287  130.6162  151.0301 LP  0  0  0  0  0  0  0  0  0  0  0  0  # atno 17370 bound_to 10713
  157.6697  131.0864  150.7641 LP  0  0  0  0  0  0  0  0  0  0  0  0  # atno 17371 bound_to 10713
  141.1496  133.6550  156.3973 LP  0  0  0  0  0  0  0  0  0  0  0  0  # atno 17394 bound_to 11000
  140.5065  134.6435  157.5268 LP  0  0  0  0  0  0  0  0  0  0  0  0  # atno 17395 bound_to 11000

$$$$
