AV-unprocessed.smi:72|AV-procd|sdf|754|dock1
  -GOLD-   2262017 93D 1   1.00000     0.00000
 Structure written by MMmdl.
 29 30  0  0  0  0  0  0  0  0  1 V2000
  153.0224  138.1016  155.8289 N   0  0  0  0  0  0  0  0  0  0  0  0
  151.9972  138.9707  155.5205 C   0  0  0  0  0  0  0  0  0  0  0  0
  151.1884  138.6189  154.4325 N   0  0  0  0  0  0  0  0  0  0  0  0
  150.2062  139.4176  154.1596 C   0  0  0  0  0  0  0  0  0  0  0  0
  149.9272  140.5903  154.9763 N   0  0  0  0  0  0  0  0  0  0  0  0
  148.8004  141.5578  154.6323 C   0  0  1  0  0  0  0  0  0  0  0  0
  148.4049  141.3661  153.3005 O   0  0  0  0  0  0  0  0  0  0  0  0
  147.1627  140.6696  153.2086 C   0  0  1  0  0  0  0  0  0  0  0  0
  147.3830  139.1392  153.1836 C   0  0  0  0  0  0  0  0  0  0  0  0
  147.6591  138.7151  151.8658 O   0  0  0  0  0  0  0  0  0  0  0  0
  146.4296  141.2012  154.4442 C   0  0  1  0  0  0  0  0  0  0  0  0
  145.3904  140.3500  154.8867 O   0  0  0  0  0  0  0  0  0  0  0  0
  147.5299  141.3367  155.4897 C   0  0  2  0  0  0  0  0  0  0  0  0
  147.2484  142.4506  156.3140 O   0  0  0  0  0  0  0  0  0  0  0  0
  150.8555  140.9352  156.0013 C   0  0  0  0  0  0  0  0  0  0  0  0
  150.7406  141.9942  156.6171 O   0  0  0  0  0  0  0  0  0  0  0  0
  151.8901  140.0309  156.2673 N   0  0  0  0  0  0  0  0  0  0  0  0
  149.2502  142.5459  154.7442 H   0  0  0  0  0  0  0  0  0  0  0  0
  146.6327  140.9716  152.3041 H   0  0  0  0  0  0  0  0  0  0  0  0
  146.0120  142.1806  154.2036 H   0  0  0  0  0  0  0  0  0  0  0  0
  147.6201  140.4210  156.0763 H   0  0  0  0  0  0  0  0  0  0  0  0
  153.6702  138.2545  156.5881 H   0  0  0  0  0  0  0  0  0  0  0  0
  153.2014  137.2490  155.3185 H   0  0  0  0  0  0  0  0  0  0  0  0
  149.5400  139.2560  153.3119 H   0  0  0  0  0  0  0  0  0  0  0  0
  148.1687  138.8170  153.8651 H   0  0  0  0  0  0  0  0  0  0  0  0
  146.4754  138.6179  153.4876 H   0  0  0  0  0  0  0  0  0  0  0  0
  148.0187  137.8418  151.9002 H   0  0  0  0  0  0  0  0  0  0  0  0
  144.7843  140.2245  154.1723 H   0  0  0  0  0  0  0  0  0  0  0  0
  147.8248  143.1585  156.0694 H   0  0  0  0  0  0  0  0  0  0  0  0
  1  2  1  0  0  0  0
  1 22  1  0  0  0  0
  1 23  1  0  0  0  0
  2 17  2  0  0  0  0
  2  3  1  0  0  0  0
  3  4  2  0  0  0  0
  4  5  1  0  0  0  0
  4 24  1  0  0  0  0
  5  6  1  0  0  0  0
  5 15  1  0  0  0  0
  6 18  1  0  0  0  0
  6 13  1  0  0  0  0
  6  7  1  0  0  0  0
  7  8  1  0  0  0  0
  8 19  1  0  0  0  0
  8  9  1  0  0  0  0
  8 11  1  0  0  0  0
  9 10  1  0  0  0  0
  9 25  1  0  0  0  0
  9 26  1  0  0  0  0
 10 27  1  0  0  0  0
 11 20  1  0  0  0  0
 11 12  1  0  0  0  0
 11 13  1  0  0  0  0
 12 28  1  0  0  0  0
 13 21  1  0  0  0  0
 13 14  1  0  0  0  0
 14 29  1  0  0  0  0
 15 16  2  0  0  0  0
 15 17  1  0  0  0  0
M  END
> <s_m_source_file>
AV-unprocessed.smi

> <i_m_source_file_index>
72

> <i_lp_mmshare_version>
43012

> <i_f3d_flags>
0

> <s_epik_input>
W05IMl1jMW5bY0hdbihjKD1PKW4xKVtDQEBIXTJPW0NASF0oW0NIMl1bT0hdKVtDQEBIXShbT0hdKVtDQEhdMltPSF0=

> <s_epik_cmdline>
J2VwaWtfcHl0aG9uJywgJy1waCcsICc3LjAnLCAnLXRuJywgJzgnLCAnLW1hJywgJzIwMCcsICctbWV0YWxfYmluZGluZycsICctaW1hZScsICc8aW5maWxlLm1hZT4nLCAnLW9tYWUnLCAnPG91dGZpbGUubWFlPic=

> <r_lp_tautomer_probability>
4.77166e-05

> <r_epik_Ionization_Penalty>
1.3546

> <r_epik_Ionization_Penalty_Charging>
1.46833e-10

> <r_epik_Ionization_Penalty_Neutral>
1.3546

> <r_epik_State_Penalty>
3.51908

> <r_epik_Charging_Adjusted_Penalty>
3.51908

> <i_epik_Tot_Q>
0

> <i_epik_Tot_abs_Q>
0

> <r_epik_Metal_State_Penalty>
3.44088

> <b_epik_Metal_Only>
1

> <s_epik_Chemistry_Notes>
This compound contains an acetal/aminal-like group ( X-CH(R)-Y where X, Y are N, S, or O) that may be acid/base labile, releasing an aldehyde.

> <s_lp_Force_Field>
OPLS_2005

> <r_lp_Energy>
28.0207

> <b_lp_Chiralities_Consistent>
1

> <s_lp_Variant>
AV-unprocessed.smi:72-92

> <Gold.Version>
5.8.1

> <Gold.Id.Protein>
6NUR|6NUR_protein|mol2

> <Gold.PLP.Fitness>
38.4996

> <Gold.PLP.PLP>
-25.6373

> <Gold.PLP.part.hbond>
-5.5431

> <Gold.PLP.part.metal>
0.0000

> <Gold.PLP.part.buried>
-1.0955

> <Gold.PLP.part.nonpolar>
-20.9260

> <Gold.PLP.part.repulsive>
2.7238

> <Gold.PLP.ligand.clash>
0.0000

> <Gold.PLP.ligand.torsion>
0.8299

> <Gold.PLP.Chemscore.Hbond>
3.8160

> <Gold.PLP.Chemscore.CHOScore>
0.9913

> <Gold.PLP.Chemscore.Metal>
0.0000

> <Gold.Chemscore.Hbonds>
donor molecule, donor type, donor heavy atom, donor atom, acceptor molecule, acceptor atom, score
      L1  H    10    27       P1  7948  1.00
      L1  H    12    28       P1 10175  0.99
      L1  H    14    29       P1  8028  1.00
      P1  H  8011  8017       L1     7  0.80
      L1  C     4    24       P1  7957  1.00

> <Gold.PLP.Chemscore.Internal.Correction>
0.1001

> <Gold.Rescore>
     Score         DG    S(hbond)    S(metal)    S(lipo)     H(rot)  DE(clash)    DE(int)     intcor
      6.44      -8.92       3.28        0.00      24.50       4.06       2.21       0.27       ----

> <Gold.Chemscore.Fitness>
6.4412

> <Gold.Chemscore.DG>
-8.9175

> <Gold.Chemscore.ZeroCoef>
-5.4800

> <Gold.Chemscore.Hbond>
3.2829

> <Gold.Chemscore.Metal>
0.0000

> <Gold.Chemscore.Lipo>
24.4984

> <Gold.Chemscore.Internal_Hbond>
0.0000

> <Gold.Chemscore.DEClash>
2.2061

> <Gold.Chemscore.DEInternal>
0.2702

> <Gold.Chemscore.Rot>
4.0600

> <Gold.Chemscore.Internal.Correction>
   9.000000E+99

> <Gold.Chemscore.Hbonds>
donor molecule, donor type, donor heavy atom, donor atom, acceptor molecule, acceptor atom, score
      L1  H    10    27       P1  7948  1.00
      L1  H    12    28       P1 10175  0.92
      L1  H    14    29       P1  8028  0.26
      P1  H  8011  8017       L1     7  0.27

> <Gold.Chemscore.Hbond.Weighted>
-10.9648

> <Gold.Chemscore.Metal.Weighted>
-0.0000

> <Gold.Chemscore.Lipo.Weighted>
-2.8663

> <Gold.Chemscore.Internal_Hbond.Weighted>
0.0000

> <Gold.Chemscore.DEClash.Weighted>
2.2061

> <Gold.Chemscore.DEInternal.Weighted>
0.2702

> <Gold.Chemscore.Rot.Weighted>
10.3936

> <Gold.Chemscore.Internal.Correction.Weighted>
   9.000000E+99

> <Gold.Protein.RotatedTorsions>
[ 6907 6896 6895 6894 ] final    7.65 input  -60.11 | X-H torsion
[ 7974 7965 7964 7962 ] final -179.83 input  175.53 | X-H torsion
[ 8008 7997 7996 7995 ] final  -72.01 input   59.86 | X-H torsion
[ 10167 10162 10161 10158 ] final  103.37 input  -65.29 | X-H torsion
[ 10718 10713 10712 10709 ] final  125.92 input   66.30 | X-H torsion
[ 10763 10752 10751 10750 ] final   58.95 input  -60.55 | X-H torsion
[ 11005 11000 10999 10996 ] final  -29.99 input  -57.11 | X-H torsion

> <Gold.Protein.ActiveResidues>
 VAL166  LYS551  ARG553  GLY616  TRP617  ASP618  TYR619  PRO620  LYS621  CYS622 
 ASP623  PHE694  ASN695  SER759  ASP760  ASP761  ALA762  ILE779  LEU786  VAL792 
 PHE793  MET794  SER795  GLU796  ALA797  LYS798  CYS799  TRP800  GLU811  SER814 

> <Gold.Protein.RotatedAtoms>
  151.6933  135.0943  160.0237 H   0  0  0  0  0  0  0  0  0  0  0  0  # atno 6907 bound_to 6896
  152.3765  133.6484  159.6136 H   0  0  0  0  0  0  0  0  0  0  0  0  # atno 6908 bound_to 6896
  150.7713  133.9100  159.3408 H   0  0  0  0  0  0  0  0  0  0  0  0  # atno 6909 bound_to 6896
  144.7139  140.0659  143.6431 H   0  0  0  0  0  0  0  0  0  0  0  0  # atno 7974 bound_to 7965
  154.5132  140.0805  156.8031 H   0  0  0  0  0  0  0  0  0  0  0  0  # atno 8008 bound_to 7997
  155.3738  140.3424  155.4226 H   0  0  0  0  0  0  0  0  0  0  0  0  # atno 8009 bound_to 7997
  156.1598  140.1585  156.8619 H   0  0  0  0  0  0  0  0  0  0  0  0  # atno 8010 bound_to 7997
  139.7269  144.7045  151.0784 H   0  0  0  0  0  0  0  0  0  0  0  0  # atno 10167 bound_to 10162
  157.5463  131.1095  150.8776 H   0  0  0  0  0  0  0  0  0  0  0  0  # atno 10718 bound_to 10713
  152.9883  135.5588  154.5635 H   0  0  0  0  0  0  0  0  0  0  0  0  # atno 10763 bound_to 10752
  154.5049  135.2799  155.1392 H   0  0  0  0  0  0  0  0  0  0  0  0  # atno 10764 bound_to 10752
  154.2807  135.6345  153.5399 H   0  0  0  0  0  0  0  0  0  0  0  0  # atno 10765 bound_to 10752
  140.9344  133.7317  156.0984 H   0  0  0  0  0  0  0  0  0  0  0  0  # atno 11005 bound_to 11000
  145.9825  139.2952  143.1033 LP  0  0  0  0  0  0  0  0  0  0  0  0  # atno 17320 bound_to 7965
  145.8995  140.9252  143.0510 LP  0  0  0  0  0  0  0  0  0  0  0  0  # atno 17321 bound_to 7965
  140.7764  143.5094  150.9672 LP  0  0  0  0  0  0  0  0  0  0  0  0  # atno 17342 bound_to 10162
  139.8781  143.7106  152.3160 LP  0  0  0  0  0  0  0  0  0  0  0  0  # atno 17343 bound_to 10162
  156.9314  130.5351  149.5279 LP  0  0  0  0  0  0  0  0  0  0  0  0  # atno 17370 bound_to 10713
  156.0538  130.5603  150.9048 LP  0  0  0  0  0  0  0  0  0  0  0  0  # atno 17371 bound_to 10713
  140.7818  134.3716  157.5485 LP  0  0  0  0  0  0  0  0  0  0  0  0  # atno 17394 bound_to 11000
  139.8804  134.9087  156.2973 LP  0  0  0  0  0  0  0  0  0  0  0  0  # atno 17395 bound_to 11000

$$$$
