AV-unprocessed.smi:1505|AV-procd|sdf|6075|dock2
  -GOLD-   22720 6193D 1   1.00000     0.00000
 Structure written by MMmdl.
 44 45  0  0  0  0  0  0  0  0  1 V2000
  151.4936  141.0452  158.3158 C   0  0  0  0  0  0  0  0  0  0  0  0
  152.1453  140.0564  157.3466 C   0  0  0  0  0  0  0  0  0  0  0  0
  153.0074  139.2966  157.7885 O   0  0  0  0  0  0  0  0  0  0  0  0
  151.7613  140.0517  156.0475 N   0  0  0  0  0  0  0  0  0  0  0  0
  152.2484  139.1219  155.0217 C   0  0  0  0  0  0  0  0  0  0  0  0
  151.1203  138.1363  154.6731 C   0  0  0  0  0  0  0  0  0  0  0  0
  149.8393  138.8810  154.2221 C   0  0  0  0  0  0  0  0  0  0  0  0
  148.7242  137.9480  154.0964 N   0  0  0  0  0  0  0  0  0  0  0  0
  147.4930  138.2800  153.6856 C   0  0  0  0  0  0  0  0  0  0  0  0
  147.1319  139.4349  153.4564 O   0  0  0  0  0  0  0  0  0  0  0  0
  146.7246  137.1979  153.4915 N   0  0  0  0  0  0  0  0  0  0  0  0
  145.4192  137.2026  152.8336 C   0  0  0  0  0  0  0  0  0  0  0  0
  145.5313  136.8929  151.3262 C   0  0  0  0  0  0  0  0  0  0  0  0
  145.3699  135.4275  151.0132 C   0  0  0  0  0  0  0  0  0  0  0  0
  146.2612  134.3638  151.3351 C   0  0  0  0  0  0  0  0  0  0  0  0
  145.8559  133.1933  150.8713 N   0  0  0  0  0  0  0  0  0  0  0  0
  144.6931  133.4661  150.2451 N   0  0  0  0  0  0  0  0  0  0  0  0
  143.9664  132.3969  149.5956 C   0  0  0  0  0  0  0  0  0  0  0  0
  144.3691  134.8035  150.3230 C   0  0  0  0  0  0  0  0  0  0  0  0
  149.4640  140.0062  155.2107 C   0  0  0  0  0  0  0  0  0  0  0  0
  150.6765  140.8975  155.5364 C   0  0  0  0  0  0  0  0  0  0  0  0
  151.6430  142.0721  157.9806 H   0  0  0  0  0  0  0  0  0  0  0  0
  151.9317  140.9536  159.3102 H   0  0  0  0  0  0  0  0  0  0  0  0
  150.4243  140.8518  158.4038 H   0  0  0  0  0  0  0  0  0  0  0  0
  152.5355  139.6864  154.1333 H   0  0  0  0  0  0  0  0  0  0  0  0
  153.1420  138.5737  155.3163 H   0  0  0  0  0  0  0  0  0  0  0  0
  151.4582  137.4529  153.8929 H   0  0  0  0  0  0  0  0  0  0  0  0
  150.9027  137.5192  155.5464 H   0  0  0  0  0  0  0  0  0  0  0  0
  150.0295  139.3407  153.2503 H   0  0  0  0  0  0  0  0  0  0  0  0
  148.9263  136.9723  154.2583 H   0  0  0  0  0  0  0  0  0  0  0  0
  147.1134  136.2945  153.7190 H   0  0  0  0  0  0  0  0  0  0  0  0
  144.7845  136.4594  153.3162 H   0  0  0  0  0  0  0  0  0  0  0  0
  144.9221  138.1634  152.9781 H   0  0  0  0  0  0  0  0  0  0  0  0
  144.7779  137.4746  150.7938 H   0  0  0  0  0  0  0  0  0  0  0  0
  146.4910  137.2588  150.9602 H   0  0  0  0  0  0  0  0  0  0  0  0
  147.1964  134.4121  151.8731 H   0  0  0  0  0  0  0  0  0  0  0  0
  143.0510  132.7847  149.1480 H   0  0  0  0  0  0  0  0  0  0  0  0
  143.7071  131.6295  150.3254 H   0  0  0  0  0  0  0  0  0  0  0  0
  144.5838  131.9552  148.8127 H   0  0  0  0  0  0  0  0  0  0  0  0
  143.4745  135.2014  149.8669 H   0  0  0  0  0  0  0  0  0  0  0  0
  148.6561  140.6123  154.7992 H   0  0  0  0  0  0  0  0  0  0  0  0
  149.0838  139.5729  156.1374 H   0  0  0  0  0  0  0  0  0  0  0  0
  150.3843  141.6798  156.2382 H   0  0  0  0  0  0  0  0  0  0  0  0
  151.0134  141.4165  154.6380 H   0  0  0  0  0  0  0  0  0  0  0  0
  1  2  1  0  0  0  0
  1 22  1  0  0  0  0
  1 23  1  0  0  0  0
  1 24  1  0  0  0  0
  2  3  2  0  0  0  0
  2  4  1  0  0  0  0
  4 21  1  0  0  0  0
  4  5  1  0  0  0  0
  5  6  1  0  0  0  0
  5 25  1  0  0  0  0
  5 26  1  0  0  0  0
  6  7  1  0  0  0  0
  6 27  1  0  0  0  0
  6 28  1  0  0  0  0
  7  8  1  0  0  0  0
  7 20  1  0  0  0  0
  7 29  1  0  0  0  0
  8  9  1  0  0  0  0
  8 30  1  0  0  0  0
  9 10  2  0  0  0  0
  9 11  1  0  0  0  0
 11 12  1  0  0  0  0
 11 31  1  0  0  0  0
 12 13  1  0  0  0  0
 12 32  1  0  0  0  0
 12 33  1  0  0  0  0
 13 14  1  0  0  0  0
 13 34  1  0  0  0  0
 13 35  1  0  0  0  0
 14 19  2  0  0  0  0
 14 15  1  0  0  0  0
 15 16  2  0  0  0  0
 15 36  1  0  0  0  0
 16 17  1  0  0  0  0
 17 18  1  0  0  0  0
 17 19  1  0  0  0  0
 18 37  1  0  0  0  0
 18 38  1  0  0  0  0
 18 39  1  0  0  0  0
 19 40  1  0  0  0  0
 20 21  1  0  0  0  0
 20 41  1  0  0  0  0
 20 42  1  0  0  0  0
 21 43  1  0  0  0  0
 21 44  1  0  0  0  0
M  END
> <s_m_source_file>
AV-unprocessed.smi

> <i_m_source_file_index>
1505

> <i_lp_mmshare_version>
43012

> <i_f3d_flags>
0

> <s_epik_input>
W0NIM11DKD1PKU4xW0NIMl1bQ0gyXVtDSF0oW0NIMl1bQ0gyXTEpW05IXUMoPU8pW05IXVtDSDJdW0NIMl1jMltjSF1ubihbQ0gzXSlbY0hdMg==

> <s_epik_cmdline>
J2VwaWtfcHl0aG9uJywgJy1waCcsICc3LjAnLCAnLXRuJywgJzgnLCAnLW1hJywgJzIwMCcsICctbWV0YWxfYmluZGluZycsICctaW1hZScsICc8aW5maWxlLm1hZT4nLCAnLW9tYWUnLCAnPG91dGZpbGUubWFlPic=

> <r_lp_tautomer_probability>
1

> <r_epik_Ionization_Penalty>
0.000559595

> <r_epik_Ionization_Penalty_Charging>
0

> <r_epik_Ionization_Penalty_Neutral>
0.000559595

> <r_epik_State_Penalty>
-0

> <r_epik_Charging_Adjusted_Penalty>
0

> <i_epik_Tot_Q>
0

> <i_epik_Tot_abs_Q>
0

> <r_epik_Metal_State_Penalty>
-0

> <b_epik_Metal_Only>
0

> <s_lp_Force_Field>
OPLS_2005

> <r_lp_Energy>
17.177

> <b_lp_Chiralities_Consistent>
1

> <s_lp_Variant>
AV-unprocessed.smi:1505-1

> <Gold.Version>
5.8.1

> <Gold.Id.Protein>
6NUR|6NUR_protein|mol2

> <Gold.PLP.Fitness>
46.6589

> <Gold.PLP.PLP>
-38.5332

> <Gold.PLP.part.hbond>
-3.0000

> <Gold.PLP.part.metal>
0.0000

> <Gold.PLP.part.buried>
-1.1197

> <Gold.PLP.part.nonpolar>
-35.1755

> <Gold.PLP.part.repulsive>
0.3486

> <Gold.PLP.ligand.clash>
0.0000

> <Gold.PLP.ligand.torsion>
0.4607

> <Gold.PLP.Chemscore.Hbond>
1.0000

> <Gold.PLP.Chemscore.CHOScore>
2.0000

> <Gold.PLP.Chemscore.Metal>
0.0000

> <Gold.Chemscore.Hbonds>
donor molecule, donor type, donor heavy atom, donor atom, acceptor molecule, acceptor atom, score
      P1  H  7997  8010       L1     3  1.00
      L1  C    15    36       P1  7948  0.98
      L1  C    19    40       P1 10186  0.85

> <Gold.PLP.Chemscore.Internal.Correction>
0.0472

> <Gold.Rescore>
     Score         DG    S(hbond)    S(metal)    S(lipo)     H(rot)  DE(clash)    DE(int)     intcor
     11.72     -13.49       0.89        0.00      79.98       1.69       0.11       1.66       ----

> <Gold.Chemscore.Fitness>
11.7162

> <Gold.Chemscore.DG>
-13.4887

> <Gold.Chemscore.ZeroCoef>
-5.4800

> <Gold.Chemscore.Hbond>
0.8911

> <Gold.Chemscore.Metal>
0.0000

> <Gold.Chemscore.Lipo>
79.9819

> <Gold.Chemscore.Internal_Hbond>
0.0000

> <Gold.Chemscore.DEClash>
0.1116

> <Gold.Chemscore.DEInternal>
1.6610

> <Gold.Chemscore.Rot>
1.6896

> <Gold.Chemscore.Internal.Correction>
   9.000000E+99

> <Gold.Chemscore.Hbonds>
donor molecule, donor type, donor heavy atom, donor atom, acceptor molecule, acceptor atom, score
      P1  H  7997  8010       L1     3  0.30

> <Gold.Chemscore.Hbond.Weighted>
-2.9763

> <Gold.Chemscore.Metal.Weighted>
-0.0000

> <Gold.Chemscore.Lipo.Weighted>
-9.3579

> <Gold.Chemscore.Internal_Hbond.Weighted>
0.0000

> <Gold.Chemscore.DEClash.Weighted>
0.1116

> <Gold.Chemscore.DEInternal.Weighted>
1.6610

> <Gold.Chemscore.Rot.Weighted>
4.3255

> <Gold.Chemscore.Internal.Correction.Weighted>
   9.000000E+99

> <Gold.Protein.RotatedTorsions>
[ 6907 6896 6895 6894 ] final  176.19 input  -60.11 | X-H torsion
[ 7974 7965 7964 7962 ] final -158.40 input  175.53 | X-H torsion
[ 8008 7997 7996 7995 ] final   34.73 input   59.86 | X-H torsion
[ 10167 10162 10161 10158 ] final   99.34 input  -65.29 | X-H torsion
[ 10718 10713 10712 10709 ] final  144.69 input   66.30 | X-H torsion
[ 10763 10752 10751 10750 ] final   79.91 input  -60.55 | X-H torsion
[ 11005 11000 10999 10996 ] final  147.02 input  -57.11 | X-H torsion

> <Gold.Protein.ActiveResidues>
 VAL166  LYS551  ARG553  GLY616  TRP617  ASP618  TYR619  PRO620  LYS621  CYS622 
 ASP623  PHE694  ASN695  SER759  ASP760  ASP761  ALA762  ILE779  LEU786  VAL792 
 PHE793  MET794  SER795  GLU796  ALA797  LYS798  CYS799  TRP800  GLU811  SER814 

> <Gold.Protein.RotatedAtoms>
  151.7240  133.3315  159.3322 H   0  0  0  0  0  0  0  0  0  0  0  0  # atno 6907 bound_to 6896
  150.7640  134.6422  159.6252 H   0  0  0  0  0  0  0  0  0  0  0  0  # atno 6908 bound_to 6896
  152.3634  134.6842  160.0251 H   0  0  0  0  0  0  0  0  0  0  0  0  # atno 6909 bound_to 6896
  144.7507  140.3833  143.6050 H   0  0  0  0  0  0  0  0  0  0  0  0  # atno 7974 bound_to 7965
  155.1595  140.3282  155.4414 H   0  0  0  0  0  0  0  0  0  0  0  0  # atno 8008 bound_to 7997
  156.2547  140.1962  156.6654 H   0  0  0  0  0  0  0  0  0  0  0  0  # atno 8009 bound_to 7997
  154.6415  140.0569  156.9837 H   0  0  0  0  0  0  0  0  0  0  0  0  # atno 8010 bound_to 7997
  139.7626  144.6949  151.0270 H   0  0  0  0  0  0  0  0  0  0  0  0  # atno 10167 bound_to 10162
  157.3542  131.0955  151.0973 H   0  0  0  0  0  0  0  0  0  0  0  0  # atno 10718 bound_to 10713
  153.0990  135.4822  154.8832 H   0  0  0  0  0  0  0  0  0  0  0  0  # atno 10763 bound_to 10752
  154.7358  135.3070  154.8817 H   0  0  0  0  0  0  0  0  0  0  0  0  # atno 10764 bound_to 10752
  153.9439  135.6831  153.4797 H   0  0  0  0  0  0  0  0  0  0  0  0  # atno 10765 bound_to 10752
  140.0842  134.9079  157.1548 H   0  0  0  0  0  0  0  0  0  0  0  0  # atno 11005 bound_to 11000
  145.6954  139.1649  143.2623 LP  0  0  0  0  0  0  0  0  0  0  0  0  # atno 17320 bound_to 7965
  146.1453  140.7001  142.9347 LP  0  0  0  0  0  0  0  0  0  0  0  0  # atno 17321 bound_to 7965
  140.7808  143.4679  151.0187 LP  0  0  0  0  0  0  0  0  0  0  0  0  # atno 17342 bound_to 10162
  139.8365  143.7621  152.3180 LP  0  0  0  0  0  0  0  0  0  0  0  0  # atno 17343 bound_to 10162
  157.2137  130.6449  149.5784 LP  0  0  0  0  0  0  0  0  0  0  0  0  # atno 17370 bound_to 10713
  155.9726  130.4651  150.6243 LP  0  0  0  0  0  0  0  0  0  0  0  0  # atno 17371 bound_to 10713
  140.3445  134.2667  155.7207 LP  0  0  0  0  0  0  0  0  0  0  0  0  # atno 17394 bound_to 11000
  141.2057  133.7854  157.0219 LP  0  0  0  0  0  0  0  0  0  0  0  0  # atno 17395 bound_to 11000

$$$$
