AV-unprocessed.smi:3162|AV-procd|sdf|12064|dock4
  -GOLD-   2272017493D 1   1.00000     0.00000
 Structure written by MMmdl.
 37 37  0  0  0  0  0  0  0  0  2 V2000
  147.5876  139.3615  153.8031 C   0  0  0  0  0  0  0  0  0  0  0  0
  148.7636  140.3140  154.0708 C   0  0  0  0  0  0  0  0  0  0  0  0
  148.5236  141.3282  155.2105 C   0  0  1  0  0  0  0  0  0  0  0  0
  149.6829  142.2493  155.2929 N   0  3  0  0  0  0  0  0  0  0  0  0
  150.7461  141.8823  156.2582 C   0  0  2  0  0  0  0  0  0  0  0  0
  151.0656  140.3852  156.1139 C   0  0  0  0  0  0  0  0  0  0  0  0
  150.3341  142.2587  157.7001 C   0  0  0  0  0  0  0  0  0  0  0  0
  151.4604  142.3073  158.6143 N   0  0  0  0  0  0  0  0  0  0  0  0
  152.1692  141.2595  159.1629 C   0  0  0  0  0  0  0  0  0  0  0  0
  153.1344  141.7942  159.9684 C   0  0  0  0  0  0  0  0  0  0  0  0
  154.1720  141.0840  160.7889 C   0  0  0  0  0  0  0  0  0  0  0  0
  152.9259  143.1976  159.8481 C   0  0  0  0  0  0  0  0  0  0  0  0
  151.9224  143.5012  159.0411 N   0  0  0  0  0  0  0  0  0  0  0  0
  147.2191  142.1131  154.9953 C   0  0  0  0  0  0  0  0  0  0  0  0
  147.1773  142.9616  153.9647 N   0  0  0  0  0  0  0  0  0  0  0  0
  146.2640  141.9586  155.7544 O   0  0  0  0  0  0  0  0  0  0  0  0
  147.8532  138.6269  153.0424 H   0  0  0  0  0  0  0  0  0  0  0  0
  146.7071  139.8955  153.4451 H   0  0  0  0  0  0  0  0  0  0  0  0
  147.3081  138.8168  154.7055 H   0  0  0  0  0  0  0  0  0  0  0  0
  149.6356  139.7069  154.3176 H   0  0  0  0  0  0  0  0  0  0  0  0
  149.0187  140.8396  153.1490 H   0  0  0  0  0  0  0  0  0  0  0  0
  148.4532  140.7709  156.1453 H   0  0  0  0  0  0  0  0  0  0  0  0
  150.1059  142.3239  154.3791 H   0  0  0  0  0  0  0  0  0  0  0  0
  151.6536  142.4282  155.9967 H   0  0  0  0  0  0  0  0  0  0  0  0
  151.9072  140.0920  156.7419 H   0  0  0  0  0  0  0  0  0  0  0  0
  151.3324  140.1400  155.0855 H   0  0  0  0  0  0  0  0  0  0  0  0
  150.2111  139.7675  156.3924 H   0  0  0  0  0  0  0  0  0  0  0  0
  149.8432  143.2315  157.7285 H   0  0  0  0  0  0  0  0  0  0  0  0
  149.6115  141.5373  158.0843 H   0  0  0  0  0  0  0  0  0  0  0  0
  151.9331  140.2301  158.9358 H   0  0  0  0  0  0  0  0  0  0  0  0
  154.4931  141.6827  161.6414 H   0  0  0  0  0  0  0  0  0  0  0  0
  155.0619  140.8578  160.2013 H   0  0  0  0  0  0  0  0  0  0  0  0
  153.7980  140.1392  161.1840 H   0  0  0  0  0  0  0  0  0  0  0  0
  153.4711  144.0004  160.3226 H   0  0  0  0  0  0  0  0  0  0  0  0
  146.3413  143.4975  153.7799 H   0  0  0  0  0  0  0  0  0  0  0  0
  147.9857  143.0630  153.3673 H   0  0  0  0  0  0  0  0  0  0  0  0
  149.3195  143.1560  155.5510 H   0  0  0  0  0  0  0  0  0  0  0  0
  1  2  1  0  0  0  0
  1 17  1  0  0  0  0
  1 18  1  0  0  0  0
  1 19  1  0  0  0  0
  2  3  1  0  0  0  0
  2 20  1  0  0  0  0
  2 21  1  0  0  0  0
  3  4  1  0  0  0  0
  3 14  1  0  0  0  0
  3 22  1  0  0  0  0
  4  5  1  0  0  0  0
  4 23  1  0  0  0  0
  4 37  1  0  0  0  0
  5  6  1  0  0  0  0
  5  7  1  0  0  0  0
  5 24  1  0  0  0  0
  6 25  1  0  0  0  0
  6 26  1  0  0  0  0
  6 27  1  0  0  0  0
  7  8  1  0  0  0  0
  7 28  1  0  0  0  0
  7 29  1  0  0  0  0
  8 13  1  0  0  0  0
  8  9  1  0  0  0  0
  9 10  2  0  0  0  0
  9 30  1  0  0  0  0
 10 11  1  0  0  0  0
 10 12  1  0  0  0  0
 11 31  1  0  0  0  0
 11 32  1  0  0  0  0
 11 33  1  0  0  0  0
 12 13  2  0  0  0  0
 12 34  1  0  0  0  0
 14 15  1  0  0  0  0
 14 16  2  0  0  0  0
 15 35  1  0  0  0  0
 15 36  1  0  0  0  0
M  CHG  1   4   1
M  END
> <s_m_source_file>
AV-unprocessed.smi

> <i_m_source_file_index>
3162

> <i_lp_mmshare_version>
43012

> <i_f3d_flags>
0

> <s_epik_input>
W0NIM11bQ0gyXVtDQEBIXShDKD1PKVtOSDJdKVtOSF1bQ0BIXShbQ0gzXSlbQ0gyXW4xW2NIXWMoW0NIM10pW2NIXW4x

> <s_epik_cmdline>
J2VwaWtfcHl0aG9uJywgJy1waCcsICc3LjAnLCAnLXRuJywgJzgnLCAnLW1hJywgJzIwMCcsICctbWV0YWxfYmluZGluZycsICctaW1hZScsICc8aW5maWxlLm1hZT4nLCAnLW9tYWUnLCAnPG91dGZpbGUubWFlPic=

> <r_lp_tautomer_probability>
1

> <r_epik_Ionization_Penalty>
0.112112

> <r_epik_Ionization_Penalty_Charging>
0.112102

> <r_epik_Ionization_Penalty_Neutral>
9.73799e-06

> <r_epik_State_Penalty>
0.101811

> <r_epik_Charging_Adjusted_Penalty>
0.213914

> <i_epik_Tot_Q>
1

> <i_epik_Tot_abs_Q>
1

> <r_epik_Metal_State_Penalty>
0.101821

> <b_epik_Metal_Only>
0

> <s_lp_Force_Field>
OPLS_2005

> <r_lp_Energy>
4.43066

> <b_lp_Chiralities_Consistent>
1

> <s_lp_Variant>
AV-unprocessed.smi:3162-2

> <Gold.Version>
5.8.1

> <Gold.Id.Protein>
6NUR|6NUR_protein|mol2

> <Gold.PLP.Fitness>
37.9511

> <Gold.PLP.PLP>
-33.7756

> <Gold.PLP.part.hbond>
-1.9899

> <Gold.PLP.part.metal>
0.0000

> <Gold.PLP.part.buried>
-3.5457

> <Gold.PLP.part.nonpolar>
-28.6866

> <Gold.PLP.part.repulsive>
0.4860

> <Gold.PLP.ligand.clash>
0.0000

> <Gold.PLP.ligand.torsion>
1.0257

> <Gold.PLP.Chemscore.Hbond>
2.0000

> <Gold.PLP.Chemscore.CHOScore>
0.0000

> <Gold.PLP.Chemscore.Metal>
0.0000

> <Gold.Chemscore.Hbonds>
donor molecule, donor type, donor heavy atom, donor atom, acceptor molecule, acceptor atom, score
      L1  H     4    37       P1  8028  2.00

> <Gold.PLP.Chemscore.Internal.Correction>
0.2269

> <Gold.Rescore>
     Score         DG    S(hbond)    S(metal)    S(lipo)     H(rot)  DE(clash)    DE(int)     intcor
     10.99     -11.95       1.00        0.00      81.63       2.51       0.06       0.90       ----

> <Gold.Chemscore.Fitness>
10.9926

> <Gold.Chemscore.DG>
-11.9515

> <Gold.Chemscore.ZeroCoef>
-5.4800

> <Gold.Chemscore.Hbond>
0.9989

> <Gold.Chemscore.Metal>
0.0000

> <Gold.Chemscore.Lipo>
81.6323

> <Gold.Chemscore.Internal_Hbond>
0.0000

> <Gold.Chemscore.DEClash>
0.0558

> <Gold.Chemscore.DEInternal>
0.9032

> <Gold.Chemscore.Rot>
2.5062

> <Gold.Chemscore.Internal.Correction>
   9.000000E+99

> <Gold.Chemscore.Hbonds>
donor molecule, donor type, donor heavy atom, donor atom, acceptor molecule, acceptor atom, score
      L1  H     4    37       P1  8028  0.99

> <Gold.Chemscore.Hbond.Weighted>
-3.3365

> <Gold.Chemscore.Metal.Weighted>
-0.0000

> <Gold.Chemscore.Lipo.Weighted>
-9.5510

> <Gold.Chemscore.Internal_Hbond.Weighted>
0.0000

> <Gold.Chemscore.DEClash.Weighted>
0.0558

> <Gold.Chemscore.DEInternal.Weighted>
0.9032

> <Gold.Chemscore.Rot.Weighted>
6.4159

> <Gold.Chemscore.Internal.Correction.Weighted>
   9.000000E+99

> <Gold.Protein.RotatedTorsions>
[ 6907 6896 6895 6894 ] final   80.97 input  -60.11 | X-H torsion
[ 7974 7965 7964 7962 ] final  139.63 input  175.53 | X-H torsion
[ 8008 7997 7996 7995 ] final  -34.22 input   59.86 | X-H torsion
[ 10167 10162 10161 10158 ] final -130.58 input  -65.29 | X-H torsion
[ 10718 10713 10712 10709 ] final  -67.83 input   66.30 | X-H torsion
[ 10763 10752 10751 10750 ] final    1.43 input  -60.55 | X-H torsion
[ 11005 11000 10999 10996 ] final  -69.30 input  -57.11 | X-H torsion

> <Gold.Protein.ActiveResidues>
 VAL166  LYS551  ARG553  GLY616  TRP617  ASP618  TYR619  PRO620  LYS621  CYS622 
 ASP623  PHE694  ASN695  SER759  ASP760  ASP761  ALA762  ILE779  LEU786  VAL792 
 PHE793  MET794  SER795  GLU796  ALA797  LYS798  CYS799  TRP800  GLU811  SER814 

> <Gold.Protein.RotatedAtoms>
  152.5253  134.3276  159.9170 H   0  0  0  0  0  0  0  0  0  0  0  0  # atno 6907 bound_to 6896
  151.3225  133.4028  159.2663 H   0  0  0  0  0  0  0  0  0  0  0  0  # atno 6908 bound_to 6896
  150.9947  134.9291  159.7977 H   0  0  0  0  0  0  0  0  0  0  0  0  # atno 6909 bound_to 6896
  144.9261  139.5106  143.5640 H   0  0  0  0  0  0  0  0  0  0  0  0  # atno 7974 bound_to 7965
  154.4127  140.1690  156.2014 H   0  0  0  0  0  0  0  0  0  0  0  0  # atno 8008 bound_to 7997
  155.9520  140.3400  155.6393 H   0  0  0  0  0  0  0  0  0  0  0  0  # atno 8009 bound_to 7997
  155.6857  140.0728  157.2458 H   0  0  0  0  0  0  0  0  0  0  0  0  # atno 8010 bound_to 7997
  139.9279  143.6306  152.2537 H   0  0  0  0  0  0  0  0  0  0  0  0  # atno 10167 bound_to 10162
  156.0537  130.4284  150.1911 H   0  0  0  0  0  0  0  0  0  0  0  0  # atno 10718 bound_to 10713
  153.3081  135.6961  153.7141 H   0  0  0  0  0  0  0  0  0  0  0  0  # atno 10763 bound_to 10752
  153.6029  135.3459  155.2952 H   0  0  0  0  0  0  0  0  0  0  0  0  # atno 10764 bound_to 10752
  154.8568  135.4345  154.2211 H   0  0  0  0  0  0  0  0  0  0  0  0  # atno 10765 bound_to 10752
  141.1551  133.6761  156.6578 H   0  0  0  0  0  0  0  0  0  0  0  0  # atno 11005 bound_to 11000
  146.3227  139.8177  142.8933 LP  0  0  0  0  0  0  0  0  0  0  0  0  # atno 17320 bound_to 7965
  145.3217  141.0245  143.3497 LP  0  0  0  0  0  0  0  0  0  0  0  0  # atno 17321 bound_to 7965
  139.6807  144.7655  151.1614 LP  0  0  0  0  0  0  0  0  0  0  0  0  # atno 17342 bound_to 10162
  140.7645  143.5729  150.8976 LP  0  0  0  0  0  0  0  0  0  0  0  0  # atno 17343 bound_to 10162
  156.9990  130.9916  151.3395 LP  0  0  0  0  0  0  0  0  0  0  0  0  # atno 17370 bound_to 10713
  157.5487  130.8168  149.8118 LP  0  0  0  0  0  0  0  0  0  0  0  0  # atno 17371 bound_to 10713
  140.3271  134.7960  157.4297 LP  0  0  0  0  0  0  0  0  0  0  0  0  # atno 17394 bound_to 11000
  140.1048  134.5424  155.8319 LP  0  0  0  0  0  0  0  0  0  0  0  0  # atno 17395 bound_to 11000

$$$$
