AV-unprocessed.smi:21|AV-procd|sdf|153|dock4
  -GOLD-   2262015373D 1   1.00000     0.00000
 Structure written by MMmdl.
 61 64  0  0  0  0  0  0  0  0  1 V2000
  151.7607  144.6605  159.3242 C   0  0  0  0  0  0  0  0  0  0  0  0
  152.7501  143.8322  159.9141 O   0  0  0  0  0  0  0  0  0  0  0  0
  152.2547  142.5645  160.3230 C   0  0  1  0  0  0  0  0  0  0  0  0
  151.5009  141.8485  159.1890 C   0  0  0  0  0  0  0  0  0  0  0  0
  152.1170  140.4456  159.1593 C   0  0  1  0  0  0  0  0  0  0  0  0
  151.9313  139.7261  157.8062 C   0  0  0  0  0  0  0  0  0  0  0  0
  151.3267  138.4008  157.9430 N   0  0  0  0  0  0  0  0  0  0  0  0
  151.9458  137.4674  158.8815 C   0  0  0  0  0  0  0  0  0  0  0  0
  150.7848  137.8778  156.8112 C   0  0  0  0  0  0  0  0  0  0  0  0
  150.3111  138.7114  155.8459 N   0  0  0  0  0  0  0  0  0  0  0  0
  149.7688  138.2172  154.7297 C   0  0  0  0  0  0  0  0  0  0  0  0
  149.6082  136.9417  154.3753 N   0  0  0  0  0  0  0  0  0  0  0  0
  150.0913  136.0966  155.3294 C   0  0  0  0  0  0  0  0  0  0  0  0
  150.6841  136.4774  156.5678 C   0  0  0  0  0  0  0  0  0  0  0  0
  151.0534  135.3426  157.2786 N   0  0  0  0  0  0  0  0  0  0  0  0
  150.6902  134.3511  156.5136 C   0  0  0  0  0  0  0  0  0  0  0  0
  150.1216  134.7118  155.3128 N   0  0  0  0  0  0  0  0  0  0  0  0
  149.6402  133.8070  154.2775 C   0  0  0  0  0  0  0  0  0  0  0  0
  148.1885  134.0892  153.7990 C   0  0  2  0  0  0  0  0  0  0  0  0
  147.1403  133.8407  154.9100 C   0  0  0  0  0  0  0  0  0  0  0  0
  147.4221  134.6167  156.0563 O   0  0  0  0  0  0  0  0  0  0  0  0
  147.8337  133.3092  152.5061 C   0  0  2  0  0  0  0  0  0  0  0  0
  146.4662  133.6329  151.9259 C   0  0  0  0  0  0  0  0  0  0  0  0
  146.2219  132.4504  150.9958 C   0  0  0  0  0  0  0  0  0  0  0  0
  146.8661  131.3413  151.6114 O   0  0  0  0  0  0  0  0  0  0  0  0
  147.6906  131.7927  152.6811 C   0  0  0  0  0  0  0  0  0  0  0  0
  153.5015  140.6643  159.5435 N   0  0  0  0  0  0  0  0  0  0  0  0
  154.2088  139.4492  159.9256 C   0  0  0  0  0  0  0  0  0  0  0  0
  153.4247  141.6208  160.6344 C   0  0  0  0  0  0  0  0  0  0  0  0
  151.6315  142.6665  161.2133 H   0  0  0  0  0  0  0  0  0  0  0  0
  151.6392  139.8572  159.9439 H   0  0  0  0  0  0  0  0  0  0  0  0
  152.2041  145.6162  159.0448 H   0  0  0  0  0  0  0  0  0  0  0  0
  150.9474  144.8606  160.0230 H   0  0  0  0  0  0  0  0  0  0  0  0
  151.3435  144.2107  158.4227 H   0  0  0  0  0  0  0  0  0  0  0  0
  150.4222  141.8300  159.3467 H   0  0  0  0  0  0  0  0  0  0  0  0
  151.6932  142.3559  158.2440 H   0  0  0  0  0  0  0  0  0  0  0  0
  151.3585  140.3623  157.1314 H   0  0  0  0  0  0  0  0  0  0  0  0
  152.9006  139.5884  157.3271 H   0  0  0  0  0  0  0  0  0  0  0  0
  151.3314  136.5754  159.0112 H   0  0  0  0  0  0  0  0  0  0  0  0
  152.0656  137.9217  159.8643 H   0  0  0  0  0  0  0  0  0  0  0  0
  152.9306  137.1614  158.5264 H   0  0  0  0  0  0  0  0  0  0  0  0
  149.4138  138.9483  154.0186 H   0  0  0  0  0  0  0  0  0  0  0  0
  150.8387  133.3210  156.8029 H   0  0  0  0  0  0  0  0  0  0  0  0
  150.3247  133.8792  153.4316 H   0  0  0  0  0  0  0  0  0  0  0  0
  149.7392  132.7834  154.6382 H   0  0  0  0  0  0  0  0  0  0  0  0
  148.1404  135.1506  153.5507 H   0  0  0  0  0  0  0  0  0  0  0  0
  146.1429  134.1230  154.5741 H   0  0  0  0  0  0  0  0  0  0  0  0
  147.0900  132.7869  155.1837 H   0  0  0  0  0  0  0  0  0  0  0  0
  147.5944  134.0330  156.7794 H   0  0  0  0  0  0  0  0  0  0  0  0
  148.5936  133.4910  151.7449 H   0  0  0  0  0  0  0  0  0  0  0  0
  145.7120  133.6478  152.7141 H   0  0  0  0  0  0  0  0  0  0  0  0
  146.4225  134.5862  151.4012 H   0  0  0  0  0  0  0  0  0  0  0  0
  145.1612  132.2578  150.8349 H   0  0  0  0  0  0  0  0  0  0  0  0
  146.6869  132.6277  150.0250 H   0  0  0  0  0  0  0  0  0  0  0  0
  148.6513  131.2776  152.6728 H   0  0  0  0  0  0  0  0  0  0  0  0
  147.1888  131.5571  153.6208 H   0  0  0  0  0  0  0  0  0  0  0  0
  155.2224  139.6829  160.2532 H   0  0  0  0  0  0  0  0  0  0  0  0
  154.2873  138.7605  159.0847 H   0  0  0  0  0  0  0  0  0  0  0  0
  153.6999  138.9339  160.7414 H   0  0  0  0  0  0  0  0  0  0  0  0
  154.3691  142.1503  160.7654 H   0  0  0  0  0  0  0  0  0  0  0  0
  153.2117  141.1002  161.5695 H   0  0  0  0  0  0  0  0  0  0  0  0
  1  2  1  0  0  0  0
  1 32  1  0  0  0  0
  1 33  1  0  0  0  0
  1 34  1  0  0  0  0
  2  3  1  0  0  0  0
  3 30  1  0  0  0  0
  3 29  1  0  0  0  0
  3  4  1  0  0  0  0
  4  5  1  0  0  0  0
  4 35  1  0  0  0  0
  4 36  1  0  0  0  0
  5 31  1  0  0  0  0
  5  6  1  0  0  0  0
  5 27  1  0  0  0  0
  6  7  1  0  0  0  0
  6 37  1  0  0  0  0
  6 38  1  0  0  0  0
  7  8  1  0  0  0  0
  7  9  1  0  0  0  0
  8 39  1  0  0  0  0
  8 40  1  0  0  0  0
  8 41  1  0  0  0  0
  9 14  1  0  0  0  0
  9 10  2  0  0  0  0
 10 11  1  0  0  0  0
 11 12  2  0  0  0  0
 11 42  1  0  0  0  0
 12 13  1  0  0  0  0
 13 17  1  0  0  0  0
 13 14  2  0  0  0  0
 14 15  1  0  0  0  0
 15 16  2  0  0  0  0
 16 17  1  0  0  0  0
 16 43  1  0  0  0  0
 17 18  1  0  0  0  0
 18 19  1  0  0  0  0
 18 44  1  0  0  0  0
 18 45  1  0  0  0  0
 19 20  1  0  0  0  0
 19 22  1  0  0  0  0
 19 46  1  0  0  0  0
 20 21  1  0  0  0  0
 20 47  1  0  0  0  0
 20 48  1  0  0  0  0
 21 49  1  0  0  0  0
 22 26  1  0  0  0  0
 22 23  1  0  0  0  0
 22 50  1  0  0  0  0
 23 24  1  0  0  0  0
 23 51  1  0  0  0  0
 23 52  1  0  0  0  0
 24 25  1  0  0  0  0
 24 53  1  0  0  0  0
 24 54  1  0  0  0  0
 25 26  1  0  0  0  0
 26 55  1  0  0  0  0
 26 56  1  0  0  0  0
 27 28  1  0  0  0  0
 27 29  1  0  0  0  0
 28 57  1  0  0  0  0
 28 58  1  0  0  0  0
 28 59  1  0  0  0  0
 29 60  1  0  0  0  0
 29 61  1  0  0  0  0
M  END
> <s_m_source_file>
AV-unprocessed.smi

> <i_m_source_file_index>
21

> <i_lp_mmshare_version>
43012

> <i_f3d_flags>
0

> <s_epik_input>
W0NIM11PW0NASF0xW0NIMl1bQ0BIXShOKFtDSDNdKVtDSDJdMSlbQ0gyXU4oW0NIM10pYyhuW2NIXW4yKWMoYzIzKW5bY0hdbjNbQ0gyXVtDQEhdKFtDSDJdW09IXSlbQ0BASF00W0NIMl1bQ0gyXU9bQ0gyXTQ=

> <s_epik_cmdline>
J2VwaWtfcHl0aG9uJywgJy1waCcsICc3LjAnLCAnLXRuJywgJzgnLCAnLW1hJywgJzIwMCcsICctbWV0YWxfYmluZGluZycsICctaW1hZScsICc8aW5maWxlLm1hZT4nLCAnLW9tYWUnLCAnPG91dGZpbGUubWFlPic=

> <r_lp_tautomer_probability>
1

> <r_epik_Ionization_Penalty>
2.17574

> <r_epik_Ionization_Penalty_Charging>
0

> <r_epik_Ionization_Penalty_Neutral>
2.17574

> <r_epik_State_Penalty>
2.31336

> <r_epik_Charging_Adjusted_Penalty>
2.31336

> <i_epik_Tot_Q>
0

> <i_epik_Tot_abs_Q>
0

> <r_epik_Metal_State_Penalty>
2.31025

> <b_epik_Metal_Only>
0

> <s_lp_Force_Field>
OPLS_2005

> <r_lp_Energy>
70.2261

> <b_lp_Chiralities_Consistent>
1

> <s_lp_Variant>
AV-unprocessed.smi:21-33

> <Gold.Version>
5.8.1

> <Gold.Id.Protein>
6NUR|6NUR_protein|mol2

> <Gold.PLP.Fitness>
40.5070

> <Gold.PLP.PLP>
-40.3446

> <Gold.PLP.part.hbond>
-1.0000

> <Gold.PLP.part.metal>
0.0000

> <Gold.PLP.part.buried>
-5.9520

> <Gold.PLP.part.nonpolar>
-37.1658

> <Gold.PLP.part.repulsive>
3.4534

> <Gold.PLP.ligand.clash>
0.0000

> <Gold.PLP.ligand.torsion>
1.2805

> <Gold.PLP.Chemscore.Hbond>
0.6400

> <Gold.PLP.Chemscore.CHOScore>
0.0000

> <Gold.PLP.Chemscore.Metal>
0.0000

> <Gold.Chemscore.Hbonds>
donor molecule, donor type, donor heavy atom, donor atom, acceptor molecule, acceptor atom, score
      P1  H  6896  6909       L1    15  0.03

> <Gold.PLP.Chemscore.Internal.Correction>
0.8034

> <Gold.Rescore>
     Score         DG    S(hbond)    S(metal)    S(lipo)     H(rot)  DE(clash)    DE(int)     intcor
      6.10     -11.28       0.47        0.00     101.81       3.00       1.31       3.87       ----

> <Gold.Chemscore.Fitness>
6.0959

> <Gold.Chemscore.DG>
-11.2761

> <Gold.Chemscore.ZeroCoef>
-5.4800

> <Gold.Chemscore.Hbond>
0.4707

> <Gold.Chemscore.Metal>
0.0000

> <Gold.Chemscore.Lipo>
101.8120

> <Gold.Chemscore.Internal_Hbond>
0.0000

> <Gold.Chemscore.DEClash>
1.3146

> <Gold.Chemscore.DEInternal>
3.8655

> <Gold.Chemscore.Rot>
3.0031

> <Gold.Chemscore.Internal.Correction>
   9.000000E+99

> <Gold.Chemscore.Hbonds>
donor molecule, donor type, donor heavy atom, donor atom, acceptor molecule, acceptor atom, score
      P1  H  6896  6909       L1    15  0.02

> <Gold.Chemscore.Hbond.Weighted>
-1.5721

> <Gold.Chemscore.Metal.Weighted>
-0.0000

> <Gold.Chemscore.Lipo.Weighted>
-11.9120

> <Gold.Chemscore.Internal_Hbond.Weighted>
0.0000

> <Gold.Chemscore.DEClash.Weighted>
1.3146

> <Gold.Chemscore.DEInternal.Weighted>
3.8655

> <Gold.Chemscore.Rot.Weighted>
7.6880

> <Gold.Chemscore.Internal.Correction.Weighted>
   9.000000E+99

> <Gold.Protein.RotatedTorsions>
[ 6907 6896 6895 6894 ] final   46.73 input  -60.11 | X-H torsion
[ 7974 7965 7964 7962 ] final   41.87 input  175.53 | X-H torsion
[ 8008 7997 7996 7995 ] final   98.65 input   59.86 | X-H torsion
[ 10167 10162 10161 10158 ] final  -65.50 input  -65.29 | X-H torsion
[ 10718 10713 10712 10709 ] final  105.97 input   66.30 | X-H torsion
[ 10763 10752 10751 10750 ] final -167.70 input  -60.55 | X-H torsion
[ 11005 11000 10999 10996 ] final   -8.72 input  -57.11 | X-H torsion

> <Gold.Protein.ActiveResidues>
 VAL166  LYS551  ARG553  GLY616  TRP617  ASP618  TYR619  PRO620  LYS621  CYS622 
 ASP623  PHE694  ASN695  SER759  ASP760  ASP761  ALA762  ILE779  LEU786  VAL792 
 PHE793  MET794  SER795  GLU796  ALA797  LYS798  CYS799  TRP800  GLU811  SER814 

> <Gold.Protein.RotatedAtoms>
  152.2598  134.8046  160.0432 H   0  0  0  0  0  0  0  0  0  0  0  0  # atno 6907 bound_to 6896
  151.8696  133.3468  159.3738 H   0  0  0  0  0  0  0  0  0  0  0  0  # atno 6908 bound_to 6896
  150.7112  134.5053  159.5625 H   0  0  0  0  0  0  0  0  0  0  0  0  # atno 6909 bound_to 6896
  146.0787  139.5365  142.9551 H   0  0  0  0  0  0  0  0  0  0  0  0  # atno 7974 bound_to 7965
  156.1026  140.3240  155.7962 H   0  0  0  0  0  0  0  0  0  0  0  0  # atno 8008 bound_to 7997
  155.4811  140.0554  157.2984 H   0  0  0  0  0  0  0  0  0  0  0  0  # atno 8009 bound_to 7997
  154.4706  140.2010  156.0018 H   0  0  0  0  0  0  0  0  0  0  0  0  # atno 8010 bound_to 7997
  140.5725  143.2319  151.6510 H   0  0  0  0  0  0  0  0  0  0  0  0  # atno 10167 bound_to 10162
  157.6686  131.0840  150.5937 H   0  0  0  0  0  0  0  0  0  0  0  0  # atno 10718 bound_to 10713
  154.6705  135.2938  154.9748 H   0  0  0  0  0  0  0  0  0  0  0  0  # atno 10763 bound_to 10752
  154.0777  135.6609  153.4837 H   0  0  0  0  0  0  0  0  0  0  0  0  # atno 10764 bound_to 10752
  153.0484  135.5190  154.7698 H   0  0  0  0  0  0  0  0  0  0  0  0  # atno 10765 bound_to 10752
  140.7265  133.8785  155.8860 H   0  0  0  0  0  0  0  0  0  0  0  0  # atno 11005 bound_to 11000
  145.6257  141.0314  143.1890 LP  0  0  0  0  0  0  0  0  0  0  0  0  # atno 17320 bound_to 7965
  144.7279  139.7817  143.7358 LP  0  0  0  0  0  0  0  0  0  0  0  0  # atno 17321 bound_to 7965
  139.5125  144.3475  152.0683 LP  0  0  0  0  0  0  0  0  0  0  0  0  # atno 17342 bound_to 10162
  140.2614  144.4063  150.6184 LP  0  0  0  0  0  0  0  0  0  0  0  0  # atno 17343 bound_to 10162
  156.6237  130.4413  149.5812 LP  0  0  0  0  0  0  0  0  0  0  0  0  # atno 17370 bound_to 10713
  156.2335  130.6809  151.1487 LP  0  0  0  0  0  0  0  0  0  0  0  0  # atno 17371 bound_to 10713
  140.9958  134.1216  157.4364 LP  0  0  0  0  0  0  0  0  0  0  0  0  # atno 17394 bound_to 11000
  139.8836  135.0054  156.6311 LP  0  0  0  0  0  0  0  0  0  0  0  0  # atno 17395 bound_to 11000

$$$$
