AV-unprocessed.smi:581|AV-procd|sdf|2994|dock3
  -GOLD-   2262023503D 1   1.00000     0.00000
 Structure written by MMmdl.
 34 35  0  0  0  0  0  0  0  0  3 V2000
  153.5323  137.3635  156.9886 C   0  0  0  0  0  0  0  0  0  0  0  0
  152.7563  138.6552  156.8013 C   0  0  0  0  0  0  0  0  0  0  0  0
  152.8452  139.5806  157.8522 N   0  0  0  0  0  0  0  0  0  0  0  0
  152.2185  140.7162  157.7780 C   0  0  0  0  0  0  0  0  0  0  0  0
  152.2836  141.6669  158.8008 N   0  0  0  0  0  0  0  0  0  0  0  0
  152.6875  141.2924  160.1583 C   0  0  0  0  0  0  0  0  0  0  0  0
  153.2343  142.5030  160.9327 C   0  0  0  0  0  0  0  0  0  0  0  0
  152.2671  143.5443  160.9399 O   0  0  0  0  0  0  0  0  0  0  0  0
  151.9738  143.9851  159.6210 C   0  0  0  0  0  0  0  0  0  0  0  0
  151.3865  142.8230  158.8029 C   0  0  0  0  0  0  0  0  0  0  0  0
  151.4351  141.0624  156.6885 N   0  5  0  0  0  0  0  0  0  0  0  0
  151.3087  140.2152  155.6276 C   0  0  0  0  0  0  0  0  0  0  0  0
  150.6297  140.5029  154.6426 O   0  0  0  0  0  0  0  0  0  0  0  0
  152.0184  138.9253  155.6877 C   0  0  0  0  0  0  0  0  0  0  0  0
  151.8776  137.9507  154.5192 C   0  0  0  0  0  0  0  0  0  0  0  0
  150.4928  137.2793  154.4852 C   0  0  0  0  0  0  0  0  0  0  0  0
  150.2893  136.3987  155.7182 C   0  0  0  0  0  0  0  0  0  0  0  0
  151.1143  135.4782  155.9076 O   0  0  0  0  0  0  0  0  0  0  0  0
  149.3101  136.6599  156.4513 O   0  5  0  0  0  0  0  0  0  0  0  0
  154.1640  137.1645  156.1224 H   0  0  0  0  0  0  0  0  0  0  0  0
  152.8475  136.5256  157.1203 H   0  0  0  0  0  0  0  0  0  0  0  0
  154.1770  137.4143  157.8668 H   0  0  0  0  0  0  0  0  0  0  0  0
  151.8200  140.8822  160.6768 H   0  0  0  0  0  0  0  0  0  0  0  0
  153.4445  140.5078  160.1521 H   0  0  0  0  0  0  0  0  0  0  0  0
  153.4568  142.2198  161.9616 H   0  0  0  0  0  0  0  0  0  0  0  0
  154.1672  142.8572  160.4912 H   0  0  0  0  0  0  0  0  0  0  0  0
  151.2583  144.8057  159.6728 H   0  0  0  0  0  0  0  0  0  0  0  0
  152.8747  144.3774  159.1463 H   0  0  0  0  0  0  0  0  0  0  0  0
  151.2023  143.1651  157.7835 H   0  0  0  0  0  0  0  0  0  0  0  0
  150.4234  142.5225  159.2175 H   0  0  0  0  0  0  0  0  0  0  0  0
  152.0562  138.4720  153.5787 H   0  0  0  0  0  0  0  0  0  0  0  0
  152.6636  137.1960  154.5765 H   0  0  0  0  0  0  0  0  0  0  0  0
  149.7046  138.0322  154.4471 H   0  0  0  0  0  0  0  0  0  0  0  0
  150.3882  136.6700  153.5864 H   0  0  0  0  0  0  0  0  0  0  0  0
  1  2  1  0  0  0  0
  1 20  1  0  0  0  0
  1 21  1  0  0  0  0
  1 22  1  0  0  0  0
  2 14  2  0  0  0  0
  2  3  1  0  0  0  0
  3  4  2  0  0  0  0
  4  5  1  0  0  0  0
  4 11  1  0  0  0  0
  5 10  1  0  0  0  0
  5  6  1  0  0  0  0
  6  7  1  0  0  0  0
  6 23  1  0  0  0  0
  6 24  1  0  0  0  0
  7  8  1  0  0  0  0
  7 25  1  0  0  0  0
  7 26  1  0  0  0  0
  8  9  1  0  0  0  0
  9 10  1  0  0  0  0
  9 27  1  0  0  0  0
  9 28  1  0  0  0  0
 10 29  1  0  0  0  0
 10 30  1  0  0  0  0
 11 12  1  0  0  0  0
 12 13  2  0  0  0  0
 12 14  1  0  0  0  0
 14 15  1  0  0  0  0
 15 16  1  0  0  0  0
 15 31  1  0  0  0  0
 15 32  1  0  0  0  0
 16 17  1  0  0  0  0
 16 33  1  0  0  0  0
 16 34  1  0  0  0  0
 17 18  2  0  0  0  0
 17 19  1  0  0  0  0
M  CHG  1  11  -1
M  CHG  1  19  -1
M  END
> <s_m_source_file>
AV-unprocessed.smi

> <i_m_source_file_index>
581

> <i_lp_mmshare_version>
43012

> <i_f3d_flags>
0

> <s_epik_input>
W0NIMl0xW0NIMl1PW0NIMl1bQ0gyXU4xYyhuYzJbQ0gzXSlbbkhdYyg9TyljMltDSDJdW0NIMl1DKD1PKVtPSF0=

> <s_epik_cmdline>
J2VwaWtfcHl0aG9uJywgJy1waCcsICc3LjAnLCAnLXRuJywgJzgnLCAnLW1hJywgJzIwMCcsICctbWV0YWxfYmluZGluZycsICctaW1hZScsICc8aW5maWxlLm1hZT4nLCAnLW9tYWUnLCAnPG91dGZpbGUubWFlPic=

> <r_lp_tautomer_probability>
0.878553

> <r_epik_Ionization_Penalty>
5.42566

> <r_epik_Ionization_Penalty_Charging>
0.003235

> <r_epik_Ionization_Penalty_Neutral>
5.42243

> <r_epik_State_Penalty>
3.98511

> <r_epik_Charging_Adjusted_Penalty>
3.98834

> <i_epik_Tot_Q>
-2

> <i_epik_Tot_abs_Q>
2

> <r_epik_Metal_State_Penalty>
0.64219

> <b_epik_Metal_Only>
1

> <s_lp_Force_Field>
OPLS_2005

> <r_lp_Energy>
30.9787

> <b_lp_Chiralities_Consistent>
1

> <s_lp_Variant>
AV-unprocessed.smi:581-4

> <Gold.Version>
5.8.1

> <Gold.Id.Protein>
6NUR|6NUR_protein|mol2

> <Gold.PLP.Fitness>
43.0613

> <Gold.PLP.PLP>
-33.4722

> <Gold.PLP.part.hbond>
-3.0000

> <Gold.PLP.part.metal>
0.0000

> <Gold.PLP.part.buried>
-2.3309

> <Gold.PLP.part.nonpolar>
-27.8482

> <Gold.PLP.part.repulsive>
0.2739

> <Gold.PLP.ligand.clash>
0.0000

> <Gold.PLP.ligand.torsion>
0.2841

> <Gold.PLP.Chemscore.Hbond>
3.3140

> <Gold.PLP.Chemscore.CHOScore>
0.0000

> <Gold.PLP.Chemscore.Metal>
0.0000

> <Gold.Chemscore.Hbonds>
donor molecule, donor type, donor heavy atom, donor atom, acceptor molecule, acceptor atom, score
      P1  H  7989  7998       L1    13  1.00
      P1  H  7997  8008       L1     3  0.22
      P1  H 10752 10763       L1    18  1.30

> <Gold.PLP.Chemscore.Internal.Correction>
0.2152

> <Gold.Rescore>
     Score         DG    S(hbond)    S(metal)    S(lipo)     H(rot)  DE(clash)    DE(int)     intcor
     13.91     -14.59       1.59        0.00      73.13       1.86       0.38       0.30       ----

> <Gold.Chemscore.Fitness>
13.9114

> <Gold.Chemscore.DG>
-14.5859

> <Gold.Chemscore.ZeroCoef>
-5.4800

> <Gold.Chemscore.Hbond>
1.5926

> <Gold.Chemscore.Metal>
0.0000

> <Gold.Chemscore.Lipo>
73.1288

> <Gold.Chemscore.Internal_Hbond>
0.0000

> <Gold.Chemscore.DEClash>
0.3773

> <Gold.Chemscore.DEInternal>
0.2971

> <Gold.Chemscore.Rot>
1.8630

> <Gold.Chemscore.Internal.Correction>
   9.000000E+99

> <Gold.Chemscore.Hbonds>
donor molecule, donor type, donor heavy atom, donor atom, acceptor molecule, acceptor atom, score
      P1  H  7989  7998       L1    13  0.56
      P1  H 10752 10763       L1    18  0.62

> <Gold.Chemscore.Hbond.Weighted>
-5.3192

> <Gold.Chemscore.Metal.Weighted>
-0.0000

> <Gold.Chemscore.Lipo.Weighted>
-8.5561

> <Gold.Chemscore.Internal_Hbond.Weighted>
0.0000

> <Gold.Chemscore.DEClash.Weighted>
0.3773

> <Gold.Chemscore.DEInternal.Weighted>
0.2971

> <Gold.Chemscore.Rot.Weighted>
4.7694

> <Gold.Chemscore.Internal.Correction.Weighted>
   9.000000E+99

> <Gold.Protein.RotatedTorsions>
[ 6907 6896 6895 6894 ] final -125.56 input  -60.11 | X-H torsion
[ 7974 7965 7964 7962 ] final   74.07 input  175.53 | X-H torsion
[ 8008 7997 7996 7995 ] final -104.72 input   59.86 | X-H torsion
[ 10167 10162 10161 10158 ] final -141.13 input  -65.29 | X-H torsion
[ 10718 10713 10712 10709 ] final -107.55 input   66.30 | X-H torsion
[ 10763 10752 10751 10750 ] final   73.26 input  -60.55 | X-H torsion
[ 11005 11000 10999 10996 ] final  -70.86 input  -57.11 | X-H torsion

> <Gold.Protein.ActiveResidues>
 VAL166  LYS551  ARG553  GLY616  TRP617  ASP618  TYR619  PRO620  LYS621  CYS622 
 ASP623  PHE694  ASN695  SER759  ASP760  ASP761  ALA762  ILE779  LEU786  VAL792 
 PHE793  MET794  SER795  GLU796  ALA797  LYS798  CYS799  TRP800  GLU811  SER814 

> <Gold.Protein.RotatedAtoms>
  150.8880  133.7281  159.2912 H   0  0  0  0  0  0  0  0  0  0  0  0  # atno 6907 bound_to 6896
  151.4841  135.1052  159.9795 H   0  0  0  0  0  0  0  0  0  0  0  0  # atno 6908 bound_to 6896
  152.4802  133.8189  159.7099 H   0  0  0  0  0  0  0  0  0  0  0  0  # atno 6909 bound_to 6896
  145.7329  139.2690  143.1531 H   0  0  0  0  0  0  0  0  0  0  0  0  # atno 7974 bound_to 7965
  154.8894  140.0416  157.1829 H   0  0  0  0  0  0  0  0  0  0  0  0  # atno 8008 bound_to 7997
  154.8556  140.2936  155.5550 H   0  0  0  0  0  0  0  0  0  0  0  0  # atno 8009 bound_to 7997
  156.2997  140.2456  156.3522 H   0  0  0  0  0  0  0  0  0  0  0  0  # atno 8010 bound_to 7997
  139.8214  143.7569  152.2666 H   0  0  0  0  0  0  0  0  0  0  0  0  # atno 10167 bound_to 10162
  156.0442  130.5668  150.7838 H   0  0  0  0  0  0  0  0  0  0  0  0  # atno 10718 bound_to 10713
  153.0510  135.5069  154.7866 H   0  0  0  0  0  0  0  0  0  0  0  0  # atno 10763 bound_to 10752
  154.6729  135.2956  154.9720 H   0  0  0  0  0  0  0  0  0  0  0  0  # atno 10764 bound_to 10752
  154.0532  135.6701  153.4855 H   0  0  0  0  0  0  0  0  0  0  0  0  # atno 10765 bound_to 10752
  141.1582  133.6801  156.6818 H   0  0  0  0  0  0  0  0  0  0  0  0  # atno 11005 bound_to 11000
  146.0521  140.8059  142.9776 LP  0  0  0  0  0  0  0  0  0  0  0  0  # atno 17320 bound_to 7965
  144.6888  140.3068  143.7254 LP  0  0  0  0  0  0  0  0  0  0  0  0  # atno 17321 bound_to 7965
  139.7748  144.7464  151.0172 LP  0  0  0  0  0  0  0  0  0  0  0  0  # atno 17342 bound_to 10162
  140.7813  143.4605  151.0284 LP  0  0  0  0  0  0  0  0  0  0  0  0  # atno 17343 bound_to 10162
  157.5298  131.0936  150.9970 LP  0  0  0  0  0  0  0  0  0  0  0  0  # atno 17370 bound_to 10713
  157.0279  130.5700  149.5339 LP  0  0  0  0  0  0  0  0  0  0  0  0  # atno 17371 bound_to 10713
  140.3097  134.8096  157.4166 LP  0  0  0  0  0  0  0  0  0  0  0  0  # atno 17394 bound_to 11000
  140.1189  134.5246  155.8200 LP  0  0  0  0  0  0  0  0  0  0  0  0  # atno 17395 bound_to 11000

$$$$
