AV-unprocessed.smi:89|AV-procd|sdf|826|dock10
  -GOLD-   2262017243D 1   1.00000     0.00000
 Structure written by MMmdl.
 54 56  0  0  0  0  0  0  0  0  1 V2000
  150.4755  134.1037  155.8768 C   0  0  0  0  0  0  0  0  0  0  0  0
  149.8576  135.4898  155.6242 C   0  0  0  0  0  0  0  0  0  0  0  0
  148.5751  135.7000  156.3002 N   0  0  0  0  0  0  0  0  0  0  0  0
  147.5510  134.8963  155.9049 C   0  0  0  0  0  0  0  0  0  0  0  0
  146.3836  134.8971  156.6005 N   0  0  0  0  0  0  0  0  0  0  0  0
  145.3709  134.1107  156.2262 C   0  0  0  0  0  0  0  0  0  0  0  0
  145.3118  133.2587  155.2018 N   0  0  0  0  0  0  0  0  0  0  0  0
  146.4810  133.2482  154.5003 C   0  0  0  0  0  0  0  0  0  0  0  0
  147.6424  134.0210  154.7853 C   0  0  0  0  0  0  0  0  0  0  0  0
  148.6334  133.7423  153.8517 N   0  0  0  0  0  0  0  0  0  0  0  0
  148.0900  132.8582  153.0613 C   0  0  0  0  0  0  0  0  0  0  0  0
  146.7948  132.5115  153.3716 N   0  0  0  0  0  0  0  0  0  0  0  0
  145.9511  131.5687  152.6535 C   0  0  0  0  0  0  0  0  0  0  0  0
  145.6247  132.0195  151.2107 C   0  0  2  0  0  0  0  0  0  0  0  0
  146.5713  131.4467  150.3245 O   0  0  0  0  0  0  0  0  0  0  0  0
  145.6297  133.5326  151.0129 C   0  0  0  0  0  0  0  0  0  0  0  0
  144.5892  133.7341  149.9204 C   0  0  0  0  0  0  0  0  0  0  0  0
  143.5840  132.8001  150.2760 O   0  0  0  0  0  0  0  0  0  0  0  0
  144.2132  131.6110  150.7440 C   0  0  0  0  0  0  0  0  0  0  0  0
  148.5644  136.3799  157.6064 C   0  0  2  0  0  0  0  0  0  0  0  0
  149.8302  137.2205  157.8605 C   0  0  0  0  0  0  0  0  0  0  0  0
  148.2334  135.4557  158.8029 C   0  0  0  0  0  0  0  0  0  0  0  0
  147.8277  136.4137  160.3318 S   0  0  0  0  0  0  0  0  0  0  0  0
  149.0910  136.8892  160.9164 O   0  0  0  0  0  0  0  0  0  0  0  0
  146.7654  137.3803  160.0160 O   0  0  0  0  0  0  0  0  0  0  0  0
  147.1096  135.1191  161.4352 C   0  0  0  0  0  0  0  0  0  0  0  0
  147.0503  135.5695  162.8998 C   0  0  0  0  0  0  0  0  0  0  0  0
  151.4531  134.0301  155.4003 H   0  0  0  0  0  0  0  0  0  0  0  0
  149.8542  133.3065  155.4680 H   0  0  0  0  0  0  0  0  0  0  0  0
  150.6118  133.9083  156.9396 H   0  0  0  0  0  0  0  0  0  0  0  0
  150.5615  136.2511  155.9610 H   0  0  0  0  0  0  0  0  0  0  0  0
  149.7423  135.6568  154.5541 H   0  0  0  0  0  0  0  0  0  0  0  0
  144.4804  134.1744  156.8339 H   0  0  0  0  0  0  0  0  0  0  0  0
  148.6188  132.4393  152.2175 H   0  0  0  0  0  0  0  0  0  0  0  0
  146.4495  130.5983  152.6451 H   0  0  0  0  0  0  0  0  0  0  0  0
  145.0297  131.4335  153.2215 H   0  0  0  0  0  0  0  0  0  0  0  0
  147.4113  131.4259  150.7568 H   0  0  0  0  0  0  0  0  0  0  0  0
  145.2832  134.0323  151.9179 H   0  0  0  0  0  0  0  0  0  0  0  0
  146.6087  133.9431  150.7610 H   0  0  0  0  0  0  0  0  0  0  0  0
  144.2004  134.7522  149.8889 H   0  0  0  0  0  0  0  0  0  0  0  0
  144.9952  133.4861  148.9384 H   0  0  0  0  0  0  0  0  0  0  0  0
  144.2424  130.8718  149.9417 H   0  0  0  0  0  0  0  0  0  0  0  0
  143.6151  131.1893  151.5523 H   0  0  0  0  0  0  0  0  0  0  0  0
  147.7429  137.0954  157.5566 H   0  0  0  0  0  0  0  0  0  0  0  0
  149.7476  137.7683  158.7993 H   0  0  0  0  0  0  0  0  0  0  0  0
  149.9806  137.9607  157.0756 H   0  0  0  0  0  0  0  0  0  0  0  0
  150.7290  136.6083  157.9217 H   0  0  0  0  0  0  0  0  0  0  0  0
  147.4180  134.7646  158.5969 H   0  0  0  0  0  0  0  0  0  0  0  0
  149.1061  134.8463  159.0318 H   0  0  0  0  0  0  0  0  0  0  0  0
  146.1048  134.9004  161.0735 H   0  0  0  0  0  0  0  0  0  0  0  0
  147.7001  134.2090  161.3281 H   0  0  0  0  0  0  0  0  0  0  0  0
  146.5724  134.8078  163.5161 H   0  0  0  0  0  0  0  0  0  0  0  0
  146.4758  136.4895  163.0080 H   0  0  0  0  0  0  0  0  0  0  0  0
  148.0447  135.7427  163.3089 H   0  0  0  0  0  0  0  0  0  0  0  0
  1  2  1  0  0  0  0
  1 28  1  0  0  0  0
  1 29  1  0  0  0  0
  1 30  1  0  0  0  0
  2  3  1  0  0  0  0
  2 31  1  0  0  0  0
  2 32  1  0  0  0  0
  3  4  1  0  0  0  0
  3 20  1  0  0  0  0
  4  9  1  0  0  0  0
  4  5  2  0  0  0  0
  5  6  1  0  0  0  0
  6  7  2  0  0  0  0
  6 33  1  0  0  0  0
  7  8  1  0  0  0  0
  8 12  1  0  0  0  0
  8  9  2  0  0  0  0
  9 10  1  0  0  0  0
 10 11  2  0  0  0  0
 11 12  1  0  0  0  0
 11 34  1  0  0  0  0
 12 13  1  0  0  0  0
 13 14  1  0  0  0  0
 13 35  1  0  0  0  0
 13 36  1  0  0  0  0
 14 19  1  0  0  0  0
 14 15  1  0  0  0  0
 14 16  1  0  0  0  0
 15 37  1  0  0  0  0
 16 17  1  0  0  0  0
 16 38  1  0  0  0  0
 16 39  1  0  0  0  0
 17 18  1  0  0  0  0
 17 40  1  0  0  0  0
 17 41  1  0  0  0  0
 18 19  1  0  0  0  0
 19 42  1  0  0  0  0
 19 43  1  0  0  0  0
 20 21  1  0  0  0  0
 20 22  1  0  0  0  0
 20 44  1  0  0  0  0
 21 45  1  0  0  0  0
 21 46  1  0  0  0  0
 21 47  1  0  0  0  0
 22 23  1  0  0  0  0
 22 48  1  0  0  0  0
 22 49  1  0  0  0  0
 23 24  2  0  0  0  0
 23 25  2  0  0  0  0
 23 26  1  0  0  0  0
 26 27  1  0  0  0  0
 26 50  1  0  0  0  0
 26 51  1  0  0  0  0
 27 52  1  0  0  0  0
 27 53  1  0  0  0  0
 27 54  1  0  0  0  0
M  END
> <s_m_source_file>
AV-unprocessed.smi

> <i_m_source_file_index>
89

> <i_lp_mmshare_version>
43012

> <i_f3d_flags>
0

> <s_epik_input>
W0NIM11bQ0gyXVMoPU8pKD1PKVtDSDJdW0NAQEhdKFtDSDNdKU4oW0NIMl1bQ0gzXSljKG5bY0hdbjEpYyhjMTIpbltjSF1uMltDSDJdW0NAQF0zKFtPSF0pW0NIMl1bQ0gyXU9bQ0gyXTM=

> <s_epik_cmdline>
J2VwaWtfcHl0aG9uJywgJy1waCcsICc3LjAnLCAnLXRuJywgJzgnLCAnLW1hJywgJzIwMCcsICctbWV0YWxfYmluZGluZycsICctaW1hZScsICc8aW5maWxlLm1hZT4nLCAnLW9tYWUnLCAnPG91dGZpbGUubWFlPic=

> <r_lp_tautomer_probability>
1

> <r_epik_Ionization_Penalty>
0.00103773

> <r_epik_Ionization_Penalty_Charging>
0

> <r_epik_Ionization_Penalty_Neutral>
0.00103773

> <r_epik_State_Penalty>
0.000558914

> <r_epik_Charging_Adjusted_Penalty>
0.000558914

> <i_epik_Tot_Q>
0

> <i_epik_Tot_abs_Q>
0

> <r_epik_Metal_State_Penalty>
-0

> <b_epik_Metal_Only>
0

> <s_lp_Force_Field>
OPLS_2005

> <r_lp_Energy>
26.3336

> <b_lp_Chiralities_Consistent>
1

> <s_lp_Variant>
AV-unprocessed.smi:89-2

> <Gold.Version>
5.8.1

> <Gold.Id.Protein>
6NUR|6NUR_protein|mol2

> <Gold.PLP.Fitness>
42.8112

> <Gold.PLP.PLP>
-34.7758

> <Gold.PLP.part.hbond>
-2.7669

> <Gold.PLP.part.metal>
0.0000

> <Gold.PLP.part.buried>
-6.3530

> <Gold.PLP.part.nonpolar>
-27.8943

> <Gold.PLP.part.repulsive>
1.2894

> <Gold.PLP.ligand.clash>
0.0000

> <Gold.PLP.ligand.torsion>
1.7387

> <Gold.PLP.Chemscore.Hbond>
2.4560

> <Gold.PLP.Chemscore.CHOScore>
1.0000

> <Gold.PLP.Chemscore.Metal>
0.0000

> <Gold.Chemscore.Hbonds>
donor molecule, donor type, donor heavy atom, donor atom, acceptor molecule, acceptor atom, score
      L1  H    15    37       P1 10747  0.66
      P1  H  6931  6943       L1    24  0.86
      P1  H  6934  6947       L1    25  1.00
      L1  C    11    34       P1 10747  1.00

> <Gold.PLP.Chemscore.Internal.Correction>
1.1448

> <Gold.Rescore>
     Score         DG    S(hbond)    S(metal)    S(lipo)     H(rot)  DE(clash)    DE(int)     intcor
      9.03     -14.38       2.51        0.00      73.25       3.14       0.74       4.62       ----

> <Gold.Chemscore.Fitness>
9.0316

> <Gold.Chemscore.DG>
-14.3835

> <Gold.Chemscore.ZeroCoef>
-5.4800

> <Gold.Chemscore.Hbond>
2.5054

> <Gold.Chemscore.Metal>
0.0000

> <Gold.Chemscore.Lipo>
73.2506

> <Gold.Chemscore.Internal_Hbond>
0.0000

> <Gold.Chemscore.DEClash>
0.7360

> <Gold.Chemscore.DEInternal>
4.6159

> <Gold.Chemscore.Rot>
3.1386

> <Gold.Chemscore.Internal.Correction>
   9.000000E+99

> <Gold.Chemscore.Hbonds>
donor molecule, donor type, donor heavy atom, donor atom, acceptor molecule, acceptor atom, score
      L1  H    15    37       P1 10747  0.64
      P1  H  6931  6943       L1    24  0.82
      P1  H  6934  6947       L1    25  0.65

> <Gold.Chemscore.Hbond.Weighted>
-8.3681

> <Gold.Chemscore.Metal.Weighted>
-0.0000

> <Gold.Chemscore.Lipo.Weighted>
-8.5703

> <Gold.Chemscore.Internal_Hbond.Weighted>
0.0000

> <Gold.Chemscore.DEClash.Weighted>
0.7360

> <Gold.Chemscore.DEInternal.Weighted>
4.6159

> <Gold.Chemscore.Rot.Weighted>
8.0349

> <Gold.Chemscore.Internal.Correction.Weighted>
   9.000000E+99

> <Gold.Protein.RotatedTorsions>
[ 6907 6896 6895 6894 ] final  104.52 input  -60.11 | X-H torsion
[ 7974 7965 7964 7962 ] final  -46.67 input  175.53 | X-H torsion
[ 8008 7997 7996 7995 ] final  109.73 input   59.86 | X-H torsion
[ 10167 10162 10161 10158 ] final  -91.01 input  -65.29 | X-H torsion
[ 10718 10713 10712 10709 ] final -135.22 input   66.30 | X-H torsion
[ 10763 10752 10751 10750 ] final  -78.51 input  -60.55 | X-H torsion
[ 11005 11000 10999 10996 ] final   40.32 input  -57.11 | X-H torsion

> <Gold.Protein.ActiveResidues>
 VAL166  LYS551  ARG553  GLY616  TRP617  ASP618  TYR619  PRO620  LYS621  CYS622 
 ASP623  PHE694  ASN695  SER759  ASP760  ASP761  ALA762  ILE779  LEU786  VAL792 
 PHE793  MET794  SER795  GLU796  ALA797  LYS798  CYS799  TRP800  GLU811  SER814 

> <Gold.Protein.RotatedAtoms>
  152.5261  133.9665  159.7741 H   0  0  0  0  0  0  0  0  0  0  0  0  # atno 6907 bound_to 6896
  150.9945  133.6108  159.2710 H   0  0  0  0  0  0  0  0  0  0  0  0  # atno 6908 bound_to 6896
  151.3240  135.0831  159.9368 H   0  0  0  0  0  0  0  0  0  0  0  0  # atno 6909 bound_to 6896
  145.9695  140.7397  142.9417 H   0  0  0  0  0  0  0  0  0  0  0  0  # atno 7974 bound_to 7965
  156.2001  140.3052  155.9509 H   0  0  0  0  0  0  0  0  0  0  0  0  # atno 8008 bound_to 7997
  155.2974  140.0445  157.3044 H   0  0  0  0  0  0  0  0  0  0  0  0  # atno 8009 bound_to 7997
  154.5560  140.2306  155.8419 H   0  0  0  0  0  0  0  0  0  0  0  0  # atno 8010 bound_to 7997
  140.3492  143.2900  151.9746 H   0  0  0  0  0  0  0  0  0  0  0  0  # atno 10167 bound_to 10162
  156.2638  130.7225  151.1169 H   0  0  0  0  0  0  0  0  0  0  0  0  # atno 10718 bound_to 10713
  154.5268  135.5727  153.6725 H   0  0  0  0  0  0  0  0  0  0  0  0  # atno 10763 bound_to 10752
  152.9930  135.6195  154.2682 H   0  0  0  0  0  0  0  0  0  0  0  0  # atno 10764 bound_to 10752
  154.2606  135.2856  155.2759 H   0  0  0  0  0  0  0  0  0  0  0  0  # atno 10765 bound_to 10752
  140.1942  134.3950  155.8130 H   0  0  0  0  0  0  0  0  0  0  0  0  # atno 11005 bound_to 11000
  144.6833  140.2725  143.7304 LP  0  0  0  0  0  0  0  0  0  0  0  0  # atno 17320 bound_to 7965
  145.7926  139.1933  143.2094 LP  0  0  0  0  0  0  0  0  0  0  0  0  # atno 17321 bound_to 7965
  139.4829  144.6091  151.7467 LP  0  0  0  0  0  0  0  0  0  0  0  0  # atno 17342 bound_to 10162
  140.5235  144.0842  150.6030 LP  0  0  0  0  0  0  0  0  0  0  0  0  # atno 17343 bound_to 10162
  157.7260  131.0649  150.5928 LP  0  0  0  0  0  0  0  0  0  0  0  0  # atno 17370 bound_to 10713
  156.6018  130.4356  149.5894 LP  0  0  0  0  0  0  0  0  0  0  0  0  # atno 17371 bound_to 10713
  141.2227  133.7061  156.8147 LP  0  0  0  0  0  0  0  0  0  0  0  0  # atno 17394 bound_to 11000
  140.2126  134.8816  157.3291 LP  0  0  0  0  0  0  0  0  0  0  0  0  # atno 17395 bound_to 11000

$$$$
