AV-unprocessed.smi:821|AV-procd|sdf|3839|dock1
  -GOLD-   22720 1283D 1   1.00000     0.00000
 Structure written by MMmdl.
 44 45  0  0  0  0  0  0  0  0  1 V2000
  147.5067  141.9498  154.8188 C   0  0  0  0  0  0  0  0  0  0  0  0
  148.5763  141.1212  155.5474 C   0  0  1  0  0  0  0  0  0  0  0  0
  149.2257  140.0805  154.6088 C   0  0  0  0  0  0  0  0  0  0  0  0
  150.0135  139.0373  155.2690 N   0  0  0  0  0  0  0  0  0  0  0  0
  149.5228  137.7113  154.9071 C   0  0  0  0  0  0  0  0  0  0  0  0
  150.3309  136.5902  155.5830 C   0  0  0  0  0  0  0  0  0  0  0  0
  151.7062  136.7250  155.2408 O   0  0  0  0  0  0  0  0  0  0  0  0
  152.2434  137.9866  155.6234 C   0  0  0  0  0  0  0  0  0  0  0  0
  151.4399  139.1173  154.9580 C   0  0  0  0  0  0  0  0  0  0  0  0
  149.6044  142.0202  156.0656 N   0  0  0  0  0  0  0  0  0  0  0  0
  150.3134  141.8294  157.1879 C   0  0  0  0  0  0  0  0  0  0  0  0
  150.1187  140.8919  157.9624 O   0  0  0  0  0  0  0  0  0  0  0  0
  151.4079  142.8654  157.4775 C   0  0  0  0  0  0  0  0  0  0  0  0
  152.0700  142.6432  158.7742 N   0  0  0  0  0  0  0  0  0  0  0  0
  151.9703  143.6721  159.7277 C   0  0  0  0  0  0  0  0  0  0  0  0
  152.5285  143.5656  160.9411 C   0  0  0  0  0  0  0  0  0  0  0  0
  153.2419  142.3531  161.2601 C   0  0  0  0  0  0  0  0  0  0  0  0
  153.3565  141.3465  160.3629 C   0  0  0  0  0  0  0  0  0  0  0  0
  154.0955  140.0507  160.6889 C   0  0  0  0  0  0  0  0  0  0  0  0
  155.2268  139.9693  159.9879 F   0  0  0  0  0  0  0  0  0  0  0  0
  154.4106  139.9725  161.9827 F   0  0  0  0  0  0  0  0  0  0  0  0
  153.3425  138.9914  160.3891 F   0  0  0  0  0  0  0  0  0  0  0  0
  152.7464  141.4786  159.0242 C   0  0  0  0  0  0  0  0  0  0  0  0
  152.8341  140.5945  158.1697 O   0  0  0  0  0  0  0  0  0  0  0  0
  146.7079  141.3119  154.4396 H   0  0  0  0  0  0  0  0  0  0  0  0
  147.9311  142.4913  153.9728 H   0  0  0  0  0  0  0  0  0  0  0  0
  147.0498  142.6799  155.4878 H   0  0  0  0  0  0  0  0  0  0  0  0
  148.0858  140.5932  156.3677 H   0  0  0  0  0  0  0  0  0  0  0  0
  148.4212  139.5856  154.0631 H   0  0  0  0  0  0  0  0  0  0  0  0
  149.8239  140.5810  153.8455 H   0  0  0  0  0  0  0  0  0  0  0  0
  148.4727  137.6153  155.1859 H   0  0  0  0  0  0  0  0  0  0  0  0
  149.5702  137.5829  153.8243 H   0  0  0  0  0  0  0  0  0  0  0  0
  150.2121  136.6259  156.6671 H   0  0  0  0  0  0  0  0  0  0  0  0
  149.9758  135.6143  155.2523 H   0  0  0  0  0  0  0  0  0  0  0  0
  152.2203  138.0849  156.7099 H   0  0  0  0  0  0  0  0  0  0  0  0
  153.2891  138.0371  155.3196 H   0  0  0  0  0  0  0  0  0  0  0  0
  151.5875  139.0799  153.8776 H   0  0  0  0  0  0  0  0  0  0  0  0
  151.8462  140.0685  155.2991 H   0  0  0  0  0  0  0  0  0  0  0  0
  149.8295  142.8241  155.4975 H   0  0  0  0  0  0  0  0  0  0  0  0
  152.1517  142.8547  156.6780 H   0  0  0  0  0  0  0  0  0  0  0  0
  150.9549  143.8566  157.4330 H   0  0  0  0  0  0  0  0  0  0  0  0
  151.4129  144.5427  159.4139 H   0  0  0  0  0  0  0  0  0  0  0  0
  152.4415  144.3642  161.6631 H   0  0  0  0  0  0  0  0  0  0  0  0
  153.6828  142.2613  162.2414 H   0  0  0  0  0  0  0  0  0  0  0  0
  1  2  1  0  0  0  0
  1 25  1  0  0  0  0
  1 26  1  0  0  0  0
  1 27  1  0  0  0  0
  2  3  1  0  0  0  0
  2 10  1  0  0  0  0
  2 28  1  0  0  0  0
  3  4  1  0  0  0  0
  3 29  1  0  0  0  0
  3 30  1  0  0  0  0
  4  9  1  0  0  0  0
  4  5  1  0  0  0  0
  5  6  1  0  0  0  0
  5 31  1  0  0  0  0
  5 32  1  0  0  0  0
  6  7  1  0  0  0  0
  6 33  1  0  0  0  0
  6 34  1  0  0  0  0
  7  8  1  0  0  0  0
  8  9  1  0  0  0  0
  8 35  1  0  0  0  0
  8 36  1  0  0  0  0
  9 37  1  0  0  0  0
  9 38  1  0  0  0  0
 10 11  1  0  0  0  0
 10 39  1  0  0  0  0
 11 12  2  0  0  0  0
 11 13  1  0  0  0  0
 13 14  1  0  0  0  0
 13 40  1  0  0  0  0
 13 41  1  0  0  0  0
 14 23  1  0  0  0  0
 14 15  1  0  0  0  0
 15 16  2  0  0  0  0
 15 42  1  0  0  0  0
 16 17  1  0  0  0  0
 16 43  1  0  0  0  0
 17 18  2  0  0  0  0
 17 44  1  0  0  0  0
 18 19  1  0  0  0  0
 18 23  1  0  0  0  0
 19 20  1  0  0  0  0
 19 21  1  0  0  0  0
 19 22  1  0  0  0  0
 23 24  2  0  0  0  0
M  END
> <s_m_source_file>
AV-unprocessed.smi

> <i_m_source_file_index>
821

> <i_lp_mmshare_version>
43012

> <i_f3d_flags>
0

> <s_epik_input>
W0NIMl0xW0NIMl1PW0NIMl1bQ0gyXU4xW0NIMl1bQ0BASF0oW0NIM10pW05IXUMoPU8pW0NIMl1uMltjSF1bY0hdW2NIXWMoQyhGKShGKUYpYzI9Tw==

> <s_epik_cmdline>
J2VwaWtfcHl0aG9uJywgJy1waCcsICc3LjAnLCAnLXRuJywgJzgnLCAnLW1hJywgJzIwMCcsICctbWV0YWxfYmluZGluZycsICctaW1hZScsICc8aW5maWxlLm1hZT4nLCAnLW9tYWUnLCAnPG91dGZpbGUubWFlPic=

> <r_lp_tautomer_probability>
1

> <r_epik_Ionization_Penalty>
0.237382

> <r_epik_Ionization_Penalty_Charging>
1.90699e-09

> <r_epik_Ionization_Penalty_Neutral>
0.237382

> <r_epik_State_Penalty>
0.228245

> <r_epik_Charging_Adjusted_Penalty>
0.228245

> <i_epik_Tot_Q>
0

> <i_epik_Tot_abs_Q>
0

> <r_epik_Metal_State_Penalty>
0.228219

> <b_epik_Metal_Only>
0

> <s_lp_Force_Field>
OPLS_2005

> <r_lp_Energy>
36.3574

> <b_lp_Chiralities_Consistent>
1

> <s_lp_Variant>
AV-unprocessed.smi:821-2

> <Gold.Version>
5.8.1

> <Gold.Id.Protein>
6NUR|6NUR_protein|mol2

> <Gold.PLP.Fitness>
52.9048

> <Gold.PLP.PLP>
-48.3916

> <Gold.PLP.part.hbond>
-3.0000

> <Gold.PLP.part.metal>
0.0000

> <Gold.PLP.part.buried>
-1.9512

> <Gold.PLP.part.nonpolar>
-43.4960

> <Gold.PLP.part.repulsive>
0.3034

> <Gold.PLP.ligand.clash>
0.0503

> <Gold.PLP.ligand.torsion>
1.4846

> <Gold.PLP.Chemscore.Hbond>
2.2626

> <Gold.PLP.Chemscore.CHOScore>
0.0000

> <Gold.PLP.Chemscore.Metal>
0.0000

> <Gold.Chemscore.Hbonds>
donor molecule, donor type, donor heavy atom, donor atom, acceptor molecule, acceptor atom, score
      L1  H    10    39       P1  8028  0.40
      P1  H  7997  8008       L1    24  0.54
      P1  H 10752 10764       L1     7  0.99

> <Gold.PLP.Chemscore.Internal.Correction>
0.7448

> <Gold.Rescore>
     Score         DG    S(hbond)    S(metal)    S(lipo)     H(rot)  DE(clash)    DE(int)     intcor
     12.03     -20.10       2.36        0.00     103.42       2.09       0.43       7.63       ----

> <Gold.Chemscore.Fitness>
12.0327

> <Gold.Chemscore.DG>
-20.0987

> <Gold.Chemscore.ZeroCoef>
-5.4800

> <Gold.Chemscore.Hbond>
2.3578

> <Gold.Chemscore.Metal>
0.0000

> <Gold.Chemscore.Lipo>
103.4221

> <Gold.Chemscore.Internal_Hbond>
0.0000

> <Gold.Chemscore.DEClash>
0.4316

> <Gold.Chemscore.DEInternal>
7.6344

> <Gold.Chemscore.Rot>
2.0924

> <Gold.Chemscore.Internal.Correction>
   9.000000E+99

> <Gold.Chemscore.Hbonds>
donor molecule, donor type, donor heavy atom, donor atom, acceptor molecule, acceptor atom, score
      L1  H    10    39       P1  8028  0.38
      P1  H  7997  8008       L1    24  0.53
      P1  H 10752 10764       L1     7  0.81

> <Gold.Chemscore.Hbond.Weighted>
-7.8749

> <Gold.Chemscore.Metal.Weighted>
-0.0000

> <Gold.Chemscore.Lipo.Weighted>
-12.1004

> <Gold.Chemscore.Internal_Hbond.Weighted>
0.0000

> <Gold.Chemscore.DEClash.Weighted>
0.4316

> <Gold.Chemscore.DEInternal.Weighted>
7.6344

> <Gold.Chemscore.Rot.Weighted>
5.3566

> <Gold.Chemscore.Internal.Correction.Weighted>
   9.000000E+99

> <Gold.Protein.RotatedTorsions>
[ 6907 6896 6895 6894 ] final  -97.93 input  -60.11 | X-H torsion
[ 7974 7965 7964 7962 ] final -173.26 input  175.53 | X-H torsion
[ 8008 7997 7996 7995 ] final  -74.33 input   59.86 | X-H torsion
[ 10167 10162 10161 10158 ] final  112.82 input  -65.29 | X-H torsion
[ 10718 10713 10712 10709 ] final  159.12 input   66.30 | X-H torsion
[ 10763 10752 10751 10750 ] final  -72.87 input  -60.55 | X-H torsion
[ 11005 11000 10999 10996 ] final  -72.87 input  -57.11 | X-H torsion

> <Gold.Protein.ActiveResidues>
 VAL166  LYS551  ARG553  GLY616  TRP617  ASP618  TYR619  PRO620  LYS621  CYS622 
 ASP623  PHE694  ASN695  SER759  ASP760  ASP761  ALA762  ILE779  LEU786  VAL792 
 PHE793  MET794  SER795  GLU796  ALA797  LYS798  CYS799  TRP800  GLU811  SER814 

> <Gold.Protein.RotatedAtoms>
  150.7031  134.1272  159.4056 H   0  0  0  0  0  0  0  0  0  0  0  0  # atno 6907 bound_to 6896
  151.9258  135.0276  160.0535 H   0  0  0  0  0  0  0  0  0  0  0  0  # atno 6908 bound_to 6896
  152.2218  133.4954  159.5203 H   0  0  0  0  0  0  0  0  0  0  0  0  # atno 6909 bound_to 6896
  144.7139  140.1648  143.6373 H   0  0  0  0  0  0  0  0  0  0  0  0  # atno 7974 bound_to 7965
  154.5321  140.0763  156.8364 H   0  0  0  0  0  0  0  0  0  0  0  0  # atno 8008 bound_to 7997
  155.3353  140.3404  155.4221 H   0  0  0  0  0  0  0  0  0  0  0  0  # atno 8009 bound_to 7997
  156.1792  140.1646  156.8293 H   0  0  0  0  0  0  0  0  0  0  0  0  # atno 8010 bound_to 7997
  139.6507  144.7128  151.2054 H   0  0  0  0  0  0  0  0  0  0  0  0  # atno 10167 bound_to 10162
  157.1685  131.0604  151.2195 H   0  0  0  0  0  0  0  0  0  0  0  0  # atno 10718 bound_to 10713
  154.4517  135.5916  153.6196 H   0  0  0  0  0  0  0  0  0  0  0  0  # atno 10763 bound_to 10752
  152.9814  135.6022  154.3597 H   0  0  0  0  0  0  0  0  0  0  0  0  # atno 10764 bound_to 10752
  154.3459  135.2841  155.2377 H   0  0  0  0  0  0  0  0  0  0  0  0  # atno 10765 bound_to 10752
  141.1615  133.6860  156.7125 H   0  0  0  0  0  0  0  0  0  0  0  0  # atno 11005 bound_to 11000
  145.8997  139.2423  143.1501 LP  0  0  0  0  0  0  0  0  0  0  0  0  # atno 17320 bound_to 7965
  145.9823  140.8673  143.0108 LP  0  0  0  0  0  0  0  0  0  0  0  0  # atno 17321 bound_to 7965
  140.7536  143.6155  150.8564 LP  0  0  0  0  0  0  0  0  0  0  0  0  # atno 17342 bound_to 10162
  139.9802  143.5959  152.2945 LP  0  0  0  0  0  0  0  0  0  0  0  0  # atno 17343 bound_to 10162
  157.4065  130.7362  149.6806 LP  0  0  0  0  0  0  0  0  0  0  0  0  # atno 17370 bound_to 10713
  155.9742  130.4107  150.3942 LP  0  0  0  0  0  0  0  0  0  0  0  0  # atno 17371 bound_to 10713
  140.2877  134.8266  157.3989 LP  0  0  0  0  0  0  0  0  0  0  0  0  # atno 17394 bound_to 11000
  140.1375  134.5014  155.8057 LP  0  0  0  0  0  0  0  0  0  0  0  0  # atno 17395 bound_to 11000

$$$$
