AV-unprocessed.smi:90|AV-procd|sdf|832|dock3
  -GOLD-   2262017253D 1   1.00000     0.00000
 Structure written by MMmdl.
 64 67  0  0  0  0  0  0  0  0  2 V2000
  153.8162  137.6892  159.8742 C   0  0  0  0  0  0  0  0  0  0  0  0
  154.6185  138.1437  161.0071 N   0  0  0  0  0  0  0  0  0  0  0  0
  155.0891  139.5254  161.0241 C   0  0  0  0  0  0  0  0  0  0  0  0
  154.1832  140.4380  161.8746 C   0  0  0  0  0  0  0  0  0  0  0  0
  153.7687  141.7597  161.1760 C   0  0  1  0  0  0  0  0  0  0  0  0
  153.0934  141.4631  159.8126 C   0  0  0  0  0  0  0  0  0  0  0  0
  152.6429  142.7385  159.0933 C   0  0  0  0  0  0  0  0  0  0  0  0
  151.7248  143.5486  160.0081 C   0  0  0  0  0  0  0  0  0  0  0  0
  152.4295  143.8444  161.3377 C   0  0  0  0  0  0  0  0  0  0  0  0
  152.8562  142.5953  162.0240 N   0  3  2  0  0  0  0  0  0  0  0  0
  153.3837  142.9044  163.3762 C   0  0  0  0  0  0  0  0  0  0  0  0
  154.9726  137.2507  161.9761 C   0  0  0  0  0  0  0  0  0  0  0  0
  155.4574  137.7451  163.1471 N   0  0  0  0  0  0  0  0  0  0  0  0
  155.8410  136.9290  164.1313 C   0  0  0  0  0  0  0  0  0  0  0  0
  155.8208  135.5975  164.1626 N   0  0  0  0  0  0  0  0  0  0  0  0
  155.3224  135.0830  163.0035 C   0  0  0  0  0  0  0  0  0  0  0  0
  154.8817  135.8270  161.8682 C   0  0  0  0  0  0  0  0  0  0  0  0
  154.4425  134.9434  160.8867 N   0  0  0  0  0  0  0  0  0  0  0  0
  154.6251  133.7599  161.4012 C   0  0  0  0  0  0  0  0  0  0  0  0
  155.1354  133.7495  162.6782 N   0  0  0  0  0  0  0  0  0  0  0  0
  155.4383  132.5720  163.4814 C   0  0  0  0  0  0  0  0  0  0  0  0
  154.2501  132.0304  164.3323 C   0  0  0  0  0  0  0  0  0  0  0  0
  153.6906  133.1454  165.2613 C   0  0  0  0  0  0  0  0  0  0  0  0
  154.6553  133.6063  166.1861 O   0  0  0  0  0  0  0  0  0  0  0  0
  153.1198  131.5169  163.4027 C   0  0  0  0  0  0  0  0  0  0  0  0
  152.0618  130.6752  164.1410 C   0  0  0  0  0  0  0  0  0  0  0  0
  152.6825  129.5927  164.8212 O   0  0  0  0  0  0  0  0  0  0  0  0
  153.6062  130.0235  165.8121 C   0  0  0  0  0  0  0  0  0  0  0  0
  154.7499  130.8117  165.1497 C   0  0  0  0  0  0  0  0  0  0  0  0
  154.2682  136.8128  159.4085 H   0  0  0  0  0  0  0  0  0  0  0  0
  153.7346  138.4656  159.1132 H   0  0  0  0  0  0  0  0  0  0  0  0
  152.8070  137.4307  160.1962 H   0  0  0  0  0  0  0  0  0  0  0  0
  156.0961  139.5351  161.4428 H   0  0  0  0  0  0  0  0  0  0  0  0
  155.2064  139.8856  160.0047 H   0  0  0  0  0  0  0  0  0  0  0  0
  153.2901  139.8958  162.1866 H   0  0  0  0  0  0  0  0  0  0  0  0
  154.7400  140.6484  162.7854 H   0  0  0  0  0  0  0  0  0  0  0  0
  154.6720  142.3450  160.9943 H   0  0  0  0  0  0  0  0  0  0  0  0
  153.7705  140.9256  159.1503 H   0  0  0  0  0  0  0  0  0  0  0  0
  152.2315  140.8114  159.9641 H   0  0  0  0  0  0  0  0  0  0  0  0
  153.5127  143.3350  158.8151 H   0  0  0  0  0  0  0  0  0  0  0  0
  152.1256  142.4867  158.1672 H   0  0  0  0  0  0  0  0  0  0  0  0
  151.4394  144.4810  159.5198 H   0  0  0  0  0  0  0  0  0  0  0  0
  150.8016  142.9970  160.1919 H   0  0  0  0  0  0  0  0  0  0  0  0
  153.2981  144.4833  161.1691 H   0  0  0  0  0  0  0  0  0  0  0  0
  151.7468  144.4031  161.9791 H   0  0  0  0  0  0  0  0  0  0  0  0
  154.3841  143.3354  163.3178 H   0  0  0  0  0  0  0  0  0  0  0  0
  153.4182  142.0177  164.0076 H   0  0  0  0  0  0  0  0  0  0  0  0
  152.7408  143.6176  163.8930 H   0  0  0  0  0  0  0  0  0  0  0  0
  156.2203  137.4126  165.0195 H   0  0  0  0  0  0  0  0  0  0  0  0
  154.3839  132.8555  160.8616 H   0  0  0  0  0  0  0  0  0  0  0  0
  155.7891  131.7974  162.7982 H   0  0  0  0  0  0  0  0  0  0  0  0
  156.2923  132.8032  164.1193 H   0  0  0  0  0  0  0  0  0  0  0  0
  153.3374  133.9952  164.6774 H   0  0  0  0  0  0  0  0  0  0  0  0
  152.8319  132.8000  165.8344 H   0  0  0  0  0  0  0  0  0  0  0  0
  154.4875  134.5188  166.3662 H   0  0  0  0  0  0  0  0  0  0  0  0
  152.6262  132.3491  162.9000 H   0  0  0  0  0  0  0  0  0  0  0  0
  153.5530  130.8987  162.6154 H   0  0  0  0  0  0  0  0  0  0  0  0
  151.4842  131.2781  164.8419 H   0  0  0  0  0  0  0  0  0  0  0  0
  151.3484  130.2691  163.4237 H   0  0  0  0  0  0  0  0  0  0  0  0
  153.0984  130.6151  166.5744 H   0  0  0  0  0  0  0  0  0  0  0  0
  154.0068  129.1441  166.3166 H   0  0  0  0  0  0  0  0  0  0  0  0
  155.2861  130.1284  164.4898 H   0  0  0  0  0  0  0  0  0  0  0  0
  155.4737  131.1196  165.9047 H   0  0  0  0  0  0  0  0  0  0  0  0
  152.0163  142.0521  162.1645 H   0  0  0  0  0  0  0  0  0  0  0  0
  1  2  1  0  0  0  0
  1 30  1  0  0  0  0
  1 31  1  0  0  0  0
  1 32  1  0  0  0  0
  2  3  1  0  0  0  0
  2 12  1  0  0  0  0
  3  4  1  0  0  0  0
  3 33  1  0  0  0  0
  3 34  1  0  0  0  0
  4  5  1  0  0  0  0
  4 35  1  0  0  0  0
  4 36  1  0  0  0  0
  5 10  1  0  0  0  0
  5  6  1  0  0  0  0
  5 37  1  0  0  0  0
  6  7  1  0  0  0  0
  6 38  1  0  0  0  0
  6 39  1  0  0  0  0
  7  8  1  0  0  0  0
  7 40  1  0  0  0  0
  7 41  1  0  0  0  0
  8  9  1  0  0  0  0
  8 42  1  0  0  0  0
  8 43  1  0  0  0  0
  9 10  1  0  0  0  0
  9 44  1  0  0  0  0
  9 45  1  0  0  0  0
 10 11  1  0  0  0  0
 10 64  1  0  0  0  0
 11 46  1  0  0  0  0
 11 47  1  0  0  0  0
 11 48  1  0  0  0  0
 12 17  1  0  0  0  0
 12 13  2  0  0  0  0
 13 14  1  0  0  0  0
 14 15  2  0  0  0  0
 14 49  1  0  0  0  0
 15 16  1  0  0  0  0
 16 20  1  0  0  0  0
 16 17  2  0  0  0  0
 17 18  1  0  0  0  0
 18 19  2  0  0  0  0
 19 20  1  0  0  0  0
 19 50  1  0  0  0  0
 20 21  1  0  0  0  0
 21 22  1  0  0  0  0
 21 51  1  0  0  0  0
 21 52  1  0  0  0  0
 22 29  1  0  0  0  0
 22 23  1  0  0  0  0
 22 25  1  0  0  0  0
 23 24  1  0  0  0  0
 23 53  1  0  0  0  0
 23 54  1  0  0  0  0
 24 55  1  0  0  0  0
 25 26  1  0  0  0  0
 25 56  1  0  0  0  0
 25 57  1  0  0  0  0
 26 27  1  0  0  0  0
 26 58  1  0  0  0  0
 26 59  1  0  0  0  0
 27 28  1  0  0  0  0
 28 29  1  0  0  0  0
 28 60  1  0  0  0  0
 28 61  1  0  0  0  0
 29 62  1  0  0  0  0
 29 63  1  0  0  0  0
M  CHG  1  10   1
M  END
> <s_m_source_file>
AV-unprocessed.smi

> <i_m_source_file_index>
90

> <i_lp_mmshare_version>
43012

> <i_f3d_flags>
0

> <s_epik_input>
W0NIM11OMVtDSDJdW0NIMl1bQ0gyXVtDSDJdW0NASF0xW0NIMl1bQ0gyXU4oW0NIM10pYyhuW2NIXW4yKWMoYzIzKW5bY0hdbjNbQ0gyXUM0KFtDSDJdW09IXSlbQ0gyXVtDSDJdT1tDSDJdW0NIMl00

> <s_epik_cmdline>
J2VwaWtfcHl0aG9uJywgJy1waCcsICc3LjAnLCAnLXRuJywgJzgnLCAnLW1hJywgJzIwMCcsICctbWV0YWxfYmluZGluZycsICctaW1hZScsICc8aW5maWxlLm1hZT4nLCAnLW9tYWUnLCAnPG91dGZpbGUubWFlPic=

> <r_lp_tautomer_probability>
1

> <r_epik_Ionization_Penalty>
0.00234895

> <r_epik_Ionization_Penalty_Charging>
0.00106647

> <r_epik_Ionization_Penalty_Neutral>
0.00128248

> <r_epik_State_Penalty>
-0

> <r_epik_Charging_Adjusted_Penalty>
0.00106647

> <i_epik_Tot_Q>
1

> <i_epik_Tot_abs_Q>
1

> <r_epik_Metal_State_Penalty>
-0

> <b_epik_Metal_Only>
0

> <s_lp_Force_Field>
OPLS_2005

> <r_lp_Energy>
42.6574

> <b_lp_Chiralities_Consistent>
1

> <s_lp_Variant>
AV-unprocessed.smi:90-4

> <Gold.Version>
5.8.1

> <Gold.Id.Protein>
6NUR|6NUR_protein|mol2

> <Gold.PLP.Fitness>
50.0761

> <Gold.PLP.PLP>
-50.1944

> <Gold.PLP.part.hbond>
-1.8785

> <Gold.PLP.part.metal>
0.0000

> <Gold.PLP.part.buried>
-6.6227

> <Gold.PLP.part.nonpolar>
-42.8645

> <Gold.PLP.part.repulsive>
0.1906

> <Gold.PLP.ligand.clash>
0.0000

> <Gold.PLP.ligand.torsion>
1.1881

> <Gold.PLP.Chemscore.Hbond>
0.6585

> <Gold.PLP.Chemscore.CHOScore>
0.0000

> <Gold.PLP.Chemscore.Metal>
0.0000

> <Gold.Chemscore.Hbonds>
donor molecule, donor type, donor heavy atom, donor atom, acceptor molecule, acceptor atom, score
      P1  H  6896  6907       L1    18  0.60

> <Gold.PLP.Chemscore.Internal.Correction>
0.2822

> <Gold.Rescore>
     Score         DG    S(hbond)    S(metal)    S(lipo)     H(rot)  DE(clash)    DE(int)     intcor
     12.04     -15.83       0.70        0.00     128.34       2.73       1.52       2.27       ----

> <Gold.Chemscore.Fitness>
12.0432

> <Gold.Chemscore.DG>
-15.8312

> <Gold.Chemscore.ZeroCoef>
-5.4800

> <Gold.Chemscore.Hbond>
0.6995

> <Gold.Chemscore.Metal>
0.0000

> <Gold.Chemscore.Lipo>
128.3411

> <Gold.Chemscore.Internal_Hbond>
0.0000

> <Gold.Chemscore.DEClash>
1.5163

> <Gold.Chemscore.DEInternal>
2.2717

> <Gold.Chemscore.Rot>
2.7347

> <Gold.Chemscore.Internal.Correction>
   9.000000E+99

> <Gold.Chemscore.Hbonds>
donor molecule, donor type, donor heavy atom, donor atom, acceptor molecule, acceptor atom, score
      P1  H  6896  6907       L1    18  0.13

> <Gold.Chemscore.Hbond.Weighted>
-2.3362

> <Gold.Chemscore.Metal.Weighted>
-0.0000

> <Gold.Chemscore.Lipo.Weighted>
-15.0159

> <Gold.Chemscore.Internal_Hbond.Weighted>
0.0000

> <Gold.Chemscore.DEClash.Weighted>
1.5163

> <Gold.Chemscore.DEInternal.Weighted>
2.2717

> <Gold.Chemscore.Rot.Weighted>
7.0009

> <Gold.Chemscore.Internal.Correction.Weighted>
   9.000000E+99

> <Gold.Protein.RotatedTorsions>
[ 6907 6896 6895 6894 ] final   60.41 input  -60.11 | X-H torsion
[ 7974 7965 7964 7962 ] final -117.36 input  175.53 | X-H torsion
[ 8008 7997 7996 7995 ] final   97.57 input   59.86 | X-H torsion
[ 10167 10162 10161 10158 ] final  -95.49 input  -65.29 | X-H torsion
[ 10718 10713 10712 10709 ] final  106.89 input   66.30 | X-H torsion
[ 10763 10752 10751 10750 ] final  138.41 input  -60.55 | X-H torsion
[ 11005 11000 10999 10996 ] final  102.11 input  -57.11 | X-H torsion

> <Gold.Protein.ActiveResidues>
 VAL166  LYS551  ARG553  GLY616  TRP617  ASP618  TYR619  PRO620  LYS621  CYS622 
 ASP623  PHE694  ASN695  SER759  ASP760  ASP761  ALA762  ILE779  LEU786  VAL792 
 PHE793  MET794  SER795  GLU796  ALA797  LYS798  CYS799  TRP800  GLU811  SER814 

> <Gold.Protein.RotatedAtoms>
  152.4000  134.6302  160.0073 H   0  0  0  0  0  0  0  0  0  0  0  0  # atno 6907 bound_to 6896
  151.6510  133.3315  159.3160 H   0  0  0  0  0  0  0  0  0  0  0  0  # atno 6908 bound_to 6896
  150.7902  134.6962  159.6569 H   0  0  0  0  0  0  0  0  0  0  0  0  # atno 6909 bound_to 6896
  145.0861  140.8459  143.4010 H   0  0  0  0  0  0  0  0  0  0  0  0  # atno 7974 bound_to 7965
  156.0915  140.3256  155.7822 H   0  0  0  0  0  0  0  0  0  0  0  0  # atno 8008 bound_to 7997
  155.4988  140.0567  157.2959 H   0  0  0  0  0  0  0  0  0  0  0  0  # atno 8009 bound_to 7997
  154.4641  140.1980  156.0182 H   0  0  0  0  0  0  0  0  0  0  0  0  # atno 8010 bound_to 7997
  140.3036  143.3147  152.0222 H   0  0  0  0  0  0  0  0  0  0  0  0  # atno 10167 bound_to 10162
  157.6650  131.0861  150.6075 H   0  0  0  0  0  0  0  0  0  0  0  0  # atno 10718 bound_to 10713
  153.8891  135.3035  155.3447 H   0  0  0  0  0  0  0  0  0  0  0  0  # atno 10763 bound_to 10752
  154.7725  135.4878  153.9681 H   0  0  0  0  0  0  0  0  0  0  0  0  # atno 10764 bound_to 10752
  153.1308  135.6803  153.9280 H   0  0  0  0  0  0  0  0  0  0  0  0  # atno 10765 bound_to 10752
  139.8776  134.9211  156.5008 H   0  0  0  0  0  0  0  0  0  0  0  0  # atno 11005 bound_to 11000
  145.1120  139.2750  143.5632 LP  0  0  0  0  0  0  0  0  0  0  0  0  # atno 17320 bound_to 7965
  146.3531  140.0719  142.8623 LP  0  0  0  0  0  0  0  0  0  0  0  0  # atno 17321 bound_to 7965
  139.4909  144.6437  151.6823 LP  0  0  0  0  0  0  0  0  0  0  0  0  # atno 17342 bound_to 10162
  140.5629  144.0238  150.6178 LP  0  0  0  0  0  0  0  0  0  0  0  0  # atno 17343 bound_to 10162
  156.6376  130.4449  149.5764 LP  0  0  0  0  0  0  0  0  0  0  0  0  # atno 17370 bound_to 10713
  156.2234  130.6751  151.1391 LP  0  0  0  0  0  0  0  0  0  0  0  0  # atno 17371 bound_to 10713
  140.8591  133.8074  155.9246 LP  0  0  0  0  0  0  0  0  0  0  0  0  # atno 17394 bound_to 11000
  140.9068  134.2310  157.5009 LP  0  0  0  0  0  0  0  0  0  0  0  0  # atno 17395 bound_to 11000

$$$$
