AV-unprocessed.smi:2344|AV-procd|sdf|9360|dock3
  -GOLD-   2272012583D 1   1.00000     0.00000
 Structure written by MMmdl.
 35 36  0  0  0  0  0  0  0  0  1 V2000
  153.6770  142.8678  163.1639 C   0  0  0  0  0  0  0  0  0  0  0  0
  152.9507  142.8604  161.8353 C   0  0  0  0  0  0  0  0  0  0  0  0
  152.0082  143.8559  161.5156 C   0  0  0  0  0  0  0  0  0  0  0  0
  151.3627  143.8026  160.2652 C   0  0  0  0  0  0  0  0  0  0  0  0
  151.6740  142.7587  159.3653 C   0  0  0  0  0  0  0  0  0  0  0  0
  150.9662  142.7951  158.1345 N   0  0  0  0  0  0  0  0  0  0  0  0
  150.6418  141.7670  157.3310 C   0  0  0  0  0  0  0  0  0  0  0  0
  150.9198  140.5849  157.5365 O   0  0  0  0  0  0  0  0  0  0  0  0
  149.9692  142.1896  156.2513 N   0  0  0  0  0  0  0  0  0  0  0  0
  149.5012  141.3290  155.1709 C   0  0  1  0  0  0  0  0  0  0  0  0
  148.6264  140.2331  155.7175 C   0  0  0  0  0  0  0  0  0  0  0  0
  147.3998  140.2465  155.2007 C   0  0  0  0  0  0  0  0  0  0  0  0
  147.2003  141.3642  154.2099 C   0  0  1  0  0  0  0  0  0  0  0  0
  146.0184  142.2852  154.5691 C   0  0  0  0  0  0  0  0  0  0  0  0
  144.8202  141.5549  154.7474 O   0  0  0  0  0  0  0  0  0  0  0  0
  148.5767  142.0770  154.1734 C   0  0  0  0  0  0  0  0  0  0  0  0
  152.5850  141.8050  159.6821 N   0  0  0  0  0  0  0  0  0  0  0  0
  153.2034  141.8568  160.8802 C   0  0  0  0  0  0  0  0  0  0  0  0
  150.3478  140.8745  154.6534 H   0  0  0  0  0  0  0  0  0  0  0  0
  147.0068  140.9087  153.2380 H   0  0  0  0  0  0  0  0  0  0  0  0
  153.1339  143.4560  163.9041 H   0  0  0  0  0  0  0  0  0  0  0  0
  154.6719  143.2972  163.0461 H   0  0  0  0  0  0  0  0  0  0  0  0
  153.7835  141.8534  163.5495 H   0  0  0  0  0  0  0  0  0  0  0  0
  151.7813  144.6483  162.2136 H   0  0  0  0  0  0  0  0  0  0  0  0
  150.6361  144.5585  160.0040 H   0  0  0  0  0  0  0  0  0  0  0  0
  150.6762  143.7119  157.8281 H   0  0  0  0  0  0  0  0  0  0  0  0
  149.7851  143.1777  156.1576 H   0  0  0  0  0  0  0  0  0  0  0  0
  148.9859  139.5183  156.4433 H   0  0  0  0  0  0  0  0  0  0  0  0
  146.6139  139.5473  155.4457 H   0  0  0  0  0  0  0  0  0  0  0  0
  146.2346  142.8366  155.4844 H   0  0  0  0  0  0  0  0  0  0  0  0
  145.8629  143.0234  153.7817 H   0  0  0  0  0  0  0  0  0  0  0  0
  144.7547  140.9120  154.0577 H   0  0  0  0  0  0  0  0  0  0  0  0
  148.4852  143.1357  154.4215 H   0  0  0  0  0  0  0  0  0  0  0  0
  148.9971  142.0332  153.1681 H   0  0  0  0  0  0  0  0  0  0  0  0
  153.9200  141.0737  161.0806 H   0  0  0  0  0  0  0  0  0  0  0  0
  1  2  1  0  0  0  0
  1 21  1  0  0  0  0
  1 22  1  0  0  0  0
  1 23  1  0  0  0  0
  2 18  1  0  0  0  0
  2  3  2  0  0  0  0
  3  4  1  0  0  0  0
  3 24  1  0  0  0  0
  4  5  2  0  0  0  0
  4 25  1  0  0  0  0
  5  6  1  0  0  0  0
  5 17  1  0  0  0  0
  6  7  1  0  0  0  0
  6 26  1  0  0  0  0
  7  8  2  0  0  0  0
  7  9  1  0  0  0  0
  9 10  1  0  0  0  0
  9 27  1  0  0  0  0
 10 19  1  0  0  0  0
 10 16  1  0  0  0  0
 10 11  1  0  0  0  0
 11 12  2  0  0  0  0
 11 28  1  0  0  0  0
 12 13  1  0  0  0  0
 12 29  1  0  0  0  0
 13 20  1  0  0  0  0
 13 14  1  0  0  0  0
 13 16  1  0  0  0  0
 14 15  1  0  0  0  0
 14 30  1  0  0  0  0
 14 31  1  0  0  0  0
 15 32  1  0  0  0  0
 16 33  1  0  0  0  0
 16 34  1  0  0  0  0
 17 18  2  0  0  0  0
 18 35  1  0  0  0  0
M  END
> <s_m_source_file>
AV-unprocessed.smi

> <i_m_source_file_index>
2344

> <i_lp_mmshare_version>
43012

> <i_f3d_flags>
0

> <s_epik_input>
W0NIM11jMVtjSF1bY0hdYyhuW2NIXTEpW05IXUMoPU8pW05IXVtDQEBIXTJbQ0hdPVtDSF1bQ0BASF0oW0NIMl0yKVtDSDJdW09IXQ==

> <s_epik_cmdline>
J2VwaWtfcHl0aG9uJywgJy1waCcsICc3LjAnLCAnLXRuJywgJzgnLCAnLW1hJywgJzIwMCcsICctbWV0YWxfYmluZGluZycsICctaW1hZScsICc8aW5maWxlLm1hZT4nLCAnLW9tYWUnLCAnPG91dGZpbGUubWFlPic=

> <r_lp_tautomer_probability>
1

> <r_epik_Ionization_Penalty>
5.7643e-05

> <r_epik_Ionization_Penalty_Charging>
0

> <r_epik_Ionization_Penalty_Neutral>
5.7643e-05

> <r_epik_State_Penalty>
-0

> <r_epik_Charging_Adjusted_Penalty>
0

> <i_epik_Tot_Q>
0

> <i_epik_Tot_abs_Q>
0

> <r_epik_Metal_State_Penalty>
-0

> <b_epik_Metal_Only>
0

> <s_lp_Force_Field>
OPLS_2005

> <r_lp_Energy>
18.1017

> <b_lp_Chiralities_Consistent>
1

> <s_lp_Variant>
AV-unprocessed.smi:2344-4

> <Gold.Version>
5.8.1

> <Gold.Id.Protein>
6NUR|6NUR_protein|mol2

> <Gold.PLP.Fitness>
42.5939

> <Gold.PLP.PLP>
-37.1508

> <Gold.PLP.part.hbond>
-2.0181

> <Gold.PLP.part.metal>
0.0000

> <Gold.PLP.part.buried>
-2.2410

> <Gold.PLP.part.nonpolar>
-32.2145

> <Gold.PLP.part.repulsive>
0.1261

> <Gold.PLP.ligand.clash>
0.0000

> <Gold.PLP.ligand.torsion>
0.2253

> <Gold.PLP.Chemscore.Hbond>
1.9600

> <Gold.PLP.Chemscore.CHOScore>
0.0000

> <Gold.PLP.Chemscore.Metal>
0.0000

> <Gold.Chemscore.Hbonds>
donor molecule, donor type, donor heavy atom, donor atom, acceptor molecule, acceptor atom, score
      L1  H     9    27       P1  8028  1.00
      L1  H    15    32       P1 10175  0.80

> <Gold.PLP.Chemscore.Internal.Correction>
0.0136

> <Gold.Rescore>
     Score         DG    S(hbond)    S(metal)    S(lipo)     H(rot)  DE(clash)    DE(int)     intcor
     13.67     -16.77       1.68        0.00      88.22       1.82       0.73       2.37       ----

> <Gold.Chemscore.Fitness>
13.6743

> <Gold.Chemscore.DG>
-16.7736

> <Gold.Chemscore.ZeroCoef>
-5.4800

> <Gold.Chemscore.Hbond>
1.6846

> <Gold.Chemscore.Metal>
0.0000

> <Gold.Chemscore.Lipo>
88.2236

> <Gold.Chemscore.Internal_Hbond>
0.0000

> <Gold.Chemscore.DEClash>
0.7281

> <Gold.Chemscore.DEInternal>
2.3712

> <Gold.Chemscore.Rot>
1.8184

> <Gold.Chemscore.Internal.Correction>
   9.000000E+99

> <Gold.Chemscore.Hbonds>
donor molecule, donor type, donor heavy atom, donor atom, acceptor molecule, acceptor atom, score
      L1  H     9    27       P1  8028  0.99
      L1  H    15    32       P1 10175  0.73

> <Gold.Chemscore.Hbond.Weighted>
-5.6265

> <Gold.Chemscore.Metal.Weighted>
-0.0000

> <Gold.Chemscore.Lipo.Weighted>
-10.3222

> <Gold.Chemscore.Internal_Hbond.Weighted>
0.0000

> <Gold.Chemscore.DEClash.Weighted>
0.7281

> <Gold.Chemscore.DEInternal.Weighted>
2.3712

> <Gold.Chemscore.Rot.Weighted>
4.6551

> <Gold.Chemscore.Internal.Correction.Weighted>
   9.000000E+99

> <Gold.Protein.RotatedTorsions>
[ 6907 6896 6895 6894 ] final  -79.02 input  -60.11 | X-H torsion
[ 7974 7965 7964 7962 ] final -100.71 input  175.53 | X-H torsion
[ 8008 7997 7996 7995 ] final  175.25 input   59.86 | X-H torsion
[ 10167 10162 10161 10158 ] final    3.90 input  -65.29 | X-H torsion
[ 10718 10713 10712 10709 ] final  113.04 input   66.30 | X-H torsion
[ 10763 10752 10751 10750 ] final   86.23 input  -60.55 | X-H torsion
[ 11005 11000 10999 10996 ] final  -46.82 input  -57.11 | X-H torsion

> <Gold.Protein.ActiveResidues>
 VAL166  LYS551  ARG553  GLY616  TRP617  ASP618  TYR619  PRO620  LYS621  CYS622 
 ASP623  PHE694  ASN695  SER759  ASP760  ASP761  ALA762  ILE779  LEU786  VAL792 
 PHE793  MET794  SER795  GLU796  ALA797  LYS798  CYS799  TRP800  GLU811  SER814 

> <Gold.Protein.RotatedAtoms>
  150.6959  134.4183  159.5193 H   0  0  0  0  0  0  0  0  0  0  0  0  # atno 6907 bound_to 6896
  152.1930  134.8652  160.0525 H   0  0  0  0  0  0  0  0  0  0  0  0  # atno 6908 bound_to 6896
  151.9600  133.3657  159.4069 H   0  0  0  0  0  0  0  0  0  0  0  0  # atno 6909 bound_to 6896
  145.2910  140.9353  143.2877 H   0  0  0  0  0  0  0  0  0  0  0  0  # atno 7974 bound_to 7965
  156.0890  140.1413  156.9617 H   0  0  0  0  0  0  0  0  0  0  0  0  # atno 8008 bound_to 7997
  154.4630  140.0936  156.6992 H   0  0  0  0  0  0  0  0  0  0  0  0  # atno 8009 bound_to 7997
  155.4952  140.3449  155.4364 H   0  0  0  0  0  0  0  0  0  0  0  0  # atno 8010 bound_to 7997
  140.6562  143.7421  150.7658 H   0  0  0  0  0  0  0  0  0  0  0  0  # atno 10167 bound_to 10162
  157.6360  131.0977  150.6983 H   0  0  0  0  0  0  0  0  0  0  0  0  # atno 10718 bound_to 10713
  153.1551  135.4588  154.9692 H   0  0  0  0  0  0  0  0  0  0  0  0  # atno 10763 bound_to 10752
  154.7855  135.3202  154.7899 H   0  0  0  0  0  0  0  0  0  0  0  0  # atno 10764 bound_to 10752
  153.8398  135.6931  153.4859 H   0  0  0  0  0  0  0  0  0  0  0  0  # atno 10765 bound_to 10752
  141.0602  133.6711  156.3209 H   0  0  0  0  0  0  0  0  0  0  0  0  # atno 11005 bound_to 11000
  144.9172  139.4455  143.6558 LP  0  0  0  0  0  0  0  0  0  0  0  0  # atno 17320 bound_to 7965
  146.3185  139.8013  142.8965 LP  0  0  0  0  0  0  0  0  0  0  0  0  # atno 17321 bound_to 7965
  140.1081  143.4725  152.2386 LP  0  0  0  0  0  0  0  0  0  0  0  0  # atno 17342 bound_to 10162
  139.5785  144.7499  151.3701 LP  0  0  0  0  0  0  0  0  0  0  0  0  # atno 17343 bound_to 10162
  156.7314  130.4711  149.5499 LP  0  0  0  0  0  0  0  0  0  0  0  0  # atno 17370 bound_to 10713
  156.1600  130.6367  151.0706 LP  0  0  0  0  0  0  0  0  0  0  0  0  # atno 17371 bound_to 10713
  140.5883  134.5676  157.5494 LP  0  0  0  0  0  0  0  0  0  0  0  0  # atno 17394 bound_to 11000
  139.9426  134.7759  156.0641 LP  0  0  0  0  0  0  0  0  0  0  0  0  # atno 17395 bound_to 11000

$$$$
