AV-unprocessed.smi:737|AV-procd|sdf|3536|dock7
  -GOLD-   22720 0533D 1   1.00000     0.00000
 Structure written by MMmdl.
 45 47  0  0  0  0  0  0  0  0  1 V2000
  146.8568  138.1689  152.0840 C   0  0  0  0  0  0  0  0  0  0  0  0
  145.4073  138.0570  152.0589 N   0  0  0  0  0  0  0  0  0  0  0  0
  144.7888  136.8197  151.8315 C   0  0  0  0  0  0  0  0  0  0  0  0
  145.4507  135.8473  151.1627 N   0  0  0  0  0  0  0  0  0  0  0  0
  144.8200  134.6828  150.9633 C   0  0  0  0  0  0  0  0  0  0  0  0
  143.5841  134.3155  151.3364 N   0  0  0  0  0  0  0  0  0  0  0  0
  142.9204  135.2711  152.0011 C   0  0  0  0  0  0  0  0  0  0  0  0
  141.6334  135.1685  152.5007 N   0  0  0  0  0  0  0  0  0  0  0  0
  141.4629  136.3651  153.0574 C   0  0  0  0  0  0  0  0  0  0  0  0
  142.4858  137.2386  152.9796 N   0  0  0  0  0  0  0  0  0  0  0  0
  142.5106  138.5875  153.5184 C   0  0  0  0  0  0  0  0  0  0  0  0
  141.3941  139.4785  152.9358 C   0  0  2  0  0  0  0  0  0  0  0  0
  141.8089  140.8220  152.7860 O   0  0  0  0  0  0  0  0  0  0  0  0
  140.0967  139.4479  153.7577 C   0  0  0  0  0  0  0  0  0  0  0  0
  139.3658  138.2673  153.4549 O   0  0  0  0  0  0  0  0  0  0  0  0
  138.1326  138.5053  152.9066 C   0  0  0  0  0  0  0  0  0  0  0  0
  136.9963  138.6646  153.7357 C   0  0  0  0  0  0  0  0  0  0  0  0
  137.1123  138.5701  155.2463 C   0  0  0  0  0  0  0  0  0  0  0  0
  135.7352  138.9091  153.1540 C   0  0  0  0  0  0  0  0  0  0  0  0
  135.6012  138.9815  151.7552 C   0  0  0  0  0  0  0  0  0  0  0  0
  136.7269  138.8036  150.9300 C   0  0  0  0  0  0  0  0  0  0  0  0
  137.9930  138.5597  151.5004 C   0  0  0  0  0  0  0  0  0  0  0  0
  139.1973  138.3580  150.5997 C   0  0  0  0  0  0  0  0  0  0  0  0
  143.4795  136.5542  152.2817 C   0  0  0  0  0  0  0  0  0  0  0  0
  147.1458  139.2045  152.2623 H   0  0  0  0  0  0  0  0  0  0  0  0
  147.2862  137.8539  151.1324 H   0  0  0  0  0  0  0  0  0  0  0  0
  147.2781  137.5551  152.8808 H   0  0  0  0  0  0  0  0  0  0  0  0
  144.8483  138.8939  152.1453 H   0  0  0  0  0  0  0  0  0  0  0  0
  145.3848  133.9350  150.4268 H   0  0  0  0  0  0  0  0  0  0  0  0
  140.5377  136.6227  153.5523 H   0  0  0  0  0  0  0  0  0  0  0  0
  142.4067  138.5264  154.6026 H   0  0  0  0  0  0  0  0  0  0  0  0
  143.4948  139.0171  153.3363 H   0  0  0  0  0  0  0  0  0  0  0  0
  141.1611  139.1233  151.9313 H   0  0  0  0  0  0  0  0  0  0  0  0
  142.6098  140.8356  152.2846 H   0  0  0  0  0  0  0  0  0  0  0  0
  140.3151  139.5172  154.8242 H   0  0  0  0  0  0  0  0  0  0  0  0
  139.4898  140.3181  153.5024 H   0  0  0  0  0  0  0  0  0  0  0  0
  136.1738  138.2337  155.6878 H   0  0  0  0  0  0  0  0  0  0  0  0
  137.3561  139.5450  155.6679 H   0  0  0  0  0  0  0  0  0  0  0  0
  137.8889  137.8631  155.5396 H   0  0  0  0  0  0  0  0  0  0  0  0
  134.8644  139.0380  153.7801 H   0  0  0  0  0  0  0  0  0  0  0  0
  134.6326  139.1673  151.3147 H   0  0  0  0  0  0  0  0  0  0  0  0
  136.6136  138.8530  149.8570 H   0  0  0  0  0  0  0  0  0  0  0  0
  138.8926  138.1543  149.5728 H   0  0  0  0  0  0  0  0  0  0  0  0
  139.7994  137.5163  150.9433 H   0  0  0  0  0  0  0  0  0  0  0  0
  139.8223  139.2508  150.5992 H   0  0  0  0  0  0  0  0  0  0  0  0
  1  2  1  0  0  0  0
  1 25  1  0  0  0  0
  1 26  1  0  0  0  0
  1 27  1  0  0  0  0
  2  3  1  0  0  0  0
  2 28  1  0  0  0  0
  3 24  1  0  0  0  0
  3  4  2  0  0  0  0
  4  5  1  0  0  0  0
  5  6  2  0  0  0  0
  5 29  1  0  0  0  0
  6  7  1  0  0  0  0
  7 24  2  0  0  0  0
  7  8  1  0  0  0  0
  8  9  2  0  0  0  0
  9 10  1  0  0  0  0
  9 30  1  0  0  0  0
 10 11  1  0  0  0  0
 10 24  1  0  0  0  0
 11 12  1  0  0  0  0
 11 31  1  0  0  0  0
 11 32  1  0  0  0  0
 12 13  1  0  0  0  0
 12 14  1  0  0  0  0
 12 33  1  0  0  0  0
 13 34  1  0  0  0  0
 14 15  1  0  0  0  0
 14 35  1  0  0  0  0
 14 36  1  0  0  0  0
 15 16  1  0  0  0  0
 16 22  1  0  0  0  0
 16 17  2  0  0  0  0
 17 18  1  0  0  0  0
 17 19  1  0  0  0  0
 18 37  1  0  0  0  0
 18 38  1  0  0  0  0
 18 39  1  0  0  0  0
 19 20  2  0  0  0  0
 19 40  1  0  0  0  0
 20 21  1  0  0  0  0
 20 41  1  0  0  0  0
 21 22  2  0  0  0  0
 21 42  1  0  0  0  0
 22 23  1  0  0  0  0
 23 43  1  0  0  0  0
 23 44  1  0  0  0  0
 23 45  1  0  0  0  0
M  END
> <s_m_source_file>
AV-unprocessed.smi

> <i_m_source_file_index>
737

> <i_lp_mmshare_version>
43012

> <i_f3d_flags>
0

> <s_epik_input>
bjFbY0hdbmMoW05IXVtDSDNdKWMoYzEyKW4oW2NIXW4yKVtDSDJdW0NASF0oW09IXSlbQ0gyXU9jM2MoW0NIM10pW2NIXVtjSF1bY0hdYzNbQ0gzXQ==

> <s_epik_cmdline>
J2VwaWtfcHl0aG9uJywgJy1waCcsICc3LjAnLCAnLXRuJywgJzgnLCAnLW1hJywgJzIwMCcsICctbWV0YWxfYmluZGluZycsICctaW1hZScsICc8aW5maWxlLm1hZT4nLCAnLW9tYWUnLCAnPG91dGZpbGUubWFlPic=

> <r_lp_tautomer_probability>
1

> <r_epik_Ionization_Penalty>
0.0070961

> <r_epik_Ionization_Penalty_Charging>
0

> <r_epik_Ionization_Penalty_Neutral>
0.0070961

> <r_epik_State_Penalty>
-0

> <r_epik_Charging_Adjusted_Penalty>
0

> <i_epik_Tot_Q>
0

> <i_epik_Tot_abs_Q>
0

> <r_epik_Metal_State_Penalty>
-0

> <b_epik_Metal_Only>
0

> <s_lp_Force_Field>
OPLS_2005

> <r_lp_Energy>
18.2803

> <b_lp_Chiralities_Consistent>
1

> <s_lp_Variant>
AV-unprocessed.smi:737-1

> <Gold.Version>
5.8.1

> <Gold.Id.Protein>
6NUR|6NUR_protein|mol2

> <Gold.PLP.Fitness>
43.6970

> <Gold.PLP.PLP>
-34.7494

> <Gold.PLP.part.hbond>
-3.9201

> <Gold.PLP.part.metal>
0.0000

> <Gold.PLP.part.buried>
-4.0374

> <Gold.PLP.part.nonpolar>
-29.5520

> <Gold.PLP.part.repulsive>
1.0492

> <Gold.PLP.ligand.clash>
0.0000

> <Gold.PLP.ligand.torsion>
1.5299

> <Gold.PLP.Chemscore.Hbond>
1.9600

> <Gold.PLP.Chemscore.CHOScore>
1.9974

> <Gold.PLP.Chemscore.Metal>
0.0000

> <Gold.Chemscore.Hbonds>
donor molecule, donor type, donor heavy atom, donor atom, acceptor molecule, acceptor atom, score
      L1  H     2    28       P1 10175  1.00

> <Gold.PLP.Chemscore.Internal.Correction>
0.1353

> <Gold.Rescore>
     Score         DG    S(hbond)    S(metal)    S(lipo)     H(rot)  DE(clash)    DE(int)     intcor
      8.03     -11.42       1.87        0.00      61.10       2.91       0.22       3.17       ----

> <Gold.Chemscore.Fitness>
8.0345

> <Gold.Chemscore.DG>
-11.4174

> <Gold.Chemscore.ZeroCoef>
-5.4800

> <Gold.Chemscore.Hbond>
1.8652

> <Gold.Chemscore.Metal>
0.0000

> <Gold.Chemscore.Lipo>
61.1018

> <Gold.Chemscore.Internal_Hbond>
0.0000

> <Gold.Chemscore.DEClash>
0.2162

> <Gold.Chemscore.DEInternal>
3.1667

> <Gold.Chemscore.Rot>
2.9067

> <Gold.Chemscore.Internal.Correction>
   9.000000E+99

> <Gold.Chemscore.Hbonds>
donor molecule, donor type, donor heavy atom, donor atom, acceptor molecule, acceptor atom, score
      L1  H     2    28       P1 10175  0.98

> <Gold.Chemscore.Hbond.Weighted>
-6.2297

> <Gold.Chemscore.Metal.Weighted>
-0.0000

> <Gold.Chemscore.Lipo.Weighted>
-7.1489

> <Gold.Chemscore.Internal_Hbond.Weighted>
0.0000

> <Gold.Chemscore.DEClash.Weighted>
0.2162

> <Gold.Chemscore.DEInternal.Weighted>
3.1667

> <Gold.Chemscore.Rot.Weighted>
7.4412

> <Gold.Chemscore.Internal.Correction.Weighted>
   9.000000E+99

> <Gold.Protein.RotatedTorsions>
[ 6907 6896 6895 6894 ] final -148.54 input  -60.11 | X-H torsion
[ 7974 7965 7964 7962 ] final -114.28 input  175.53 | X-H torsion
[ 8008 7997 7996 7995 ] final  149.81 input   59.86 | X-H torsion
[ 10167 10162 10161 10158 ] final   20.71 input  -65.29 | X-H torsion
[ 10718 10713 10712 10709 ] final  162.00 input   66.30 | X-H torsion
[ 10763 10752 10751 10750 ] final   12.80 input  -60.55 | X-H torsion
[ 11005 11000 10999 10996 ] final -141.32 input  -57.11 | X-H torsion

> <Gold.Protein.ActiveResidues>
 VAL166  LYS551  ARG553  GLY616  TRP617  ASP618  TYR619  PRO620  LYS621  CYS622 
 ASP623  PHE694  ASN695  SER759  ASP760  ASP761  ALA762  ILE779  LEU786  VAL792 
 PHE793  MET794  SER795  GLU796  ALA797  LYS798  CYS799  TRP800  GLU811  SER814 

> <Gold.Protein.RotatedAtoms>
  151.1714  133.4782  159.2593 H   0  0  0  0  0  0  0  0  0  0  0  0  # atno 6907 bound_to 6896
  151.1352  135.0151  159.8611 H   0  0  0  0  0  0  0  0  0  0  0  0  # atno 6908 bound_to 6896
  152.5461  134.1612  159.8612 H   0  0  0  0  0  0  0  0  0  0  0  0  # atno 6909 bound_to 6896
  145.1220  140.8674  143.3808 H   0  0  0  0  0  0  0  0  0  0  0  0  # atno 7974 bound_to 7965
  156.2740  140.2091  156.5918 H   0  0  0  0  0  0  0  0  0  0  0  0  # atno 8008 bound_to 7997
  154.6977  140.0524  157.0450 H   0  0  0  0  0  0  0  0  0  0  0  0  # atno 8009 bound_to 7997
  155.0779  140.3183  155.4613 H   0  0  0  0  0  0  0  0  0  0  0  0  # atno 8010 bound_to 7997
  140.5482  143.9556  150.6561 H   0  0  0  0  0  0  0  0  0  0  0  0  # atno 10167 bound_to 10162
  157.1286  131.0511  151.2382 H   0  0  0  0  0  0  0  0  0  0  0  0  # atno 10718 bound_to 10713
  153.1786  135.6824  153.8509 H   0  0  0  0  0  0  0  0  0  0  0  0  # atno 10763 bound_to 10752
  153.7849  135.3177  155.3372 H   0  0  0  0  0  0  0  0  0  0  0  0  # atno 10764 bound_to 10752
  154.8045  135.4757  154.0451 H   0  0  0  0  0  0  0  0  0  0  0  0  # atno 10765 bound_to 10752
  140.8336  134.2487  157.4845 H   0  0  0  0  0  0  0  0  0  0  0  0  # atno 11005 bound_to 11000
  145.0730  139.3017  143.5822 LP  0  0  0  0  0  0  0  0  0  0  0  0  # atno 17320 bound_to 7965
  146.3520  140.0211  142.8658 LP  0  0  0  0  0  0  0  0  0  0  0  0  # atno 17321 bound_to 7965
  140.2975  143.3283  152.1004 LP  0  0  0  0  0  0  0  0  0  0  0  0  # atno 17342 bound_to 10162
  139.5016  144.6717  151.6225 LP  0  0  0  0  0  0  0  0  0  0  0  0  # atno 17343 bound_to 10162
  157.4412  130.7545  149.7071 LP  0  0  0  0  0  0  0  0  0  0  0  0  # atno 17370 bound_to 10713
  155.9813  130.4021  150.3481 LP  0  0  0  0  0  0  0  0  0  0  0  0  # atno 17371 bound_to 10713
  139.8704  134.9599  156.4346 LP  0  0  0  0  0  0  0  0  0  0  0  0  # atno 17394 bound_to 11000
  140.8972  133.7806  155.9638 LP  0  0  0  0  0  0  0  0  0  0  0  0  # atno 17395 bound_to 11000

$$$$
