AV-unprocessed.smi:2880|AV-procd|sdf|11053|dock2
  -GOLD-   2272015523D 1   1.00000     0.00000
 Structure written by MMmdl.
 47 48  0  0  0  0  0  0  0  0  1 V2000
  146.3867  134.4365  163.2113 C   0  0  0  0  0  0  0  0  0  0  0  0
  146.7690  135.8425  162.7100 C   0  0  0  0  0  0  0  0  0  0  0  0
  145.4821  136.6962  162.6128 C   0  0  0  0  0  0  0  0  0  0  0  0
  147.7246  136.5127  163.7165 C   0  0  0  0  0  0  0  0  0  0  0  0
  147.4514  135.7165  161.4150 N   0  0  0  0  0  0  0  0  0  0  0  0
  147.7290  134.5567  160.7109 C   0  0  0  0  0  0  0  0  0  0  0  0
  148.3704  134.9039  159.5563 C   0  0  0  0  0  0  0  0  0  0  0  0
  148.4428  136.3198  159.6392 C   0  0  0  0  0  0  0  0  0  0  0  0
  149.0549  137.0754  158.6070 N   0  0  0  0  0  0  0  0  0  0  0  0
  150.3661  137.3110  158.4301 C   0  0  0  0  0  0  0  0  0  0  0  0
  151.2644  136.9093  159.1702 O   0  0  0  0  0  0  0  0  0  0  0  0
  150.5783  138.0440  157.3270 N   0  0  0  0  0  0  0  0  0  0  0  0
  151.8802  138.4694  156.8072 C   0  0  2  0  0  0  0  0  0  0  0  0
  152.4751  139.5678  157.7116 C   0  0  0  0  0  0  0  0  0  0  0  0
  151.7033  140.8938  157.6022 C   0  0  0  0  0  0  0  0  0  0  0  0
  151.6131  141.3643  156.1434 C   0  0  0  0  0  0  0  0  0  0  0  0
  150.9993  140.2809  155.2423 C   0  0  0  0  0  0  0  0  0  0  0  0
  151.7778  138.9508  155.3342 C   0  0  2  0  0  0  0  0  0  0  0  0
  151.1858  137.8963  154.3750 C   0  0  0  0  0  0  0  0  0  0  0  0
  152.2012  137.0687  153.8477 O   0  0  0  0  0  0  0  0  0  0  0  0
  147.8959  136.8060  160.7430 N   0  0  0  0  0  0  0  0  0  0  0  0
  145.8682  134.4846  164.1693 H   0  0  0  0  0  0  0  0  0  0  0  0
  147.2639  133.8036  163.3496 H   0  0  0  0  0  0  0  0  0  0  0  0
  145.7261  133.9319  162.5053 H   0  0  0  0  0  0  0  0  0  0  0  0
  144.7591  136.2586  161.9229 H   0  0  0  0  0  0  0  0  0  0  0  0
  145.6963  137.7105  162.2733 H   0  0  0  0  0  0  0  0  0  0  0  0
  144.9904  136.7792  163.5826 H   0  0  0  0  0  0  0  0  0  0  0  0
  147.2506  136.6358  164.6909 H   0  0  0  0  0  0  0  0  0  0  0  0
  148.0293  137.5018  163.3726 H   0  0  0  0  0  0  0  0  0  0  0  0
  148.6301  135.9247  163.8694 H   0  0  0  0  0  0  0  0  0  0  0  0
  147.4486  133.5842  161.0880 H   0  0  0  0  0  0  0  0  0  0  0  0
  148.7297  134.2472  158.7781 H   0  0  0  0  0  0  0  0  0  0  0  0
  148.4272  137.4674  157.9210 H   0  0  0  0  0  0  0  0  0  0  0  0
  149.7715  138.3256  156.7900 H   0  0  0  0  0  0  0  0  0  0  0  0
  152.5731  137.6269  156.8365 H   0  0  0  0  0  0  0  0  0  0  0  0
  152.4964  139.2322  158.7492 H   0  0  0  0  0  0  0  0  0  0  0  0
  153.5147  139.7382  157.4284 H   0  0  0  0  0  0  0  0  0  0  0  0
  150.6997  140.7734  158.0118 H   0  0  0  0  0  0  0  0  0  0  0  0
  152.1922  141.6572  158.2080 H   0  0  0  0  0  0  0  0  0  0  0  0
  151.0205  142.2776  156.0835 H   0  0  0  0  0  0  0  0  0  0  0  0
  152.6094  141.6191  155.7799 H   0  0  0  0  0  0  0  0  0  0  0  0
  149.9562  140.1226  155.5191 H   0  0  0  0  0  0  0  0  0  0  0  0
  150.9908  140.6351  154.2110 H   0  0  0  0  0  0  0  0  0  0  0  0
  152.7933  139.1575  154.9914 H   0  0  0  0  0  0  0  0  0  0  0  0
  150.4373  137.2786  154.8717 H   0  0  0  0  0  0  0  0  0  0  0  0
  150.6852  138.3862  153.5394 H   0  0  0  0  0  0  0  0  0  0  0  0
  152.0336  136.9351  152.9272 H   0  0  0  0  0  0  0  0  0  0  0  0
  1  2  1  0  0  0  0
  1 22  1  0  0  0  0
  1 23  1  0  0  0  0
  1 24  1  0  0  0  0
  2  3  1  0  0  0  0
  2  4  1  0  0  0  0
  2  5  1  0  0  0  0
  3 25  1  0  0  0  0
  3 26  1  0  0  0  0
  3 27  1  0  0  0  0
  4 28  1  0  0  0  0
  4 29  1  0  0  0  0
  4 30  1  0  0  0  0
  5 21  1  0  0  0  0
  5  6  1  0  0  0  0
  6  7  2  0  0  0  0
  6 31  1  0  0  0  0
  7  8  1  0  0  0  0
  7 32  1  0  0  0  0
  8  9  1  0  0  0  0
  8 21  2  0  0  0  0
  9 10  1  0  0  0  0
  9 33  1  0  0  0  0
 10 11  2  0  0  0  0
 10 12  1  0  0  0  0
 12 13  1  0  0  0  0
 12 34  1  0  0  0  0
 13 18  1  0  0  0  0
 13 14  1  0  0  0  0
 13 35  1  0  0  0  0
 14 15  1  0  0  0  0
 14 36  1  0  0  0  0
 14 37  1  0  0  0  0
 15 16  1  0  0  0  0
 15 38  1  0  0  0  0
 15 39  1  0  0  0  0
 16 17  1  0  0  0  0
 16 40  1  0  0  0  0
 16 41  1  0  0  0  0
 17 18  1  0  0  0  0
 17 42  1  0  0  0  0
 17 43  1  0  0  0  0
 18 19  1  0  0  0  0
 18 44  1  0  0  0  0
 19 20  1  0  0  0  0
 19 45  1  0  0  0  0
 19 46  1  0  0  0  0
 20 47  1  0  0  0  0
M  END
> <s_m_source_file>
AV-unprocessed.smi

> <i_m_source_file_index>
2880

> <i_lp_mmshare_version>
43012

> <i_f3d_flags>
0

> <s_epik_input>
W0NIM11DKFtDSDNdKShbQ0gzXSluMVtjSF1bY0hdYyhuMSlbTkhdQyg9TylbTkhdW0NAQEhdMltDSDJdW0NIMl1bQ0gyXVtDSDJdW0NASF0yW0NIMl1bT0hd

> <s_epik_cmdline>
J2VwaWtfcHl0aG9uJywgJy1waCcsICc3LjAnLCAnLXRuJywgJzgnLCAnLW1hJywgJzIwMCcsICctbWV0YWxfYmluZGluZycsICctaW1hZScsICc8aW5maWxlLm1hZT4nLCAnLW9tYWUnLCAnPG91dGZpbGUubWFlPic=

> <r_lp_tautomer_probability>
1

> <r_epik_Ionization_Penalty>
3.89283e-05

> <r_epik_Ionization_Penalty_Charging>
0

> <r_epik_Ionization_Penalty_Neutral>
3.89283e-05

> <r_epik_State_Penalty>
-0

> <r_epik_Charging_Adjusted_Penalty>
0

> <i_epik_Tot_Q>
0

> <i_epik_Tot_abs_Q>
0

> <r_epik_Metal_State_Penalty>
-0

> <b_epik_Metal_Only>
0

> <s_lp_Force_Field>
OPLS_2005

> <r_lp_Energy>
20.6401

> <b_lp_Chiralities_Consistent>
1

> <s_lp_Variant>
AV-unprocessed.smi:2880-3

> <Gold.Version>
5.8.1

> <Gold.Id.Protein>
6NUR|6NUR_protein|mol2

> <Gold.PLP.Fitness>
42.3597

> <Gold.PLP.PLP>
-33.2212

> <Gold.PLP.part.hbond>
-4.3935

> <Gold.PLP.part.metal>
0.0000

> <Gold.PLP.part.buried>
-2.5946

> <Gold.PLP.part.nonpolar>
-28.1198

> <Gold.PLP.part.repulsive>
0.1479

> <Gold.PLP.ligand.clash>
0.0000

> <Gold.PLP.ligand.torsion>
1.3123

> <Gold.PLP.Chemscore.Hbond>
3.9115

> <Gold.PLP.Chemscore.CHOScore>
0.0000

> <Gold.PLP.Chemscore.Metal>
0.0000

> <Gold.Chemscore.Hbonds>
donor molecule, donor type, donor heavy atom, donor atom, acceptor molecule, acceptor atom, score
      L1  H    20    47       P1  7949  1.00
      P1  H  6896  6907       L1    11  0.94
      P1  H  6931  6943       L1    21  0.64
      P1  H  6934  6947       L1    21  0.21
      P1  H 10752 10763       L1    20  0.90

> <Gold.PLP.Chemscore.Internal.Correction>
0.0287

> <Gold.Rescore>
     Score         DG    S(hbond)    S(metal)    S(lipo)     H(rot)  DE(clash)    DE(int)     intcor
     20.76     -25.60       4.32        0.00      91.63       1.97       3.14       1.70       ----

> <Gold.Chemscore.Fitness>
20.7561

> <Gold.Chemscore.DG>
-25.5981

> <Gold.Chemscore.ZeroCoef>
-5.4800

> <Gold.Chemscore.Hbond>
4.3214

> <Gold.Chemscore.Metal>
0.0000

> <Gold.Chemscore.Lipo>
91.6303

> <Gold.Chemscore.Internal_Hbond>
0.0000

> <Gold.Chemscore.DEClash>
3.1439

> <Gold.Chemscore.DEInternal>
1.6981

> <Gold.Chemscore.Rot>
1.9672

> <Gold.Chemscore.Internal.Correction>
   9.000000E+99

> <Gold.Chemscore.Hbonds>
donor molecule, donor type, donor heavy atom, donor atom, acceptor molecule, acceptor atom, score
      L1  H    20    47       P1  7949  0.96
      P1  H  6896  6907       L1    11  0.83
      P1  H  6931  6943       L1    21  0.54
      P1  H  6934  6947       L1    21  0.21
      P1  H 10752 10763       L1    20  0.20

> <Gold.Chemscore.Hbond.Weighted>
-14.4334

> <Gold.Chemscore.Metal.Weighted>
-0.0000

> <Gold.Chemscore.Lipo.Weighted>
-10.7207

> <Gold.Chemscore.Internal_Hbond.Weighted>
0.0000

> <Gold.Chemscore.DEClash.Weighted>
3.1439

> <Gold.Chemscore.DEInternal.Weighted>
1.6981

> <Gold.Chemscore.Rot.Weighted>
5.0360

> <Gold.Chemscore.Internal.Correction.Weighted>
   9.000000E+99

> <Gold.Protein.RotatedTorsions>
[ 6907 6896 6895 6894 ] final  -31.26 input  -60.11 | X-H torsion
[ 7974 7965 7964 7962 ] final   80.35 input  175.53 | X-H torsion
[ 8008 7997 7996 7995 ] final  117.36 input   59.86 | X-H torsion
[ 10167 10162 10161 10158 ] final -108.49 input  -65.29 | X-H torsion
[ 10718 10713 10712 10709 ] final  -71.68 input   66.30 | X-H torsion
[ 10763 10752 10751 10750 ] final   36.17 input  -60.55 | X-H torsion
[ 11005 11000 10999 10996 ] final  -53.27 input  -57.11 | X-H torsion

> <Gold.Protein.ActiveResidues>
 VAL166  LYS551  ARG553  GLY616  TRP617  ASP618  TYR619  PRO620  LYS621  CYS622 
 ASP623  PHE694  ASN695  SER759  ASP760  ASP761  ALA762  ILE779  LEU786  VAL792 
 PHE793  MET794  SER795  GLU796  ALA797  LYS798  CYS799  TRP800  GLU811  SER814 

> <Gold.Protein.RotatedAtoms>
  151.0944  134.9935  159.8418 H   0  0  0  0  0  0  0  0  0  0  0  0  # atno 6907 bound_to 6896
  152.5432  134.2026  159.8728 H   0  0  0  0  0  0  0  0  0  0  0  0  # atno 6908 bound_to 6896
  151.2064  133.4537  159.2630 H   0  0  0  0  0  0  0  0  0  0  0  0  # atno 6909 bound_to 6896
  145.6524  139.2451  143.1969 H   0  0  0  0  0  0  0  0  0  0  0  0  # atno 7974 bound_to 7965
  156.2490  140.2898  156.0666 H   0  0  0  0  0  0  0  0  0  0  0  0  # atno 8008 bound_to 7997
  155.1717  140.0402  157.2881 H   0  0  0  0  0  0  0  0  0  0  0  0  # atno 8009 bound_to 7997
  154.6321  140.2502  155.7428 H   0  0  0  0  0  0  0  0  0  0  0  0  # atno 8010 bound_to 7997
  140.1656  143.4084  152.1393 H   0  0  0  0  0  0  0  0  0  0  0  0  # atno 10167 bound_to 10162
  156.0352  130.4356  150.2480 H   0  0  0  0  0  0  0  0  0  0  0  0  # atno 10718 bound_to 10713
  153.0088  135.6313  154.1943 H   0  0  0  0  0  0  0  0  0  0  0  0  # atno 10763 bound_to 10752
  154.1686  135.2819  155.3089 H   0  0  0  0  0  0  0  0  0  0  0  0  # atno 10764 bound_to 10752
  154.5926  135.5613  153.7354 H   0  0  0  0  0  0  0  0  0  0  0  0  # atno 10765 bound_to 10752
  141.0967  133.6623  156.4148 H   0  0  0  0  0  0  0  0  0  0  0  0  # atno 11005 bound_to 11000
  146.1193  140.7330  142.9465 LP  0  0  0  0  0  0  0  0  0  0  0  0  # atno 17320 bound_to 7965
  144.7118  140.4066  143.7075 LP  0  0  0  0  0  0  0  0  0  0  0  0  # atno 17321 bound_to 7965
  139.5361  144.7211  151.4889 LP  0  0  0  0  0  0  0  0  0  0  0  0  # atno 17342 bound_to 10162
  140.6615  143.8488  150.6893 LP  0  0  0  0  0  0  0  0  0  0  0  0  # atno 17343 bound_to 10162
  157.0580  131.0081  151.3232 LP  0  0  0  0  0  0  0  0  0  0  0  0  # atno 17370 bound_to 10713
  157.5092  130.7928  149.7686 LP  0  0  0  0  0  0  0  0  0  0  0  0  # atno 17371 bound_to 10713
  140.5121  134.6385  157.5288 LP  0  0  0  0  0  0  0  0  0  0  0  0  # atno 17394 bound_to 11000
  139.9806  134.7143  155.9866 LP  0  0  0  0  0  0  0  0  0  0  0  0  # atno 17395 bound_to 11000

$$$$
