AV-unprocessed.smi:3245|AV-procd|sdf|12409|dock9
  -GOLD-   2272018293D 1   1.00000     0.00000
 Structure written by MMmdl.
 34 35  0  0  0  0  0  0  0  0  2 V2000
  149.5613  145.0463  160.1318 C   0  0  0  0  0  0  0  0  0  0  0  0
  150.4565  144.3872  159.0627 C   0  0  1  0  0  0  0  0  0  0  0  0
  151.9607  144.5348  159.3726 C   0  0  0  0  0  0  0  0  0  0  0  0
  152.4381  143.5676  160.3447 N   0  0  0  0  0  0  0  0  0  0  0  0
  153.3093  142.5163  160.1501 C   0  0  0  0  0  0  0  0  0  0  0  0
  153.4656  141.8900  161.3534 C   0  0  0  0  0  0  0  0  0  0  0  0
  152.6436  142.6448  162.2364 C   0  0  0  0  0  0  0  0  0  0  0  0
  152.0325  143.6502  161.6306 N   0  0  0  0  0  0  0  0  0  0  0  0
  150.1709  142.9607  158.9696 N   0  0  0  0  0  0  0  0  0  0  0  0
  150.9244  142.3093  157.9069 C   0  0  0  0  0  0  0  0  0  0  0  0
  150.5063  140.8329  157.7852 C   0  0  0  0  0  0  0  0  0  0  0  0
  150.9191  140.2430  156.5052 N   0  0  0  0  0  0  0  0  0  0  0  0
  152.0199  139.5022  156.3429 C   0  0  0  0  0  0  0  0  0  0  0  0
  152.8511  139.1856  157.1943 O   0  0  0  0  0  0  0  0  0  0  0  0
  152.0888  139.0994  154.8884 C   0  0  0  0  0  0  0  0  0  0  0  0
  150.9048  139.7203  154.3396 N   0  5  0  0  0  0  0  0  0  0  0  0
  150.2648  140.3780  155.3350 C   0  0  0  0  0  0  0  0  0  0  0  0
  149.2232  141.0260  155.2343 O   0  0  0  0  0  0  0  0  0  0  0  0
  149.7686  146.1128  160.2200 H   0  0  0  0  0  0  0  0  0  0  0  0
  149.7215  144.5963  161.1120 H   0  0  0  0  0  0  0  0  0  0  0  0
  148.5023  144.9546  159.8936 H   0  0  0  0  0  0  0  0  0  0  0  0
  150.2632  144.8506  158.0941 H   0  0  0  0  0  0  0  0  0  0  0  0
  152.5479  144.4192  158.4600 H   0  0  0  0  0  0  0  0  0  0  0  0
  152.1739  145.5342  159.7553 H   0  0  0  0  0  0  0  0  0  0  0  0
  153.7379  142.3026  159.1819 H   0  0  0  0  0  0  0  0  0  0  0  0
  154.0749  141.0253  161.5702 H   0  0  0  0  0  0  0  0  0  0  0  0
  152.4751  142.4938  163.2925 H   0  0  0  0  0  0  0  0  0  0  0  0
  150.3947  142.5133  159.8472 H   0  0  0  0  0  0  0  0  0  0  0  0
  150.7845  142.8195  156.9545 H   0  0  0  0  0  0  0  0  0  0  0  0
  151.9870  142.3623  158.1466 H   0  0  0  0  0  0  0  0  0  0  0  0
  150.9692  140.2657  158.5942 H   0  0  0  0  0  0  0  0  0  0  0  0
  149.4312  140.7268  157.9401 H   0  0  0  0  0  0  0  0  0  0  0  0
  153.0138  139.4688  154.4445 H   0  0  0  0  0  0  0  0  0  0  0  0
  152.0841  138.0123  154.8036 H   0  0  0  0  0  0  0  0  0  0  0  0
  1  2  1  0  0  0  0
  1 19  1  0  0  0  0
  1 20  1  0  0  0  0
  1 21  1  0  0  0  0
  2  3  1  0  0  0  0
  2  9  1  0  0  0  0
  2 22  1  0  0  0  0
  3  4  1  0  0  0  0
  3 23  1  0  0  0  0
  3 24  1  0  0  0  0
  4  8  1  0  0  0  0
  4  5  1  0  0  0  0
  5  6  2  0  0  0  0
  5 25  1  0  0  0  0
  6  7  1  0  0  0  0
  6 26  1  0  0  0  0
  7  8  2  0  0  0  0
  7 27  1  0  0  0  0
  9 10  1  0  0  0  0
  9 28  1  0  0  0  0
 10 11  1  0  0  0  0
 10 29  1  0  0  0  0
 10 30  1  0  0  0  0
 11 12  1  0  0  0  0
 11 31  1  0  0  0  0
 11 32  1  0  0  0  0
 12 17  1  0  0  0  0
 12 13  1  0  0  0  0
 13 14  2  0  0  0  0
 13 15  1  0  0  0  0
 15 16  1  0  0  0  0
 15 33  1  0  0  0  0
 15 34  1  0  0  0  0
 16 17  1  0  0  0  0
 17 18  2  0  0  0  0
M  CHG  1  16  -1
M  END
> <s_m_source_file>
AV-unprocessed.smi

> <i_m_source_file_index>
3245

> <i_lp_mmshare_version>
43012

> <i_f3d_flags>
0

> <s_epik_input>
bjFbY0hdW2NIXVtjSF1uMVtDSDJdW0NAQEhdKFtDSDNdKVtOSF1bQ0gyXVtDSDJdTjJDKD1PKVtDSDJdW05IXUMyPU8=

> <s_epik_cmdline>
J2VwaWtfcHl0aG9uJywgJy1waCcsICc3LjAnLCAnLXRuJywgJzgnLCAnLW1hJywgJzIwMCcsICctbWV0YWxfYmluZGluZycsICctaW1hZScsICc8aW5maWxlLm1hZT4nLCAnLW9tYWUnLCAnPG91dGZpbGUubWFlPic=

> <r_lp_tautomer_probability>
1

> <r_epik_Ionization_Penalty>
8.62027

> <r_epik_Ionization_Penalty_Charging>
6.28132

> <r_epik_Ionization_Penalty_Neutral>
2.33895

> <r_epik_State_Penalty>
8.57043

> <r_epik_Charging_Adjusted_Penalty>
14.8517

> <i_epik_Tot_Q>
-1

> <i_epik_Tot_abs_Q>
1

> <r_epik_Metal_State_Penalty>
4.56785

> <b_epik_Metal_Only>
1

> <s_lp_Force_Field>
OPLS_2005

> <r_lp_Energy>
21.4513

> <b_lp_Chiralities_Consistent>
1

> <s_lp_Variant>
AV-unprocessed.smi:3245-8

> <Gold.Version>
5.8.1

> <Gold.Id.Protein>
6NUR|6NUR_protein|mol2

> <Gold.PLP.Fitness>
48.5389

> <Gold.PLP.PLP>
-43.7833

> <Gold.PLP.part.hbond>
-2.2508

> <Gold.PLP.part.metal>
0.0000

> <Gold.PLP.part.buried>
-6.5028

> <Gold.PLP.part.nonpolar>
-35.1330

> <Gold.PLP.part.repulsive>
0.3767

> <Gold.PLP.ligand.clash>
0.0000

> <Gold.PLP.ligand.torsion>
0.6362

> <Gold.PLP.Chemscore.Hbond>
2.0000

> <Gold.PLP.Chemscore.CHOScore>
0.0000

> <Gold.PLP.Chemscore.Metal>
0.0000

> <Gold.Chemscore.Hbonds>
donor molecule, donor type, donor heavy atom, donor atom, acceptor molecule, acceptor atom, score
      P1  H  7989  7998       L1    16  0.90
      P1  H  7997  8010       L1    14  1.00

> <Gold.PLP.Chemscore.Internal.Correction>
0.0281

> <Gold.Rescore>
     Score         DG    S(hbond)    S(metal)    S(lipo)     H(rot)  DE(clash)    DE(int)     intcor
     11.34     -12.00       1.00        0.00      83.74       2.58       0.00       0.66       ----

> <Gold.Chemscore.Fitness>
11.3396

> <Gold.Chemscore.DG>
-12.0045

> <Gold.Chemscore.ZeroCoef>
-5.4800

> <Gold.Chemscore.Hbond>
0.9985

> <Gold.Chemscore.Metal>
0.0000

> <Gold.Chemscore.Lipo>
83.7368

> <Gold.Chemscore.Internal_Hbond>
0.0000

> <Gold.Chemscore.DEClash>
0.0021

> <Gold.Chemscore.DEInternal>
0.6627

> <Gold.Chemscore.Rot>
2.5811

> <Gold.Chemscore.Internal.Correction>
   9.000000E+99

> <Gold.Chemscore.Hbonds>
donor molecule, donor type, donor heavy atom, donor atom, acceptor molecule, acceptor atom, score
      P1  H  7989  7998       L1    16  0.09
      P1  H  7997  8010       L1    14  0.35

> <Gold.Chemscore.Hbond.Weighted>
-3.3348

> <Gold.Chemscore.Metal.Weighted>
-0.0000

> <Gold.Chemscore.Lipo.Weighted>
-9.7972

> <Gold.Chemscore.Internal_Hbond.Weighted>
0.0000

> <Gold.Chemscore.DEClash.Weighted>
0.0021

> <Gold.Chemscore.DEInternal.Weighted>
0.6627

> <Gold.Chemscore.Rot.Weighted>
6.6076

> <Gold.Chemscore.Internal.Correction.Weighted>
   9.000000E+99

> <Gold.Protein.RotatedTorsions>
[ 6907 6896 6895 6894 ] final  127.46 input  -60.11 | X-H torsion
[ 7974 7965 7964 7962 ] final   12.24 input  175.53 | X-H torsion
[ 8008 7997 7996 7995 ] final   63.24 input   59.86 | X-H torsion
[ 10167 10162 10161 10158 ] final   16.05 input  -65.29 | X-H torsion
[ 10718 10713 10712 10709 ] final -179.10 input   66.30 | X-H torsion
[ 10763 10752 10751 10750 ] final   49.51 input  -60.55 | X-H torsion
[ 11005 11000 10999 10996 ] final  -84.30 input  -57.11 | X-H torsion

> <Gold.Protein.ActiveResidues>
 VAL166  LYS551  ARG553  GLY616  TRP617  ASP618  TYR619  PRO620  LYS621  CYS622 
 ASP623  PHE694  ASN695  SER759  ASP760  ASP761  ALA762  ILE779  LEU786  VAL792 
 PHE793  MET794  SER795  GLU796  ALA797  LYS798  CYS799  TRP800  GLU811  SER814 

> <Gold.Protein.RotatedAtoms>
  152.3811  133.6547  159.6161 H   0  0  0  0  0  0  0  0  0  0  0  0  # atno 6907 bound_to 6896
  150.7741  133.9112  159.3379 H   0  0  0  0  0  0  0  0  0  0  0  0  # atno 6908 bound_to 6896
  151.6918  135.0946  160.0286 H   0  0  0  0  0  0  0  0  0  0  0  0  # atno 6909 bound_to 6896
  146.2355  139.9366  142.8489 H   0  0  0  0  0  0  0  0  0  0  0  0  # atno 7974 bound_to 7965
  155.6271  140.3496  155.4671 H   0  0  0  0  0  0  0  0  0  0  0  0  # atno 8008 bound_to 7997
  156.0033  140.1218  157.0550 H   0  0  0  0  0  0  0  0  0  0  0  0  # atno 8009 bound_to 7997
  154.4256  140.1096  156.5713 H   0  0  0  0  0  0  0  0  0  0  0  0  # atno 8010 bound_to 7997
  140.5824  143.8955  150.6801 H   0  0  0  0  0  0  0  0  0  0  0  0  # atno 10167 bound_to 10162
  156.8540  130.9729  151.3089 H   0  0  0  0  0  0  0  0  0  0  0  0  # atno 10718 bound_to 10713
  152.9786  135.5909  154.4102 H   0  0  0  0  0  0  0  0  0  0  0  0  # atno 10763 bound_to 10752
  154.3738  135.2767  155.2253 H   0  0  0  0  0  0  0  0  0  0  0  0  # atno 10764 bound_to 10752
  154.4197  135.6062  153.6057 H   0  0  0  0  0  0  0  0  0  0  0  0  # atno 10765 bound_to 10752
  141.1651  133.7338  156.8847 H   0  0  0  0  0  0  0  0  0  0  0  0  # atno 11005 bound_to 11000
  145.1993  140.9847  143.4165 LP  0  0  0  0  0  0  0  0  0  0  0  0  # atno 17320 bound_to 7965
  144.9788  139.3804  143.6272 LP  0  0  0  0  0  0  0  0  0  0  0  0  # atno 17321 bound_to 7965
  140.2457  143.3630  152.1448 LP  0  0  0  0  0  0  0  0  0  0  0  0  # atno 17342 bound_to 10162
  139.5177  144.6996  151.5531 LP  0  0  0  0  0  0  0  0  0  0  0  0  # atno 17343 bound_to 10162
  157.6287  130.8712  149.9235 LP  0  0  0  0  0  0  0  0  0  0  0  0  # atno 17370 bound_to 10713
  156.0812  130.3673  150.0576 LP  0  0  0  0  0  0  0  0  0  0  0  0  # atno 17371 bound_to 10713
  140.1690  134.9113  157.2810 LP  0  0  0  0  0  0  0  0  0  0  0  0  # atno 17394 bound_to 11000
  140.2523  134.3668  155.7437 LP  0  0  0  0  0  0  0  0  0  0  0  0  # atno 17395 bound_to 11000

$$$$
