AV-unprocessed.smi:1982|AV-procd|sdf|8022|dock9
  -GOLD-   2272010213D 1   1.00000     0.00000
 Structure written by MMmdl.
 36 37  0  0  0  0  0  0  0  0  1 V2000
  152.7322  143.2110  161.3233 C   0  0  0  0  0  0  0  0  0  0  0  0
  152.6154  143.0088  159.8011 C   0  0  2  0  0  0  0  0  0  0  0  0
  151.7246  144.1158  159.2019 C   0  0  0  0  0  0  0  0  0  0  0  0
  151.5955  143.9846  157.6804 C   0  0  0  0  0  0  0  0  0  0  0  0
  151.0380  142.6089  157.3039 C   0  0  0  0  0  0  0  0  0  0  0  0
  151.9121  141.4765  157.8736 C   0  0  2  0  0  0  0  0  0  0  0  0
  151.3106  140.1892  157.5366 N   0  0  0  0  0  0  0  0  0  0  0  0
  151.1121  139.7144  156.2969 C   0  0  0  0  0  0  0  0  0  0  0  0
  151.3455  140.3591  155.2752 O   0  0  0  0  0  0  0  0  0  0  0  0
  150.5762  138.2853  156.1936 C   0  0  0  0  0  0  0  0  0  0  0  0
  151.3792  137.3680  156.9829 N   0  0  0  0  0  0  0  0  0  0  0  0
  151.5854  137.2914  158.2994 C   0  0  0  0  0  0  0  0  0  0  0  0
  152.3776  136.2773  158.6118 N   0  0  0  0  0  0  0  0  0  0  0  0
  152.6644  135.7112  157.3811 N   0  0  0  0  0  0  0  0  0  0  0  0
  152.0754  136.3542  156.4107 N   0  0  0  0  0  0  0  0  0  0  0  0
  152.0931  141.5967  159.4112 C   0  0  1  0  0  0  0  0  0  0  0  0
  153.0035  140.4707  159.9510 C   0  0  0  0  0  0  0  0  0  0  0  0
  151.7829  143.0174  161.8236 H   0  0  0  0  0  0  0  0  0  0  0  0
  153.0277  144.2334  161.5607 H   0  0  0  0  0  0  0  0  0  0  0  0
  153.4849  142.5591  161.7648 H   0  0  0  0  0  0  0  0  0  0  0  0
  153.6144  143.1272  159.3783 H   0  0  0  0  0  0  0  0  0  0  0  0
  150.7331  144.0779  159.6552 H   0  0  0  0  0  0  0  0  0  0  0  0
  152.1348  145.0971  159.4432 H   0  0  0  0  0  0  0  0  0  0  0  0
  150.9447  144.7688  157.2927 H   0  0  0  0  0  0  0  0  0  0  0  0
  152.5702  144.1293  157.2127 H   0  0  0  0  0  0  0  0  0  0  0  0
  150.0178  142.5156  157.6795 H   0  0  0  0  0  0  0  0  0  0  0  0
  150.9763  142.5259  156.2180 H   0  0  0  0  0  0  0  0  0  0  0  0
  152.9014  141.5429  157.4159 H   0  0  0  0  0  0  0  0  0  0  0  0
  151.0775  139.5859  158.3124 H   0  0  0  0  0  0  0  0  0  0  0  0
  149.5403  138.2537  156.5347 H   0  0  0  0  0  0  0  0  0  0  0  0
  150.5871  137.9527  155.1550 H   0  0  0  0  0  0  0  0  0  0  0  0
  151.1504  137.9657  159.0223 H   0  0  0  0  0  0  0  0  0  0  0  0
  151.1113  141.4698  159.8709 H   0  0  0  0  0  0  0  0  0  0  0  0
  154.0190  140.5659  159.5653 H   0  0  0  0  0  0  0  0  0  0  0  0
  152.6388  139.4815  159.6742 H   0  0  0  0  0  0  0  0  0  0  0  0
  153.0572  140.4778  161.0388 H   0  0  0  0  0  0  0  0  0  0  0  0
  1  2  1  0  0  0  0
  1 18  1  0  0  0  0
  1 19  1  0  0  0  0
  1 20  1  0  0  0  0
  2 16  1  0  0  0  0
  2  3  1  0  0  0  0
  2 21  1  0  0  0  0
  3  4  1  0  0  0  0
  3 22  1  0  0  0  0
  3 23  1  0  0  0  0
  4  5  1  0  0  0  0
  4 24  1  0  0  0  0
  4 25  1  0  0  0  0
  5  6  1  0  0  0  0
  5 26  1  0  0  0  0
  5 27  1  0  0  0  0
  6  7  1  0  0  0  0
  6 16  1  0  0  0  0
  6 28  1  0  0  0  0
  7  8  1  0  0  0  0
  7 29  1  0  0  0  0
  8  9  2  0  0  0  0
  8 10  1  0  0  0  0
 10 11  1  0  0  0  0
 10 30  1  0  0  0  0
 10 31  1  0  0  0  0
 11 15  1  0  0  0  0
 11 12  1  0  0  0  0
 12 13  2  0  0  0  0
 12 32  1  0  0  0  0
 13 14  1  0  0  0  0
 14 15  2  0  0  0  0
 16 17  1  0  0  0  0
 16 33  1  0  0  0  0
 17 34  1  0  0  0  0
 17 35  1  0  0  0  0
 17 36  1  0  0  0  0
M  END
> <s_m_source_file>
AV-unprocessed.smi

> <i_m_source_file_index>
1982

> <i_lp_mmshare_version>
43012

> <i_f3d_flags>
0

> <s_epik_input>
W0NIM11bQ0BASF0xW0NIMl1bQ0gyXVtDSDJdW0NASF0oW0NASF0xW0NIM10pW05IXUMoPU8pW0NIMl1uMltjSF1ubm4y

> <s_epik_cmdline>
J2VwaWtfcHl0aG9uJywgJy1waCcsICc3LjAnLCAnLXRuJywgJzgnLCAnLW1hJywgJzIwMCcsICctbWV0YWxfYmluZGluZycsICctaW1hZScsICc8aW5maWxlLm1hZT4nLCAnLW9tYWUnLCAnPG91dGZpbGUubWFlPic=

> <r_lp_tautomer_probability>
1

> <r_epik_Ionization_Penalty>
5.03816e-07

> <r_epik_Ionization_Penalty_Charging>
0

> <r_epik_Ionization_Penalty_Neutral>
5.03816e-07

> <r_epik_State_Penalty>
-0

> <r_epik_Charging_Adjusted_Penalty>
0

> <i_epik_Tot_Q>
0

> <i_epik_Tot_abs_Q>
0

> <r_epik_Metal_State_Penalty>
-0

> <b_epik_Metal_Only>
0

> <s_lp_Force_Field>
OPLS_2005

> <r_lp_Energy>
13.7929

> <b_lp_Chiralities_Consistent>
1

> <s_lp_Variant>
AV-unprocessed.smi:1982-3

> <Gold.Version>
5.8.1

> <Gold.Id.Protein>
6NUR|6NUR_protein|mol2

> <Gold.PLP.Fitness>
40.5989

> <Gold.PLP.PLP>
-33.1764

> <Gold.PLP.part.hbond>
-3.7453

> <Gold.PLP.part.metal>
0.0000

> <Gold.PLP.part.buried>
-5.2994

> <Gold.PLP.part.nonpolar>
-24.6237

> <Gold.PLP.part.repulsive>
0.0757

> <Gold.PLP.ligand.clash>
0.0000

> <Gold.PLP.ligand.torsion>
0.0966

> <Gold.PLP.Chemscore.Hbond>
2.5360

> <Gold.PLP.Chemscore.CHOScore>
0.0000

> <Gold.PLP.Chemscore.Metal>
0.0000

> <Gold.Chemscore.Hbonds>
donor molecule, donor type, donor heavy atom, donor atom, acceptor molecule, acceptor atom, score
      P1  H  6896  6909       L1    13  0.56
      P1  H  7989  7998       L1     9  0.96
      P1  H 10752 10763       L1    15  0.95

> <Gold.PLP.Chemscore.Internal.Correction>
0.0077

> <Gold.Rescore>
     Score         DG    S(hbond)    S(metal)    S(lipo)     H(rot)  DE(clash)    DE(int)     intcor
     17.69     -17.89       2.14        0.00      86.77       1.91       0.03       0.17       ----

> <Gold.Chemscore.Fitness>
17.6859

> <Gold.Chemscore.DG>
-17.8866

> <Gold.Chemscore.ZeroCoef>
-5.4800

> <Gold.Chemscore.Hbond>
2.1358

> <Gold.Chemscore.Metal>
0.0000

> <Gold.Chemscore.Lipo>
86.7672

> <Gold.Chemscore.Internal_Hbond>
0.0000

> <Gold.Chemscore.DEClash>
0.0323

> <Gold.Chemscore.DEInternal>
0.1685

> <Gold.Chemscore.Rot>
1.9058

> <Gold.Chemscore.Internal.Correction>
   9.000000E+99

> <Gold.Chemscore.Hbonds>
donor molecule, donor type, donor heavy atom, donor atom, acceptor molecule, acceptor atom, score
      P1  H  6896  6909       L1    13  0.52
      P1  H  7989  7998       L1     9  0.92
      P1  H 10752 10763       L1    15  0.20

> <Gold.Chemscore.Hbond.Weighted>
-7.1337

> <Gold.Chemscore.Metal.Weighted>
-0.0000

> <Gold.Chemscore.Lipo.Weighted>
-10.1518

> <Gold.Chemscore.Internal_Hbond.Weighted>
0.0000

> <Gold.Chemscore.DEClash.Weighted>
0.0323

> <Gold.Chemscore.DEInternal.Weighted>
0.1685

> <Gold.Chemscore.Rot.Weighted>
4.8788

> <Gold.Chemscore.Internal.Correction.Weighted>
   9.000000E+99

> <Gold.Protein.RotatedTorsions>
[ 6907 6896 6895 6894 ] final  137.87 input  -60.11 | X-H torsion
[ 7974 7965 7964 7962 ] final  143.94 input  175.53 | X-H torsion
[ 8008 7997 7996 7995 ] final  132.25 input   59.86 | X-H torsion
[ 10167 10162 10161 10158 ] final  177.83 input  -65.29 | X-H torsion
[ 10718 10713 10712 10709 ] final  -55.32 input   66.30 | X-H torsion
[ 10763 10752 10751 10750 ] final   75.93 input  -60.55 | X-H torsion
[ 11005 11000 10999 10996 ] final -177.22 input  -57.11 | X-H torsion

> <Gold.Protein.ActiveResidues>
 VAL166  LYS551  ARG553  GLY616  TRP617  ASP618  TYR619  PRO620  LYS621  CYS622 
 ASP623  PHE694  ASN695  SER759  ASP760  ASP761  ALA762  ILE779  LEU786  VAL792 
 PHE793  MET794  SER795  GLU796  ALA797  LYS798  CYS799  TRP800  GLU811  SER814 

> <Gold.Protein.RotatedAtoms>
  152.2731  133.5401  159.5451 H   0  0  0  0  0  0  0  0  0  0  0  0  # atno 6907 bound_to 6896
  150.7167  134.0669  159.3860 H   0  0  0  0  0  0  0  0  0  0  0  0  # atno 6908 bound_to 6896
  151.8583  135.0533  160.0517 H   0  0  0  0  0  0  0  0  0  0  0  0  # atno 6909 bound_to 6896
  144.8878  139.5603  143.5812 H   0  0  0  0  0  0  0  0  0  0  0  0  # atno 7974 bound_to 7965
  156.2980  140.2551  156.3059 H   0  0  0  0  0  0  0  0  0  0  0  0  # atno 8008 bound_to 7997
  154.9373  140.0397  157.2097 H   0  0  0  0  0  0  0  0  0  0  0  0  # atno 8009 bound_to 7997
  154.8160  140.2852  155.5824 H   0  0  0  0  0  0  0  0  0  0  0  0  # atno 8010 bound_to 7997
  139.5269  144.2752  152.0594 H   0  0  0  0  0  0  0  0  0  0  0  0  # atno 10167 bound_to 10162
  156.1378  130.4156  150.0155 H   0  0  0  0  0  0  0  0  0  0  0  0  # atno 10718 bound_to 10713
  153.0689  135.4970  154.8261 H   0  0  0  0  0  0  0  0  0  0  0  0  # atno 10763 bound_to 10752
  154.6994  135.2999  154.9366 H   0  0  0  0  0  0  0  0  0  0  0  0  # atno 10764 bound_to 10752
  154.0095  135.6756  153.4817 H   0  0  0  0  0  0  0  0  0  0  0  0  # atno 10765 bound_to 10752
  140.4434  134.6411  157.4768 H   0  0  0  0  0  0  0  0  0  0  0  0  # atno 11005 bound_to 11000
  146.3035  139.7504  142.9073 LP  0  0  0  0  0  0  0  0  0  0  0  0  # atno 17320 bound_to 7965
  145.3837  141.0362  143.3163 LP  0  0  0  0  0  0  0  0  0  0  0  0  # atno 17321 bound_to 7965
  140.2210  144.4466  150.6342 LP  0  0  0  0  0  0  0  0  0  0  0  0  # atno 17342 bound_to 10162
  140.6418  143.2205  151.6272 LP  0  0  0  0  0  0  0  0  0  0  0  0  # atno 17343 bound_to 10162
  156.8049  130.9304  151.3645 LP  0  0  0  0  0  0  0  0  0  0  0  0  # atno 17370 bound_to 10713
  157.6548  130.8915  149.9707 LP  0  0  0  0  0  0  0  0  0  0  0  0  # atno 17371 bound_to 10713
  140.0055  134.6771  155.9462 LP  0  0  0  0  0  0  0  0  0  0  0  0  # atno 17394 bound_to 11000
  141.1696  133.6537  156.4602 LP  0  0  0  0  0  0  0  0  0  0  0  0  # atno 17395 bound_to 11000

$$$$
