AV-unprocessed.smi:2945|AV-procd|sdf|11278|dock9
  -GOLD-   2272016173D 1   1.00000     0.00000
 Structure written by MMmdl.
 36 37  0  0  0  0  0  0  0  0  1 V2000
  153.9360  141.9631  160.4841 C   0  0  0  0  0  0  0  0  0  0  0  0
  152.8917  142.5460  159.5947 C   0  0  0  0  0  0  0  0  0  0  0  0
  151.7936  142.0162  158.9777 C   0  0  0  0  0  0  0  0  0  0  0  0
  151.2448  143.1306  158.2893 C   0  0  0  0  0  0  0  0  0  0  0  0
  150.0663  142.9958  157.5123 N   0  0  0  0  0  0  0  0  0  0  0  0
  149.2453  141.9343  157.4434 C   0  0  0  0  0  0  0  0  0  0  0  0
  149.3850  140.8878  158.0769 O   0  0  0  0  0  0  0  0  0  0  0  0
  148.2367  142.1611  156.5888 N   0  0  0  0  0  0  0  0  0  0  0  0
  147.1592  141.2277  156.2528 C   0  0  2  0  0  0  0  0  0  0  0  0
  147.7466  139.9830  155.5574 C   0  0  0  0  0  0  0  0  0  0  0  0
  148.2724  140.2991  154.1465 C   0  0  0  0  0  0  0  0  0  0  0  0
  147.1846  140.9531  153.2814 C   0  0  0  0  0  0  0  0  0  0  0  0
  146.6095  142.2078  153.9582 C   0  0  0  0  0  0  0  0  0  0  0  0
  146.0732  141.8958  155.3710 C   0  0  2  0  0  0  0  0  0  0  0  0
  145.4457  143.1384  156.0255 C   0  0  0  0  0  0  0  0  0  0  0  0
  151.9452  144.2399  158.4680 N   0  0  0  0  0  0  0  0  0  0  0  0
  153.0048  143.8708  159.3052 O   0  0  0  0  0  0  0  0  0  0  0  0
  153.7047  140.9265  160.7298 H   0  0  0  0  0  0  0  0  0  0  0  0
  154.0068  142.5228  161.4168 H   0  0  0  0  0  0  0  0  0  0  0  0
  154.9124  141.9863  159.9997 H   0  0  0  0  0  0  0  0  0  0  0  0
  151.4413  140.9960  159.0164 H   0  0  0  0  0  0  0  0  0  0  0  0
  149.8271  143.7910  156.9392 H   0  0  0  0  0  0  0  0  0  0  0  0
  148.2108  143.0558  156.1224 H   0  0  0  0  0  0  0  0  0  0  0  0
  146.6811  140.8851  157.1721 H   0  0  0  0  0  0  0  0  0  0  0  0
  148.5428  139.5514  156.1652 H   0  0  0  0  0  0  0  0  0  0  0  0
  146.9738  139.2168  155.4844 H   0  0  0  0  0  0  0  0  0  0  0  0
  149.1356  140.9623  154.2124 H   0  0  0  0  0  0  0  0  0  0  0  0
  148.6250  139.3844  153.6694 H   0  0  0  0  0  0  0  0  0  0  0  0
  147.5933  141.2119  152.3043 H   0  0  0  0  0  0  0  0  0  0  0  0
  146.3829  140.2360  153.1003 H   0  0  0  0  0  0  0  0  0  0  0  0
  147.3790  142.9788  154.0124 H   0  0  0  0  0  0  0  0  0  0  0  0
  145.8103  142.6177  153.3397 H   0  0  0  0  0  0  0  0  0  0  0  0
  145.2686  141.1680  155.2542 H   0  0  0  0  0  0  0  0  0  0  0  0
  146.1664  143.9502  156.1269 H   0  0  0  0  0  0  0  0  0  0  0  0
  145.0633  142.9058  157.0196 H   0  0  0  0  0  0  0  0  0  0  0  0
  144.6117  143.5129  155.4317 H   0  0  0  0  0  0  0  0  0  0  0  0
  1  2  1  0  0  0  0
  1 18  1  0  0  0  0
  1 19  1  0  0  0  0
  1 20  1  0  0  0  0
  2 17  1  0  0  0  0
  2  3  2  0  0  0  0
  3  4  1  0  0  0  0
  3 21  1  0  0  0  0
  4  5  1  0  0  0  0
  4 16  2  0  0  0  0
  5  6  1  0  0  0  0
  5 22  1  0  0  0  0
  6  7  2  0  0  0  0
  6  8  1  0  0  0  0
  8  9  1  0  0  0  0
  8 23  1  0  0  0  0
  9 14  1  0  0  0  0
  9 10  1  0  0  0  0
  9 24  1  0  0  0  0
 10 11  1  0  0  0  0
 10 25  1  0  0  0  0
 10 26  1  0  0  0  0
 11 12  1  0  0  0  0
 11 27  1  0  0  0  0
 11 28  1  0  0  0  0
 12 13  1  0  0  0  0
 12 29  1  0  0  0  0
 12 30  1  0  0  0  0
 13 14  1  0  0  0  0
 13 31  1  0  0  0  0
 13 32  1  0  0  0  0
 14 15  1  0  0  0  0
 14 33  1  0  0  0  0
 15 34  1  0  0  0  0
 15 35  1  0  0  0  0
 15 36  1  0  0  0  0
 16 17  1  0  0  0  0
M  END
> <s_m_source_file>
AV-unprocessed.smi

> <i_m_source_file_index>
2945

> <i_lp_mmshare_version>
43012

> <i_f3d_flags>
0

> <s_epik_input>
W0NIM11jMVtjSF1jKG5vMSlbTkhdQyg9TylbTkhdW0NAQEhdMltDSDJdW0NIMl1bQ0gyXVtDSDJdW0NASF0yW0NIM10=

> <s_epik_cmdline>
J2VwaWtfcHl0aG9uJywgJy1waCcsICc3LjAnLCAnLXRuJywgJzgnLCAnLW1hJywgJzIwMCcsICctbWV0YWxfYmluZGluZycsICctaW1hZScsICc8aW5maWxlLm1hZT4nLCAnLW9tYWUnLCAnPG91dGZpbGUubWFlPic=

> <r_lp_tautomer_probability>
1

> <r_epik_Ionization_Penalty>
2.357e-05

> <r_epik_Ionization_Penalty_Charging>
0

> <r_epik_Ionization_Penalty_Neutral>
2.357e-05

> <r_epik_State_Penalty>
-0

> <r_epik_Charging_Adjusted_Penalty>
0

> <i_epik_Tot_Q>
0

> <i_epik_Tot_abs_Q>
0

> <r_epik_Metal_State_Penalty>
-0

> <b_epik_Metal_Only>
0

> <s_lp_Force_Field>
OPLS_2005

> <r_lp_Energy>
7.46694

> <b_lp_Chiralities_Consistent>
1

> <s_lp_Variant>
AV-unprocessed.smi:2945-3

> <Gold.Version>
5.8.1

> <Gold.Id.Protein>
6NUR|6NUR_protein|mol2

> <Gold.PLP.Fitness>
35.8394

> <Gold.PLP.PLP>
-29.9371

> <Gold.PLP.part.hbond>
-2.0000

> <Gold.PLP.part.metal>
0.0000

> <Gold.PLP.part.buried>
-5.8072

> <Gold.PLP.part.nonpolar>
-21.3740

> <Gold.PLP.part.repulsive>
0.1257

> <Gold.PLP.ligand.clash>
0.0000

> <Gold.PLP.ligand.torsion>
0.0522

> <Gold.PLP.Chemscore.Hbond>
2.0000

> <Gold.PLP.Chemscore.CHOScore>
0.0000

> <Gold.PLP.Chemscore.Metal>
0.0000

> <Gold.Chemscore.Hbonds>
donor molecule, donor type, donor heavy atom, donor atom, acceptor molecule, acceptor atom, score
      L1  H     5    22       P1  8028  1.00
      L1  H     8    23       P1  8028  1.00

> <Gold.PLP.Chemscore.Internal.Correction>
0.0067

> <Gold.Rescore>
     Score         DG    S(hbond)    S(metal)    S(lipo)     H(rot)  DE(clash)    DE(int)     intcor
     14.84     -16.31       1.80        0.00      63.10       1.00       0.05       1.42       ----

> <Gold.Chemscore.Fitness>
14.8415

> <Gold.Chemscore.DG>
-16.3115

> <Gold.Chemscore.ZeroCoef>
-5.4800

> <Gold.Chemscore.Hbond>
1.7991

> <Gold.Chemscore.Metal>
0.0000

> <Gold.Chemscore.Lipo>
63.0982

> <Gold.Chemscore.Internal_Hbond>
0.0000

> <Gold.Chemscore.DEClash>
0.0528

> <Gold.Chemscore.DEInternal>
1.4172

> <Gold.Chemscore.Rot>
1.0000

> <Gold.Chemscore.Internal.Correction>
   9.000000E+99

> <Gold.Chemscore.Hbonds>
donor molecule, donor type, donor heavy atom, donor atom, acceptor molecule, acceptor atom, score
      L1  H     5    22       P1  8028  0.96
      L1  H     8    23       P1  8028  0.73

> <Gold.Chemscore.Hbond.Weighted>
-6.0090

> <Gold.Chemscore.Metal.Weighted>
-0.0000

> <Gold.Chemscore.Lipo.Weighted>
-7.3825

> <Gold.Chemscore.Internal_Hbond.Weighted>
0.0000

> <Gold.Chemscore.DEClash.Weighted>
0.0528

> <Gold.Chemscore.DEInternal.Weighted>
1.4172

> <Gold.Chemscore.Rot.Weighted>
2.5600

> <Gold.Chemscore.Internal.Correction.Weighted>
   9.000000E+99

> <Gold.Protein.RotatedTorsions>
[ 6907 6896 6895 6894 ] final  162.63 input  -60.11 | X-H torsion
[ 7974 7965 7964 7962 ] final  -20.76 input  175.53 | X-H torsion
[ 8008 7997 7996 7995 ] final -131.77 input   59.86 | X-H torsion
[ 10167 10162 10161 10158 ] final   32.35 input  -65.29 | X-H torsion
[ 10718 10713 10712 10709 ] final  143.50 input   66.30 | X-H torsion
[ 10763 10752 10751 10750 ] final  127.91 input  -60.55 | X-H torsion
[ 11005 11000 10999 10996 ] final -122.54 input  -57.11 | X-H torsion

> <Gold.Protein.ActiveResidues>
 VAL166  LYS551  ARG553  GLY616  TRP617  ASP618  TYR619  PRO620  LYS621  CYS622 
 ASP623  PHE694  ASN695  SER759  ASP760  ASP761  ALA762  ILE779  LEU786  VAL792 
 PHE793  MET794  SER795  GLU796  ALA797  LYS798  CYS799  TRP800  GLU811  SER814 

> <Gold.Protein.RotatedAtoms>
  151.9375  133.3628  159.3952 H   0  0  0  0  0  0  0  0  0  0  0  0  # atno 6907 bound_to 6896
  150.7005  134.4473  159.5329 H   0  0  0  0  0  0  0  0  0  0  0  0  # atno 6908 bound_to 6896
  152.2125  134.8488  160.0546 H   0  0  0  0  0  0  0  0  0  0  0  0  # atno 6909 bound_to 6896
  146.1771  140.4246  142.8509 H   0  0  0  0  0  0  0  0  0  0  0  0  # atno 7974 bound_to 7965
  155.3178  140.0460  157.3038 H   0  0  0  0  0  0  0  0  0  0  0  0  # atno 8008 bound_to 7997
  154.5397  140.2283  155.8629 H   0  0  0  0  0  0  0  0  0  0  0  0  # atno 8009 bound_to 7997
  156.1869  140.3060  155.9262 H   0  0  0  0  0  0  0  0  0  0  0  0  # atno 8010 bound_to 7997
  140.4507  144.1053  150.6191 H   0  0  0  0  0  0  0  0  0  0  0  0  # atno 10167 bound_to 10162
  157.3682  131.0975  151.0853 H   0  0  0  0  0  0  0  0  0  0  0  0  # atno 10718 bound_to 10713
  153.7171  135.3259  155.3259 H   0  0  0  0  0  0  0  0  0  0  0  0  # atno 10763 bound_to 10752
  154.8367  135.4490  154.1255 H   0  0  0  0  0  0  0  0  0  0  0  0  # atno 10764 bound_to 10752
  153.2365  135.6966  153.7911 H   0  0  0  0  0  0  0  0  0  0  0  0  # atno 10765 bound_to 10752
  140.9987  134.0433  157.3564 H   0  0  0  0  0  0  0  0  0  0  0  0  # atno 11005 bound_to 11000
  144.8253  140.6618  143.6326 LP  0  0  0  0  0  0  0  0  0  0  0  0  # atno 17320 bound_to 7965
  145.4182  139.1568  143.4088 LP  0  0  0  0  0  0  0  0  0  0  0  0  # atno 17321 bound_to 7965
  140.4211  143.2611  151.9714 LP  0  0  0  0  0  0  0  0  0  0  0  0  # atno 17342 bound_to 10162
  139.4796  144.5830  151.7900 LP  0  0  0  0  0  0  0  0  0  0  0  0  # atno 17343 bound_to 10162
  157.1967  130.6376  149.5724 LP  0  0  0  0  0  0  0  0  0  0  0  0  # atno 17370 bound_to 10713
  155.9750  130.4704  150.6429 LP  0  0  0  0  0  0  0  0  0  0  0  0  # atno 17371 bound_to 10713
  139.9028  135.0170  156.7348 LP  0  0  0  0  0  0  0  0  0  0  0  0  # atno 17394 bound_to 11000
  140.6923  133.9379  155.7974 LP  0  0  0  0  0  0  0  0  0  0  0  0  # atno 17395 bound_to 11000

$$$$
