AV-unprocessed.smi:1811|AV-procd|sdf|7335|dock1
  -GOLD-   22720 8593D 1   1.00000     0.00000
 Structure written by MMmdl.
 43 44  0  0  0  0  0  0  0  0  1 V2000
  151.6131  145.1239  160.1146 C   0  0  0  0  0  0  0  0  0  0  0  0
  152.1143  143.9754  159.2130 C   0  0  0  0  0  0  0  0  0  0  0  0
  152.8156  144.5925  157.9876 C   0  0  0  0  0  0  0  0  0  0  0  0
  153.1449  143.1304  159.9919 C   0  0  0  0  0  0  0  0  0  0  0  0
  150.9417  143.0919  158.7000 C   0  0  0  0  0  0  0  0  0  0  0  0
  151.3493  141.7882  157.9999 C   0  0  0  0  0  0  0  0  0  0  0  0
  152.1101  141.0067  158.5688 O   0  0  0  0  0  0  0  0  0  0  0  0
  150.7864  141.5754  156.7966 N   0  0  0  0  0  0  0  0  0  0  0  0
  150.9577  140.4848  155.8953 C   0  0  0  0  0  0  0  0  0  0  0  0
  152.1730  139.7702  155.7527 C   0  0  0  0  0  0  0  0  0  0  0  0
  152.2445  138.7175  154.8220 C   0  0  0  0  0  0  0  0  0  0  0  0
  151.1015  138.4183  154.0595 C   0  0  0  0  0  0  0  0  0  0  0  0
  149.9421  139.0973  154.1708 N   0  0  0  0  0  0  0  0  0  0  0  0
  149.8693  140.1132  155.0645 C   0  0  0  0  0  0  0  0  0  0  0  0
  148.6532  140.8124  155.1463 N   0  0  0  0  0  0  0  0  0  0  0  0
  147.5515  140.0251  155.6842 C   0  0  0  0  0  0  0  0  0  0  0  0
  146.3153  140.9207  155.8766 C   0  0  0  0  0  0  0  0  0  0  0  0
  145.9839  141.5508  154.6419 O   0  0  0  0  0  0  0  0  0  0  0  0
  147.0414  142.3748  154.1590 C   0  0  0  0  0  0  0  0  0  0  0  0
  148.2964  141.5174  153.9221 C   0  0  0  0  0  0  0  0  0  0  0  0
  152.4269  145.7976  160.3847 H   0  0  0  0  0  0  0  0  0  0  0  0
  151.1850  144.7551  161.0469 H   0  0  0  0  0  0  0  0  0  0  0  0
  150.8495  145.7184  159.6120 H   0  0  0  0  0  0  0  0  0  0  0  0
  152.1296  145.2112  157.4075 H   0  0  0  0  0  0  0  0  0  0  0  0
  153.2052  143.8219  157.3214 H   0  0  0  0  0  0  0  0  0  0  0  0
  153.6548  145.2239  158.2817 H   0  0  0  0  0  0  0  0  0  0  0  0
  154.0088  143.7291  160.2825 H   0  0  0  0  0  0  0  0  0  0  0  0
  153.5109  142.2977  159.3902 H   0  0  0  0  0  0  0  0  0  0  0  0
  152.7226  142.7144  160.9073 H   0  0  0  0  0  0  0  0  0  0  0  0
  150.2939  142.8257  159.5364 H   0  0  0  0  0  0  0  0  0  0  0  0
  150.3146  143.6728  158.0210 H   0  0  0  0  0  0  0  0  0  0  0  0
  150.1133  142.2680  156.5012 H   0  0  0  0  0  0  0  0  0  0  0  0
  153.0556  140.0125  156.3230 H   0  0  0  0  0  0  0  0  0  0  0  0
  153.1575  138.1553  154.6928 H   0  0  0  0  0  0  0  0  0  0  0  0
  151.1208  137.6170  153.3357 H   0  0  0  0  0  0  0  0  0  0  0  0
  147.3144  139.2068  155.0026 H   0  0  0  0  0  0  0  0  0  0  0  0
  147.8449  139.5798  156.6356 H   0  0  0  0  0  0  0  0  0  0  0  0
  145.4663  140.3247  156.2114 H   0  0  0  0  0  0  0  0  0  0  0  0
  146.4975  141.6752  156.6437 H   0  0  0  0  0  0  0  0  0  0  0  0
  146.7276  142.8482  153.2285 H   0  0  0  0  0  0  0  0  0  0  0  0
  147.2467  143.1754  154.8716 H   0  0  0  0  0  0  0  0  0  0  0  0
  149.1274  142.1474  153.6024 H   0  0  0  0  0  0  0  0  0  0  0  0
  148.1085  140.7986  153.1232 H   0  0  0  0  0  0  0  0  0  0  0  0
  1  2  1  0  0  0  0
  1 21  1  0  0  0  0
  1 22  1  0  0  0  0
  1 23  1  0  0  0  0
  2  3  1  0  0  0  0
  2  4  1  0  0  0  0
  2  5  1  0  0  0  0
  3 24  1  0  0  0  0
  3 25  1  0  0  0  0
  3 26  1  0  0  0  0
  4 27  1  0  0  0  0
  4 28  1  0  0  0  0
  4 29  1  0  0  0  0
  5  6  1  0  0  0  0
  5 30  1  0  0  0  0
  5 31  1  0  0  0  0
  6  7  2  0  0  0  0
  6  8  1  0  0  0  0
  8  9  1  0  0  0  0
  8 32  1  0  0  0  0
  9 14  1  0  0  0  0
  9 10  2  0  0  0  0
 10 11  1  0  0  0  0
 10 33  1  0  0  0  0
 11 12  2  0  0  0  0
 11 34  1  0  0  0  0
 12 13  1  0  0  0  0
 12 35  1  0  0  0  0
 13 14  2  0  0  0  0
 14 15  1  0  0  0  0
 15 20  1  0  0  0  0
 15 16  1  0  0  0  0
 16 17  1  0  0  0  0
 16 36  1  0  0  0  0
 16 37  1  0  0  0  0
 17 18  1  0  0  0  0
 17 38  1  0  0  0  0
 17 39  1  0  0  0  0
 18 19  1  0  0  0  0
 19 20  1  0  0  0  0
 19 40  1  0  0  0  0
 19 41  1  0  0  0  0
 20 42  1  0  0  0  0
 20 43  1  0  0  0  0
M  END
> <s_m_source_file>
AV-unprocessed.smi

> <i_m_source_file_index>
1811

> <i_lp_mmshare_version>
43012

> <i_f3d_flags>
0

> <s_epik_input>
W0NIM11DKFtDSDNdKShbQ0gzXSlbQ0gyXUMoPU8pW05IXWMxW2NIXVtjSF1bY0hdbmMxTjJbQ0gyXVtDSDJdT1tDSDJdW0NIMl0y

> <s_epik_cmdline>
J2VwaWtfcHl0aG9uJywgJy1waCcsICc3LjAnLCAnLXRuJywgJzgnLCAnLW1hJywgJzIwMCcsICctbWV0YWxfYmluZGluZycsICctaW1hZScsICc8aW5maWxlLm1hZT4nLCAnLW9tYWUnLCAnPG91dGZpbGUubWFlPic=

> <r_lp_tautomer_probability>
1

> <r_epik_Ionization_Penalty>
0.000654353

> <r_epik_Ionization_Penalty_Charging>
0

> <r_epik_Ionization_Penalty_Neutral>
0.000654353

> <r_epik_State_Penalty>
0.000408291

> <r_epik_Charging_Adjusted_Penalty>
0.000408291

> <i_epik_Tot_Q>
0

> <i_epik_Tot_abs_Q>
0

> <r_epik_Metal_State_Penalty>
-0

> <b_epik_Metal_Only>
0

> <s_lp_Force_Field>
OPLS_2005

> <r_lp_Energy>
24.8373

> <b_lp_Chiralities_Consistent>
1

> <s_lp_Variant>
AV-unprocessed.smi:1811-1

> <Gold.Version>
5.8.1

> <Gold.Id.Protein>
6NUR|6NUR_protein|mol2

> <Gold.PLP.Fitness>
46.5625

> <Gold.PLP.PLP>
-44.2208

> <Gold.PLP.part.hbond>
0.0000

> <Gold.PLP.part.metal>
0.0000

> <Gold.PLP.part.buried>
-6.6130

> <Gold.PLP.part.nonpolar>
-38.2452

> <Gold.PLP.part.repulsive>
0.5063

> <Gold.PLP.ligand.clash>
0.0000

> <Gold.PLP.ligand.torsion>
0.4367

> <Gold.PLP.Chemscore.Hbond>
0.0000

> <Gold.PLP.Chemscore.CHOScore>
1.0149

> <Gold.PLP.Chemscore.Metal>
0.0000

> <Gold.Chemscore.Hbonds>
donor molecule, donor type, donor heavy atom, donor atom, acceptor molecule, acceptor atom, score
      L1  C    12    35       P1  7948  0.01
      L1  C    12    35       P1  7949  1.00

> <Gold.PLP.Chemscore.Internal.Correction>
0.1702

> <Gold.Rescore>
     Score         DG    S(hbond)    S(metal)    S(lipo)     H(rot)  DE(clash)    DE(int)     intcor
     12.63     -15.32       0.00        0.00     112.60       1.30       0.11       2.58       ----

> <Gold.Chemscore.Fitness>
12.6279

> <Gold.Chemscore.DG>
-15.3157

> <Gold.Chemscore.ZeroCoef>
-5.4800

> <Gold.Chemscore.Hbond>
0.0000

> <Gold.Chemscore.Metal>
0.0000

> <Gold.Chemscore.Lipo>
112.6030

> <Gold.Chemscore.Internal_Hbond>
0.0000

> <Gold.Chemscore.DEClash>
0.1090

> <Gold.Chemscore.DEInternal>
2.5788

> <Gold.Chemscore.Rot>
1.3042

> <Gold.Chemscore.Internal.Correction>
   9.000000E+99

> <Gold.Chemscore.Hbond.Weighted>
-0.0000

> <Gold.Chemscore.Metal.Weighted>
-0.0000

> <Gold.Chemscore.Lipo.Weighted>
-13.1746

> <Gold.Chemscore.Internal_Hbond.Weighted>
0.0000

> <Gold.Chemscore.DEClash.Weighted>
0.1090

> <Gold.Chemscore.DEInternal.Weighted>
2.5788

> <Gold.Chemscore.Rot.Weighted>
3.3389

> <Gold.Chemscore.Internal.Correction.Weighted>
   9.000000E+99

> <Gold.Protein.RotatedTorsions>
[ 6907 6896 6895 6894 ] final   88.77 input  -60.11 | X-H torsion
[ 7974 7965 7964 7962 ] final  -59.00 input  175.53 | X-H torsion
[ 8008 7997 7996 7995 ] final   43.70 input   59.86 | X-H torsion
[ 10167 10162 10161 10158 ] final   -5.69 input  -65.29 | X-H torsion
[ 10718 10713 10712 10709 ] final   76.66 input   66.30 | X-H torsion
[ 10763 10752 10751 10750 ] final   73.04 input  -60.55 | X-H torsion
[ 11005 11000 10999 10996 ] final  -71.00 input  -57.11 | X-H torsion

> <Gold.Protein.ActiveResidues>
 VAL166  LYS551  ARG553  GLY616  TRP617  ASP618  TYR619  PRO620  LYS621  CYS622 
 ASP623  PHE694  ASN695  SER759  ASP760  ASP761  ALA762  ILE779  LEU786  VAL792 
 PHE793  MET794  SER795  GLU796  ALA797  LYS798  CYS799  TRP800  GLU811  SER814 

> <Gold.Protein.RotatedAtoms>
  152.5429  134.2069  159.8734 H   0  0  0  0  0  0  0  0  0  0  0  0  # atno 6907 bound_to 6896
  151.2054  133.4579  159.2604 H   0  0  0  0  0  0  0  0  0  0  0  0  # atno 6908 bound_to 6896
  151.0948  134.9950  159.8476 H   0  0  0  0  0  0  0  0  0  0  0  0  # atno 6909 bound_to 6896
  145.8326  140.8469  143.0075 H   0  0  0  0  0  0  0  0  0  0  0  0  # atno 7974 bound_to 7965
  155.3070  140.3388  155.4245 H   0  0  0  0  0  0  0  0  0  0  0  0  # atno 8008 bound_to 7997
  156.1974  140.1720  156.8009 H   0  0  0  0  0  0  0  0  0  0  0  0  # atno 8009 bound_to 7997
  154.5515  140.0704  156.8660 H   0  0  0  0  0  0  0  0  0  0  0  0  # atno 8010 bound_to 7997
  140.6972  143.6279  150.8551 H   0  0  0  0  0  0  0  0  0  0  0  0  # atno 10167 bound_to 10162
  157.6682  130.9785  150.1529 H   0  0  0  0  0  0  0  0  0  0  0  0  # atno 10718 bound_to 10713
  153.0496  135.5077  154.7835 H   0  0  0  0  0  0  0  0  0  0  0  0  # atno 10763 bound_to 10752
  154.6707  135.2952  154.9748 H   0  0  0  0  0  0  0  0  0  0  0  0  # atno 10764 bound_to 10752
  154.0567  135.6696  153.4859 H   0  0  0  0  0  0  0  0  0  0  0  0  # atno 10765 bound_to 10752
  141.1584  133.6805  156.6839 H   0  0  0  0  0  0  0  0  0  0  0  0  # atno 11005 bound_to 11000
  144.6738  140.0695  143.7473 LP  0  0  0  0  0  0  0  0  0  0  0  0  # atno 17320 bound_to 7965
  145.9554  139.2762  143.1187 LP  0  0  0  0  0  0  0  0  0  0  0  0  # atno 17321 bound_to 7965
  139.9998  143.5757  152.2880 LP  0  0  0  0  0  0  0  0  0  0  0  0  # atno 17342 bound_to 10162
  139.6442  144.7657  151.2278 LP  0  0  0  0  0  0  0  0  0  0  0  0  # atno 17343 bound_to 10162
  156.2324  130.3683  149.8430 LP  0  0  0  0  0  0  0  0  0  0  0  0  # atno 17370 bound_to 10713
  156.6253  130.8643  151.3484 LP  0  0  0  0  0  0  0  0  0  0  0  0  # atno 17371 bound_to 10713
  140.3082  134.8108  157.4154 LP  0  0  0  0  0  0  0  0  0  0  0  0  # atno 17394 bound_to 11000
  140.1202  134.5230  155.8190 LP  0  0  0  0  0  0  0  0  0  0  0  0  # atno 17395 bound_to 11000

$$$$
