AV-unprocessed.smi:1957|AV-procd|sdf|7904|dock9
  -GOLD-   2272010 63D 1   1.00000     0.00000
 Structure written by MMmdl.
 42 43  0  0  0  0  0  0  0  0  1 V2000
  151.6332  140.4958  156.4868 C   0  0  0  0  0  0  0  0  0  0  0  0
  151.6209  140.1935  155.1032 O   0  0  0  0  0  0  0  0  0  0  0  0
  151.0038  138.9471  154.8236 C   0  0  0  0  0  0  0  0  0  0  0  0
  149.5978  138.9232  155.4446 C   0  0  0  0  0  0  0  0  0  0  0  0
  148.5664  139.3068  154.4743 N   0  0  0  0  0  0  0  0  0  0  0  0
  147.7569  138.2588  154.0711 N   0  0  0  0  0  0  0  0  0  0  0  0
  146.7963  138.4643  153.2292 C   0  0  0  0  0  0  0  0  0  0  0  0
  145.9006  137.3640  152.7781 C   0  0  0  0  0  0  0  0  0  0  0  0
  144.6811  137.5132  152.6839 O   0  0  0  0  0  0  0  0  0  0  0  0
  146.5200  136.2058  152.4865 N   0  0  0  0  0  0  0  0  0  0  0  0
  145.8792  134.9842  152.0015 C   0  0  2  0  0  0  0  0  0  0  0  0
  145.1848  135.2354  150.6376 C   0  0  0  0  0  0  0  0  0  0  0  0
  143.9989  134.3086  150.2974 C   0  0  0  0  0  0  0  0  0  0  0  0
  144.2950  132.7966  150.3668 C   0  0  0  0  0  0  0  0  0  0  0  0
  144.8860  132.2651  151.6943 C   0  0  0  0  0  0  0  0  0  0  0  0
  144.5617  133.0790  152.8649 N   0  0  0  0  0  0  0  0  0  0  0  0
  144.9981  134.3312  153.0846 C   0  0  0  0  0  0  0  0  0  0  0  0
  144.6916  134.9477  154.1044 O   0  0  0  0  0  0  0  0  0  0  0  0
  146.5532  139.7906  152.6873 C   0  0  0  0  0  0  0  0  0  0  0  0
  147.3506  140.8040  153.0910 C   0  0  0  0  0  0  0  0  0  0  0  0
  148.4389  140.5995  154.0485 C   0  0  0  0  0  0  0  0  0  0  0  0
  149.1709  141.5083  154.4395 O   0  0  0  0  0  0  0  0  0  0  0  0
  152.1097  141.4631  156.6452 H   0  0  0  0  0  0  0  0  0  0  0  0
  152.1945  139.7479  157.0485 H   0  0  0  0  0  0  0  0  0  0  0  0
  150.6205  140.5492  156.8884 H   0  0  0  0  0  0  0  0  0  0  0  0
  150.9532  138.7775  153.7468 H   0  0  0  0  0  0  0  0  0  0  0  0
  151.6030  138.1416  155.2501 H   0  0  0  0  0  0  0  0  0  0  0  0
  149.3868  137.9275  155.8383 H   0  0  0  0  0  0  0  0  0  0  0  0
  149.5697  139.5869  156.3107 H   0  0  0  0  0  0  0  0  0  0  0  0
  147.5247  136.1730  152.5889 H   0  0  0  0  0  0  0  0  0  0  0  0
  146.6877  134.2725  151.8289 H   0  0  0  0  0  0  0  0  0  0  0  0
  144.8155  136.2613  150.6045 H   0  0  0  0  0  0  0  0  0  0  0  0
  145.9310  135.1683  149.8450 H   0  0  0  0  0  0  0  0  0  0  0  0
  143.1588  134.5412  150.9530 H   0  0  0  0  0  0  0  0  0  0  0  0
  143.6464  134.5489  149.2940 H   0  0  0  0  0  0  0  0  0  0  0  0
  143.3594  132.2707  150.1730 H   0  0  0  0  0  0  0  0  0  0  0  0
  144.9598  132.5173  149.5488 H   0  0  0  0  0  0  0  0  0  0  0  0
  144.5280  131.2506  151.8711 H   0  0  0  0  0  0  0  0  0  0  0  0
  145.9695  132.1751  151.6111 H   0  0  0  0  0  0  0  0  0  0  0  0
  143.9737  132.6550  153.5678 H   0  0  0  0  0  0  0  0  0  0  0  0
  145.7568  139.9700  151.9797 H   0  0  0  0  0  0  0  0  0  0  0  0
  147.1813  141.7953  152.6969 H   0  0  0  0  0  0  0  0  0  0  0  0
  1  2  1  0  0  0  0
  1 23  1  0  0  0  0
  1 24  1  0  0  0  0
  1 25  1  0  0  0  0
  2  3  1  0  0  0  0
  3  4  1  0  0  0  0
  3 26  1  0  0  0  0
  3 27  1  0  0  0  0
  4  5  1  0  0  0  0
  4 28  1  0  0  0  0
  4 29  1  0  0  0  0
  5 21  1  0  0  0  0
  5  6  1  0  0  0  0
  6  7  2  0  0  0  0
  7  8  1  0  0  0  0
  7 19  1  0  0  0  0
  8  9  2  0  0  0  0
  8 10  1  0  0  0  0
 10 11  1  0  0  0  0
 10 30  1  0  0  0  0
 11 17  1  0  0  0  0
 11 12  1  0  0  0  0
 11 31  1  0  0  0  0
 12 13  1  0  0  0  0
 12 32  1  0  0  0  0
 12 33  1  0  0  0  0
 13 14  1  0  0  0  0
 13 34  1  0  0  0  0
 13 35  1  0  0  0  0
 14 15  1  0  0  0  0
 14 36  1  0  0  0  0
 14 37  1  0  0  0  0
 15 16  1  0  0  0  0
 15 38  1  0  0  0  0
 15 39  1  0  0  0  0
 16 17  1  0  0  0  0
 16 40  1  0  0  0  0
 17 18  2  0  0  0  0
 19 20  2  0  0  0  0
 19 41  1  0  0  0  0
 20 21  1  0  0  0  0
 20 42  1  0  0  0  0
 21 22  2  0  0  0  0
M  END
> <s_m_source_file>
AV-unprocessed.smi

> <i_m_source_file_index>
1957

> <i_lp_mmshare_version>
43012

> <i_f3d_flags>
0

> <s_epik_input>
W0NIM11PW0NIMl1bQ0gyXW4xbmMoW2NIXVtjSF1jMT1PKUMoPU8pW05IXVtDQEBIXTJbQ0gyXVtDSDJdW0NIMl1bQ0gyXVtOSF1DMj1P

> <s_epik_cmdline>
J2VwaWtfcHl0aG9uJywgJy1waCcsICc3LjAnLCAnLXRuJywgJzgnLCAnLW1hJywgJzIwMCcsICctbWV0YWxfYmluZGluZycsICctaW1hZScsICc8aW5maWxlLm1hZT4nLCAnLW9tYWUnLCAnPG91dGZpbGUubWFlPic=

> <r_lp_tautomer_probability>
1

> <r_epik_Ionization_Penalty>
2.17512e-06

> <r_epik_Ionization_Penalty_Charging>
5.0222e-09

> <r_epik_Ionization_Penalty_Neutral>
2.1701e-06

> <r_epik_State_Penalty>
-0

> <r_epik_Charging_Adjusted_Penalty>
5.0222e-09

> <i_epik_Tot_Q>
0

> <i_epik_Tot_abs_Q>
0

> <r_epik_Metal_State_Penalty>
-0

> <b_epik_Metal_Only>
0

> <s_lp_Force_Field>
OPLS_2005

> <r_lp_Energy>
35.215

> <b_lp_Chiralities_Consistent>
1

> <s_lp_Variant>
AV-unprocessed.smi:1957-1

> <Gold.Version>
5.8.1

> <Gold.Id.Protein>
6NUR|6NUR_protein|mol2

> <Gold.PLP.Fitness>
38.2906

> <Gold.PLP.PLP>
-31.0034

> <Gold.PLP.part.hbond>
-4.1447

> <Gold.PLP.part.metal>
0.0000

> <Gold.PLP.part.buried>
-0.0735

> <Gold.PLP.part.nonpolar>
-28.3672

> <Gold.PLP.part.repulsive>
0.7046

> <Gold.PLP.ligand.clash>
0.0000

> <Gold.PLP.ligand.torsion>
1.1069

> <Gold.PLP.Chemscore.Hbond>
3.1444

> <Gold.PLP.Chemscore.CHOScore>
0.0000

> <Gold.PLP.Chemscore.Metal>
0.0000

> <Gold.Chemscore.Hbonds>
donor molecule, donor type, donor heavy atom, donor atom, acceptor molecule, acceptor atom, score
      L1  H    10    30       P1  7948  0.93
      L1  H    16    40       P1 10957  1.00
      P1  H  7989  7998       L1     2  0.96
      P1  H  8011  8017       L1    22  0.08

> <Gold.PLP.Chemscore.Internal.Correction>
0.0677

> <Gold.Rescore>
     Score         DG    S(hbond)    S(metal)    S(lipo)     H(rot)  DE(clash)    DE(int)     intcor
     11.48     -18.46       2.78        0.00      70.48       1.78       2.07       4.91       ----

> <Gold.Chemscore.Fitness>
11.4765

> <Gold.Chemscore.DG>
-18.4564

> <Gold.Chemscore.ZeroCoef>
-5.4800

> <Gold.Chemscore.Hbond>
2.7799

> <Gold.Chemscore.Metal>
0.0000

> <Gold.Chemscore.Lipo>
70.4770

> <Gold.Chemscore.Internal_Hbond>
0.0000

> <Gold.Chemscore.DEClash>
2.0666

> <Gold.Chemscore.DEInternal>
4.9133

> <Gold.Chemscore.Rot>
1.7791

> <Gold.Chemscore.Internal.Correction>
   9.000000E+99

> <Gold.Chemscore.Hbonds>
donor molecule, donor type, donor heavy atom, donor atom, acceptor molecule, acceptor atom, score
      L1  H    10    30       P1  7948  0.88
      L1  H    16    40       P1 10957  0.49
      P1  H  7989  7998       L1     2  0.24
      P1  H  8011  8017       L1    22  0.02

> <Gold.Chemscore.Hbond.Weighted>
-9.2849

> <Gold.Chemscore.Metal.Weighted>
-0.0000

> <Gold.Chemscore.Lipo.Weighted>
-8.2458

> <Gold.Chemscore.Internal_Hbond.Weighted>
0.0000

> <Gold.Chemscore.DEClash.Weighted>
2.0666

> <Gold.Chemscore.DEInternal.Weighted>
4.9133

> <Gold.Chemscore.Rot.Weighted>
4.5544

> <Gold.Chemscore.Internal.Correction.Weighted>
   9.000000E+99

> <Gold.Protein.RotatedTorsions>
[ 6907 6896 6895 6894 ] final  126.11 input  -60.11 | X-H torsion
[ 7974 7965 7964 7962 ] final  138.43 input  175.53 | X-H torsion
[ 8008 7997 7996 7995 ] final -174.71 input   59.86 | X-H torsion
[ 10167 10162 10161 10158 ] final  133.47 input  -65.29 | X-H torsion
[ 10718 10713 10712 10709 ] final    1.73 input   66.30 | X-H torsion
[ 10763 10752 10751 10750 ] final -166.04 input  -60.55 | X-H torsion
[ 11005 11000 10999 10996 ] final -161.26 input  -57.11 | X-H torsion

> <Gold.Protein.ActiveResidues>
 VAL166  LYS551  ARG553  GLY616  TRP617  ASP618  TYR619  PRO620  LYS621  CYS622 
 ASP623  PHE694  ASN695  SER759  ASP760  ASP761  ALA762  ILE779  LEU786  VAL792 
 PHE793  MET794  SER795  GLU796  ALA797  LYS798  CYS799  TRP800  GLU811  SER814 

> <Gold.Protein.RotatedAtoms>
  152.3932  133.6709  159.6254 H   0  0  0  0  0  0  0  0  0  0  0  0  # atno 6907 bound_to 6896
  150.7836  133.8918  159.3324 H   0  0  0  0  0  0  0  0  0  0  0  0  # atno 6908 bound_to 6896
  151.6700  135.0979  160.0247 H   0  0  0  0  0  0  0  0  0  0  0  0  # atno 6909 bound_to 6896
  144.9373  139.4974  143.5589 H   0  0  0  0  0  0  0  0  0  0  0  0  # atno 7974 bound_to 7965
  155.9735  140.1167  157.0791 H   0  0  0  0  0  0  0  0  0  0  0  0  # atno 8008 bound_to 7997
  154.4163  140.1158  156.5406 H   0  0  0  0  0  0  0  0  0  0  0  0  # atno 8009 bound_to 7997
  155.6566  140.3473  155.4769 H   0  0  0  0  0  0  0  0  0  0  0  0  # atno 8010 bound_to 7997
  139.5295  144.6614  151.5001 H   0  0  0  0  0  0  0  0  0  0  0  0  # atno 10167 bound_to 10162
  156.8526  130.5559  149.5668 H   0  0  0  0  0  0  0  0  0  0  0  0  # atno 10718 bound_to 10713
  154.6872  135.2964  154.9530 H   0  0  0  0  0  0  0  0  0  0  0  0  # atno 10763 bound_to 10752
  154.0505  135.6645  153.4804 H   0  0  0  0  0  0  0  0  0  0  0  0  # atno 10764 bound_to 10752
  153.0587  135.5128  154.7946 H   0  0  0  0  0  0  0  0  0  0  0  0  # atno 10765 bound_to 10752
  140.6224  134.4737  157.5224 H   0  0  0  0  0  0  0  0  0  0  0  0  # atno 11005 bound_to 11000
  146.3271  139.8366  142.8898 LP  0  0  0  0  0  0  0  0  0  0  0  0  # atno 17320 bound_to 7965
  145.3047  141.0204  143.3589 LP  0  0  0  0  0  0  0  0  0  0  0  0  # atno 17321 bound_to 7965
  140.6464  143.8786  150.6741 LP  0  0  0  0  0  0  0  0  0  0  0  0  # atno 17342 bound_to 10162
  140.2137  143.3863  152.1698 LP  0  0  0  0  0  0  0  0  0  0  0  0  # atno 17343 bound_to 10162
  156.0820  130.5828  150.9580 LP  0  0  0  0  0  0  0  0  0  0  0  0  # atno 17370 bound_to 10713
  157.6295  131.0922  150.8469 LP  0  0  0  0  0  0  0  0  0  0  0  0  # atno 17371 bound_to 10713
  139.9148  134.8269  156.1403 LP  0  0  0  0  0  0  0  0  0  0  0  0  # atno 17394 bound_to 11000
  141.0733  133.6787  156.2185 LP  0  0  0  0  0  0  0  0  0  0  0  0  # atno 17395 bound_to 11000

$$$$
