AV-unprocessed.smi:218|AV-procd|sdf|1665|dock8
  -GOLD-   2262020 73D 1   1.00000     0.00000
 Structure written by MMmdl.
 54 57  0  0  0  0  0  0  0  0  1 V2000
  149.9262  144.3418  153.5202 C   0  0  0  0  0  0  0  0  0  0  0  0
  150.8257  143.4601  154.3951 C   0  0  0  0  0  0  0  0  0  0  0  0
  151.7381  144.3138  155.2926 C   0  0  0  0  0  0  0  0  0  0  0  0
  151.6092  142.6581  153.5094 O   0  0  0  0  0  0  0  0  0  0  0  0
  151.0176  141.6385  152.7884 C   0  0  0  0  0  0  0  0  0  0  0  0
  150.4699  140.5500  153.4974 C   0  0  0  0  0  0  0  0  0  0  0  0
  149.8715  139.4984  152.7748 C   0  0  0  0  0  0  0  0  0  0  0  0
  149.2644  138.3156  153.4975 C   0  0  0  0  0  0  0  0  0  0  0  0
  150.1486  137.1595  153.5179 N   0  0  0  0  0  0  0  0  0  0  0  0
  149.6379  135.9152  153.4014 C   0  0  0  0  0  0  0  0  0  0  0  0
  150.4002  134.8193  153.6545 N   0  0  0  0  0  0  0  0  0  0  0  0
  149.8726  133.5979  153.5312 C   0  0  0  0  0  0  0  0  0  0  0  0
  148.6331  133.2580  153.1728 N   0  0  0  0  0  0  0  0  0  0  0  0
  147.8608  134.3539  152.9179 C   0  0  0  0  0  0  0  0  0  0  0  0
  148.2896  135.7080  153.0106 C   0  0  0  0  0  0  0  0  0  0  0  0
  147.2428  136.5582  152.6809 N   0  0  0  0  0  0  0  0  0  0  0  0
  146.2541  135.7495  152.4104 C   0  0  0  0  0  0  0  0  0  0  0  0
  146.5365  134.4066  152.5257 N   0  0  0  0  0  0  0  0  0  0  0  0
  145.5952  133.2668  152.2808 C   0  0  1  0  0  0  0  0  0  0  0  0
  144.3241  133.7483  151.9578 O   0  0  0  0  0  0  0  0  0  0  0  0
  143.7221  132.9688  150.9181 C   0  0  1  0  0  0  0  0  0  0  0  0
  143.5389  133.8736  149.6820 C   0  0  0  0  0  0  0  0  0  0  0  0
  143.0256  133.1154  148.6082 O   0  0  0  0  0  0  0  0  0  0  0  0
  144.6921  131.7889  150.7231 C   0  0  1  0  0  0  0  0  0  0  0  0
  144.6966  131.1928  149.4388 O   0  0  0  0  0  0  0  0  0  0  0  0
  146.0407  132.3523  151.1361 C   0  0  1  0  0  0  0  0  0  0  0  0
  146.7017  133.0428  150.0886 O   0  0  0  0  0  0  0  0  0  0  0  0
  149.8355  139.5784  151.3684 C   0  0  0  0  0  0  0  0  0  0  0  0
  150.4084  140.7055  150.7484 C   0  0  0  0  0  0  0  0  0  0  0  0
  150.9888  141.7131  151.4343 N   0  0  0  0  0  0  0  0  0  0  0  0
  145.5400  132.7415  153.2354 H   0  0  0  0  0  0  0  0  0  0  0  0
  142.7518  132.5915  151.2442 H   0  0  0  0  0  0  0  0  0  0  0  0
  144.4206  131.0112  151.4388 H   0  0  0  0  0  0  0  0  0  0  0  0
  146.7088  131.5797  151.5178 H   0  0  0  0  0  0  0  0  0  0  0  0
  149.2829  144.9754  154.1314 H   0  0  0  0  0  0  0  0  0  0  0  0
  149.2828  143.7328  152.8847 H   0  0  0  0  0  0  0  0  0  0  0  0
  150.5165  144.9904  152.8722 H   0  0  0  0  0  0  0  0  0  0  0  0
  150.1701  142.8416  155.0098 H   0  0  0  0  0  0  0  0  0  0  0  0
  151.1497  144.9592  155.9450 H   0  0  0  0  0  0  0  0  0  0  0  0
  152.3914  144.9506  154.6957 H   0  0  0  0  0  0  0  0  0  0  0  0
  152.3713  143.6973  155.9301 H   0  0  0  0  0  0  0  0  0  0  0  0
  150.5096  140.5244  154.5767 H   0  0  0  0  0  0  0  0  0  0  0  0
  149.0225  138.6081  154.5202 H   0  0  0  0  0  0  0  0  0  0  0  0
  148.3262  138.0494  153.0086 H   0  0  0  0  0  0  0  0  0  0  0  0
  151.1324  137.3514  153.6411 H   0  0  0  0  0  0  0  0  0  0  0  0
  150.5377  132.7752  153.7491 H   0  0  0  0  0  0  0  0  0  0  0  0
  145.2801  136.1134  152.1175 H   0  0  0  0  0  0  0  0  0  0  0  0
  142.8906  134.7240  149.8877 H   0  0  0  0  0  0  0  0  0  0  0  0
  144.4964  134.2753  149.3514 H   0  0  0  0  0  0  0  0  0  0  0  0
  142.1663  132.8038  148.8500 H   0  0  0  0  0  0  0  0  0  0  0  0
  145.3770  130.5370  149.4144 H   0  0  0  0  0  0  0  0  0  0  0  0
  147.4590  132.5384  149.8327 H   0  0  0  0  0  0  0  0  0  0  0  0
  149.3800  138.7974  150.7774 H   0  0  0  0  0  0  0  0  0  0  0  0
  150.4002  140.8009  149.6728 H   0  0  0  0  0  0  0  0  0  0  0  0
  1  2  1  0  0  0  0
  1 35  1  0  0  0  0
  1 36  1  0  0  0  0
  1 37  1  0  0  0  0
  2  3  1  0  0  0  0
  2  4  1  0  0  0  0
  2 38  1  0  0  0  0
  3 39  1  0  0  0  0
  3 40  1  0  0  0  0
  3 41  1  0  0  0  0
  4  5  1  0  0  0  0
  5 30  1  0  0  0  0
  5  6  2  0  0  0  0
  6  7  1  0  0  0  0
  6 42  1  0  0  0  0
  7  8  1  0  0  0  0
  7 28  2  0  0  0  0
  8  9  1  0  0  0  0
  8 43  1  0  0  0  0
  8 44  1  0  0  0  0
  9 10  1  0  0  0  0
  9 45  1  0  0  0  0
 10 15  1  0  0  0  0
 10 11  2  0  0  0  0
 11 12  1  0  0  0  0
 12 13  2  0  0  0  0
 12 46  1  0  0  0  0
 13 14  1  0  0  0  0
 14 18  1  0  0  0  0
 14 15  2  0  0  0  0
 15 16  1  0  0  0  0
 16 17  2  0  0  0  0
 17 18  1  0  0  0  0
 17 47  1  0  0  0  0
 18 19  1  0  0  0  0
 19 31  1  0  0  0  0
 19 26  1  0  0  0  0
 19 20  1  0  0  0  0
 20 21  1  0  0  0  0
 21 32  1  0  0  0  0
 21 22  1  0  0  0  0
 21 24  1  0  0  0  0
 22 23  1  0  0  0  0
 22 48  1  0  0  0  0
 22 49  1  0  0  0  0
 23 50  1  0  0  0  0
 24 33  1  0  0  0  0
 24 25  1  0  0  0  0
 24 26  1  0  0  0  0
 25 51  1  0  0  0  0
 26 34  1  0  0  0  0
 26 27  1  0  0  0  0
 27 52  1  0  0  0  0
 28 29  1  0  0  0  0
 28 53  1  0  0  0  0
 29 30  2  0  0  0  0
 29 54  1  0  0  0  0
M  END
> <s_m_source_file>
AV-unprocessed.smi

> <i_m_source_file_index>
218

> <i_lp_mmshare_version>
43012

> <i_f3d_flags>
0

> <s_epik_input>
W0NIM11bQ0hdKFtDSDNdKU9jMVtjSF1jKFtjSF1bY0hdbjEpW0NIMl1bTkhdYyhuW2NIXW4yKWMoYzIzKW5bY0hdbjNbQ0BASF00T1tDQEhdKFtDSDJdW09IXSlbQ0BASF0oW09IXSlbQ0BIXTRbT0hd

> <s_epik_cmdline>
J2VwaWtfcHl0aG9uJywgJy1waCcsICc3LjAnLCAnLXRuJywgJzgnLCAnLW1hJywgJzIwMCcsICctbWV0YWxfYmluZGluZycsICctaW1hZScsICc8aW5maWxlLm1hZT4nLCAnLW9tYWUnLCAnPG91dGZpbGUubWFlPic=

> <r_lp_tautomer_probability>
1

> <r_epik_Ionization_Penalty>
0.00457014

> <r_epik_Ionization_Penalty_Charging>
0

> <r_epik_Ionization_Penalty_Neutral>
0.00457014

> <r_epik_State_Penalty>
-0

> <r_epik_Charging_Adjusted_Penalty>
0

> <i_epik_Tot_Q>
0

> <i_epik_Tot_abs_Q>
0

> <r_epik_Metal_State_Penalty>
-0

> <b_epik_Metal_Only>
0

> <s_epik_Chemistry_Notes>
This compound contains an acetal/aminal-like group ( X-CH(R)-Y where X, Y are N, S, or O) that may be acid/base labile, releasing an aldehyde.

> <s_lp_Force_Field>
OPLS_2005

> <r_lp_Energy>
50.2222

> <b_lp_Chiralities_Consistent>
1

> <s_lp_Variant>
AV-unprocessed.smi:218-4

> <Gold.Version>
5.8.1

> <Gold.Id.Protein>
6NUR|6NUR_protein|mol2

> <Gold.PLP.Fitness>
55.2862

> <Gold.PLP.PLP>
-46.1719

> <Gold.PLP.part.hbond>
-5.4518

> <Gold.PLP.part.metal>
0.0000

> <Gold.PLP.part.buried>
-7.9724

> <Gold.PLP.part.nonpolar>
-32.6335

> <Gold.PLP.part.repulsive>
1.4182

> <Gold.PLP.ligand.clash>
0.0000

> <Gold.PLP.ligand.torsion>
0.5897

> <Gold.PLP.Chemscore.Hbond>
3.3760

> <Gold.PLP.Chemscore.CHOScore>
0.0000

> <Gold.PLP.Chemscore.Metal>
0.0000

> <Gold.Chemscore.Hbonds>
donor molecule, donor type, donor heavy atom, donor atom, acceptor molecule, acceptor atom, score
      L1  H    23    50       P1 10186  0.18
      L1  H    27    52       P1 10747  0.36
      P1  H 10785 10796       L1    25  0.20

> <Gold.PLP.Chemscore.Internal.Correction>
0.1658

> <Gold.Rescore>
     Score         DG    S(hbond)    S(metal)    S(lipo)     H(rot)  DE(clash)    DE(int)     intcor
      9.85     -12.51       2.90        0.00      84.72       4.90       0.44       2.22       ----

> <Gold.Chemscore.Fitness>
9.8522

> <Gold.Chemscore.DG>
-12.5149

> <Gold.Chemscore.ZeroCoef>
-5.4800

> <Gold.Chemscore.Hbond>
2.8965

> <Gold.Chemscore.Metal>
0.0000

> <Gold.Chemscore.Lipo>
84.7198

> <Gold.Chemscore.Internal_Hbond>
0.0000

> <Gold.Chemscore.DEClash>
0.4430

> <Gold.Chemscore.DEInternal>
2.2197

> <Gold.Chemscore.Rot>
4.9029

> <Gold.Chemscore.Internal.Correction>
   9.000000E+99

> <Gold.Chemscore.Hbonds>
donor molecule, donor type, donor heavy atom, donor atom, acceptor molecule, acceptor atom, score
      L1  H    23    50       P1 10186  0.17
      L1  H    27    52       P1 10747  0.33
      P1  H 10785 10796       L1    25  0.04

> <Gold.Chemscore.Hbond.Weighted>
-9.6743

> <Gold.Chemscore.Metal.Weighted>
-0.0000

> <Gold.Chemscore.Lipo.Weighted>
-9.9122

> <Gold.Chemscore.Internal_Hbond.Weighted>
0.0000

> <Gold.Chemscore.DEClash.Weighted>
0.4430

> <Gold.Chemscore.DEInternal.Weighted>
2.2197

> <Gold.Chemscore.Rot.Weighted>
12.5515

> <Gold.Chemscore.Internal.Correction.Weighted>
   9.000000E+99

> <Gold.Protein.RotatedTorsions>
[ 6907 6896 6895 6894 ] final  115.94 input  -60.11 | X-H torsion
[ 7974 7965 7964 7962 ] final   -6.56 input  175.53 | X-H torsion
[ 8008 7997 7996 7995 ] final  123.10 input   59.86 | X-H torsion
[ 10167 10162 10161 10158 ] final  121.70 input  -65.29 | X-H torsion
[ 10718 10713 10712 10709 ] final   -3.55 input   66.30 | X-H torsion
[ 10763 10752 10751 10750 ] final  -18.96 input  -60.55 | X-H torsion
[ 11005 11000 10999 10996 ] final  -26.33 input  -57.11 | X-H torsion

> <Gold.Protein.ActiveResidues>
 VAL166  LYS551  ARG553  GLY616  TRP617  ASP618  TYR619  PRO620  LYS621  CYS622 
 ASP623  PHE694  ASN695  SER759  ASP760  ASP761  ALA762  ILE779  LEU786  VAL792 
 PHE793  MET794  SER795  GLU796  ALA797  LYS798  CYS799  TRP800  GLU811  SER814 

> <Gold.Protein.RotatedAtoms>
  152.4710  133.8029  159.6962 H   0  0  0  0  0  0  0  0  0  0  0  0  # atno 6907 bound_to 6896
  150.8699  133.7511  159.2971 H   0  0  0  0  0  0  0  0  0  0  0  0  # atno 6908 bound_to 6896
  151.5049  135.1066  159.9891 H   0  0  0  0  0  0  0  0  0  0  0  0  # atno 6909 bound_to 6896
  146.2328  140.2188  142.8337 H   0  0  0  0  0  0  0  0  0  0  0  0  # atno 7974 bound_to 7965
  156.2753  140.2770  156.1574 H   0  0  0  0  0  0  0  0  0  0  0  0  # atno 8008 bound_to 7997
  155.0789  140.0387  157.2650 H   0  0  0  0  0  0  0  0  0  0  0  0  # atno 8009 bound_to 7997
  154.6980  140.2643  155.6753 H   0  0  0  0  0  0  0  0  0  0  0  0  # atno 8010 bound_to 7997
  139.5903  144.7023  151.3306 H   0  0  0  0  0  0  0  0  0  0  0  0  # atno 10167 bound_to 10162
  156.7744  130.5310  149.5761 H   0  0  0  0  0  0  0  0  0  0  0  0  # atno 10718 bound_to 10713
  153.5975  135.7000  153.5398 H   0  0  0  0  0  0  0  0  0  0  0  0  # atno 10763 bound_to 10752
  153.3126  135.4097  155.1348 H   0  0  0  0  0  0  0  0  0  0  0  0  # atno 10764 bound_to 10752
  154.8589  135.3676  154.5509 H   0  0  0  0  0  0  0  0  0  0  0  0  # atno 10765 bound_to 10752
  140.9019  133.7518  156.0555 H   0  0  0  0  0  0  0  0  0  0  0  0  # atno 11005 bound_to 11000
  144.9648  140.8311  143.5491 LP  0  0  0  0  0  0  0  0  0  0  0  0  # atno 17320 bound_to 7965
  145.2163  139.2180  143.5116 LP  0  0  0  0  0  0  0  0  0  0  0  0  # atno 17321 bound_to 7965
  140.7167  143.7246  150.7670 LP  0  0  0  0  0  0  0  0  0  0  0  0  # atno 17342 bound_to 10162
  140.0800  143.4978  152.2535 LP  0  0  0  0  0  0  0  0  0  0  0  0  # atno 17343 bound_to 10162
  156.1257  130.6142  151.0260 LP  0  0  0  0  0  0  0  0  0  0  0  0  # atno 17370 bound_to 10713
  157.6676  131.0868  150.7691 LP  0  0  0  0  0  0  0  0  0  0  0  0  # atno 17371 bound_to 10713
  140.8219  134.3279  157.5378 LP  0  0  0  0  0  0  0  0  0  0  0  0  # atno 17394 bound_to 11000
  139.8743  134.9314  156.3527 LP  0  0  0  0  0  0  0  0  0  0  0  0  # atno 17395 bound_to 11000

$$$$
