AV-unprocessed.smi:264|AV-procd|sdf|2011|dock1
  -GOLD-   2262021213D 1   1.00000     0.00000
 Structure written by MMmdl.
 52 56  0  0  0  0  0  0  0  0  1 V2000
  144.9859  134.2885  152.5445 C   0  0  0  0  0  0  0  0  0  0  0  0
  145.8502  133.1853  151.9135 C   0  0  2  0  0  0  0  0  0  0  0  0
  144.9730  132.2306  151.3219 O   0  0  0  0  0  0  0  0  0  0  0  0
  145.5979  130.9600  151.3507 C   0  0  0  0  0  0  0  0  0  0  0  0
  146.2476  130.9486  152.7259 C   0  0  0  0  0  0  0  0  0  0  0  0
  146.7688  132.3759  152.8733 C   0  0  1  0  0  0  0  0  0  0  0  0
  148.0831  132.4141  152.3417 O   0  0  0  0  0  0  0  0  0  0  0  0
  146.8330  132.8640  154.3446 C   0  0  0  0  0  0  0  0  0  0  0  0
  147.5079  134.1442  154.5019 N   0  0  0  0  0  0  0  0  0  0  0  0
  146.9143  135.3796  154.6163 C   0  0  0  0  0  0  0  0  0  0  0  0
  147.7392  136.3809  154.7482 N   0  0  0  0  0  0  0  0  0  0  0  0
  149.0026  135.7973  154.7374 C   0  0  0  0  0  0  0  0  0  0  0  0
  150.3408  136.2895  154.8365 C   0  0  0  0  0  0  0  0  0  0  0  0
  150.6986  137.5900  155.0065 N   0  0  0  0  0  0  0  0  0  0  0  0
  152.0268  137.9729  154.5388 C   0  0  0  0  0  0  0  0  0  0  0  0
  152.4588  139.2862  155.2059 C   0  0  0  0  0  0  0  0  0  0  0  0
  151.4737  140.2957  154.9924 O   0  0  0  0  0  0  0  0  0  0  0  0
  150.1744  139.9629  155.4896 C   0  0  2  0  0  0  0  0  0  0  0  0
  149.2332  141.1094  155.1379 C   0  0  0  0  0  0  0  0  0  0  0  0
  148.2641  141.1317  156.3096 C   0  0  0  0  0  0  0  0  0  0  0  0
  149.1177  140.9023  157.4153 O   0  0  0  0  0  0  0  0  0  0  0  0
  150.1033  139.9477  157.0347 C   0  0  0  0  0  0  0  0  0  0  0  0
  149.6976  138.6382  154.8493 C   0  0  0  0  0  0  0  0  0  0  0  0
  151.3432  135.3747  154.7681 N   0  0  0  0  0  0  0  0  0  0  0  0
  151.0721  134.0756  154.6203 C   0  0  0  0  0  0  0  0  0  0  0  0
  149.8842  133.4789  154.5207 N   0  0  0  0  0  0  0  0  0  0  0  0
  148.8687  134.3864  154.5807 C   0  0  0  0  0  0  0  0  0  0  0  0
  145.6005  135.0587  153.0108 H   0  0  0  0  0  0  0  0  0  0  0  0
  144.3094  133.8859  153.2987 H   0  0  0  0  0  0  0  0  0  0  0  0
  144.3733  134.7759  151.7858 H   0  0  0  0  0  0  0  0  0  0  0  0
  146.4392  133.6301  151.1091 H   0  0  0  0  0  0  0  0  0  0  0  0
  144.8776  130.1530  151.2162 H   0  0  0  0  0  0  0  0  0  0  0  0
  146.3460  130.8957  150.5591 H   0  0  0  0  0  0  0  0  0  0  0  0
  145.4760  130.7519  153.4709 H   0  0  0  0  0  0  0  0  0  0  0  0
  147.0168  130.1827  152.8338 H   0  0  0  0  0  0  0  0  0  0  0  0
  148.1291  131.8137  151.6136 H   0  0  0  0  0  0  0  0  0  0  0  0
  145.8286  132.9574  154.7599 H   0  0  0  0  0  0  0  0  0  0  0  0
  147.3564  132.1367  154.9656 H   0  0  0  0  0  0  0  0  0  0  0  0
  145.8430  135.5166  154.5927 H   0  0  0  0  0  0  0  0  0  0  0  0
  152.7711  137.2044  154.7487 H   0  0  0  0  0  0  0  0  0  0  0  0
  151.9951  138.0968  153.4556 H   0  0  0  0  0  0  0  0  0  0  0  0
  152.6327  139.1338  156.2713 H   0  0  0  0  0  0  0  0  0  0  0  0
  153.4039  139.6254  154.7821 H   0  0  0  0  0  0  0  0  0  0  0  0
  149.7814  142.0523  155.1139 H   0  0  0  0  0  0  0  0  0  0  0  0
  148.7368  140.9914  154.1743 H   0  0  0  0  0  0  0  0  0  0  0  0
  147.7318  142.0785  156.4013 H   0  0  0  0  0  0  0  0  0  0  0  0
  147.5322  140.3262  156.2321 H   0  0  0  0  0  0  0  0  0  0  0  0
  149.8252  138.9638  157.4146 H   0  0  0  0  0  0  0  0  0  0  0  0
  151.0477  140.2265  157.5015 H   0  0  0  0  0  0  0  0  0  0  0  0
  149.5171  138.7848  153.7835 H   0  0  0  0  0  0  0  0  0  0  0  0
  148.7531  138.3337  155.3017 H   0  0  0  0  0  0  0  0  0  0  0  0
  151.9297  133.4209  154.5765 H   0  0  0  0  0  0  0  0  0  0  0  0
  1  2  1  0  0  0  0
  1 28  1  0  0  0  0
  1 29  1  0  0  0  0
  1 30  1  0  0  0  0
  2  6  1  0  0  0  0
  2  3  1  0  0  0  0
  2 31  1  0  0  0  0
  3  4  1  0  0  0  0
  4  5  1  0  0  0  0
  4 32  1  0  0  0  0
  4 33  1  0  0  0  0
  5  6  1  0  0  0  0
  5 34  1  0  0  0  0
  5 35  1  0  0  0  0
  6  7  1  0  0  0  0
  6  8  1  0  0  0  0
  7 36  1  0  0  0  0
  8  9  1  0  0  0  0
  8 37  1  0  0  0  0
  8 38  1  0  0  0  0
  9 27  1  0  0  0  0
  9 10  1  0  0  0  0
 10 11  2  0  0  0  0
 10 39  1  0  0  0  0
 11 12  1  0  0  0  0
 12 27  2  0  0  0  0
 12 13  1  0  0  0  0
 13 14  1  0  0  0  0
 13 24  2  0  0  0  0
 14 23  1  0  0  0  0
 14 15  1  0  0  0  0
 15 16  1  0  0  0  0
 15 40  1  0  0  0  0
 15 41  1  0  0  0  0
 16 17  1  0  0  0  0
 16 42  1  0  0  0  0
 16 43  1  0  0  0  0
 17 18  1  0  0  0  0
 18 22  1  0  0  0  0
 18 19  1  0  0  0  0
 18 23  1  0  0  0  0
 19 20  1  0  0  0  0
 19 44  1  0  0  0  0
 19 45  1  0  0  0  0
 20 21  1  0  0  0  0
 20 46  1  0  0  0  0
 20 47  1  0  0  0  0
 21 22  1  0  0  0  0
 22 48  1  0  0  0  0
 22 49  1  0  0  0  0
 23 50  1  0  0  0  0
 23 51  1  0  0  0  0
 24 25  1  0  0  0  0
 25 26  2  0  0  0  0
 25 52  1  0  0  0  0
 26 27  1  0  0  0  0
M  END
> <s_m_source_file>
AV-unprocessed.smi

> <i_m_source_file_index>
264

> <i_lp_mmshare_version>
43012

> <i_f3d_flags>
0

> <s_epik_input>
W0NIMl0xW0NIMl1PW0NAQEhdKFtDSDNdKVtDQEBdMShbT0hdKVtDSDJdbihbY0hdbjIpYyhjMjMpbltjSF1uYzNOKFtDSDJdNClbQ0gyXVtDSDJdT1tDQF00NVtDSDJdW0NIMl1PW0NIMl01

> <s_epik_cmdline>
J2VwaWtfcHl0aG9uJywgJy1waCcsICc3LjAnLCAnLXRuJywgJzgnLCAnLW1hJywgJzIwMCcsICctbWV0YWxfYmluZGluZycsICctaW1hZScsICc8aW5maWxlLm1hZT4nLCAnLW9tYWUnLCAnPG91dGZpbGUubWFlPic=

> <r_lp_tautomer_probability>
1

> <r_epik_Ionization_Penalty>
0.00539389

> <r_epik_Ionization_Penalty_Charging>
0

> <r_epik_Ionization_Penalty_Neutral>
0.00539389

> <r_epik_State_Penalty>
0.00375441

> <r_epik_Charging_Adjusted_Penalty>
0.00375441

> <i_epik_Tot_Q>
0

> <i_epik_Tot_abs_Q>
0

> <r_epik_Metal_State_Penalty>
-0

> <b_epik_Metal_Only>
0

> <s_lp_Force_Field>
OPLS_2005

> <r_lp_Energy>
55.2391

> <b_lp_Chiralities_Consistent>
1

> <s_lp_Variant>
AV-unprocessed.smi:264-5

> <Gold.Version>
5.8.1

> <Gold.Id.Protein>
6NUR|6NUR_protein|mol2

> <Gold.PLP.Fitness>
42.5260

> <Gold.PLP.PLP>
-34.3657

> <Gold.PLP.part.hbond>
-3.0000

> <Gold.PLP.part.metal>
0.0000

> <Gold.PLP.part.buried>
-3.9685

> <Gold.PLP.part.nonpolar>
-28.7075

> <Gold.PLP.part.repulsive>
2.0086

> <Gold.PLP.ligand.clash>
0.0000

> <Gold.PLP.ligand.torsion>
0.5321

> <Gold.PLP.Chemscore.Hbond>
2.9750

> <Gold.PLP.Chemscore.CHOScore>
0.0000

> <Gold.PLP.Chemscore.Metal>
0.0000

> <Gold.Chemscore.Hbonds>
donor molecule, donor type, donor heavy atom, donor atom, acceptor molecule, acceptor atom, score
      L1  H     7    36       P1 10747  1.00
      P1  H  7989  7998       L1    17  1.00
      P1  H 10752 10764       L1    24  0.98

> <Gold.PLP.Chemscore.Internal.Correction>
0.2994

> <Gold.Rescore>
     Score         DG    S(hbond)    S(metal)    S(lipo)     H(rot)  DE(clash)    DE(int)     intcor
     13.39     -18.41       2.42        0.00      80.66       1.79       3.07       1.96       ----

> <Gold.Chemscore.Fitness>
13.3857

> <Gold.Chemscore.DG>
-18.4121

> <Gold.Chemscore.ZeroCoef>
-5.4800

> <Gold.Chemscore.Hbond>
2.4212

> <Gold.Chemscore.Metal>
0.0000

> <Gold.Chemscore.Lipo>
80.6561

> <Gold.Chemscore.Internal_Hbond>
0.0000

> <Gold.Chemscore.DEClash>
3.0680

> <Gold.Chemscore.DEInternal>
1.9584

> <Gold.Chemscore.Rot>
1.7935

> <Gold.Chemscore.Internal.Correction>
   9.000000E+99

> <Gold.Chemscore.Hbonds>
donor molecule, donor type, donor heavy atom, donor atom, acceptor molecule, acceptor atom, score
      L1  H     7    36       P1 10747  0.98
      P1  H  7989  7998       L1    17  0.60
      P1  H 10752 10764       L1    24  0.56

> <Gold.Chemscore.Hbond.Weighted>
-8.0867

> <Gold.Chemscore.Metal.Weighted>
-0.0000

> <Gold.Chemscore.Lipo.Weighted>
-9.4368

> <Gold.Chemscore.Internal_Hbond.Weighted>
0.0000

> <Gold.Chemscore.DEClash.Weighted>
3.0680

> <Gold.Chemscore.DEInternal.Weighted>
1.9584

> <Gold.Chemscore.Rot.Weighted>
4.5913

> <Gold.Chemscore.Internal.Correction.Weighted>
   9.000000E+99

> <Gold.Protein.RotatedTorsions>
[ 6907 6896 6895 6894 ] final   63.88 input  -60.11 | X-H torsion
[ 7974 7965 7964 7962 ] final   43.94 input  175.53 | X-H torsion
[ 8008 7997 7996 7995 ] final  -74.80 input   59.86 | X-H torsion
[ 10167 10162 10161 10158 ] final  171.40 input  -65.29 | X-H torsion
[ 10718 10713 10712 10709 ] final -159.25 input   66.30 | X-H torsion
[ 10763 10752 10751 10750 ] final  -55.85 input  -60.55 | X-H torsion
[ 11005 11000 10999 10996 ] final -111.54 input  -57.11 | X-H torsion

> <Gold.Protein.ActiveResidues>
 VAL166  LYS551  ARG553  GLY616  TRP617  ASP618  TYR619  PRO620  LYS621  CYS622 
 ASP623  PHE694  ASN695  SER759  ASP760  ASP761  ALA762  ILE779  LEU786  VAL792 
 PHE793  MET794  SER795  GLU796  ALA797  LYS798  CYS799  TRP800  GLU811  SER814 

> <Gold.Protein.RotatedAtoms>
  152.4288  134.5818  159.9949 H   0  0  0  0  0  0  0  0  0  0  0  0  # atno 6907 bound_to 6896
  151.5947  133.3357  159.3043 H   0  0  0  0  0  0  0  0  0  0  0  0  # atno 6908 bound_to 6896
  150.8179  134.7407  159.6811 H   0  0  0  0  0  0  0  0  0  0  0  0  # atno 6909 bound_to 6896
  146.0612  139.5130  142.9657 H   0  0  0  0  0  0  0  0  0  0  0  0  # atno 7974 bound_to 7965
  154.5361  140.0755  156.8431 H   0  0  0  0  0  0  0  0  0  0  0  0  # atno 8008 bound_to 7997
  155.3274  140.3400  155.4222 H   0  0  0  0  0  0  0  0  0  0  0  0  # atno 8009 bound_to 7997
  156.1830  140.1659  156.8225 H   0  0  0  0  0  0  0  0  0  0  0  0  # atno 8010 bound_to 7997
  139.5046  144.3489  151.9942 H   0  0  0  0  0  0  0  0  0  0  0  0  # atno 10167 bound_to 10162
  156.5655  130.8665  151.2822 H   0  0  0  0  0  0  0  0  0  0  0  0  # atno 10718 bound_to 10713
  154.1974  135.6417  153.5077 H   0  0  0  0  0  0  0  0  0  0  0  0  # atno 10763 bound_to 10752
  153.0020  135.5443  154.6352 H   0  0  0  0  0  0  0  0  0  0  0  0  # atno 10764 bound_to 10752
  154.5756  135.2920  155.0757 H   0  0  0  0  0  0  0  0  0  0  0  0  # atno 10765 bound_to 10752
  141.0728  133.9351  157.2450 H   0  0  0  0  0  0  0  0  0  0  0  0  # atno 11005 bound_to 11000
  145.6557  141.0252  143.1736 LP  0  0  0  0  0  0  0  0  0  0  0  0  # atno 17320 bound_to 7965
  144.7176  139.8142  143.7393 LP  0  0  0  0  0  0  0  0  0  0  0  0  # atno 17321 bound_to 7965
  140.2926  144.3736  150.6084 LP  0  0  0  0  0  0  0  0  0  0  0  0  # atno 17342 bound_to 10162
  140.5934  143.2167  151.7209 LP  0  0  0  0  0  0  0  0  0  0  0  0  # atno 17343 bound_to 10162
  157.7359  130.9770  150.2109 LP  0  0  0  0  0  0  0  0  0  0  0  0  # atno 17370 bound_to 10713
  156.2761  130.3727  149.7982 LP  0  0  0  0  0  0  0  0  0  0  0  0  # atno 17371 bound_to 10713
  139.9541  135.0169  156.9078 LP  0  0  0  0  0  0  0  0  0  0  0  0  # atno 17394 bound_to 11000
  140.5636  134.0511  155.7407 LP  0  0  0  0  0  0  0  0  0  0  0  0  # atno 17395 bound_to 11000

$$$$
