AV-unprocessed.smi:2301|AV-procd|sdf|9235|dock3
  -GOLD-   2272012453D 1   1.00000     0.00000
 Structure written by MMmdl.
 37 38  0  0  0  0  0  0  0  0  1 V2000
  153.5286  141.2637  160.2769 C   0  0  0  0  0  0  0  0  0  0  0  0
  152.7260  142.4124  159.7035 C   0  0  0  0  0  0  0  0  0  0  0  0
  152.8065  143.7032  160.2621 C   0  0  0  0  0  0  0  0  0  0  0  0
  152.0363  144.7260  159.6808 C   0  0  0  0  0  0  0  0  0  0  0  0
  151.2236  144.4186  158.5725 C   0  0  0  0  0  0  0  0  0  0  0  0
  151.2020  143.0975  158.0710 C   0  0  0  0  0  0  0  0  0  0  0  0
  150.3546  142.8928  156.9494 N   0  0  0  0  0  0  0  0  0  0  0  0
  150.1357  141.7533  156.2692 C   0  0  0  0  0  0  0  0  0  0  0  0
  150.6432  140.6611  156.5264 O   0  0  0  0  0  0  0  0  0  0  0  0
  149.2842  141.9521  155.2520 N   0  0  0  0  0  0  0  0  0  0  0  0
  148.8493  140.9313  154.3028 C   0  0  1  0  0  0  0  0  0  0  0  0
  148.5174  139.6312  155.0577 C   0  0  0  0  0  0  0  0  0  0  0  0
  148.0019  138.5387  154.1042 C   0  0  0  0  0  0  0  0  0  0  0  0
  146.7999  139.0146  153.2666 C   0  0  1  0  0  0  0  0  0  0  0  0
  145.6604  139.1620  154.0913 O   0  0  0  0  0  0  0  0  0  0  0  0
  147.1041  140.3399  152.5429 C   0  0  0  0  0  0  0  0  0  0  0  0
  147.6271  141.4235  153.5018 C   0  0  0  0  0  0  0  0  0  0  0  0
  151.9483  142.1177  158.6396 N   0  0  0  0  0  0  0  0  0  0  0  0
  149.6646  140.7193  153.6082 H   0  0  0  0  0  0  0  0  0  0  0  0
  146.5579  138.2523  152.5254 H   0  0  0  0  0  0  0  0  0  0  0  0
  153.9987  141.5422  161.2205 H   0  0  0  0  0  0  0  0  0  0  0  0
  154.3121  140.9661  159.5795 H   0  0  0  0  0  0  0  0  0  0  0  0
  152.8852  140.4024  160.4602 H   0  0  0  0  0  0  0  0  0  0  0  0
  153.4407  143.9069  161.1126 H   0  0  0  0  0  0  0  0  0  0  0  0
  152.0679  145.7301  160.0770 H   0  0  0  0  0  0  0  0  0  0  0  0
  150.6260  145.1930  158.1138 H   0  0  0  0  0  0  0  0  0  0  0  0
  149.8669  143.7125  156.6194 H   0  0  0  0  0  0  0  0  0  0  0  0
  148.9164  142.8823  155.1154 H   0  0  0  0  0  0  0  0  0  0  0  0
  149.4023  139.2687  155.5820 H   0  0  0  0  0  0  0  0  0  0  0  0
  147.7663  139.8290  155.8239 H   0  0  0  0  0  0  0  0  0  0  0  0
  148.8100  138.2493  153.4312 H   0  0  0  0  0  0  0  0  0  0  0  0
  147.7406  137.6414  154.6665 H   0  0  0  0  0  0  0  0  0  0  0  0
  144.9248  139.4006  153.5479 H   0  0  0  0  0  0  0  0  0  0  0  0
  147.8559  140.1590  151.7737 H   0  0  0  0  0  0  0  0  0  0  0  0
  146.2165  140.6986  152.0204 H   0  0  0  0  0  0  0  0  0  0  0  0
  146.8307  141.7180  154.1868 H   0  0  0  0  0  0  0  0  0  0  0  0
  147.8862  142.3166  152.9320 H   0  0  0  0  0  0  0  0  0  0  0  0
  1  2  1  0  0  0  0
  1 21  1  0  0  0  0
  1 22  1  0  0  0  0
  1 23  1  0  0  0  0
  2 18  1  0  0  0  0
  2  3  2  0  0  0  0
  3  4  1  0  0  0  0
  3 24  1  0  0  0  0
  4  5  2  0  0  0  0
  4 25  1  0  0  0  0
  5  6  1  0  0  0  0
  5 26  1  0  0  0  0
  6  7  1  0  0  0  0
  6 18  2  0  0  0  0
  7  8  1  0  0  0  0
  7 27  1  0  0  0  0
  8  9  2  0  0  0  0
  8 10  1  0  0  0  0
 10 11  1  0  0  0  0
 10 28  1  0  0  0  0
 11 19  1  0  0  0  0
 11 17  1  0  0  0  0
 11 12  1  0  0  0  0
 12 13  1  0  0  0  0
 12 29  1  0  0  0  0
 12 30  1  0  0  0  0
 13 14  1  0  0  0  0
 13 31  1  0  0  0  0
 13 32  1  0  0  0  0
 14 20  1  0  0  0  0
 14 15  1  0  0  0  0
 14 16  1  0  0  0  0
 15 33  1  0  0  0  0
 16 17  1  0  0  0  0
 16 34  1  0  0  0  0
 16 35  1  0  0  0  0
 17 36  1  0  0  0  0
 17 37  1  0  0  0  0
M  END
> <s_m_source_file>
AV-unprocessed.smi

> <i_m_source_file_index>
2301

> <i_lp_mmshare_version>
43012

> <i_f3d_flags>
0

> <s_epik_input>
W0NIM11jMVtjSF1bY0hdW2NIXWMobjEpW05IXUMoPU8pW05IXVtDQEhdMltDSDJdW0NIMl1bQ0BIXShbT0hdKVtDSDJdW0NIMl0y

> <s_epik_cmdline>
J2VwaWtfcHl0aG9uJywgJy1waCcsICc3LjAnLCAnLXRuJywgJzgnLCAnLW1hJywgJzIwMCcsICctbWV0YWxfYmluZGluZycsICctaW1hZScsICc8aW5maWxlLm1hZT4nLCAnLW9tYWUnLCAnPG91dGZpbGUubWFlPic=

> <r_lp_tautomer_probability>
1

> <r_epik_Ionization_Penalty>
9.15533e-05

> <r_epik_Ionization_Penalty_Charging>
0

> <r_epik_Ionization_Penalty_Neutral>
9.15533e-05

> <r_epik_State_Penalty>
-0

> <r_epik_Charging_Adjusted_Penalty>
0

> <i_epik_Tot_Q>
0

> <i_epik_Tot_abs_Q>
0

> <r_epik_Metal_State_Penalty>
-0

> <b_epik_Metal_Only>
0

> <s_lp_Force_Field>
OPLS_2005

> <r_lp_Energy>
13.5369

> <b_lp_Chiralities_Consistent>
1

> <s_lp_Variant>
AV-unprocessed.smi:2301-2

> <Gold.Version>
5.8.1

> <Gold.Id.Protein>
6NUR|6NUR_protein|mol2

> <Gold.PLP.Fitness>
46.7575

> <Gold.PLP.PLP>
-38.1589

> <Gold.PLP.part.hbond>
-3.0000

> <Gold.PLP.part.metal>
0.0000

> <Gold.PLP.part.buried>
-4.3808

> <Gold.PLP.part.nonpolar>
-31.8507

> <Gold.PLP.part.repulsive>
0.2264

> <Gold.PLP.ligand.clash>
0.0000

> <Gold.PLP.ligand.torsion>
0.1901

> <Gold.PLP.Chemscore.Hbond>
2.9920

> <Gold.PLP.Chemscore.CHOScore>
0.0000

> <Gold.PLP.Chemscore.Metal>
0.0000

> <Gold.Chemscore.Hbonds>
donor molecule, donor type, donor heavy atom, donor atom, acceptor molecule, acceptor atom, score
      L1  H     7    27       P1  8028  1.00
      L1  H    10    28       P1  8028  0.99
      L1  H    15    33       P1 10175  1.00

> <Gold.PLP.Chemscore.Internal.Correction>
0.0029

> <Gold.Rescore>
     Score         DG    S(hbond)    S(metal)    S(lipo)     H(rot)  DE(clash)    DE(int)     intcor
     19.89     -22.80       2.96        0.00      94.99       1.44       0.10       2.81       ----

> <Gold.Chemscore.Fitness>
19.8874

> <Gold.Chemscore.DG>
-22.8014

> <Gold.Chemscore.ZeroCoef>
-5.4800

> <Gold.Chemscore.Hbond>
2.9623

> <Gold.Chemscore.Metal>
0.0000

> <Gold.Chemscore.Lipo>
94.9926

> <Gold.Chemscore.Internal_Hbond>
0.0000

> <Gold.Chemscore.DEClash>
0.1024

> <Gold.Chemscore.DEInternal>
2.8117

> <Gold.Chemscore.Rot>
1.4402

> <Gold.Chemscore.Internal.Correction>
   9.000000E+99

> <Gold.Chemscore.Hbonds>
donor molecule, donor type, donor heavy atom, donor atom, acceptor molecule, acceptor atom, score
      L1  H     7    27       P1  8028  1.00
      L1  H    10    28       P1  8028  0.93
      L1  H    15    33       P1 10175  0.98

> <Gold.Chemscore.Hbond.Weighted>
-9.8941

> <Gold.Chemscore.Metal.Weighted>
-0.0000

> <Gold.Chemscore.Lipo.Weighted>
-11.1141

> <Gold.Chemscore.Internal_Hbond.Weighted>
0.0000

> <Gold.Chemscore.DEClash.Weighted>
0.1024

> <Gold.Chemscore.DEInternal.Weighted>
2.8117

> <Gold.Chemscore.Rot.Weighted>
3.6869

> <Gold.Chemscore.Internal.Correction.Weighted>
   9.000000E+99

> <Gold.Protein.RotatedTorsions>
[ 6907 6896 6895 6894 ] final -141.20 input  -60.11 | X-H torsion
[ 7974 7965 7964 7962 ] final  -97.39 input  175.53 | X-H torsion
[ 8008 7997 7996 7995 ] final  -32.08 input   59.86 | X-H torsion
[ 10167 10162 10161 10158 ] final   75.52 input  -65.29 | X-H torsion
[ 10718 10713 10712 10709 ] final  136.64 input   66.30 | X-H torsion
[ 10763 10752 10751 10750 ] final  -24.24 input  -60.55 | X-H torsion
[ 11005 11000 10999 10996 ] final -179.68 input  -57.11 | X-H torsion

> <Gold.Protein.ActiveResidues>
 VAL166  LYS551  ARG553  GLY616  TRP617  ASP618  TYR619  PRO620  LYS621  CYS622 
 ASP623  PHE694  ASN695  SER759  ASP760  ASP761  ALA762  ILE779  LEU786  VAL792 
 PHE793  MET794  SER795  GLU796  ALA797  LYS798  CYS799  TRP800  GLU811  SER814 

> <Gold.Protein.RotatedAtoms>
  151.0707  133.5469  159.2627 H   0  0  0  0  0  0  0  0  0  0  0  0  # atno 6907 bound_to 6896
  151.2409  135.0588  159.9034 H   0  0  0  0  0  0  0  0  0  0  0  0  # atno 6908 bound_to 6896
  152.5411  134.0482  159.8151 H   0  0  0  0  0  0  0  0  0  0  0  0  # atno 6909 bound_to 6896
  145.3343  140.9447  143.2644 H   0  0  0  0  0  0  0  0  0  0  0  0  # atno 7974 bound_to 7965
  154.4192  140.1747  156.1670 H   0  0  0  0  0  0  0  0  0  0  0  0  # atno 8008 bound_to 7997
  155.9792  140.3379  155.6623 H   0  0  0  0  0  0  0  0  0  0  0  0  # atno 8009 bound_to 7997
  155.6523  140.0691  157.2573 H   0  0  0  0  0  0  0  0  0  0  0  0  # atno 8010 bound_to 7997
  140.0021  144.5678  150.7729 H   0  0  0  0  0  0  0  0  0  0  0  0  # atno 10167 bound_to 10162
  157.4445  131.1060  151.0105 H   0  0  0  0  0  0  0  0  0  0  0  0  # atno 10718 bound_to 10713
  153.6807  135.6967  153.5119 H   0  0  0  0  0  0  0  0  0  0  0  0  # atno 10763 bound_to 10752
  153.2487  135.4282  155.0774 H   0  0  0  0  0  0  0  0  0  0  0  0  # atno 10764 bound_to 10752
  154.8401  135.3526  154.6350 H   0  0  0  0  0  0  0  0  0  0  0  0  # atno 10765 bound_to 10752
  140.4159  134.6649  157.4639 H   0  0  0  0  0  0  0  0  0  0  0  0  # atno 11005 bound_to 11000
  144.8840  139.4865  143.6709 LP  0  0  0  0  0  0  0  0  0  0  0  0  # atno 17320 bound_to 7965
  146.3033  139.7497  142.9075 LP  0  0  0  0  0  0  0  0  0  0  0  0  # atno 17321 bound_to 7965
  140.7415  143.2818  151.3575 LP  0  0  0  0  0  0  0  0  0  0  0  0  # atno 17342 bound_to 10162
  139.6264  144.0805  152.2438 LP  0  0  0  0  0  0  0  0  0  0  0  0  # atno 17343 bound_to 10162
  157.0956  130.5960  149.5449 LP  0  0  0  0  0  0  0  0  0  0  0  0  # atno 17370 bound_to 10713
  155.9962  130.5030  150.7487 LP  0  0  0  0  0  0  0  0  0  0  0  0  # atno 17371 bound_to 10713
  140.0234  134.6513  155.9207 LP  0  0  0  0  0  0  0  0  0  0  0  0  # atno 17394 bound_to 11000
  141.1803  133.6545  156.4993 LP  0  0  0  0  0  0  0  0  0  0  0  0  # atno 17395 bound_to 11000

$$$$
