AV-unprocessed.smi:2446|AV-procd|sdf|9644|dock3
  -GOLD-   2272013273D 1   1.00000     0.00000
 Structure written by MMmdl.
 39 40  0  0  0  0  0  0  0  0  1 V2000
  151.4295  137.5022  154.3831 C   0  0  0  0  0  0  0  0  0  0  0  0
  150.7551  138.8214  154.7187 C   0  0  0  0  0  0  0  0  0  0  0  0
  151.5115  139.8789  155.2678 C   0  0  0  0  0  0  0  0  0  0  0  0
  150.9885  141.0780  155.5965 N   0  0  0  0  0  0  0  0  0  0  0  0
  149.6690  141.2662  155.3906 C   0  0  0  0  0  0  0  0  0  0  0  0
  148.8206  140.2815  154.8479 C   0  0  0  0  0  0  0  0  0  0  0  0
  149.3732  139.0284  154.4884 C   0  0  0  0  0  0  0  0  0  0  0  0
  148.6072  137.9581  153.9471 N   0  0  0  0  0  0  0  0  0  0  0  0
  147.3704  137.5395  154.2801 C   0  0  0  0  0  0  0  0  0  0  0  0
  146.6791  138.0261  155.1721 O   0  0  0  0  0  0  0  0  0  0  0  0
  146.9149  136.5198  153.5294 N   0  0  0  0  0  0  0  0  0  0  0  0
  145.6266  135.8226  153.6127 C   0  0  1  0  0  0  0  0  0  0  0  0
  144.6056  136.4860  152.6690 C   0  0  0  0  0  0  0  0  0  0  0  0
  144.9257  136.2222  151.1880 C   0  0  0  0  0  0  0  0  0  0  0  0
  145.0488  134.7181  150.9004 C   0  0  0  0  0  0  0  0  0  0  0  0
  146.1017  134.0485  151.8081 C   0  0  2  0  0  0  0  0  0  0  0  0
  146.2445  132.5411  151.5132 C   0  0  0  0  0  0  0  0  0  0  0  0
  147.2234  132.0050  152.2426 F   0  0  0  0  0  0  0  0  0  0  0  0
  145.1037  131.9108  151.7932 F   0  0  0  0  0  0  0  0  0  0  0  0
  146.5174  132.3532  150.2220 F   0  0  0  0  0  0  0  0  0  0  0  0
  145.7694  134.3169  153.2934 C   0  0  0  0  0  0  0  0  0  0  0  0
  152.4838  137.5150  154.6609 H   0  0  0  0  0  0  0  0  0  0  0  0
  151.3646  137.3033  153.3132 H   0  0  0  0  0  0  0  0  0  0  0  0
  150.9509  136.6814  154.9180 H   0  0  0  0  0  0  0  0  0  0  0  0
  152.5693  139.7611  155.4520 H   0  0  0  0  0  0  0  0  0  0  0  0
  149.2739  142.2306  155.6736 H   0  0  0  0  0  0  0  0  0  0  0  0
  147.7714  140.5041  154.7324 H   0  0  0  0  0  0  0  0  0  0  0  0
  149.0202  137.4989  153.1488 H   0  0  0  0  0  0  0  0  0  0  0  0
  147.5429  136.1824  152.8142 H   0  0  0  0  0  0  0  0  0  0  0  0
  145.2421  135.9303  154.6283 H   0  0  0  0  0  0  0  0  0  0  0  0
  143.6105  136.0983  152.8908 H   0  0  0  0  0  0  0  0  0  0  0  0
  144.5597  137.5596  152.8559 H   0  0  0  0  0  0  0  0  0  0  0  0
  144.1473  136.6556  150.5594 H   0  0  0  0  0  0  0  0  0  0  0  0
  145.8543  136.7244  150.9144 H   0  0  0  0  0  0  0  0  0  0  0  0
  144.0787  134.2408  151.0445 H   0  0  0  0  0  0  0  0  0  0  0  0
  145.3099  134.5723  149.8519 H   0  0  0  0  0  0  0  0  0  0  0  0
  147.0663  134.5102  151.5920 H   0  0  0  0  0  0  0  0  0  0  0  0
  146.5289  133.8671  153.9325 H   0  0  0  0  0  0  0  0  0  0  0  0
  144.8349  133.8148  153.5470 H   0  0  0  0  0  0  0  0  0  0  0  0
  1  2  1  0  0  0  0
  1 22  1  0  0  0  0
  1 23  1  0  0  0  0
  1 24  1  0  0  0  0
  2  7  1  0  0  0  0
  2  3  2  0  0  0  0
  3  4  1  0  0  0  0
  3 25  1  0  0  0  0
  4  5  2  0  0  0  0
  5  6  1  0  0  0  0
  5 26  1  0  0  0  0
  6  7  2  0  0  0  0
  6 27  1  0  0  0  0
  7  8  1  0  0  0  0
  8  9  1  0  0  0  0
  8 28  1  0  0  0  0
  9 10  2  0  0  0  0
  9 11  1  0  0  0  0
 11 12  1  0  0  0  0
 11 29  1  0  0  0  0
 12 21  1  0  0  0  0
 12 13  1  0  0  0  0
 12 30  1  0  0  0  0
 13 14  1  0  0  0  0
 13 31  1  0  0  0  0
 13 32  1  0  0  0  0
 14 15  1  0  0  0  0
 14 33  1  0  0  0  0
 14 34  1  0  0  0  0
 15 16  1  0  0  0  0
 15 35  1  0  0  0  0
 15 36  1  0  0  0  0
 16 17  1  0  0  0  0
 16 21  1  0  0  0  0
 16 37  1  0  0  0  0
 17 18  1  0  0  0  0
 17 19  1  0  0  0  0
 17 20  1  0  0  0  0
 21 38  1  0  0  0  0
 21 39  1  0  0  0  0
M  END
> <s_m_source_file>
AV-unprocessed.smi

> <i_m_source_file_index>
2446

> <i_lp_mmshare_version>
43012

> <i_f3d_flags>
0

> <s_epik_input>
W0NIM11jMVtjSF1uW2NIXVtjSF1jMVtOSF1DKD1PKVtOSF1bQ0BASF0yW0NIMl1bQ0gyXVtDSDJdW0NAQEhdKEMoRikoRilGKVtDSDJdMg==

> <s_epik_cmdline>
J2VwaWtfcHl0aG9uJywgJy1waCcsICc3LjAnLCAnLXRuJywgJzgnLCAnLW1hJywgJzIwMCcsICctbWV0YWxfYmluZGluZycsICctaW1hZScsICc8aW5maWxlLm1hZT4nLCAnLW9tYWUnLCAnPG91dGZpbGUubWFlPic=

> <r_epik_Ionization_Penalty>
0.20168

> <r_epik_Ionization_Penalty_Charging>
0

> <r_epik_Ionization_Penalty_Neutral>
0.20168

> <r_epik_State_Penalty>
0.191514

> <r_epik_Charging_Adjusted_Penalty>
0.191514

> <i_epik_Tot_Q>
0

> <i_epik_Tot_abs_Q>
0

> <r_epik_Metal_State_Penalty>
0.142371

> <b_epik_Metal_Only>
0

> <s_lp_Force_Field>
OPLS_2005

> <r_lp_Energy>
25.5489

> <b_lp_Chiralities_Consistent>
1

> <s_lp_Variant>
AV-unprocessed.smi:2446-4

> <Gold.Version>
5.8.1

> <Gold.Id.Protein>
6NUR|6NUR_protein|mol2

> <Gold.PLP.Fitness>
41.9001

> <Gold.PLP.PLP>
-34.2629

> <Gold.PLP.part.hbond>
-3.0000

> <Gold.PLP.part.metal>
0.0000

> <Gold.PLP.part.buried>
3.6198

> <Gold.PLP.part.nonpolar>
-34.5199

> <Gold.PLP.part.repulsive>
0.1224

> <Gold.PLP.ligand.clash>
0.0000

> <Gold.PLP.ligand.torsion>
0.6927

> <Gold.PLP.Chemscore.Hbond>
2.0000

> <Gold.PLP.Chemscore.CHOScore>
1.0000

> <Gold.PLP.Chemscore.Metal>
0.0000

> <Gold.Chemscore.Hbonds>
donor molecule, donor type, donor heavy atom, donor atom, acceptor molecule, acceptor atom, score
      L1  H     8    28       P1  7948  1.00
      L1  H    11    29       P1  7948  1.00
      L1  C     5    26       P1  8028  1.00

> <Gold.PLP.Chemscore.Internal.Correction>
0.0227

> <Gold.Rescore>
     Score         DG    S(hbond)    S(metal)    S(lipo)     H(rot)  DE(clash)    DE(int)     intcor
     15.78     -17.95       1.92        0.00      73.60       1.00       0.82       1.35       ----

> <Gold.Chemscore.Fitness>
15.7780

> <Gold.Chemscore.DG>
-17.9501

> <Gold.Chemscore.ZeroCoef>
-5.4800

> <Gold.Chemscore.Hbond>
1.9218

> <Gold.Chemscore.Metal>
0.0000

> <Gold.Chemscore.Lipo>
73.5996

> <Gold.Chemscore.Internal_Hbond>
0.0000

> <Gold.Chemscore.DEClash>
0.8242

> <Gold.Chemscore.DEInternal>
1.3479

> <Gold.Chemscore.Rot>
1.0000

> <Gold.Chemscore.Internal.Correction>
   9.000000E+99

> <Gold.Chemscore.Hbonds>
donor molecule, donor type, donor heavy atom, donor atom, acceptor molecule, acceptor atom, score
      L1  H     8    28       P1  7948  0.96
      L1  H    11    29       P1  7948  0.98

> <Gold.Chemscore.Hbond.Weighted>
-6.4190

> <Gold.Chemscore.Metal.Weighted>
-0.0000

> <Gold.Chemscore.Lipo.Weighted>
-8.6112

> <Gold.Chemscore.Internal_Hbond.Weighted>
0.0000

> <Gold.Chemscore.DEClash.Weighted>
0.8242

> <Gold.Chemscore.DEInternal.Weighted>
1.3479

> <Gold.Chemscore.Rot.Weighted>
2.5600

> <Gold.Chemscore.Internal.Correction.Weighted>
   9.000000E+99

> <Gold.Protein.RotatedTorsions>
[ 6907 6896 6895 6894 ] final  157.59 input  -60.11 | X-H torsion
[ 7974 7965 7964 7962 ] final -143.34 input  175.53 | X-H torsion
[ 8008 7997 7996 7995 ] final  -33.45 input   59.86 | X-H torsion
[ 10167 10162 10161 10158 ] final  167.80 input  -65.29 | X-H torsion
[ 10718 10713 10712 10709 ] final  -88.53 input   66.30 | X-H torsion
[ 10763 10752 10751 10750 ] final  149.23 input  -60.55 | X-H torsion
[ 11005 11000 10999 10996 ] final    3.34 input  -57.11 | X-H torsion

> <Gold.Protein.ActiveResidues>
 VAL166  LYS551  ARG553  GLY616  TRP617  ASP618  TYR619  PRO620  LYS621  CYS622 
 ASP623  PHE694  ASN695  SER759  ASP760  ASP761  ALA762  ILE779  LEU786  VAL792 
 PHE793  MET794  SER795  GLU796  ALA797  LYS798  CYS799  TRP800  GLU811  SER814 

> <Gold.Protein.RotatedAtoms>
  152.0128  133.3868  159.4226 H   0  0  0  0  0  0  0  0  0  0  0  0  # atno 6907 bound_to 6896
  150.6898  134.3711  159.5002 H   0  0  0  0  0  0  0  0  0  0  0  0  # atno 6908 bound_to 6896
  152.1474  134.9014  160.0601 H   0  0  0  0  0  0  0  0  0  0  0  0  # atno 6909 bound_to 6896
  144.8377  140.5847  143.5473 H   0  0  0  0  0  0  0  0  0  0  0  0  # atno 7974 bound_to 7965
  154.4148  140.1710  156.1890 H   0  0  0  0  0  0  0  0  0  0  0  0  # atno 8008 bound_to 7997
  155.9619  140.3393  155.6474 H   0  0  0  0  0  0  0  0  0  0  0  0  # atno 8009 bound_to 7997
  155.6738  140.0714  157.2501 H   0  0  0  0  0  0  0  0  0  0  0  0  # atno 8010 bound_to 7997
  139.4953  144.3883  151.9546 H   0  0  0  0  0  0  0  0  0  0  0  0  # atno 10167 bound_to 10162
  155.9983  130.4839  150.5033 H   0  0  0  0  0  0  0  0  0  0  0  0  # atno 10718 bound_to 10713
  154.0677  135.2869  155.3313 H   0  0  0  0  0  0  0  0  0  0  0  0  # atno 10763 bound_to 10752
  154.6767  135.5279  153.8212 H   0  0  0  0  0  0  0  0  0  0  0  0  # atno 10764 bound_to 10752
  153.0497  135.6571  154.0861 H   0  0  0  0  0  0  0  0  0  0  0  0  # atno 10765 bound_to 10752
  140.5942  133.9895  155.8102 H   0  0  0  0  0  0  0  0  0  0  0  0  # atno 11005 bound_to 11000
  145.4760  139.1499  143.3788 LP  0  0  0  0  0  0  0  0  0  0  0  0  # atno 17320 bound_to 7965
  146.2673  140.4895  142.8828 LP  0  0  0  0  0  0  0  0  0  0  0  0  # atno 17321 bound_to 7965
  140.3320  144.3305  150.5985 LP  0  0  0  0  0  0  0  0  0  0  0  0  # atno 17342 bound_to 10162
  140.5637  143.2189  151.7721 LP  0  0  0  0  0  0  0  0  0  0  0  0  # atno 17343 bound_to 10162
  157.3015  131.0646  151.2065 LP  0  0  0  0  0  0  0  0  0  0  0  0  # atno 17370 bound_to 10713
  157.3042  130.6858  149.6180 LP  0  0  0  0  0  0  0  0  0  0  0  0  # atno 17371 bound_to 10713
  141.0915  133.9910  157.3230 LP  0  0  0  0  0  0  0  0  0  0  0  0  # atno 17394 bound_to 11000
  139.9260  135.0201  156.8237 LP  0  0  0  0  0  0  0  0  0  0  0  0  # atno 17395 bound_to 11000

$$$$
