AV-unprocessed.smi:1800|AV-procd|sdf|7266|dock8
  -GOLD-   22720 8523D 1   1.00000     0.00000
 Structure written by MMmdl.
 35 36  0  0  0  0  0  0  0  0  2 V2000
  154.0049  139.2752  160.3048 C   0  0  0  0  0  0  0  0  0  0  0  0
  153.0738  140.2747  159.6049 C   0  0  1  0  0  0  0  0  0  0  0  0
  153.4093  141.7395  159.9856 C   0  0  0  0  0  0  0  0  0  0  0  0
  152.5577  142.7396  159.3465 N   0  0  0  0  0  0  0  0  0  0  0  0
  152.5636  144.1126  159.5072 C   0  0  0  0  0  0  0  0  0  0  0  0
  151.5934  144.6252  158.6948 C   0  0  0  0  0  0  0  0  0  0  0  0
  151.0466  143.4776  158.0569 C   0  0  0  0  0  0  0  0  0  0  0  0
  151.6343  142.3547  158.4345 N   0  0  0  0  0  0  0  0  0  0  0  0
  153.1837  140.0936  158.1639 N   0  5  0  0  0  0  0  0  0  0  0  0
  152.1684  139.0851  157.4000 S   0  0  0  0  0  0  0  0  0  0  0  0
  152.7809  137.7700  157.1511 O   0  0  0  0  0  0  0  0  0  0  0  0
  150.8174  139.0871  157.9860 O   0  0  0  0  0  0  0  0  0  0  0  0
  152.0369  139.9308  155.7503 C   0  0  0  0  0  0  0  0  0  0  0  0
  150.5763  140.2271  155.3846 C   0  0  0  0  0  0  0  0  0  0  0  0
  150.0576  138.9934  154.6299 C   0  0  0  0  0  0  0  0  0  0  0  0
  151.2895  138.1425  154.2878 C   0  0  0  0  0  0  0  0  0  0  0  0
  152.5019  139.0184  154.6107 C   0  0  0  0  0  0  0  0  0  0  0  0
  153.9376  139.3729  161.3884 H   0  0  0  0  0  0  0  0  0  0  0  0
  155.0465  139.4334  160.0218 H   0  0  0  0  0  0  0  0  0  0  0  0
  153.7416  138.2473  160.0519 H   0  0  0  0  0  0  0  0  0  0  0  0
  152.0632  140.0654  159.9586 H   0  0  0  0  0  0  0  0  0  0  0  0
  153.3066  141.8676  161.0637 H   0  0  0  0  0  0  0  0  0  0  0  0
  154.4525  141.9616  159.7533 H   0  0  0  0  0  0  0  0  0  0  0  0
  153.2445  144.6020  160.1878 H   0  0  0  0  0  0  0  0  0  0  0  0
  151.3152  145.6614  158.5771 H   0  0  0  0  0  0  0  0  0  0  0  0
  150.2490  143.4277  157.3306 H   0  0  0  0  0  0  0  0  0  0  0  0
  152.6430  140.8359  155.7947 H   0  0  0  0  0  0  0  0  0  0  0  0
  149.9666  140.4697  156.2554 H   0  0  0  0  0  0  0  0  0  0  0  0
  150.5428  141.0920  154.7213 H   0  0  0  0  0  0  0  0  0  0  0  0
  149.3615  138.4225  155.2456 H   0  0  0  0  0  0  0  0  0  0  0  0
  149.5221  139.2943  153.7291 H   0  0  0  0  0  0  0  0  0  0  0  0
  151.3044  137.2511  154.9162 H   0  0  0  0  0  0  0  0  0  0  0  0
  151.2887  137.8092  153.2499 H   0  0  0  0  0  0  0  0  0  0  0  0
  152.7458  139.6290  153.7405 H   0  0  0  0  0  0  0  0  0  0  0  0
  153.3895  138.4339  154.8519 H   0  0  0  0  0  0  0  0  0  0  0  0
  1  2  1  0  0  0  0
  1 18  1  0  0  0  0
  1 19  1  0  0  0  0
  1 20  1  0  0  0  0
  2  3  1  0  0  0  0
  2  9  1  0  0  0  0
  2 21  1  0  0  0  0
  3  4  1  0  0  0  0
  3 22  1  0  0  0  0
  3 23  1  0  0  0  0
  4  8  1  0  0  0  0
  4  5  1  0  0  0  0
  5  6  2  0  0  0  0
  5 24  1  0  0  0  0
  6  7  1  0  0  0  0
  6 25  1  0  0  0  0
  7  8  2  0  0  0  0
  7 26  1  0  0  0  0
  9 10  1  0  0  0  0
 10 11  2  0  0  0  0
 10 12  2  0  0  0  0
 10 13  1  0  0  0  0
 13 17  1  0  0  0  0
 13 14  1  0  0  0  0
 13 27  1  0  0  0  0
 14 15  1  0  0  0  0
 14 28  1  0  0  0  0
 14 29  1  0  0  0  0
 15 16  1  0  0  0  0
 15 30  1  0  0  0  0
 15 31  1  0  0  0  0
 16 17  1  0  0  0  0
 16 32  1  0  0  0  0
 16 33  1  0  0  0  0
 17 34  1  0  0  0  0
 17 35  1  0  0  0  0
M  CHG  1   9  -1
M  END
> <s_m_source_file>
AV-unprocessed.smi

> <i_m_source_file_index>
1800

> <i_lp_mmshare_version>
43012

> <i_f3d_flags>
0

> <s_epik_input>
bjFbY0hdW2NIXVtjSF1uMVtDSDJdW0NAQEhdKFtDSDNdKVtOSF1TKD1PKSg9TylbQ0hdMltDSDJdW0NIMl1bQ0gyXVtDSDJdMg==

> <s_epik_cmdline>
J2VwaWtfcHl0aG9uJywgJy1waCcsICc3LjAnLCAnLXRuJywgJzgnLCAnLW1hJywgJzIwMCcsICctbWV0YWxfYmluZGluZycsICctaW1hZScsICc8aW5maWxlLm1hZT4nLCAnLW9tYWUnLCAnPG91dGZpbGUubWFlPic=

> <r_lp_tautomer_probability>
1

> <r_epik_Ionization_Penalty>
6.58538

> <r_epik_Ionization_Penalty_Charging>
6.58536

> <r_epik_Ionization_Penalty_Neutral>
2.3841e-05

> <r_epik_State_Penalty>
6.58535

> <r_epik_Charging_Adjusted_Penalty>
13.1707

> <i_epik_Tot_Q>
-1

> <i_epik_Tot_abs_Q>
1

> <r_epik_Metal_State_Penalty>
2.50999

> <b_epik_Metal_Only>
1

> <s_lp_Force_Field>
OPLS_2005

> <r_lp_Energy>
15.5507

> <b_lp_Chiralities_Consistent>
1

> <s_lp_Variant>
AV-unprocessed.smi:1800-4

> <Gold.Version>
5.8.1

> <Gold.Id.Protein>
6NUR|6NUR_protein|mol2

> <Gold.PLP.Fitness>
48.4516

> <Gold.PLP.PLP>
-40.3891

> <Gold.PLP.part.hbond>
-1.0000

> <Gold.PLP.part.metal>
0.0000

> <Gold.PLP.part.buried>
-2.7229

> <Gold.PLP.part.nonpolar>
-36.9909

> <Gold.PLP.part.repulsive>
0.0244

> <Gold.PLP.ligand.clash>
0.0000

> <Gold.PLP.ligand.torsion>
1.0144

> <Gold.PLP.Chemscore.Hbond>
2.0000

> <Gold.PLP.Chemscore.CHOScore>
1.0000

> <Gold.PLP.Chemscore.Metal>
0.0000

> <Gold.Chemscore.Hbonds>
donor molecule, donor type, donor heavy atom, donor atom, acceptor molecule, acceptor atom, score
      P1  H  7997  8009       L1     9  1.56
      L1  C     7    26       P1  8028  1.00

> <Gold.PLP.Chemscore.Internal.Correction>
1.0913

> <Gold.Rescore>
     Score         DG    S(hbond)    S(metal)    S(lipo)     H(rot)  DE(clash)    DE(int)     intcor
     14.09     -16.67       0.93        0.00     102.26       1.51       0.06       2.52       ----

> <Gold.Chemscore.Fitness>
14.0950

> <Gold.Chemscore.DG>
-16.6672

> <Gold.Chemscore.ZeroCoef>
-5.4800

> <Gold.Chemscore.Hbond>
0.9283

> <Gold.Chemscore.Metal>
0.0000

> <Gold.Chemscore.Lipo>
102.2562

> <Gold.Chemscore.Internal_Hbond>
0.0000

> <Gold.Chemscore.DEClash>
0.0570

> <Gold.Chemscore.DEInternal>
2.5153

> <Gold.Chemscore.Rot>
1.5146

> <Gold.Chemscore.Internal.Correction>
   9.000000E+99

> <Gold.Chemscore.Hbonds>
donor molecule, donor type, donor heavy atom, donor atom, acceptor molecule, acceptor atom, score
      P1  H  7997  8009       L1     9  0.11

> <Gold.Chemscore.Hbond.Weighted>
-3.1006

> <Gold.Chemscore.Metal.Weighted>
-0.0000

> <Gold.Chemscore.Lipo.Weighted>
-11.9640

> <Gold.Chemscore.Internal_Hbond.Weighted>
0.0000

> <Gold.Chemscore.DEClash.Weighted>
0.0570

> <Gold.Chemscore.DEInternal.Weighted>
2.5153

> <Gold.Chemscore.Rot.Weighted>
3.8773

> <Gold.Chemscore.Internal.Correction.Weighted>
   9.000000E+99

> <Gold.Protein.RotatedTorsions>
[ 6907 6896 6895 6894 ] final  153.24 input  -60.11 | X-H torsion
[ 7974 7965 7964 7962 ] final    8.86 input  175.53 | X-H torsion
[ 8008 7997 7996 7995 ] final  166.02 input   59.86 | X-H torsion
[ 10167 10162 10161 10158 ] final  103.65 input  -65.29 | X-H torsion
[ 10718 10713 10712 10709 ] final  -15.55 input   66.30 | X-H torsion
[ 10763 10752 10751 10750 ] final   35.54 input  -60.55 | X-H torsion
[ 11005 11000 10999 10996 ] final   57.04 input  -57.11 | X-H torsion

> <Gold.Protein.ActiveResidues>
 VAL166  LYS551  ARG553  GLY616  TRP617  ASP618  TYR619  PRO620  LYS621  CYS622 
 ASP623  PHE694  ASN695  SER759  ASP760  ASP761  ALA762  ILE779  LEU786  VAL792 
 PHE793  MET794  SER795  GLU796  ALA797  LYS798  CYS799  TRP800  GLU811  SER814 

> <Gold.Protein.RotatedAtoms>
  152.0755  133.4127  159.4477 H   0  0  0  0  0  0  0  0  0  0  0  0  # atno 6907 bound_to 6896
  150.6863  134.3042  159.4728 H   0  0  0  0  0  0  0  0  0  0  0  0  # atno 6908 bound_to 6896
  152.0878  134.9427  160.0623 H   0  0  0  0  0  0  0  0  0  0  0  0  # atno 6909 bound_to 6896
  146.2411  139.9870  142.8430 H   0  0  0  0  0  0  0  0  0  0  0  0  # atno 7974 bound_to 7965
  156.1753  140.1654  156.8374 H   0  0  0  0  0  0  0  0  0  0  0  0  # atno 8008 bound_to 7997
  154.5300  140.0759  156.8362 H   0  0  0  0  0  0  0  0  0  0  0  0  # atno 8009 bound_to 7997
  155.3426  140.3385  155.4241 H   0  0  0  0  0  0  0  0  0  0  0  0  # atno 8010 bound_to 7997
  139.7244  144.7051  151.0820 H   0  0  0  0  0  0  0  0  0  0  0  0  # atno 10167 bound_to 10162
  156.6002  130.4822  149.6243 H   0  0  0  0  0  0  0  0  0  0  0  0  # atno 10718 bound_to 10713
  153.0115  135.6330  154.1843 H   0  0  0  0  0  0  0  0  0  0  0  0  # atno 10763 bound_to 10752
  154.1585  135.2825  155.3117 H   0  0  0  0  0  0  0  0  0  0  0  0  # atno 10764 bound_to 10752
  154.5999  135.5590  153.7424 H   0  0  0  0  0  0  0  0  0  0  0  0  # atno 10765 bound_to 10752
  140.0483  134.5774  155.9295 H   0  0  0  0  0  0  0  0  0  0  0  0  # atno 11005 bound_to 11000
  145.1538  140.9637  143.4417 LP  0  0  0  0  0  0  0  0  0  0  0  0  # atno 17320 bound_to 7965
  145.0180  139.3450  143.6087 LP  0  0  0  0  0  0  0  0  0  0  0  0  # atno 17321 bound_to 7965
  140.7760  143.5124  150.9637 LP  0  0  0  0  0  0  0  0  0  0  0  0  # atno 17342 bound_to 10162
  139.8811  143.7071  152.3157 LP  0  0  0  0  0  0  0  0  0  0  0  0  # atno 17343 bound_to 10162
  156.2475  130.6888  151.1614 LP  0  0  0  0  0  0  0  0  0  0  0  0  # atno 17370 bound_to 10713
  157.7281  131.0634  150.5833 LP  0  0  0  0  0  0  0  0  0  0  0  0  # atno 17371 bound_to 10713
  141.1918  133.6573  156.5471 LP  0  0  0  0  0  0  0  0  0  0  0  0  # atno 17394 bound_to 11000
  140.3958  134.7400  157.4750 LP  0  0  0  0  0  0  0  0  0  0  0  0  # atno 17395 bound_to 11000

$$$$
