AV-unprocessed.smi:1946|AV-procd|sdf|7861|dock8
  -GOLD-   2272010 13D 1   1.00000     0.00000
 Structure written by MMmdl.
 38 40  0  0  0  0  0  0  0  0  1 V2000
  144.4992  143.9045  155.0809 C   0  0  0  0  0  0  0  0  0  0  0  0
  144.6493  142.3733  156.0872 S   0  0  0  0  0  0  0  0  0  0  0  0
  144.3765  142.7205  157.4905 O   0  0  0  0  0  0  0  0  0  0  0  0
  143.8610  141.3179  155.4318 O   0  0  0  0  0  0  0  0  0  0  0  0
  146.3805  141.9467  155.9469 C   0  0  0  0  0  0  0  0  0  0  0  0
  147.0057  141.9582  154.6843 C   0  0  0  0  0  0  0  0  0  0  0  0
  148.3769  141.6522  154.5839 C   0  0  0  0  0  0  0  0  0  0  0  0
  149.1269  141.3494  155.7427 C   0  0  0  0  0  0  0  0  0  0  0  0
  150.6057  141.0092  155.6430 C   0  0  2  0  0  0  0  0  0  0  0  0
  150.8620  140.0004  154.6845 O   0  0  0  0  0  0  0  0  0  0  0  0
  151.1762  140.5859  157.0100 C   0  0  0  0  0  0  0  0  0  0  0  0
  151.3681  141.7151  157.9016 N   0  0  0  0  0  0  0  0  0  0  0  0
  150.9310  142.9772  157.7272 C   0  0  0  0  0  0  0  0  0  0  0  0
  151.2211  143.8592  158.6799 N   0  0  0  0  0  0  0  0  0  0  0  0
  151.9292  143.0782  159.5774 C   0  0  0  0  0  0  0  0  0  0  0  0
  152.5236  143.4122  160.8155 C   0  0  0  0  0  0  0  0  0  0  0  0
  153.2052  142.4329  161.5679 C   0  0  0  0  0  0  0  0  0  0  0  0
  153.3030  141.1075  161.0962 C   0  0  0  0  0  0  0  0  0  0  0  0
  152.7181  140.7506  159.8659 C   0  0  0  0  0  0  0  0  0  0  0  0
  152.0394  141.7310  159.1185 C   0  0  0  0  0  0  0  0  0  0  0  0
  148.4918  141.3516  157.0038 C   0  0  0  0  0  0  0  0  0  0  0  0
  147.1209  141.6554  157.1093 C   0  0  0  0  0  0  0  0  0  0  0  0
  143.4672  144.2538  155.1043 H   0  0  0  0  0  0  0  0  0  0  0  0
  144.7874  143.6935  154.0514 H   0  0  0  0  0  0  0  0  0  0  0  0
  145.1520  144.6752  155.4904 H   0  0  0  0  0  0  0  0  0  0  0  0
  146.4424  142.1975  153.7944 H   0  0  0  0  0  0  0  0  0  0  0  0
  148.8513  141.6509  153.6134 H   0  0  0  0  0  0  0  0  0  0  0  0
  151.1352  141.9006  155.3035 H   0  0  0  0  0  0  0  0  0  0  0  0
  151.1087  139.2100  155.1401 H   0  0  0  0  0  0  0  0  0  0  0  0
  150.4986  139.8842  157.4981 H   0  0  0  0  0  0  0  0  0  0  0  0
  152.1282  140.0670  156.8875 H   0  0  0  0  0  0  0  0  0  0  0  0
  150.3648  143.2641  156.8530 H   0  0  0  0  0  0  0  0  0  0  0  0
  152.4551  144.4239  161.1872 H   0  0  0  0  0  0  0  0  0  0  0  0
  153.6560  142.7007  162.5123 H   0  0  0  0  0  0  0  0  0  0  0  0
  153.8275  140.3651  161.6796 H   0  0  0  0  0  0  0  0  0  0  0  0
  152.7899  139.7368  159.5008 H   0  0  0  0  0  0  0  0  0  0  0  0
  149.0548  141.1211  157.8965 H   0  0  0  0  0  0  0  0  0  0  0  0
  146.6449  141.6633  158.0789 H   0  0  0  0  0  0  0  0  0  0  0  0
  1  2  1  0  0  0  0
  1 23  1  0  0  0  0
  1 24  1  0  0  0  0
  1 25  1  0  0  0  0
  2  3  2  0  0  0  0
  2  4  2  0  0  0  0
  2  5  1  0  0  0  0
  5 22  1  0  0  0  0
  5  6  2  0  0  0  0
  6  7  1  0  0  0  0
  6 26  1  0  0  0  0
  7  8  2  0  0  0  0
  7 27  1  0  0  0  0
  8  9  1  0  0  0  0
  8 21  1  0  0  0  0
  9 10  1  0  0  0  0
  9 11  1  0  0  0  0
  9 28  1  0  0  0  0
 10 29  1  0  0  0  0
 11 12  1  0  0  0  0
 11 30  1  0  0  0  0
 11 31  1  0  0  0  0
 12 20  1  0  0  0  0
 12 13  1  0  0  0  0
 13 14  2  0  0  0  0
 13 32  1  0  0  0  0
 14 15  1  0  0  0  0
 15 20  2  0  0  0  0
 15 16  1  0  0  0  0
 16 17  2  0  0  0  0
 16 33  1  0  0  0  0
 17 18  1  0  0  0  0
 17 34  1  0  0  0  0
 18 19  2  0  0  0  0
 18 35  1  0  0  0  0
 19 20  1  0  0  0  0
 19 36  1  0  0  0  0
 21 22  2  0  0  0  0
 21 37  1  0  0  0  0
 22 38  1  0  0  0  0
M  END
> <s_m_source_file>
AV-unprocessed.smi

> <i_m_source_file_index>
1946

> <i_lp_mmshare_version>
43012

> <i_f3d_flags>
0

> <s_epik_input>
W0NIM11TKD1PKSg9TyljMVtjSF1bY0hdYyhbY0hdW2NIXTEpW0NASF0oW09IXSlbQ0gyXW4oW2NIXW4yKWMoYzIzKVtjSF1bY0hdW2NIXVtjSF0z

> <s_epik_cmdline>
J2VwaWtfcHl0aG9uJywgJy1waCcsICc3LjAnLCAnLXRuJywgJzgnLCAnLW1hJywgJzIwMCcsICctbWV0YWxfYmluZGluZycsICctaW1hZScsICc8aW5maWxlLm1hZT4nLCAnLW9tYWUnLCAnPG91dGZpbGUubWFlPic=

> <r_epik_Ionization_Penalty>
0.0696512

> <r_epik_Ionization_Penalty_Charging>
0

> <r_epik_Ionization_Penalty_Neutral>
0.0696512

> <r_epik_State_Penalty>
0.0610247

> <r_epik_Charging_Adjusted_Penalty>
0.0610247

> <i_epik_Tot_Q>
0

> <i_epik_Tot_abs_Q>
0

> <r_epik_Metal_State_Penalty>
6.42746e-05

> <b_epik_Metal_Only>
0

> <s_lp_Force_Field>
OPLS_2005

> <r_lp_Energy>
7.3467

> <b_lp_Chiralities_Consistent>
1

> <s_lp_Variant>
AV-unprocessed.smi:1946-1

> <Gold.Version>
5.8.1

> <Gold.Id.Protein>
6NUR|6NUR_protein|mol2

> <Gold.PLP.Fitness>
47.7976

> <Gold.PLP.PLP>
-42.6814

> <Gold.PLP.part.hbond>
-1.0000

> <Gold.PLP.part.metal>
0.0000

> <Gold.PLP.part.buried>
-6.3496

> <Gold.PLP.part.nonpolar>
-35.9966

> <Gold.PLP.part.repulsive>
0.2778

> <Gold.PLP.ligand.clash>
0.0000

> <Gold.PLP.ligand.torsion>
1.4626

> <Gold.PLP.Chemscore.Hbond>
1.0000

> <Gold.PLP.Chemscore.CHOScore>
1.0000

> <Gold.PLP.Chemscore.Metal>
0.0000

> <Gold.Chemscore.Hbonds>
donor molecule, donor type, donor heavy atom, donor atom, acceptor molecule, acceptor atom, score
      P1  H  7989  7998       L1    10  1.00
      L1  C    13    32       P1  8028  1.00

> <Gold.PLP.Chemscore.Internal.Correction>
2.0414

> <Gold.Rescore>
     Score         DG    S(hbond)    S(metal)    S(lipo)     H(rot)  DE(clash)    DE(int)     intcor
     13.93     -15.45       0.87        0.00     103.67       1.98       0.05       1.46       ----

> <Gold.Chemscore.Fitness>
13.9328

> <Gold.Chemscore.DG>
-15.4458

> <Gold.Chemscore.ZeroCoef>
-5.4800

> <Gold.Chemscore.Hbond>
0.8728

> <Gold.Chemscore.Metal>
0.0000

> <Gold.Chemscore.Lipo>
103.6736

> <Gold.Chemscore.Internal_Hbond>
0.0000

> <Gold.Chemscore.DEClash>
0.0488

> <Gold.Chemscore.DEInternal>
1.4642

> <Gold.Chemscore.Rot>
1.9840

> <Gold.Chemscore.Internal.Correction>
   9.000000E+99

> <Gold.Chemscore.Hbonds>
donor molecule, donor type, donor heavy atom, donor atom, acceptor molecule, acceptor atom, score
      P1  H  7989  7998       L1    10  0.30

> <Gold.Chemscore.Hbond.Weighted>
-2.9151

> <Gold.Chemscore.Metal.Weighted>
-0.0000

> <Gold.Chemscore.Lipo.Weighted>
-12.1298

> <Gold.Chemscore.Internal_Hbond.Weighted>
0.0000

> <Gold.Chemscore.DEClash.Weighted>
0.0488

> <Gold.Chemscore.DEInternal.Weighted>
1.4642

> <Gold.Chemscore.Rot.Weighted>
5.0791

> <Gold.Chemscore.Internal.Correction.Weighted>
   9.000000E+99

> <Gold.Protein.RotatedTorsions>
[ 6907 6896 6895 6894 ] final  -83.21 input  -60.11 | X-H torsion
[ 7974 7965 7964 7962 ] final    0.06 input  175.53 | X-H torsion
[ 8008 7997 7996 7995 ] final  -23.11 input   59.86 | X-H torsion
[ 10167 10162 10161 10158 ] final  144.67 input  -65.29 | X-H torsion
[ 10718 10713 10712 10709 ] final   84.92 input   66.30 | X-H torsion
[ 10763 10752 10751 10750 ] final   20.19 input  -60.55 | X-H torsion
[ 11005 11000 10999 10996 ] final  153.21 input  -57.11 | X-H torsion

> <Gold.Protein.ActiveResidues>
 VAL166  LYS551  ARG553  GLY616  TRP617  ASP618  TYR619  PRO620  LYS621  CYS622 
 ASP623  PHE694  ASN695  SER759  ASP760  ASP761  ALA762  ILE779  LEU786  VAL792 
 PHE793  MET794  SER795  GLU796  ALA797  LYS798  CYS799  TRP800  GLU811  SER814 

> <Gold.Protein.RotatedAtoms>
  150.6888  134.3546  159.4923 H   0  0  0  0  0  0  0  0  0  0  0  0  # atno 6907 bound_to 6896
  152.1383  134.9079  160.0564 H   0  0  0  0  0  0  0  0  0  0  0  0  # atno 6908 bound_to 6896
  152.0223  133.3869  159.4300 H   0  0  0  0  0  0  0  0  0  0  0  0  # atno 6909 bound_to 6896
  146.2431  140.1195  142.8341 H   0  0  0  0  0  0  0  0  0  0  0  0  # atno 7974 bound_to 7965
  154.4604  140.1989  156.0260 H   0  0  0  0  0  0  0  0  0  0  0  0  # atno 8008 bound_to 7997
  156.0829  140.3269  155.7688 H   0  0  0  0  0  0  0  0  0  0  0  0  # atno 8009 bound_to 7997
  155.5082  140.0559  157.2918 H   0  0  0  0  0  0  0  0  0  0  0  0  # atno 8010 bound_to 7997
  139.4942  144.5956  151.6591 H   0  0  0  0  0  0  0  0  0  0  0  0  # atno 10167 bound_to 10162
  157.6906  131.0153  150.2745 H   0  0  0  0  0  0  0  0  0  0  0  0  # atno 10718 bound_to 10713
  153.1098  135.6694  153.9521 H   0  0  0  0  0  0  0  0  0  0  0  0  # atno 10763 bound_to 10752
  153.9067  135.3029  155.3450 H   0  0  0  0  0  0  0  0  0  0  0  0  # atno 10764 bound_to 10752
  154.7518  135.5031  153.9380 H   0  0  0  0  0  0  0  0  0  0  0  0  # atno 10765 bound_to 10752
  140.1377  134.8760  157.2289 H   0  0  0  0  0  0  0  0  0  0  0  0  # atno 11005 bound_to 11000
  145.0418  140.8951  143.5048 LP  0  0  0  0  0  0  0  0  0  0  0  0  # atno 17320 bound_to 7965
  145.1277  139.2652  143.5555 LP  0  0  0  0  0  0  0  0  0  0  0  0  # atno 17321 bound_to 7965
  140.5593  144.0296  150.6162 LP  0  0  0  0  0  0  0  0  0  0  0  0  # atno 17342 bound_to 10162
  140.3376  143.3039  152.0622 LP  0  0  0  0  0  0  0  0  0  0  0  0  # atno 17343 bound_to 10162
  156.3302  130.3799  149.7498 LP  0  0  0  0  0  0  0  0  0  0  0  0  # atno 17370 bound_to 10713
  156.5040  130.8141  151.3143 LP  0  0  0  0  0  0  0  0  0  0  0  0  # atno 17371 bound_to 10713
  140.2762  134.3403  155.7357 LP  0  0  0  0  0  0  0  0  0  0  0  0  # atno 17394 bound_to 11000
  141.2181  133.7451  156.9296 LP  0  0  0  0  0  0  0  0  0  0  0  0  # atno 17395 bound_to 11000

$$$$
