AV-unprocessed.smi:2170|AV-procd|sdf|8824|dock2
  -GOLD-   2272012 13D 1   1.00000     0.00000
 Structure written by MMmdl.
 46 47  0  0  0  0  0  0  0  0  1 V2000
  148.6060  132.9574  153.6023 C   0  0  0  0  0  0  0  0  0  0  0  0
  149.4864  133.8312  154.5119 C   0  0  0  0  0  0  0  0  0  0  0  0
  150.0476  133.0474  155.7119 C   0  0  0  0  0  0  0  0  0  0  0  0
  148.7672  135.0551  154.9378 N   0  0  0  0  0  0  0  0  0  0  0  0
  147.4570  134.8363  155.5779 C   0  0  0  0  0  0  0  0  0  0  0  0
  149.7294  136.3631  155.5553 S   0  0  0  0  0  0  0  0  0  0  0  0
  148.9792  137.0378  156.6259 O   0  0  0  0  0  0  0  0  0  0  0  0
  151.1037  135.8897  155.7822 O   0  0  0  0  0  0  0  0  0  0  0  0
  149.7480  137.3902  154.1699 N   0  0  0  0  0  0  0  0  0  0  0  0
  149.0981  138.6983  154.2211 C   0  0  0  0  0  0  0  0  0  0  0  0
  149.7233  139.6214  155.2483 C   0  0  0  0  0  0  0  0  0  0  0  0
  151.1105  139.8631  155.2553 C   0  0  0  0  0  0  0  0  0  0  0  0
  151.6482  140.7185  156.2359 C   0  0  0  0  0  0  0  0  0  0  0  0
  150.7819  141.3116  157.1857 C   0  0  0  0  0  0  0  0  0  0  0  0
  151.2995  142.1724  158.1782 N   0  0  0  0  0  0  0  0  0  0  0  0
  152.2059  141.5555  159.1436 C   0  0  0  0  0  0  0  0  0  0  0  0
  152.4455  142.5007  160.3337 C   0  0  0  0  0  0  0  0  0  0  0  0
  152.9136  143.7603  159.8631 O   0  0  0  0  0  0  0  0  0  0  0  0
  151.9636  144.3935  159.0126 C   0  0  0  0  0  0  0  0  0  0  0  0
  151.7097  143.5163  157.7750 C   0  0  0  0  0  0  0  0  0  0  0  0
  149.4472  141.0694  157.1770 N   0  0  0  0  0  0  0  0  0  0  0  0
  148.9369  140.2488  156.2349 C   0  0  0  0  0  0  0  0  0  0  0  0
  149.1886  132.1427  153.1715 H   0  0  0  0  0  0  0  0  0  0  0  0
  148.1979  133.5391  152.7751 H   0  0  0  0  0  0  0  0  0  0  0  0
  147.7725  132.5058  154.1394 H   0  0  0  0  0  0  0  0  0  0  0  0
  150.3364  134.1382  153.9029 H   0  0  0  0  0  0  0  0  0  0  0  0
  150.6715  132.2199  155.3735 H   0  0  0  0  0  0  0  0  0  0  0  0
  149.2559  132.6242  156.3306 H   0  0  0  0  0  0  0  0  0  0  0  0
  150.6658  133.6843  156.3453 H   0  0  0  0  0  0  0  0  0  0  0  0
  147.5875  134.5152  156.6117 H   0  0  0  0  0  0  0  0  0  0  0  0
  146.8723  134.0842  155.0511 H   0  0  0  0  0  0  0  0  0  0  0  0
  146.8733  135.7559  155.5820 H   0  0  0  0  0  0  0  0  0  0  0  0
  149.6596  136.8983  153.2814 H   0  0  0  0  0  0  0  0  0  0  0  0
  149.1812  139.1663  153.2400 H   0  0  0  0  0  0  0  0  0  0  0  0
  148.0330  138.5685  154.4170 H   0  0  0  0  0  0  0  0  0  0  0  0
  151.7547  139.3959  154.5252 H   0  0  0  0  0  0  0  0  0  0  0  0
  152.7132  140.8939  156.2585 H   0  0  0  0  0  0  0  0  0  0  0  0
  151.8178  140.6088  159.5165 H   0  0  0  0  0  0  0  0  0  0  0  0
  153.1517  141.3361  158.6463 H   0  0  0  0  0  0  0  0  0  0  0  0
  151.5316  142.6335  160.9151 H   0  0  0  0  0  0  0  0  0  0  0  0
  153.1905  142.0748  161.0059 H   0  0  0  0  0  0  0  0  0  0  0  0
  151.0357  144.5758  159.5573 H   0  0  0  0  0  0  0  0  0  0  0  0
  152.3509  145.3659  158.7095 H   0  0  0  0  0  0  0  0  0  0  0  0
  152.6159  143.4513  157.1714 H   0  0  0  0  0  0  0  0  0  0  0  0
  150.9377  143.9781  157.1581 H   0  0  0  0  0  0  0  0  0  0  0  0
  147.8699  140.0859  156.2751 H   0  0  0  0  0  0  0  0  0  0  0  0
  1  2  1  0  0  0  0
  1 23  1  0  0  0  0
  1 24  1  0  0  0  0
  1 25  1  0  0  0  0
  2  3  1  0  0  0  0
  2  4  1  0  0  0  0
  2 26  1  0  0  0  0
  3 27  1  0  0  0  0
  3 28  1  0  0  0  0
  3 29  1  0  0  0  0
  4  5  1  0  0  0  0
  4  6  1  0  0  0  0
  5 30  1  0  0  0  0
  5 31  1  0  0  0  0
  5 32  1  0  0  0  0
  6  7  2  0  0  0  0
  6  8  2  0  0  0  0
  6  9  1  0  0  0  0
  9 10  1  0  0  0  0
  9 33  1  0  0  0  0
 10 11  1  0  0  0  0
 10 34  1  0  0  0  0
 10 35  1  0  0  0  0
 11 22  1  0  0  0  0
 11 12  2  0  0  0  0
 12 13  1  0  0  0  0
 12 36  1  0  0  0  0
 13 14  2  0  0  0  0
 13 37  1  0  0  0  0
 14 15  1  0  0  0  0
 14 21  1  0  0  0  0
 15 20  1  0  0  0  0
 15 16  1  0  0  0  0
 16 17  1  0  0  0  0
 16 38  1  0  0  0  0
 16 39  1  0  0  0  0
 17 18  1  0  0  0  0
 17 40  1  0  0  0  0
 17 41  1  0  0  0  0
 18 19  1  0  0  0  0
 19 20  1  0  0  0  0
 19 42  1  0  0  0  0
 19 43  1  0  0  0  0
 20 44  1  0  0  0  0
 20 45  1  0  0  0  0
 21 22  2  0  0  0  0
 22 46  1  0  0  0  0
M  END
> <s_m_source_file>
AV-unprocessed.smi

> <i_m_source_file_index>
2170

> <i_lp_mmshare_version>
43012

> <i_f3d_flags>
0

> <s_epik_input>
W0NIM11bQ0hdKFtDSDNdKU4oW0NIM10pUyg9TykoPU8pW05IXVtDSDJdYzFbY0hdW2NIXWMobltjSF0xKU4yW0NIMl1bQ0gyXU9bQ0gyXVtDSDJdMg==

> <s_epik_cmdline>
J2VwaWtfcHl0aG9uJywgJy1waCcsICc3LjAnLCAnLXRuJywgJzgnLCAnLW1hJywgJzIwMCcsICctbWV0YWxfYmluZGluZycsICctaW1hZScsICc8aW5maWxlLm1hZT4nLCAnLW9tYWUnLCAnPG91dGZpbGUubWFlPic=

> <r_lp_tautomer_probability>
1

> <r_epik_Ionization_Penalty>
0.00966832

> <r_epik_Ionization_Penalty_Charging>
0

> <r_epik_Ionization_Penalty_Neutral>
0.00966832

> <r_epik_State_Penalty>
0.00558185

> <r_epik_Charging_Adjusted_Penalty>
0.00558185

> <i_epik_Tot_Q>
0

> <i_epik_Tot_abs_Q>
0

> <r_epik_Metal_State_Penalty>
0.341978

> <b_epik_Metal_Only>
0

> <s_lp_Force_Field>
OPLS_2005

> <r_lp_Energy>
19.49

> <b_lp_Chiralities_Consistent>
1

> <s_lp_Variant>
AV-unprocessed.smi:2170-1

> <Gold.Version>
5.8.1

> <Gold.Id.Protein>
6NUR|6NUR_protein|mol2

> <Gold.PLP.Fitness>
42.4691

> <Gold.PLP.PLP>
-36.6906

> <Gold.PLP.part.hbond>
-2.2922

> <Gold.PLP.part.metal>
0.0000

> <Gold.PLP.part.buried>
-4.4498

> <Gold.PLP.part.nonpolar>
-30.9041

> <Gold.PLP.part.repulsive>
0.3156

> <Gold.PLP.ligand.clash>
0.0000

> <Gold.PLP.ligand.torsion>
0.9085

> <Gold.PLP.Chemscore.Hbond>
2.0000

> <Gold.PLP.Chemscore.CHOScore>
0.0000

> <Gold.PLP.Chemscore.Metal>
0.0000

> <Gold.Chemscore.Hbonds>
donor molecule, donor type, donor heavy atom, donor atom, acceptor molecule, acceptor atom, score
      L1  H     9    33       P1  7948  1.00
      P1  H 10752 10764       L1     8  0.70

> <Gold.PLP.Chemscore.Internal.Correction>
1.5955

> <Gold.Rescore>
     Score         DG    S(hbond)    S(metal)    S(lipo)     H(rot)  DE(clash)    DE(int)     intcor
     15.47     -17.55       1.99        0.00      89.52       1.98       0.04       2.04       ----

> <Gold.Chemscore.Fitness>
15.4676

> <Gold.Chemscore.DG>
-17.5459

> <Gold.Chemscore.ZeroCoef>
-5.4800

> <Gold.Chemscore.Hbond>
1.9945

> <Gold.Chemscore.Metal>
0.0000

> <Gold.Chemscore.Lipo>
89.5221

> <Gold.Chemscore.Internal_Hbond>
0.0000

> <Gold.Chemscore.DEClash>
0.0402

> <Gold.Chemscore.DEInternal>
2.0381

> <Gold.Chemscore.Rot>
1.9803

> <Gold.Chemscore.Internal.Correction>
   9.000000E+99

> <Gold.Chemscore.Hbonds>
donor molecule, donor type, donor heavy atom, donor atom, acceptor molecule, acceptor atom, score
      L1  H     9    33       P1  7948  0.60
      P1  H 10752 10764       L1     8  0.69

> <Gold.Chemscore.Hbond.Weighted>
-6.6615

> <Gold.Chemscore.Metal.Weighted>
-0.0000

> <Gold.Chemscore.Lipo.Weighted>
-10.4741

> <Gold.Chemscore.Internal_Hbond.Weighted>
0.0000

> <Gold.Chemscore.DEClash.Weighted>
0.0402

> <Gold.Chemscore.DEInternal.Weighted>
2.0381

> <Gold.Chemscore.Rot.Weighted>
5.0696

> <Gold.Chemscore.Internal.Correction.Weighted>
   9.000000E+99

> <Gold.Protein.RotatedTorsions>
[ 6907 6896 6895 6894 ] final   10.61 input  -60.11 | X-H torsion
[ 7974 7965 7964 7962 ] final  178.20 input  175.53 | X-H torsion
[ 8008 7997 7996 7995 ] final  -99.46 input   59.86 | X-H torsion
[ 10167 10162 10161 10158 ] final -160.85 input  -65.29 | X-H torsion
[ 10718 10713 10712 10709 ] final   -2.24 input   66.30 | X-H torsion
[ 10763 10752 10751 10750 ] final  -40.84 input  -60.55 | X-H torsion
[ 11005 11000 10999 10996 ] final  103.85 input  -57.11 | X-H torsion

> <Gold.Protein.ActiveResidues>
 VAL166  LYS551  ARG553  GLY616  TRP617  ASP618  TYR619  PRO620  LYS621  CYS622 
 ASP623  PHE694  ASN695  SER759  ASP760  ASP761  ALA762  ILE779  LEU786  VAL792 
 PHE793  MET794  SER795  GLU796  ALA797  LYS798  CYS799  TRP800  GLU811  SER814 

> <Gold.Protein.RotatedAtoms>
  151.7411  135.0854  160.0315 H   0  0  0  0  0  0  0  0  0  0  0  0  # atno 6907 bound_to 6896
  152.3479  133.6140  159.5932 H   0  0  0  0  0  0  0  0  0  0  0  0  # atno 6908 bound_to 6896
  150.7520  133.9537  159.3535 H   0  0  0  0  0  0  0  0  0  0  0  0  # atno 6909 bound_to 6896
  144.7159  140.0361  143.6438 H   0  0  0  0  0  0  0  0  0  0  0  0  # atno 7974 bound_to 7965
  154.8152  140.0447  157.1371 H   0  0  0  0  0  0  0  0  0  0  0  0  # atno 8008 bound_to 7997
  154.9322  140.3041  155.5142 H   0  0  0  0  0  0  0  0  0  0  0  0  # atno 8009 bound_to 7997
  156.2975  140.2321  156.4384 H   0  0  0  0  0  0  0  0  0  0  0  0  # atno 8010 bound_to 7997
  139.6508  144.0087  152.2160 H   0  0  0  0  0  0  0  0  0  0  0  0  # atno 10167 bound_to 10162
  156.7937  130.5370  149.5732 H   0  0  0  0  0  0  0  0  0  0  0  0  # atno 10718 bound_to 10713
  153.9527  135.6749  153.4744 H   0  0  0  0  0  0  0  0  0  0  0  0  # atno 10763 bound_to 10752
  153.0877  135.4891  154.8625 H   0  0  0  0  0  0  0  0  0  0  0  0  # atno 10764 bound_to 10752
  154.7317  135.3139  154.8840 H   0  0  0  0  0  0  0  0  0  0  0  0  # atno 10765 bound_to 10752
  139.8787  134.9279  156.5273 H   0  0  0  0  0  0  0  0  0  0  0  0  # atno 11005 bound_to 11000
  146.0062  139.3132  143.0898 LP  0  0  0  0  0  0  0  0  0  0  0  0  # atno 17320 bound_to 7965
  145.8735  140.9405  143.0638 LP  0  0  0  0  0  0  0  0  0  0  0  0  # atno 17321 bound_to 7965
  139.9800  144.6434  150.7909 LP  0  0  0  0  0  0  0  0  0  0  0  0  # atno 17342 bound_to 10162
  140.7537  143.3013  151.3074 LP  0  0  0  0  0  0  0  0  0  0  0  0  # atno 17343 bound_to 10162
  156.1143  130.6064  151.0097 LP  0  0  0  0  0  0  0  0  0  0  0  0  # atno 17370 bound_to 10713
  157.6588  131.0884  150.7886 LP  0  0  0  0  0  0  0  0  0  0  0  0  # atno 17371 bound_to 10713
  140.8407  133.8207  155.9072 LP  0  0  0  0  0  0  0  0  0  0  0  0  # atno 17394 bound_to 11000
  140.9240  134.2105  157.4908 LP  0  0  0  0  0  0  0  0  0  0  0  0  # atno 17395 bound_to 11000

$$$$
