AV-unprocessed.smi:437|AV-procd|sdf|2561|dock8
  -GOLD-   2262022533D 1   1.00000     0.00000
 Structure written by MMmdl.
 48 49  0  0  0  0  0  0  0  0  1 V2000
  149.1942  140.2231  154.2902 C   0  0  0  0  0  0  0  0  0  0  0  0
  150.0825  139.2085  154.9589 C   0  0  0  0  0  0  0  0  0  0  0  0
  149.9096  137.9727  154.6219 N   0  0  0  0  0  0  0  0  0  0  0  0
  150.6682  136.9618  155.1796 N   0  0  0  0  0  0  0  0  0  0  0  0
  150.3256  135.6175  154.6913 C   0  0  0  0  0  0  0  0  0  0  0  0
  148.9333  135.1468  155.1404 C   0  0  0  0  0  0  0  0  0  0  0  0
  148.7109  134.9161  156.3319 O   0  0  0  0  0  0  0  0  0  0  0  0
  148.0262  135.0292  154.1496 N   0  0  0  0  0  0  0  0  0  0  0  0
  146.7416  134.6381  154.2549 C   0  0  0  0  0  0  0  0  0  0  0  0
  146.0803  134.6102  155.2952 O   0  0  0  0  0  0  0  0  0  0  0  0
  146.2536  134.2722  153.0608 N   0  0  0  0  0  0  0  0  0  0  0  0
  144.9939  133.5619  152.8352 C   0  0  2  0  0  0  0  0  0  0  0  0
  145.2543  132.1714  152.2176 C   0  0  0  0  0  0  0  0  0  0  0  0
  145.7543  132.2651  150.7658 C   0  0  0  0  0  0  0  0  0  0  0  0
  144.7889  133.0850  149.8969 C   0  0  0  0  0  0  0  0  0  0  0  0
  144.5437  134.4795  150.4950 C   0  0  0  0  0  0  0  0  0  0  0  0
  144.0338  134.3934  151.9486 C   0  0  2  0  0  0  0  0  0  0  0  0
  143.7430  135.7882  152.5289 C   0  0  0  0  0  0  0  0  0  0  0  0
  151.6538  137.1499  156.1041 C   0  0  0  0  0  0  0  0  0  0  0  0
  152.3110  136.2179  156.5703 O   0  0  0  0  0  0  0  0  0  0  0  0
  151.8443  138.5522  156.4811 C   0  0  0  0  0  0  0  0  0  0  0  0
  152.8617  138.7930  157.4526 C   0  0  0  0  0  0  0  0  0  0  0  0
  153.6788  138.9740  158.2524 N   0  0  0  0  0  0  0  0  0  0  0  0
  151.1028  139.5532  155.9436 C   0  0  0  0  0  0  0  0  0  0  0  0
  151.2611  141.0249  156.3001 C   0  0  0  0  0  0  0  0  0  0  0  0
  149.7845  140.9239  153.6995 H   0  0  0  0  0  0  0  0  0  0  0  0
  148.6317  140.7932  155.0298 H   0  0  0  0  0  0  0  0  0  0  0  0
  148.4725  139.7535  153.6200 H   0  0  0  0  0  0  0  0  0  0  0  0
  150.3539  135.5957  153.6003 H   0  0  0  0  0  0  0  0  0  0  0  0
  151.0776  134.8960  155.0168 H   0  0  0  0  0  0  0  0  0  0  0  0
  148.3476  135.2629  153.2220 H   0  0  0  0  0  0  0  0  0  0  0  0
  146.7914  134.5017  152.2380 H   0  0  0  0  0  0  0  0  0  0  0  0
  144.5047  133.4158  153.8003 H   0  0  0  0  0  0  0  0  0  0  0  0
  145.9693  131.6130  152.8231 H   0  0  0  0  0  0  0  0  0  0  0  0
  144.3291  131.5940  152.2372 H   0  0  0  0  0  0  0  0  0  0  0  0
  146.7447  132.7213  150.7443 H   0  0  0  0  0  0  0  0  0  0  0  0
  145.8685  131.2642  150.3485 H   0  0  0  0  0  0  0  0  0  0  0  0
  145.1875  133.1796  148.8865 H   0  0  0  0  0  0  0  0  0  0  0  0
  143.8398  132.5549  149.8059 H   0  0  0  0  0  0  0  0  0  0  0  0
  145.4669  135.0591  150.4573 H   0  0  0  0  0  0  0  0  0  0  0  0
  143.8209  135.0156  149.8790 H   0  0  0  0  0  0  0  0  0  0  0  0
  143.0817  133.8610  151.9246 H   0  0  0  0  0  0  0  0  0  0  0  0
  144.6330  136.4178  152.5343 H   0  0  0  0  0  0  0  0  0  0  0  0
  143.3775  135.7180  153.5537 H   0  0  0  0  0  0  0  0  0  0  0  0
  142.9809  136.3028  151.9431 H   0  0  0  0  0  0  0  0  0  0  0  0
  152.0741  141.1940  157.0055 H   0  0  0  0  0  0  0  0  0  0  0  0
  150.3462  141.4076  156.7540 H   0  0  0  0  0  0  0  0  0  0  0  0
  151.4753  141.6148  155.4081 H   0  0  0  0  0  0  0  0  0  0  0  0
  1  2  1  0  0  0  0
  1 26  1  0  0  0  0
  1 27  1  0  0  0  0
  1 28  1  0  0  0  0
  2 24  1  0  0  0  0
  2  3  2  0  0  0  0
  3  4  1  0  0  0  0
  4  5  1  0  0  0  0
  4 19  1  0  0  0  0
  5  6  1  0  0  0  0
  5 29  1  0  0  0  0
  5 30  1  0  0  0  0
  6  7  2  0  0  0  0
  6  8  1  0  0  0  0
  8  9  1  0  0  0  0
  8 31  1  0  0  0  0
  9 10  2  0  0  0  0
  9 11  1  0  0  0  0
 11 12  1  0  0  0  0
 11 32  1  0  0  0  0
 12 17  1  0  0  0  0
 12 13  1  0  0  0  0
 12 33  1  0  0  0  0
 13 14  1  0  0  0  0
 13 34  1  0  0  0  0
 13 35  1  0  0  0  0
 14 15  1  0  0  0  0
 14 36  1  0  0  0  0
 14 37  1  0  0  0  0
 15 16  1  0  0  0  0
 15 38  1  0  0  0  0
 15 39  1  0  0  0  0
 16 17  1  0  0  0  0
 16 40  1  0  0  0  0
 16 41  1  0  0  0  0
 17 18  1  0  0  0  0
 17 42  1  0  0  0  0
 18 43  1  0  0  0  0
 18 44  1  0  0  0  0
 18 45  1  0  0  0  0
 19 20  2  0  0  0  0
 19 21  1  0  0  0  0
 21 22  1  0  0  0  0
 21 24  2  0  0  0  0
 22 23  3  0  0  0  0
 24 25  1  0  0  0  0
 25 46  1  0  0  0  0
 25 47  1  0  0  0  0
 25 48  1  0  0  0  0
M  END
> <s_m_source_file>
AV-unprocessed.smi

> <i_m_source_file_index>
437

> <i_lp_mmshare_version>
43012

> <i_f3d_flags>
0

> <s_epik_input>
TiNDYyhjMVtDSDNdKWMoPU8pbihuYzFbQ0gzXSlbQ0gyXUMoPU8pW05IXUMoPU8pW05IXVtDQEBIXTJbQ0gyXVtDSDJdW0NIMl1bQ0gyXVtDQEhdMltDSDNd

> <s_epik_cmdline>
J2VwaWtfcHl0aG9uJywgJy1waCcsICc3LjAnLCAnLXRuJywgJzgnLCAnLW1hJywgJzIwMCcsICctbWV0YWxfYmluZGluZycsICctaW1hZScsICc8aW5maWxlLm1hZT4nLCAnLW9tYWUnLCAnPG91dGZpbGUubWFlPic=

> <r_lp_tautomer_probability>
1

> <r_epik_Ionization_Penalty>
3.27035e-05

> <r_epik_Ionization_Penalty_Charging>
1.6965e-11

> <r_epik_Ionization_Penalty_Neutral>
3.27035e-05

> <r_epik_State_Penalty>
-0

> <r_epik_Charging_Adjusted_Penalty>
1.6965e-11

> <i_epik_Tot_Q>
0

> <i_epik_Tot_abs_Q>
0

> <r_epik_Metal_State_Penalty>
-0

> <b_epik_Metal_Only>
0

> <s_lp_Force_Field>
OPLS_2005

> <r_lp_Energy>
26.4777

> <b_lp_Chiralities_Consistent>
1

> <s_lp_Variant>
AV-unprocessed.smi:437-3

> <Gold.Version>
5.8.1

> <Gold.Id.Protein>
6NUR|6NUR_protein|mol2

> <Gold.PLP.Fitness>
42.0713

> <Gold.PLP.PLP>
-33.4967

> <Gold.PLP.part.hbond>
-3.0000

> <Gold.PLP.part.metal>
0.0000

> <Gold.PLP.part.buried>
-1.5893

> <Gold.PLP.part.nonpolar>
-28.0332

> <Gold.PLP.part.repulsive>
0.2492

> <Gold.PLP.ligand.clash>
0.0000

> <Gold.PLP.ligand.torsion>
0.2278

> <Gold.PLP.Chemscore.Hbond>
3.0000

> <Gold.PLP.Chemscore.CHOScore>
0.0000

> <Gold.PLP.Chemscore.Metal>
0.0000

> <Gold.Chemscore.Hbonds>
donor molecule, donor type, donor heavy atom, donor atom, acceptor molecule, acceptor atom, score
      L1  H     8    31       P1  7948  1.00
      P1  H  7997  8009       L1    23  0.95
      P1  H 10752 10764       L1    20  1.00

> <Gold.PLP.Chemscore.Internal.Correction>
0.0302

> <Gold.Rescore>
     Score         DG    S(hbond)    S(metal)    S(lipo)     H(rot)  DE(clash)    DE(int)     intcor
     18.17     -20.27       2.72        0.00      83.05       1.57       0.55       1.55       ----

> <Gold.Chemscore.Fitness>
18.1681

> <Gold.Chemscore.DG>
-20.2685

> <Gold.Chemscore.ZeroCoef>
-5.4800

> <Gold.Chemscore.Hbond>
2.7184

> <Gold.Chemscore.Metal>
0.0000

> <Gold.Chemscore.Lipo>
83.0491

> <Gold.Chemscore.Internal_Hbond>
0.0000

> <Gold.Chemscore.DEClash>
0.5540

> <Gold.Chemscore.DEInternal>
1.5463

> <Gold.Chemscore.Rot>
1.5656

> <Gold.Chemscore.Internal.Correction>
   9.000000E+99

> <Gold.Chemscore.Hbonds>
donor molecule, donor type, donor heavy atom, donor atom, acceptor molecule, acceptor atom, score
      L1  H     8    31       P1  7948  0.97
      P1  H  7997  8009       L1    23  0.21
      P1  H 10752 10764       L1    20  0.55

> <Gold.Chemscore.Hbond.Weighted>
-9.0796

> <Gold.Chemscore.Metal.Weighted>
-0.0000

> <Gold.Chemscore.Lipo.Weighted>
-9.7167

> <Gold.Chemscore.Internal_Hbond.Weighted>
0.0000

> <Gold.Chemscore.DEClash.Weighted>
0.5540

> <Gold.Chemscore.DEInternal.Weighted>
1.5463

> <Gold.Chemscore.Rot.Weighted>
4.0079

> <Gold.Chemscore.Internal.Correction.Weighted>
   9.000000E+99

> <Gold.Protein.RotatedTorsions>
[ 6907 6896 6895 6894 ] final  167.04 input  -60.11 | X-H torsion
[ 7974 7965 7964 7962 ] final    0.86 input  175.53 | X-H torsion
[ 8008 7997 7996 7995 ] final  133.87 input   59.86 | X-H torsion
[ 10167 10162 10161 10158 ] final -127.53 input  -65.29 | X-H torsion
[ 10718 10713 10712 10709 ] final  -46.76 input   66.30 | X-H torsion
[ 10763 10752 10751 10750 ] final  -23.86 input  -60.55 | X-H torsion
[ 11005 11000 10999 10996 ] final -168.71 input  -57.11 | X-H torsion

> <Gold.Protein.ActiveResidues>
 VAL166  LYS551  ARG553  GLY616  TRP617  ASP618  TYR619  PRO620  LYS621  CYS622 
 ASP623  PHE694  ASN695  SER759  ASP760  ASP761  ALA762  ILE779  LEU786  VAL792 
 PHE793  MET794  SER795  GLU796  ALA797  LYS798  CYS799  TRP800  GLU811  SER814 

> <Gold.Protein.RotatedAtoms>
  151.8695  133.3473  159.3730 H   0  0  0  0  0  0  0  0  0  0  0  0  # atno 6907 bound_to 6896
  150.7156  134.5126  159.5624 H   0  0  0  0  0  0  0  0  0  0  0  0  # atno 6908 bound_to 6896
  152.2656  134.7988  160.0474 H   0  0  0  0  0  0  0  0  0  0  0  0  # atno 6909 bound_to 6896
  146.2437  140.1073  142.8345 H   0  0  0  0  0  0  0  0  0  0  0  0  # atno 7974 bound_to 7965
  156.2995  140.2510  156.3325 H   0  0  0  0  0  0  0  0  0  0  0  0  # atno 8008 bound_to 7997
  154.9131  140.0403  157.1976 H   0  0  0  0  0  0  0  0  0  0  0  0  # atno 8009 bound_to 7997
  154.8385  140.2887  155.5679 H   0  0  0  0  0  0  0  0  0  0  0  0  # atno 8010 bound_to 7997
  139.9599  143.5961  152.2448 H   0  0  0  0  0  0  0  0  0  0  0  0  # atno 10167 bound_to 10162
  156.2151  130.4163  149.9065 H   0  0  0  0  0  0  0  0  0  0  0  0  # atno 10718 bound_to 10713
  153.6746  135.6970  153.5136 H   0  0  0  0  0  0  0  0  0  0  0  0  # atno 10763 bound_to 10752
  153.2532  135.4268  155.0818 H   0  0  0  0  0  0  0  0  0  0  0  0  # atno 10764 bound_to 10752
  154.8417  135.3536  154.6289 H   0  0  0  0  0  0  0  0  0  0  0  0  # atno 10765 bound_to 10752
  140.5390  134.5541  157.5094 H   0  0  0  0  0  0  0  0  0  0  0  0  # atno 11005 bound_to 11000
  145.0517  140.9022  143.4991 LP  0  0  0  0  0  0  0  0  0  0  0  0  # atno 17320 bound_to 7965
  145.1172  139.2717  143.5607 LP  0  0  0  0  0  0  0  0  0  0  0  0  # atno 17321 bound_to 7965
  139.6562  144.7662  151.2051 LP  0  0  0  0  0  0  0  0  0  0  0  0  # atno 17342 bound_to 10162
  140.7556  143.6082  150.8632 LP  0  0  0  0  0  0  0  0  0  0  0  0  # atno 17343 bound_to 10162
  156.6730  130.8828  151.3565 LP  0  0  0  0  0  0  0  0  0  0  0  0  # atno 17370 bound_to 10713
  157.7059  130.9384  150.0929 LP  0  0  0  0  0  0  0  0  0  0  0  0  # atno 17371 bound_to 10713
  139.9514  134.7610  156.0440 LP  0  0  0  0  0  0  0  0  0  0  0  0  # atno 17394 bound_to 11000
  141.1238  133.6605  156.3284 LP  0  0  0  0  0  0  0  0  0  0  0  0  # atno 17395 bound_to 11000

$$$$
