AV-unprocessed.smi:170|AV-procd|sdf|1412|dock2
  -GOLD-   2262019173D 1   1.00000     0.00000
 Structure written by MMmdl.
 57 61  0  0  0  0  0  0  0  0  1 V2000
  149.8496  143.2519  157.7823 O   0  0  0  0  0  0  0  0  0  0  0  0
  151.1949  142.9164  157.4964 C   0  0  2  0  0  0  0  0  0  0  0  0
  151.3408  141.4049  157.2326 C   0  0  0  0  0  0  0  0  0  0  0  0
  150.0557  140.7477  157.0738 N   0  0  0  0  0  0  0  0  0  0  0  0
  149.2811  140.2029  158.0730 C   0  0  0  0  0  0  0  0  0  0  0  0
  148.1657  139.6531  157.6756 N   0  0  0  0  0  0  0  0  0  0  0  0
  148.1752  139.8335  156.2980 C   0  0  0  0  0  0  0  0  0  0  0  0
  147.2861  139.4750  155.2508 C   0  0  0  0  0  0  0  0  0  0  0  0
  146.1246  138.8224  155.4936 N   0  0  0  0  0  0  0  0  0  0  0  0
  145.3613  139.5316  156.5150 C   0  0  0  0  0  0  0  0  0  0  0  0
  144.1298  138.7165  156.9284 C   0  0  0  0  0  0  0  0  0  0  0  0
  143.3481  138.4504  155.7726 O   0  0  0  0  0  0  0  0  0  0  0  0
  144.0589  137.6631  154.8247 C   0  0  0  0  0  0  0  0  0  0  0  0
  145.3247  138.4057  154.3325 C   0  0  2  0  0  0  0  0  0  0  0  0
  146.1391  137.5268  153.3459 C   0  0  0  0  0  0  0  0  0  0  0  0
  145.3294  136.9950  152.1645 C   0  0  0  0  0  0  0  0  0  0  0  0
  144.2717  135.9055  152.3955 C   0  0  0  0  0  0  0  0  0  0  0  0
  144.6316  135.3307  151.0224 C   0  0  0  0  0  0  0  0  0  0  0  0
  145.9827  136.0388  151.1546 C   0  0  0  0  0  0  0  0  0  0  0  0
  147.6202  139.8367  153.9829 N   0  0  0  0  0  0  0  0  0  0  0  0
  148.7639  140.4894  153.7537 C   0  0  0  0  0  0  0  0  0  0  0  0
  149.6948  140.8765  154.6292 N   0  0  0  0  0  0  0  0  0  0  0  0
  149.3534  140.5255  155.9026 C   0  0  0  0  0  0  0  0  0  0  0  0
  152.1215  143.4250  158.6197 C   0  0  1  0  0  0  0  0  0  0  0  0
  152.0706  144.9389  158.8876 C   0  0  0  0  0  0  0  0  0  0  0  0
  151.5455  145.0309  160.3077 C   0  0  0  0  0  0  0  0  0  0  0  0
  152.0081  143.7113  160.9101 C   0  0  0  0  0  0  0  0  0  0  0  0
  151.8066  142.7851  159.8547 O   0  0  0  0  0  0  0  0  0  0  0  0
  149.5932  143.9628  157.2144 H   0  0  0  0  0  0  0  0  0  0  0  0
  151.4563  143.4500  156.5816 H   0  0  0  0  0  0  0  0  0  0  0  0
  151.9259  141.2351  156.3280 H   0  0  0  0  0  0  0  0  0  0  0  0
  151.8804  140.9210  158.0477 H   0  0  0  0  0  0  0  0  0  0  0  0
  149.5749  140.2215  159.1126 H   0  0  0  0  0  0  0  0  0  0  0  0
  145.9847  139.7202  157.3905 H   0  0  0  0  0  0  0  0  0  0  0  0
  145.0493  140.5027  156.1269 H   0  0  0  0  0  0  0  0  0  0  0  0
  144.4205  137.7840  157.4148 H   0  0  0  0  0  0  0  0  0  0  0  0
  143.5293  139.2785  157.6437 H   0  0  0  0  0  0  0  0  0  0  0  0
  144.3182  136.6986  155.2650 H   0  0  0  0  0  0  0  0  0  0  0  0
  143.3826  137.4609  153.9947 H   0  0  0  0  0  0  0  0  0  0  0  0
  144.9991  139.3073  153.8115 H   0  0  0  0  0  0  0  0  0  0  0  0
  146.9842  138.0912  152.9529 H   0  0  0  0  0  0  0  0  0  0  0  0
  146.5793  136.6907  153.8905 H   0  0  0  0  0  0  0  0  0  0  0  0
  144.8569  137.8121  151.6161 H   0  0  0  0  0  0  0  0  0  0  0  0
  144.5275  135.2294  153.2132 H   0  0  0  0  0  0  0  0  0  0  0  0
  143.2488  136.2730  152.4834 H   0  0  0  0  0  0  0  0  0  0  0  0
  144.6870  134.2425  150.9819 H   0  0  0  0  0  0  0  0  0  0  0  0
  144.0167  135.7375  150.2180 H   0  0  0  0  0  0  0  0  0  0  0  0
  146.3422  136.5157  150.2422 H   0  0  0  0  0  0  0  0  0  0  0  0
  146.7482  135.4050  151.6055 H   0  0  0  0  0  0  0  0  0  0  0  0
  148.9609  140.7378  152.7212 H   0  0  0  0  0  0  0  0  0  0  0  0
  153.1493  143.1556  158.3717 H   0  0  0  0  0  0  0  0  0  0  0  0
  153.0774  145.3559  158.8361 H   0  0  0  0  0  0  0  0  0  0  0  0
  151.4515  145.4908  158.1798 H   0  0  0  0  0  0  0  0  0  0  0  0
  151.9186  145.9017  160.8472 H   0  0  0  0  0  0  0  0  0  0  0  0
  150.4555  145.0731  160.3003 H   0  0  0  0  0  0  0  0  0  0  0  0
  153.0685  143.7499  161.1654 H   0  0  0  0  0  0  0  0  0  0  0  0
  151.4468  143.4331  161.8024 H   0  0  0  0  0  0  0  0  0  0  0  0
  1  2  1  0  0  0  0
  1 29  1  0  0  0  0
  2  3  1  0  0  0  0
  2 24  1  0  0  0  0
  2 30  1  0  0  0  0
  3  4  1  0  0  0  0
  3 31  1  0  0  0  0
  3 32  1  0  0  0  0
  4 23  1  0  0  0  0
  4  5  1  0  0  0  0
  5  6  2  0  0  0  0
  5 33  1  0  0  0  0
  6  7  1  0  0  0  0
  7 23  2  0  0  0  0
  7  8  1  0  0  0  0
  8  9  1  0  0  0  0
  8 20  2  0  0  0  0
  9 14  1  0  0  0  0
  9 10  1  0  0  0  0
 10 11  1  0  0  0  0
 10 34  1  0  0  0  0
 10 35  1  0  0  0  0
 11 12  1  0  0  0  0
 11 36  1  0  0  0  0
 11 37  1  0  0  0  0
 12 13  1  0  0  0  0
 13 14  1  0  0  0  0
 13 38  1  0  0  0  0
 13 39  1  0  0  0  0
 14 15  1  0  0  0  0
 14 40  1  0  0  0  0
 15 16  1  0  0  0  0
 15 41  1  0  0  0  0
 15 42  1  0  0  0  0
 16 19  1  0  0  0  0
 16 17  1  0  0  0  0
 16 43  1  0  0  0  0
 17 18  1  0  0  0  0
 17 44  1  0  0  0  0
 17 45  1  0  0  0  0
 18 19  1  0  0  0  0
 18 46  1  0  0  0  0
 18 47  1  0  0  0  0
 19 48  1  0  0  0  0
 19 49  1  0  0  0  0
 20 21  1  0  0  0  0
 21 22  2  0  0  0  0
 21 50  1  0  0  0  0
 22 23  1  0  0  0  0
 24 28  1  0  0  0  0
 24 25  1  0  0  0  0
 24 51  1  0  0  0  0
 25 26  1  0  0  0  0
 25 52  1  0  0  0  0
 25 53  1  0  0  0  0
 26 27  1  0  0  0  0
 26 54  1  0  0  0  0
 26 55  1  0  0  0  0
 27 28  1  0  0  0  0
 27 56  1  0  0  0  0
 27 57  1  0  0  0  0
M  END
> <s_m_source_file>
AV-unprocessed.smi

> <i_m_source_file_index>
170

> <i_lp_mmshare_version>
43012

> <i_f3d_flags>
0

> <s_epik_input>
TzFbQ0gyXVtDSDJdW0NIMl1bQ0BIXTFbQ0BIXShbT0hdKVtDSDJdbihbY0hdbjIpYyhjMjMpbltjSF1uYzNONFtDSDJdW0NIMl1PW0NIMl1bQ0BIXTRbQ0gyXVtDSF01W0NIMl1bQ0gyXVtDSDJdNQ==

> <s_epik_cmdline>
J2VwaWtfcHl0aG9uJywgJy1waCcsICc3LjAnLCAnLXRuJywgJzgnLCAnLW1hJywgJzIwMCcsICctbWV0YWxfYmluZGluZycsICctaW1hZScsICc8aW5maWxlLm1hZT4nLCAnLW9tYWUnLCAnPG91dGZpbGUubWFlPic=

> <r_lp_tautomer_probability>
1

> <r_epik_Ionization_Penalty>
4.98275e-05

> <r_epik_Ionization_Penalty_Charging>
0

> <r_epik_Ionization_Penalty_Neutral>
4.98275e-05

> <r_epik_State_Penalty>
-0

> <r_epik_Charging_Adjusted_Penalty>
0

> <i_epik_Tot_Q>
0

> <i_epik_Tot_abs_Q>
0

> <r_epik_Metal_State_Penalty>
-0

> <b_epik_Metal_Only>
0

> <s_lp_Force_Field>
OPLS_2005

> <r_lp_Energy>
52.9545

> <b_lp_Chiralities_Consistent>
1

> <s_lp_Variant>
AV-unprocessed.smi:170-7

> <Gold.Version>
5.8.1

> <Gold.Id.Protein>
6NUR|6NUR_protein|mol2

> <Gold.PLP.Fitness>
44.0739

> <Gold.PLP.PLP>
-39.3026

> <Gold.PLP.part.hbond>
-2.0000

> <Gold.PLP.part.metal>
0.0000

> <Gold.PLP.part.buried>
-3.7274

> <Gold.PLP.part.nonpolar>
-33.9343

> <Gold.PLP.part.repulsive>
0.3460

> <Gold.PLP.ligand.clash>
0.0000

> <Gold.PLP.ligand.torsion>
1.1592

> <Gold.PLP.Chemscore.Hbond>
1.2564

> <Gold.PLP.Chemscore.CHOScore>
0.9986

> <Gold.PLP.Chemscore.Metal>
0.0000

> <Gold.Chemscore.Hbonds>
donor molecule, donor type, donor heavy atom, donor atom, acceptor molecule, acceptor atom, score
      L1  H     1    29       P1  8028  1.00
      P1  H  7989  7998       L1    22  0.33
      L1  C    21    50       P1  7957  0.48

> <Gold.PLP.Chemscore.Internal.Correction>
0.3248

> <Gold.Rescore>
     Score         DG    S(hbond)    S(metal)    S(lipo)     H(rot)  DE(clash)    DE(int)     intcor
      9.33     -14.38       1.27        0.00      97.13       2.61       1.96       3.09       ----

> <Gold.Chemscore.Fitness>
9.3315

> <Gold.Chemscore.DG>
-14.3842

> <Gold.Chemscore.ZeroCoef>
-5.4800

> <Gold.Chemscore.Hbond>
1.2673

> <Gold.Chemscore.Metal>
0.0000

> <Gold.Chemscore.Lipo>
97.1315

> <Gold.Chemscore.Internal_Hbond>
0.0000

> <Gold.Chemscore.DEClash>
1.9589

> <Gold.Chemscore.DEInternal>
3.0938

> <Gold.Chemscore.Rot>
2.6144

> <Gold.Chemscore.Internal.Correction>
   9.000000E+99

> <Gold.Chemscore.Hbonds>
donor molecule, donor type, donor heavy atom, donor atom, acceptor molecule, acceptor atom, score
      L1  H     1    29       P1  8028  0.60
      P1  H  7989  7998       L1    22  0.16

> <Gold.Chemscore.Hbond.Weighted>
-4.2328

> <Gold.Chemscore.Metal.Weighted>
-0.0000

> <Gold.Chemscore.Lipo.Weighted>
-11.3644

> <Gold.Chemscore.Internal_Hbond.Weighted>
0.0000

> <Gold.Chemscore.DEClash.Weighted>
1.9589

> <Gold.Chemscore.DEInternal.Weighted>
3.0938

> <Gold.Chemscore.Rot.Weighted>
6.6929

> <Gold.Chemscore.Internal.Correction.Weighted>
   9.000000E+99

> <Gold.Protein.RotatedTorsions>
[ 6907 6896 6895 6894 ] final  124.53 input  -60.11 | X-H torsion
[ 7974 7965 7964 7962 ] final  162.62 input  175.53 | X-H torsion
[ 8008 7997 7996 7995 ] final  162.89 input   59.86 | X-H torsion
[ 10167 10162 10161 10158 ] final  139.11 input  -65.29 | X-H torsion
[ 10718 10713 10712 10709 ] final  132.64 input   66.30 | X-H torsion
[ 10763 10752 10751 10750 ] final   68.38 input  -60.55 | X-H torsion
[ 11005 11000 10999 10996 ] final   76.12 input  -57.11 | X-H torsion

> <Gold.Protein.ActiveResidues>
 VAL166  LYS551  ARG553  GLY616  TRP617  ASP618  TYR619  PRO620  LYS621  CYS622 
 ASP623  PHE694  ASN695  SER759  ASP760  ASP761  ALA762  ILE779  LEU786  VAL792 
 PHE793  MET794  SER795  GLU796  ALA797  LYS798  CYS799  TRP800  GLU811  SER814 

> <Gold.Protein.RotatedAtoms>
  152.4070  133.6905  159.6364 H   0  0  0  0  0  0  0  0  0  0  0  0  # atno 6907 bound_to 6896
  150.7954  133.8691  159.3262 H   0  0  0  0  0  0  0  0  0  0  0  0  # atno 6908 bound_to 6896
  151.6442  135.1011  160.0199 H   0  0  0  0  0  0  0  0  0  0  0  0  # atno 6909 bound_to 6896
  144.7628  139.8066  143.6326 H   0  0  0  0  0  0  0  0  0  0  0  0  # atno 7974 bound_to 7965
  156.1998  140.1738  156.7923 H   0  0  0  0  0  0  0  0  0  0  0  0  # atno 8008 bound_to 7997
  154.5576  140.0705  156.8799 H   0  0  0  0  0  0  0  0  0  0  0  0  # atno 8009 bound_to 7997
  155.2908  140.3355  155.4255 H   0  0  0  0  0  0  0  0  0  0  0  0  # atno 8010 bound_to 7997
  139.5089  144.6314  151.5808 H   0  0  0  0  0  0  0  0  0  0  0  0  # atno 10167 bound_to 10162
  157.4852  131.1088  150.9630 H   0  0  0  0  0  0  0  0  0  0  0  0  # atno 10718 bound_to 10713
  153.0232  135.5249  154.7125 H   0  0  0  0  0  0  0  0  0  0  0  0  # atno 10763 bound_to 10752
  154.6203  135.2888  155.0335 H   0  0  0  0  0  0  0  0  0  0  0  0  # atno 10764 bound_to 10752
  154.1324  135.6591  153.4977 H   0  0  0  0  0  0  0  0  0  0  0  0  # atno 10765 bound_to 10752
  139.9313  134.7574  156.1355 H   0  0  0  0  0  0  0  0  0  0  0  0  # atno 11005 bound_to 11000
  146.1707  139.4857  142.9929 LP  0  0  0  0  0  0  0  0  0  0  0  0  # atno 17320 bound_to 7965
  145.6565  141.0251  143.1732 LP  0  0  0  0  0  0  0  0  0  0  0  0  # atno 17321 bound_to 7965
  140.6048  143.9544  150.6411 LP  0  0  0  0  0  0  0  0  0  0  0  0  # atno 17342 bound_to 10162
  140.2768  143.3417  152.1188 LP  0  0  0  0  0  0  0  0  0  0  0  0  # atno 17343 bound_to 10162
  157.0350  130.5726  149.5348 LP  0  0  0  0  0  0  0  0  0  0  0  0  # atno 17370 bound_to 10713
  156.0143  130.5236  150.8085 LP  0  0  0  0  0  0  0  0  0  0  0  0  # atno 17371 bound_to 10713
  141.0902  133.6717  156.2525 LP  0  0  0  0  0  0  0  0  0  0  0  0  # atno 17394 bound_to 11000
  140.6195  134.5376  157.5545 LP  0  0  0  0  0  0  0  0  0  0  0  0  # atno 17395 bound_to 11000

$$$$
