AV-unprocessed.smi:1491|AV-procd|sdf|6034|dock4
  -GOLD-   22720 6133D 1   1.00000     0.00000
 Structure written by MMmdl.
 38 39  0  0  0  0  0  0  0  0  1 V2000
  147.1002  133.6088  154.7739 O   0  0  0  0  0  0  0  0  0  0  0  0
  147.5120  134.3832  153.9099 C   0  0  0  0  0  0  0  0  0  0  0  0
  148.4584  135.3090  154.1213 N   0  0  0  0  0  0  0  0  0  0  0  0
  149.1640  135.5195  155.3820 C   0  0  0  0  0  0  0  0  0  0  0  0
  150.6754  135.7261  155.1692 C   0  0  0  0  0  0  0  0  0  0  0  0
  151.0397  137.1271  155.0643 N   0  0  0  0  0  0  0  0  0  0  0  0
  152.0077  137.7996  155.7990 C   0  0  0  0  0  0  0  0  0  0  0  0
  151.9947  139.1053  155.3635 C   0  0  0  0  0  0  0  0  0  0  0  0
  151.0380  139.2566  154.3628 N   0  0  0  0  0  0  0  0  0  0  0  0
  150.5150  138.0435  154.2393 C   0  0  0  0  0  0  0  0  0  0  0  0
  147.0817  134.3983  152.6408 N   0  0  0  0  0  0  0  0  0  0  0  0
  146.0780  133.5053  152.0689 C   0  0  2  0  0  0  0  0  0  0  0  0
  146.5116  133.0745  150.6543 C   0  0  0  0  0  0  0  0  0  0  0  0
  145.4394  132.2055  149.9771 C   0  0  0  0  0  0  0  0  0  0  0  0
  144.0813  132.9272  149.9440 C   0  0  1  0  0  0  0  0  0  0  0  0
  143.1078  132.0749  149.3791 O   0  0  0  0  0  0  0  0  0  0  0  0
  143.6412  133.3447  151.3576 C   0  0  0  0  0  0  0  0  0  0  0  0
  144.7111  134.2148  152.0364 C   0  0  0  0  0  0  0  0  0  0  0  0
  148.7255  135.8999  153.3476 H   0  0  0  0  0  0  0  0  0  0  0  0
  148.7431  136.4117  155.8458 H   0  0  0  0  0  0  0  0  0  0  0  0
  148.9794  134.7010  156.0802 H   0  0  0  0  0  0  0  0  0  0  0  0
  151.2423  135.2722  155.9831 H   0  0  0  0  0  0  0  0  0  0  0  0
  150.9904  135.2269  154.2524 H   0  0  0  0  0  0  0  0  0  0  0  0
  152.6039  137.3092  156.5540 H   0  0  0  0  0  0  0  0  0  0  0  0
  152.5957  139.9409  155.6904 H   0  0  0  0  0  0  0  0  0  0  0  0
  149.7264  137.8170  153.5366 H   0  0  0  0  0  0  0  0  0  0  0  0
  147.4917  135.0740  152.0130 H   0  0  0  0  0  0  0  0  0  0  0  0
  145.9767  132.6065  152.6805 H   0  0  0  0  0  0  0  0  0  0  0  0
  146.6998  133.9565  150.0403 H   0  0  0  0  0  0  0  0  0  0  0  0
  147.4527  132.5249  150.7031 H   0  0  0  0  0  0  0  0  0  0  0  0
  145.7554  131.9538  148.9641 H   0  0  0  0  0  0  0  0  0  0  0  0
  145.3459  131.2618  150.5166 H   0  0  0  0  0  0  0  0  0  0  0  0
  144.1581  133.8135  149.3126 H   0  0  0  0  0  0  0  0  0  0  0  0
  142.3493  132.5921  149.1550 H   0  0  0  0  0  0  0  0  0  0  0  0
  142.6978  133.8904  151.3113 H   0  0  0  0  0  0  0  0  0  0  0  0
  143.4570  132.4583  151.9664 H   0  0  0  0  0  0  0  0  0  0  0  0
  144.3943  134.4609  153.0506 H   0  0  0  0  0  0  0  0  0  0  0  0
  144.7975  135.1617  151.5014 H   0  0  0  0  0  0  0  0  0  0  0  0
  1  2  2  0  0  0  0
  2  3  1  0  0  0  0
  2 11  1  0  0  0  0
  3  4  1  0  0  0  0
  3 19  1  0  0  0  0
  4  5  1  0  0  0  0
  4 20  1  0  0  0  0
  4 21  1  0  0  0  0
  5  6  1  0  0  0  0
  5 22  1  0  0  0  0
  5 23  1  0  0  0  0
  6 10  1  0  0  0  0
  6  7  1  0  0  0  0
  7  8  2  0  0  0  0
  7 24  1  0  0  0  0
  8  9  1  0  0  0  0
  8 25  1  0  0  0  0
  9 10  2  0  0  0  0
 10 26  1  0  0  0  0
 11 12  1  0  0  0  0
 11 27  1  0  0  0  0
 12 18  1  0  0  0  0
 12 13  1  0  0  0  0
 12 28  1  0  0  0  0
 13 14  1  0  0  0  0
 13 29  1  0  0  0  0
 13 30  1  0  0  0  0
 14 15  1  0  0  0  0
 14 31  1  0  0  0  0
 14 32  1  0  0  0  0
 15 16  1  0  0  0  0
 15 17  1  0  0  0  0
 15 33  1  0  0  0  0
 16 34  1  0  0  0  0
 17 18  1  0  0  0  0
 17 35  1  0  0  0  0
 17 36  1  0  0  0  0
 18 37  1  0  0  0  0
 18 38  1  0  0  0  0
M  END
> <s_m_source_file>
AV-unprocessed.smi

> <i_m_source_file_index>
1491

> <i_lp_mmshare_version>
43012

> <i_f3d_flags>
0

> <s_epik_input>
W0NIMl0xW0NIMl1bQ0BIXShbT0hdKVtDSDJdW0NIMl1bQ0BIXTFbTkhdQyg9TylbTkhdW0NIMl1bQ0gyXW4yW2NIXVtjSF1uW2NIXTI=

> <s_epik_cmdline>
J2VwaWtfcHl0aG9uJywgJy1waCcsICc3LjAnLCAnLXRuJywgJzgnLCAnLW1hJywgJzIwMCcsICctbWV0YWxfYmluZGluZycsICctaW1hZScsICc8aW5maWxlLm1hZT4nLCAnLW9tYWUnLCAnPG91dGZpbGUubWFlPic=

> <r_lp_tautomer_probability>
1

> <r_epik_Ionization_Penalty>
0.623245

> <r_epik_Ionization_Penalty_Charging>
0.623187

> <r_epik_Ionization_Penalty_Neutral>
5.75214e-05

> <r_epik_State_Penalty>
0.639392

> <r_epik_Charging_Adjusted_Penalty>
1.26258

> <i_epik_Tot_Q>
0

> <i_epik_Tot_abs_Q>
0

> <r_epik_Metal_State_Penalty>
0.307266

> <b_epik_Metal_Only>
0

> <s_lp_Force_Field>
OPLS_2005

> <r_lp_Energy>
7.54437

> <b_lp_Chiralities_Consistent>
1

> <s_lp_Variant>
AV-unprocessed.smi:1491-3

> <Gold.Version>
5.8.1

> <Gold.Id.Protein>
6NUR|6NUR_protein|mol2

> <Gold.PLP.Fitness>
49.0931

> <Gold.PLP.PLP>
-34.7962

> <Gold.PLP.part.hbond>
-5.4784

> <Gold.PLP.part.metal>
0.0000

> <Gold.PLP.part.buried>
-4.4902

> <Gold.PLP.part.nonpolar>
-25.0634

> <Gold.PLP.part.repulsive>
0.1847

> <Gold.PLP.ligand.clash>
0.0000

> <Gold.PLP.ligand.torsion>
0.6643

> <Gold.PLP.Chemscore.Hbond>
4.2045

> <Gold.PLP.Chemscore.CHOScore>
1.0000

> <Gold.PLP.Chemscore.Metal>
0.0000

> <Gold.Chemscore.Hbonds>
donor molecule, donor type, donor heavy atom, donor atom, acceptor molecule, acceptor atom, score
      L1  H     3    19       P1  7948  0.99
      L1  H    11    27       P1  7948  0.85
      L1  H    16    34       P1 10186  0.36
      P1  H  7989  7998       L1     9  1.00
      P1  H 10785 10796       L1    16  0.99
      L1  C    10    26       P1  7948  1.00

> <Gold.PLP.Chemscore.Internal.Correction>
0.0120

> <Gold.Rescore>
     Score         DG    S(hbond)    S(metal)    S(lipo)     H(rot)  DE(clash)    DE(int)     intcor
     19.03     -19.83       4.03        0.00      64.05       2.57       0.18       0.61       ----

> <Gold.Chemscore.Fitness>
19.0340

> <Gold.Chemscore.DG>
-19.8304

> <Gold.Chemscore.ZeroCoef>
-5.4800

> <Gold.Chemscore.Hbond>
4.0255

> <Gold.Chemscore.Metal>
0.0000

> <Gold.Chemscore.Lipo>
64.0517

> <Gold.Chemscore.Internal_Hbond>
0.0000

> <Gold.Chemscore.DEClash>
0.1831

> <Gold.Chemscore.DEInternal>
0.6133

> <Gold.Chemscore.Rot>
2.5738

> <Gold.Chemscore.Internal.Correction>
   9.000000E+99

> <Gold.Chemscore.Hbonds>
donor molecule, donor type, donor heavy atom, donor atom, acceptor molecule, acceptor atom, score
      L1  H     3    19       P1  7948  0.90
      L1  H    11    27       P1  7948  0.78
      L1  H    16    34       P1 10186  0.33
      P1  H  7989  7998       L1     9  0.35
      P1  H 10785 10796       L1    16  0.89

> <Gold.Chemscore.Hbond.Weighted>
-13.4453

> <Gold.Chemscore.Metal.Weighted>
-0.0000

> <Gold.Chemscore.Lipo.Weighted>
-7.4941

> <Gold.Chemscore.Internal_Hbond.Weighted>
0.0000

> <Gold.Chemscore.DEClash.Weighted>
0.1831

> <Gold.Chemscore.DEInternal.Weighted>
0.6133

> <Gold.Chemscore.Rot.Weighted>
6.5890

> <Gold.Chemscore.Internal.Correction.Weighted>
   9.000000E+99

> <Gold.Protein.RotatedTorsions>
[ 6907 6896 6895 6894 ] final -111.24 input  -60.11 | X-H torsion
[ 7974 7965 7964 7962 ] final   94.19 input  175.53 | X-H torsion
[ 8008 7997 7996 7995 ] final  -20.87 input   59.86 | X-H torsion
[ 10167 10162 10161 10158 ] final   79.99 input  -65.29 | X-H torsion
[ 10718 10713 10712 10709 ] final    7.98 input   66.30 | X-H torsion
[ 10763 10752 10751 10750 ] final -157.13 input  -60.55 | X-H torsion
[ 11005 11000 10999 10996 ] final -125.69 input  -57.11 | X-H torsion

> <Gold.Protein.ActiveResidues>
 VAL166  LYS551  ARG553  GLY616  TRP617  ASP618  TYR619  PRO620  LYS621  CYS622 
 ASP623  PHE694  ASN695  SER759  ASP760  ASP761  ALA762  ILE779  LEU786  VAL792 
 PHE793  MET794  SER795  GLU796  ALA797  LYS798  CYS799  TRP800  GLU811  SER814 

> <Gold.Protein.RotatedAtoms>
  150.7677  133.9265  159.3413 H   0  0  0  0  0  0  0  0  0  0  0  0  # atno 6907 bound_to 6896
  151.7158  135.0902  160.0285 H   0  0  0  0  0  0  0  0  0  0  0  0  # atno 6908 bound_to 6896
  152.3680  133.6344  159.6101 H   0  0  0  0  0  0  0  0  0  0  0  0  # atno 6909 bound_to 6896
  145.4689  139.2283  143.2946 H   0  0  0  0  0  0  0  0  0  0  0  0  # atno 7974 bound_to 7965
  154.4742  140.2050  155.9920 H   0  0  0  0  0  0  0  0  0  0  0  0  # atno 8008 bound_to 7997
  156.1061  140.3236  155.7978 H   0  0  0  0  0  0  0  0  0  0  0  0  # atno 8009 bound_to 7997
  155.4715  140.0531  157.2969 H   0  0  0  0  0  0  0  0  0  0  0  0  # atno 8010 bound_to 7997
  139.9545  144.6004  150.8130 H   0  0  0  0  0  0  0  0  0  0  0  0  # atno 10167 bound_to 10162
  156.9448  130.5875  149.5654 H   0  0  0  0  0  0  0  0  0  0  0  0  # atno 10718 bound_to 10713
  154.7659  135.3131  154.8286 H   0  0  0  0  0  0  0  0  0  0  0  0  # atno 10763 bound_to 10752
  153.9034  135.6813  153.4758 H   0  0  0  0  0  0  0  0  0  0  0  0  # atno 10764 bound_to 10752
  153.1266  135.4799  154.9214 H   0  0  0  0  0  0  0  0  0  0  0  0  # atno 10765 bound_to 10752
  140.9741  134.0764  157.3837 H   0  0  0  0  0  0  0  0  0  0  0  0  # atno 11005 bound_to 11000
  146.2408  140.5465  142.8935 LP  0  0  0  0  0  0  0  0  0  0  0  0  # atno 17320 bound_to 7965
  144.7957  140.6118  143.6512 LP  0  0  0  0  0  0  0  0  0  0  0  0  # atno 17321 bound_to 7965
  140.7573  143.3083  151.2908 LP  0  0  0  0  0  0  0  0  0  0  0  0  # atno 17342 bound_to 10162
  139.6602  144.0202  152.2687 LP  0  0  0  0  0  0  0  0  0  0  0  0  # atno 17343 bound_to 10162
  156.0388  130.5473  150.8720 LP  0  0  0  0  0  0  0  0  0  0  0  0  # atno 17370 bound_to 10713
  157.5761  131.0946  150.9344 LP  0  0  0  0  0  0  0  0  0  0  0  0  # atno 17371 bound_to 10713
  139.8924  135.0124  156.6842 LP  0  0  0  0  0  0  0  0  0  0  0  0  # atno 17394 bound_to 11000
  140.7284  133.9080  155.8194 LP  0  0  0  0  0  0  0  0  0  0  0  0  # atno 17395 bound_to 11000

$$$$
