AV-unprocessed.smi:2540|AV-procd|sdf|9988|dock1
  -GOLD-   2272014 33D 1   1.00000     0.00000
 Structure written by MMmdl.
 27 28  0  0  0  0  0  0  0  0  1 V2000
  152.9610  138.1026  155.8843 C   0  0  0  0  0  0  0  0  0  0  0  0
  153.0792  139.5102  155.7809 O   0  0  0  0  0  0  0  0  0  0  0  0
  151.8298  140.1728  155.8928 C   0  0  0  0  0  0  0  0  0  0  0  0
  151.3454  140.1194  157.3484 C   0  0  0  0  0  0  0  0  0  0  0  0
  151.3634  141.4315  157.9800 N   0  0  0  0  0  0  0  0  0  0  0  0
  150.7574  142.5702  157.5684 C   0  0  0  0  0  0  0  0  0  0  0  0
  150.0049  142.5720  156.4031 N   0  0  0  0  0  0  0  0  0  0  0  0
  150.9299  143.6471  158.3306 N   0  0  0  0  0  0  0  0  0  0  0  0
  151.7389  143.1621  159.3416 C   0  0  0  0  0  0  0  0  0  0  0  0
  152.2855  143.8134  160.4708 C   0  0  0  0  0  0  0  0  0  0  0  0
  153.1005  143.1053  161.3784 C   0  0  0  0  0  0  0  0  0  0  0  0
  153.3795  141.7386  161.1718 C   0  0  0  0  0  0  0  0  0  0  0  0
  152.8434  141.0692  160.0549 C   0  0  0  0  0  0  0  0  0  0  0  0
  152.0302  141.7796  159.1514 C   0  0  0  0  0  0  0  0  0  0  0  0
  153.9457  137.6455  155.7887 H   0  0  0  0  0  0  0  0  0  0  0  0
  152.3242  137.7002  155.0954 H   0  0  0  0  0  0  0  0  0  0  0  0
  152.5479  137.8123  156.8512 H   0  0  0  0  0  0  0  0  0  0  0  0
  151.9264  141.2102  155.5683 H   0  0  0  0  0  0  0  0  0  0  0  0
  151.0951  139.6950  155.2432 H   0  0  0  0  0  0  0  0  0  0  0  0
  150.3366  139.7087  157.3996 H   0  0  0  0  0  0  0  0  0  0  0  0
  151.9782  139.4458  157.9272 H   0  0  0  0  0  0  0  0  0  0  0  0
  149.8963  141.7356  155.8475 H   0  0  0  0  0  0  0  0  0  0  0  0
  149.5437  143.4069  156.0720 H   0  0  0  0  0  0  0  0  0  0  0  0
  152.0790  144.8601  160.6372 H   0  0  0  0  0  0  0  0  0  0  0  0
  153.5149  143.6139  162.2364 H   0  0  0  0  0  0  0  0  0  0  0  0
  154.0062  141.2044  161.8707 H   0  0  0  0  0  0  0  0  0  0  0  0
  153.0579  140.0236  159.8919 H   0  0  0  0  0  0  0  0  0  0  0  0
  1  2  1  0  0  0  0
  1 15  1  0  0  0  0
  1 16  1  0  0  0  0
  1 17  1  0  0  0  0
  2  3  1  0  0  0  0
  3  4  1  0  0  0  0
  3 18  1  0  0  0  0
  3 19  1  0  0  0  0
  4  5  1  0  0  0  0
  4 20  1  0  0  0  0
  4 21  1  0  0  0  0
  5 14  1  0  0  0  0
  5  6  1  0  0  0  0
  6  7  1  0  0  0  0
  6  8  2  0  0  0  0
  7 22  1  0  0  0  0
  7 23  1  0  0  0  0
  8  9  1  0  0  0  0
  9 14  2  0  0  0  0
  9 10  1  0  0  0  0
 10 11  2  0  0  0  0
 10 24  1  0  0  0  0
 11 12  1  0  0  0  0
 11 25  1  0  0  0  0
 12 13  2  0  0  0  0
 12 26  1  0  0  0  0
 13 14  1  0  0  0  0
 13 27  1  0  0  0  0
M  END
> <s_m_source_file>
AV-unprocessed.smi

> <i_m_source_file_index>
2540

> <i_lp_mmshare_version>
43012

> <i_f3d_flags>
0

> <s_epik_input>
W0NIM11PW0NIMl1bQ0gyXW4oYyhuMSlbTkgyXSljKGMxMilbY0hdW2NIXVtjSF1bY0hdMg==

> <s_epik_cmdline>
J2VwaWtfcHl0aG9uJywgJy1waCcsICc3LjAnLCAnLXRuJywgJzgnLCAnLW1hJywgJzIwMCcsICctbWV0YWxfYmluZGluZycsICctaW1hZScsICc8aW5maWxlLm1hZT4nLCAnLW9tYWUnLCAnPG91dGZpbGUubWFlPic=

> <r_epik_Ionization_Penalty>
0.602407

> <r_epik_Ionization_Penalty_Charging>
0

> <r_epik_Ionization_Penalty_Neutral>
0.602407

> <r_epik_State_Penalty>
0.616889

> <r_epik_Charging_Adjusted_Penalty>
0.616889

> <i_epik_Tot_Q>
0

> <i_epik_Tot_abs_Q>
0

> <r_epik_Metal_State_Penalty>
0.00108478

> <b_epik_Metal_Only>
0

> <s_lp_Force_Field>
OPLS_2005

> <r_lp_Energy>
6.7443

> <b_lp_Chiralities_Consistent>
1

> <s_lp_Variant>
AV-unprocessed.smi:2540-2

> <Gold.Version>
5.8.1

> <Gold.Id.Protein>
6NUR|6NUR_protein|mol2

> <Gold.PLP.Fitness>
36.3126

> <Gold.PLP.PLP>
-31.1560

> <Gold.PLP.part.hbond>
-1.8385

> <Gold.PLP.part.metal>
0.0000

> <Gold.PLP.part.buried>
-4.4903

> <Gold.PLP.part.nonpolar>
-24.8413

> <Gold.PLP.part.repulsive>
0.2149

> <Gold.PLP.ligand.clash>
0.0000

> <Gold.PLP.ligand.torsion>
0.4125

> <Gold.PLP.Chemscore.Hbond>
1.9913

> <Gold.PLP.Chemscore.CHOScore>
0.0000

> <Gold.PLP.Chemscore.Metal>
0.0000

> <Gold.Chemscore.Hbonds>
donor molecule, donor type, donor heavy atom, donor atom, acceptor molecule, acceptor atom, score
      L1  H     7    23       P1  8028  0.99
      P1  H  7997  8009       L1     2  1.00

> <Gold.PLP.Chemscore.Internal.Correction>
0.0078

> <Gold.Rescore>
     Score         DG    S(hbond)    S(metal)    S(lipo)     H(rot)  DE(clash)    DE(int)     intcor
     16.99     -17.40       1.92        0.00      78.93       1.46       0.01       0.40       ----

> <Gold.Chemscore.Fitness>
16.9932

> <Gold.Chemscore.DG>
-17.3980

> <Gold.Chemscore.ZeroCoef>
-5.4800

> <Gold.Chemscore.Hbond>
1.9221

> <Gold.Chemscore.Metal>
0.0000

> <Gold.Chemscore.Lipo>
78.9341

> <Gold.Chemscore.Internal_Hbond>
0.0000

> <Gold.Chemscore.DEClash>
0.0060

> <Gold.Chemscore.DEInternal>
0.3989

> <Gold.Chemscore.Rot>
1.4598

> <Gold.Chemscore.Internal.Correction>
   9.000000E+99

> <Gold.Chemscore.Hbonds>
donor molecule, donor type, donor heavy atom, donor atom, acceptor molecule, acceptor atom, score
      L1  H     7    23       P1  8028  0.92
      P1  H  7997  8009       L1     2  0.78

> <Gold.Chemscore.Hbond.Weighted>
-6.4199

> <Gold.Chemscore.Metal.Weighted>
-0.0000

> <Gold.Chemscore.Lipo.Weighted>
-9.2353

> <Gold.Chemscore.Internal_Hbond.Weighted>
0.0000

> <Gold.Chemscore.DEClash.Weighted>
0.0060

> <Gold.Chemscore.DEInternal.Weighted>
0.3989

> <Gold.Chemscore.Rot.Weighted>
3.7371

> <Gold.Chemscore.Internal.Correction.Weighted>
   9.000000E+99

> <Gold.Protein.RotatedTorsions>
[ 6907 6896 6895 6894 ] final -162.55 input  -60.11 | X-H torsion
[ 7974 7965 7964 7962 ] final -127.92 input  175.53 | X-H torsion
[ 8008 7997 7996 7995 ] final -171.31 input   59.86 | X-H torsion
[ 10167 10162 10161 10158 ] final  -43.56 input  -65.29 | X-H torsion
[ 10718 10713 10712 10709 ] final   73.48 input   66.30 | X-H torsion
[ 10763 10752 10751 10750 ] final   56.42 input  -60.55 | X-H torsion
[ 11005 11000 10999 10996 ] final  -51.13 input  -57.11 | X-H torsion

> <Gold.Protein.ActiveResidues>
 VAL166  LYS551  ARG553  GLY616  TRP617  ASP618  TYR619  PRO620  LYS621  CYS622 
 ASP623  PHE694  ASN695  SER759  ASP760  ASP761  ALA762  ILE779  LEU786  VAL792 
 PHE793  MET794  SER795  GLU796  ALA797  LYS798  CYS799  TRP800  GLU811  SER814 

> <Gold.Protein.RotatedAtoms>
  151.3821  133.3818  159.2710 H   0  0  0  0  0  0  0  0  0  0  0  0  # atno 6907 bound_to 6896
  150.9570  134.8964  159.7717 H   0  0  0  0  0  0  0  0  0  0  0  0  # atno 6908 bound_to 6896
  152.5134  134.3778  159.9393 H   0  0  0  0  0  0  0  0  0  0  0  0  # atno 6909 bound_to 6896
  144.9723  140.7557  143.4663 H   0  0  0  0  0  0  0  0  0  0  0  0  # atno 7974 bound_to 7965
  155.9298  140.1089  157.1141 H   0  0  0  0  0  0  0  0  0  0  0  0  # atno 8008 bound_to 7997
  154.4069  140.1239  156.4854 H   0  0  0  0  0  0  0  0  0  0  0  0  # atno 8009 bound_to 7997
  155.7093  140.3471  155.4969 H   0  0  0  0  0  0  0  0  0  0  0  0  # atno 8010 bound_to 7997
  140.6929  143.2976  151.3370 H   0  0  0  0  0  0  0  0  0  0  0  0  # atno 10167 bound_to 10162
  157.6550  130.9631  150.1076 H   0  0  0  0  0  0  0  0  0  0  0  0  # atno 10718 bound_to 10713
  152.9832  135.5677  154.5226 H   0  0  0  0  0  0  0  0  0  0  0  0  # atno 10763 bound_to 10752
  154.4712  135.2785  155.1643 H   0  0  0  0  0  0  0  0  0  0  0  0  # atno 10764 bound_to 10752
  154.3191  135.6272  153.5553 H   0  0  0  0  0  0  0  0  0  0  0  0  # atno 10765 bound_to 10752
  141.0854  133.6643  156.3832 H   0  0  0  0  0  0  0  0  0  0  0  0  # atno 11005 bound_to 11000
  145.2541  139.2019  143.4926 LP  0  0  0  0  0  0  0  0  0  0  0  0  # atno 17320 bound_to 7965
  146.3385  140.2460  142.8597 LP  0  0  0  0  0  0  0  0  0  0  0  0  # atno 17321 bound_to 7965
  139.6351  144.0645  152.2509 LP  0  0  0  0  0  0  0  0  0  0  0  0  # atno 17342 bound_to 10162
  140.0133  144.6208  150.7629 LP  0  0  0  0  0  0  0  0  0  0  0  0  # atno 17343 bound_to 10162
  156.1981  130.3658  149.8823 LP  0  0  0  0  0  0  0  0  0  0  0  0  # atno 17370 bound_to 10713
  156.6734  130.8829  151.3565 LP  0  0  0  0  0  0  0  0  0  0  0  0  # atno 17371 bound_to 10713
  140.5374  134.6153  157.5369 LP  0  0  0  0  0  0  0  0  0  0  0  0  # atno 17394 bound_to 11000
  139.9672  134.7353  156.0115 LP  0  0  0  0  0  0  0  0  0  0  0  0  # atno 17395 bound_to 11000

$$$$
