AV-unprocessed.smi:3260|AV-procd|sdf|12476|dock2
  -GOLD-   2272018373D 1   1.00000     0.00000
 Structure written by MMmdl.
 38 39  0  0  0  0  0  0  0  0  1 V2000
  153.2915  142.9159  163.1654 C   0  0  0  0  0  0  0  0  0  0  0  0
  153.0057  142.7330  161.7586 N   0  0  0  0  0  0  0  0  0  0  0  0
  152.4053  143.6106  160.8826 C   0  0  0  0  0  0  0  0  0  0  0  0
  152.3377  142.9938  159.6648 C   0  0  0  0  0  0  0  0  0  0  0  0
  151.7493  143.5197  158.3807 C   0  0  0  0  0  0  0  0  0  0  0  0
  151.6469  142.4466  157.2748 C   0  0  0  0  0  0  0  0  0  0  0  0
  150.3917  142.4976  156.5291 N   0  0  0  0  0  0  0  0  0  0  0  0
  150.0163  141.6267  155.5828 C   0  0  0  0  0  0  0  0  0  0  0  0
  150.6613  140.6268  155.2673 O   0  0  0  0  0  0  0  0  0  0  0  0
  148.8772  142.0053  154.9882 N   0  0  0  0  0  0  0  0  0  0  0  0
  148.2998  141.3633  153.8131 C   0  0  0  0  0  0  0  0  0  0  0  0
  147.7342  139.9722  154.1507 C   0  0  2  0  0  0  0  0  0  0  0  0
  147.0858  139.2445  152.9742 C   0  0  0  0  0  0  0  0  0  0  0  0
  146.2074  138.2455  153.6911 C   0  0  0  0  0  0  0  0  0  0  0  0
  145.7238  139.0490  154.8979 C   0  0  0  0  0  0  0  0  0  0  0  0
  146.6937  140.0724  155.1164 O   0  0  0  0  0  0  0  0  0  0  0  0
  152.9416  141.7265  159.9026 C   0  0  0  0  0  0  0  0  0  0  0  0
  153.3370  141.5724  161.1562 N   0  0  0  0  0  0  0  0  0  0  0  0
  153.1123  143.9527  163.4509 H   0  0  0  0  0  0  0  0  0  0  0  0
  154.3337  142.6678  163.3687 H   0  0  0  0  0  0  0  0  0  0  0  0
  152.6454  142.2679  163.7585 H   0  0  0  0  0  0  0  0  0  0  0  0
  152.0670  144.5874  161.1961 H   0  0  0  0  0  0  0  0  0  0  0  0
  150.7556  143.9289  158.5662 H   0  0  0  0  0  0  0  0  0  0  0  0
  152.3358  144.3584  158.0046 H   0  0  0  0  0  0  0  0  0  0  0  0
  152.4949  142.5168  156.5922 H   0  0  0  0  0  0  0  0  0  0  0  0
  151.6998  141.4582  157.7321 H   0  0  0  0  0  0  0  0  0  0  0  0
  149.7912  143.2888  156.7087 H   0  0  0  0  0  0  0  0  0  0  0  0
  148.4187  142.8400  155.3227 H   0  0  0  0  0  0  0  0  0  0  0  0
  147.5218  141.9954  153.3821 H   0  0  0  0  0  0  0  0  0  0  0  0
  149.0804  141.2740  153.0573 H   0  0  0  0  0  0  0  0  0  0  0  0
  148.5167  139.3403  154.5747 H   0  0  0  0  0  0  0  0  0  0  0  0
  146.4727  139.9301  152.3876 H   0  0  0  0  0  0  0  0  0  0  0  0
  147.8112  138.7775  152.3086 H   0  0  0  0  0  0  0  0  0  0  0  0
  145.3921  137.8688  153.0730 H   0  0  0  0  0  0  0  0  0  0  0  0
  146.8065  137.3957  154.0215 H   0  0  0  0  0  0  0  0  0  0  0  0
  144.7640  139.5217  154.6867 H   0  0  0  0  0  0  0  0  0  0  0  0
  145.6048  138.4234  155.7828 H   0  0  0  0  0  0  0  0  0  0  0  0
  153.0955  140.9156  159.2061 H   0  0  0  0  0  0  0  0  0  0  0  0
  1  2  1  0  0  0  0
  1 19  1  0  0  0  0
  1 20  1  0  0  0  0
  1 21  1  0  0  0  0
  2 18  1  0  0  0  0
  2  3  1  0  0  0  0
  3  4  2  0  0  0  0
  3 22  1  0  0  0  0
  4  5  1  0  0  0  0
  4 17  1  0  0  0  0
  5  6  1  0  0  0  0
  5 23  1  0  0  0  0
  5 24  1  0  0  0  0
  6  7  1  0  0  0  0
  6 25  1  0  0  0  0
  6 26  1  0  0  0  0
  7  8  1  0  0  0  0
  7 27  1  0  0  0  0
  8  9  2  0  0  0  0
  8 10  1  0  0  0  0
 10 11  1  0  0  0  0
 10 28  1  0  0  0  0
 11 12  1  0  0  0  0
 11 29  1  0  0  0  0
 11 30  1  0  0  0  0
 12 16  1  0  0  0  0
 12 13  1  0  0  0  0
 12 31  1  0  0  0  0
 13 14  1  0  0  0  0
 13 32  1  0  0  0  0
 13 33  1  0  0  0  0
 14 15  1  0  0  0  0
 14 34  1  0  0  0  0
 14 35  1  0  0  0  0
 15 16  1  0  0  0  0
 15 36  1  0  0  0  0
 15 37  1  0  0  0  0
 17 18  2  0  0  0  0
 17 38  1  0  0  0  0
M  END
> <s_m_source_file>
AV-unprocessed.smi

> <i_m_source_file_index>
3260

> <i_lp_mmshare_version>
43012

> <i_f3d_flags>
0

> <s_epik_input>
W0NIM11uMVtjSF1jKFtjSF1uMSlbQ0gyXVtDSDJdW05IXUMoPU8pW05IXVtDSDJdW0NAQEhdMltDSDJdW0NIMl1bQ0gyXU8y

> <s_epik_cmdline>
J2VwaWtfcHl0aG9uJywgJy1waCcsICc3LjAnLCAnLXRuJywgJzgnLCAnLW1hJywgJzIwMCcsICctbWV0YWxfYmluZGluZycsICctaW1hZScsICc8aW5maWxlLm1hZT4nLCAnLW9tYWUnLCAnPG91dGZpbGUubWFlPic=

> <r_lp_tautomer_probability>
1

> <r_epik_Ionization_Penalty>
0.000550106

> <r_epik_Ionization_Penalty_Charging>
0

> <r_epik_Ionization_Penalty_Neutral>
0.000550106

> <r_epik_State_Penalty>
-0

> <r_epik_Charging_Adjusted_Penalty>
0

> <i_epik_Tot_Q>
0

> <i_epik_Tot_abs_Q>
0

> <r_epik_Metal_State_Penalty>
-0

> <b_epik_Metal_Only>
0

> <s_lp_Force_Field>
OPLS_2005

> <r_lp_Energy>
10.4749

> <b_lp_Chiralities_Consistent>
1

> <s_lp_Variant>
AV-unprocessed.smi:3260-1

> <Gold.Version>
5.8.1

> <Gold.Id.Protein>
6NUR|6NUR_protein|mol2

> <Gold.PLP.Fitness>
45.8086

> <Gold.PLP.PLP>
-39.3190

> <Gold.PLP.part.hbond>
-3.0000

> <Gold.PLP.part.metal>
0.0000

> <Gold.PLP.part.buried>
-5.1718

> <Gold.PLP.part.nonpolar>
-29.2698

> <Gold.PLP.part.repulsive>
0.3719

> <Gold.PLP.ligand.clash>
0.0000

> <Gold.PLP.ligand.torsion>
0.4465

> <Gold.PLP.Chemscore.Hbond>
2.4480

> <Gold.PLP.Chemscore.CHOScore>
0.0000

> <Gold.PLP.Chemscore.Metal>
0.0000

> <Gold.Chemscore.Hbonds>
donor molecule, donor type, donor heavy atom, donor atom, acceptor molecule, acceptor atom, score
      L1  H     7    27       P1  8028  0.77
      L1  H    10    28       P1  8028  0.77
      P1  H  7989  7998       L1     9  0.93

> <Gold.PLP.Chemscore.Internal.Correction>
0.0386

> <Gold.Rescore>
     Score         DG    S(hbond)    S(metal)    S(lipo)     H(rot)  DE(clash)    DE(int)     intcor
     17.91     -19.54       2.32        0.00      94.40       1.85       1.17       0.46       ----

> <Gold.Chemscore.Fitness>
17.9127

> <Gold.Chemscore.DG>
-19.5439

> <Gold.Chemscore.ZeroCoef>
-5.4800

> <Gold.Chemscore.Hbond>
2.3241

> <Gold.Chemscore.Metal>
0.0000

> <Gold.Chemscore.Lipo>
94.3985

> <Gold.Chemscore.Internal_Hbond>
0.0000

> <Gold.Chemscore.DEClash>
1.1722

> <Gold.Chemscore.DEInternal>
0.4590

> <Gold.Chemscore.Rot>
1.8528

> <Gold.Chemscore.Internal.Correction>
   9.000000E+99

> <Gold.Chemscore.Hbonds>
donor molecule, donor type, donor heavy atom, donor atom, acceptor molecule, acceptor atom, score
      L1  H     7    27       P1  8028  0.74
      L1  H    10    28       P1  8028  0.75
      P1  H  7989  7998       L1     9  0.66

> <Gold.Chemscore.Hbond.Weighted>
-7.7625

> <Gold.Chemscore.Metal.Weighted>
-0.0000

> <Gold.Chemscore.Lipo.Weighted>
-11.0446

> <Gold.Chemscore.Internal_Hbond.Weighted>
0.0000

> <Gold.Chemscore.DEClash.Weighted>
1.1722

> <Gold.Chemscore.DEInternal.Weighted>
0.4590

> <Gold.Chemscore.Rot.Weighted>
4.7433

> <Gold.Chemscore.Internal.Correction.Weighted>
   9.000000E+99

> <Gold.Protein.RotatedTorsions>
[ 6907 6896 6895 6894 ] final   82.93 input  -60.11 | X-H torsion
[ 7974 7965 7964 7962 ] final   -0.18 input  175.53 | X-H torsion
[ 8008 7997 7996 7995 ] final  166.81 input   59.86 | X-H torsion
[ 10167 10162 10161 10158 ] final  115.08 input  -65.29 | X-H torsion
[ 10718 10713 10712 10709 ] final   10.40 input   66.30 | X-H torsion
[ 10763 10752 10751 10750 ] final  -37.95 input  -60.55 | X-H torsion
[ 11005 11000 10999 10996 ] final -171.25 input  -57.11 | X-H torsion

> <Gold.Protein.ActiveResidues>
 VAL166  LYS551  ARG553  GLY616  TRP617  ASP618  TYR619  PRO620  LYS621  CYS622 
 ASP623  PHE694  ASN695  SER759  ASP760  ASP761  ALA762  ILE779  LEU786  VAL792 
 PHE793  MET794  SER795  GLU796  ALA797  LYS798  CYS799  TRP800  GLU811  SER814 

> <Gold.Protein.RotatedAtoms>
  152.5313  134.2974  159.9065 H   0  0  0  0  0  0  0  0  0  0  0  0  # atno 6907 bound_to 6896
  151.2925  133.4152  159.2641 H   0  0  0  0  0  0  0  0  0  0  0  0  # atno 6908 bound_to 6896
  151.0189  134.9469  159.8105 H   0  0  0  0  0  0  0  0  0  0  0  0  # atno 6909 bound_to 6896
  146.2429  140.1230  142.8340 H   0  0  0  0  0  0  0  0  0  0  0  0  # atno 7974 bound_to 7965
  156.1687  140.1633  156.8486 H   0  0  0  0  0  0  0  0  0  0  0  0  # atno 8008 bound_to 7997
  154.5234  140.0773  156.8249 H   0  0  0  0  0  0  0  0  0  0  0  0  # atno 8009 bound_to 7997
  155.3558  140.3392  155.4242 H   0  0  0  0  0  0  0  0  0  0  0  0  # atno 8010 bound_to 7997
  139.6342  144.7118  151.2368 H   0  0  0  0  0  0  0  0  0  0  0  0  # atno 10167 bound_to 10162
  156.9804  130.6003  149.5676 H   0  0  0  0  0  0  0  0  0  0  0  0  # atno 10718 bound_to 10713
  153.9047  135.6798  153.4753 H   0  0  0  0  0  0  0  0  0  0  0  0  # atno 10763 bound_to 10752
  153.1110  135.4783  154.9032 H   0  0  0  0  0  0  0  0  0  0  0  0  # atno 10764 bound_to 10752
  154.7557  135.3197  154.8429 H   0  0  0  0  0  0  0  0  0  0  0  0  # atno 10765 bound_to 10752
  140.5103  134.5808  157.5017 H   0  0  0  0  0  0  0  0  0  0  0  0  # atno 11005 bound_to 11000
  145.0390  140.8931  143.5064 LP  0  0  0  0  0  0  0  0  0  0  0  0  # atno 17320 bound_to 7965
  145.1307  139.2633  143.5540 LP  0  0  0  0  0  0  0  0  0  0  0  0  # atno 17321 bound_to 7965
  140.7456  143.6425  150.8322 LP  0  0  0  0  0  0  0  0  0  0  0  0  # atno 17342 bound_to 10162
  140.0054  143.5699  152.2859 LP  0  0  0  0  0  0  0  0  0  0  0  0  # atno 17343 bound_to 10162
  156.0247  130.5341  150.8373 LP  0  0  0  0  0  0  0  0  0  0  0  0  # atno 17370 bound_to 10713
  157.5530  131.0944  150.9668 LP  0  0  0  0  0  0  0  0  0  0  0  0  # atno 17371 bound_to 10713
  139.9662  134.7368  156.0133 LP  0  0  0  0  0  0  0  0  0  0  0  0  # atno 17394 bound_to 11000
  141.1389  133.6569  156.3672 LP  0  0  0  0  0  0  0  0  0  0  0  0  # atno 17395 bound_to 11000

$$$$
