AV-unprocessed.smi:1830|AV-procd|sdf|7449|dock3
  -GOLD-   22720 9143D 1   1.00000     0.00000
 Structure written by MMmdl.
 54 57  0  0  0  0  0  0  0  0  3 V2000
  146.3759  138.8433  154.9277 O   0  0  0  0  0  0  0  0  0  0  0  0
  147.1377  138.2566  154.1600 C   0  0  0  0  0  0  0  0  0  0  0  0
  146.7470  137.2761  153.3343 N   0  0  0  0  0  0  0  0  0  0  0  0
  145.3905  136.7440  153.2391 C   0  0  0  0  0  0  0  0  0  0  0  0
  145.3268  135.3573  152.5679 C   0  0  1  0  0  0  0  0  0  0  0  0
  144.5390  134.3157  153.3907 C   0  0  0  0  0  0  0  0  0  0  0  0
  144.3721  133.0417  152.6536 N   0  3  2  0  0  0  0  0  0  0  0  0
  145.5278  132.1176  152.6642 C   0  0  0  0  0  0  0  0  0  0  0  0
  145.4668  131.3361  151.3421 C   0  0  0  0  0  0  0  0  0  0  0  0
  144.1994  131.8274  150.6341 C   0  0  0  0  0  0  0  0  0  0  0  0
  143.9310  133.2001  151.2529 C   0  0  2  0  0  0  0  0  0  0  0  0
  144.7133  134.3255  150.5392 C   0  0  0  0  0  0  0  0  0  0  0  0
  144.6799  135.5177  151.3114 O   0  0  0  0  0  0  0  0  0  0  0  0
  148.4471  138.5200  154.0177 N   0  0  0  0  0  0  0  0  0  0  0  0
  149.2112  139.5355  154.6597 C   0  0  0  0  0  0  0  0  0  0  0  0
  150.5481  139.3156  155.0802 C   0  0  0  0  0  0  0  0  0  0  0  0
  151.2763  140.3635  155.6753 C   0  0  0  0  0  0  0  0  0  0  0  0
  150.6618  141.6187  155.8307 C   0  0  0  0  0  0  0  0  0  0  0  0
  149.3940  141.7999  155.4061 N   0  3  0  0  0  0  0  0  0  0  0  0
  148.6451  140.8296  154.8263 C   0  0  0  0  0  0  0  0  0  0  0  0
  147.3203  141.1290  154.4416 N   0  0  0  0  0  0  0  0  0  0  0  0
  146.4516  141.5400  155.5418 C   0  0  0  0  0  0  0  0  0  0  0  0
  145.5123  142.6083  154.9777 C   0  0  0  0  0  0  0  0  0  0  0  0
  146.3174  143.2079  153.8315 C   0  0  0  0  0  0  0  0  0  0  0  0
  147.0727  141.9957  153.2899 C   0  0  0  0  0  0  0  0  0  0  0  0
  147.4419  136.8499  152.7386 H   0  0  0  0  0  0  0  0  0  0  0  0
  144.9859  136.6827  154.2497 H   0  0  0  0  0  0  0  0  0  0  0  0
  144.7601  137.4520  152.6988 H   0  0  0  0  0  0  0  0  0  0  0  0
  146.3448  135.0041  152.3969 H   0  0  0  0  0  0  0  0  0  0  0  0
  145.0178  134.1203  154.3510 H   0  0  0  0  0  0  0  0  0  0  0  0
  143.5451  134.7074  153.6101 H   0  0  0  0  0  0  0  0  0  0  0  0
  146.4693  132.6642  152.7303 H   0  0  0  0  0  0  0  0  0  0  0  0
  145.4664  131.4585  153.5304 H   0  0  0  0  0  0  0  0  0  0  0  0
  146.3463  131.5623  150.7381 H   0  0  0  0  0  0  0  0  0  0  0  0
  145.4479  130.2575  151.5011 H   0  0  0  0  0  0  0  0  0  0  0  0
  144.3029  131.8567  149.5488 H   0  0  0  0  0  0  0  0  0  0  0  0
  143.3719  131.1559  150.8671 H   0  0  0  0  0  0  0  0  0  0  0  0
  142.8664  133.4374  151.2347 H   0  0  0  0  0  0  0  0  0  0  0  0
  145.7503  134.0389  150.3558 H   0  0  0  0  0  0  0  0  0  0  0  0
  144.2701  134.5253  149.5634 H   0  0  0  0  0  0  0  0  0  0  0  0
  148.9273  138.0091  153.2911 H   0  0  0  0  0  0  0  0  0  0  0  0
  151.0353  138.3624  154.9408 H   0  0  0  0  0  0  0  0  0  0  0  0
  152.2945  140.2075  156.0010 H   0  0  0  0  0  0  0  0  0  0  0  0
  151.1426  142.4786  156.2743 H   0  0  0  0  0  0  0  0  0  0  0  0
  145.8905  140.6943  155.9407 H   0  0  0  0  0  0  0  0  0  0  0  0
  147.0483  141.9588  156.3544 H   0  0  0  0  0  0  0  0  0  0  0  0
  144.6090  142.1385  154.5859 H   0  0  0  0  0  0  0  0  0  0  0  0
  145.2126  143.3463  155.7224 H   0  0  0  0  0  0  0  0  0  0  0  0
  145.6953  143.6922  153.0780 H   0  0  0  0  0  0  0  0  0  0  0  0
  147.0224  143.9458  154.2173 H   0  0  0  0  0  0  0  0  0  0  0  0
  147.9649  142.2905  152.7384 H   0  0  0  0  0  0  0  0  0  0  0  0
  146.4394  141.4464  152.5924 H   0  0  0  0  0  0  0  0  0  0  0  0
  143.6322  132.5340  153.1174 H   0  0  0  0  0  0  0  0  0  0  0  0
  148.9745  142.7214  155.5317 H   0  0  0  0  0  0  0  0  0  0  0  0
  1  2  2  0  0  0  0
  2  3  1  0  0  0  0
  2 14  1  0  0  0  0
  3  4  1  0  0  0  0
  3 26  1  0  0  0  0
  4  5  1  0  0  0  0
  4 27  1  0  0  0  0
  4 28  1  0  0  0  0
  5 13  1  0  0  0  0
  5  6  1  0  0  0  0
  5 29  1  0  0  0  0
  6  7  1  0  0  0  0
  6 30  1  0  0  0  0
  6 31  1  0  0  0  0
  7 11  1  0  0  0  0
  7  8  1  0  0  0  0
  7 53  1  0  0  0  0
  8  9  1  0  0  0  0
  8 32  1  0  0  0  0
  8 33  1  0  0  0  0
  9 10  1  0  0  0  0
  9 34  1  0  0  0  0
  9 35  1  0  0  0  0
 10 11  1  0  0  0  0
 10 36  1  0  0  0  0
 10 37  1  0  0  0  0
 11 12  1  0  0  0  0
 11 38  1  0  0  0  0
 12 13  1  0  0  0  0
 12 39  1  0  0  0  0
 12 40  1  0  0  0  0
 14 15  1  0  0  0  0
 14 41  1  0  0  0  0
 15 20  1  0  0  0  0
 15 16  2  0  0  0  0
 16 17  1  0  0  0  0
 16 42  1  0  0  0  0
 17 18  2  0  0  0  0
 17 43  1  0  0  0  0
 18 19  1  0  0  0  0
 18 44  1  0  0  0  0
 19 20  2  0  0  0  0
 19 54  1  0  0  0  0
 20 21  1  0  0  0  0
 21 25  1  0  0  0  0
 21 22  1  0  0  0  0
 22 23  1  0  0  0  0
 22 45  1  0  0  0  0
 22 46  1  0  0  0  0
 23 24  1  0  0  0  0
 23 47  1  0  0  0  0
 23 48  1  0  0  0  0
 24 25  1  0  0  0  0
 24 49  1  0  0  0  0
 24 50  1  0  0  0  0
 25 51  1  0  0  0  0
 25 52  1  0  0  0  0
M  CHG  1   7   1
M  CHG  1  19   1
M  END
> <s_m_source_file>
AV-unprocessed.smi

> <i_m_source_file_index>
1830

> <i_lp_mmshare_version>
43012

> <i_f3d_flags>
0

> <s_epik_input>
W0NIMl0xW0NIMl1bQ0gyXVtDQEhdKE4xMilbQ0gyXU9bQ0BASF0oW0NIMl0yKVtDSDJdW05IXUMoPU8pW05IXWMzW2NIXVtjSF1bY0hdbmMzTjRbQ0gyXVtDSDJdW0NIMl1bQ0gyXTQ=

> <s_epik_cmdline>
J2VwaWtfcHl0aG9uJywgJy1waCcsICc3LjAnLCAnLXRuJywgJzgnLCAnLW1hJywgJzIwMCcsICctbWV0YWxfYmluZGluZycsICctaW1hZScsICc8aW5maWxlLm1hZT4nLCAnLW9tYWUnLCAnPG91dGZpbGUubWFlPic=

> <r_lp_tautomer_probability>
0.999994

> <r_epik_Ionization_Penalty>
1.29113

> <r_epik_Ionization_Penalty_Charging>
1.29111

> <r_epik_Ionization_Penalty_Neutral>
1.88144e-05

> <r_epik_State_Penalty>
1.32676

> <r_epik_Charging_Adjusted_Penalty>
2.61787

> <i_epik_Tot_Q>
2

> <i_epik_Tot_abs_Q>
2

> <r_epik_Metal_State_Penalty>
1.40425

> <b_epik_Metal_Only>
0

> <s_lp_Force_Field>
OPLS_2005

> <r_lp_Energy>
74.6229

> <b_lp_Chiralities_Consistent>
1

> <s_lp_Variant>
AV-unprocessed.smi:1830-18

> <Gold.Version>
5.8.1

> <Gold.Id.Protein>
6NUR|6NUR_protein|mol2

> <Gold.PLP.Fitness>
51.7287

> <Gold.PLP.PLP>
-38.6671

> <Gold.PLP.part.hbond>
-3.5540

> <Gold.PLP.part.metal>
0.0000

> <Gold.PLP.part.buried>
-7.3143

> <Gold.PLP.part.nonpolar>
-29.1569

> <Gold.PLP.part.repulsive>
0.5629

> <Gold.PLP.ligand.clash>
0.0000

> <Gold.PLP.ligand.torsion>
1.2530

> <Gold.PLP.Chemscore.Hbond>
5.1352

> <Gold.PLP.Chemscore.CHOScore>
0.0000

> <Gold.PLP.Chemscore.Metal>
0.0000

> <Gold.Chemscore.Hbonds>
donor molecule, donor type, donor heavy atom, donor atom, acceptor molecule, acceptor atom, score
      L1  H     3    26       P1  7948  1.00
      L1  H     7    53       P1 10957  1.57
      L1  H    14    41       P1  7948  0.44
      L1  H    19    54       P1  8028  2.00

> <Gold.PLP.Chemscore.Internal.Correction>
0.1618

> <Gold.Rescore>
     Score         DG    S(hbond)    S(metal)    S(lipo)     H(rot)  DE(clash)    DE(int)     intcor
     13.98     -21.89       2.52        0.00      99.50       1.43       1.44       6.48       ----

> <Gold.Chemscore.Fitness>
13.9776

> <Gold.Chemscore.DG>
-21.8943

> <Gold.Chemscore.ZeroCoef>
-5.4800

> <Gold.Chemscore.Hbond>
2.5233

> <Gold.Chemscore.Metal>
0.0000

> <Gold.Chemscore.Lipo>
99.5001

> <Gold.Chemscore.Internal_Hbond>
0.0000

> <Gold.Chemscore.DEClash>
1.4399

> <Gold.Chemscore.DEInternal>
6.4768

> <Gold.Chemscore.Rot>
1.4278

> <Gold.Chemscore.Internal.Correction>
   9.000000E+99

> <Gold.Chemscore.Hbonds>
donor molecule, donor type, donor heavy atom, donor atom, acceptor molecule, acceptor atom, score
      L1  H     3    26       P1  7948  1.00
      L1  H     7    53       P1 10957  0.13
      L1  H    14    41       P1  7948  0.41
      L1  H    19    54       P1  8028  0.95

> <Gold.Chemscore.Hbond.Weighted>
-8.4278

> <Gold.Chemscore.Metal.Weighted>
-0.0000

> <Gold.Chemscore.Lipo.Weighted>
-11.6415

> <Gold.Chemscore.Internal_Hbond.Weighted>
0.0000

> <Gold.Chemscore.DEClash.Weighted>
1.4399

> <Gold.Chemscore.DEInternal.Weighted>
6.4768

> <Gold.Chemscore.Rot.Weighted>
3.6551

> <Gold.Chemscore.Internal.Correction.Weighted>
   9.000000E+99

> <Gold.Protein.RotatedTorsions>
[ 6907 6896 6895 6894 ] final  107.48 input  -60.11 | X-H torsion
[ 7974 7965 7964 7962 ] final    4.97 input  175.53 | X-H torsion
[ 8008 7997 7996 7995 ] final  -93.99 input   59.86 | X-H torsion
[ 10167 10162 10161 10158 ] final  113.81 input  -65.29 | X-H torsion
[ 10718 10713 10712 10709 ] final  109.42 input   66.30 | X-H torsion
[ 10763 10752 10751 10750 ] final   -5.07 input  -60.55 | X-H torsion
[ 11005 11000 10999 10996 ] final -169.15 input  -57.11 | X-H torsion

> <Gold.Protein.ActiveResidues>
 VAL166  LYS551  ARG553  GLY616  TRP617  ASP618  TYR619  PRO620  LYS621  CYS622 
 ASP623  PHE694  ASN695  SER759  ASP760  ASP761  ALA762  ILE779  LEU786  VAL792 
 PHE793  MET794  SER795  GLU796  ALA797  LYS798  CYS799  TRP800  GLU811  SER814 

> <Gold.Protein.RotatedAtoms>
  152.5152  133.9228  159.7542 H   0  0  0  0  0  0  0  0  0  0  0  0  # atno 6907 bound_to 6896
  150.9596  133.6451  159.2763 H   0  0  0  0  0  0  0  0  0  0  0  0  # atno 6908 bound_to 6896
  151.3701  135.0926  159.9515 H   0  0  0  0  0  0  0  0  0  0  0  0  # atno 6909 bound_to 6896
  146.2442  140.0454  142.8379 H   0  0  0  0  0  0  0  0  0  0  0  0  # atno 7974 bound_to 7965
  154.7426  140.0493  157.0825 H   0  0  0  0  0  0  0  0  0  0  0  0  # atno 8008 bound_to 7997
  155.0158  140.3141  155.4793 H   0  0  0  0  0  0  0  0  0  0  0  0  # atno 8009 bound_to 7997
  156.2868  140.2176  156.5275 H   0  0  0  0  0  0  0  0  0  0  0  0  # atno 8010 bound_to 7997
  139.6434  144.7125  151.2191 H   0  0  0  0  0  0  0  0  0  0  0  0  # atno 10167 bound_to 10162
  157.6542  131.0913  150.6451 H   0  0  0  0  0  0  0  0  0  0  0  0  # atno 10718 bound_to 10713
  153.3934  135.7002  153.6478 H   0  0  0  0  0  0  0  0  0  0  0  0  # atno 10763 bound_to 10752
  153.5041  135.3646  155.2555 H   0  0  0  0  0  0  0  0  0  0  0  0  # atno 10764 bound_to 10752
  154.8704  135.4119  154.3256 H   0  0  0  0  0  0  0  0  0  0  0  0  # atno 10765 bound_to 10752
  140.5340  134.5588  157.5082 H   0  0  0  0  0  0  0  0  0  0  0  0  # atno 11005 bound_to 11000
  145.1031  140.9358  143.4700 LP  0  0  0  0  0  0  0  0  0  0  0  0  # atno 17320 bound_to 7965
  145.0652  139.3074  143.5860 LP  0  0  0  0  0  0  0  0  0  0  0  0  # atno 17321 bound_to 7965
  140.7502  143.6273  150.8456 LP  0  0  0  0  0  0  0  0  0  0  0  0  # atno 17342 bound_to 10162
  139.9913  143.5844  152.2909 LP  0  0  0  0  0  0  0  0  0  0  0  0  # atno 17343 bound_to 10162
  156.6760  130.4553  149.5642 LP  0  0  0  0  0  0  0  0  0  0  0  0  # atno 17370 bound_to 10713
  156.1963  130.6592  151.1118 LP  0  0  0  0  0  0  0  0  0  0  0  0  # atno 17371 bound_to 10713
  139.9539  134.7568  156.0385 LP  0  0  0  0  0  0  0  0  0  0  0  0  # atno 17394 bound_to 11000
  141.1265  133.6598  156.3351 LP  0  0  0  0  0  0  0  0  0  0  0  0  # atno 17395 bound_to 11000

$$$$
