AV-unprocessed.smi:2960|AV-procd|sdf|11311|dock4
  -GOLD-   2272016213D 1   1.00000     0.00000
 Structure written by MMmdl.
 48 50  0  0  0  0  0  0  0  0  1 V2000
  148.9541  136.8777  159.1052 C   0  0  0  0  0  0  0  0  0  0  0  0
  150.2571  137.0365  158.3303 C   0  0  0  0  0  0  0  0  0  0  0  0
  151.3376  136.9565  158.9138 O   0  0  0  0  0  0  0  0  0  0  0  0
  150.1399  137.2733  157.0157 N   0  0  0  0  0  0  0  0  0  0  0  0
  151.2575  137.4624  156.0965 C   0  0  0  0  0  0  0  0  0  0  0  0
  151.5276  138.9459  155.7783 C   0  0  0  0  0  0  0  0  0  0  0  0
  150.3030  139.7084  155.3570 C   0  0  0  0  0  0  0  0  0  0  0  0
  149.7063  139.4669  154.1888 N   0  0  0  0  0  0  0  0  0  0  0  0
  148.6555  140.3626  154.1904 C   0  0  0  0  0  0  0  0  0  0  0  0
  147.6500  140.5999  153.2260 C   0  0  0  0  0  0  0  0  0  0  0  0
  146.6673  141.5869  153.4475 C   0  0  0  0  0  0  0  0  0  0  0  0
  146.6767  142.3497  154.6333 C   0  0  0  0  0  0  0  0  0  0  0  0
  147.6686  142.1277  155.6076 C   0  0  0  0  0  0  0  0  0  0  0  0
  148.6460  141.1392  155.3830 C   0  0  0  0  0  0  0  0  0  0  0  0
  149.7354  140.6801  156.1178 N   0  0  0  0  0  0  0  0  0  0  0  0
  150.1531  141.1773  157.4213 C   0  0  0  0  0  0  0  0  0  0  0  0
  151.5848  141.7302  157.3976 C   0  0  0  0  0  0  0  0  0  0  0  0
  151.6059  143.0104  158.0155 O   0  0  0  0  0  0  0  0  0  0  0  0
  152.0285  143.0977  159.3239 C   0  0  0  0  0  0  0  0  0  0  0  0
  152.9274  142.1084  159.7723 C   0  0  0  0  0  0  0  0  0  0  0  0
  153.4128  142.1207  161.0939 C   0  0  0  0  0  0  0  0  0  0  0  0
  153.0030  143.1291  161.9881 C   0  0  0  0  0  0  0  0  0  0  0  0
  153.5306  143.1405  163.4080 C   0  0  0  0  0  0  0  0  0  0  0  0
  152.1061  144.1241  161.5502 C   0  0  0  0  0  0  0  0  0  0  0  0
  151.6204  144.1105  160.2283 C   0  0  0  0  0  0  0  0  0  0  0  0
  148.3450  136.0847  158.6704 H   0  0  0  0  0  0  0  0  0  0  0  0
  148.3837  137.8067  159.0802 H   0  0  0  0  0  0  0  0  0  0  0  0
  149.1509  136.6248  160.1476 H   0  0  0  0  0  0  0  0  0  0  0  0
  149.2112  137.3271  156.6226 H   0  0  0  0  0  0  0  0  0  0  0  0
  152.1585  136.9910  156.4921 H   0  0  0  0  0  0  0  0  0  0  0  0
  151.0165  136.9323  155.1746 H   0  0  0  0  0  0  0  0  0  0  0  0
  151.9997  139.4264  156.6338 H   0  0  0  0  0  0  0  0  0  0  0  0
  152.2590  139.0098  154.9720 H   0  0  0  0  0  0  0  0  0  0  0  0
  147.6356  140.0226  152.3135 H   0  0  0  0  0  0  0  0  0  0  0  0
  145.9040  141.7606  152.7033 H   0  0  0  0  0  0  0  0  0  0  0  0
  145.9222  143.1056  154.7945 H   0  0  0  0  0  0  0  0  0  0  0  0
  147.6799  142.7128  156.5151 H   0  0  0  0  0  0  0  0  0  0  0  0
  149.4606  141.9597  157.7322 H   0  0  0  0  0  0  0  0  0  0  0  0
  150.0613  140.3854  158.1622 H   0  0  0  0  0  0  0  0  0  0  0  0
  152.2463  141.0433  157.9275 H   0  0  0  0  0  0  0  0  0  0  0  0
  151.9335  141.8059  156.3668 H   0  0  0  0  0  0  0  0  0  0  0  0
  153.2476  141.3301  159.0948 H   0  0  0  0  0  0  0  0  0  0  0  0
  154.1010  141.3543  161.4191 H   0  0  0  0  0  0  0  0  0  0  0  0
  153.0025  143.8706  164.0222 H   0  0  0  0  0  0  0  0  0  0  0  0
  154.5912  143.3929  163.4131 H   0  0  0  0  0  0  0  0  0  0  0  0
  153.4082  142.1593  163.8672 H   0  0  0  0  0  0  0  0  0  0  0  0
  151.7865  144.9040  162.2260 H   0  0  0  0  0  0  0  0  0  0  0  0
  150.9365  144.8911  159.9316 H   0  0  0  0  0  0  0  0  0  0  0  0
  1  2  1  0  0  0  0
  1 26  1  0  0  0  0
  1 27  1  0  0  0  0
  1 28  1  0  0  0  0
  2  3  2  0  0  0  0
  2  4  1  0  0  0  0
  4  5  1  0  0  0  0
  4 29  1  0  0  0  0
  5  6  1  0  0  0  0
  5 30  1  0  0  0  0
  5 31  1  0  0  0  0
  6  7  1  0  0  0  0
  6 32  1  0  0  0  0
  6 33  1  0  0  0  0
  7 15  1  0  0  0  0
  7  8  2  0  0  0  0
  8  9  1  0  0  0  0
  9 14  2  0  0  0  0
  9 10  1  0  0  0  0
 10 11  2  0  0  0  0
 10 34  1  0  0  0  0
 11 12  1  0  0  0  0
 11 35  1  0  0  0  0
 12 13  2  0  0  0  0
 12 36  1  0  0  0  0
 13 14  1  0  0  0  0
 13 37  1  0  0  0  0
 14 15  1  0  0  0  0
 15 16  1  0  0  0  0
 16 17  1  0  0  0  0
 16 38  1  0  0  0  0
 16 39  1  0  0  0  0
 17 18  1  0  0  0  0
 17 40  1  0  0  0  0
 17 41  1  0  0  0  0
 18 19  1  0  0  0  0
 19 25  1  0  0  0  0
 19 20  2  0  0  0  0
 20 21  1  0  0  0  0
 20 42  1  0  0  0  0
 21 22  2  0  0  0  0
 21 43  1  0  0  0  0
 22 23  1  0  0  0  0
 22 24  1  0  0  0  0
 23 44  1  0  0  0  0
 23 45  1  0  0  0  0
 23 46  1  0  0  0  0
 24 25  2  0  0  0  0
 24 47  1  0  0  0  0
 25 48  1  0  0  0  0
M  END
> <s_m_source_file>
AV-unprocessed.smi

> <i_m_source_file_index>
2960

> <i_lp_mmshare_version>
43012

> <i_f3d_flags>
0

> <s_epik_input>
W0NIM11DKD1PKVtOSF1bQ0gyXVtDSDJdYyhuMSluKGMoYzEyKVtjSF1bY0hdW2NIXVtjSF0yKVtDSDJdW0NIMl1PYzNbY0hdW2NIXWMoW0NIM10pW2NIXVtjSF0z

> <s_epik_cmdline>
J2VwaWtfcHl0aG9uJywgJy1waCcsICc3LjAnLCAnLXRuJywgJzgnLCAnLW1hJywgJzIwMCcsICctbWV0YWxfYmluZGluZycsICctaW1hZScsICc8aW5maWxlLm1hZT4nLCAnLW9tYWUnLCAnPG91dGZpbGUubWFlPic=

> <r_lp_tautomer_probability>
1

> <r_epik_Ionization_Penalty>
0.0990099

> <r_epik_Ionization_Penalty_Charging>
0

> <r_epik_Ionization_Penalty_Neutral>
0.0990099

> <r_epik_State_Penalty>
0.0890759

> <r_epik_Charging_Adjusted_Penalty>
0.0890759

> <i_epik_Tot_Q>
0

> <i_epik_Tot_abs_Q>
0

> <r_epik_Metal_State_Penalty>
0.0762215

> <b_epik_Metal_Only>
0

> <s_lp_Force_Field>
OPLS_2005

> <r_lp_Energy>
13.2598

> <b_lp_Chiralities_Consistent>
1

> <s_lp_Variant>
AV-unprocessed.smi:2960-1

> <Gold.Version>
5.8.1

> <Gold.Id.Protein>
6NUR|6NUR_protein|mol2

> <Gold.PLP.Fitness>
50.9427

> <Gold.PLP.PLP>
-50.5936

> <Gold.PLP.part.hbond>
-1.0000

> <Gold.PLP.part.metal>
0.0000

> <Gold.PLP.part.buried>
-3.0822

> <Gold.PLP.part.nonpolar>
-46.2366

> <Gold.PLP.part.repulsive>
0.7248

> <Gold.PLP.ligand.clash>
0.0000

> <Gold.PLP.ligand.torsion>
1.2232

> <Gold.PLP.Chemscore.Hbond>
0.8640

> <Gold.PLP.Chemscore.CHOScore>
0.0000

> <Gold.PLP.Chemscore.Metal>
0.0000

> <Gold.Chemscore.Hbonds>
donor molecule, donor type, donor heavy atom, donor atom, acceptor molecule, acceptor atom, score
      P1  H  6896  6907       L1     3  0.76

> <Gold.PLP.Chemscore.Internal.Correction>
0.2034

> <Gold.Rescore>
     Score         DG    S(hbond)    S(metal)    S(lipo)     H(rot)  DE(clash)    DE(int)     intcor
     17.38     -19.15       0.97        0.00     135.39       2.11       0.60       1.17       ----

> <Gold.Chemscore.Fitness>
17.3814

> <Gold.Chemscore.DG>
-19.1494

> <Gold.Chemscore.ZeroCoef>
-5.4800

> <Gold.Chemscore.Hbond>
0.9654

> <Gold.Chemscore.Metal>
0.0000

> <Gold.Chemscore.Lipo>
135.3919

> <Gold.Chemscore.Internal_Hbond>
0.0000

> <Gold.Chemscore.DEClash>
0.5982

> <Gold.Chemscore.DEInternal>
1.1697

> <Gold.Chemscore.Rot>
2.1078

> <Gold.Chemscore.Internal.Correction>
   9.000000E+99

> <Gold.Chemscore.Hbonds>
donor molecule, donor type, donor heavy atom, donor atom, acceptor molecule, acceptor atom, score
      P1  H  6896  6907       L1     3  0.22

> <Gold.Chemscore.Hbond.Weighted>
-3.2246

> <Gold.Chemscore.Metal.Weighted>
-0.0000

> <Gold.Chemscore.Lipo.Weighted>
-15.8409

> <Gold.Chemscore.Internal_Hbond.Weighted>
0.0000

> <Gold.Chemscore.DEClash.Weighted>
0.5982

> <Gold.Chemscore.DEInternal.Weighted>
1.1697

> <Gold.Chemscore.Rot.Weighted>
5.3961

> <Gold.Chemscore.Internal.Correction.Weighted>
   9.000000E+99

> <Gold.Protein.RotatedTorsions>
[ 6907 6896 6895 6894 ] final  -28.15 input  -60.11 | X-H torsion
[ 7974 7965 7964 7962 ] final   -2.16 input  175.53 | X-H torsion
[ 8008 7997 7996 7995 ] final -118.28 input   59.86 | X-H torsion
[ 10167 10162 10161 10158 ] final  134.12 input  -65.29 | X-H torsion
[ 10718 10713 10712 10709 ] final  -68.61 input   66.30 | X-H torsion
[ 10763 10752 10751 10750 ] final  172.83 input  -60.55 | X-H torsion
[ 11005 11000 10999 10996 ] final -153.33 input  -57.11 | X-H torsion

> <Gold.Protein.ActiveResidues>
 VAL166  LYS551  ARG553  GLY616  TRP617  ASP618  TYR619  PRO620  LYS621  CYS622 
 ASP623  PHE694  ASN695  SER759  ASP760  ASP761  ALA762  ILE779  LEU786  VAL792 
 PHE793  MET794  SER795  GLU796  ALA797  LYS798  CYS799  TRP800  GLU811  SER814 

> <Gold.Protein.RotatedAtoms>
  151.1369  135.0159  159.8607 H   0  0  0  0  0  0  0  0  0  0  0  0  # atno 6907 bound_to 6896
  152.5452  134.1544  159.8542 H   0  0  0  0  0  0  0  0  0  0  0  0  # atno 6908 bound_to 6896
  151.1616  133.4796  159.2627 H   0  0  0  0  0  0  0  0  0  0  0  0  # atno 6909 bound_to 6896
  146.2408  140.1529  142.8333 H   0  0  0  0  0  0  0  0  0  0  0  0  # atno 7974 bound_to 7965
  155.0972  140.0395  157.2686 H   0  0  0  0  0  0  0  0  0  0  0  0  # atno 8008 bound_to 7997
  154.6786  140.2628  155.6906 H   0  0  0  0  0  0  0  0  0  0  0  0  # atno 8009 bound_to 7997
  156.2686  140.2783  156.1322 H   0  0  0  0  0  0  0  0  0  0  0  0  # atno 8010 bound_to 7997
  139.5269  144.6583  151.5094 H   0  0  0  0  0  0  0  0  0  0  0  0  # atno 10167 bound_to 10162
  156.0496  130.4298  150.2026 H   0  0  0  0  0  0  0  0  0  0  0  0  # atno 10718 bound_to 10713
  154.4316  135.2760  155.1908 H   0  0  0  0  0  0  0  0  0  0  0  0  # atno 10763 bound_to 10752
  154.3812  135.6087  153.5795 H   0  0  0  0  0  0  0  0  0  0  0  0  # atno 10764 bound_to 10752
  152.9836  135.5881  154.4628 H   0  0  0  0  0  0  0  0  0  0  0  0  # atno 10765 bound_to 10752
  140.7093  134.3850  157.5200 H   0  0  0  0  0  0  0  0  0  0  0  0  # atno 11005 bound_to 11000
  145.0152  140.8748  143.5200 LP  0  0  0  0  0  0  0  0  0  0  0  0  # atno 17320 bound_to 7965
  145.1569  139.2481  143.5411 LP  0  0  0  0  0  0  0  0  0  0  0  0  # atno 17321 bound_to 7965
  140.6419  143.8873  150.6699 LP  0  0  0  0  0  0  0  0  0  0  0  0  # atno 17342 bound_to 10162
  140.2210  143.3809  152.1643 LP  0  0  0  0  0  0  0  0  0  0  0  0  # atno 17343 bound_to 10162
  157.0111  130.9951  151.3365 LP  0  0  0  0  0  0  0  0  0  0  0  0  # atno 17370 bound_to 10713
  157.5409  130.8119  149.8028 LP  0  0  0  0  0  0  0  0  0  0  0  0  # atno 17371 bound_to 10713
  139.8876  134.8879  156.2521 LP  0  0  0  0  0  0  0  0  0  0  0  0  # atno 17394 bound_to 11000
  141.0098  133.7102  156.1093 LP  0  0  0  0  0  0  0  0  0  0  0  0  # atno 17395 bound_to 11000

$$$$
