AV-unprocessed.smi:865|AV-procd|sdf|3991|dock9
  -GOLD-   22720 1473D 1   1.00000     0.00000
 Structure written by MMmdl.
 36 36  0  0  0  0  0  0  0  0  1 V2000
  153.1764  141.4021  160.0808 C   0  0  0  0  0  0  0  0  0  0  0  0
  151.9695  141.6973  159.1776 C   0  0  0  0  0  0  0  0  0  0  0  0
  152.1669  142.8805  158.1953 C   0  0  0  0  0  0  0  0  0  0  0  0
  152.4893  144.1958  158.9514 C   0  0  0  0  0  0  0  0  0  0  0  0
  151.3938  144.6522  159.9266 C   0  0  0  0  0  0  0  0  0  0  0  0
  150.9744  143.0392  157.2096 C   0  0  1  0  0  0  0  0  0  0  0  0
  151.2292  144.1323  156.3479 O   0  0  0  0  0  0  0  0  0  0  0  0
  150.7091  141.7784  156.3564 C   0  0  0  0  0  0  0  0  0  0  0  0
  149.6031  141.9819  155.4277 N   0  0  0  0  0  0  0  0  0  0  0  0
  149.3464  141.2212  154.3527 C   0  0  0  0  0  0  0  0  0  0  0  0
  150.0039  140.2268  154.0477 O   0  0  0  0  0  0  0  0  0  0  0  0
  148.1726  141.6566  153.4768 C   0  0  0  0  0  0  0  0  0  0  0  0
  147.0381  142.0379  154.2956 N   0  0  0  0  0  0  0  0  0  0  0  0
  146.2671  143.1270  154.2729 C   0  0  0  0  0  0  0  0  0  0  0  0
  145.3374  143.0871  155.2152 N   0  0  0  0  0  0  0  0  0  0  0  0
  145.5796  141.8776  155.8455 N   0  0  0  0  0  0  0  0  0  0  0  0
  146.5880  141.2508  155.3045 N   0  0  0  0  0  0  0  0  0  0  0  0
  152.9195  140.6513  160.8282 H   0  0  0  0  0  0  0  0  0  0  0  0
  153.5019  142.2972  160.6110 H   0  0  0  0  0  0  0  0  0  0  0  0
  154.0235  141.0140  159.5164 H   0  0  0  0  0  0  0  0  0  0  0  0
  151.6945  140.7948  158.6312 H   0  0  0  0  0  0  0  0  0  0  0  0
  151.1281  141.9089  159.8355 H   0  0  0  0  0  0  0  0  0  0  0  0
  153.0413  142.6417  157.5880 H   0  0  0  0  0  0  0  0  0  0  0  0
  153.4009  144.0753  159.5351 H   0  0  0  0  0  0  0  0  0  0  0  0
  152.6972  144.9951  158.2392 H   0  0  0  0  0  0  0  0  0  0  0  0
  151.7240  145.5239  160.4917 H   0  0  0  0  0  0  0  0  0  0  0  0
  151.1526  143.8674  160.6440 H   0  0  0  0  0  0  0  0  0  0  0  0
  150.4765  144.9327  159.4108 H   0  0  0  0  0  0  0  0  0  0  0  0
  150.0708  143.2580  157.7779 H   0  0  0  0  0  0  0  0  0  0  0  0
  150.4268  144.6185  156.2355 H   0  0  0  0  0  0  0  0  0  0  0  0
  151.6082  141.4389  155.8390 H   0  0  0  0  0  0  0  0  0  0  0  0
  150.4060  140.9566  157.0057 H   0  0  0  0  0  0  0  0  0  0  0  0
  149.0086  142.7807  155.5960 H   0  0  0  0  0  0  0  0  0  0  0  0
  148.4637  142.5085  152.8611 H   0  0  0  0  0  0  0  0  0  0  0  0
  147.8801  140.8526  152.7992 H   0  0  0  0  0  0  0  0  0  0  0  0
  146.3887  143.9426  153.5752 H   0  0  0  0  0  0  0  0  0  0  0  0
  1  2  1  0  0  0  0
  1 18  1  0  0  0  0
  1 19  1  0  0  0  0
  1 20  1  0  0  0  0
  2  3  1  0  0  0  0
  2 21  1  0  0  0  0
  2 22  1  0  0  0  0
  3  4  1  0  0  0  0
  3  6  1  0  0  0  0
  3 23  1  0  0  0  0
  4  5  1  0  0  0  0
  4 24  1  0  0  0  0
  4 25  1  0  0  0  0
  5 26  1  0  0  0  0
  5 27  1  0  0  0  0
  5 28  1  0  0  0  0
  6  7  1  0  0  0  0
  6  8  1  0  0  0  0
  6 29  1  0  0  0  0
  7 30  1  0  0  0  0
  8  9  1  0  0  0  0
  8 31  1  0  0  0  0
  8 32  1  0  0  0  0
  9 10  1  0  0  0  0
  9 33  1  0  0  0  0
 10 11  2  0  0  0  0
 10 12  1  0  0  0  0
 12 13  1  0  0  0  0
 12 34  1  0  0  0  0
 12 35  1  0  0  0  0
 13 17  1  0  0  0  0
 13 14  1  0  0  0  0
 14 15  2  0  0  0  0
 14 36  1  0  0  0  0
 15 16  1  0  0  0  0
 16 17  2  0  0  0  0
M  END
> <s_m_source_file>
AV-unprocessed.smi

> <i_m_source_file_index>
865

> <i_lp_mmshare_version>
43012

> <i_f3d_flags>
0

> <s_epik_input>
W0NIM11bQ0gyXVtDSF0oW0NIMl1bQ0gzXSlbQ0BIXShbT0hdKVtDSDJdW05IXUMoPU8pW0NIMl1uMVtjSF1ubm4x

> <s_epik_cmdline>
J2VwaWtfcHl0aG9uJywgJy1waCcsICc3LjAnLCAnLXRuJywgJzgnLCAnLW1hJywgJzIwMCcsICctbWV0YWxfYmluZGluZycsICctaW1hZScsICc8aW5maWxlLm1hZT4nLCAnLW9tYWUnLCAnPG91dGZpbGUubWFlPic=

> <r_lp_tautomer_probability>
1

> <r_epik_Ionization_Penalty>
9.39891e-07

> <r_epik_Ionization_Penalty_Charging>
0

> <r_epik_Ionization_Penalty_Neutral>
9.39891e-07

> <r_epik_State_Penalty>
-0

> <r_epik_Charging_Adjusted_Penalty>
0

> <i_epik_Tot_Q>
0

> <i_epik_Tot_abs_Q>
0

> <r_epik_Metal_State_Penalty>
-0

> <b_epik_Metal_Only>
0

> <s_lp_Force_Field>
OPLS_2005

> <r_lp_Energy>
13.5174

> <b_lp_Chiralities_Consistent>
1

> <s_lp_Variant>
AV-unprocessed.smi:865-2

> <Gold.Version>
5.8.1

> <Gold.Id.Protein>
6NUR|6NUR_protein|mol2

> <Gold.PLP.Fitness>
48.3490

> <Gold.PLP.PLP>
-40.2309

> <Gold.PLP.part.hbond>
-2.8951

> <Gold.PLP.part.metal>
0.0000

> <Gold.PLP.part.buried>
-2.2231

> <Gold.PLP.part.nonpolar>
-35.1008

> <Gold.PLP.part.repulsive>
0.5643

> <Gold.PLP.ligand.clash>
0.0000

> <Gold.PLP.ligand.torsion>
0.4825

> <Gold.PLP.Chemscore.Hbond>
2.9600

> <Gold.PLP.Chemscore.CHOScore>
0.0000

> <Gold.PLP.Chemscore.Metal>
0.0000

> <Gold.Chemscore.Hbonds>
donor molecule, donor type, donor heavy atom, donor atom, acceptor molecule, acceptor atom, score
      L1  H     7    30       P1  8028  1.00
      L1  H     9    33       P1  8028  0.93
      P1  H  7989  7998       L1    11  0.85

> <Gold.PLP.Chemscore.Internal.Correction>
0.2029

> <Gold.Rescore>
     Score         DG    S(hbond)    S(metal)    S(lipo)     H(rot)  DE(clash)    DE(int)     intcor
     12.66     -13.80       2.45        0.00      84.12       3.80       0.42       0.72       ----

> <Gold.Chemscore.Fitness>
12.6639

> <Gold.Chemscore.DG>
-13.8022

> <Gold.Chemscore.ZeroCoef>
-5.4800

> <Gold.Chemscore.Hbond>
2.4547

> <Gold.Chemscore.Metal>
0.0000

> <Gold.Chemscore.Lipo>
84.1218

> <Gold.Chemscore.Internal_Hbond>
0.0000

> <Gold.Chemscore.DEClash>
0.4223

> <Gold.Chemscore.DEInternal>
0.7161

> <Gold.Chemscore.Rot>
3.7964

> <Gold.Chemscore.Internal.Correction>
   9.000000E+99

> <Gold.Chemscore.Hbonds>
donor molecule, donor type, donor heavy atom, donor atom, acceptor molecule, acceptor atom, score
      L1  H     7    30       P1  8028  0.95
      L1  H     9    33       P1  8028  0.90
      P1  H  7989  7998       L1    11  0.42

> <Gold.Chemscore.Hbond.Weighted>
-8.1988

> <Gold.Chemscore.Metal.Weighted>
-0.0000

> <Gold.Chemscore.Lipo.Weighted>
-9.8423

> <Gold.Chemscore.Internal_Hbond.Weighted>
0.0000

> <Gold.Chemscore.DEClash.Weighted>
0.4223

> <Gold.Chemscore.DEInternal.Weighted>
0.7161

> <Gold.Chemscore.Rot.Weighted>
9.7188

> <Gold.Chemscore.Internal.Correction.Weighted>
   9.000000E+99

> <Gold.Protein.RotatedTorsions>
[ 6907 6896 6895 6894 ] final   26.75 input  -60.11 | X-H torsion
[ 7974 7965 7964 7962 ] final  138.56 input  175.53 | X-H torsion
[ 8008 7997 7996 7995 ] final  -87.82 input   59.86 | X-H torsion
[ 10167 10162 10161 10158 ] final   58.79 input  -65.29 | X-H torsion
[ 10718 10713 10712 10709 ] final   75.86 input   66.30 | X-H torsion
[ 10763 10752 10751 10750 ] final   -9.63 input  -60.55 | X-H torsion
[ 11005 11000 10999 10996 ] final  167.16 input  -57.11 | X-H torsion

> <Gold.Protein.ActiveResidues>
 VAL166  LYS551  ARG553  GLY616  TRP617  ASP618  TYR619  PRO620  LYS621  CYS622 
 ASP623  PHE694  ASN695  SER759  ASP760  ASP761  ALA762  ILE779  LEU786  VAL792 
 PHE793  MET794  SER795  GLU796  ALA797  LYS798  CYS799  TRP800  GLU811  SER814 

> <Gold.Protein.RotatedAtoms>
  151.9921  134.9973  160.0561 H   0  0  0  0  0  0  0  0  0  0  0  0  # atno 6907 bound_to 6896
  152.1598  133.4570  159.4863 H   0  0  0  0  0  0  0  0  0  0  0  0  # atno 6908 bound_to 6896
  150.6886  134.2003  159.4362 H   0  0  0  0  0  0  0  0  0  0  0  0  # atno 6909 bound_to 6896
  144.9361  139.4988  143.5594 H   0  0  0  0  0  0  0  0  0  0  0  0  # atno 7974 bound_to 7965
  154.6677  140.0561  157.0131 H   0  0  0  0  0  0  0  0  0  0  0  0  # atno 8008 bound_to 7997
  155.1135  140.3240  155.4497 H   0  0  0  0  0  0  0  0  0  0  0  0  # atno 8009 bound_to 7997
  156.2644  140.2010  156.6259 H   0  0  0  0  0  0  0  0  0  0  0  0  # atno 8010 bound_to 7997
  140.1834  144.4159  150.6604 H   0  0  0  0  0  0  0  0  0  0  0  0  # atno 10167 bound_to 10162
  157.6651  130.9747  150.1414 H   0  0  0  0  0  0  0  0  0  0  0  0  # atno 10718 bound_to 10713
  153.4575  135.7015  153.6070 H   0  0  0  0  0  0  0  0  0  0  0  0  # atno 10763 bound_to 10752
  153.4379  135.3787  155.2210 H   0  0  0  0  0  0  0  0  0  0  0  0  # atno 10764 bound_to 10752
  154.8728  135.3966  154.3996 H   0  0  0  0  0  0  0  0  0  0  0  0  # atno 10765 bound_to 10752
  140.2739  134.7804  157.3700 H   0  0  0  0  0  0  0  0  0  0  0  0  # atno 11005 bound_to 11000
  146.3267  139.8346  142.8902 LP  0  0  0  0  0  0  0  0  0  0  0  0  # atno 17320 bound_to 7965
  145.3065  141.0208  143.3579 LP  0  0  0  0  0  0  0  0  0  0  0  0  # atno 17321 bound_to 7965
  140.6504  143.2223  151.6090 LP  0  0  0  0  0  0  0  0  0  0  0  0  # atno 17342 bound_to 10162
  139.5286  144.2983  152.1095 LP  0  0  0  0  0  0  0  0  0  0  0  0  # atno 17343 bound_to 10162
  156.2236  130.3676  149.8527 LP  0  0  0  0  0  0  0  0  0  0  0  0  # atno 17370 bound_to 10713
  156.6373  130.8690  151.3507 LP  0  0  0  0  0  0  0  0  0  0  0  0  # atno 17371 bound_to 10713
  140.1347  134.5050  155.8078 LP  0  0  0  0  0  0  0  0  0  0  0  0  # atno 17394 bound_to 11000
  141.2173  133.6802  156.7102 LP  0  0  0  0  0  0  0  0  0  0  0  0  # atno 17395 bound_to 11000

$$$$
