AV-unprocessed.smi:3304|AV-procd|sdf|12698|dock9
  -GOLD-   2272019 33D 1   1.00000     0.00000
 Structure written by MMmdl.
 46 47  0  0  0  0  0  0  0  0  2 V2000
  151.9745  138.9889  154.3795 C   0  0  0  0  0  0  0  0  0  0  0  0
  150.5392  138.5797  154.4628 C   0  0  0  0  0  0  0  0  0  0  0  0
  149.3901  139.3111  154.3236 C   0  0  0  0  0  0  0  0  0  0  0  0
  149.2283  140.7793  154.0397 C   0  0  0  0  0  0  0  0  0  0  0  0
  148.5821  141.5140  155.2217 C   0  0  0  0  0  0  0  0  0  0  0  0
  149.5932  142.2444  156.0096 N   0  3  0  0  0  0  0  0  0  0  0  0
  149.9458  141.5923  157.2867 C   0  0  0  0  0  0  0  0  0  0  0  0
  151.2704  142.1345  157.8549 C   0  0  2  0  0  0  0  0  0  0  0  0
  151.6844  141.3574  159.1204 C   0  0  0  0  0  0  0  0  0  0  0  0
  153.0063  141.8830  159.7074 C   0  0  0  0  0  0  0  0  0  0  0  0
  152.9603  143.3949  160.0038 C   0  0  2  0  0  0  0  0  0  0  0  0
  152.1124  143.7289  161.2438 C   0  0  0  0  0  0  0  0  0  0  0  0
  152.5124  144.1754  158.7521 C   0  0  0  0  0  0  0  0  0  0  0  0
  151.1923  143.6445  158.1663 C   0  0  0  0  0  0  0  0  0  0  0  0
  148.3554  138.3518  154.5132 C   0  0  0  0  0  0  0  0  0  0  0  0
  148.8182  137.1378  154.7509 N   0  0  0  0  0  0  0  0  0  0  0  0
  150.1596  137.2755  154.7191 N   0  0  0  0  0  0  0  0  0  0  0  0
  150.9997  136.1150  154.9441 C   0  0  0  0  0  0  0  0  0  0  0  0
  152.0714  140.0557  154.1791 H   0  0  0  0  0  0  0  0  0  0  0  0
  152.4847  138.4513  153.5801 H   0  0  0  0  0  0  0  0  0  0  0  0
  152.4926  138.7762  155.3150 H   0  0  0  0  0  0  0  0  0  0  0  0
  150.1942  141.2331  153.8149 H   0  0  0  0  0  0  0  0  0  0  0  0
  148.6183  140.9280  153.1478 H   0  0  0  0  0  0  0  0  0  0  0  0
  147.8336  142.2197  154.8584 H   0  0  0  0  0  0  0  0  0  0  0  0
  148.0679  140.8025  155.8694 H   0  0  0  0  0  0  0  0  0  0  0  0
  150.4318  142.3351  155.4539 H   0  0  0  0  0  0  0  0  0  0  0  0
  149.1390  141.7328  158.0075 H   0  0  0  0  0  0  0  0  0  0  0  0
  150.0307  140.5194  157.1094 H   0  0  0  0  0  0  0  0  0  0  0  0
  152.0485  141.9790  157.1055 H   0  0  0  0  0  0  0  0  0  0  0  0
  150.8955  141.4214  159.8708 H   0  0  0  0  0  0  0  0  0  0  0  0
  151.7940  140.2979  158.8862 H   0  0  0  0  0  0  0  0  0  0  0  0
  153.2606  141.3286  160.6115 H   0  0  0  0  0  0  0  0  0  0  0  0
  153.8105  141.6846  158.9975 H   0  0  0  0  0  0  0  0  0  0  0  0
  153.9781  143.7109  160.2365 H   0  0  0  0  0  0  0  0  0  0  0  0
  151.0668  143.4509  161.1146 H   0  0  0  0  0  0  0  0  0  0  0  0
  152.1444  144.7967  161.4621 H   0  0  0  0  0  0  0  0  0  0  0  0
  152.4860  143.2050  162.1239 H   0  0  0  0  0  0  0  0  0  0  0  0
  152.4177  145.2369  158.9838 H   0  0  0  0  0  0  0  0  0  0  0  0
  153.2904  144.1025  157.9907 H   0  0  0  0  0  0  0  0  0  0  0  0
  150.9569  144.2047  157.2609 H   0  0  0  0  0  0  0  0  0  0  0  0
  150.3758  143.8387  158.8625 H   0  0  0  0  0  0  0  0  0  0  0  0
  147.2862  138.5026  154.4862 H   0  0  0  0  0  0  0  0  0  0  0  0
  151.6530  135.9628  154.0846 H   0  0  0  0  0  0  0  0  0  0  0  0
  150.3924  135.2200  155.0869 H   0  0  0  0  0  0  0  0  0  0  0  0
  151.6104  136.2722  155.8335 H   0  0  0  0  0  0  0  0  0  0  0  0
  149.2368  143.1681  156.2099 H   0  0  0  0  0  0  0  0  0  0  0  0
  1  2  1  0  0  0  0
  1 19  1  0  0  0  0
  1 20  1  0  0  0  0
  1 21  1  0  0  0  0
  2 17  1  0  0  0  0
  2  3  2  0  0  0  0
  3  4  1  0  0  0  0
  3 15  1  0  0  0  0
  4  5  1  0  0  0  0
  4 22  1  0  0  0  0
  4 23  1  0  0  0  0
  5  6  1  0  0  0  0
  5 24  1  0  0  0  0
  5 25  1  0  0  0  0
  6  7  1  0  0  0  0
  6 26  1  0  0  0  0
  6 46  1  0  0  0  0
  7  8  1  0  0  0  0
  7 27  1  0  0  0  0
  7 28  1  0  0  0  0
  8 14  1  0  0  0  0
  8  9  1  0  0  0  0
  8 29  1  0  0  0  0
  9 10  1  0  0  0  0
  9 30  1  0  0  0  0
  9 31  1  0  0  0  0
 10 11  1  0  0  0  0
 10 32  1  0  0  0  0
 10 33  1  0  0  0  0
 11 12  1  0  0  0  0
 11 13  1  0  0  0  0
 11 34  1  0  0  0  0
 12 35  1  0  0  0  0
 12 36  1  0  0  0  0
 12 37  1  0  0  0  0
 13 14  1  0  0  0  0
 13 38  1  0  0  0  0
 13 39  1  0  0  0  0
 14 40  1  0  0  0  0
 14 41  1  0  0  0  0
 15 16  2  0  0  0  0
 15 42  1  0  0  0  0
 16 17  1  0  0  0  0
 17 18  1  0  0  0  0
 18 43  1  0  0  0  0
 18 44  1  0  0  0  0
 18 45  1  0  0  0  0
M  CHG  1   6   1
M  END
> <s_m_source_file>
AV-unprocessed.smi

> <i_m_source_file_index>
3304

> <i_lp_mmshare_version>
43012

> <i_f3d_flags>
0

> <s_epik_input>
W0NIM11uMW5bY0hdYyhjMVtDSDNdKVtDSDJdW0NIMl1bTkhdW0NIMl1bQ0BASF0yW0NIMl1bQ0gyXVtDQEBIXShbQ0gzXSlbQ0gyXVtDSDJdMg==

> <s_epik_cmdline>
J2VwaWtfcHl0aG9uJywgJy1waCcsICc3LjAnLCAnLXRuJywgJzgnLCAnLW1hJywgJzIwMCcsICctbWV0YWxfYmluZGluZycsICctaW1hZScsICc8aW5maWxlLm1hZT4nLCAnLW9tYWUnLCAnPG91dGZpbGUubWFlPic=

> <r_lp_tautomer_probability>
1

> <r_epik_Ionization_Penalty>
0.000505313

> <r_epik_Ionization_Penalty_Charging>
0.000421171

> <r_epik_Ionization_Penalty_Neutral>
8.41424e-05

> <r_epik_State_Penalty>
-0

> <r_epik_Charging_Adjusted_Penalty>
0.000421171

> <i_epik_Tot_Q>
1

> <i_epik_Tot_abs_Q>
1

> <r_epik_Metal_State_Penalty>
-0

> <b_epik_Metal_Only>
0

> <s_lp_Force_Field>
OPLS_2005

> <r_lp_Energy>
12.247

> <b_lp_Chiralities_Consistent>
1

> <s_lp_Variant>
AV-unprocessed.smi:3304-2

> <Gold.Version>
5.8.1

> <Gold.Id.Protein>
6NUR|6NUR_protein|mol2

> <Gold.PLP.Fitness>
45.4571

> <Gold.PLP.PLP>
-40.8746

> <Gold.PLP.part.hbond>
-1.0000

> <Gold.PLP.part.metal>
0.0000

> <Gold.PLP.part.buried>
-3.4808

> <Gold.PLP.part.nonpolar>
-37.4604

> <Gold.PLP.part.repulsive>
0.2269

> <Gold.PLP.ligand.clash>
0.0000

> <Gold.PLP.ligand.torsion>
0.7185

> <Gold.PLP.Chemscore.Hbond>
2.0000

> <Gold.PLP.Chemscore.CHOScore>
0.0000

> <Gold.PLP.Chemscore.Metal>
0.0000

> <Gold.Chemscore.Hbonds>
donor molecule, donor type, donor heavy atom, donor atom, acceptor molecule, acceptor atom, score
      L1  H     6    46       P1  8028  1.95

> <Gold.PLP.Chemscore.Internal.Correction>
0.0194

> <Gold.Rescore>
     Score         DG    S(hbond)    S(metal)    S(lipo)     H(rot)  DE(clash)    DE(int)     intcor
     19.37     -20.16       0.99        0.00     128.58       1.43       0.10       0.69       ----

> <Gold.Chemscore.Fitness>
19.3701

> <Gold.Chemscore.DG>
-20.1584

> <Gold.Chemscore.ZeroCoef>
-5.4800

> <Gold.Chemscore.Hbond>
0.9890

> <Gold.Chemscore.Metal>
0.0000

> <Gold.Chemscore.Lipo>
128.5799

> <Gold.Chemscore.Internal_Hbond>
0.0000

> <Gold.Chemscore.DEClash>
0.0998

> <Gold.Chemscore.DEInternal>
0.6885

> <Gold.Chemscore.Rot>
1.4331

> <Gold.Chemscore.Internal.Correction>
   9.000000E+99

> <Gold.Chemscore.Hbonds>
donor molecule, donor type, donor heavy atom, donor atom, acceptor molecule, acceptor atom, score
      L1  H     6    46       P1  8028  0.93

> <Gold.Chemscore.Hbond.Weighted>
-3.3033

> <Gold.Chemscore.Metal.Weighted>
-0.0000

> <Gold.Chemscore.Lipo.Weighted>
-15.0438

> <Gold.Chemscore.Internal_Hbond.Weighted>
0.0000

> <Gold.Chemscore.DEClash.Weighted>
0.0998

> <Gold.Chemscore.DEInternal.Weighted>
0.6885

> <Gold.Chemscore.Rot.Weighted>
3.6688

> <Gold.Chemscore.Internal.Correction.Weighted>
   9.000000E+99

> <Gold.Protein.RotatedTorsions>
[ 6907 6896 6895 6894 ] final   90.63 input  -60.11 | X-H torsion
[ 7974 7965 7964 7962 ] final   24.16 input  175.53 | X-H torsion
[ 8008 7997 7996 7995 ] final  -17.15 input   59.86 | X-H torsion
[ 10167 10162 10161 10158 ] final -147.78 input  -65.29 | X-H torsion
[ 10718 10713 10712 10709 ] final -132.75 input   66.30 | X-H torsion
[ 10763 10752 10751 10750 ] final  -22.69 input  -60.55 | X-H torsion
[ 11005 11000 10999 10996 ] final -146.70 input  -57.11 | X-H torsion

> <Gold.Protein.ActiveResidues>
 VAL166  LYS551  ARG553  GLY616  TRP617  ASP618  TYR619  PRO620  LYS621  CYS622 
 ASP623  PHE694  ASN695  SER759  ASP760  ASP761  ALA762  ILE779  LEU786  VAL792 
 PHE793  MET794  SER795  GLU796  ALA797  LYS798  CYS799  TRP800  GLU811  SER814 

> <Gold.Protein.RotatedAtoms>
  152.5446  134.1782  159.8624 H   0  0  0  0  0  0  0  0  0  0  0  0  # atno 6907 bound_to 6896
  151.1786  133.4732  159.2601 H   0  0  0  0  0  0  0  0  0  0  0  0  # atno 6908 bound_to 6896
  151.1201  135.0086  159.8590 H   0  0  0  0  0  0  0  0  0  0  0  0  # atno 6909 bound_to 6896
  146.1951  139.7643  142.8803 H   0  0  0  0  0  0  0  0  0  0  0  0  # atno 7974 bound_to 7965
  154.4999  140.2150  155.9368 H   0  0  0  0  0  0  0  0  0  0  0  0  # atno 8008 bound_to 7997
  156.1420  140.3178  155.8478 H   0  0  0  0  0  0  0  0  0  0  0  0  # atno 8009 bound_to 7997
  155.4102  140.0490  157.3023 H   0  0  0  0  0  0  0  0  0  0  0  0  # atno 8010 bound_to 7997
  139.7591  143.8403  152.2603 H   0  0  0  0  0  0  0  0  0  0  0  0  # atno 10167 bound_to 10162
  156.2378  130.7077  151.0925 H   0  0  0  0  0  0  0  0  0  0  0  0  # atno 10718 bound_to 10713
  153.6559  135.6978  153.5193 H   0  0  0  0  0  0  0  0  0  0  0  0  # atno 10763 bound_to 10752
  153.2670  135.4227  155.0949 H   0  0  0  0  0  0  0  0  0  0  0  0  # atno 10764 bound_to 10752
  154.8464  135.3569  154.6103 H   0  0  0  0  0  0  0  0  0  0  0  0  # atno 10765 bound_to 10752
  140.7793  134.3098  157.5050 H   0  0  0  0  0  0  0  0  0  0  0  0  # atno 11005 bound_to 11000
  145.3671  141.0336  143.3252 LP  0  0  0  0  0  0  0  0  0  0  0  0  # atno 17320 bound_to 7965
  144.8563  139.5244  143.6833 LP  0  0  0  0  0  0  0  0  0  0  0  0  # atno 17321 bound_to 7965
  139.8404  144.7212  150.9338 LP  0  0  0  0  0  0  0  0  0  0  0  0  # atno 17342 bound_to 10162
  140.7805  143.3988  151.1183 LP  0  0  0  0  0  0  0  0  0  0  0  0  # atno 17343 bound_to 10162
  157.7162  131.0708  150.6318 LP  0  0  0  0  0  0  0  0  0  0  0  0  # atno 17370 bound_to 10713
  156.6389  130.4453  149.5759 LP  0  0  0  0  0  0  0  0  0  0  0  0  # atno 17371 bound_to 10713
  139.8745  134.9308  156.3513 LP  0  0  0  0  0  0  0  0  0  0  0  0  # atno 17394 bound_to 11000
  140.9498  133.7458  156.0257 LP  0  0  0  0  0  0  0  0  0  0  0  0  # atno 17395 bound_to 11000

$$$$
