AV-unprocessed.smi:157|AV-procd|sdf|1294|dock2
  -GOLD-   2262018573D 1   1.00000     0.00000
 Structure written by MMmdl.
 35 37  0  0  0  0  0  0  0  0  1 V2000
  152.8392  137.4018  153.3992 O   0  0  0  0  0  0  0  0  0  0  0  0
  152.5006  138.3870  154.3534 C   0  0  0  0  0  0  0  0  0  0  0  0
  151.3306  137.9123  155.2404 C   0  0  2  0  0  0  0  0  0  0  0  0
  150.9969  138.9939  156.1130 O   0  0  0  0  0  0  0  0  0  0  0  0
  151.3092  138.6752  157.4373 C   0  0  2  0  0  0  0  0  0  0  0  0
  152.0490  139.8214  158.0525 N   0  0  0  0  0  0  0  0  0  0  0  0
  153.0964  139.7414  158.8843 C   0  0  0  0  0  0  0  0  0  0  0  0
  153.5666  140.9095  159.2882 N   0  0  0  0  0  0  0  0  0  0  0  0
  152.7359  141.8400  158.6662 C   0  0  0  0  0  0  0  0  0  0  0  0
  151.7804  141.1847  157.9025 C   0  0  0  0  0  0  0  0  0  0  0  0
  150.7244  141.5579  157.0930 N   0  0  0  0  0  0  0  0  0  0  0  0
  150.2523  142.7574  157.2246 C   0  0  0  0  0  0  0  0  0  0  0  0
  150.6975  143.8142  158.0059 N   0  0  0  0  0  0  0  0  0  0  0  0
  152.0853  144.2420  158.0514 C   0  0  0  0  0  0  0  0  0  0  0  0
  152.9883  143.3070  158.8653 C   0  0  1  0  0  0  0  0  0  0  0  0
  152.8143  143.5742  160.2418 O   0  0  0  0  0  0  0  0  0  0  0  0
  152.1932  137.4337  157.4025 C   0  0  0  0  0  0  0  0  0  0  0  0
  151.6342  136.7342  156.1846 C   0  0  2  0  0  0  0  0  0  0  0  0
  152.5407  135.7788  155.6724 O   0  0  0  0  0  0  0  0  0  0  0  0
  150.4651  137.6913  154.6143 H   0  0  0  0  0  0  0  0  0  0  0  0
  150.3944  138.5530  158.0184 H   0  0  0  0  0  0  0  0  0  0  0  0
  154.0271  143.5384  158.6280 H   0  0  0  0  0  0  0  0  0  0  0  0
  150.7026  136.2332  156.4512 H   0  0  0  0  0  0  0  0  0  0  0  0
  152.1475  137.3556  152.7569 H   0  0  0  0  0  0  0  0  0  0  0  0
  153.3752  138.6519  154.9479 H   0  0  0  0  0  0  0  0  0  0  0  0
  152.2073  139.2826  153.8048 H   0  0  0  0  0  0  0  0  0  0  0  0
  153.5286  138.8036  159.2008 H   0  0  0  0  0  0  0  0  0  0  0  0
  149.3700  143.0330  156.6454 H   0  0  0  0  0  0  0  0  0  0  0  0
  150.0707  144.5890  158.1686 H   0  0  0  0  0  0  0  0  0  0  0  0
  152.4480  144.2724  157.0228 H   0  0  0  0  0  0  0  0  0  0  0  0
  152.1473  145.2642  158.4255 H   0  0  0  0  0  0  0  0  0  0  0  0
  151.8888  143.6705  160.4084 H   0  0  0  0  0  0  0  0  0  0  0  0
  153.2344  137.7231  157.2498 H   0  0  0  0  0  0  0  0  0  0  0  0
  152.1092  136.8596  158.3257 H   0  0  0  0  0  0  0  0  0  0  0  0
  152.3410  134.9397  156.0588 H   0  0  0  0  0  0  0  0  0  0  0  0
  1  2  1  0  0  0  0
  1 24  1  0  0  0  0
  2  3  1  0  0  0  0
  2 25  1  0  0  0  0
  2 26  1  0  0  0  0
  3 20  1  0  0  0  0
  3 18  1  0  0  0  0
  3  4  1  0  0  0  0
  4  5  1  0  0  0  0
  5 21  1  0  0  0  0
  5  6  1  0  0  0  0
  5 17  1  0  0  0  0
  6 10  1  0  0  0  0
  6  7  1  0  0  0  0
  7  8  2  0  0  0  0
  7 27  1  0  0  0  0
  8  9  1  0  0  0  0
  9 15  1  0  0  0  0
  9 10  2  0  0  0  0
 10 11  1  0  0  0  0
 11 12  2  0  0  0  0
 12 13  1  0  0  0  0
 12 28  1  0  0  0  0
 13 14  1  0  0  0  0
 13 29  1  0  0  0  0
 14 15  1  0  0  0  0
 14 30  1  0  0  0  0
 14 31  1  0  0  0  0
 15 22  1  0  0  0  0
 15 16  1  0  0  0  0
 16 32  1  0  0  0  0
 17 18  1  0  0  0  0
 17 33  1  0  0  0  0
 17 34  1  0  0  0  0
 18 23  1  0  0  0  0
 18 19  1  0  0  0  0
 19 35  1  0  0  0  0
M  END
> <s_m_source_file>
AV-unprocessed.smi

> <i_m_source_file_index>
157

> <i_lp_mmshare_version>
43012

> <i_f3d_flags>
0

> <s_epik_input>
W09IXVtDSDJdW0NASF0xT1tDQEhdKFtDSDJdW0NAQEhdMVtPSF0pbihbY0hdbjIpYyhjMjMpTj1bQ0hdW05IXVtDSDJdW0NASF0zW09IXQ==

> <s_epik_cmdline>
J2VwaWtfcHl0aG9uJywgJy1waCcsICc3LjAnLCAnLXRuJywgJzgnLCAnLW1hJywgJzIwMCcsICctbWV0YWxfYmluZGluZycsICctaW1hZScsICc8aW5maWxlLm1hZT4nLCAnLW9tYWUnLCAnPG91dGZpbGUubWFlPic=

> <r_lp_tautomer_probability>
1

> <r_epik_Ionization_Penalty>
0.0357149

> <r_epik_Ionization_Penalty_Charging>
0.0355056

> <r_epik_Ionization_Penalty_Neutral>
0.000209255

> <r_epik_State_Penalty>
0.0296046

> <r_epik_Charging_Adjusted_Penalty>
0.0651102

> <i_epik_Tot_Q>
0

> <i_epik_Tot_abs_Q>
0

> <r_epik_Metal_State_Penalty>
3.03559e-05

> <b_epik_Metal_Only>
0

> <s_epik_Chemistry_Notes>
This compound has an imine and may undergo hydrolysis. This compound contains an acetal/aminal-like group ( X-CH(R)-Y where X, Y are N, S, or O) that may be acid/base labile, releasing an aldehyde.

> <s_lp_Force_Field>
OPLS_2005

> <r_lp_Energy>
46.7001

> <b_lp_Chiralities_Consistent>
1

> <s_lp_Variant>
AV-unprocessed.smi:157-4

> <Gold.Version>
5.8.1

> <Gold.Id.Protein>
6NUR|6NUR_protein|mol2

> <Gold.PLP.Fitness>
36.9820

> <Gold.PLP.PLP>
-28.4800

> <Gold.PLP.part.hbond>
-3.6903

> <Gold.PLP.part.metal>
0.0000

> <Gold.PLP.part.buried>
-3.4730

> <Gold.PLP.part.nonpolar>
-22.0709

> <Gold.PLP.part.repulsive>
0.0926

> <Gold.PLP.ligand.clash>
0.0000

> <Gold.PLP.ligand.torsion>
0.6053

> <Gold.PLP.Chemscore.Hbond>
2.2363

> <Gold.PLP.Chemscore.CHOScore>
0.9969

> <Gold.PLP.Chemscore.Metal>
0.0000

> <Gold.Chemscore.Hbonds>
donor molecule, donor type, donor heavy atom, donor atom, acceptor molecule, acceptor atom, score
      L1  H     1    24       P1  7949  0.70
      P1  H 10752 10763       L1     1  0.75
      L1  C    12    28       P1  8028  0.95

> <Gold.PLP.Chemscore.Internal.Correction>
0.0131

> <Gold.Rescore>
     Score         DG    S(hbond)    S(metal)    S(lipo)     H(rot)  DE(clash)    DE(int)     intcor
      7.55      -9.22       1.92        0.00      56.62       3.64       0.05       1.61       ----

> <Gold.Chemscore.Fitness>
7.5534

> <Gold.Chemscore.DG>
-9.2179

> <Gold.Chemscore.ZeroCoef>
-5.4800

> <Gold.Chemscore.Hbond>
1.9228

> <Gold.Chemscore.Metal>
0.0000

> <Gold.Chemscore.Lipo>
56.6200

> <Gold.Chemscore.Internal_Hbond>
0.0000

> <Gold.Chemscore.DEClash>
0.0524

> <Gold.Chemscore.DEInternal>
1.6121

> <Gold.Chemscore.Rot>
3.6362

> <Gold.Chemscore.Internal.Correction>
   9.000000E+99

> <Gold.Chemscore.Hbonds>
donor molecule, donor type, donor heavy atom, donor atom, acceptor molecule, acceptor atom, score
      L1  H     1    24       P1  7949  0.67
      P1  H 10752 10763       L1     1  0.42

> <Gold.Chemscore.Hbond.Weighted>
-6.4221

> <Gold.Chemscore.Metal.Weighted>
-0.0000

> <Gold.Chemscore.Lipo.Weighted>
-6.6245

> <Gold.Chemscore.Internal_Hbond.Weighted>
0.0000

> <Gold.Chemscore.DEClash.Weighted>
0.0524

> <Gold.Chemscore.DEInternal.Weighted>
1.6121

> <Gold.Chemscore.Rot.Weighted>
9.3087

> <Gold.Chemscore.Internal.Correction.Weighted>
   9.000000E+99

> <Gold.Protein.RotatedTorsions>
[ 6907 6896 6895 6894 ] final  -18.83 input  -60.11 | X-H torsion
[ 7974 7965 7964 7962 ] final   24.73 input  175.53 | X-H torsion
[ 8008 7997 7996 7995 ] final   23.89 input   59.86 | X-H torsion
[ 10167 10162 10161 10158 ] final  -23.83 input  -65.29 | X-H torsion
[ 10718 10713 10712 10709 ] final  -22.82 input   66.30 | X-H torsion
[ 10763 10752 10751 10750 ] final   -6.31 input  -60.55 | X-H torsion
[ 11005 11000 10999 10996 ] final   28.50 input  -57.11 | X-H torsion

> <Gold.Protein.ActiveResidues>
 VAL166  LYS551  ARG553  GLY616  TRP617  ASP618  TYR619  PRO620  LYS621  CYS622 
 ASP623  PHE694  ASN695  SER759  ASP760  ASP761  ALA762  ILE779  LEU786  VAL792 
 PHE793  MET794  SER795  GLU796  ALA797  LYS798  CYS799  TRP800  GLU811  SER814 

> <Gold.Protein.RotatedAtoms>
  151.2723  135.0688  159.9138 H   0  0  0  0  0  0  0  0  0  0  0  0  # atno 6907 bound_to 6896
  152.5348  134.0117  159.7952 H   0  0  0  0  0  0  0  0  0  0  0  0  # atno 6908 bound_to 6896
  151.0357  133.5700  159.2687 H   0  0  0  0  0  0  0  0  0  0  0  0  # atno 6909 bound_to 6896
  146.1923  139.7564  142.8823 H   0  0  0  0  0  0  0  0  0  0  0  0  # atno 7974 bound_to 7965
  154.9879  140.3110  155.4918 H   0  0  0  0  0  0  0  0  0  0  0  0  # atno 8008 bound_to 7997
  156.2944  140.2254  156.4922 H   0  0  0  0  0  0  0  0  0  0  0  0  # atno 8009 bound_to 7997
  154.7730  140.0451  157.1054 H   0  0  0  0  0  0  0  0  0  0  0  0  # atno 8010 bound_to 7997
  140.7288  143.4408  151.0660 H   0  0  0  0  0  0  0  0  0  0  0  0  # atno 10167 bound_to 10162
  156.4993  130.4584  149.6710 H   0  0  0  0  0  0  0  0  0  0  0  0  # atno 10718 bound_to 10713
  153.4106  135.7007  153.6362 H   0  0  0  0  0  0  0  0  0  0  0  0  # atno 10763 bound_to 10752
  153.4858  135.3683  155.2466 H   0  0  0  0  0  0  0  0  0  0  0  0  # atno 10764 bound_to 10752
  154.8716  135.4077  154.3457 H   0  0  0  0  0  0  0  0  0  0  0  0  # atno 10765 bound_to 10752
  140.3149  134.2608  155.7727 H   0  0  0  0  0  0  0  0  0  0  0  0  # atno 11005 bound_to 11000
  145.3753  141.0349  143.3208 LP  0  0  0  0  0  0  0  0  0  0  0  0  # atno 17320 bound_to 7965
  144.8511  139.5320  143.6856 LP  0  0  0  0  0  0  0  0  0  0  0  0  # atno 17321 bound_to 7965
  139.8075  143.7998  152.3168 LP  0  0  0  0  0  0  0  0  0  0  0  0  # atno 17342 bound_to 10162
  139.8036  144.7364  150.9792 LP  0  0  0  0  0  0  0  0  0  0  0  0  # atno 17343 bound_to 10162
  156.3348  130.7351  151.2286 LP  0  0  0  0  0  0  0  0  0  0  0  0  # atno 17370 bound_to 10713
  157.7465  131.0420  150.4672 LP  0  0  0  0  0  0  0  0  0  0  0  0  # atno 17371 bound_to 10713
  141.2100  133.7733  156.9961 LP  0  0  0  0  0  0  0  0  0  0  0  0  # atno 17394 bound_to 11000
  140.0992  134.9545  157.1897 LP  0  0  0  0  0  0  0  0  0  0  0  0  # atno 17395 bound_to 11000

$$$$
