AV-unprocessed.smi:66|AV-procd|sdf|624|dock2
  -GOLD-   2262016513D 1   1.00000     0.00000
 Structure written by MMmdl.
 28 30  0  0  0  0  0  0  0  0  2 V2000
  149.8915  137.7307  156.8848 O   0  0  0  0  0  0  0  0  0  0  0  0
  150.6690  138.5255  157.4569 C   0  0  0  0  0  0  0  0  0  0  0  0
  150.9418  138.5168  158.6780 O   0  5  0  0  0  0  0  0  0  0  0  0
  151.3324  139.5952  156.5734 C   0  0  1  0  0  0  0  0  0  0  0  0
  150.8811  139.4832  155.1061 C   0  0  0  0  0  0  0  0  0  0  0  0
  149.7436  140.4986  154.9990 C   0  0  2  0  0  0  0  0  0  0  0  0
  149.5400  140.9485  153.6759 O   0  0  0  0  0  0  0  0  0  0  0  0
  150.2026  141.6192  155.9327 C   0  0  0  0  0  0  0  0  0  0  0  0
  150.9553  140.9478  156.9862 N   0  0  0  0  0  0  0  0  0  0  0  0
  151.6733  141.6959  157.9459 C   0  0  0  0  0  0  0  0  0  0  0  0
  152.6115  141.0562  158.6858 N   0  0  0  0  0  0  0  0  0  0  0  0
  153.2930  141.7571  159.6008 C   0  0  0  0  0  0  0  0  0  0  0  0
  153.1925  143.0561  159.9187 N   0  0  0  0  0  0  0  0  0  0  0  0
  152.2755  143.7106  159.1945 C   0  0  0  0  0  0  0  0  0  0  0  0
  151.9661  145.0595  159.3052 N   0  0  0  0  0  0  0  0  0  0  0  0
  151.0211  145.2013  158.3782 C   0  0  0  0  0  0  0  0  0  0  0  0
  150.6889  144.0963  157.6923 N   0  0  0  0  0  0  0  0  0  0  0  0
  151.4841  143.0755  158.1892 C   0  0  0  0  0  0  0  0  0  0  0  0
  150.0056  144.0487  156.9479 H   0  0  0  0  0  0  0  0  0  0  0  0
  152.4150  139.4725  156.6173 H   0  0  0  0  0  0  0  0  0  0  0  0
  151.7069  139.7755  154.4556 H   0  0  0  0  0  0  0  0  0  0  0  0
  150.5752  138.4776  154.8131 H   0  0  0  0  0  0  0  0  0  0  0  0
  148.8199  140.0578  155.3761 H   0  0  0  0  0  0  0  0  0  0  0  0
  149.3635  140.1978  153.1302 H   0  0  0  0  0  0  0  0  0  0  0  0
  150.8608  142.3150  155.4093 H   0  0  0  0  0  0  0  0  0  0  0  0
  149.3563  142.1789  156.3326 H   0  0  0  0  0  0  0  0  0  0  0  0
  154.0255  141.1969  160.1627 H   0  0  0  0  0  0  0  0  0  0  0  0
  150.5502  146.1540  158.1847 H   0  0  0  0  0  0  0  0  0  0  0  0
  1  2  2  0  0  0  0
  2  3  1  0  0  0  0
  2  4  1  0  0  0  0
  4  9  1  0  0  0  0
  4  5  1  0  0  0  0
  4 20  1  0  0  0  0
  5  6  1  0  0  0  0
  5 21  1  0  0  0  0
  5 22  1  0  0  0  0
  6  7  1  0  0  0  0
  6  8  1  0  0  0  0
  6 23  1  0  0  0  0
  7 24  1  0  0  0  0
  8  9  1  0  0  0  0
  8 25  1  0  0  0  0
  8 26  1  0  0  0  0
  9 10  1  0  0  0  0
 10 18  1  0  0  0  0
 10 11  2  0  0  0  0
 11 12  1  0  0  0  0
 12 13  2  0  0  0  0
 12 27  1  0  0  0  0
 13 14  1  0  0  0  0
 14 18  2  0  0  0  0
 14 15  1  0  0  0  0
 15 16  2  0  0  0  0
 16 17  1  0  0  0  0
 16 28  1  0  0  0  0
 17 19  1  0  0  0  0
 17 18  1  0  0  0  0
M  CHG  1   3  -1
M  END
> <s_m_source_file>
AV-unprocessed.smi

> <i_m_source_file_index>
66

> <i_lp_mmshare_version>
43012

> <i_f3d_flags>
0

> <s_epik_input>
Tz1DKFtPSF0pW0NAQEhdMVtDSDJdW0NAQEhdKFtPSF0pW0NIMl1OMWMobltjSF1uMiljKGMyMylbbkhdW2NIXW4z

> <s_epik_cmdline>
J2VwaWtfcHl0aG9uJywgJy1waCcsICc3LjAnLCAnLXRuJywgJzgnLCAnLW1hJywgJzIwMCcsICctbWV0YWxfYmluZGluZycsICctaW1hZScsICc8aW5maWxlLm1hZT4nLCAnLW9tYWUnLCAnPG91dGZpbGUubWFlPic=

> <r_lp_tautomer_probability>
0.0419193

> <r_epik_Ionization_Penalty>
0.0157405

> <r_epik_Ionization_Penalty_Charging>
0.000248217

> <r_epik_Ionization_Penalty_Neutral>
0.0154923

> <r_epik_State_Penalty>
1.99742

> <r_epik_Charging_Adjusted_Penalty>
1.99767

> <i_epik_Tot_Q>
-1

> <i_epik_Tot_abs_Q>
1

> <r_epik_Metal_State_Penalty>
2.31035

> <b_epik_Metal_Only>
0

> <s_lp_Force_Field>
OPLS_2005

> <r_lp_Energy>
19.7313

> <b_lp_Chiralities_Consistent>
1

> <s_lp_Variant>
AV-unprocessed.smi:66-8

> <Gold.Version>
5.8.1

> <Gold.Id.Protein>
6NUR|6NUR_protein|mol2

> <Gold.PLP.Fitness>
43.0024

> <Gold.PLP.PLP>
-32.9725

> <Gold.PLP.part.hbond>
-4.0559

> <Gold.PLP.part.metal>
0.0000

> <Gold.PLP.part.buried>
-4.0775

> <Gold.PLP.part.nonpolar>
-24.9278

> <Gold.PLP.part.repulsive>
0.1072

> <Gold.PLP.ligand.clash>
0.0000

> <Gold.PLP.ligand.torsion>
0.0936

> <Gold.PLP.Chemscore.Hbond>
2.6569

> <Gold.PLP.Chemscore.CHOScore>
0.6880

> <Gold.PLP.Chemscore.Metal>
0.0000

> <Gold.Chemscore.Hbonds>
donor molecule, donor type, donor heavy atom, donor atom, acceptor molecule, acceptor atom, score
      L1  H     7    24       P1  7957  0.54
      L1  H    17    19       P1  8028  1.00
      P1  H  7989  7998       L1     7  0.09
      P1  H  8011  8017       L1     7  1.00
      L1  C    16    28       P1  8029  0.26

> <Gold.PLP.Chemscore.Internal.Correction>
0.1824

> <Gold.Rescore>
     Score         DG    S(hbond)    S(metal)    S(lipo)     H(rot)  DE(clash)    DE(int)     intcor
     11.81     -12.24       2.06        0.00      38.14       1.78       0.22       0.20       ----

> <Gold.Chemscore.Fitness>
11.8131

> <Gold.Chemscore.DG>
-12.2413

> <Gold.Chemscore.ZeroCoef>
-5.4800

> <Gold.Chemscore.Hbond>
2.0558

> <Gold.Chemscore.Metal>
0.0000

> <Gold.Chemscore.Lipo>
38.1411

> <Gold.Chemscore.Internal_Hbond>
0.0000

> <Gold.Chemscore.DEClash>
0.2245

> <Gold.Chemscore.DEInternal>
0.2037

> <Gold.Chemscore.Rot>
1.7842

> <Gold.Chemscore.Internal.Correction>
   9.000000E+99

> <Gold.Chemscore.Hbonds>
donor molecule, donor type, donor heavy atom, donor atom, acceptor molecule, acceptor atom, score
      L1  H     7    24       P1  7957  0.52
      L1  H    17    19       P1  8028  0.92
      P1  H  8011  8017       L1     7  0.36

> <Gold.Chemscore.Hbond.Weighted>
-6.8664

> <Gold.Chemscore.Metal.Weighted>
-0.0000

> <Gold.Chemscore.Lipo.Weighted>
-4.4625

> <Gold.Chemscore.Internal_Hbond.Weighted>
0.0000

> <Gold.Chemscore.DEClash.Weighted>
0.2245

> <Gold.Chemscore.DEInternal.Weighted>
0.2037

> <Gold.Chemscore.Rot.Weighted>
4.5676

> <Gold.Chemscore.Internal.Correction.Weighted>
   9.000000E+99

> <Gold.Protein.RotatedTorsions>
[ 6907 6896 6895 6894 ] final  166.21 input  -60.11 | X-H torsion
[ 7974 7965 7964 7962 ] final  -20.55 input  175.53 | X-H torsion
[ 8008 7997 7996 7995 ] final -175.61 input   59.86 | X-H torsion
[ 10167 10162 10161 10158 ] final   90.54 input  -65.29 | X-H torsion
[ 10718 10713 10712 10709 ] final  -40.47 input   66.30 | X-H torsion
[ 10763 10752 10751 10750 ] final   71.10 input  -60.55 | X-H torsion
[ 11005 11000 10999 10996 ] final   21.16 input  -57.11 | X-H torsion

> <Gold.Protein.ActiveResidues>
 VAL166  LYS551  ARG553  GLY616  TRP617  ASP618  TYR619  PRO620  LYS621  CYS622 
 ASP623  PHE694  ASN695  SER759  ASP760  ASP761  ALA762  ILE779  LEU786  VAL792 
 PHE793  MET794  SER795  GLU796  ALA797  LYS798  CYS799  TRP800  GLU811  SER814 

> <Gold.Protein.RotatedAtoms>
  151.8824  133.3498  159.3770 H   0  0  0  0  0  0  0  0  0  0  0  0  # atno 6907 bound_to 6896
  150.7124  134.5006  159.5568 H   0  0  0  0  0  0  0  0  0  0  0  0  # atno 6908 bound_to 6896
  152.2560  134.8084  160.0489 H   0  0  0  0  0  0  0  0  0  0  0  0  # atno 6909 bound_to 6896
  146.1782  140.4218  142.8505 H   0  0  0  0  0  0  0  0  0  0  0  0  # atno 7974 bound_to 7965
  155.9847  140.1189  157.0694 H   0  0  0  0  0  0  0  0  0  0  0  0  # atno 8008 bound_to 7997
  154.4193  140.1137  156.5551 H   0  0  0  0  0  0  0  0  0  0  0  0  # atno 8009 bound_to 7997
  155.6424  140.3473  155.4721 H   0  0  0  0  0  0  0  0  0  0  0  0  # atno 8010 bound_to 7997
  139.8463  144.6616  150.9222 H   0  0  0  0  0  0  0  0  0  0  0  0  # atno 10167 bound_to 10162
  156.2810  130.4217  149.8337 H   0  0  0  0  0  0  0  0  0  0  0  0  # atno 10718 bound_to 10713
  153.0379  135.5149  154.7542 H   0  0  0  0  0  0  0  0  0  0  0  0  # atno 10763 bound_to 10752
  154.6503  135.2924  154.9997 H   0  0  0  0  0  0  0  0  0  0  0  0  # atno 10764 bound_to 10752
  154.0883  135.6654  153.4901 H   0  0  0  0  0  0  0  0  0  0  0  0  # atno 10765 bound_to 10752
  140.3947  134.1782  155.7663 H   0  0  0  0  0  0  0  0  0  0  0  0  # atno 11005 bound_to 11000
  144.8270  140.6645  143.6315 LP  0  0  0  0  0  0  0  0  0  0  0  0  # atno 17320 bound_to 7965
  145.4153  139.1573  143.4104 LP  0  0  0  0  0  0  0  0  0  0  0  0  # atno 17321 bound_to 7965
  140.7792  143.3867  151.1382 LP  0  0  0  0  0  0  0  0  0  0  0  0  # atno 17342 bound_to 10162
  139.7509  143.8781  152.3076 LP  0  0  0  0  0  0  0  0  0  0  0  0  # atno 17343 bound_to 10162
  156.5785  130.8455  151.3376 LP  0  0  0  0  0  0  0  0  0  0  0  0  # atno 17370 bound_to 10713
  157.7314  130.9700  150.1879 LP  0  0  0  0  0  0  0  0  0  0  0  0  # atno 17371 bound_to 10713
  141.1878  133.8273  157.1017 LP  0  0  0  0  0  0  0  0  0  0  0  0  # atno 17394 bound_to 11000
  140.0381  134.9868  157.0909 LP  0  0  0  0  0  0  0  0  0  0  0  0  # atno 17395 bound_to 11000

$$$$
