AV-unprocessed.smi:88|AV-procd|sdf|824|dock7
  -GOLD-   2262017233D 1   1.00000     0.00000
 Structure written by MMmdl.
 56 60  0  0  0  0  0  0  0  0  1 V2000
  143.4985  132.6924  149.3229 C   0  0  0  0  0  0  0  0  0  0  0  0
  144.8685  132.7162  149.8405 N   0  0  0  0  0  0  0  0  0  0  0  0
  145.8482  131.8911  149.4367 C   0  0  0  0  0  0  0  0  0  0  0  0
  145.7557  130.9977  148.5968 O   0  0  0  0  0  0  0  0  0  0  0  0
  146.9605  132.2004  150.1010 N   0  0  0  0  0  0  0  0  0  0  0  0
  146.7939  133.2977  151.0252 C   0  0  0  0  0  0  0  0  0  0  0  0
  145.3063  133.6775  150.8614 C   0  0  0  0  0  0  0  0  0  0  0  0
  145.1372  135.1391  150.3757 C   0  0  0  0  0  0  0  0  0  0  0  0
  145.5297  136.1522  151.4661 C   0  0  0  0  0  0  0  0  0  0  0  0
  144.7914  135.8969  152.6998 N   0  0  0  0  0  0  0  0  0  0  0  0
  144.9518  136.8602  153.6308 C   0  0  0  0  0  0  0  0  0  0  0  0
  144.2550  136.7282  154.7855 N   0  0  0  0  0  0  0  0  0  0  0  0
  144.3740  137.6507  155.7454 C   0  0  0  0  0  0  0  0  0  0  0  0
  145.1207  138.7577  155.7530 N   0  0  0  0  0  0  0  0  0  0  0  0
  145.8220  138.8914  154.5901 C   0  0  0  0  0  0  0  0  0  0  0  0
  145.7971  137.9960  153.4844 C   0  0  0  0  0  0  0  0  0  0  0  0
  146.6384  138.4588  152.4796 N   0  0  0  0  0  0  0  0  0  0  0  0
  147.1317  139.5660  152.9638 C   0  0  0  0  0  0  0  0  0  0  0  0
  146.6916  139.9037  154.2239 N   0  0  0  0  0  0  0  0  0  0  0  0
  147.0751  141.0759  154.9956 C   0  0  0  0  0  0  0  0  0  0  0  0
  148.5986  141.1880  155.2490 C   0  0  0  0  0  0  0  0  0  0  0  0
  149.1259  142.0945  154.2951 O   0  0  0  0  0  0  0  0  0  0  0  0
  148.9304  141.7161  156.6621 C   0  0  0  0  0  0  0  0  0  0  0  0
  150.4346  141.6274  156.9761 C   0  0  0  0  0  0  0  0  0  0  0  0
  150.8978  140.2951  156.7920 O   0  0  0  0  0  0  0  0  0  0  0  0
  150.7654  139.8471  155.4485 C   0  0  0  0  0  0  0  0  0  0  0  0
  149.2797  139.8194  155.0484 C   0  0  0  0  0  0  0  0  0  0  0  0
  144.9282  134.5460  153.2365 C   0  0  0  0  0  0  0  0  0  0  0  0
  144.5215  133.4976  152.1854 C   0  0  0  0  0  0  0  0  0  0  0  0
  143.3437  131.8881  148.6028 H   0  0  0  0  0  0  0  0  0  0  0  0
  143.2592  133.6268  148.8164 H   0  0  0  0  0  0  0  0  0  0  0  0
  142.7783  132.5436  150.1263 H   0  0  0  0  0  0  0  0  0  0  0  0
  147.8420  131.7241  149.9764 H   0  0  0  0  0  0  0  0  0  0  0  0
  147.0429  132.9661  152.0336 H   0  0  0  0  0  0  0  0  0  0  0  0
  147.4737  134.1064  150.7555 H   0  0  0  0  0  0  0  0  0  0  0  0
  145.7254  135.3147  149.4741 H   0  0  0  0  0  0  0  0  0  0  0  0
  144.0980  135.3254  150.1037 H   0  0  0  0  0  0  0  0  0  0  0  0
  146.6014  136.0995  151.6590 H   0  0  0  0  0  0  0  0  0  0  0  0
  145.3208  137.1648  151.1181 H   0  0  0  0  0  0  0  0  0  0  0  0
  143.7864  137.4766  156.6347 H   0  0  0  0  0  0  0  0  0  0  0  0
  147.8317  140.1747  152.4098 H   0  0  0  0  0  0  0  0  0  0  0  0
  146.7190  141.9599  154.4652 H   0  0  0  0  0  0  0  0  0  0  0  0
  146.5331  141.0533  155.9422 H   0  0  0  0  0  0  0  0  0  0  0  0
  149.1670  142.9533  154.6877 H   0  0  0  0  0  0  0  0  0  0  0  0
  148.5924  142.7460  156.7837 H   0  0  0  0  0  0  0  0  0  0  0  0
  148.3872  141.1264  157.4015 H   0  0  0  0  0  0  0  0  0  0  0  0
  151.0085  142.3130  156.3507 H   0  0  0  0  0  0  0  0  0  0  0  0
  150.6152  141.9202  158.0105 H   0  0  0  0  0  0  0  0  0  0  0  0
  151.3428  140.4866  154.7793 H   0  0  0  0  0  0  0  0  0  0  0  0
  151.1900  138.8462  155.3703 H   0  0  0  0  0  0  0  0  0  0  0  0
  148.7738  139.0722  155.6612 H   0  0  0  0  0  0  0  0  0  0  0  0
  149.1758  139.4867  154.0147 H   0  0  0  0  0  0  0  0  0  0  0  0
  145.9569  134.3789  153.5564 H   0  0  0  0  0  0  0  0  0  0  0  0
  144.3009  134.4388  154.1225 H   0  0  0  0  0  0  0  0  0  0  0  0
  143.4517  133.6030  152.0051 H   0  0  0  0  0  0  0  0  0  0  0  0
  144.6663  132.4928  152.5841 H   0  0  0  0  0  0  0  0  0  0  0  0
  1  2  1  0  0  0  0
  1 30  1  0  0  0  0
  1 31  1  0  0  0  0
  1 32  1  0  0  0  0
  2  7  1  0  0  0  0
  2  3  1  0  0  0  0
  3  4  2  0  0  0  0
  3  5  1  0  0  0  0
  5  6  1  0  0  0  0
  5 33  1  0  0  0  0
  6  7  1  0  0  0  0
  6 34  1  0  0  0  0
  6 35  1  0  0  0  0
  7 29  1  0  0  0  0
  7  8  1  0  0  0  0
  8  9  1  0  0  0  0
  8 36  1  0  0  0  0
  8 37  1  0  0  0  0
  9 10  1  0  0  0  0
  9 38  1  0  0  0  0
  9 39  1  0  0  0  0
 10 11  1  0  0  0  0
 10 28  1  0  0  0  0
 11 16  1  0  0  0  0
 11 12  2  0  0  0  0
 12 13  1  0  0  0  0
 13 14  2  0  0  0  0
 13 40  1  0  0  0  0
 14 15  1  0  0  0  0
 15 19  1  0  0  0  0
 15 16  2  0  0  0  0
 16 17  1  0  0  0  0
 17 18  2  0  0  0  0
 18 19  1  0  0  0  0
 18 41  1  0  0  0  0
 19 20  1  0  0  0  0
 20 21  1  0  0  0  0
 20 42  1  0  0  0  0
 20 43  1  0  0  0  0
 21 27  1  0  0  0  0
 21 22  1  0  0  0  0
 21 23  1  0  0  0  0
 22 44  1  0  0  0  0
 23 24  1  0  0  0  0
 23 45  1  0  0  0  0
 23 46  1  0  0  0  0
 24 25  1  0  0  0  0
 24 47  1  0  0  0  0
 24 48  1  0  0  0  0
 25 26  1  0  0  0  0
 26 27  1  0  0  0  0
 26 49  1  0  0  0  0
 26 50  1  0  0  0  0
 27 51  1  0  0  0  0
 27 52  1  0  0  0  0
 28 29  1  0  0  0  0
 28 53  1  0  0  0  0
 28 54  1  0  0  0  0
 29 55  1  0  0  0  0
 29 56  1  0  0  0  0
M  END
> <s_m_source_file>
AV-unprocessed.smi

> <i_m_source_file_index>
88

> <i_lp_mmshare_version>
43012

> <i_f3d_flags>
0

> <s_epik_input>
W0NIMl0xW05IXUMoPU8pTihbQ0gzXSlDMTJbQ0gyXVtDSDJdTihbQ0gyXVtDSDJdMiljKG5bY0hdbjMpYyhjMzQpbltjSF1uNFtDSDJdQzUoW09IXSlbQ0gyXVtDSDJdT1tDSDJdW0NIMl01

> <s_epik_cmdline>
J2VwaWtfcHl0aG9uJywgJy1waCcsICc3LjAnLCAnLXRuJywgJzgnLCAnLW1hJywgJzIwMCcsICctbWV0YWxfYmluZGluZycsICctaW1hZScsICc8aW5maWxlLm1hZT4nLCAnLW9tYWUnLCAnPG91dGZpbGUubWFlPic=

> <r_lp_tautomer_probability>
1

> <r_epik_Ionization_Penalty>
0.00363326

> <r_epik_Ionization_Penalty_Charging>
0

> <r_epik_Ionization_Penalty_Neutral>
0.00363326

> <r_epik_State_Penalty>
0.00246926

> <r_epik_Charging_Adjusted_Penalty>
0.00246926

> <i_epik_Tot_Q>
0

> <i_epik_Tot_abs_Q>
0

> <r_epik_Metal_State_Penalty>
-0

> <b_epik_Metal_Only>
0

> <s_lp_Force_Field>
OPLS_2005

> <r_lp_Energy>
63.3868

> <b_lp_Chiralities_Consistent>
1

> <s_lp_Variant>
AV-unprocessed.smi:88-1

> <Gold.Version>
5.8.1

> <Gold.Id.Protein>
6NUR|6NUR_protein|mol2

> <Gold.PLP.Fitness>
45.0649

> <Gold.PLP.PLP>
-37.0564

> <Gold.PLP.part.hbond>
-4.6161

> <Gold.PLP.part.metal>
0.0000

> <Gold.PLP.part.buried>
2.4593

> <Gold.PLP.part.nonpolar>
-34.9311

> <Gold.PLP.part.repulsive>
0.8459

> <Gold.PLP.ligand.clash>
0.1183

> <Gold.PLP.ligand.torsion>
0.9482

> <Gold.PLP.Chemscore.Hbond>
2.2785

> <Gold.PLP.Chemscore.CHOScore>
1.0000

> <Gold.PLP.Chemscore.Metal>
0.0000

> <Gold.Chemscore.Hbonds>
donor molecule, donor type, donor heavy atom, donor atom, acceptor molecule, acceptor atom, score
      L1  H     5    33       P1 10747  0.78
      L1  H    22    44       P1  8028  1.00
      P1  H  8011  8017       L1    22  0.29
      L1  C    18    41       P1  7957  1.00

> <Gold.PLP.Chemscore.Internal.Correction>
0.1877

> <Gold.Rescore>
     Score         DG    S(hbond)    S(metal)    S(lipo)     H(rot)  DE(clash)    DE(int)     intcor
      9.85     -16.81       2.08        0.00      85.38       2.18       3.25       3.70       ----

> <Gold.Chemscore.Fitness>
9.8527

> <Gold.Chemscore.DG>
-16.8113

> <Gold.Chemscore.ZeroCoef>
-5.4800

> <Gold.Chemscore.Hbond>
2.0755

> <Gold.Chemscore.Metal>
0.0000

> <Gold.Chemscore.Lipo>
85.3800

> <Gold.Chemscore.Internal_Hbond>
0.0000

> <Gold.Chemscore.DEClash>
3.2538

> <Gold.Chemscore.DEInternal>
3.7048

> <Gold.Chemscore.Rot>
2.1838

> <Gold.Chemscore.Internal.Correction>
   9.000000E+99

> <Gold.Chemscore.Hbonds>
donor molecule, donor type, donor heavy atom, donor atom, acceptor molecule, acceptor atom, score
      L1  H     5    33       P1 10747  0.76
      L1  H    22    44       P1  8028  0.94
      P1  H  8011  8017       L1    22  0.11

> <Gold.Chemscore.Hbond.Weighted>
-6.9323

> <Gold.Chemscore.Metal.Weighted>
-0.0000

> <Gold.Chemscore.Lipo.Weighted>
-9.9895

> <Gold.Chemscore.Internal_Hbond.Weighted>
0.0000

> <Gold.Chemscore.DEClash.Weighted>
3.2538

> <Gold.Chemscore.DEInternal.Weighted>
3.7048

> <Gold.Chemscore.Rot.Weighted>
5.5905

> <Gold.Chemscore.Internal.Correction.Weighted>
   9.000000E+99

> <Gold.Protein.RotatedTorsions>
[ 6907 6896 6895 6894 ] final  -18.72 input  -60.11 | X-H torsion
[ 7974 7965 7964 7962 ] final  177.86 input  175.53 | X-H torsion
[ 8008 7997 7996 7995 ] final  143.91 input   59.86 | X-H torsion
[ 10167 10162 10161 10158 ] final  162.59 input  -65.29 | X-H torsion
[ 10718 10713 10712 10709 ] final   87.35 input   66.30 | X-H torsion
[ 10763 10752 10751 10750 ] final  -77.02 input  -60.55 | X-H torsion
[ 11005 11000 10999 10996 ] final  179.28 input  -57.11 | X-H torsion

> <Gold.Protein.ActiveResidues>
 VAL166  LYS551  ARG553  GLY616  TRP617  ASP618  TYR619  PRO620  LYS621  CYS622 
 ASP623  PHE694  ASN695  SER759  ASP760  ASP761  ALA762  ILE779  LEU786  VAL792 
 PHE793  MET794  SER795  GLU796  ALA797  LYS798  CYS799  TRP800  GLU811  SER814 

> <Gold.Protein.RotatedAtoms>
  151.2739  135.0693  159.9144 H   0  0  0  0  0  0  0  0  0  0  0  0  # atno 6907 bound_to 6896
  152.5346  134.0101  159.7945 H   0  0  0  0  0  0  0  0  0  0  0  0  # atno 6908 bound_to 6896
  151.0344  133.5711  159.2688 H   0  0  0  0  0  0  0  0  0  0  0  0  # atno 6909 bound_to 6896
  144.7163  140.0311  143.6439 H   0  0  0  0  0  0  0  0  0  0  0  0  # atno 7974 bound_to 7965
  156.2920  140.2250  156.4967 H   0  0  0  0  0  0  0  0  0  0  0  0  # atno 8008 bound_to 7997
  154.7724  140.0466  157.1083 H   0  0  0  0  0  0  0  0  0  0  0  0  # atno 8009 bound_to 7997
  154.9858  140.3084  155.4930 H   0  0  0  0  0  0  0  0  0  0  0  0  # atno 8010 bound_to 7997
  139.4862  144.4422  151.8937 H   0  0  0  0  0  0  0  0  0  0  0  0  # atno 10167 bound_to 10162
  157.6939  131.0252  150.3109 H   0  0  0  0  0  0  0  0  0  0  0  0  # atno 10718 bound_to 10713
  154.5075  135.5778  153.6578 H   0  0  0  0  0  0  0  0  0  0  0  0  # atno 10763 bound_to 10752
  152.9890  135.6150  154.2923 H   0  0  0  0  0  0  0  0  0  0  0  0  # atno 10764 bound_to 10752
  154.2835  135.2850  155.2666 H   0  0  0  0  0  0  0  0  0  0  0  0  # atno 10765 bound_to 10752
  140.4044  134.6748  157.4580 H   0  0  0  0  0  0  0  0  0  0  0  0  # atno 11005 bound_to 11000
  146.0102  139.3163  143.0875 LP  0  0  0  0  0  0  0  0  0  0  0  0  # atno 17320 bound_to 7965
  145.8691  140.9430  143.0660 LP  0  0  0  0  0  0  0  0  0  0  0  0  # atno 17321 bound_to 7965
  140.3875  144.2658  150.5902 LP  0  0  0  0  0  0  0  0  0  0  0  0  # atno 17342 bound_to 10162
  140.5177  143.2274  151.8438 LP  0  0  0  0  0  0  0  0  0  0  0  0  # atno 17343 bound_to 10162
  156.3611  130.3847  149.7251 LP  0  0  0  0  0  0  0  0  0  0  0  0  # atno 17370 bound_to 10713
  156.4697  130.7990  151.3009 LP  0  0  0  0  0  0  0  0  0  0  0  0  # atno 17371 bound_to 10713
  140.0312  134.6403  155.9104 LP  0  0  0  0  0  0  0  0  0  0  0  0  # atno 17394 bound_to 11000
  141.1844  133.6553  156.5157 LP  0  0  0  0  0  0  0  0  0  0  0  0  # atno 17395 bound_to 11000

$$$$
