AV-unprocessed.smi:52|AV-procd|sdf|510|dock3
  -GOLD-   2262016383D 1   1.00000     0.00000
 Structure written by MMmdl.
 27 28  0  0  0  0  0  0  0  0  3 V2000
  152.8824  139.4660  155.3574 O   0  0  0  0  0  0  0  0  0  0  0  0
  152.0255  138.9303  154.6206 C   0  0  0  0  0  0  0  0  0  0  0  0
  152.3417  138.1443  153.7007 O   0  5  0  0  0  0  0  0  0  0  0  0
  150.5899  139.2413  154.8417 C   0  0  0  0  0  0  0  0  0  0  0  0
  150.0343  139.8098  155.9600 C   0  0  0  0  0  0  0  0  0  0  0  0
  148.6850  139.9437  155.7739 O   0  0  0  0  0  0  0  0  0  0  0  0
  148.4683  139.4399  154.5287 C   0  0  0  0  0  0  0  0  0  0  0  0
  147.0831  139.4522  153.9723 C   0  0  0  0  0  0  0  0  0  0  0  0
  146.8843  138.0732  153.4669 N   0  3  1  0  0  0  0  0  0  0  0  0
  146.5166  137.0597  154.4898 C   0  0  0  0  0  0  0  0  0  0  0  0
  145.3587  136.2393  153.9072 C   0  0  0  0  0  0  0  0  0  0  0  0
  145.4167  136.5267  152.4100 C   0  0  1  0  0  0  0  0  0  0  0  0
  144.1594  136.3680  151.7881 O   0  0  0  0  0  0  0  0  0  0  0  0
  145.9033  137.9729  152.3679 C   0  0  0  0  0  0  0  0  0  0  0  0
  149.5719  139.0041  153.9270 N   0  0  0  0  0  0  0  0  0  0  0  0
  146.1486  135.8732  151.9329 H   0  0  0  0  0  0  0  0  0  0  0  0
  150.4359  140.1550  156.9015 H   0  0  0  0  0  0  0  0  0  0  0  0
  146.3527  139.7185  154.7375 H   0  0  0  0  0  0  0  0  0  0  0  0
  147.0268  140.1791  153.1613 H   0  0  0  0  0  0  0  0  0  0  0  0
  147.3854  136.4285  154.6794 H   0  0  0  0  0  0  0  0  0  0  0  0
  146.2249  137.5115  155.4392 H   0  0  0  0  0  0  0  0  0  0  0  0
  145.4337  135.1764  154.1382 H   0  0  0  0  0  0  0  0  0  0  0  0
  144.4178  136.6043  154.3225 H   0  0  0  0  0  0  0  0  0  0  0  0
  143.8857  137.2029  151.4391 H   0  0  0  0  0  0  0  0  0  0  0  0
  145.0718  138.6530  152.5638 H   0  0  0  0  0  0  0  0  0  0  0  0
  146.3421  138.2435  151.4069 H   0  0  0  0  0  0  0  0  0  0  0  0
  147.7679  137.7734  153.0798 H   0  0  0  0  0  0  0  0  0  0  0  0
  1  2  2  0  0  0  0
  2  3  1  0  0  0  0
  2  4  1  0  0  0  0
  4 15  1  0  0  0  0
  4  5  2  0  0  0  0
  5  6  1  0  0  0  0
  5 17  1  0  0  0  0
  6  7  1  0  0  0  0
  7  8  1  0  0  0  0
  7 15  2  0  0  0  0
  8  9  1  0  0  0  0
  8 18  1  0  0  0  0
  8 19  1  0  0  0  0
  9 14  1  0  0  0  0
  9 10  1  0  0  0  0
  9 27  1  0  0  0  0
 10 11  1  0  0  0  0
 10 20  1  0  0  0  0
 10 21  1  0  0  0  0
 11 12  1  0  0  0  0
 11 22  1  0  0  0  0
 11 23  1  0  0  0  0
 12 16  1  0  0  0  0
 12 13  1  0  0  0  0
 12 14  1  0  0  0  0
 13 24  1  0  0  0  0
 14 25  1  0  0  0  0
 14 26  1  0  0  0  0
M  CHG  1   3  -1
M  CHG  1   9   1
M  END
> <s_m_source_file>
AV-unprocessed.smi

> <i_m_source_file_index>
52

> <i_lp_mmshare_version>
43012

> <i_f3d_flags>
0

> <s_epik_input>
Tz1DKFtPSF0pYzFbY0hdb2MobjEpW0NIMl1OMltDSDJdW0NIMl1bQ0BIXShbT0hdKVtDSDJdMg==

> <s_epik_cmdline>
J2VwaWtfcHl0aG9uJywgJy1waCcsICc3LjAnLCAnLXRuJywgJzgnLCAnLW1hJywgJzIwMCcsICctbWV0YWxfYmluZGluZycsICctaW1hZScsICc8aW5maWxlLm1hZT4nLCAnLW9tYWUnLCAnPG91dGZpbGUubWFlPic=

> <r_epik_Ionization_Penalty>
0.0376014

> <r_epik_Ionization_Penalty_Charging>
0.0376013

> <r_epik_Ionization_Penalty_Neutral>
1.78687e-08

> <r_epik_State_Penalty>
0.0314164

> <r_epik_Charging_Adjusted_Penalty>
0.0690177

> <i_epik_Tot_Q>
0

> <i_epik_Tot_abs_Q>
2

> <r_epik_Metal_State_Penalty>
0.0314164

> <b_epik_Metal_Only>
0

> <s_lp_Force_Field>
OPLS_2005

> <r_lp_Energy>
19.8896

> <b_lp_Chiralities_Consistent>
1

> <s_lp_Variant>
AV-unprocessed.smi:52-4

> <Gold.Version>
5.8.1

> <Gold.Id.Protein>
6NUR|6NUR_protein|mol2

> <Gold.PLP.Fitness>
40.2102

> <Gold.PLP.PLP>
-21.6387

> <Gold.PLP.part.hbond>
-4.0000

> <Gold.PLP.part.metal>
0.0000

> <Gold.PLP.part.buried>
-2.8729

> <Gold.PLP.part.nonpolar>
-16.8927

> <Gold.PLP.part.repulsive>
1.8410

> <Gold.PLP.ligand.clash>
0.0000

> <Gold.PLP.ligand.torsion>
0.4766

> <Gold.PLP.Chemscore.Hbond>
6.5040

> <Gold.PLP.Chemscore.CHOScore>
0.0000

> <Gold.PLP.Chemscore.Metal>
0.0000

> <Gold.Chemscore.Hbonds>
donor molecule, donor type, donor heavy atom, donor atom, acceptor molecule, acceptor atom, score
      L1  H     9    27       P1  7948  0.71
      L1  H    13    24       P1 10171  0.73
      P1  H  7997  8008       L1     1  2.00

> <Gold.PLP.Chemscore.Internal.Correction>
0.0129

> <Gold.Rescore>
     Score         DG    S(hbond)    S(metal)    S(lipo)     H(rot)  DE(clash)    DE(int)     intcor
     16.08     -17.40       3.84        0.00      35.68       1.99       0.14       1.18       ----

> <Gold.Chemscore.Fitness>
16.0783

> <Gold.Chemscore.DG>
-17.3960

> <Gold.Chemscore.ZeroCoef>
-5.4800

> <Gold.Chemscore.Hbond>
3.8443

> <Gold.Chemscore.Metal>
0.0000

> <Gold.Chemscore.Lipo>
35.6849

> <Gold.Chemscore.Internal_Hbond>
0.0000

> <Gold.Chemscore.DEClash>
0.1400

> <Gold.Chemscore.DEInternal>
1.1776

> <Gold.Chemscore.Rot>
1.9919

> <Gold.Chemscore.Internal.Correction>
   9.000000E+99

> <Gold.Chemscore.Hbonds>
donor molecule, donor type, donor heavy atom, donor atom, acceptor molecule, acceptor atom, score
      L1  H     9    27       P1  7948  0.35
      L1  H    13    24       P1 10171  0.70
      P1  H  7997  8008       L1     1  0.98

> <Gold.Chemscore.Hbond.Weighted>
-12.8400

> <Gold.Chemscore.Metal.Weighted>
-0.0000

> <Gold.Chemscore.Lipo.Weighted>
-4.1751

> <Gold.Chemscore.Internal_Hbond.Weighted>
0.0000

> <Gold.Chemscore.DEClash.Weighted>
0.1400

> <Gold.Chemscore.DEInternal.Weighted>
1.1776

> <Gold.Chemscore.Rot.Weighted>
5.0991

> <Gold.Chemscore.Internal.Correction.Weighted>
   9.000000E+99

> <Gold.Protein.RotatedTorsions>
[ 6907 6896 6895 6894 ] final -154.28 input  -60.11 | X-H torsion
[ 7974 7965 7964 7962 ] final    4.93 input  175.53 | X-H torsion
[ 8008 7997 7996 7995 ] final  -42.79 input   59.86 | X-H torsion
[ 10167 10162 10161 10158 ] final -158.97 input  -65.29 | X-H torsion
[ 10718 10713 10712 10709 ] final  105.59 input   66.30 | X-H torsion
[ 10763 10752 10751 10750 ] final  -92.71 input  -60.55 | X-H torsion
[ 11005 11000 10999 10996 ] final   46.93 input  -57.11 | X-H torsion

> <Gold.Protein.ActiveResidues>
 VAL166  LYS551  ARG553  GLY616  TRP617  ASP618  TYR619  PRO620  LYS621  CYS622 
 ASP623  PHE694  ASN695  SER759  ASP760  ASP761  ALA762  ILE779  LEU786  VAL792 
 PHE793  MET794  SER795  GLU796  ALA797  LYS798  CYS799  TRP800  GLU811  SER814 

> <Gold.Protein.RotatedAtoms>
  151.2552  133.4330  159.2613 H   0  0  0  0  0  0  0  0  0  0  0  0  # atno 6907 bound_to 6896
  151.0581  134.9718  159.8256 H   0  0  0  0  0  0  0  0  0  0  0  0  # atno 6908 bound_to 6896
  152.5394  134.2503  159.8949 H   0  0  0  0  0  0  0  0  0  0  0  0  # atno 6909 bound_to 6896
  146.2442  140.0461  142.8378 H   0  0  0  0  0  0  0  0  0  0  0  0  # atno 7974 bound_to 7965
  154.3998  140.1464  156.3413 H   0  0  0  0  0  0  0  0  0  0  0  0  # atno 8008 bound_to 7997
  155.8354  140.3464  155.5577 H   0  0  0  0  0  0  0  0  0  0  0  0  # atno 8009 bound_to 7997
  155.8144  140.0888  157.1876 H   0  0  0  0  0  0  0  0  0  0  0  0  # atno 8010 bound_to 7997
  139.6651  143.9844  152.2249 H   0  0  0  0  0  0  0  0  0  0  0  0  # atno 10167 bound_to 10162
  157.6700  131.0831  150.5880 H   0  0  0  0  0  0  0  0  0  0  0  0  # atno 10718 bound_to 10713
  154.6888  135.5221  153.8363 H   0  0  0  0  0  0  0  0  0  0  0  0  # atno 10763 bound_to 10752
  153.0617  135.6570  154.0457 H   0  0  0  0  0  0  0  0  0  0  0  0  # atno 10764 bound_to 10752
  154.0334  135.2983  155.3345 H   0  0  0  0  0  0  0  0  0  0  0  0  # atno 10765 bound_to 10752
  140.1324  134.4688  155.8511 H   0  0  0  0  0  0  0  0  0  0  0  0  # atno 11005 bound_to 11000
  145.1026  140.9355  143.4703 LP  0  0  0  0  0  0  0  0  0  0  0  0  # atno 17320 bound_to 7965
  145.0657  139.3070  143.5858 LP  0  0  0  0  0  0  0  0  0  0  0  0  # atno 17321 bound_to 7965
  139.9593  144.6568  150.8095 LP  0  0  0  0  0  0  0  0  0  0  0  0  # atno 17342 bound_to 10162
  140.7596  143.3132  151.2795 LP  0  0  0  0  0  0  0  0  0  0  0  0  # atno 17343 bound_to 10162
  156.6180  130.4398  149.5833 LP  0  0  0  0  0  0  0  0  0  0  0  0  # atno 17370 bound_to 10713
  156.2378  130.6833  151.1526 LP  0  0  0  0  0  0  0  0  0  0  0  0  # atno 17371 bound_to 10713
  141.2172  133.6801  156.7094 LP  0  0  0  0  0  0  0  0  0  0  0  0  # atno 17394 bound_to 11000
  140.2825  134.8305  157.3946 LP  0  0  0  0  0  0  0  0  0  0  0  0  # atno 17395 bound_to 11000

$$$$
