AV-unprocessed.smi:275|AV-procd|sdf|2068|dock9
  -GOLD-   2262021323D 1   1.00000     0.00000
 Structure written by MMmdl.
 65 69  0  0  0  0  0  0  0  0  1 V2000
  153.0502  139.1101  159.1357 C   0  0  0  0  0  0  0  0  0  0  0  0
  153.1645  140.6445  159.1372 C   0  0  0  0  0  0  0  0  0  0  0  0
  153.3757  141.1318  160.5806 C   0  0  0  0  0  0  0  0  0  0  0  0
  151.9397  141.3188  158.4961 C   0  0  2  0  0  0  0  0  0  0  0  0
  152.1104  141.6057  157.0737 N   0  0  0  0  0  0  0  0  0  0  0  0
  151.6435  140.6120  156.1708 C   0  0  0  0  0  0  0  0  0  0  0  0
  152.4407  139.5866  155.7638 N   0  0  0  0  0  0  0  0  0  0  0  0
  151.9881  138.6656  154.9077 C   0  0  0  0  0  0  0  0  0  0  0  0
  150.7857  138.5773  154.3371 N   0  0  0  0  0  0  0  0  0  0  0  0
  149.9781  139.5993  154.7391 C   0  0  0  0  0  0  0  0  0  0  0  0
  150.3256  140.6427  155.6422 C   0  0  0  0  0  0  0  0  0  0  0  0
  149.2496  141.5052  155.8090 N   0  0  0  0  0  0  0  0  0  0  0  0
  148.3179  141.0017  155.0461 C   0  0  0  0  0  0  0  0  0  0  0  0
  148.6724  139.8608  154.3626 N   0  0  0  0  0  0  0  0  0  0  0  0
  147.8327  139.1030  153.4513 C   0  0  0  0  0  0  0  0  0  0  0  0
  146.5079  138.6198  154.0945 C   0  0  1  0  0  0  0  0  0  0  0  0
  145.6623  137.8059  153.0807 C   0  0  0  0  0  0  0  0  0  0  0  0
  145.3934  138.5409  151.9055 O   0  0  0  0  0  0  0  0  0  0  0  0
  146.7961  137.8189  155.3950 C   0  0  1  0  0  0  0  0  0  0  0  0
  145.5708  137.2140  156.0615 C   0  0  0  0  0  0  0  0  0  0  0  0
  146.1820  136.1649  156.9827 C   0  0  0  0  0  0  0  0  0  0  0  0
  147.3460  135.6993  156.3121 O   0  0  0  0  0  0  0  0  0  0  0  0
  147.6537  136.5591  155.2194 C   0  0  0  0  0  0  0  0  0  0  0  0
  151.2393  142.7655  157.1801 C   0  0  0  0  0  0  0  0  0  0  0  0
  151.6413  142.8292  158.6626 C   0  0  0  0  0  0  0  0  0  0  0  0
  150.5146  143.1758  159.6488 C   0  0  0  0  0  0  0  0  0  0  0  0
  150.0823  144.6491  159.5630 C   0  0  0  0  0  0  0  0  0  0  0  0
  151.2676  145.5922  159.8083 C   0  0  0  0  0  0  0  0  0  0  0  0
  152.4439  145.2591  158.8815 C   0  0  0  0  0  0  0  0  0  0  0  0
  152.8249  143.7719  158.9791 C   0  0  0  0  0  0  0  0  0  0  0  0
  152.1404  138.7793  159.6378 H   0  0  0  0  0  0  0  0  0  0  0  0
  153.8975  138.6523  159.6468 H   0  0  0  0  0  0  0  0  0  0  0  0
  153.0374  138.7099  158.1226 H   0  0  0  0  0  0  0  0  0  0  0  0
  154.0592  140.9063  158.5711 H   0  0  0  0  0  0  0  0  0  0  0  0
  152.5210  140.8791  161.2089 H   0  0  0  0  0  0  0  0  0  0  0  0
  153.5118  142.2105  160.6343 H   0  0  0  0  0  0  0  0  0  0  0  0
  154.2598  140.6735  161.0247 H   0  0  0  0  0  0  0  0  0  0  0  0
  151.0264  140.7490  158.6783 H   0  0  0  0  0  0  0  0  0  0  0  0
  152.6910  137.8902  154.6413 H   0  0  0  0  0  0  0  0  0  0  0  0
  147.3407  141.4535  154.9563 H   0  0  0  0  0  0  0  0  0  0  0  0
  147.6241  139.7146  152.5728 H   0  0  0  0  0  0  0  0  0  0  0  0
  148.4275  138.2586  153.1041 H   0  0  0  0  0  0  0  0  0  0  0  0
  145.9407  139.5125  154.3636 H   0  0  0  0  0  0  0  0  0  0  0  0
  146.1810  136.9046  152.7572 H   0  0  0  0  0  0  0  0  0  0  0  0
  144.7242  137.4811  153.5318 H   0  0  0  0  0  0  0  0  0  0  0  0
  144.6719  139.1269  152.0762 H   0  0  0  0  0  0  0  0  0  0  0  0
  147.2877  138.4728  156.1175 H   0  0  0  0  0  0  0  0  0  0  0  0
  144.9729  137.9411  156.6116 H   0  0  0  0  0  0  0  0  0  0  0  0
  144.9304  136.7339  155.3199 H   0  0  0  0  0  0  0  0  0  0  0  0
  146.4835  136.6184  157.9278 H   0  0  0  0  0  0  0  0  0  0  0  0
  145.4929  135.3490  157.2024 H   0  0  0  0  0  0  0  0  0  0  0  0
  147.3934  136.0386  154.2970 H   0  0  0  0  0  0  0  0  0  0  0  0
  148.7209  136.7813  155.1934 H   0  0  0  0  0  0  0  0  0  0  0  0
  151.5682  143.6119  156.5772 H   0  0  0  0  0  0  0  0  0  0  0  0
  150.1814  142.5438  157.0283 H   0  0  0  0  0  0  0  0  0  0  0  0
  149.6454  142.5431  159.4661 H   0  0  0  0  0  0  0  0  0  0  0  0
  150.8297  142.9527  160.6689 H   0  0  0  0  0  0  0  0  0  0  0  0
  149.6548  144.8469  158.5793 H   0  0  0  0  0  0  0  0  0  0  0  0
  149.2933  144.8487  160.2884 H   0  0  0  0  0  0  0  0  0  0  0  0
  150.9591  146.6283  159.6656 H   0  0  0  0  0  0  0  0  0  0  0  0
  151.5900  145.5056  160.8467 H   0  0  0  0  0  0  0  0  0  0  0  0
  152.1801  145.5062  157.8527 H   0  0  0  0  0  0  0  0  0  0  0  0
  153.3031  145.8803  159.1351 H   0  0  0  0  0  0  0  0  0  0  0  0
  153.2098  143.5812  159.9801 H   0  0  0  0  0  0  0  0  0  0  0  0
  153.6594  143.5797  158.3037 H   0  0  0  0  0  0  0  0  0  0  0  0
  1  2  1  0  0  0  0
  1 31  1  0  0  0  0
  1 32  1  0  0  0  0
  1 33  1  0  0  0  0
  2  3  1  0  0  0  0
  2  4  1  0  0  0  0
  2 34  1  0  0  0  0
  3 35  1  0  0  0  0
  3 36  1  0  0  0  0
  3 37  1  0  0  0  0
  4 25  1  0  0  0  0
  4  5  1  0  0  0  0
  4 38  1  0  0  0  0
  5  6  1  0  0  0  0
  5 24  1  0  0  0  0
  6 11  1  0  0  0  0
  6  7  2  0  0  0  0
  7  8  1  0  0  0  0
  8  9  2  0  0  0  0
  8 39  1  0  0  0  0
  9 10  1  0  0  0  0
 10 14  1  0  0  0  0
 10 11  2  0  0  0  0
 11 12  1  0  0  0  0
 12 13  2  0  0  0  0
 13 14  1  0  0  0  0
 13 40  1  0  0  0  0
 14 15  1  0  0  0  0
 15 16  1  0  0  0  0
 15 41  1  0  0  0  0
 15 42  1  0  0  0  0
 16 17  1  0  0  0  0
 16 19  1  0  0  0  0
 16 43  1  0  0  0  0
 17 18  1  0  0  0  0
 17 44  1  0  0  0  0
 17 45  1  0  0  0  0
 18 46  1  0  0  0  0
 19 23  1  0  0  0  0
 19 20  1  0  0  0  0
 19 47  1  0  0  0  0
 20 21  1  0  0  0  0
 20 48  1  0  0  0  0
 20 49  1  0  0  0  0
 21 22  1  0  0  0  0
 21 50  1  0  0  0  0
 21 51  1  0  0  0  0
 22 23  1  0  0  0  0
 23 52  1  0  0  0  0
 23 53  1  0  0  0  0
 24 25  1  0  0  0  0
 24 54  1  0  0  0  0
 24 55  1  0  0  0  0
 25 30  1  0  0  0  0
 25 26  1  0  0  0  0
 26 27  1  0  0  0  0
 26 56  1  0  0  0  0
 26 57  1  0  0  0  0
 27 28  1  0  0  0  0
 27 58  1  0  0  0  0
 27 59  1  0  0  0  0
 28 29  1  0  0  0  0
 28 60  1  0  0  0  0
 28 61  1  0  0  0  0
 29 30  1  0  0  0  0
 29 62  1  0  0  0  0
 29 63  1  0  0  0  0
 30 64  1  0  0  0  0
 30 65  1  0  0  0  0
M  END
> <s_m_source_file>
AV-unprocessed.smi

> <i_m_source_file_index>
275

> <i_lp_mmshare_version>
43012

> <i_f3d_flags>
0

> <s_epik_input>
W0NIMl0xW0NIMl1bQ0gyXVtDSDJdW0NIMl1DMTJbQ0BIXShbQ0hdKFtDSDNdKVtDSDNdKU4oW0NIMl0yKWMobltjSF1uMyljKGMzNCluW2NIXW40W0NIMl1bQ0BIXShbQ0gyXVtPSF0pW0NAQEhdNVtDSDJdW0NIMl1PW0NIMl01

> <s_epik_cmdline>
J2VwaWtfcHl0aG9uJywgJy1waCcsICc3LjAnLCAnLXRuJywgJzgnLCAnLW1hJywgJzIwMCcsICctbWV0YWxfYmluZGluZycsICctaW1hZScsICc8aW5maWxlLm1hZT4nLCAnLW9tYWUnLCAnPG91dGZpbGUubWFlPic=

> <r_lp_tautomer_probability>
1

> <r_epik_Ionization_Penalty>
0.00375122

> <r_epik_Ionization_Penalty_Charging>
0

> <r_epik_Ionization_Penalty_Neutral>
0.00375122

> <r_epik_State_Penalty>
0.00260593

> <r_epik_Charging_Adjusted_Penalty>
0.00260593

> <i_epik_Tot_Q>
0

> <i_epik_Tot_abs_Q>
0

> <r_epik_Metal_State_Penalty>
-0

> <b_epik_Metal_Only>
0

> <s_lp_Force_Field>
OPLS_2005

> <r_lp_Energy>
64.3005

> <b_lp_Chiralities_Consistent>
1

> <s_lp_Variant>
AV-unprocessed.smi:275-7

> <Gold.Version>
5.8.1

> <Gold.Id.Protein>
6NUR|6NUR_protein|mol2

> <Gold.PLP.Fitness>
47.1832

> <Gold.PLP.PLP>
-43.7551

> <Gold.PLP.part.hbond>
-2.9794

> <Gold.PLP.part.metal>
0.0000

> <Gold.PLP.part.buried>
-0.5581

> <Gold.PLP.part.nonpolar>
-39.6498

> <Gold.PLP.part.repulsive>
0.3118

> <Gold.PLP.ligand.clash>
0.8926

> <Gold.PLP.ligand.torsion>
1.1393

> <Gold.PLP.Chemscore.Hbond>
1.9913

> <Gold.PLP.Chemscore.CHOScore>
0.0000

> <Gold.PLP.Chemscore.Metal>
0.0000

> <Gold.Chemscore.Hbonds>
donor molecule, donor type, donor heavy atom, donor atom, acceptor molecule, acceptor atom, score
      L1  H    18    46       P1 10175  1.00
      P1  H  7997  8010       L1     7  0.98

> <Gold.PLP.Chemscore.Internal.Correction>
0.6256

> <Gold.Rescore>
     Score         DG    S(hbond)    S(metal)    S(lipo)     H(rot)  DE(clash)    DE(int)     intcor
     14.98     -19.41       1.77        0.00     124.19       2.54       1.93       2.50       ----

> <Gold.Chemscore.Fitness>
14.9768

> <Gold.Chemscore.DG>
-19.4085

> <Gold.Chemscore.ZeroCoef>
-5.4800

> <Gold.Chemscore.Hbond>
1.7651

> <Gold.Chemscore.Metal>
0.0000

> <Gold.Chemscore.Lipo>
124.1859

> <Gold.Chemscore.Internal_Hbond>
0.0000

> <Gold.Chemscore.DEClash>
1.9294

> <Gold.Chemscore.DEInternal>
2.5023

> <Gold.Chemscore.Rot>
2.5377

> <Gold.Chemscore.Internal.Correction>
   9.000000E+99

> <Gold.Chemscore.Hbonds>
donor molecule, donor type, donor heavy atom, donor atom, acceptor molecule, acceptor atom, score
      L1  H    18    46       P1 10175  1.00
      P1  H  7997  8010       L1     7  0.56

> <Gold.Chemscore.Hbond.Weighted>
-5.8953

> <Gold.Chemscore.Metal.Weighted>
-0.0000

> <Gold.Chemscore.Lipo.Weighted>
-14.5297

> <Gold.Chemscore.Internal_Hbond.Weighted>
0.0000

> <Gold.Chemscore.DEClash.Weighted>
1.9294

> <Gold.Chemscore.DEInternal.Weighted>
2.5023

> <Gold.Chemscore.Rot.Weighted>
6.4966

> <Gold.Chemscore.Internal.Correction.Weighted>
   9.000000E+99

> <Gold.Protein.RotatedTorsions>
[ 6907 6896 6895 6894 ] final   38.99 input  -60.11 | X-H torsion
[ 7974 7965 7964 7962 ] final   46.61 input  175.53 | X-H torsion
[ 8008 7997 7996 7995 ] final   91.95 input   59.86 | X-H torsion
[ 10167 10162 10161 10158 ] final  -93.49 input  -65.29 | X-H torsion
[ 10718 10713 10712 10709 ] final  103.94 input   66.30 | X-H torsion
[ 10763 10752 10751 10750 ] final   74.87 input  -60.55 | X-H torsion
[ 11005 11000 10999 10996 ] final -179.60 input  -57.11 | X-H torsion

> <Gold.Protein.ActiveResidues>
 VAL166  LYS551  ARG553  GLY616  TRP617  ASP618  TYR619  PRO620  LYS621  CYS622 
 ASP623  PHE694  ASN695  SER759  ASP760  ASP761  ALA762  ILE779  LEU786  VAL792 
 PHE793  MET794  SER795  GLU796  ALA797  LYS798  CYS799  TRP800  GLU811  SER814 

> <Gold.Protein.RotatedAtoms>
  152.1638  134.8891  160.0539 H   0  0  0  0  0  0  0  0  0  0  0  0  # atno 6907 bound_to 6896
  151.9876  133.3775  159.4140 H   0  0  0  0  0  0  0  0  0  0  0  0  # atno 6908 bound_to 6896
  150.6891  134.3893  159.5113 H   0  0  0  0  0  0  0  0  0  0  0  0  # atno 6909 bound_to 6896
  146.0374  139.4837  142.9800 H   0  0  0  0  0  0  0  0  0  0  0  0  # atno 7974 bound_to 7965
  156.0298  140.3331  155.7127 H   0  0  0  0  0  0  0  0  0  0  0  0  # atno 8008 bound_to 7997
  155.5902  140.0645  157.2778 H   0  0  0  0  0  0  0  0  0  0  0  0  # atno 8009 bound_to 7997
  154.4348  140.1828  156.1055 H   0  0  0  0  0  0  0  0  0  0  0  0  # atno 8010 bound_to 7997
  140.3242  143.3032  152.0013 H   0  0  0  0  0  0  0  0  0  0  0  0  # atno 10167 bound_to 10162
  157.6756  131.0791  150.5631 H   0  0  0  0  0  0  0  0  0  0  0  0  # atno 10718 bound_to 10713
  153.0616  135.5010  154.8106 H   0  0  0  0  0  0  0  0  0  0  0  0  # atno 10763 bound_to 10752
  154.6891  135.2981  154.9508 H   0  0  0  0  0  0  0  0  0  0  0  0  # atno 10764 bound_to 10752
  154.0269  135.6735  153.4830 H   0  0  0  0  0  0  0  0  0  0  0  0  # atno 10765 bound_to 10752
  140.4169  134.6641  157.4643 H   0  0  0  0  0  0  0  0  0  0  0  0  # atno 11005 bound_to 11000
  145.6941  141.0155  143.1539 LP  0  0  0  0  0  0  0  0  0  0  0  0  # atno 17320 bound_to 7965
  144.7058  139.8567  143.7430 LP  0  0  0  0  0  0  0  0  0  0  0  0  # atno 17321 bound_to 7965
  139.4868  144.6287  151.7113 LP  0  0  0  0  0  0  0  0  0  0  0  0  # atno 17342 bound_to 10162
  140.5456  144.0508  150.6106 LP  0  0  0  0  0  0  0  0  0  0  0  0  # atno 17343 bound_to 10162
  156.5933  130.4335  149.5927 LP  0  0  0  0  0  0  0  0  0  0  0  0  # atno 17370 bound_to 10713
  156.2565  130.6937  151.1692 LP  0  0  0  0  0  0  0  0  0  0  0  0  # atno 17371 bound_to 10713
  140.0228  134.6522  155.9216 LP  0  0  0  0  0  0  0  0  0  0  0  0  # atno 17394 bound_to 11000
  141.1799  133.6545  156.4979 LP  0  0  0  0  0  0  0  0  0  0  0  0  # atno 17395 bound_to 11000

$$$$
