AV-unprocessed.smi:2528|AV-procd|sdf|9959|dock9
  -GOLD-   2272014 03D 1   1.00000     0.00000
 Structure written by MMmdl.
 43 45  0  0  0  0  0  0  0  0  1 V2000
  152.4283  136.9518  155.9688 O   0  0  0  0  0  0  0  0  0  0  0  0
  152.2255  136.4080  157.0550 C   0  0  0  0  0  0  0  0  0  0  0  0
  152.7017  136.8785  158.2165 N   0  0  0  0  0  0  0  0  0  0  0  0
  153.5235  138.0753  158.3610 C   0  0  0  0  0  0  0  0  0  0  0  0
  152.6671  139.3207  158.6440 C   0  0  1  0  0  0  0  0  0  0  0  0
  153.3312  140.2545  159.6730 C   0  0  0  0  0  0  0  0  0  0  0  0
  152.5558  141.4706  159.8834 N   0  0  0  0  0  0  0  0  0  0  0  0
  153.2023  142.3526  160.8537 C   0  0  0  0  0  0  0  0  0  0  0  0
  152.3853  143.6264  161.1218 C   0  0  0  0  0  0  0  0  0  0  0  0
  152.1282  144.3801  159.8091 C   0  0  0  0  0  0  0  0  0  0  0  0
  151.4994  143.4354  158.7733 C   0  0  0  0  0  0  0  0  0  0  0  0
  152.3461  142.1568  158.6049 C   0  0  2  0  0  0  0  0  0  0  0  0
  151.7018  141.2100  157.5718 C   0  0  0  0  0  0  0  0  0  0  0  0
  152.4983  140.0394  157.4245 O   0  0  0  0  0  0  0  0  0  0  0  0
  151.5158  135.2811  157.2412 N   0  0  0  0  0  0  0  0  0  0  0  0
  150.8203  134.5099  156.2721 C   0  0  0  0  0  0  0  0  0  0  0  0
  150.9027  133.1102  156.4500 C   0  0  0  0  0  0  0  0  0  0  0  0
  150.2384  132.2563  155.5484 C   0  0  0  0  0  0  0  0  0  0  0  0
  149.5080  132.8245  154.4896 C   0  0  0  0  0  0  0  0  0  0  0  0
  149.4786  134.2272  154.3826 C   0  0  0  0  0  0  0  0  0  0  0  0
  150.1141  135.0476  155.2460 N   0  0  0  0  0  0  0  0  0  0  0  0
  152.4938  136.3669  159.0613 H   0  0  0  0  0  0  0  0  0  0  0  0
  154.2544  137.9281  159.1579 H   0  0  0  0  0  0  0  0  0  0  0  0
  154.0929  138.2144  157.4415 H   0  0  0  0  0  0  0  0  0  0  0  0
  151.6891  139.0127  159.0188 H   0  0  0  0  0  0  0  0  0  0  0  0
  153.4481  139.7263  160.6201 H   0  0  0  0  0  0  0  0  0  0  0  0
  154.3361  140.5117  159.3337 H   0  0  0  0  0  0  0  0  0  0  0  0
  153.3472  141.8191  161.7939 H   0  0  0  0  0  0  0  0  0  0  0  0
  154.1968  142.6277  160.4987 H   0  0  0  0  0  0  0  0  0  0  0  0
  151.4348  143.3614  161.5866 H   0  0  0  0  0  0  0  0  0  0  0  0
  152.9105  144.2692  161.8284 H   0  0  0  0  0  0  0  0  0  0  0  0
  151.4783  145.2377  159.9843 H   0  0  0  0  0  0  0  0  0  0  0  0
  153.0693  144.7735  159.4225 H   0  0  0  0  0  0  0  0  0  0  0  0
  150.4895  143.1704  159.0898 H   0  0  0  0  0  0  0  0  0  0  0  0
  151.4000  143.9507  157.8175 H   0  0  0  0  0  0  0  0  0  0  0  0
  153.3196  142.4542  158.2101 H   0  0  0  0  0  0  0  0  0  0  0  0
  150.6910  140.9304  157.8737 H   0  0  0  0  0  0  0  0  0  0  0  0
  151.6212  141.7014  156.6021 H   0  0  0  0  0  0  0  0  0  0  0  0
  151.4524  134.9444  158.1904 H   0  0  0  0  0  0  0  0  0  0  0  0
  151.4672  132.6899  157.2699 H   0  0  0  0  0  0  0  0  0  0  0  0
  150.2877  131.1841  155.6687 H   0  0  0  0  0  0  0  0  0  0  0  0
  148.9840  132.2026  153.7790 H   0  0  0  0  0  0  0  0  0  0  0  0
  148.9292  134.7033  153.5840 H   0  0  0  0  0  0  0  0  0  0  0  0
  1  2  2  0  0  0  0
  2  3  1  0  0  0  0
  2 15  1  0  0  0  0
  3  4  1  0  0  0  0
  3 22  1  0  0  0  0
  4  5  1  0  0  0  0
  4 23  1  0  0  0  0
  4 24  1  0  0  0  0
  5 14  1  0  0  0  0
  5  6  1  0  0  0  0
  5 25  1  0  0  0  0
  6  7  1  0  0  0  0
  6 26  1  0  0  0  0
  6 27  1  0  0  0  0
  7 12  1  0  0  0  0
  7  8  1  0  0  0  0
  8  9  1  0  0  0  0
  8 28  1  0  0  0  0
  8 29  1  0  0  0  0
  9 10  1  0  0  0  0
  9 30  1  0  0  0  0
  9 31  1  0  0  0  0
 10 11  1  0  0  0  0
 10 32  1  0  0  0  0
 10 33  1  0  0  0  0
 11 12  1  0  0  0  0
 11 34  1  0  0  0  0
 11 35  1  0  0  0  0
 12 13  1  0  0  0  0
 12 36  1  0  0  0  0
 13 14  1  0  0  0  0
 13 37  1  0  0  0  0
 13 38  1  0  0  0  0
 15 16  1  0  0  0  0
 15 39  1  0  0  0  0
 16 21  1  0  0  0  0
 16 17  2  0  0  0  0
 17 18  1  0  0  0  0
 17 40  1  0  0  0  0
 18 19  2  0  0  0  0
 18 41  1  0  0  0  0
 19 20  1  0  0  0  0
 19 42  1  0  0  0  0
 20 21  2  0  0  0  0
 20 43  1  0  0  0  0
M  END
> <s_m_source_file>
AV-unprocessed.smi

> <i_m_source_file_index>
2528

> <i_lp_mmshare_version>
43012

> <i_f3d_flags>
0

> <s_epik_input>
bjFbY0hdW2NIXVtjSF1bY0hdYzFbTkhdQyg9TylbTkhdW0NIMl1bQ0BIXShbQ0gyXTIpT1tDSDJdW0NAQEhdKE4yMylbQ0gyXVtDSDJdW0NIMl1bQ0gyXTM=

> <s_epik_cmdline>
J2VwaWtfcHl0aG9uJywgJy1waCcsICc3LjAnLCAnLXRuJywgJzgnLCAnLW1hJywgJzIwMCcsICctbWV0YWxfYmluZGluZycsICctaW1hZScsICc8aW5maWxlLm1hZT4nLCAnLW9tYWUnLCAnPG91dGZpbGUubWFlPic=

> <r_epik_Ionization_Penalty>
1.14192

> <r_epik_Ionization_Penalty_Charging>
0

> <r_epik_Ionization_Penalty_Neutral>
1.14192

> <r_epik_State_Penalty>
1.20248

> <r_epik_Charging_Adjusted_Penalty>
1.20248

> <i_epik_Tot_Q>
0

> <i_epik_Tot_abs_Q>
0

> <r_epik_Metal_State_Penalty>
1.20248

> <b_epik_Metal_Only>
0

> <s_lp_Force_Field>
OPLS_2005

> <r_lp_Energy>
35.0124

> <b_lp_Chiralities_Consistent>
1

> <s_lp_Variant>
AV-unprocessed.smi:2528-12

> <Gold.Version>
5.8.1

> <Gold.Id.Protein>
6NUR|6NUR_protein|mol2

> <Gold.PLP.Fitness>
41.6258

> <Gold.PLP.PLP>
-35.0011

> <Gold.PLP.part.hbond>
-2.0000

> <Gold.PLP.part.metal>
0.0000

> <Gold.PLP.part.buried>
-5.4077

> <Gold.PLP.part.nonpolar>
-30.5644

> <Gold.PLP.part.repulsive>
1.8487

> <Gold.PLP.ligand.clash>
0.0000

> <Gold.PLP.ligand.torsion>
1.0318

> <Gold.PLP.Chemscore.Hbond>
1.8960

> <Gold.PLP.Chemscore.CHOScore>
1.0000

> <Gold.PLP.Chemscore.Metal>
0.0000

> <Gold.Chemscore.Hbonds>
donor molecule, donor type, donor heavy atom, donor atom, acceptor molecule, acceptor atom, score
      P1  H  7997  8010       L1    14  1.00
      P1  H 10752 10763       L1     1  0.90
      L1  C    20    43       P1  7948  1.00

> <Gold.PLP.Chemscore.Internal.Correction>
0.0004

> <Gold.Rescore>
     Score         DG    S(hbond)    S(metal)    S(lipo)     H(rot)  DE(clash)    DE(int)     intcor
     16.46     -19.60       1.58        0.00     103.22       1.27       1.44       1.69       ----

> <Gold.Chemscore.Fitness>
16.4599

> <Gold.Chemscore.DG>
-19.5975

> <Gold.Chemscore.ZeroCoef>
-5.4800

> <Gold.Chemscore.Hbond>
1.5840

> <Gold.Chemscore.Metal>
0.0000

> <Gold.Chemscore.Lipo>
103.2224

> <Gold.Chemscore.Internal_Hbond>
0.0000

> <Gold.Chemscore.DEClash>
1.4437

> <Gold.Chemscore.DEInternal>
1.6939

> <Gold.Chemscore.Rot>
1.2696

> <Gold.Chemscore.Internal.Correction>
   9.000000E+99

> <Gold.Chemscore.Hbonds>
donor molecule, donor type, donor heavy atom, donor atom, acceptor molecule, acceptor atom, score
      P1  H  7997  8010       L1    14  0.27
      P1  H 10752 10763       L1     1  0.23

> <Gold.Chemscore.Hbond.Weighted>
-5.2907

> <Gold.Chemscore.Metal.Weighted>
-0.0000

> <Gold.Chemscore.Lipo.Weighted>
-12.0770

> <Gold.Chemscore.Internal_Hbond.Weighted>
0.0000

> <Gold.Chemscore.DEClash.Weighted>
1.4437

> <Gold.Chemscore.DEInternal.Weighted>
1.6939

> <Gold.Chemscore.Rot.Weighted>
3.2502

> <Gold.Chemscore.Internal.Correction.Weighted>
   9.000000E+99

> <Gold.Protein.RotatedTorsions>
[ 6907 6896 6895 6894 ] final -132.18 input  -60.11 | X-H torsion
[ 7974 7965 7964 7962 ] final  -83.38 input  175.53 | X-H torsion
[ 8008 7997 7996 7995 ] final   53.67 input   59.86 | X-H torsion
[ 10167 10162 10161 10158 ] final  -28.95 input  -65.29 | X-H torsion
[ 10718 10713 10712 10709 ] final -110.61 input   66.30 | X-H torsion
[ 10763 10752 10751 10750 ] final   88.06 input  -60.55 | X-H torsion
[ 11005 11000 10999 10996 ] final   49.55 input  -57.11 | X-H torsion

> <Gold.Protein.ActiveResidues>
 VAL166  LYS551  ARG553  GLY616  TRP617  ASP618  TYR619  PRO620  LYS621  CYS622 
 ASP623  PHE694  ASN695  SER759  ASP760  ASP761  ALA762  ILE779  LEU786  VAL792 
 PHE793  MET794  SER795  GLU796  ALA797  LYS798  CYS799  TRP800  GLU811  SER814 

> <Gold.Protein.RotatedAtoms>
  150.9595  133.6461  159.2756 H   0  0  0  0  0  0  0  0  0  0  0  0  # atno 6907 bound_to 6896
  151.3788  135.0935  159.9499 H   0  0  0  0  0  0  0  0  0  0  0  0  # atno 6908 bound_to 6896
  152.5142  133.9134  159.7553 H   0  0  0  0  0  0  0  0  0  0  0  0  # atno 6909 bound_to 6896
  145.5207  140.9531  143.1656 H   0  0  0  0  0  0  0  0  0  0  0  0  # atno 7974 bound_to 7965
  155.4721  140.3465  155.4327 H   0  0  0  0  0  0  0  0  0  0  0  0  # atno 8008 bound_to 7997
  156.1094  140.1457  156.9388 H   0  0  0  0  0  0  0  0  0  0  0  0  # atno 8009 bound_to 7997
  154.4746  140.0889  156.7208 H   0  0  0  0  0  0  0  0  0  0  0  0  # atno 8010 bound_to 7997
  140.7265  143.3968  151.1333 H   0  0  0  0  0  0  0  0  0  0  0  0  # atno 10167 bound_to 10162
  156.0600  130.5824  150.8261 H   0  0  0  0  0  0  0  0  0  0  0  0  # atno 10718 bound_to 10713
  153.1730  135.4521  154.9928 H   0  0  0  0  0  0  0  0  0  0  0  0  # atno 10763 bound_to 10752
  154.7979  135.3244  154.7625 H   0  0  0  0  0  0  0  0  0  0  0  0  # atno 10764 bound_to 10752
  153.8099  135.6955  153.4897 H   0  0  0  0  0  0  0  0  0  0  0  0  # atno 10765 bound_to 10752
  140.1094  134.4975  155.8691 H   0  0  0  0  0  0  0  0  0  0  0  0  # atno 11005 bound_to 11000
  144.7677  139.6806  143.7208 LP  0  0  0  0  0  0  0  0  0  0  0  0  # atno 17320 bound_to 7965
  146.2107  139.5462  142.9683 LP  0  0  0  0  0  0  0  0  0  0  0  0  # atno 17321 bound_to 7965
  139.7582  143.8675  152.3094 LP  0  0  0  0  0  0  0  0  0  0  0  0  # atno 17342 bound_to 10162
  139.8552  144.7145  150.9166 LP  0  0  0  0  0  0  0  0  0  0  0  0  # atno 17343 bound_to 10162
  157.5602  131.0945  150.9570 LP  0  0  0  0  0  0  0  0  0  0  0  0  # atno 17370 bound_to 10713
  156.9810  130.5527  149.5296 LP  0  0  0  0  0  0  0  0  0  0  0  0  # atno 17371 bound_to 10713
  141.2126  133.6722  156.6675 LP  0  0  0  0  0  0  0  0  0  0  0  0  # atno 17394 bound_to 11000
  140.3112  134.8085  157.4177 LP  0  0  0  0  0  0  0  0  0  0  0  0  # atno 17395 bound_to 11000

$$$$
