AV-unprocessed.smi:2497|AV-procd|sdf|9829|dock4
  -GOLD-   2272013463D 1   1.00000     0.00000
 Structure written by MMmdl.
 47 48  0  0  0  0  0  0  0  0  1 V2000
  152.5231  143.4745  159.3826 C   0  0  0  0  0  0  0  0  0  0  0  0
  152.1888  141.9734  159.4164 C   0  0  0  0  0  0  0  0  0  0  0  0
  153.4067  141.1659  159.8908 C   0  0  0  0  0  0  0  0  0  0  0  0
  151.6881  141.4533  158.0542 C   0  0  0  0  0  0  0  0  0  0  0  0
  151.4486  139.9341  158.0119 C   0  0  0  0  0  0  0  0  0  0  0  0
  150.9715  139.5114  156.7102 N   0  0  0  0  0  0  0  0  0  0  0  0
  150.7871  140.2732  155.5741 C   0  0  0  0  0  0  0  0  0  0  0  0
  150.3066  139.4459  154.5992 C   0  0  0  0  0  0  0  0  0  0  0  0
  150.2255  138.1814  155.2561 C   0  0  0  0  0  0  0  0  0  0  0  0
  149.7916  136.9648  154.6711 N   0  0  0  0  0  0  0  0  0  0  0  0
  149.5804  135.7825  155.2726 C   0  0  0  0  0  0  0  0  0  0  0  0
  149.7617  135.5552  156.4683 O   0  0  0  0  0  0  0  0  0  0  0  0
  149.1526  134.8661  154.3877 N   0  0  0  0  0  0  0  0  0  0  0  0
  148.8136  133.4542  154.6216 C   0  0  0  0  0  0  0  0  0  0  0  0
  149.9959  132.7423  155.3135 C   0  0  0  0  0  0  0  0  0  0  0  0
  147.5167  133.3008  155.4538 C   0  0  0  0  0  0  0  0  0  0  0  0
  146.2801  133.8091  154.6918 C   0  0  0  0  0  0  0  0  0  0  0  0
  146.1541  133.1110  153.4585 O   0  0  0  0  0  0  0  0  0  0  0  0
  147.2623  133.3163  152.5905 C   0  0  0  0  0  0  0  0  0  0  0  0
  148.5552  132.7968  153.2483 C   0  0  0  0  0  0  0  0  0  0  0  0
  150.6337  138.2191  156.5123 N   0  0  0  0  0  0  0  0  0  0  0  0
  153.2909  143.6927  158.6396 H   0  0  0  0  0  0  0  0  0  0  0  0
  152.8936  143.8143  160.3502 H   0  0  0  0  0  0  0  0  0  0  0  0
  151.6479  144.0787  159.1454 H   0  0  0  0  0  0  0  0  0  0  0  0
  151.3954  141.8217  160.1494 H   0  0  0  0  0  0  0  0  0  0  0  0
  154.2421  141.2645  159.1967 H   0  0  0  0  0  0  0  0  0  0  0  0
  153.1678  140.1056  159.9760 H   0  0  0  0  0  0  0  0  0  0  0  0
  153.7464  141.5043  160.8701 H   0  0  0  0  0  0  0  0  0  0  0  0
  150.7747  141.9810  157.7753 H   0  0  0  0  0  0  0  0  0  0  0  0
  152.4243  141.7019  157.2882 H   0  0  0  0  0  0  0  0  0  0  0  0
  152.3716  139.3970  158.2335 H   0  0  0  0  0  0  0  0  0  0  0  0
  150.7168  139.6301  158.7605 H   0  0  0  0  0  0  0  0  0  0  0  0
  151.0101  141.3298  155.5547 H   0  0  0  0  0  0  0  0  0  0  0  0
  150.0590  139.7165  153.5838 H   0  0  0  0  0  0  0  0  0  0  0  0
  149.6562  136.9913  153.6712 H   0  0  0  0  0  0  0  0  0  0  0  0
  149.0474  135.1798  153.4339 H   0  0  0  0  0  0  0  0  0  0  0  0
  149.8105  131.6721  155.4105 H   0  0  0  0  0  0  0  0  0  0  0  0
  150.1734  133.1267  156.3180 H   0  0  0  0  0  0  0  0  0  0  0  0
  150.9189  132.8632  154.7452 H   0  0  0  0  0  0  0  0  0  0  0  0
  147.3643  132.2467  155.6896 H   0  0  0  0  0  0  0  0  0  0  0  0
  147.5955  133.8060  156.4160 H   0  0  0  0  0  0  0  0  0  0  0  0
  145.3812  133.6373  155.2838 H   0  0  0  0  0  0  0  0  0  0  0  0
  146.3391  134.8837  154.5130 H   0  0  0  0  0  0  0  0  0  0  0  0
  147.0779  132.7816  151.6586 H   0  0  0  0  0  0  0  0  0  0  0  0
  147.3458  134.3737  152.3347 H   0  0  0  0  0  0  0  0  0  0  0  0
  149.4028  132.9583  152.5808 H   0  0  0  0  0  0  0  0  0  0  0  0
  148.4683  131.7161  153.3705 H   0  0  0  0  0  0  0  0  0  0  0  0
  1  2  1  0  0  0  0
  1 22  1  0  0  0  0
  1 23  1  0  0  0  0
  1 24  1  0  0  0  0
  2  3  1  0  0  0  0
  2  4  1  0  0  0  0
  2 25  1  0  0  0  0
  3 26  1  0  0  0  0
  3 27  1  0  0  0  0
  3 28  1  0  0  0  0
  4  5  1  0  0  0  0
  4 29  1  0  0  0  0
  4 30  1  0  0  0  0
  5  6  1  0  0  0  0
  5 31  1  0  0  0  0
  5 32  1  0  0  0  0
  6 21  1  0  0  0  0
  6  7  1  0  0  0  0
  7  8  2  0  0  0  0
  7 33  1  0  0  0  0
  8  9  1  0  0  0  0
  8 34  1  0  0  0  0
  9 10  1  0  0  0  0
  9 21  2  0  0  0  0
 10 11  1  0  0  0  0
 10 35  1  0  0  0  0
 11 12  2  0  0  0  0
 11 13  1  0  0  0  0
 13 14  1  0  0  0  0
 13 36  1  0  0  0  0
 14 20  1  0  0  0  0
 14 15  1  0  0  0  0
 14 16  1  0  0  0  0
 15 37  1  0  0  0  0
 15 38  1  0  0  0  0
 15 39  1  0  0  0  0
 16 17  1  0  0  0  0
 16 40  1  0  0  0  0
 16 41  1  0  0  0  0
 17 18  1  0  0  0  0
 17 42  1  0  0  0  0
 17 43  1  0  0  0  0
 18 19  1  0  0  0  0
 19 20  1  0  0  0  0
 19 44  1  0  0  0  0
 19 45  1  0  0  0  0
 20 46  1  0  0  0  0
 20 47  1  0  0  0  0
M  END
> <s_m_source_file>
AV-unprocessed.smi

> <i_m_source_file_index>
2497

> <i_lp_mmshare_version>
43012

> <i_f3d_flags>
0

> <s_epik_input>
W0NIM11bQ0hdKFtDSDNdKVtDSDJdW0NIMl1uMVtjSF1bY0hdYyhuMSlbTkhdQyg9TylbTkhdQzIoW0NIM10pW0NIMl1bQ0gyXU9bQ0gyXVtDSDJdMg==

> <s_epik_cmdline>
J2VwaWtfcHl0aG9uJywgJy1waCcsICc3LjAnLCAnLXRuJywgJzgnLCAnLW1hJywgJzIwMCcsICctbWV0YWxfYmluZGluZycsICctaW1hZScsICc8aW5maWxlLm1hZT4nLCAnLW9tYWUnLCAnPG91dGZpbGUubWFlPic=

> <r_lp_tautomer_probability>
1

> <r_epik_Ionization_Penalty>
3.57775e-05

> <r_epik_Ionization_Penalty_Charging>
0

> <r_epik_Ionization_Penalty_Neutral>
3.57775e-05

> <r_epik_State_Penalty>
-0

> <r_epik_Charging_Adjusted_Penalty>
0

> <i_epik_Tot_Q>
0

> <i_epik_Tot_abs_Q>
0

> <r_epik_Metal_State_Penalty>
-0

> <b_epik_Metal_Only>
0

> <s_lp_Force_Field>
OPLS_2005

> <r_lp_Energy>
13.1227

> <b_lp_Chiralities_Consistent>
1

> <s_lp_Variant>
AV-unprocessed.smi:2497-1

> <Gold.Version>
5.8.1

> <Gold.Id.Protein>
6NUR|6NUR_protein|mol2

> <Gold.PLP.Fitness>
41.1580

> <Gold.PLP.PLP>
-35.3738

> <Gold.PLP.part.hbond>
-2.0000

> <Gold.PLP.part.metal>
0.0000

> <Gold.PLP.part.buried>
-3.4314

> <Gold.PLP.part.nonpolar>
-30.9053

> <Gold.PLP.part.repulsive>
0.1698

> <Gold.PLP.ligand.clash>
0.0000

> <Gold.PLP.ligand.torsion>
0.1376

> <Gold.PLP.Chemscore.Hbond>
1.9913

> <Gold.PLP.Chemscore.CHOScore>
0.0000

> <Gold.PLP.Chemscore.Metal>
0.0000

> <Gold.Chemscore.Hbonds>
donor molecule, donor type, donor heavy atom, donor atom, acceptor molecule, acceptor atom, score
      L1  H    10    35       P1  7948  0.94
      L1  H    13    36       P1  7948  1.00

> <Gold.PLP.Chemscore.Internal.Correction>
0.0855

> <Gold.Rescore>
     Score         DG    S(hbond)    S(metal)    S(lipo)     H(rot)  DE(clash)    DE(int)     intcor
     15.71     -17.25       1.81        0.00      81.01       1.47       0.10       1.44       ----

> <Gold.Chemscore.Fitness>
15.7088

> <Gold.Chemscore.DG>
-17.2486

> <Gold.Chemscore.ZeroCoef>
-5.4800

> <Gold.Chemscore.Hbond>
1.8124

> <Gold.Chemscore.Metal>
0.0000

> <Gold.Chemscore.Lipo>
81.0076

> <Gold.Chemscore.Internal_Hbond>
0.0000

> <Gold.Chemscore.DEClash>
0.1014

> <Gold.Chemscore.DEInternal>
1.4384

> <Gold.Chemscore.Rot>
1.4698

> <Gold.Chemscore.Internal.Correction>
   9.000000E+99

> <Gold.Chemscore.Hbonds>
donor molecule, donor type, donor heavy atom, donor atom, acceptor molecule, acceptor atom, score
      L1  H    10    35       P1  7948  0.65
      L1  H    13    36       P1  7948  0.40

> <Gold.Chemscore.Hbond.Weighted>
-6.0535

> <Gold.Chemscore.Metal.Weighted>
-0.0000

> <Gold.Chemscore.Lipo.Weighted>
-9.4779

> <Gold.Chemscore.Internal_Hbond.Weighted>
0.0000

> <Gold.Chemscore.DEClash.Weighted>
0.1014

> <Gold.Chemscore.DEInternal.Weighted>
1.4384

> <Gold.Chemscore.Rot.Weighted>
3.7628

> <Gold.Chemscore.Internal.Correction.Weighted>
   9.000000E+99

> <Gold.Protein.RotatedTorsions>
[ 6907 6896 6895 6894 ] final  -42.75 input  -60.11 | X-H torsion
[ 7974 7965 7964 7962 ] final   20.05 input  175.53 | X-H torsion
[ 8008 7997 7996 7995 ] final  128.35 input   59.86 | X-H torsion
[ 10167 10162 10161 10158 ] final -164.33 input  -65.29 | X-H torsion
[ 10718 10713 10712 10709 ] final  145.43 input   66.30 | X-H torsion
[ 10763 10752 10751 10750 ] final   85.07 input  -60.55 | X-H torsion
[ 11005 11000 10999 10996 ] final   -1.37 input  -57.11 | X-H torsion

> <Gold.Protein.ActiveResidues>
 VAL166  LYS551  ARG553  GLY616  TRP617  ASP618  TYR619  PRO620  LYS621  CYS622 
 ASP623  PHE694  ASN695  SER759  ASP760  ASP761  ALA762  ILE779  LEU786  VAL792 
 PHE793  MET794  SER795  GLU796  ALA797  LYS798  CYS799  TRP800  GLU811  SER814 

> <Gold.Protein.RotatedAtoms>
  150.9517  134.8916  159.7675 H   0  0  0  0  0  0  0  0  0  0  0  0  # atno 6907 bound_to 6896
  152.5122  134.3797  159.9357 H   0  0  0  0  0  0  0  0  0  0  0  0  # atno 6908 bound_to 6896
  151.3813  133.3780  159.2745 H   0  0  0  0  0  0  0  0  0  0  0  0  # atno 6909 bound_to 6896
  146.2126  139.8225  142.8677 H   0  0  0  0  0  0  0  0  0  0  0  0  # atno 7974 bound_to 7965
  156.2913  140.2647  156.2422 H   0  0  0  0  0  0  0  0  0  0  0  0  # atno 8008 bound_to 7997
  154.9966  140.0388  157.2360 H   0  0  0  0  0  0  0  0  0  0  0  0  # atno 8009 bound_to 7997
  154.7638  140.2765  155.6197 H   0  0  0  0  0  0  0  0  0  0  0  0  # atno 8010 bound_to 7997
  139.6258  144.0535  152.1973 H   0  0  0  0  0  0  0  0  0  0  0  0  # atno 10167 bound_to 10162
  157.3454  131.0942  151.1046 H   0  0  0  0  0  0  0  0  0  0  0  0  # atno 10718 bound_to 10713
  153.1440  135.4631  154.9539 H   0  0  0  0  0  0  0  0  0  0  0  0  # atno 10763 bound_to 10752
  154.7771  135.3176  154.8071 H   0  0  0  0  0  0  0  0  0  0  0  0  # atno 10764 bound_to 10752
  153.8589  135.6914  153.4839 H   0  0  0  0  0  0  0  0  0  0  0  0  # atno 10765 bound_to 10752
  140.6466  133.9442  155.8356 H   0  0  0  0  0  0  0  0  0  0  0  0  # atno 11005 bound_to 11000
  145.3081  141.0212  143.3570 LP  0  0  0  0  0  0  0  0  0  0  0  0  # atno 17320 bound_to 7965
  144.8956  139.4717  143.6657 LP  0  0  0  0  0  0  0  0  0  0  0  0  # atno 17321 bound_to 7965
  140.0188  144.6168  150.7584 LP  0  0  0  0  0  0  0  0  0  0  0  0  # atno 17342 bound_to 10162
  140.7410  143.2812  151.3594 LP  0  0  0  0  0  0  0  0  0  0  0  0  # atno 17343 bound_to 10162
  157.2242  130.6495  149.5823 LP  0  0  0  0  0  0  0  0  0  0  0  0  # atno 17370 bound_to 10713
  155.9713  130.4619  150.6127 LP  0  0  0  0  0  0  0  0  0  0  0  0  # atno 17371 bound_to 10713
  141.0568  134.0405  157.3712 LP  0  0  0  0  0  0  0  0  0  0  0  0  # atno 17394 bound_to 11000
  139.9061  135.0179  156.7490 LP  0  0  0  0  0  0  0  0  0  0  0  0  # atno 17395 bound_to 11000

$$$$
