AV-unprocessed.smi:229|AV-procd|sdf|1758|dock8
  -GOLD-   2262020283D 1   1.00000     0.00000
 Structure written by MMmdl.
 58 62  0  0  0  0  0  0  0  0  1 V2000
  155.0846  139.7645  160.7519 C   0  0  0  0  0  0  0  0  0  0  0  0
  154.2266  140.9486  161.2148 C   0  0  0  0  0  0  0  0  0  0  0  0
  153.5301  141.6729  160.0531 C   0  0  1  0  0  0  0  0  0  0  0  0
  152.7630  140.6951  159.1484 C   0  0  0  0  0  0  0  0  0  0  0  0
  152.0327  141.4320  158.1267 N   0  0  0  0  0  0  0  0  0  0  0  0
  151.6027  140.7845  157.0128 C   0  0  0  0  0  0  0  0  0  0  0  0
  152.4855  139.9515  156.4021 N   0  0  0  0  0  0  0  0  0  0  0  0
  152.1324  139.2675  155.3105 C   0  0  0  0  0  0  0  0  0  0  0  0
  150.9635  139.2670  154.6688 N   0  0  0  0  0  0  0  0  0  0  0  0
  150.0712  140.1040  155.2700 C   0  0  0  0  0  0  0  0  0  0  0  0
  150.3014  140.8948  156.4336 C   0  0  0  0  0  0  0  0  0  0  0  0
  149.1535  141.6239  156.7304 N   0  0  0  0  0  0  0  0  0  0  0  0
  148.2980  141.2771  155.8086 C   0  0  0  0  0  0  0  0  0  0  0  0
  148.7666  140.3658  154.8920 N   0  0  0  0  0  0  0  0  0  0  0  0
  148.0372  139.8056  153.7677 C   0  0  0  0  0  0  0  0  0  0  0  0
  146.6968  139.1728  154.1921 C   0  0  1  0  0  0  0  0  0  0  0  0
  145.6629  140.1271  154.0372 O   0  0  0  0  0  0  0  0  0  0  0  0
  146.3489  137.9249  153.3591 C   0  0  2  0  0  0  0  0  0  0  0  0
  146.2318  138.1802  151.8560 C   0  0  0  0  0  0  0  0  0  0  0  0
  145.3816  137.0111  151.4147 C   0  0  0  0  0  0  0  0  0  0  0  0
  144.4100  136.8644  152.5832 C   0  0  0  0  0  0  0  0  0  0  0  0
  145.0657  137.4210  153.7206 O   0  0  0  0  0  0  0  0  0  0  0  0
  151.1410  142.4522  158.6688 C   0  0  0  0  0  0  0  0  0  0  0  0
  151.9009  143.3976  159.6286 C   0  0  2  0  0  0  0  0  0  0  0  0
  150.9340  144.3043  160.3841 C   0  0  0  0  0  0  0  0  0  0  0  0
  150.9365  145.5841  159.5622 C   0  0  0  0  0  0  0  0  0  0  0  0
  152.3010  145.7121  159.2098 O   0  0  0  0  0  0  0  0  0  0  0  0
  152.7985  144.4180  158.8888 C   0  0  0  0  0  0  0  0  0  0  0  0
  152.6152  142.6252  160.5984 O   0  0  0  0  0  0  0  0  0  0  0  0
  155.5483  139.2661  161.6031 H   0  0  0  0  0  0  0  0  0  0  0  0
  155.8821  140.0903  160.0836 H   0  0  0  0  0  0  0  0  0  0  0  0
  154.4827  139.0263  160.2212 H   0  0  0  0  0  0  0  0  0  0  0  0
  153.4745  140.5823  161.9142 H   0  0  0  0  0  0  0  0  0  0  0  0
  154.8454  141.6534  161.7713 H   0  0  0  0  0  0  0  0  0  0  0  0
  154.2902  142.1801  159.4583 H   0  0  0  0  0  0  0  0  0  0  0  0
  153.4677  140.0046  158.6837 H   0  0  0  0  0  0  0  0  0  0  0  0
  152.0611  140.1058  159.7398 H   0  0  0  0  0  0  0  0  0  0  0  0
  152.8953  138.6268  154.8934 H   0  0  0  0  0  0  0  0  0  0  0  0
  147.2951  141.6773  155.7739 H   0  0  0  0  0  0  0  0  0  0  0  0
  147.8728  140.5931  153.0307 H   0  0  0  0  0  0  0  0  0  0  0  0
  148.6745  139.0607  153.2898 H   0  0  0  0  0  0  0  0  0  0  0  0
  146.7462  138.8986  155.2468 H   0  0  0  0  0  0  0  0  0  0  0  0
  145.2236  139.9624  153.2170 H   0  0  0  0  0  0  0  0  0  0  0  0
  147.0808  137.1342  153.5343 H   0  0  0  0  0  0  0  0  0  0  0  0
  145.7076  139.1176  151.6634 H   0  0  0  0  0  0  0  0  0  0  0  0
  147.1985  138.2179  151.3529 H   0  0  0  0  0  0  0  0  0  0  0  0
  144.8807  137.1783  150.4608 H   0  0  0  0  0  0  0  0  0  0  0  0
  145.9987  136.1161  151.3247 H   0  0  0  0  0  0  0  0  0  0  0  0
  143.4969  137.4311  152.3985 H   0  0  0  0  0  0  0  0  0  0  0  0
  144.1329  135.8243  152.7569 H   0  0  0  0  0  0  0  0  0  0  0  0
  150.6619  143.0346  157.8810 H   0  0  0  0  0  0  0  0  0  0  0  0
  150.3412  141.9411  159.2066 H   0  0  0  0  0  0  0  0  0  0  0  0
  149.9374  143.8797  160.5082 H   0  0  0  0  0  0  0  0  0  0  0  0
  151.3242  144.5236  161.3793 H   0  0  0  0  0  0  0  0  0  0  0  0
  150.3282  145.4779  158.6624 H   0  0  0  0  0  0  0  0  0  0  0  0
  150.5816  146.4484  160.1236 H   0  0  0  0  0  0  0  0  0  0  0  0
  153.8448  144.3632  159.1874 H   0  0  0  0  0  0  0  0  0  0  0  0
  152.7556  144.2758  157.8081 H   0  0  0  0  0  0  0  0  0  0  0  0
  1  2  1  0  0  0  0
  1 30  1  0  0  0  0
  1 31  1  0  0  0  0
  1 32  1  0  0  0  0
  2  3  1  0  0  0  0
  2 33  1  0  0  0  0
  2 34  1  0  0  0  0
  3 29  1  0  0  0  0
  3  4  1  0  0  0  0
  3 35  1  0  0  0  0
  4  5  1  0  0  0  0
  4 36  1  0  0  0  0
  4 37  1  0  0  0  0
  5  6  1  0  0  0  0
  5 23  1  0  0  0  0
  6 11  1  0  0  0  0
  6  7  2  0  0  0  0
  7  8  1  0  0  0  0
  8  9  2  0  0  0  0
  8 38  1  0  0  0  0
  9 10  1  0  0  0  0
 10 14  1  0  0  0  0
 10 11  2  0  0  0  0
 11 12  1  0  0  0  0
 12 13  2  0  0  0  0
 13 14  1  0  0  0  0
 13 39  1  0  0  0  0
 14 15  1  0  0  0  0
 15 16  1  0  0  0  0
 15 40  1  0  0  0  0
 15 41  1  0  0  0  0
 16 17  1  0  0  0  0
 16 18  1  0  0  0  0
 16 42  1  0  0  0  0
 17 43  1  0  0  0  0
 18 22  1  0  0  0  0
 18 19  1  0  0  0  0
 18 44  1  0  0  0  0
 19 20  1  0  0  0  0
 19 45  1  0  0  0  0
 19 46  1  0  0  0  0
 20 21  1  0  0  0  0
 20 47  1  0  0  0  0
 20 48  1  0  0  0  0
 21 22  1  0  0  0  0
 21 49  1  0  0  0  0
 21 50  1  0  0  0  0
 23 24  1  0  0  0  0
 23 51  1  0  0  0  0
 23 52  1  0  0  0  0
 24 28  1  0  0  0  0
 24 25  1  0  0  0  0
 24 29  1  0  0  0  0
 25 26  1  0  0  0  0
 25 53  1  0  0  0  0
 25 54  1  0  0  0  0
 26 27  1  0  0  0  0
 26 55  1  0  0  0  0
 26 56  1  0  0  0  0
 27 28  1  0  0  0  0
 28 57  1  0  0  0  0
 28 58  1  0  0  0  0
M  END
> <s_m_source_file>
AV-unprocessed.smi

> <i_m_source_file_index>
229

> <i_lp_mmshare_version>
43012

> <i_f3d_flags>
0

> <s_epik_input>
W0NIMl0xT1tDSDJdW0NIMl1bQ0BdMTJbQ0gyXU4oW0NIMl1bQ0BIXShPMilbQ0gyXVtDSDNdKWMobltjSF1uMyljKGMzNCluW2NIXW40W0NIMl1bQ0BIXShbT0hdKVtDQEBIXTVbQ0gyXVtDSDJdW0NIMl1PNQ==

> <s_epik_cmdline>
J2VwaWtfcHl0aG9uJywgJy1waCcsICc3LjAnLCAnLXRuJywgJzgnLCAnLW1hJywgJzIwMCcsICctbWV0YWxfYmluZGluZycsICctaW1hZScsICc8aW5maWxlLm1hZT4nLCAnLW9tYWUnLCAnPG91dGZpbGUubWFlPic=

> <r_lp_tautomer_probability>
1

> <r_epik_Ionization_Penalty>
0.00318402

> <r_epik_Ionization_Penalty_Charging>
0

> <r_epik_Ionization_Penalty_Neutral>
0.00318402

> <r_epik_State_Penalty>
0.00215642

> <r_epik_Charging_Adjusted_Penalty>
0.00215642

> <i_epik_Tot_Q>
0

> <i_epik_Tot_abs_Q>
0

> <r_epik_Metal_State_Penalty>
-0

> <b_epik_Metal_Only>
0

> <s_lp_Force_Field>
OPLS_2005

> <r_lp_Energy>
55.1094

> <b_lp_Chiralities_Consistent>
1

> <s_lp_Variant>
AV-unprocessed.smi:229-12

> <Gold.Version>
5.8.1

> <Gold.Id.Protein>
6NUR|6NUR_protein|mol2

> <Gold.PLP.Fitness>
53.2057

> <Gold.PLP.PLP>
-48.4479

> <Gold.PLP.part.hbond>
-3.6616

> <Gold.PLP.part.metal>
0.0000

> <Gold.PLP.part.buried>
-0.4266

> <Gold.PLP.part.nonpolar>
-44.7838

> <Gold.PLP.part.repulsive>
0.4481

> <Gold.PLP.ligand.clash>
0.0000

> <Gold.PLP.ligand.torsion>
0.7890

> <Gold.PLP.Chemscore.Hbond>
1.9462

> <Gold.PLP.Chemscore.CHOScore>
0.0000

> <Gold.PLP.Chemscore.Metal>
0.0000

> <Gold.Chemscore.Hbonds>
donor molecule, donor type, donor heavy atom, donor atom, acceptor molecule, acceptor atom, score
      L1  H    17    43       P1 10175  0.70
      P1  H  7989  7998       L1     9  0.19
      P1  H  7997  8009       L1     7  1.00

> <Gold.PLP.Chemscore.Internal.Correction>
0.4972

> <Gold.Rescore>
     Score         DG    S(hbond)    S(metal)    S(lipo)     H(rot)  DE(clash)    DE(int)     intcor
     16.56     -19.12       1.62        0.00     124.06       2.46       0.46       2.10       ----

> <Gold.Chemscore.Fitness>
16.5584

> <Gold.Chemscore.DG>
-19.1192

> <Gold.Chemscore.ZeroCoef>
-5.4800

> <Gold.Chemscore.Hbond>
1.6228

> <Gold.Chemscore.Metal>
0.0000

> <Gold.Chemscore.Lipo>
124.0553

> <Gold.Chemscore.Internal_Hbond>
0.0000

> <Gold.Chemscore.DEClash>
0.4591

> <Gold.Chemscore.DEInternal>
2.1018

> <Gold.Chemscore.Rot>
2.4591

> <Gold.Chemscore.Internal.Correction>
   9.000000E+99

> <Gold.Chemscore.Hbonds>
donor molecule, donor type, donor heavy atom, donor atom, acceptor molecule, acceptor atom, score
      L1  H    17    43       P1 10175  0.70
      P1  H  7997  8009       L1     7  0.50

> <Gold.Chemscore.Hbond.Weighted>
-5.4201

> <Gold.Chemscore.Metal.Weighted>
-0.0000

> <Gold.Chemscore.Lipo.Weighted>
-14.5145

> <Gold.Chemscore.Internal_Hbond.Weighted>
0.0000

> <Gold.Chemscore.DEClash.Weighted>
0.4591

> <Gold.Chemscore.DEInternal.Weighted>
2.1018

> <Gold.Chemscore.Rot.Weighted>
6.2953

> <Gold.Chemscore.Internal.Correction.Weighted>
   9.000000E+99

> <Gold.Protein.RotatedTorsions>
[ 6907 6896 6895 6894 ] final -162.61 input  -60.11 | X-H torsion
[ 7974 7965 7964 7962 ] final  -20.35 input  175.53 | X-H torsion
[ 8008 7997 7996 7995 ] final -158.66 input   59.86 | X-H torsion
[ 10167 10162 10161 10158 ] final  -55.15 input  -65.29 | X-H torsion
[ 10718 10713 10712 10709 ] final  -15.61 input   66.30 | X-H torsion
[ 10763 10752 10751 10750 ] final  137.36 input  -60.55 | X-H torsion
[ 11005 11000 10999 10996 ] final  121.41 input  -57.11 | X-H torsion

> <Gold.Protein.ActiveResidues>
 VAL166  LYS551  ARG553  GLY616  TRP617  ASP618  TYR619  PRO620  LYS621  CYS622 
 ASP623  PHE694  ASN695  SER759  ASP760  ASP761  ALA762  ILE779  LEU786  VAL792 
 PHE793  MET794  SER795  GLU796  ALA797  LYS798  CYS799  TRP800  GLU811  SER814 

> <Gold.Protein.RotatedAtoms>
  151.3830  133.3815  159.2711 H   0  0  0  0  0  0  0  0  0  0  0  0  # atno 6907 bound_to 6896
  150.9563  134.8958  159.7713 H   0  0  0  0  0  0  0  0  0  0  0  0  # atno 6908 bound_to 6896
  152.5132  134.3787  159.9396 H   0  0  0  0  0  0  0  0  0  0  0  0  # atno 6909 bound_to 6896
  146.1792  140.4190  142.8501 H   0  0  0  0  0  0  0  0  0  0  0  0  # atno 7974 bound_to 7965
  155.7508  140.0826  157.2202 H   0  0  0  0  0  0  0  0  0  0  0  0  # atno 8008 bound_to 7997
  154.4012  140.1560  156.2778 H   0  0  0  0  0  0  0  0  0  0  0  0  # atno 8009 bound_to 7997
  155.8932  140.3414  155.5974 H   0  0  0  0  0  0  0  0  0  0  0  0  # atno 8010 bound_to 7997
  140.6391  143.2498  151.5039 H   0  0  0  0  0  0  0  0  0  0  0  0  # atno 10167 bound_to 10162
  156.5992  130.4819  149.6247 H   0  0  0  0  0  0  0  0  0  0  0  0  # atno 10718 bound_to 10713
  153.8718  135.3055  155.3442 H   0  0  0  0  0  0  0  0  0  0  0  0  # atno 10763 bound_to 10752
  154.7802  135.4839  153.9831 H   0  0  0  0  0  0  0  0  0  0  0  0  # atno 10764 bound_to 10752
  153.1402  135.6822  153.9136 H   0  0  0  0  0  0  0  0  0  0  0  0  # atno 10765 bound_to 10752
  139.9224  134.9638  156.7953 H   0  0  0  0  0  0  0  0  0  0  0  0  # atno 11005 bound_to 11000
  144.8287  140.6671  143.6305 LP  0  0  0  0  0  0  0  0  0  0  0  0  # atno 17320 bound_to 7965
  145.4123  139.1578  143.4119 LP  0  0  0  0  0  0  0  0  0  0  0  0  # atno 17321 bound_to 7965
  139.5600  144.2180  152.1676 LP  0  0  0  0  0  0  0  0  0  0  0  0  # atno 17342 bound_to 10162
  140.1445  144.5171  150.6724 LP  0  0  0  0  0  0  0  0  0  0  0  0  # atno 17343 bound_to 10162
  156.2483  130.6892  151.1621 LP  0  0  0  0  0  0  0  0  0  0  0  0  # atno 17370 bound_to 10713
  157.7284  131.0632  150.5823 LP  0  0  0  0  0  0  0  0  0  0  0  0  # atno 17371 bound_to 10713
  140.6434  133.9798  155.7718 LP  0  0  0  0  0  0  0  0  0  0  0  0  # atno 17394 bound_to 11000
  141.0756  134.0139  157.3462 LP  0  0  0  0  0  0  0  0  0  0  0  0  # atno 17395 bound_to 11000

$$$$
