AV-unprocessed.smi:1717|AV-procd|sdf|6919|dock10
  -GOLD-   22720 8123D 1   1.00000     0.00000
 Structure written by MMmdl.
 41 42  0  0  0  0  0  0  0  0  2 V2000
  151.6558  141.7743  158.0645 C   0  0  0  0  0  0  0  0  0  0  0  0
  151.1718  141.1744  156.8304 N   0  0  0  0  0  0  0  0  0  0  0  0
  151.6744  140.0559  156.2896 C   0  0  0  0  0  0  0  0  0  0  0  0
  152.6088  139.4263  156.7869 O   0  0  0  0  0  0  0  0  0  0  0  0
  151.0340  139.5884  154.9787 C   0  0  0  0  0  0  0  0  0  0  0  0
  149.5575  139.4520  155.0720 N   0  3  2  0  0  0  0  0  0  0  0  0
  149.1387  138.0867  155.4797 C   0  0  0  0  0  0  0  0  0  0  0  0
  147.6178  138.0146  155.7101 C   0  0  0  0  0  0  0  0  0  0  0  0
  146.8226  138.4854  154.4800 C   0  0  2  0  0  0  0  0  0  0  0  0
  146.9164  137.4997  153.4030 N   0  0  0  0  0  0  0  0  0  0  0  0
  145.8813  136.8377  152.8661 C   0  0  0  0  0  0  0  0  0  0  0  0
  144.7137  137.0023  153.2180 O   0  0  0  0  0  0  0  0  0  0  0  0
  146.2883  135.9903  151.9074 N   0  0  0  0  0  0  0  0  0  0  0  0
  145.4788  135.1303  151.1236 C   0  0  0  0  0  0  0  0  0  0  0  0
  145.7370  133.7979  150.6859 C   0  0  0  0  0  0  0  0  0  0  0  0
  144.7295  133.3265  149.9650 N   0  0  0  0  0  0  0  0  0  0  0  0
  143.8354  134.3403  149.9371 N   0  0  0  0  0  0  0  0  0  0  0  0
  144.2516  135.4565  150.6284 C   0  0  0  0  0  0  0  0  0  0  0  0
  147.3268  139.8736  154.0369 C   0  0  0  0  0  0  0  0  0  0  0  0
  148.8523  139.8958  153.8400 C   0  0  0  0  0  0  0  0  0  0  0  0
  142.9560  134.2556  149.4471 H   0  0  0  0  0  0  0  0  0  0  0  0
  151.0757  142.6674  158.2967 H   0  0  0  0  0  0  0  0  0  0  0  0
  152.7036  142.0631  157.9715 H   0  0  0  0  0  0  0  0  0  0  0  0
  151.5590  141.0791  158.8996 H   0  0  0  0  0  0  0  0  0  0  0  0
  150.4091  141.6405  156.3601 H   0  0  0  0  0  0  0  0  0  0  0  0
  151.2970  140.2603  154.1599 H   0  0  0  0  0  0  0  0  0  0  0  0
  151.4786  138.6204  154.7444 H   0  0  0  0  0  0  0  0  0  0  0  0
  149.4438  137.3683  154.7173 H   0  0  0  0  0  0  0  0  0  0  0  0
  149.6503  137.8053  156.4009 H   0  0  0  0  0  0  0  0  0  0  0  0
  147.3268  136.9997  155.9840 H   0  0  0  0  0  0  0  0  0  0  0  0
  147.3589  138.6435  156.5631 H   0  0  0  0  0  0  0  0  0  0  0  0
  145.7726  138.5673  154.7673 H   0  0  0  0  0  0  0  0  0  0  0  0
  147.8404  137.2919  153.0538 H   0  0  0  0  0  0  0  0  0  0  0  0
  147.2788  135.9564  151.7164 H   0  0  0  0  0  0  0  0  0  0  0  0
  146.5956  133.1655  150.8564 H   0  0  0  0  0  0  0  0  0  0  0  0
  143.6557  136.3543  150.7035 H   0  0  0  0  0  0  0  0  0  0  0  0
  146.8265  140.1927  153.1219 H   0  0  0  0  0  0  0  0  0  0  0  0
  147.0576  140.6093  154.7961 H   0  0  0  0  0  0  0  0  0  0  0  0
  149.1605  140.9073  153.5744 H   0  0  0  0  0  0  0  0  0  0  0  0
  149.1347  139.2538  153.0041 H   0  0  0  0  0  0  0  0  0  0  0  0
  149.2677  140.0717  155.8158 H   0  0  0  0  0  0  0  0  0  0  0  0
  1  2  1  0  0  0  0
  1 22  1  0  0  0  0
  1 23  1  0  0  0  0
  1 24  1  0  0  0  0
  2  3  1  0  0  0  0
  2 25  1  0  0  0  0
  3  4  2  0  0  0  0
  3  5  1  0  0  0  0
  5  6  1  0  0  0  0
  5 26  1  0  0  0  0
  5 27  1  0  0  0  0
  6 20  1  0  0  0  0
  6  7  1  0  0  0  0
  6 41  1  0  0  0  0
  7  8  1  0  0  0  0
  7 28  1  0  0  0  0
  7 29  1  0  0  0  0
  8  9  1  0  0  0  0
  8 30  1  0  0  0  0
  8 31  1  0  0  0  0
  9 10  1  0  0  0  0
  9 19  1  0  0  0  0
  9 32  1  0  0  0  0
 10 11  1  0  0  0  0
 10 33  1  0  0  0  0
 11 12  2  0  0  0  0
 11 13  1  0  0  0  0
 13 14  1  0  0  0  0
 13 34  1  0  0  0  0
 14 18  2  0  0  0  0
 14 15  1  0  0  0  0
 15 16  2  0  0  0  0
 15 35  1  0  0  0  0
 16 17  1  0  0  0  0
 17 21  1  0  0  0  0
 17 18  1  0  0  0  0
 18 36  1  0  0  0  0
 19 20  1  0  0  0  0
 19 37  1  0  0  0  0
 19 38  1  0  0  0  0
 20 39  1  0  0  0  0
 20 40  1  0  0  0  0
M  CHG  1   6   1
M  END
> <s_m_source_file>
AV-unprocessed.smi

> <i_m_source_file_index>
1717

> <i_lp_mmshare_version>
43012

> <i_f3d_flags>
0

> <s_epik_input>
W0NIM11bTkhdQyg9TylbQ0gyXU4xW0NIMl1bQ0gyXVtDSF0oW0NIMl1bQ0gyXTEpW05IXUMoPU8pW05IXWMyW2NIXW5bbkhdW2NIXTI=

> <s_epik_cmdline>
J2VwaWtfcHl0aG9uJywgJy1waCcsICc3LjAnLCAnLXRuJywgJzgnLCAnLW1hJywgJzIwMCcsICctbWV0YWxfYmluZGluZycsICctaW1hZScsICc8aW5maWxlLm1hZT4nLCAnLW9tYWUnLCAnPG91dGZpbGUubWFlPic=

> <r_lp_tautomer_probability>
0.5

> <r_epik_Ionization_Penalty>
0.838906

> <r_epik_Ionization_Penalty_Charging>
0.838844

> <r_epik_Ionization_Penalty_Neutral>
6.24243e-05

> <r_epik_State_Penalty>
0.8734

> <r_epik_Charging_Adjusted_Penalty>
1.71224

> <i_epik_Tot_Q>
1

> <i_epik_Tot_abs_Q>
1

> <r_epik_Metal_State_Penalty>
0.877921

> <b_epik_Metal_Only>
0

> <s_lp_Force_Field>
OPLS_2005

> <r_lp_Energy>
16.7427

> <b_lp_Chiralities_Consistent>
1

> <s_lp_Variant>
AV-unprocessed.smi:1717-3

> <Gold.Version>
5.8.1

> <Gold.Id.Protein>
6NUR|6NUR_protein|mol2

> <Gold.PLP.Fitness>
37.4039

> <Gold.PLP.PLP>
-24.1429

> <Gold.PLP.part.hbond>
-4.0000

> <Gold.PLP.part.metal>
0.0000

> <Gold.PLP.part.buried>
-1.7540

> <Gold.PLP.part.nonpolar>
-19.2728

> <Gold.PLP.part.repulsive>
0.5335

> <Gold.PLP.ligand.clash>
0.0000

> <Gold.PLP.ligand.torsion>
0.8112

> <Gold.PLP.Chemscore.Hbond>
3.9520

> <Gold.PLP.Chemscore.CHOScore>
1.0000

> <Gold.PLP.Chemscore.Metal>
0.0000

> <Gold.Chemscore.Hbonds>
donor molecule, donor type, donor heavy atom, donor atom, acceptor molecule, acceptor atom, score
      L1  H    10    33       P1  7948  0.96
      L1  H    13    34       P1  7948  1.00
      L1  H    17    21       P1 10186  0.93
      P1  H  7997  8009       L1     4  1.00
      L1  C    18    36       P1 10171  1.00

> <Gold.PLP.Chemscore.Internal.Correction>
0.0274

> <Gold.Rescore>
     Score         DG    S(hbond)    S(metal)    S(lipo)     H(rot)  DE(clash)    DE(int)     intcor
     17.04     -19.62       3.83        0.00      51.07       1.81       1.63       0.95       ----

> <Gold.Chemscore.Fitness>
17.0372

> <Gold.Chemscore.DG>
-19.6178

> <Gold.Chemscore.ZeroCoef>
-5.4800

> <Gold.Chemscore.Hbond>
3.8310

> <Gold.Chemscore.Metal>
0.0000

> <Gold.Chemscore.Lipo>
51.0652

> <Gold.Chemscore.Internal_Hbond>
0.0000

> <Gold.Chemscore.DEClash>
1.6294

> <Gold.Chemscore.DEInternal>
0.9512

> <Gold.Chemscore.Rot>
1.8096

> <Gold.Chemscore.Internal.Correction>
   9.000000E+99

> <Gold.Chemscore.Hbonds>
donor molecule, donor type, donor heavy atom, donor atom, acceptor molecule, acceptor atom, score
      L1  H    10    33       P1  7948  0.91
      L1  H    13    34       P1  7948  1.00
      L1  H    17    21       P1 10186  0.90
      P1  H  7997  8009       L1     4  0.93

> <Gold.Chemscore.Hbond.Weighted>
-12.7957

> <Gold.Chemscore.Metal.Weighted>
-0.0000

> <Gold.Chemscore.Lipo.Weighted>
-5.9746

> <Gold.Chemscore.Internal_Hbond.Weighted>
0.0000

> <Gold.Chemscore.DEClash.Weighted>
1.6294

> <Gold.Chemscore.DEInternal.Weighted>
0.9512

> <Gold.Chemscore.Rot.Weighted>
4.6325

> <Gold.Chemscore.Internal.Correction.Weighted>
   9.000000E+99

> <Gold.Protein.RotatedTorsions>
[ 6907 6896 6895 6894 ] final  165.50 input  -60.11 | X-H torsion
[ 7974 7965 7964 7962 ] final   -7.69 input  175.53 | X-H torsion
[ 8008 7997 7996 7995 ] final -168.41 input   59.86 | X-H torsion
[ 10167 10162 10161 10158 ] final -178.76 input  -65.29 | X-H torsion
[ 10718 10713 10712 10709 ] final  -34.44 input   66.30 | X-H torsion
[ 10763 10752 10751 10750 ] final -153.02 input  -60.55 | X-H torsion
[ 11005 11000 10999 10996 ] final  -69.18 input  -57.11 | X-H torsion

> <Gold.Protein.ActiveResidues>
 VAL166  LYS551  ARG553  GLY616  TRP617  ASP618  TYR619  PRO620  LYS621  CYS622 
 ASP623  PHE694  ASN695  SER759  ASP760  ASP761  ALA762  ILE779  LEU786  VAL792 
 PHE793  MET794  SER795  GLU796  ALA797  LYS798  CYS799  TRP800  GLU811  SER814 

> <Gold.Protein.RotatedAtoms>
  151.8934  133.3521  159.3805 H   0  0  0  0  0  0  0  0  0  0  0  0  # atno 6907 bound_to 6896
  150.7097  134.4901  159.5521 H   0  0  0  0  0  0  0  0  0  0  0  0  # atno 6908 bound_to 6896
  152.2475  134.8166  160.0502 H   0  0  0  0  0  0  0  0  0  0  0  0  # atno 6909 bound_to 6896
  146.2300  140.2357  142.8341 H   0  0  0  0  0  0  0  0  0  0  0  0  # atno 7974 bound_to 7965
  155.8910  140.1025  157.1418 H   0  0  0  0  0  0  0  0  0  0  0  0  # atno 8008 bound_to 7997
  154.4015  140.1311  156.4380 H   0  0  0  0  0  0  0  0  0  0  0  0  # atno 8009 bound_to 7997
  155.7533  140.3464  155.5164 H   0  0  0  0  0  0  0  0  0  0  0  0  # atno 8010 bound_to 7997
  139.5417  144.2344  152.0909 H   0  0  0  0  0  0  0  0  0  0  0  0  # atno 10167 bound_to 10162
  156.3505  130.4307  149.7708 H   0  0  0  0  0  0  0  0  0  0  0  0  # atno 10718 bound_to 10713
  154.7956  135.3222  154.7675 H   0  0  0  0  0  0  0  0  0  0  0  0  # atno 10763 bound_to 10752
  153.8355  135.6875  153.4813 H   0  0  0  0  0  0  0  0  0  0  0  0  # atno 10764 bound_to 10752
  153.1645  135.4647  154.9760 H   0  0  0  0  0  0  0  0  0  0  0  0  # atno 10765 bound_to 10752
  141.1548  133.6758  156.6560 H   0  0  0  0  0  0  0  0  0  0  0  0  # atno 11005 bound_to 11000
  144.9523  140.8191  143.5564 LP  0  0  0  0  0  0  0  0  0  0  0  0  # atno 17320 bound_to 7965
  145.2319  139.2111  143.5038 LP  0  0  0  0  0  0  0  0  0  0  0  0  # atno 17321 bound_to 7965
  140.1824  144.4831  150.6521 LP  0  0  0  0  0  0  0  0  0  0  0  0  # atno 17342 bound_to 10162
  140.6650  143.2265  151.5765 LP  0  0  0  0  0  0  0  0  0  0  0  0  # atno 17343 bound_to 10162
  156.4911  130.8085  151.3095 LP  0  0  0  0  0  0  0  0  0  0  0  0  # atno 17370 bound_to 10713
  157.7460  130.9975  150.2818 LP  0  0  0  0  0  0  0  0  0  0  0  0  # atno 17371 bound_to 10713
  140.3283  134.7950  157.4307 LP  0  0  0  0  0  0  0  0  0  0  0  0  # atno 17394 bound_to 11000
  140.1038  134.5437  155.8328 LP  0  0  0  0  0  0  0  0  0  0  0  0  # atno 17395 bound_to 11000

$$$$
