AV-unprocessed.smi:3002|AV-procd|sdf|11436|dock6
  -GOLD-   2272016363D 1   1.00000     0.00000
 Structure written by MMmdl.
 34 35  0  0  0  0  0  0  0  0  1 V2000
  144.5598  134.2244  152.9890 C   0  0  0  0  0  0  0  0  0  0  0  0
  145.6698  133.7817  152.0140 C   0  0  1  0  0  0  0  0  0  0  0  0
  146.7732  132.9698  152.7090 C   0  0  0  0  0  0  0  0  0  0  0  0
  146.5343  131.8559  153.1767 O   0  0  0  0  0  0  0  0  0  0  0  0
  147.9838  133.5460  152.7732 N   0  0  0  0  0  0  0  0  0  0  0  0
  149.1601  132.9575  153.4044 C   0  0  0  0  0  0  0  0  0  0  0  0
  149.4304  133.5553  154.7994 C   0  0  1  0  0  0  0  0  0  0  0  0
  150.6289  132.8908  155.5037 C   0  0  0  0  0  0  0  0  0  0  0  0
  150.9838  133.7163  156.7444 C   0  0  0  0  0  0  0  0  0  0  0  0
  150.6336  135.4568  156.2948 S   0  0  0  0  0  0  0  0  0  0  0  0
  149.7386  136.0423  157.3043 O   0  0  0  0  0  0  0  0  0  0  0  0
  151.8855  136.1270  155.9118 O   0  0  0  0  0  0  0  0  0  0  0  0
  149.6791  135.0735  154.7779 C   0  0  0  0  0  0  0  0  0  0  0  0
  145.1448  133.0424  150.8730 N   0  0  0  0  0  0  0  0  0  0  0  0
  143.8928  132.6718  150.5947 C   0  0  0  0  0  0  0  0  0  0  0  0
  143.7611  132.0449  149.4341 N   0  0  0  0  0  0  0  0  0  0  0  0
  145.0595  132.0755  149.0104 C   0  0  0  0  0  0  0  0  0  0  0  0
  145.9267  132.6715  149.8282 N   0  0  0  0  0  0  0  0  0  0  0  0
  144.9706  134.8166  153.8074 H   0  0  0  0  0  0  0  0  0  0  0  0
  144.0348  133.3753  153.4282 H   0  0  0  0  0  0  0  0  0  0  0  0
  143.8196  134.8420  152.4795 H   0  0  0  0  0  0  0  0  0  0  0  0
  146.1297  134.6899  151.6203 H   0  0  0  0  0  0  0  0  0  0  0  0
  148.0962  134.4625  152.3648 H   0  0  0  0  0  0  0  0  0  0  0  0
  149.0411  131.8747  153.4715 H   0  0  0  0  0  0  0  0  0  0  0  0
  150.0146  133.1324  152.7501 H   0  0  0  0  0  0  0  0  0  0  0  0
  148.5575  133.3782  155.4294 H   0  0  0  0  0  0  0  0  0  0  0  0
  150.4203  131.8525  155.7634 H   0  0  0  0  0  0  0  0  0  0  0  0
  151.4853  132.8845  154.8280 H   0  0  0  0  0  0  0  0  0  0  0  0
  150.3408  133.4488  157.5834 H   0  0  0  0  0  0  0  0  0  0  0  0
  152.0240  133.6054  157.0512 H   0  0  0  0  0  0  0  0  0  0  0  0
  150.2880  135.3610  153.9205 H   0  0  0  0  0  0  0  0  0  0  0  0
  148.7568  135.6546  154.7596 H   0  0  0  0  0  0  0  0  0  0  0  0
  143.0595  132.8676  151.2535 H   0  0  0  0  0  0  0  0  0  0  0  0
  145.3738  131.6519  148.0679 H   0  0  0  0  0  0  0  0  0  0  0  0
  1  2  1  0  0  0  0
  1 19  1  0  0  0  0
  1 20  1  0  0  0  0
  1 21  1  0  0  0  0
  2  3  1  0  0  0  0
  2 14  1  0  0  0  0
  2 22  1  0  0  0  0
  3  4  2  0  0  0  0
  3  5  1  0  0  0  0
  5  6  1  0  0  0  0
  5 23  1  0  0  0  0
  6  7  1  0  0  0  0
  6 24  1  0  0  0  0
  6 25  1  0  0  0  0
  7 13  1  0  0  0  0
  7  8  1  0  0  0  0
  7 26  1  0  0  0  0
  8  9  1  0  0  0  0
  8 27  1  0  0  0  0
  8 28  1  0  0  0  0
  9 10  1  0  0  0  0
  9 29  1  0  0  0  0
  9 30  1  0  0  0  0
 10 11  2  0  0  0  0
 10 12  2  0  0  0  0
 10 13  1  0  0  0  0
 13 31  1  0  0  0  0
 13 32  1  0  0  0  0
 14 18  1  0  0  0  0
 14 15  1  0  0  0  0
 15 16  2  0  0  0  0
 15 33  1  0  0  0  0
 16 17  1  0  0  0  0
 17 18  2  0  0  0  0
 17 34  1  0  0  0  0
M  END
> <s_m_source_file>
AV-unprocessed.smi

> <i_m_source_file_index>
3002

> <i_lp_mmshare_version>
43012

> <i_f3d_flags>
0

> <s_epik_input>
bjFbY0hdbltjSF1uMVtDQEhdKFtDSDNdKUMoPU8pW05IXVtDSDJdW0NAQEhdKFtDSDJdMilbQ0gyXVtDSDJdUzIoPU8pPU8=

> <s_epik_cmdline>
J2VwaWtfcHl0aG9uJywgJy1waCcsICc3LjAnLCAnLXRuJywgJzgnLCAnLW1hJywgJzIwMCcsICctbWV0YWxfYmluZGluZycsICctaW1hZScsICc8aW5maWxlLm1hZT4nLCAnLW9tYWUnLCAnPG91dGZpbGUubWFlPic=

> <r_lp_tautomer_probability>
1

> <r_epik_Ionization_Penalty>
1.1748e-05

> <r_epik_Ionization_Penalty_Charging>
0

> <r_epik_Ionization_Penalty_Neutral>
1.1748e-05

> <r_epik_State_Penalty>
-0

> <r_epik_Charging_Adjusted_Penalty>
0

> <i_epik_Tot_Q>
0

> <i_epik_Tot_abs_Q>
0

> <r_epik_Metal_State_Penalty>
-0

> <b_epik_Metal_Only>
0

> <s_lp_Force_Field>
OPLS_2005

> <r_lp_Energy>
7.1985

> <b_lp_Chiralities_Consistent>
1

> <s_lp_Variant>
AV-unprocessed.smi:3002-4

> <Gold.Version>
5.8.1

> <Gold.Id.Protein>
6NUR|6NUR_protein|mol2

> <Gold.PLP.Fitness>
35.3954

> <Gold.PLP.PLP>
-27.6393

> <Gold.PLP.part.hbond>
-3.0000

> <Gold.PLP.part.metal>
0.0000

> <Gold.PLP.part.buried>
-3.8957

> <Gold.PLP.part.nonpolar>
-21.9656

> <Gold.PLP.part.repulsive>
1.0812

> <Gold.PLP.ligand.clash>
0.0000

> <Gold.PLP.ligand.torsion>
0.2059

> <Gold.PLP.Chemscore.Hbond>
2.6880

> <Gold.PLP.Chemscore.CHOScore>
0.0000

> <Gold.PLP.Chemscore.Metal>
0.0000

> <Gold.Chemscore.Hbonds>
donor molecule, donor type, donor heavy atom, donor atom, acceptor molecule, acceptor atom, score
      L1  H     5    23       P1  7948  1.00
      P1  H 10752 10763       L1    12  1.00
      P1  H 10785 10796       L1    16  0.68

> <Gold.PLP.Chemscore.Internal.Correction>
0.1040

> <Gold.Rescore>
     Score         DG    S(hbond)    S(metal)    S(lipo)     H(rot)  DE(clash)    DE(int)     intcor
     10.13     -10.63       2.14        0.00      35.20       2.39       0.28       0.22       ----

> <Gold.Chemscore.Fitness>
10.1325

> <Gold.Chemscore.DG>
-10.6305

> <Gold.Chemscore.ZeroCoef>
-5.4800

> <Gold.Chemscore.Hbond>
2.1442

> <Gold.Chemscore.Metal>
0.0000

> <Gold.Chemscore.Lipo>
35.2040

> <Gold.Chemscore.Internal_Hbond>
0.0000

> <Gold.Chemscore.DEClash>
0.2829

> <Gold.Chemscore.DEInternal>
0.2151

> <Gold.Chemscore.Rot>
2.3946

> <Gold.Chemscore.Internal.Correction>
   9.000000E+99

> <Gold.Chemscore.Hbonds>
donor molecule, donor type, donor heavy atom, donor atom, acceptor molecule, acceptor atom, score
      L1  H     5    23       P1  7948  0.25
      P1  H 10752 10763       L1    12  0.99
      P1  H 10785 10796       L1    16  0.15

> <Gold.Chemscore.Hbond.Weighted>
-7.1617

> <Gold.Chemscore.Metal.Weighted>
-0.0000

> <Gold.Chemscore.Lipo.Weighted>
-4.1189

> <Gold.Chemscore.Internal_Hbond.Weighted>
0.0000

> <Gold.Chemscore.DEClash.Weighted>
0.2829

> <Gold.Chemscore.DEInternal.Weighted>
0.2151

> <Gold.Chemscore.Rot.Weighted>
6.1301

> <Gold.Chemscore.Internal.Correction.Weighted>
   9.000000E+99

> <Gold.Protein.RotatedTorsions>
[ 6907 6896 6895 6894 ] final  179.27 input  -60.11 | X-H torsion
[ 7974 7965 7964 7962 ] final   75.32 input  175.53 | X-H torsion
[ 8008 7997 7996 7995 ] final  -48.72 input   59.86 | X-H torsion
[ 10167 10162 10161 10158 ] final  112.89 input  -65.29 | X-H torsion
[ 10718 10713 10712 10709 ] final -127.00 input   66.30 | X-H torsion
[ 10763 10752 10751 10750 ] final   68.44 input  -60.55 | X-H torsion
[ 11005 11000 10999 10996 ] final  -37.03 input  -57.11 | X-H torsion

> <Gold.Protein.ActiveResidues>
 VAL166  LYS551  ARG553  GLY616  TRP617  ASP618  TYR619  PRO620  LYS621  CYS622 
 ASP623  PHE694  ASN695  SER759  ASP760  ASP761  ALA762  ILE779  LEU786  VAL792 
 PHE793  MET794  SER795  GLU796  ALA797  LYS798  CYS799  TRP800  GLU811  SER814 

> <Gold.Protein.RotatedAtoms>
  151.6744  133.3313  159.3204 H   0  0  0  0  0  0  0  0  0  0  0  0  # atno 6907 bound_to 6896
  150.7852  134.6834  159.6466 H   0  0  0  0  0  0  0  0  0  0  0  0  # atno 6908 bound_to 6896
  152.3920  134.6429  160.0156 H   0  0  0  0  0  0  0  0  0  0  0  0  # atno 6909 bound_to 6896
  145.7170  139.2635  143.1618 H   0  0  0  0  0  0  0  0  0  0  0  0  # atno 7974 bound_to 7965
  154.4033  140.1314  156.4385 H   0  0  0  0  0  0  0  0  0  0  0  0  # atno 8008 bound_to 7997
  155.7482  140.3488  155.5117 H   0  0  0  0  0  0  0  0  0  0  0  0  # atno 8009 bound_to 7997
  155.8975  140.1013  157.1364 H   0  0  0  0  0  0  0  0  0  0  0  0  # atno 8010 bound_to 7997
  139.6502  144.7128  151.2064 H   0  0  0  0  0  0  0  0  0  0  0  0  # atno 10167 bound_to 10162
  156.1817  130.6736  151.0313 H   0  0  0  0  0  0  0  0  0  0  0  0  # atno 10718 bound_to 10713
  153.0235  135.5247  154.7134 H   0  0  0  0  0  0  0  0  0  0  0  0  # atno 10763 bound_to 10752
  154.6210  135.2889  155.0328 H   0  0  0  0  0  0  0  0  0  0  0  0  # atno 10764 bound_to 10752
  154.1315  135.6592  153.4975 H   0  0  0  0  0  0  0  0  0  0  0  0  # atno 10765 bound_to 10752
  140.9920  133.7000  156.1867 H   0  0  0  0  0  0  0  0  0  0  0  0  # atno 11005 bound_to 11000
  146.0660  140.7920  142.9711 LP  0  0  0  0  0  0  0  0  0  0  0  0  # atno 17320 bound_to 7965
  144.6926  140.3270  143.7222 LP  0  0  0  0  0  0  0  0  0  0  0  0  # atno 17321 bound_to 7965
  140.7534  143.6163  150.8556 LP  0  0  0  0  0  0  0  0  0  0  0  0  # atno 17342 bound_to 10162
  139.9811  143.5950  152.2942 LP  0  0  0  0  0  0  0  0  0  0  0  0  # atno 17343 bound_to 10162
  157.6872  131.0821  150.7209 LP  0  0  0  0  0  0  0  0  0  0  0  0  # atno 17370 bound_to 10713
  156.7266  130.4697  149.5510 LP  0  0  0  0  0  0  0  0  0  0  0  0  # atno 17371 bound_to 10713
  140.7025  134.4549  157.5585 LP  0  0  0  0  0  0  0  0  0  0  0  0  # atno 17394 bound_to 11000
  139.8997  134.8586  156.1950 LP  0  0  0  0  0  0  0  0  0  0  0  0  # atno 17395 bound_to 11000

$$$$
