AV-unprocessed.smi:1041|AV-procd|sdf|4529|dock6
  -GOLD-   22720 2553D 1   1.00000     0.00000
 Structure written by MMmdl.
 53 54  0  0  0  0  0  0  0  0  2 V2000
  143.3252  136.2651  153.0711 C   0  0  0  0  0  0  0  0  0  0  0  0
  143.3208  136.4866  154.4706 O   0  0  0  0  0  0  0  0  0  0  0  0
  143.8330  137.7614  154.8216 C   0  0  0  0  0  0  0  0  0  0  0  0
  145.2968  137.8497  154.3626 C   0  0  0  0  0  0  0  0  0  0  0  0
  145.7135  139.2432  154.0640 N   0  3  2  0  0  0  0  0  0  0  0  0
  146.6975  139.3108  152.9528 C   0  0  0  0  0  0  0  0  0  0  0  0
  147.0184  140.7692  152.5742 C   0  0  0  0  0  0  0  0  0  0  0  0
  147.5064  141.5923  153.7810 C   0  0  2  0  0  0  0  0  0  0  0  0
  148.9547  141.2281  154.1848 C   0  0  0  0  0  0  0  0  0  0  0  0
  149.3661  141.9121  155.4057 N   0  0  0  0  0  0  0  0  0  0  0  0
  150.3551  141.5200  156.2241 C   0  0  0  0  0  0  0  0  0  0  0  0
  151.0862  140.5565  155.9978 O   0  0  0  0  0  0  0  0  0  0  0  0
  150.5162  142.3198  157.5157 C   0  0  0  0  0  0  0  0  0  0  0  0
  151.5810  141.7807  158.4687 C   0  0  0  0  0  0  0  0  0  0  0  0
  151.6002  140.4909  158.9171 C   0  0  0  0  0  0  0  0  0  0  0  0
  150.5684  139.4558  158.5032 C   0  0  0  0  0  0  0  0  0  0  0  0
  152.5903  140.0347  159.7983 N   0  0  0  0  0  0  0  0  0  0  0  0
  153.5017  140.8614  160.1927 C   0  0  0  0  0  0  0  0  0  0  0  0
  154.6250  140.4924  161.1386 C   0  0  0  0  0  0  0  0  0  0  0  0
  153.5349  142.1919  159.7791 N   0  0  0  0  0  0  0  0  0  0  0  0
  152.6209  142.7189  158.9341 C   0  0  0  0  0  0  0  0  0  0  0  0
  152.6828  143.9043  158.6114 O   0  0  0  0  0  0  0  0  0  0  0  0
  146.4712  141.4578  154.9179 C   0  0  0  0  0  0  0  0  0  0  0  0
  146.1841  139.9870  155.2623 C   0  0  0  0  0  0  0  0  0  0  0  0
  154.2685  142.7937  160.1240 H   0  0  0  0  0  0  0  0  0  0  0  0
  142.9179  135.2774  152.8552 H   0  0  0  0  0  0  0  0  0  0  0  0
  144.3385  136.3060  152.6692 H   0  0  0  0  0  0  0  0  0  0  0  0
  142.7119  137.0031  152.5523 H   0  0  0  0  0  0  0  0  0  0  0  0
  143.2265  138.5557  154.3861 H   0  0  0  0  0  0  0  0  0  0  0  0
  143.7866  137.8840  155.9047 H   0  0  0  0  0  0  0  0  0  0  0  0
  145.9607  137.4217  155.1148 H   0  0  0  0  0  0  0  0  0  0  0  0
  145.4061  137.2317  153.4701 H   0  0  0  0  0  0  0  0  0  0  0  0
  147.6051  138.7751  153.2333 H   0  0  0  0  0  0  0  0  0  0  0  0
  146.2934  138.8010  152.0773 H   0  0  0  0  0  0  0  0  0  0  0  0
  147.7593  140.7937  151.7743 H   0  0  0  0  0  0  0  0  0  0  0  0
  146.1196  141.2332  152.1655 H   0  0  0  0  0  0  0  0  0  0  0  0
  147.5221  142.6404  153.4780 H   0  0  0  0  0  0  0  0  0  0  0  0
  149.0765  140.1491  154.2834 H   0  0  0  0  0  0  0  0  0  0  0  0
  149.6401  141.5324  153.3932 H   0  0  0  0  0  0  0  0  0  0  0  0
  148.8220  142.7181  155.6796 H   0  0  0  0  0  0  0  0  0  0  0  0
  150.7499  143.3505  157.2498 H   0  0  0  0  0  0  0  0  0  0  0  0
  149.5534  142.3819  158.0257 H   0  0  0  0  0  0  0  0  0  0  0  0
  150.6083  139.2832  157.4274 H   0  0  0  0  0  0  0  0  0  0  0  0
  149.5639  139.7853  158.7666 H   0  0  0  0  0  0  0  0  0  0  0  0
  150.7449  138.5007  158.9992 H   0  0  0  0  0  0  0  0  0  0  0  0
  154.2172  140.1481  162.0893 H   0  0  0  0  0  0  0  0  0  0  0  0
  155.2819  141.3408  161.3357 H   0  0  0  0  0  0  0  0  0  0  0  0
  155.2252  139.6886  160.7116 H   0  0  0  0  0  0  0  0  0  0  0  0
  146.7892  141.9986  155.8092 H   0  0  0  0  0  0  0  0  0  0  0  0
  145.5397  141.9328  154.6074 H   0  0  0  0  0  0  0  0  0  0  0  0
  145.4306  139.9556  156.0479 H   0  0  0  0  0  0  0  0  0  0  0  0
  147.0760  139.5075  155.6674 H   0  0  0  0  0  0  0  0  0  0  0  0
  144.8865  139.7179  153.7302 H   0  0  0  0  0  0  0  0  0  0  0  0
  1  2  1  0  0  0  0
  1 26  1  0  0  0  0
  1 27  1  0  0  0  0
  1 28  1  0  0  0  0
  2  3  1  0  0  0  0
  3  4  1  0  0  0  0
  3 29  1  0  0  0  0
  3 30  1  0  0  0  0
  4  5  1  0  0  0  0
  4 31  1  0  0  0  0
  4 32  1  0  0  0  0
  5 24  1  0  0  0  0
  5  6  1  0  0  0  0
  5 53  1  0  0  0  0
  6  7  1  0  0  0  0
  6 33  1  0  0  0  0
  6 34  1  0  0  0  0
  7  8  1  0  0  0  0
  7 35  1  0  0  0  0
  7 36  1  0  0  0  0
  8  9  1  0  0  0  0
  8 23  1  0  0  0  0
  8 37  1  0  0  0  0
  9 10  1  0  0  0  0
  9 38  1  0  0  0  0
  9 39  1  0  0  0  0
 10 11  1  0  0  0  0
 10 40  1  0  0  0  0
 11 12  2  0  0  0  0
 11 13  1  0  0  0  0
 13 14  1  0  0  0  0
 13 41  1  0  0  0  0
 13 42  1  0  0  0  0
 14 21  1  0  0  0  0
 14 15  2  0  0  0  0
 15 16  1  0  0  0  0
 15 17  1  0  0  0  0
 16 43  1  0  0  0  0
 16 44  1  0  0  0  0
 16 45  1  0  0  0  0
 17 18  2  0  0  0  0
 18 19  1  0  0  0  0
 18 20  1  0  0  0  0
 19 46  1  0  0  0  0
 19 47  1  0  0  0  0
 19 48  1  0  0  0  0
 20 25  1  0  0  0  0
 20 21  1  0  0  0  0
 21 22  2  0  0  0  0
 23 24  1  0  0  0  0
 23 49  1  0  0  0  0
 23 50  1  0  0  0  0
 24 51  1  0  0  0  0
 24 52  1  0  0  0  0
M  CHG  1   5   1
M  END
> <s_m_source_file>
AV-unprocessed.smi

> <i_m_source_file_index>
1041

> <i_lp_mmshare_version>
43012

> <i_f3d_flags>
0

> <s_epik_input>
W0NIM11PW0NIMl1bQ0gyXU4xW0NIMl1bQ0gyXVtDSF0oW0NIMl1bQ0gyXTEpW0NIMl1bTkhdQyg9TylbQ0gyXWMyYyhbQ0gzXSluYyhbQ0gzXSlbbkhdYzI9Tw==

> <s_epik_cmdline>
J2VwaWtfcHl0aG9uJywgJy1waCcsICc3LjAnLCAnLXRuJywgJzgnLCAnLW1hJywgJzIwMCcsICctbWV0YWxfYmluZGluZycsICctaW1hZScsICc8aW5maWxlLm1hZT4nLCAnLW9tYWUnLCAnPG91dGZpbGUubWFlPic=

> <r_lp_tautomer_probability>
0.839158

> <r_epik_Ionization_Penalty>
0.00964357

> <r_epik_Ionization_Penalty_Charging>
0.00961423

> <r_epik_Ionization_Penalty_Neutral>
2.93415e-05

> <r_epik_State_Penalty>
0.0972512

> <r_epik_Charging_Adjusted_Penalty>
0.106865

> <i_epik_Tot_Q>
1

> <i_epik_Tot_abs_Q>
1

> <r_epik_Metal_State_Penalty>
0.270886

> <b_epik_Metal_Only>
0

> <s_lp_Force_Field>
OPLS_2005

> <r_lp_Energy>
21.6557

> <b_lp_Chiralities_Consistent>
1

> <s_lp_Variant>
AV-unprocessed.smi:1041-2

> <Gold.Version>
5.8.1

> <Gold.Id.Protein>
6NUR|6NUR_protein|mol2

> <Gold.PLP.Fitness>
44.4668

> <Gold.PLP.PLP>
-37.2779

> <Gold.PLP.part.hbond>
-2.5883

> <Gold.PLP.part.metal>
0.0000

> <Gold.PLP.part.buried>
-4.7582

> <Gold.PLP.part.nonpolar>
-29.6089

> <Gold.PLP.part.repulsive>
0.3001

> <Gold.PLP.ligand.clash>
0.0000

> <Gold.PLP.ligand.torsion>
0.7767

> <Gold.PLP.Chemscore.Hbond>
2.8714

> <Gold.PLP.Chemscore.CHOScore>
0.0000

> <Gold.PLP.Chemscore.Metal>
0.0000

> <Gold.Chemscore.Hbonds>
donor molecule, donor type, donor heavy atom, donor atom, acceptor molecule, acceptor atom, score
      L1  H     5    53       P1 10175  2.00
      L1  H    10    40       P1  8028  0.83

> <Gold.PLP.Chemscore.Internal.Correction>
0.1280

> <Gold.Rescore>
     Score         DG    S(hbond)    S(metal)    S(lipo)     H(rot)  DE(clash)    DE(int)     intcor
     11.24     -15.46       1.94        0.00      83.18       2.43       3.46       0.76       ----

> <Gold.Chemscore.Fitness>
11.2362

> <Gold.Chemscore.DG>
-15.4575

> <Gold.Chemscore.ZeroCoef>
-5.4800

> <Gold.Chemscore.Hbond>
1.9355

> <Gold.Chemscore.Metal>
0.0000

> <Gold.Chemscore.Lipo>
83.1756

> <Gold.Chemscore.Internal_Hbond>
0.0000

> <Gold.Chemscore.DEClash>
3.4587

> <Gold.Chemscore.DEInternal>
0.7625

> <Gold.Chemscore.Rot>
2.4291

> <Gold.Chemscore.Internal.Correction>
   9.000000E+99

> <Gold.Chemscore.Hbonds>
donor molecule, donor type, donor heavy atom, donor atom, acceptor molecule, acceptor atom, score
      L1  H     5    53       P1 10175  0.99
      L1  H    10    40       P1  8028  0.79

> <Gold.Chemscore.Hbond.Weighted>
-6.4645

> <Gold.Chemscore.Metal.Weighted>
-0.0000

> <Gold.Chemscore.Lipo.Weighted>
-9.7315

> <Gold.Chemscore.Internal_Hbond.Weighted>
0.0000

> <Gold.Chemscore.DEClash.Weighted>
3.4587

> <Gold.Chemscore.DEInternal.Weighted>
0.7625

> <Gold.Chemscore.Rot.Weighted>
6.2186

> <Gold.Chemscore.Internal.Correction.Weighted>
   9.000000E+99

> <Gold.Protein.RotatedTorsions>
[ 6907 6896 6895 6894 ] final  150.81 input  -60.11 | X-H torsion
[ 7974 7965 7964 7962 ] final   17.20 input  175.53 | X-H torsion
[ 8008 7997 7996 7995 ] final   22.62 input   59.86 | X-H torsion
[ 10167 10162 10161 10158 ] final  139.80 input  -65.29 | X-H torsion
[ 10718 10713 10712 10709 ] final  129.26 input   66.30 | X-H torsion
[ 10763 10752 10751 10750 ] final  101.50 input  -60.55 | X-H torsion
[ 11005 11000 10999 10996 ] final  155.15 input  -57.11 | X-H torsion

> <Gold.Protein.ActiveResidues>
 VAL166  LYS551  ARG553  GLY616  TRP617  ASP618  TYR619  PRO620  LYS621  CYS622 
 ASP623  PHE694  ASN695  SER759  ASP760  ASP761  ALA762  ILE779  LEU786  VAL792 
 PHE793  MET794  SER795  GLU796  ALA797  LYS798  CYS799  TRP800  GLU811  SER814 

> <Gold.Protein.RotatedAtoms>
  152.1093  133.4292  159.4623 H   0  0  0  0  0  0  0  0  0  0  0  0  # atno 6907 bound_to 6896
  150.6866  134.2667  159.4580 H   0  0  0  0  0  0  0  0  0  0  0  0  # atno 6908 bound_to 6896
  152.0534  134.9639  160.0625 H   0  0  0  0  0  0  0  0  0  0  0  0  # atno 6909 bound_to 6896
  146.2226  139.8637  142.8600 H   0  0  0  0  0  0  0  0  0  0  0  0  # atno 7974 bound_to 7965
  154.9684  140.3087  155.4999 H   0  0  0  0  0  0  0  0  0  0  0  0  # atno 8008 bound_to 7997
  156.2969  140.2288  156.4714 H   0  0  0  0  0  0  0  0  0  0  0  0  # atno 8009 bound_to 7997
  154.7899  140.0440  157.1181 H   0  0  0  0  0  0  0  0  0  0  0  0  # atno 8010 bound_to 7997
  139.5068  144.6273  151.5905 H   0  0  0  0  0  0  0  0  0  0  0  0  # atno 10167 bound_to 10162
  157.5170  131.1097  150.9210 H   0  0  0  0  0  0  0  0  0  0  0  0  # atno 10718 bound_to 10713
  153.3275  135.4042  155.1468 H   0  0  0  0  0  0  0  0  0  0  0  0  # atno 10763 bound_to 10752
  154.8615  135.3602  154.5515 H   0  0  0  0  0  0  0  0  0  0  0  0  # atno 10764 bound_to 10752
  153.5951  135.7072  153.5466 H   0  0  0  0  0  0  0  0  0  0  0  0  # atno 10765 bound_to 10752
  140.1555  134.8646  157.2508 H   0  0  0  0  0  0  0  0  0  0  0  0  # atno 11005 bound_to 11000
  145.2679  141.0099  143.3789 LP  0  0  0  0  0  0  0  0  0  0  0  0  # atno 17320 bound_to 7965
  144.9247  139.4369  143.6524 LP  0  0  0  0  0  0  0  0  0  0  0  0  # atno 17321 bound_to 7965
  140.5994  143.9637  150.6376 LP  0  0  0  0  0  0  0  0  0  0  0  0  # atno 17342 bound_to 10162
  140.2844  143.3367  152.1121 LP  0  0  0  0  0  0  0  0  0  0  0  0  # atno 17343 bound_to 10162
  156.9832  130.5535  149.5298 LP  0  0  0  0  0  0  0  0  0  0  0  0  # atno 17370 bound_to 10713
  156.0327  130.5417  150.8575 LP  0  0  0  0  0  0  0  0  0  0  0  0  # atno 17371 bound_to 10713
  140.2553  134.3635  155.7426 LP  0  0  0  0  0  0  0  0  0  0  0  0  # atno 17394 bound_to 11000
  141.2204  133.7339  156.8998 LP  0  0  0  0  0  0  0  0  0  0  0  0  # atno 17395 bound_to 11000

$$$$
