AV-unprocessed.smi:2446|AV-procd|sdf|9641|dock4
  -GOLD-   2272013273D 1   1.00000     0.00000
 Structure written by MMmdl.
 39 40  0  0  0  0  0  0  0  0  1 V2000
  145.2946  135.4588  150.8355 C   0  0  0  0  0  0  0  0  0  0  0  0
  145.2217  133.9446  150.9319 C   0  0  0  0  0  0  0  0  0  0  0  0
  144.1814  133.2471  150.2811 C   0  0  0  0  0  0  0  0  0  0  0  0
  144.0481  131.9053  150.3142 N   0  0  0  0  0  0  0  0  0  0  0  0
  144.9661  131.1991  151.0051 C   0  0  0  0  0  0  0  0  0  0  0  0
  146.0438  131.7912  151.6922 C   0  0  0  0  0  0  0  0  0  0  0  0
  146.1743  133.2009  151.6701 C   0  0  0  0  0  0  0  0  0  0  0  0
  147.2310  133.9023  152.3157 N   0  0  0  0  0  0  0  0  0  0  0  0
  147.9137  133.5792  153.4316 C   0  0  0  0  0  0  0  0  0  0  0  0
  147.7403  132.5571  154.0915 O   0  0  0  0  0  0  0  0  0  0  0  0
  148.8266  134.4959  153.8019 N   0  0  0  0  0  0  0  0  0  0  0  0
  149.7373  134.4719  154.9521 C   0  0  2  0  0  0  0  0  0  0  0  0
  148.9302  134.4656  156.2641 C   0  0  0  0  0  0  0  0  0  0  0  0
  148.2429  135.8154  156.5306 C   0  0  0  0  0  0  0  0  0  0  0  0
  149.2529  136.9728  156.5081 C   0  0  0  0  0  0  0  0  0  0  0  0
  150.0374  137.0190  155.1801 C   0  0  1  0  0  0  0  0  0  0  0  0
  151.0413  138.1896  155.1422 C   0  0  0  0  0  0  0  0  0  0  0  0
  150.4048  139.3593  155.0765 F   0  0  0  0  0  0  0  0  0  0  0  0
  151.8011  138.1739  156.2375 F   0  0  0  0  0  0  0  0  0  0  0  0
  151.8394  138.0729  154.0808 F   0  0  0  0  0  0  0  0  0  0  0  0
  150.7262  135.6595  154.9234 C   0  0  0  0  0  0  0  0  0  0  0  0
  144.5021  135.8534  150.1990 H   0  0  0  0  0  0  0  0  0  0  0  0
  146.2507  135.7693  150.4133 H   0  0  0  0  0  0  0  0  0  0  0  0
  145.1895  135.9082  151.8232 H   0  0  0  0  0  0  0  0  0  0  0  0
  143.4325  133.7800  149.7137 H   0  0  0  0  0  0  0  0  0  0  0  0
  144.8428  130.1262  151.0053 H   0  0  0  0  0  0  0  0  0  0  0  0
  146.7468  131.1545  152.2060 H   0  0  0  0  0  0  0  0  0  0  0  0
  147.4444  134.8075  151.9235 H   0  0  0  0  0  0  0  0  0  0  0  0
  148.9020  135.3094  153.2084 H   0  0  0  0  0  0  0  0  0  0  0  0
  150.3064  133.5414  154.9209 H   0  0  0  0  0  0  0  0  0  0  0  0
  148.1890  133.6656  156.2484 H   0  0  0  0  0  0  0  0  0  0  0  0
  149.6007  134.2395  157.0942 H   0  0  0  0  0  0  0  0  0  0  0  0
  147.4684  135.9908  155.7831 H   0  0  0  0  0  0  0  0  0  0  0  0
  147.7357  135.7871  157.4954 H   0  0  0  0  0  0  0  0  0  0  0  0
  148.7255  137.9140  156.6654 H   0  0  0  0  0  0  0  0  0  0  0  0
  149.9457  136.8657  157.3437 H   0  0  0  0  0  0  0  0  0  0  0  0
  149.3184  137.1870  154.3769 H   0  0  0  0  0  0  0  0  0  0  0  0
  151.4910  135.4970  155.6840 H   0  0  0  0  0  0  0  0  0  0  0  0
  151.2570  135.6844  153.9719 H   0  0  0  0  0  0  0  0  0  0  0  0
  1  2  1  0  0  0  0
  1 22  1  0  0  0  0
  1 23  1  0  0  0  0
  1 24  1  0  0  0  0
  2  7  1  0  0  0  0
  2  3  2  0  0  0  0
  3  4  1  0  0  0  0
  3 25  1  0  0  0  0
  4  5  2  0  0  0  0
  5  6  1  0  0  0  0
  5 26  1  0  0  0  0
  6  7  2  0  0  0  0
  6 27  1  0  0  0  0
  7  8  1  0  0  0  0
  8  9  1  0  0  0  0
  8 28  1  0  0  0  0
  9 10  2  0  0  0  0
  9 11  1  0  0  0  0
 11 12  1  0  0  0  0
 11 29  1  0  0  0  0
 12 21  1  0  0  0  0
 12 13  1  0  0  0  0
 12 30  1  0  0  0  0
 13 14  1  0  0  0  0
 13 31  1  0  0  0  0
 13 32  1  0  0  0  0
 14 15  1  0  0  0  0
 14 33  1  0  0  0  0
 14 34  1  0  0  0  0
 15 16  1  0  0  0  0
 15 35  1  0  0  0  0
 15 36  1  0  0  0  0
 16 17  1  0  0  0  0
 16 21  1  0  0  0  0
 16 37  1  0  0  0  0
 17 18  1  0  0  0  0
 17 19  1  0  0  0  0
 17 20  1  0  0  0  0
 21 38  1  0  0  0  0
 21 39  1  0  0  0  0
M  END
> <s_m_source_file>
AV-unprocessed.smi

> <i_m_source_file_index>
2446

> <i_lp_mmshare_version>
43012

> <i_f3d_flags>
0

> <s_epik_input>
W0NIM11jMVtjSF1uW2NIXVtjSF1jMVtOSF1DKD1PKVtOSF1bQ0BASF0yW0NIMl1bQ0gyXVtDSDJdW0NAQEhdKEMoRikoRilGKVtDSDJdMg==

> <s_epik_cmdline>
J2VwaWtfcHl0aG9uJywgJy1waCcsICc3LjAnLCAnLXRuJywgJzgnLCAnLW1hJywgJzIwMCcsICctbWV0YWxfYmluZGluZycsICctaW1hZScsICc8aW5maWxlLm1hZT4nLCAnLW9tYWUnLCAnPG91dGZpbGUubWFlPic=

> <r_epik_Ionization_Penalty>
0.20168

> <r_epik_Ionization_Penalty_Charging>
0

> <r_epik_Ionization_Penalty_Neutral>
0.20168

> <r_epik_State_Penalty>
0.191514

> <r_epik_Charging_Adjusted_Penalty>
0.191514

> <i_epik_Tot_Q>
0

> <i_epik_Tot_abs_Q>
0

> <r_epik_Metal_State_Penalty>
0.142371

> <b_epik_Metal_Only>
0

> <s_lp_Force_Field>
OPLS_2005

> <r_lp_Energy>
25.5489

> <b_lp_Chiralities_Consistent>
1

> <s_lp_Variant>
AV-unprocessed.smi:2446-1

> <Gold.Version>
5.8.1

> <Gold.Id.Protein>
6NUR|6NUR_protein|mol2

> <Gold.PLP.Fitness>
41.4725

> <Gold.PLP.PLP>
-33.7642

> <Gold.PLP.part.hbond>
-2.0260

> <Gold.PLP.part.metal>
0.0000

> <Gold.PLP.part.buried>
-5.3636

> <Gold.PLP.part.nonpolar>
-25.7867

> <Gold.PLP.part.repulsive>
0.2414

> <Gold.PLP.ligand.clash>
0.0000

> <Gold.PLP.ligand.torsion>
0.4040

> <Gold.PLP.Chemscore.Hbond>
1.8320

> <Gold.PLP.Chemscore.CHOScore>
1.0000

> <Gold.PLP.Chemscore.Metal>
0.0000

> <Gold.Chemscore.Hbonds>
donor molecule, donor type, donor heavy atom, donor atom, acceptor molecule, acceptor atom, score
      L1  H     8    28       P1  7948  0.83
      L1  H    11    29       P1  7948  1.00
      L1  C     3    25       P1 10186  1.00

> <Gold.PLP.Chemscore.Internal.Correction>
0.0204

> <Gold.Rescore>
     Score         DG    S(hbond)    S(metal)    S(lipo)     H(rot)  DE(clash)    DE(int)     intcor
     14.55     -15.63       1.37        0.00      69.50       1.00       0.01       1.07       ----

> <Gold.Chemscore.Fitness>
14.5478

> <Gold.Chemscore.DG>
-15.6261

> <Gold.Chemscore.ZeroCoef>
-5.4800

> <Gold.Chemscore.Hbond>
1.3698

> <Gold.Chemscore.Metal>
0.0000

> <Gold.Chemscore.Lipo>
69.4956

> <Gold.Chemscore.Internal_Hbond>
0.0000

> <Gold.Chemscore.DEClash>
0.0069

> <Gold.Chemscore.DEInternal>
1.0714

> <Gold.Chemscore.Rot>
1.0000

> <Gold.Chemscore.Internal.Correction>
   9.000000E+99

> <Gold.Chemscore.Hbonds>
donor molecule, donor type, donor heavy atom, donor atom, acceptor molecule, acceptor atom, score
      L1  H     8    28       P1  7948  0.60
      L1  H    11    29       P1  7948  0.54

> <Gold.Chemscore.Hbond.Weighted>
-4.5751

> <Gold.Chemscore.Metal.Weighted>
-0.0000

> <Gold.Chemscore.Lipo.Weighted>
-8.1310

> <Gold.Chemscore.Internal_Hbond.Weighted>
0.0000

> <Gold.Chemscore.DEClash.Weighted>
0.0069

> <Gold.Chemscore.DEInternal.Weighted>
1.0714

> <Gold.Chemscore.Rot.Weighted>
2.5600

> <Gold.Chemscore.Internal.Correction.Weighted>
   9.000000E+99

> <Gold.Protein.RotatedTorsions>
[ 6907 6896 6895 6894 ] final  -33.27 input  -60.11 | X-H torsion
[ 7974 7965 7964 7962 ] final  -25.58 input  175.53 | X-H torsion
[ 8008 7997 7996 7995 ] final -130.88 input   59.86 | X-H torsion
[ 10167 10162 10161 10158 ] final   63.34 input  -65.29 | X-H torsion
[ 10718 10713 10712 10709 ] final   35.92 input   66.30 | X-H torsion
[ 10763 10752 10751 10750 ] final  127.62 input  -60.55 | X-H torsion
[ 11005 11000 10999 10996 ] final   19.18 input  -57.11 | X-H torsion

> <Gold.Protein.ActiveResidues>
 VAL166  LYS551  ARG553  GLY616  TRP617  ASP618  TYR619  PRO620  LYS621  CYS622 
 ASP623  PHE694  ASN695  SER759  ASP760  ASP761  ALA762  ILE779  LEU786  VAL792 
 PHE793  MET794  SER795  GLU796  ALA797  LYS798  CYS799  TRP800  GLU811  SER814 

> <Gold.Protein.RotatedAtoms>
  151.0678  134.9778  159.8292 H   0  0  0  0  0  0  0  0  0  0  0  0  # atno 6907 bound_to 6896
  152.5404  134.2337  159.8845 H   0  0  0  0  0  0  0  0  0  0  0  0  # atno 6908 bound_to 6896
  151.2360  133.4381  159.2639 H   0  0  0  0  0  0  0  0  0  0  0  0  # atno 6909 bound_to 6896
  146.1482  140.4905  142.8623 H   0  0  0  0  0  0  0  0  0  0  0  0  # atno 7974 bound_to 7965
  155.3031  140.0453  157.3030 H   0  0  0  0  0  0  0  0  0  0  0  0  # atno 8008 bound_to 7997
  154.5475  140.2307  155.8505 H   0  0  0  0  0  0  0  0  0  0  0  0  # atno 8009 bound_to 7997
  156.1937  140.3044  155.9391 H   0  0  0  0  0  0  0  0  0  0  0  0  # atno 8010 bound_to 7997
  140.1341  144.4615  150.6848 H   0  0  0  0  0  0  0  0  0  0  0  0  # atno 10167 bound_to 10162
  157.3286  130.7485  149.6832 H   0  0  0  0  0  0  0  0  0  0  0  0  # atno 10718 bound_to 10713
  153.7124  135.3266  155.3249 H   0  0  0  0  0  0  0  0  0  0  0  0  # atno 10763 bound_to 10752
  154.8381  135.4480  154.1301 H   0  0  0  0  0  0  0  0  0  0  0  0  # atno 10764 bound_to 10752
  153.2398  135.6969  153.7875 H   0  0  0  0  0  0  0  0  0  0  0  0  # atno 10765 bound_to 10752
  140.4166  134.1562  155.7670 H   0  0  0  0  0  0  0  0  0  0  0  0  # atno 11005 bound_to 11000
  144.7871  140.5959  143.6566 LP  0  0  0  0  0  0  0  0  0  0  0  0  # atno 17320 bound_to 7965
  145.4887  139.1490  143.3721 LP  0  0  0  0  0  0  0  0  0  0  0  0  # atno 17321 bound_to 7965
  140.6799  143.2322  151.5411 LP  0  0  0  0  0  0  0  0  0  0  0  0  # atno 17342 bound_to 10162
  139.5504  144.2409  152.1520 LP  0  0  0  0  0  0  0  0  0  0  0  0  # atno 17343 bound_to 10162
  155.9693  130.4202  150.4411 LP  0  0  0  0  0  0  0  0  0  0  0  0  # atno 17370 bound_to 10713
  157.2439  131.0531  151.2420 LP  0  0  0  0  0  0  0  0  0  0  0  0  # atno 17371 bound_to 10713
  141.1800  133.8433  157.1289 LP  0  0  0  0  0  0  0  0  0  0  0  0  # atno 17394 bound_to 11000
  140.0229  134.9937  157.0629 LP  0  0  0  0  0  0  0  0  0  0  0  0  # atno 17395 bound_to 11000

$$$$
