AV-unprocessed.smi:788|AV-procd|sdf|3731|dock8
  -GOLD-   22720 1163D 1   1.00000     0.00000
 Structure written by MMmdl.
 35 36  0  0  0  0  0  0  0  0  1 V2000
  151.9228  140.3197  158.3956 C   0  0  0  0  0  0  0  0  0  0  0  0
  152.2601  141.7188  158.9430 C   0  0  2  0  0  0  0  0  0  0  0  0
  152.8881  141.6086  160.3463 C   0  0  0  0  0  0  0  0  0  0  0  0
  153.2438  142.9847  160.9269 C   0  0  0  0  0  0  0  0  0  0  0  0
  152.0171  143.9095  160.9533 C   0  0  0  0  0  0  0  0  0  0  0  0
  151.3671  144.0565  159.5633 C   0  0  1  0  0  0  0  0  0  0  0  0
  152.2093  144.9484  158.6266 C   0  0  0  0  0  0  0  0  0  0  0  0
  151.0280  142.6602  158.9731 C   0  0  1  0  0  0  0  0  0  0  0  0
  150.4448  142.7803  157.6380 N   0  0  0  0  0  0  0  0  0  0  0  0
  149.6552  141.8755  157.0370 C   0  0  0  0  0  0  0  0  0  0  0  0
  149.3361  140.8140  157.5692 O   0  0  0  0  0  0  0  0  0  0  0  0
  149.2193  142.1898  155.7981 N   0  0  0  0  0  0  0  0  0  0  0  0
  148.3850  141.4899  154.8775 C   0  0  0  0  0  0  0  0  0  0  0  0
  148.5718  140.2169  154.4909 N   0  0  0  0  0  0  0  0  0  0  0  0
  147.6083  139.7982  153.5833 N   0  0  0  0  0  0  0  0  0  0  0  0
  146.7326  140.7708  153.3160 C   0  0  0  0  0  0  0  0  0  0  0  0
  147.0001  142.2919  154.1487 S   0  0  0  0  0  0  0  0  0  0  0  0
  151.1460  139.8389  158.9909 H   0  0  0  0  0  0  0  0  0  0  0  0
  152.8000  139.6724  158.4108 H   0  0  0  0  0  0  0  0  0  0  0  0
  151.5739  140.3624  157.3636 H   0  0  0  0  0  0  0  0  0  0  0  0
  153.0082  142.1502  158.2768 H   0  0  0  0  0  0  0  0  0  0  0  0
  152.1955  141.1012  161.0193 H   0  0  0  0  0  0  0  0  0  0  0  0
  153.7852  140.9901  160.3060 H   0  0  0  0  0  0  0  0  0  0  0  0
  153.6383  142.8672  161.9363 H   0  0  0  0  0  0  0  0  0  0  0  0
  154.0419  143.4380  160.3385 H   0  0  0  0  0  0  0  0  0  0  0  0
  151.2825  143.5024  161.6492 H   0  0  0  0  0  0  0  0  0  0  0  0
  152.2950  144.8878  161.3472 H   0  0  0  0  0  0  0  0  0  0  0  0
  150.4244  144.5845  159.7144 H   0  0  0  0  0  0  0  0  0  0  0  0
  153.1669  144.4923  158.3778 H   0  0  0  0  0  0  0  0  0  0  0  0
  152.4161  145.9125  159.0914 H   0  0  0  0  0  0  0  0  0  0  0  0
  151.6887  145.1521  157.6907 H   0  0  0  0  0  0  0  0  0  0  0  0
  150.2861  142.1938  159.6248 H   0  0  0  0  0  0  0  0  0  0  0  0
  150.6571  143.6266  157.1288 H   0  0  0  0  0  0  0  0  0  0  0  0
  149.5556  143.0782  155.4561 H   0  0  0  0  0  0  0  0  0  0  0  0
  145.9232  140.5917  152.6239 H   0  0  0  0  0  0  0  0  0  0  0  0
  1  2  1  0  0  0  0
  1 18  1  0  0  0  0
  1 19  1  0  0  0  0
  1 20  1  0  0  0  0
  2  8  1  0  0  0  0
  2  3  1  0  0  0  0
  2 21  1  0  0  0  0
  3  4  1  0  0  0  0
  3 22  1  0  0  0  0
  3 23  1  0  0  0  0
  4  5  1  0  0  0  0
  4 24  1  0  0  0  0
  4 25  1  0  0  0  0
  5  6  1  0  0  0  0
  5 26  1  0  0  0  0
  5 27  1  0  0  0  0
  6  7  1  0  0  0  0
  6  8  1  0  0  0  0
  6 28  1  0  0  0  0
  7 29  1  0  0  0  0
  7 30  1  0  0  0  0
  7 31  1  0  0  0  0
  8  9  1  0  0  0  0
  8 32  1  0  0  0  0
  9 10  1  0  0  0  0
  9 33  1  0  0  0  0
 10 11  2  0  0  0  0
 10 12  1  0  0  0  0
 12 13  1  0  0  0  0
 12 34  1  0  0  0  0
 13 17  1  0  0  0  0
 13 14  2  0  0  0  0
 14 15  1  0  0  0  0
 15 16  2  0  0  0  0
 16 17  1  0  0  0  0
 16 35  1  0  0  0  0
M  END
> <s_m_source_file>
AV-unprocessed.smi

> <i_m_source_file_index>
788

> <i_lp_mmshare_version>
43012

> <i_f3d_flags>
0

> <s_epik_input>
W0NIM11bQ0BASF0xW0NIMl1bQ0gyXVtDSDJdW0NAQEhdKFtDSDNdKVtDQEhdMVtOSF1DKD1PKVtOSF1jMm5uW2NIXXMy

> <s_epik_cmdline>
J2VwaWtfcHl0aG9uJywgJy1waCcsICc3LjAnLCAnLXRuJywgJzgnLCAnLW1hJywgJzIwMCcsICctbWV0YWxfYmluZGluZycsICctaW1hZScsICc8aW5maWxlLm1hZT4nLCAnLW9tYWUnLCAnPG91dGZpbGUubWFlPic=

> <r_lp_tautomer_probability>
1

> <r_epik_Ionization_Penalty>
0.000304078

> <r_epik_Ionization_Penalty_Charging>
0

> <r_epik_Ionization_Penalty_Neutral>
0.000304078

> <r_epik_State_Penalty>
-0

> <r_epik_Charging_Adjusted_Penalty>
0

> <i_epik_Tot_Q>
0

> <i_epik_Tot_abs_Q>
0

> <r_epik_Metal_State_Penalty>
0.164801

> <b_epik_Metal_Only>
0

> <s_lp_Force_Field>
OPLS_2005

> <r_lp_Energy>
15.5702

> <b_lp_Chiralities_Consistent>
1

> <s_lp_Variant>
AV-unprocessed.smi:788-1

> <Gold.Version>
5.8.1

> <Gold.Id.Protein>
6NUR|6NUR_protein|mol2

> <Gold.PLP.Fitness>
38.9511

> <Gold.PLP.PLP>
-35.7514

> <Gold.PLP.part.hbond>
-1.3682

> <Gold.PLP.part.metal>
0.0000

> <Gold.PLP.part.buried>
-7.2589

> <Gold.PLP.part.nonpolar>
-29.8342

> <Gold.PLP.part.repulsive>
1.9116

> <Gold.PLP.ligand.clash>
0.0000

> <Gold.PLP.ligand.torsion>
0.7474

> <Gold.PLP.Chemscore.Hbond>
0.5600

> <Gold.PLP.Chemscore.CHOScore>
1.0000

> <Gold.PLP.Chemscore.Metal>
0.0000

> <Gold.Chemscore.Hbonds>
donor molecule, donor type, donor heavy atom, donor atom, acceptor molecule, acceptor atom, score
      L1  H    12    34       P1  8028  0.61
      L1  C    16    35       P1 10175  1.00

> <Gold.PLP.Chemscore.Internal.Correction>
0.0145

> <Gold.Rescore>
     Score         DG    S(hbond)    S(metal)    S(lipo)     H(rot)  DE(clash)    DE(int)     intcor
     18.57     -19.37       1.77        0.00      90.15       1.00       0.14       0.66       ----

> <Gold.Chemscore.Fitness>
18.5651

> <Gold.Chemscore.DG>
-19.3690

> <Gold.Chemscore.ZeroCoef>
-5.4800

> <Gold.Chemscore.Hbond>
1.7669

> <Gold.Chemscore.Metal>
0.0000

> <Gold.Chemscore.Lipo>
90.1495

> <Gold.Chemscore.Internal_Hbond>
0.0000

> <Gold.Chemscore.DEClash>
0.1437

> <Gold.Chemscore.DEInternal>
0.6601

> <Gold.Chemscore.Rot>
1.0000

> <Gold.Chemscore.Internal.Correction>
   9.000000E+99

> <Gold.Chemscore.Hbonds>
donor molecule, donor type, donor heavy atom, donor atom, acceptor molecule, acceptor atom, score
      L1  H    12    34       P1  8028  0.62

> <Gold.Chemscore.Hbond.Weighted>
-5.9015

> <Gold.Chemscore.Metal.Weighted>
-0.0000

> <Gold.Chemscore.Lipo.Weighted>
-10.5475

> <Gold.Chemscore.Internal_Hbond.Weighted>
0.0000

> <Gold.Chemscore.DEClash.Weighted>
0.1437

> <Gold.Chemscore.DEInternal.Weighted>
0.6601

> <Gold.Chemscore.Rot.Weighted>
2.5600

> <Gold.Chemscore.Internal.Correction.Weighted>
   9.000000E+99

> <Gold.Protein.RotatedTorsions>
[ 6907 6896 6895 6894 ] final  154.36 input  -60.11 | X-H torsion
[ 7974 7965 7964 7962 ] final  -46.69 input  175.53 | X-H torsion
[ 8008 7997 7996 7995 ] final   84.79 input   59.86 | X-H torsion
[ 10167 10162 10161 10158 ] final -159.17 input  -65.29 | X-H torsion
[ 10718 10713 10712 10709 ] final  136.25 input   66.30 | X-H torsion
[ 10763 10752 10751 10750 ] final -113.38 input  -60.55 | X-H torsion
[ 11005 11000 10999 10996 ] final  -73.68 input  -57.11 | X-H torsion

> <Gold.Protein.ActiveResidues>
 VAL166  LYS551  ARG553  GLY616  TRP617  ASP618  TYR619  PRO620  LYS621  CYS622 
 ASP623  PHE694  ASN695  SER759  ASP760  ASP761  ALA762  ILE779  LEU786  VAL792 
 PHE793  MET794  SER795  GLU796  ALA797  LYS798  CYS799  TRP800  GLU811  SER814 

> <Gold.Protein.RotatedAtoms>
  152.0596  133.4056  159.4411 H   0  0  0  0  0  0  0  0  0  0  0  0  # atno 6907 bound_to 6896
  150.6866  134.3216  159.4798 H   0  0  0  0  0  0  0  0  0  0  0  0  # atno 6908 bound_to 6896
  152.1035  134.9324  160.0619 H   0  0  0  0  0  0  0  0  0  0  0  0  # atno 6909 bound_to 6896
  145.9693  140.7399  142.9418 H   0  0  0  0  0  0  0  0  0  0  0  0  # atno 7974 bound_to 7965
  155.9416  140.3407  155.6332 H   0  0  0  0  0  0  0  0  0  0  0  0  # atno 8008 bound_to 7997
  155.7032  140.0763  157.2420 H   0  0  0  0  0  0  0  0  0  0  0  0  # atno 8009 bound_to 7997
  154.4104  140.1636  156.2201 H   0  0  0  0  0  0  0  0  0  0  0  0  # atno 8010 bound_to 7997
  139.6635  143.9870  152.2240 H   0  0  0  0  0  0  0  0  0  0  0  0  # atno 10167 bound_to 10162
  157.4486  131.1064  151.0060 H   0  0  0  0  0  0  0  0  0  0  0  0  # atno 10718 bound_to 10713
  154.8393  135.4456  154.1341 H   0  0  0  0  0  0  0  0  0  0  0  0  # atno 10763 bound_to 10752
  153.2543  135.6930  153.7651 H   0  0  0  0  0  0  0  0  0  0  0  0  # atno 10764 bound_to 10752
  153.6952  135.3381  155.3187 H   0  0  0  0  0  0  0  0  0  0  0  0  # atno 10765 bound_to 10752
  141.1626  133.6886  156.7249 H   0  0  0  0  0  0  0  0  0  0  0  0  # atno 11005 bound_to 11000
  144.6833  140.2722  143.7304 LP  0  0  0  0  0  0  0  0  0  0  0  0  # atno 17320 bound_to 7965
  145.7928  139.1934  143.2093 LP  0  0  0  0  0  0  0  0  0  0  0  0  # atno 17321 bound_to 7965
  139.9615  144.6554  150.8075 LP  0  0  0  0  0  0  0  0  0  0  0  0  # atno 17342 bound_to 10162
  140.7590  143.3119  151.2825 LP  0  0  0  0  0  0  0  0  0  0  0  0  # atno 17343 bound_to 10162
  157.0898  130.5937  149.5437 LP  0  0  0  0  0  0  0  0  0  0  0  0  # atno 17370 bound_to 10713
  155.9977  130.5050  150.7546 LP  0  0  0  0  0  0  0  0  0  0  0  0  # atno 17371 bound_to 10713
  140.2788  134.8333  157.3915 LP  0  0  0  0  0  0  0  0  0  0  0  0  # atno 17394 bound_to 11000
  140.1452  134.4920  155.8001 LP  0  0  0  0  0  0  0  0  0  0  0  0  # atno 17395 bound_to 11000

$$$$
