AV-unprocessed.smi:1687|AV-procd|sdf|6769|dock3
  -GOLD-   22720 7533D 1   1.00000     0.00000
 Structure written by MMmdl.
 45 46  0  0  0  0  0  0  0  0  2 V2000
  146.5498  136.1656  154.0451 C   0  0  0  0  0  0  0  0  0  0  0  0
  145.4234  137.0587  153.4955 C   0  0  2  0  0  0  0  0  0  0  0  0
  145.8456  137.8488  152.2426 C   0  0  0  0  0  0  0  0  0  0  0  0
  146.7942  139.0120  152.5823 C   0  0  0  0  0  0  0  0  0  0  0  0
  146.1807  139.9205  153.5898 N   0  3  2  0  0  0  0  0  0  0  0  0
  146.9156  141.1975  153.8293 C   0  0  1  0  0  0  0  0  0  0  0  0
  146.3274  142.0246  154.9937 C   0  0  0  0  0  0  0  0  0  0  0  0
  148.4322  140.9333  153.9854 C   0  0  0  0  0  0  0  0  0  0  0  0
  149.0871  141.8941  154.8680 N   0  0  0  0  0  0  0  0  0  0  0  0
  149.9138  141.5729  155.8736 C   0  0  0  0  0  0  0  0  0  0  0  0
  150.2128  140.4123  156.1570 O   0  0  0  0  0  0  0  0  0  0  0  0
  150.3597  142.6711  156.5088 N   0  0  0  0  0  0  0  0  0  0  0  0
  151.2590  142.7463  157.6059 C   0  0  0  0  0  0  0  0  0  0  0  0
  151.6348  144.0555  157.9825 C   0  0  0  0  0  0  0  0  0  0  0  0
  152.5252  144.2385  159.0583 C   0  0  0  0  0  0  0  0  0  0  0  0
  153.0177  143.1057  159.7303 C   0  0  0  0  0  0  0  0  0  0  0  0
  152.5934  141.8377  159.2919 C   0  0  0  0  0  0  0  0  0  0  0  0
  151.7403  141.6601  158.2608 N   0  0  0  0  0  0  0  0  0  0  0  0
  145.8274  139.1982  154.8404 C   0  0  0  0  0  0  0  0  0  0  0  0
  144.8658  138.0305  154.5522 C   0  0  0  0  0  0  0  0  0  0  0  0
  147.4107  136.7446  154.3782 H   0  0  0  0  0  0  0  0  0  0  0  0
  146.8981  135.4652  153.2856 H   0  0  0  0  0  0  0  0  0  0  0  0
  146.2011  135.5777  154.8943 H   0  0  0  0  0  0  0  0  0  0  0  0
  144.6137  136.3882  153.2043 H   0  0  0  0  0  0  0  0  0  0  0  0
  146.3132  137.1833  151.5159 H   0  0  0  0  0  0  0  0  0  0  0  0
  144.9554  138.2492  151.7554 H   0  0  0  0  0  0  0  0  0  0  0  0
  147.7403  138.6194  152.9554 H   0  0  0  0  0  0  0  0  0  0  0  0
  147.0212  139.5581  151.6676 H   0  0  0  0  0  0  0  0  0  0  0  0
  146.8007  141.7962  152.9247 H   0  0  0  0  0  0  0  0  0  0  0  0
  146.7866  143.0119  155.0454 H   0  0  0  0  0  0  0  0  0  0  0  0
  146.4910  141.5433  155.9580 H   0  0  0  0  0  0  0  0  0  0  0  0
  145.2557  142.1820  154.8742 H   0  0  0  0  0  0  0  0  0  0  0  0
  148.6104  139.9437  154.4045 H   0  0  0  0  0  0  0  0  0  0  0  0
  148.9213  140.9457  153.0097 H   0  0  0  0  0  0  0  0  0  0  0  0
  148.8928  142.8713  154.7040 H   0  0  0  0  0  0  0  0  0  0  0  0
  150.0196  143.5576  156.1668 H   0  0  0  0  0  0  0  0  0  0  0  0
  151.2467  144.9152  157.4556 H   0  0  0  0  0  0  0  0  0  0  0  0
  152.8243  145.2309  159.3617 H   0  0  0  0  0  0  0  0  0  0  0  0
  153.7022  143.2053  160.5597 H   0  0  0  0  0  0  0  0  0  0  0  0
  152.9480  140.9429  159.7816 H   0  0  0  0  0  0  0  0  0  0  0  0
  146.7310  138.8344  155.3301 H   0  0  0  0  0  0  0  0  0  0  0  0
  145.3460  139.8826  155.5398 H   0  0  0  0  0  0  0  0  0  0  0  0
  143.9167  138.4351  154.1980 H   0  0  0  0  0  0  0  0  0  0  0  0
  144.6389  137.4961  155.4753 H   0  0  0  0  0  0  0  0  0  0  0  0
  145.2940  140.2047  153.1982 H   0  0  0  0  0  0  0  0  0  0  0  0
  1  2  1  0  0  0  0
  1 21  1  0  0  0  0
  1 22  1  0  0  0  0
  1 23  1  0  0  0  0
  2 20  1  0  0  0  0
  2  3  1  0  0  0  0
  2 24  1  0  0  0  0
  3  4  1  0  0  0  0
  3 25  1  0  0  0  0
  3 26  1  0  0  0  0
  4  5  1  0  0  0  0
  4 27  1  0  0  0  0
  4 28  1  0  0  0  0
  5  6  1  0  0  0  0
  5 19  1  0  0  0  0
  5 45  1  0  0  0  0
  6  7  1  0  0  0  0
  6  8  1  0  0  0  0
  6 29  1  0  0  0  0
  7 30  1  0  0  0  0
  7 31  1  0  0  0  0
  7 32  1  0  0  0  0
  8  9  1  0  0  0  0
  8 33  1  0  0  0  0
  8 34  1  0  0  0  0
  9 10  1  0  0  0  0
  9 35  1  0  0  0  0
 10 11  2  0  0  0  0
 10 12  1  0  0  0  0
 12 13  1  0  0  0  0
 12 36  1  0  0  0  0
 13 18  1  0  0  0  0
 13 14  2  0  0  0  0
 14 15  1  0  0  0  0
 14 37  1  0  0  0  0
 15 16  2  0  0  0  0
 15 38  1  0  0  0  0
 16 17  1  0  0  0  0
 16 39  1  0  0  0  0
 17 18  2  0  0  0  0
 17 40  1  0  0  0  0
 19 20  1  0  0  0  0
 19 41  1  0  0  0  0
 19 42  1  0  0  0  0
 20 43  1  0  0  0  0
 20 44  1  0  0  0  0
M  CHG  1   5   1
M  END
> <s_m_source_file>
AV-unprocessed.smi

> <i_m_source_file_index>
1687

> <i_lp_mmshare_version>
43012

> <i_f3d_flags>
0

> <s_epik_input>
W0NIM11bQ0hdMVtDSDJdW0NIMl1OKFtDSDJdW0NIMl0xKVtDQEhdKFtDSDNdKVtDSDJdW05IXUMoPU8pW05IXWMyW2NIXVtjSF1bY0hdW2NIXW4y

> <s_epik_cmdline>
J2VwaWtfcHl0aG9uJywgJy1waCcsICc3LjAnLCAnLXRuJywgJzgnLCAnLW1hJywgJzIwMCcsICctbWV0YWxfYmluZGluZycsICctaW1hZScsICc8aW5maWxlLm1hZT4nLCAnLW9tYWUnLCAnPG91dGZpbGUubWFlPic=

> <r_epik_Ionization_Penalty>
0.00142891

> <r_epik_Ionization_Penalty_Charging>
0.00139388

> <r_epik_Ionization_Penalty_Neutral>
3.50347e-05

> <r_epik_State_Penalty>
0.000929204

> <r_epik_Charging_Adjusted_Penalty>
0.00232308

> <i_epik_Tot_Q>
1

> <i_epik_Tot_abs_Q>
1

> <r_epik_Metal_State_Penalty>
-0

> <b_epik_Metal_Only>
0

> <s_lp_Force_Field>
OPLS_2005

> <r_lp_Energy>
23.2941

> <b_lp_Chiralities_Consistent>
1

> <s_lp_Variant>
AV-unprocessed.smi:1687-4

> <Gold.Version>
5.8.1

> <Gold.Id.Protein>
6NUR|6NUR_protein|mol2

> <Gold.PLP.Fitness>
49.9842

> <Gold.PLP.PLP>
-40.1246

> <Gold.PLP.part.hbond>
-2.9209

> <Gold.PLP.part.metal>
0.0000

> <Gold.PLP.part.buried>
-3.8577

> <Gold.PLP.part.nonpolar>
-34.7569

> <Gold.PLP.part.repulsive>
0.3601

> <Gold.PLP.ligand.clash>
0.0000

> <Gold.PLP.ligand.torsion>
0.7924

> <Gold.PLP.Chemscore.Hbond>
3.7680

> <Gold.PLP.Chemscore.CHOScore>
0.0000

> <Gold.PLP.Chemscore.Metal>
0.0000

> <Gold.Chemscore.Hbonds>
donor molecule, donor type, donor heavy atom, donor atom, acceptor molecule, acceptor atom, score
      L1  H     5    45       P1 10175  2.00
      L1  H     9    35       P1  8028  0.80
      L1  H    12    36       P1  8028  1.00

> <Gold.PLP.Chemscore.Internal.Correction>
0.1404

> <Gold.Rescore>
     Score         DG    S(hbond)    S(metal)    S(lipo)     H(rot)  DE(clash)    DE(int)     intcor
     20.10     -22.21       2.92        0.00      92.33       1.50       0.02       2.10       ----

> <Gold.Chemscore.Fitness>
20.0998

> <Gold.Chemscore.DG>
-22.2116

> <Gold.Chemscore.ZeroCoef>
-5.4800

> <Gold.Chemscore.Hbond>
2.9216

> <Gold.Chemscore.Metal>
0.0000

> <Gold.Chemscore.Lipo>
92.3259

> <Gold.Chemscore.Internal_Hbond>
0.0000

> <Gold.Chemscore.DEClash>
0.0156

> <Gold.Chemscore.DEInternal>
2.0961

> <Gold.Chemscore.Rot>
1.4956

> <Gold.Chemscore.Internal.Correction>
   9.000000E+99

> <Gold.Chemscore.Hbonds>
donor molecule, donor type, donor heavy atom, donor atom, acceptor molecule, acceptor atom, score
      L1  H     5    45       P1 10175  1.00
      L1  H     9    35       P1  8028  0.75
      L1  H    12    36       P1  8028  0.99

> <Gold.Chemscore.Hbond.Weighted>
-9.7583

> <Gold.Chemscore.Metal.Weighted>
-0.0000

> <Gold.Chemscore.Lipo.Weighted>
-10.8021

> <Gold.Chemscore.Internal_Hbond.Weighted>
0.0000

> <Gold.Chemscore.DEClash.Weighted>
0.0156

> <Gold.Chemscore.DEInternal.Weighted>
2.0961

> <Gold.Chemscore.Rot.Weighted>
3.8289

> <Gold.Chemscore.Internal.Correction.Weighted>
   9.000000E+99

> <Gold.Protein.RotatedTorsions>
[ 6907 6896 6895 6894 ] final   57.87 input  -60.11 | X-H torsion
[ 7974 7965 7964 7962 ] final   63.07 input  175.53 | X-H torsion
[ 8008 7997 7996 7995 ] final  150.35 input   59.86 | X-H torsion
[ 10167 10162 10161 10158 ] final  -66.18 input  -65.29 | X-H torsion
[ 10718 10713 10712 10709 ] final  101.62 input   66.30 | X-H torsion
[ 10763 10752 10751 10750 ] final  141.70 input  -60.55 | X-H torsion
[ 11005 11000 10999 10996 ] final  166.91 input  -57.11 | X-H torsion

> <Gold.Protein.ActiveResidues>
 VAL166  LYS551  ARG553  GLY616  TRP617  ASP618  TYR619  PRO620  LYS621  CYS622 
 ASP623  PHE694  ASN695  SER759  ASP760  ASP761  ALA762  ILE779  LEU786  VAL792 
 PHE793  MET794  SER795  GLU796  ALA797  LYS798  CYS799  TRP800  GLU811  SER814 

> <Gold.Protein.RotatedAtoms>
  152.3771  134.6647  160.0155 H   0  0  0  0  0  0  0  0  0  0  0  0  # atno 6907 bound_to 6896
  151.6921  133.3305  159.3253 H   0  0  0  0  0  0  0  0  0  0  0  0  # atno 6908 bound_to 6896
  150.7718  134.6625  159.6392 H   0  0  0  0  0  0  0  0  0  0  0  0  # atno 6909 bound_to 6896
  145.8661  139.3347  143.0790 H   0  0  0  0  0  0  0  0  0  0  0  0  # atno 7974 bound_to 7965
  156.2719  140.2077  156.6003 H   0  0  0  0  0  0  0  0  0  0  0  0  # atno 8008 bound_to 7997
  154.6912  140.0530  157.0389 H   0  0  0  0  0  0  0  0  0  0  0  0  # atno 8009 bound_to 7997
  155.0864  140.3192  155.4589 H   0  0  0  0  0  0  0  0  0  0  0  0  # atno 8010 bound_to 7997
  140.5676  143.2315  151.6604 H   0  0  0  0  0  0  0  0  0  0  0  0  # atno 10167 bound_to 10162
  157.6824  131.0731  150.5280 H   0  0  0  0  0  0  0  0  0  0  0  0  # atno 10718 bound_to 10713
  153.9436  135.2977  155.3441 H   0  0  0  0  0  0  0  0  0  0  0  0  # atno 10763 bound_to 10752
  154.7464  135.5001  153.9214 H   0  0  0  0  0  0  0  0  0  0  0  0  # atno 10764 bound_to 10752
  153.1030  135.6739  153.9745 H   0  0  0  0  0  0  0  0  0  0  0  0  # atno 10765 bound_to 10752
  140.2713  134.7824  157.3678 H   0  0  0  0  0  0  0  0  0  0  0  0  # atno 11005 bound_to 11000
  145.9191  140.9127  143.0414 LP  0  0  0  0  0  0  0  0  0  0  0  0  # atno 17320 bound_to 7965
  144.6726  140.1264  143.7446 LP  0  0  0  0  0  0  0  0  0  0  0  0  # atno 17321 bound_to 7965
  139.5101  144.3555  152.0611 LP  0  0  0  0  0  0  0  0  0  0  0  0  # atno 17342 bound_to 10162
  140.2689  144.3986  150.6158 LP  0  0  0  0  0  0  0  0  0  0  0  0  # atno 17343 bound_to 10162
  156.5591  130.4251  149.6071 LP  0  0  0  0  0  0  0  0  0  0  0  0  # atno 17370 bound_to 10713
  156.2837  130.7085  151.1916 LP  0  0  0  0  0  0  0  0  0  0  0  0  # atno 17371 bound_to 10713
  140.1371  134.5020  155.8060 LP  0  0  0  0  0  0  0  0  0  0  0  0  # atno 17394 bound_to 11000
  141.2177  133.6811  156.7143 LP  0  0  0  0  0  0  0  0  0  0  0  0  # atno 17395 bound_to 11000

$$$$
