AV-unprocessed.smi:2822|AV-procd|sdf|10860|dock9
  -GOLD-   2272015303D 1   1.00000     0.00000
 Structure written by MMmdl.
 41 43  0  0  0  0  0  0  0  0  3 V2000
  150.1853  138.5698  154.1172 Cl  0  0  0  0  0  0  0  0  0  0  0  0
  148.9782  139.7927  153.9265 C   0  0  0  0  0  0  0  0  0  0  0  0
  149.2093  141.0777  154.4594 C   0  0  0  0  0  0  0  0  0  0  0  0
  148.2777  142.0444  154.3198 N   0  3  0  0  0  0  0  0  0  0  0  0
  147.1060  141.8410  153.6815 C   0  0  0  0  0  0  0  0  0  0  0  0
  146.8168  140.5773  153.1275 C   0  0  0  0  0  0  0  0  0  0  0  0
  147.7634  139.5287  153.2464 C   0  0  0  0  0  0  0  0  0  0  0  0
  147.5398  138.2496  152.7135 N   0  0  0  0  0  0  0  0  0  0  0  0
  146.2182  137.8378  152.2642 C   0  0  0  0  0  0  0  0  0  0  0  0
  146.2574  136.4610  151.5850 C   0  0  2  0  0  0  0  0  0  0  0  0
  144.9342  136.1426  150.8645 C   0  0  0  0  0  0  0  0  0  0  0  0
  144.9727  134.7820  150.2791 N   0  3  2  0  0  0  0  0  0  0  0  0
  143.7292  134.4474  149.5395 C   0  0  0  0  0  0  0  0  0  0  0  0
  143.8391  133.0696  148.8665 C   0  0  0  0  0  0  0  0  0  0  0  0
  144.1785  131.9841  149.8960 C   0  0  0  0  0  0  0  0  0  0  0  0
  145.4499  132.3677  150.6649 C   0  0  0  0  0  0  0  0  0  0  0  0
  145.3158  133.7627  151.3077 C   0  0  1  0  0  0  0  0  0  0  0  0
  146.6092  134.1691  152.0410 C   0  0  0  0  0  0  0  0  0  0  0  0
  146.4665  135.4735  152.5889 O   0  0  0  0  0  0  0  0  0  0  0  0
  150.1070  141.3593  154.9903 H   0  0  0  0  0  0  0  0  0  0  0  0
  146.4392  142.6896  153.6325 H   0  0  0  0  0  0  0  0  0  0  0  0
  145.8748  140.4356  152.6191 H   0  0  0  0  0  0  0  0  0  0  0  0
  148.2522  137.5414  152.8257 H   0  0  0  0  0  0  0  0  0  0  0  0
  145.5285  137.8215  153.1091 H   0  0  0  0  0  0  0  0  0  0  0  0
  145.8480  138.5790  151.5549 H   0  0  0  0  0  0  0  0  0  0  0  0
  147.0783  136.4388  150.8651 H   0  0  0  0  0  0  0  0  0  0  0  0
  144.0980  136.2161  151.5619 H   0  0  0  0  0  0  0  0  0  0  0  0
  144.7567  136.8726  150.0736 H   0  0  0  0  0  0  0  0  0  0  0  0
  142.8808  134.4617  150.2254 H   0  0  0  0  0  0  0  0  0  0  0  0
  143.5380  135.2088  148.7823 H   0  0  0  0  0  0  0  0  0  0  0  0
  142.9038  132.8252  148.3620 H   0  0  0  0  0  0  0  0  0  0  0  0
  144.6095  133.0979  148.0947 H   0  0  0  0  0  0  0  0  0  0  0  0
  143.3476  131.8630  150.5924 H   0  0  0  0  0  0  0  0  0  0  0  0
  144.3133  131.0224  149.4000 H   0  0  0  0  0  0  0  0  0  0  0  0
  145.6546  131.6197  151.4318 H   0  0  0  0  0  0  0  0  0  0  0  0
  146.3031  132.3536  149.9850 H   0  0  0  0  0  0  0  0  0  0  0  0
  144.5044  133.7336  152.0375 H   0  0  0  0  0  0  0  0  0  0  0  0
  146.8158  133.4714  152.8532 H   0  0  0  0  0  0  0  0  0  0  0  0
  147.4697  134.1382  151.3703 H   0  0  0  0  0  0  0  0  0  0  0  0
  145.7235  134.7767  149.6033 H   0  0  0  0  0  0  0  0  0  0  0  0
  148.4673  142.9667  154.7132 H   0  0  0  0  0  0  0  0  0  0  0  0
  1  2  1  0  0  0  0
  2  7  1  0  0  0  0
  2  3  2  0  0  0  0
  3  4  1  0  0  0  0
  3 20  1  0  0  0  0
  4  5  2  0  0  0  0
  4 41  1  0  0  0  0
  5  6  1  0  0  0  0
  5 21  1  0  0  0  0
  6  7  2  0  0  0  0
  6 22  1  0  0  0  0
  7  8  1  0  0  0  0
  8  9  1  0  0  0  0
  8 23  1  0  0  0  0
  9 10  1  0  0  0  0
  9 24  1  0  0  0  0
  9 25  1  0  0  0  0
 10 19  1  0  0  0  0
 10 11  1  0  0  0  0
 10 26  1  0  0  0  0
 11 12  1  0  0  0  0
 11 27  1  0  0  0  0
 11 28  1  0  0  0  0
 12 17  1  0  0  0  0
 12 13  1  0  0  0  0
 12 40  1  0  0  0  0
 13 14  1  0  0  0  0
 13 29  1  0  0  0  0
 13 30  1  0  0  0  0
 14 15  1  0  0  0  0
 14 31  1  0  0  0  0
 14 32  1  0  0  0  0
 15 16  1  0  0  0  0
 15 33  1  0  0  0  0
 15 34  1  0  0  0  0
 16 17  1  0  0  0  0
 16 35  1  0  0  0  0
 16 36  1  0  0  0  0
 17 18  1  0  0  0  0
 17 37  1  0  0  0  0
 18 19  1  0  0  0  0
 18 38  1  0  0  0  0
 18 39  1  0  0  0  0
M  CHG  1   4   1
M  CHG  1  12   1
M  END
> <s_m_source_file>
AV-unprocessed.smi

> <i_m_source_file_index>
2822

> <i_lp_mmshare_version>
43012

> <i_f3d_flags>
0

> <s_epik_input>
Q2xjMVtjSF1uW2NIXVtjSF1jMVtOSF1bQ0gyXVtDQEhdKFtDSDJdMilPW0NIMl1bQ0BASF0oTjIzKVtDSDJdW0NIMl1bQ0gyXVtDSDJdMw==

> <s_epik_cmdline>
J2VwaWtfcHl0aG9uJywgJy1waCcsICc3LjAnLCAnLXRuJywgJzgnLCAnLW1hJywgJzIwMCcsICctbWV0YWxfYmluZGluZycsICctaW1hZScsICc8aW5maWxlLm1hZT4nLCAnLW9tYWUnLCAnPG91dGZpbGUubWFlPic=

> <r_lp_tautomer_probability>
1

> <r_epik_Ionization_Penalty>
0.254999

> <r_epik_Ionization_Penalty_Charging>
0.254956

> <r_epik_Ionization_Penalty_Neutral>
4.33524e-05

> <r_epik_State_Penalty>
0.230978

> <r_epik_Charging_Adjusted_Penalty>
0.485934

> <i_epik_Tot_Q>
2

> <i_epik_Tot_abs_Q>
2

> <r_epik_Metal_State_Penalty>
3.47007

> <b_epik_Metal_Only>
0

> <s_lp_Force_Field>
OPLS_2005

> <r_lp_Energy>
36.8988

> <b_lp_Chiralities_Consistent>
1

> <s_lp_Variant>
AV-unprocessed.smi:2822-1

> <Gold.Version>
5.8.1

> <Gold.Id.Protein>
6NUR|6NUR_protein|mol2

> <Gold.PLP.Fitness>
39.0516

> <Gold.PLP.PLP>
-28.8423

> <Gold.PLP.part.hbond>
-3.3523

> <Gold.PLP.part.metal>
0.0000

> <Gold.PLP.part.buried>
11.2858

> <Gold.PLP.part.nonpolar>
-38.6378

> <Gold.PLP.part.repulsive>
2.7557

> <Gold.PLP.ligand.clash>
0.0000

> <Gold.PLP.ligand.torsion>
0.1278

> <Gold.PLP.Chemscore.Hbond>
3.4880

> <Gold.PLP.Chemscore.CHOScore>
0.0000

> <Gold.PLP.Chemscore.Metal>
0.0000

> <Gold.Chemscore.Hbonds>
donor molecule, donor type, donor heavy atom, donor atom, acceptor molecule, acceptor atom, score
      L1  H     4    41       P1  8028  2.00
      L1  H     8    23       P1  7948  0.74
      L1  H    12    40       P1  7921  0.88

> <Gold.PLP.Chemscore.Internal.Correction>
0.0008

> <Gold.Rescore>
     Score         DG    S(hbond)    S(metal)    S(lipo)     H(rot)  DE(clash)    DE(int)     intcor
     17.02     -21.85       1.89        0.00     112.18       1.20       4.74       0.09       ----

> <Gold.Chemscore.Fitness>
17.0181

> <Gold.Chemscore.DG>
-21.8476

> <Gold.Chemscore.ZeroCoef>
-5.4800

> <Gold.Chemscore.Hbond>
1.8877

> <Gold.Chemscore.Metal>
0.0000

> <Gold.Chemscore.Lipo>
112.1789

> <Gold.Chemscore.Internal_Hbond>
0.0000

> <Gold.Chemscore.DEClash>
4.7381

> <Gold.Chemscore.DEInternal>
0.0914

> <Gold.Chemscore.Rot>
1.1962

> <Gold.Chemscore.Internal.Correction>
   9.000000E+99

> <Gold.Chemscore.Hbonds>
donor molecule, donor type, donor heavy atom, donor atom, acceptor molecule, acceptor atom, score
      L1  H     4    41       P1  8028  0.95
      L1  H     8    23       P1  7948  0.74
      L1  H    12    40       P1  7921  0.76

> <Gold.Chemscore.Hbond.Weighted>
-6.3050

> <Gold.Chemscore.Metal.Weighted>
-0.0000

> <Gold.Chemscore.Lipo.Weighted>
-13.1249

> <Gold.Chemscore.Internal_Hbond.Weighted>
0.0000

> <Gold.Chemscore.DEClash.Weighted>
4.7381

> <Gold.Chemscore.DEInternal.Weighted>
0.0914

> <Gold.Chemscore.Rot.Weighted>
3.0623

> <Gold.Chemscore.Internal.Correction.Weighted>
   9.000000E+99

> <Gold.Protein.RotatedTorsions>
[ 6907 6896 6895 6894 ] final  -43.69 input  -60.11 | X-H torsion
[ 7974 7965 7964 7962 ] final  -59.51 input  175.53 | X-H torsion
[ 8008 7997 7996 7995 ] final  -97.84 input   59.86 | X-H torsion
[ 10167 10162 10161 10158 ] final  133.14 input  -65.29 | X-H torsion
[ 10718 10713 10712 10709 ] final   95.87 input   66.30 | X-H torsion
[ 10763 10752 10751 10750 ] final -121.96 input  -60.55 | X-H torsion
[ 11005 11000 10999 10996 ] final   32.70 input  -57.11 | X-H torsion

> <Gold.Protein.ActiveResidues>
 VAL166  LYS551  ARG553  GLY616  TRP617  ASP618  TYR619  PRO620  LYS621  CYS622 
 ASP623  PHE694  ASN695  SER759  ASP760  ASP761  ALA762  ILE779  LEU786  VAL792 
 PHE793  MET794  SER795  GLU796  ALA797  LYS798  CYS799  TRP800  GLU811  SER814 

> <Gold.Protein.RotatedAtoms>
  150.9411  134.8820  159.7612 H   0  0  0  0  0  0  0  0  0  0  0  0  # atno 6907 bound_to 6896
  152.5080  134.3940  159.9404 H   0  0  0  0  0  0  0  0  0  0  0  0  # atno 6908 bound_to 6896
  151.3961  133.3733  159.2761 H   0  0  0  0  0  0  0  0  0  0  0  0  # atno 6909 bound_to 6896
  145.8266  140.8506  143.0105 H   0  0  0  0  0  0  0  0  0  0  0  0  # atno 7974 bound_to 7965
  154.7932  140.0460  157.1217 H   0  0  0  0  0  0  0  0  0  0  0  0  # atno 8008 bound_to 7997
  154.9566  140.3072  155.5030 H   0  0  0  0  0  0  0  0  0  0  0  0  # atno 8009 bound_to 7997
  156.2952  140.2278  156.4648 H   0  0  0  0  0  0  0  0  0  0  0  0  # atno 8010 bound_to 7997
  139.5310  144.6630  151.4953 H   0  0  0  0  0  0  0  0  0  0  0  0  # atno 10167 bound_to 10162
  157.6934  131.0560  150.4405 H   0  0  0  0  0  0  0  0  0  0  0  0  # atno 10718 bound_to 10713
  154.8679  135.4149  154.2705 H   0  0  0  0  0  0  0  0  0  0  0  0  # atno 10763 bound_to 10752
  153.3616  135.7003  153.6713 H   0  0  0  0  0  0  0  0  0  0  0  0  # atno 10764 bound_to 10752
  153.5611  135.3609  155.2772 H   0  0  0  0  0  0  0  0  0  0  0  0  # atno 10765 bound_to 10752
  140.2707  134.3085  155.7828 H   0  0  0  0  0  0  0  0  0  0  0  0  # atno 11005 bound_to 11000
  144.6743  140.0611  143.7476 LP  0  0  0  0  0  0  0  0  0  0  0  0  # atno 17320 bound_to 7965
  145.9617  139.2805  143.1152 LP  0  0  0  0  0  0  0  0  0  0  0  0  # atno 17321 bound_to 7965
  140.6487  143.8741  150.6763 LP  0  0  0  0  0  0  0  0  0  0  0  0  # atno 17342 bound_to 10162
  140.2099  143.3892  152.1726 LP  0  0  0  0  0  0  0  0  0  0  0  0  # atno 17343 bound_to 10162
  156.4764  130.4064  149.6487 LP  0  0  0  0  0  0  0  0  0  0  0  0  # atno 17370 bound_to 10713
  156.3549  130.7451  151.2416 LP  0  0  0  0  0  0  0  0  0  0  0  0  # atno 17371 bound_to 10713
  141.2178  133.7465  156.9331 LP  0  0  0  0  0  0  0  0  0  0  0  0  # atno 17394 bound_to 11000
  140.1375  134.9315  157.2422 LP  0  0  0  0  0  0  0  0  0  0  0  0  # atno 17395 bound_to 11000

$$$$
