AV-unprocessed.smi:679|AV-procd|sdf|3322|dock5
  -GOLD-   22720 0293D 1   1.00000     0.00000
 Structure written by MMmdl.
 41 43  0  0  0  0  0  0  0  0  1 V2000
  146.9033  143.7094  159.2981 C   0  0  0  0  0  0  0  0  0  0  0  0
  147.6776  142.7879  158.3532 C   0  0  0  0  0  0  0  0  0  0  0  0
  149.0406  142.7785  158.7416 O   0  0  0  0  0  0  0  0  0  0  0  0
  149.8077  141.8046  158.0512 C   0  0  1  0  0  0  0  0  0  0  0  0
  149.5359  141.7189  156.5461 C   0  0  0  0  0  0  0  0  0  0  0  0
  151.0492  141.5670  156.3515 C   0  0  2  0  0  0  0  0  0  0  0  0
  151.4419  140.1569  156.3558 N   0  0  0  0  0  0  0  0  0  0  0  0
  151.0727  139.2586  155.4314 C   0  0  0  0  0  0  0  0  0  0  0  0
  150.3512  139.5363  154.4725 O   0  0  0  0  0  0  0  0  0  0  0  0
  151.6159  137.8387  155.6190 C   0  0  0  0  0  0  0  0  0  0  0  0
  150.5534  136.8573  155.7507 N   0  0  0  0  0  0  0  0  0  0  0  0
  150.2615  135.7760  155.0245 C   0  0  0  0  0  0  0  0  0  0  0  0
  149.1892  135.1514  155.4865 N   0  0  0  0  0  0  0  0  0  0  0  0
  148.8170  135.9266  156.5721 N   0  0  0  0  0  0  0  0  0  0  0  0
  149.6212  136.9415  156.7322 N   0  0  0  0  0  0  0  0  0  0  0  0
  151.2468  142.2703  157.7212 C   0  0  0  0  0  0  0  0  0  0  0  0
  151.4935  143.7807  157.6811 C   0  0  0  0  0  0  0  0  0  0  0  0
  151.9984  144.1948  159.0673 C   0  0  0  0  0  0  0  0  0  0  0  0
  152.5192  142.9112  159.7213 C   0  0  0  0  0  0  0  0  0  0  0  0
  152.3599  141.8168  158.6642 C   0  0  0  0  0  0  0  0  0  0  0  0
  145.8453  143.7369  159.0364 H   0  0  0  0  0  0  0  0  0  0  0  0
  147.2869  144.7290  159.2513 H   0  0  0  0  0  0  0  0  0  0  0  0
  146.9842  143.3675  160.3301 H   0  0  0  0  0  0  0  0  0  0  0  0
  147.2663  141.7784  158.3992 H   0  0  0  0  0  0  0  0  0  0  0  0
  147.5775  143.1398  157.3256 H   0  0  0  0  0  0  0  0  0  0  0  0
  149.7931  140.8268  158.5376 H   0  0  0  0  0  0  0  0  0  0  0  0
  148.9341  140.8629  156.2383 H   0  0  0  0  0  0  0  0  0  0  0  0
  149.1492  142.6507  156.1302 H   0  0  0  0  0  0  0  0  0  0  0  0
  151.4267  142.1352  155.4995 H   0  0  0  0  0  0  0  0  0  0  0  0
  152.0394  139.8497  157.1095 H   0  0  0  0  0  0  0  0  0  0  0  0
  152.2461  137.5804  154.7665 H   0  0  0  0  0  0  0  0  0  0  0  0
  152.2411  137.7870  156.5115 H   0  0  0  0  0  0  0  0  0  0  0  0
  150.8299  135.4495  154.1661 H   0  0  0  0  0  0  0  0  0  0  0  0
  152.2602  144.0089  156.9393 H   0  0  0  0  0  0  0  0  0  0  0  0
  150.6080  144.3490  157.3942 H   0  0  0  0  0  0  0  0  0  0  0  0
  152.7726  144.9590  158.9948 H   0  0  0  0  0  0  0  0  0  0  0  0
  151.1824  144.6088  159.6611 H   0  0  0  0  0  0  0  0  0  0  0  0
  153.5543  143.0057  160.0506 H   0  0  0  0  0  0  0  0  0  0  0  0
  151.9150  142.6741  160.5979 H   0  0  0  0  0  0  0  0  0  0  0  0
  152.1545  140.8491  159.1231 H   0  0  0  0  0  0  0  0  0  0  0  0
  153.2956  141.7137  158.1132 H   0  0  0  0  0  0  0  0  0  0  0  0
  1  2  1  0  0  0  0
  1 21  1  0  0  0  0
  1 22  1  0  0  0  0
  1 23  1  0  0  0  0
  2  3  1  0  0  0  0
  2 24  1  0  0  0  0
  2 25  1  0  0  0  0
  3  4  1  0  0  0  0
  4 16  1  0  0  0  0
  4  5  1  0  0  0  0
  4 26  1  0  0  0  0
  5  6  1  0  0  0  0
  5 27  1  0  0  0  0
  5 28  1  0  0  0  0
  6  7  1  0  0  0  0
  6 16  1  0  0  0  0
  6 29  1  0  0  0  0
  7  8  1  0  0  0  0
  7 30  1  0  0  0  0
  8  9  2  0  0  0  0
  8 10  1  0  0  0  0
 10 11  1  0  0  0  0
 10 31  1  0  0  0  0
 10 32  1  0  0  0  0
 11 15  1  0  0  0  0
 11 12  1  0  0  0  0
 12 13  2  0  0  0  0
 12 33  1  0  0  0  0
 13 14  1  0  0  0  0
 14 15  2  0  0  0  0
 16 20  1  0  0  0  0
 16 17  1  0  0  0  0
 17 18  1  0  0  0  0
 17 34  1  0  0  0  0
 17 35  1  0  0  0  0
 18 19  1  0  0  0  0
 18 36  1  0  0  0  0
 18 37  1  0  0  0  0
 19 20  1  0  0  0  0
 19 38  1  0  0  0  0
 19 39  1  0  0  0  0
 20 40  1  0  0  0  0
 20 41  1  0  0  0  0
M  END
> <s_m_source_file>
AV-unprocessed.smi

> <i_m_source_file_index>
679

> <i_lp_mmshare_version>
43012

> <i_f3d_flags>
0

> <s_epik_input>
W0NIMl0xW0NIMl1bQ0gyXVtDSDJdQzEyW0NASF0oT1tDSDJdW0NIM10pW0NIMl1bQ0BIXTJbTkhdQyg9TylbQ0gyXW4zW2NIXW5ubjM=

> <s_epik_cmdline>
J2VwaWtfcHl0aG9uJywgJy1waCcsICc3LjAnLCAnLXRuJywgJzgnLCAnLW1hJywgJzIwMCcsICctbWV0YWxfYmluZGluZycsICctaW1hZScsICc8aW5maWxlLm1hZT4nLCAnLW9tYWUnLCAnPG91dGZpbGUubWFlPic=

> <r_lp_tautomer_probability>
1

> <r_epik_Ionization_Penalty>
7.96741e-07

> <r_epik_Ionization_Penalty_Charging>
0

> <r_epik_Ionization_Penalty_Neutral>
7.96741e-07

> <r_epik_State_Penalty>
-0

> <r_epik_Charging_Adjusted_Penalty>
0

> <i_epik_Tot_Q>
0

> <i_epik_Tot_abs_Q>
0

> <r_epik_Metal_State_Penalty>
-0

> <b_epik_Metal_Only>
0

> <s_lp_Force_Field>
OPLS_2005

> <r_lp_Energy>
39.7046

> <b_lp_Chiralities_Consistent>
1

> <s_lp_Variant>
AV-unprocessed.smi:679-4

> <Gold.Version>
5.8.1

> <Gold.Id.Protein>
6NUR|6NUR_protein|mol2

> <Gold.PLP.Fitness>
39.9790

> <Gold.PLP.PLP>
-34.5526

> <Gold.PLP.part.hbond>
-1.5216

> <Gold.PLP.part.metal>
0.0000

> <Gold.PLP.part.buried>
-4.4443

> <Gold.PLP.part.nonpolar>
-28.1632

> <Gold.PLP.part.repulsive>
0.5862

> <Gold.PLP.ligand.clash>
0.0000

> <Gold.PLP.ligand.torsion>
0.4650

> <Gold.PLP.Chemscore.Hbond>
1.0000

> <Gold.PLP.Chemscore.CHOScore>
1.0000

> <Gold.PLP.Chemscore.Metal>
0.0000

> <Gold.Chemscore.Hbonds>
donor molecule, donor type, donor heavy atom, donor atom, acceptor molecule, acceptor atom, score
      P1  H  7989  7998       L1     9  0.82
      L1  C    12    33       P1  7949  0.34

> <Gold.PLP.Chemscore.Internal.Correction>
0.3563

> <Gold.Rescore>
     Score         DG    S(hbond)    S(metal)    S(lipo)     H(rot)  DE(clash)    DE(int)     intcor
     11.57     -11.97       1.00        0.00      79.60       2.41       0.06       0.33       ----

> <Gold.Chemscore.Fitness>
11.5745

> <Gold.Chemscore.DG>
-11.9666

> <Gold.Chemscore.ZeroCoef>
-5.4800

> <Gold.Chemscore.Hbond>
1.0000

> <Gold.Chemscore.Metal>
0.0000

> <Gold.Chemscore.Lipo>
79.6019

> <Gold.Chemscore.Internal_Hbond>
0.0000

> <Gold.Chemscore.DEClash>
0.0624

> <Gold.Chemscore.DEInternal>
0.3297

> <Gold.Chemscore.Rot>
2.4089

> <Gold.Chemscore.Internal.Correction>
   9.000000E+99

> <Gold.Chemscore.Hbonds>
donor molecule, donor type, donor heavy atom, donor atom, acceptor molecule, acceptor atom, score
      P1  H  7989  7998       L1     9  0.18

> <Gold.Chemscore.Hbond.Weighted>
-3.3400

> <Gold.Chemscore.Metal.Weighted>
-0.0000

> <Gold.Chemscore.Lipo.Weighted>
-9.3134

> <Gold.Chemscore.Internal_Hbond.Weighted>
0.0000

> <Gold.Chemscore.DEClash.Weighted>
0.0624

> <Gold.Chemscore.DEInternal.Weighted>
0.3297

> <Gold.Chemscore.Rot.Weighted>
6.1668

> <Gold.Chemscore.Internal.Correction.Weighted>
   9.000000E+99

> <Gold.Protein.RotatedTorsions>
[ 6907 6896 6895 6894 ] final  158.23 input  -60.11 | X-H torsion
[ 7974 7965 7964 7962 ] final  -12.01 input  175.53 | X-H torsion
[ 8008 7997 7996 7995 ] final   68.11 input   59.86 | X-H torsion
[ 10167 10162 10161 10158 ] final  -24.51 input  -65.29 | X-H torsion
[ 10718 10713 10712 10709 ] final   48.88 input   66.30 | X-H torsion
[ 10763 10752 10751 10750 ] final   93.70 input  -60.55 | X-H torsion
[ 11005 11000 10999 10996 ] final -148.66 input  -57.11 | X-H torsion

> <Gold.Protein.ActiveResidues>
 VAL166  LYS551  ARG553  GLY616  TRP617  ASP618  TYR619  PRO620  LYS621  CYS622 
 ASP623  PHE694  ASN695  SER759  ASP760  ASP761  ALA762  ILE779  LEU786  VAL792 
 PHE793  MET794  SER795  GLU796  ALA797  LYS798  CYS799  TRP800  GLU811  SER814 

> <Gold.Protein.RotatedAtoms>
  152.0034  133.3834  159.4190 H   0  0  0  0  0  0  0  0  0  0  0  0  # atno 6907 bound_to 6896
  150.6907  134.3808  159.5043 H   0  0  0  0  0  0  0  0  0  0  0  0  # atno 6908 bound_to 6896
  152.1559  134.8951  160.0595 H   0  0  0  0  0  0  0  0  0  0  0  0  # atno 6909 bound_to 6896
  146.2167  140.2994  142.8374 H   0  0  0  0  0  0  0  0  0  0  0  0  # atno 7974 bound_to 7965
  155.7033  140.3495  155.4942 H   0  0  0  0  0  0  0  0  0  0  0  0  # atno 8008 bound_to 7997
  155.9421  140.1103  157.1069 H   0  0  0  0  0  0  0  0  0  0  0  0  # atno 8009 bound_to 7997
  154.4105  140.1210  156.4928 H   0  0  0  0  0  0  0  0  0  0  0  0  # atno 8010 bound_to 7997
  140.7288  143.4346  151.0749 H   0  0  0  0  0  0  0  0  0  0  0  0  # atno 10167 bound_to 10162
  157.4731  130.8268  149.8009 H   0  0  0  0  0  0  0  0  0  0  0  0  # atno 10718 bound_to 10713
  153.2333  135.4316  155.0619 H   0  0  0  0  0  0  0  0  0  0  0  0  # atno 10763 bound_to 10752
  154.8307  135.3385  154.6756 H   0  0  0  0  0  0  0  0  0  0  0  0  # atno 10764 bound_to 10752
  153.7182  135.7018  153.5076 H   0  0  0  0  0  0  0  0  0  0  0  0  # atno 10765 bound_to 10752
  140.7589  134.3321  157.5107 H   0  0  0  0  0  0  0  0  0  0  0  0  # atno 11005 bound_to 11000
  144.9068  140.7709  143.5832 LP  0  0  0  0  0  0  0  0  0  0  0  0  # atno 17320 bound_to 7965
  145.2923  139.1879  143.4734 LP  0  0  0  0  0  0  0  0  0  0  0  0  # atno 17321 bound_to 7965
  139.8007  143.8088  152.3162 LP  0  0  0  0  0  0  0  0  0  0  0  0  # atno 17342 bound_to 10162
  139.8103  144.7338  150.9706 LP  0  0  0  0  0  0  0  0  0  0  0  0  # atno 17343 bound_to 10162
  156.0083  130.3845  150.2353 LP  0  0  0  0  0  0  0  0  0  0  0  0  # atno 17370 bound_to 10713
  157.0536  131.0070  151.3245 LP  0  0  0  0  0  0  0  0  0  0  0  0  # atno 17371 bound_to 10713
  139.8774  134.9189  156.3215 LP  0  0  0  0  0  0  0  0  0  0  0  0  # atno 17394 bound_to 11000
  140.9681  133.7345  156.0496 LP  0  0  0  0  0  0  0  0  0  0  0  0  # atno 17395 bound_to 11000

$$$$
