AV-unprocessed.smi:1295|AV-procd|sdf|5407|dock2
  -GOLD-   22720 4563D 1   1.00000     0.00000
 Structure written by MMmdl.
 43 44  0  0  0  0  0  0  0  0  1 V2000
  147.0571  132.7769  161.8656 C   0  0  0  0  0  0  0  0  0  0  0  0
  147.4482  134.0249  161.1043 C   0  0  0  0  0  0  0  0  0  0  0  0
  147.7718  133.7889  159.7786 N   0  0  0  0  0  0  0  0  0  0  0  0
  148.1380  134.8715  158.9987 C   0  0  0  0  0  0  0  0  0  0  0  0
  148.4582  134.5292  157.5542 C   0  0  0  0  0  0  0  0  0  0  0  0
  148.1832  136.1259  159.5151 C   0  0  0  0  0  0  0  0  0  0  0  0
  148.5588  137.3510  158.6796 C   0  0  0  0  0  0  0  0  0  0  0  0
  150.0421  137.7287  158.6920 C   0  0  0  0  0  0  0  0  0  0  0  0
  150.8137  137.1703  159.4708 O   0  0  0  0  0  0  0  0  0  0  0  0
  150.4210  138.6690  157.8137 N   0  0  0  0  0  0  0  0  0  0  0  0
  151.7866  139.1167  157.5503 C   0  0  2  0  0  0  0  0  0  0  0  0
  152.3421  139.8833  158.7675 C   0  0  0  0  0  0  0  0  0  0  0  0
  151.6456  141.2409  158.9653 C   0  0  0  0  0  0  0  0  0  0  0  0
  151.7181  142.0935  157.6898 C   0  0  0  0  0  0  0  0  0  0  0  0
  151.1379  141.3425  156.4810 C   0  0  0  0  0  0  0  0  0  0  0  0
  151.8368  139.9835  156.2672 C   0  0  2  0  0  0  0  0  0  0  0  0
  151.2767  139.2538  155.0334 C   0  0  0  0  0  0  0  0  0  0  0  0
  147.8230  136.3160  160.9405 C   0  0  0  0  0  0  0  0  0  0  0  0
  147.8272  137.4297  161.4626 O   0  0  0  0  0  0  0  0  0  0  0  0
  147.4589  135.1846  161.6880 N   0  0  0  0  0  0  0  0  0  0  0  0
  147.7498  132.8729  159.3540 H   0  0  0  0  0  0  0  0  0  0  0  0
  146.9222  132.9928  162.9263 H   0  0  0  0  0  0  0  0  0  0  0  0
  147.8297  132.0131  161.7702 H   0  0  0  0  0  0  0  0  0  0  0  0
  146.1207  132.3748  161.4774 H   0  0  0  0  0  0  0  0  0  0  0  0
  149.4872  134.7993  157.3171 H   0  0  0  0  0  0  0  0  0  0  0  0
  147.7949  135.0696  156.8784 H   0  0  0  0  0  0  0  0  0  0  0  0
  148.3382  133.4630  157.3575 H   0  0  0  0  0  0  0  0  0  0  0  0
  147.9858  138.2043  159.0431 H   0  0  0  0  0  0  0  0  0  0  0  0
  148.2450  137.2276  157.6428 H   0  0  0  0  0  0  0  0  0  0  0  0
  149.7022  139.0762  157.2330 H   0  0  0  0  0  0  0  0  0  0  0  0
  152.4230  138.2455  157.3852 H   0  0  0  0  0  0  0  0  0  0  0  0
  152.2460  139.2786  159.6703 H   0  0  0  0  0  0  0  0  0  0  0  0
  153.4109  140.0494  158.6276 H   0  0  0  0  0  0  0  0  0  0  0  0
  150.6023  141.0849  159.2427 H   0  0  0  0  0  0  0  0  0  0  0  0
  152.1069  141.7760  159.7957 H   0  0  0  0  0  0  0  0  0  0  0  0
  151.1800  143.0302  157.8383 H   0  0  0  0  0  0  0  0  0  0  0  0
  152.7559  142.3619  157.4888 H   0  0  0  0  0  0  0  0  0  0  0  0
  150.0667  141.1926  156.6251 H   0  0  0  0  0  0  0  0  0  0  0  0
  151.2422  141.9588  155.5874 H   0  0  0  0  0  0  0  0  0  0  0  0
  152.8884  140.1890  156.0613 H   0  0  0  0  0  0  0  0  0  0  0  0
  150.2044  139.0750  155.1210 H   0  0  0  0  0  0  0  0  0  0  0  0
  151.7645  138.2889  154.8929 H   0  0  0  0  0  0  0  0  0  0  0  0
  151.4380  139.8390  154.1277 H   0  0  0  0  0  0  0  0  0  0  0  0
  1 22  1  0  0  0  0
  1 23  1  0  0  0  0
  1 24  1  0  0  0  0
  1  2  1  0  0  0  0
  2  3  1  0  0  0  0
  2 20  2  0  0  0  0
  3  4  1  0  0  0  0
  3 21  1  0  0  0  0
  4  6  2  0  0  0  0
  4  5  1  0  0  0  0
  5 25  1  0  0  0  0
  5 26  1  0  0  0  0
  5 27  1  0  0  0  0
  6 18  1  0  0  0  0
  6  7  1  0  0  0  0
  7  8  1  0  0  0  0
  7 28  1  0  0  0  0
  7 29  1  0  0  0  0
  8  9  2  0  0  0  0
  8 10  1  0  0  0  0
 10 11  1  0  0  0  0
 10 30  1  0  0  0  0
 11 16  1  0  0  0  0
 11 12  1  0  0  0  0
 11 31  1  0  0  0  0
 12 13  1  0  0  0  0
 12 32  1  0  0  0  0
 12 33  1  0  0  0  0
 13 14  1  0  0  0  0
 13 34  1  0  0  0  0
 13 35  1  0  0  0  0
 14 15  1  0  0  0  0
 14 36  1  0  0  0  0
 14 37  1  0  0  0  0
 15 16  1  0  0  0  0
 15 38  1  0  0  0  0
 15 39  1  0  0  0  0
 16 17  1  0  0  0  0
 16 40  1  0  0  0  0
 17 41  1  0  0  0  0
 17 42  1  0  0  0  0
 17 43  1  0  0  0  0
 18 19  2  0  0  0  0
 18 20  1  0  0  0  0
M  END
> <s_m_source_file>
AV-unprocessed.smi

> <i_m_source_file_index>
1295

> <i_lp_mmshare_version>
43012

> <i_f3d_flags>
0

> <s_epik_input>
W0NIM11jMW5jKFtDSDNdKWMoYyg9TylbbkhdMSlbQ0gyXUMoPU8pW05IXVtDQEBIXTJbQ0gyXVtDSDJdW0NIMl1bQ0gyXVtDQEhdMltDSDNd

> <s_epik_cmdline>
J2VwaWtfcHl0aG9uJywgJy1waCcsICc3LjAnLCAnLXRuJywgJzgnLCAnLW1hJywgJzIwMCcsICctbWV0YWxfYmluZGluZycsICctaW1hZScsICc8aW5maWxlLm1hZT4nLCAnLW9tYWUnLCAnPG91dGZpbGUubWFlPic=

> <r_lp_tautomer_probability>
0.156392

> <r_epik_Ionization_Penalty>
0.0136057

> <r_epik_Ionization_Penalty_Charging>
0.0134742

> <r_epik_Ionization_Penalty_Neutral>
0.000131572

> <r_epik_State_Penalty>
1.15342

> <r_epik_Charging_Adjusted_Penalty>
1.16689

> <i_epik_Tot_Q>
0

> <i_epik_Tot_abs_Q>
0

> <r_epik_Metal_State_Penalty>
1.31351

> <b_epik_Metal_Only>
0

> <s_lp_Force_Field>
OPLS_2005

> <r_lp_Energy>
13.3466

> <b_lp_Chiralities_Consistent>
1

> <s_lp_Variant>
AV-unprocessed.smi:1295-7

> <Gold.Version>
5.8.1

> <Gold.Id.Protein>
6NUR|6NUR_protein|mol2

> <Gold.PLP.Fitness>
38.5017

> <Gold.PLP.PLP>
-31.0903

> <Gold.PLP.part.hbond>
-3.0000

> <Gold.PLP.part.metal>
0.0000

> <Gold.PLP.part.buried>
-5.2667

> <Gold.PLP.part.nonpolar>
-23.6699

> <Gold.PLP.part.repulsive>
0.1185

> <Gold.PLP.ligand.clash>
0.0000

> <Gold.PLP.ligand.torsion>
0.5587

> <Gold.PLP.Chemscore.Hbond>
2.8400

> <Gold.PLP.Chemscore.CHOScore>
0.0000

> <Gold.PLP.Chemscore.Metal>
0.0000

> <Gold.Chemscore.Hbonds>
donor molecule, donor type, donor heavy atom, donor atom, acceptor molecule, acceptor atom, score
      P1  H  6896  6907       L1     9  0.68
      P1  H  6931  6943       L1    19  0.89
      P1  H  6934  6947       L1    19  0.67

> <Gold.PLP.Chemscore.Internal.Correction>
0.0087

> <Gold.Rescore>
     Score         DG    S(hbond)    S(metal)    S(lipo)     H(rot)  DE(clash)    DE(int)     intcor
     17.58     -17.96       2.79        0.00      59.48       1.48       0.00       0.37       ----

> <Gold.Chemscore.Fitness>
17.5845

> <Gold.Chemscore.DG>
-17.9579

> <Gold.Chemscore.ZeroCoef>
-5.4800

> <Gold.Chemscore.Hbond>
2.7867

> <Gold.Chemscore.Metal>
0.0000

> <Gold.Chemscore.Lipo>
59.4816

> <Gold.Chemscore.Internal_Hbond>
0.0000

> <Gold.Chemscore.DEClash>
0.0009

> <Gold.Chemscore.DEInternal>
0.3725

> <Gold.Chemscore.Rot>
1.4801

> <Gold.Chemscore.Internal.Correction>
   9.000000E+99

> <Gold.Chemscore.Hbonds>
donor molecule, donor type, donor heavy atom, donor atom, acceptor molecule, acceptor atom, score
      P1  H  6896  6907       L1     9  0.69
      P1  H  6931  6943       L1    19  0.83
      P1  H  6934  6947       L1    19  0.66

> <Gold.Chemscore.Hbond.Weighted>
-9.3076

> <Gold.Chemscore.Metal.Weighted>
-0.0000

> <Gold.Chemscore.Lipo.Weighted>
-6.9594

> <Gold.Chemscore.Internal_Hbond.Weighted>
0.0000

> <Gold.Chemscore.DEClash.Weighted>
0.0009

> <Gold.Chemscore.DEInternal.Weighted>
0.3725

> <Gold.Chemscore.Rot.Weighted>
3.7891

> <Gold.Chemscore.Internal.Correction.Weighted>
   9.000000E+99

> <Gold.Protein.RotatedTorsions>
[ 6907 6896 6895 6894 ] final  -31.47 input  -60.11 | X-H torsion
[ 7974 7965 7964 7962 ] final -161.06 input  175.53 | X-H torsion
[ 8008 7997 7996 7995 ] final   71.29 input   59.86 | X-H torsion
[ 10167 10162 10161 10158 ] final   89.65 input  -65.29 | X-H torsion
[ 10718 10713 10712 10709 ] final  -15.24 input   66.30 | X-H torsion
[ 10763 10752 10751 10750 ] final  -91.83 input  -60.55 | X-H torsion
[ 11005 11000 10999 10996 ] final   62.16 input  -57.11 | X-H torsion

> <Gold.Protein.ActiveResidues>
 VAL166  LYS551  ARG553  GLY616  TRP617  ASP618  TYR619  PRO620  LYS621  CYS622 
 ASP623  PHE694  ASN695  SER759  ASP760  ASP761  ALA762  ILE779  LEU786  VAL792 
 PHE793  MET794  SER795  GLU796  ALA797  LYS798  CYS799  TRP800  GLU811  SER814 

> <Gold.Protein.RotatedAtoms>
  151.0916  134.9919  159.8405 H   0  0  0  0  0  0  0  0  0  0  0  0  # atno 6907 bound_to 6896
  152.5429  134.2058  159.8740 H   0  0  0  0  0  0  0  0  0  0  0  0  # atno 6908 bound_to 6896
  151.2095  133.4520  159.2631 H   0  0  0  0  0  0  0  0  0  0  0  0  # atno 6909 bound_to 6896
  144.7404  140.3452  143.6126 H   0  0  0  0  0  0  0  0  0  0  0  0  # atno 7974 bound_to 7965
  155.7516  140.3488  155.5153 H   0  0  0  0  0  0  0  0  0  0  0  0  # atno 8008 bound_to 7997
  155.8999  140.1032  157.1378 H   0  0  0  0  0  0  0  0  0  0  0  0  # atno 8009 bound_to 7997
  154.4043  140.1288  156.4410 H   0  0  0  0  0  0  0  0  0  0  0  0  # atno 8010 bound_to 7997
  139.8551  144.6573  150.9124 H   0  0  0  0  0  0  0  0  0  0  0  0  # atno 10167 bound_to 10162
  156.6046  130.4833  149.6226 H   0  0  0  0  0  0  0  0  0  0  0  0  # atno 10718 bound_to 10713
  154.6800  135.5253  153.8251 H   0  0  0  0  0  0  0  0  0  0  0  0  # atno 10763 bound_to 10752
  153.0558  135.6550  154.0590 H   0  0  0  0  0  0  0  0  0  0  0  0  # atno 10764 bound_to 10752
  154.0478  135.2972  155.3325 H   0  0  0  0  0  0  0  0  0  0  0  0  # atno 10765 bound_to 10752
  140.0111  134.6294  155.9779 H   0  0  0  0  0  0  0  0  0  0  0  0  # atno 11005 bound_to 11000
  145.7333  139.1742  143.2418 LP  0  0  0  0  0  0  0  0  0  0  0  0  # atno 17320 bound_to 7965
  146.1190  140.7333  142.9467 LP  0  0  0  0  0  0  0  0  0  0  0  0  # atno 17321 bound_to 7965
  140.7782  143.3793  151.1506 LP  0  0  0  0  0  0  0  0  0  0  0  0  # atno 17342 bound_to 10162
  139.7427  143.8899  152.3055 LP  0  0  0  0  0  0  0  0  0  0  0  0  # atno 17343 bound_to 10162
  156.2441  130.6868  151.1583 LP  0  0  0  0  0  0  0  0  0  0  0  0  # atno 17370 bound_to 10713
  157.7270  131.0642  150.5882 LP  0  0  0  0  0  0  0  0  0  0  0  0  # atno 17371 bound_to 10713
  141.1712  133.6537  156.4657 LP  0  0  0  0  0  0  0  0  0  0  0  0  # atno 17394 bound_to 11000
  140.4552  134.6892  157.5059 LP  0  0  0  0  0  0  0  0  0  0  0  0  # atno 17395 bound_to 11000

$$$$
