AV-unprocessed.smi:1217|AV-procd|sdf|5102|dock6
  -GOLD-   22720 4153D 1   1.00000     0.00000
 Structure written by MMmdl.
 34 35  0  0  0  0  0  0  0  0  1 V2000
  145.6514  138.4347  154.5089 C   0  0  0  0  0  0  0  0  0  0  0  0
  146.2708  138.7019  153.1286 C   0  0  2  0  0  0  0  0  0  0  0  0
  146.5468  137.4184  152.4864 N   0  0  0  0  0  0  0  0  0  0  0  0
  145.6241  136.5415  152.0631 C   0  0  0  0  0  0  0  0  0  0  0  0
  144.4109  136.7218  152.1721 O   0  0  0  0  0  0  0  0  0  0  0  0
  146.2014  135.4615  151.5076 N   0  0  0  0  0  0  0  0  0  0  0  0
  145.5720  134.2978  150.9904 C   0  0  0  0  0  0  0  0  0  0  0  0
  146.4539  133.3078  150.5010 C   0  0  0  0  0  0  0  0  0  0  0  0
  145.9295  132.1124  149.9723 C   0  0  0  0  0  0  0  0  0  0  0  0
  144.5347  131.9359  149.9493 C   0  0  0  0  0  0  0  0  0  0  0  0
  143.7272  132.9701  150.4573 C   0  0  0  0  0  0  0  0  0  0  0  0
  144.2277  134.1172  150.9631 N   0  0  0  0  0  0  0  0  0  0  0  0
  147.5684  139.5302  153.2210 C   0  0  2  0  0  0  0  0  0  0  0  0
  148.6508  138.9261  154.1179 C   0  0  0  0  0  0  0  0  0  0  0  0
  149.4610  140.1301  154.5752 C   0  0  0  0  0  0  0  0  0  0  0  0
  148.5969  141.3318  154.1859 C   0  0  0  0  0  0  0  0  0  0  0  0
  147.3322  140.7791  153.8533 O   0  0  0  0  0  0  0  0  0  0  0  0
  145.3824  139.3640  155.0110 H   0  0  0  0  0  0  0  0  0  0  0  0
  146.3424  137.8945  155.1571 H   0  0  0  0  0  0  0  0  0  0  0  0
  144.7421  137.8390  154.4212 H   0  0  0  0  0  0  0  0  0  0  0  0
  145.5389  139.2596  152.5413 H   0  0  0  0  0  0  0  0  0  0  0  0
  147.5188  137.1844  152.3489 H   0  0  0  0  0  0  0  0  0  0  0  0
  147.2093  135.4662  151.4615 H   0  0  0  0  0  0  0  0  0  0  0  0
  147.5233  133.4592  150.5277 H   0  0  0  0  0  0  0  0  0  0  0  0
  146.5870  131.3445  149.5924 H   0  0  0  0  0  0  0  0  0  0  0  0
  144.0952  131.0324  149.5534 H   0  0  0  0  0  0  0  0  0  0  0  0
  142.6516  132.8740  150.4590 H   0  0  0  0  0  0  0  0  0  0  0  0
  147.9747  139.7136  152.2241 H   0  0  0  0  0  0  0  0  0  0  0  0
  148.1970  138.4452  154.9857 H   0  0  0  0  0  0  0  0  0  0  0  0
  149.2567  138.1813  153.6011 H   0  0  0  0  0  0  0  0  0  0  0  0
  149.6330  140.0930  155.6513 H   0  0  0  0  0  0  0  0  0  0  0  0
  150.4320  140.1753  154.0808 H   0  0  0  0  0  0  0  0  0  0  0  0
  148.5094  142.0645  154.9885 H   0  0  0  0  0  0  0  0  0  0  0  0
  149.0098  141.8338  153.3097 H   0  0  0  0  0  0  0  0  0  0  0  0
  1  2  1  0  0  0  0
  1 18  1  0  0  0  0
  1 19  1  0  0  0  0
  1 20  1  0  0  0  0
  2  3  1  0  0  0  0
  2 13  1  0  0  0  0
  2 21  1  0  0  0  0
  3  4  1  0  0  0  0
  3 22  1  0  0  0  0
  4  5  2  0  0  0  0
  4  6  1  0  0  0  0
  6  7  1  0  0  0  0
  6 23  1  0  0  0  0
  7 12  1  0  0  0  0
  7  8  2  0  0  0  0
  8  9  1  0  0  0  0
  8 24  1  0  0  0  0
  9 10  2  0  0  0  0
  9 25  1  0  0  0  0
 10 11  1  0  0  0  0
 10 26  1  0  0  0  0
 11 12  2  0  0  0  0
 11 27  1  0  0  0  0
 13 17  1  0  0  0  0
 13 14  1  0  0  0  0
 13 28  1  0  0  0  0
 14 15  1  0  0  0  0
 14 29  1  0  0  0  0
 14 30  1  0  0  0  0
 15 16  1  0  0  0  0
 15 31  1  0  0  0  0
 15 32  1  0  0  0  0
 16 17  1  0  0  0  0
 16 33  1  0  0  0  0
 16 34  1  0  0  0  0
M  END
> <s_m_source_file>
AV-unprocessed.smi

> <i_m_source_file_index>
1217

> <i_lp_mmshare_version>
43012

> <i_f3d_flags>
0

> <s_epik_input>
TzFbQ0gyXVtDSDJdW0NIMl1bQ0BIXTFbQ0BIXShbQ0gzXSlbTkhdQyg9TylbTkhdYzJbY0hdW2NIXVtjSF1bY0hdbjI=

> <s_epik_cmdline>
J2VwaWtfcHl0aG9uJywgJy1waCcsICc3LjAnLCAnLXRuJywgJzgnLCAnLW1hJywgJzIwMCcsICctbWV0YWxfYmluZGluZycsICctaW1hZScsICc8aW5maWxlLm1hZT4nLCAnLW9tYWUnLCAnPG91dGZpbGUubWFlPic=

> <r_lp_tautomer_probability>
1

> <r_epik_Ionization_Penalty>
4.51768e-05

> <r_epik_Ionization_Penalty_Charging>
0

> <r_epik_Ionization_Penalty_Neutral>
4.51768e-05

> <r_epik_State_Penalty>
-0

> <r_epik_Charging_Adjusted_Penalty>
0

> <i_epik_Tot_Q>
0

> <i_epik_Tot_abs_Q>
0

> <r_epik_Metal_State_Penalty>
-0

> <b_epik_Metal_Only>
0

> <s_lp_Force_Field>
OPLS_2005

> <r_lp_Energy>
20.7335

> <b_lp_Chiralities_Consistent>
1

> <s_lp_Variant>
AV-unprocessed.smi:1217-1

> <Gold.Version>
5.8.1

> <Gold.Id.Protein>
6NUR|6NUR_protein|mol2

> <Gold.PLP.Fitness>
38.1343

> <Gold.PLP.PLP>
-29.5727

> <Gold.PLP.part.hbond>
-2.0000

> <Gold.PLP.part.metal>
0.0000

> <Gold.PLP.part.buried>
-1.5810

> <Gold.PLP.part.nonpolar>
-26.4995

> <Gold.PLP.part.repulsive>
0.6081

> <Gold.PLP.ligand.clash>
0.0000

> <Gold.PLP.ligand.torsion>
0.0922

> <Gold.PLP.Chemscore.Hbond>
2.0000

> <Gold.PLP.Chemscore.CHOScore>
0.9083

> <Gold.PLP.Chemscore.Metal>
0.0000

> <Gold.Chemscore.Hbonds>
donor molecule, donor type, donor heavy atom, donor atom, acceptor molecule, acceptor atom, score
      L1  H     3    22       P1  7948  1.00
      L1  H     6    23       P1  7948  1.00
      L1  C    11    27       P1 10186  0.97

> <Gold.PLP.Chemscore.Internal.Correction>
0.0210

> <Gold.Rescore>
     Score         DG    S(hbond)    S(metal)    S(lipo)     H(rot)  DE(clash)    DE(int)     intcor
     15.55     -17.25       1.93        0.00      72.84       1.25       0.31       1.39       ----

> <Gold.Chemscore.Fitness>
15.5487

> <Gold.Chemscore.DG>
-17.2463

> <Gold.Chemscore.ZeroCoef>
-5.4800

> <Gold.Chemscore.Hbond>
1.9299

> <Gold.Chemscore.Metal>
0.0000

> <Gold.Chemscore.Lipo>
72.8373

> <Gold.Chemscore.Internal_Hbond>
0.0000

> <Gold.Chemscore.DEClash>
0.3108

> <Gold.Chemscore.DEInternal>
1.3868

> <Gold.Chemscore.Rot>
1.2506

> <Gold.Chemscore.Internal.Correction>
   9.000000E+99

> <Gold.Chemscore.Hbonds>
donor molecule, donor type, donor heavy atom, donor atom, acceptor molecule, acceptor atom, score
      L1  H     3    22       P1  7948  0.99
      L1  H     6    23       P1  7948  0.93

> <Gold.Chemscore.Hbond.Weighted>
-6.4459

> <Gold.Chemscore.Metal.Weighted>
-0.0000

> <Gold.Chemscore.Lipo.Weighted>
-8.5220

> <Gold.Chemscore.Internal_Hbond.Weighted>
0.0000

> <Gold.Chemscore.DEClash.Weighted>
0.3108

> <Gold.Chemscore.DEInternal.Weighted>
1.3868

> <Gold.Chemscore.Rot.Weighted>
3.2016

> <Gold.Chemscore.Internal.Correction.Weighted>
   9.000000E+99

> <Gold.Protein.RotatedTorsions>
[ 6907 6896 6895 6894 ] final  133.31 input  -60.11 | X-H torsion
[ 7974 7965 7964 7962 ] final   -1.94 input  175.53 | X-H torsion
[ 8008 7997 7996 7995 ] final  -18.76 input   59.86 | X-H torsion
[ 10167 10162 10161 10158 ] final -177.72 input  -65.29 | X-H torsion
[ 10718 10713 10712 10709 ] final   87.01 input   66.30 | X-H torsion
[ 10763 10752 10751 10750 ] final  -76.33 input  -60.55 | X-H torsion
[ 11005 11000 10999 10996 ] final -117.23 input  -57.11 | X-H torsion

> <Gold.Protein.ActiveResidues>
 VAL166  LYS551  ARG553  GLY616  TRP617  ASP618  TYR619  PRO620  LYS621  CYS622 
 ASP623  PHE694  ASN695  SER759  ASP760  ASP761  ALA762  ILE779  LEU786  VAL792 
 PHE793  MET794  SER795  GLU796  ALA797  LYS798  CYS799  TRP800  GLU811  SER814 

> <Gold.Protein.RotatedAtoms>
  152.3233  133.5877  159.5759 H   0  0  0  0  0  0  0  0  0  0  0  0  # atno 6907 bound_to 6896
  150.7383  133.9978  159.3637 H   0  0  0  0  0  0  0  0  0  0  0  0  # atno 6908 bound_to 6896
  151.7861  135.0749  160.0431 H   0  0  0  0  0  0  0  0  0  0  0  0  # atno 6909 bound_to 6896
  146.2411  140.1496  142.8334 H   0  0  0  0  0  0  0  0  0  0  0  0  # atno 7974 bound_to 7965
  154.4883  140.2107  155.9604 H   0  0  0  0  0  0  0  0  0  0  0  0  # atno 8008 bound_to 7997
  156.1269  140.3204  155.8259 H   0  0  0  0  0  0  0  0  0  0  0  0  # atno 8009 bound_to 7997
  155.4367  140.0507  157.3004 H   0  0  0  0  0  0  0  0  0  0  0  0  # atno 8010 bound_to 7997
  139.5466  144.2218  152.1000 H   0  0  0  0  0  0  0  0  0  0  0  0  # atno 10167 bound_to 10162
  157.6935  131.0238  150.3058 H   0  0  0  0  0  0  0  0  0  0  0  0  # atno 10718 bound_to 10713
  154.4984  135.5801  153.6512 H   0  0  0  0  0  0  0  0  0  0  0  0  # atno 10763 bound_to 10752
  152.9874  135.6129  154.3035 H   0  0  0  0  0  0  0  0  0  0  0  0  # atno 10764 bound_to 10752
  154.2940  135.2848  155.2621 H   0  0  0  0  0  0  0  0  0  0  0  0  # atno 10765 bound_to 10752
  141.0369  133.9896  157.3057 H   0  0  0  0  0  0  0  0  0  0  0  0  # atno 11005 bound_to 11000
  145.0179  140.8769  143.5185 LP  0  0  0  0  0  0  0  0  0  0  0  0  # atno 17320 bound_to 7965
  145.1539  139.2498  143.5426 LP  0  0  0  0  0  0  0  0  0  0  0  0  # atno 17321 bound_to 7965
  140.1706  144.4939  150.6581 LP  0  0  0  0  0  0  0  0  0  0  0  0  # atno 17342 bound_to 10162
  140.6716  143.2288  151.5610 LP  0  0  0  0  0  0  0  0  0  0  0  0  # atno 17343 bound_to 10162
  156.3567  130.3840  149.7284 LP  0  0  0  0  0  0  0  0  0  0  0  0  # atno 17370 bound_to 10713
  156.4744  130.8012  151.3028 LP  0  0  0  0  0  0  0  0  0  0  0  0  # atno 17371 bound_to 10713
  139.9247  135.0201  156.8192 LP  0  0  0  0  0  0  0  0  0  0  0  0  # atno 17394 bound_to 11000
  140.6306  133.9909  155.7660 LP  0  0  0  0  0  0  0  0  0  0  0  0  # atno 17395 bound_to 11000

$$$$
