AV-unprocessed.smi:3335|AV-procd|sdf|12846|dock8
  -GOLD-   2272019233D 1   1.00000     0.00000
 Structure written by MMmdl.
 46 47  0  0  0  0  0  0  0  0  1 V2000
  140.9558  138.6963  153.7148 C   0  0  0  0  0  0  0  0  0  0  0  0
  141.7361  137.4237  153.5546 C   0  0  0  0  0  0  0  0  0  0  0  0
  141.4838  136.1599  154.1586 C   0  0  0  0  0  0  0  0  0  0  0  0
  142.3592  135.2361  153.8001 N   0  0  0  0  0  0  0  0  0  0  0  0
  143.2080  135.8731  152.9616 N   0  0  0  0  0  0  0  0  0  0  0  0
  144.3111  135.1559  152.3253 C   0  0  1  0  0  0  0  0  0  0  0  0
  143.9441  134.6521  150.9150 C   0  0  0  0  0  0  0  0  0  0  0  0
  145.6552  135.9332  152.3598 C   0  0  2  0  0  0  0  0  0  0  0  0
  145.7766  136.9882  151.2461 C   0  0  0  0  0  0  0  0  0  0  0  0
  146.7823  135.0111  152.2317 N   0  0  0  0  0  0  0  0  0  0  0  0
  146.6843  133.8023  153.0659 C   0  0  2  0  0  0  0  0  0  0  0  0
  147.9850  133.5605  153.8550 C   0  0  0  0  0  0  0  0  0  0  0  0
  146.3691  132.5719  152.1919 C   0  0  0  0  0  0  0  0  0  0  0  0
  146.2672  132.7168  150.9721 O   0  0  0  0  0  0  0  0  0  0  0  0
  146.2160  131.3633  152.7769 N   0  0  0  0  0  0  0  0  0  0  0  0
  145.8923  130.1495  152.0286 C   0  0  0  0  0  0  0  0  0  0  0  0
  145.5904  129.0788  153.0771 C   0  0  0  0  0  0  0  0  0  0  0  0
  146.3632  129.5358  154.3057 C   0  0  0  0  0  0  0  0  0  0  0  0
  146.3623  131.0609  154.2010 C   0  0  0  0  0  0  0  0  0  0  0  0
  142.8473  137.1945  152.7940 C   0  0  0  0  0  0  0  0  0  0  0  0
  140.2528  138.6398  154.5462 H   0  0  0  0  0  0  0  0  0  0  0  0
  140.3775  138.9270  152.8201 H   0  0  0  0  0  0  0  0  0  0  0  0
  141.6095  139.5478  153.9048 H   0  0  0  0  0  0  0  0  0  0  0  0
  140.6918  135.8871  154.8403 H   0  0  0  0  0  0  0  0  0  0  0  0
  144.4635  134.2584  152.9266 H   0  0  0  0  0  0  0  0  0  0  0  0
  144.7436  134.0372  150.5012 H   0  0  0  0  0  0  0  0  0  0  0  0
  143.7702  135.4738  150.2192 H   0  0  0  0  0  0  0  0  0  0  0  0
  143.0403  134.0430  150.9402 H   0  0  0  0  0  0  0  0  0  0  0  0
  145.6990  136.4573  153.3158 H   0  0  0  0  0  0  0  0  0  0  0  0
  144.9426  137.6894  151.2812 H   0  0  0  0  0  0  0  0  0  0  0  0
  145.7880  136.5347  150.2545 H   0  0  0  0  0  0  0  0  0  0  0  0
  146.6936  137.5685  151.3498 H   0  0  0  0  0  0  0  0  0  0  0  0
  147.6558  135.4994  152.3693 H   0  0  0  0  0  0  0  0  0  0  0  0
  145.8636  133.9547  153.7661 H   0  0  0  0  0  0  0  0  0  0  0  0
  147.9349  132.6357  154.4306 H   0  0  0  0  0  0  0  0  0  0  0  0
  148.1797  134.3652  154.5638 H   0  0  0  0  0  0  0  0  0  0  0  0
  148.8473  133.4895  153.1905 H   0  0  0  0  0  0  0  0  0  0  0  0
  145.0444  130.2959  151.3574 H   0  0  0  0  0  0  0  0  0  0  0  0
  146.7560  129.8629  151.4268 H   0  0  0  0  0  0  0  0  0  0  0  0
  144.5224  129.0740  153.2990 H   0  0  0  0  0  0  0  0  0  0  0  0
  145.8683  128.0764  152.7501 H   0  0  0  0  0  0  0  0  0  0  0  0
  145.9283  129.1756  155.2386 H   0  0  0  0  0  0  0  0  0  0  0  0
  147.3881  129.1662  154.2495 H   0  0  0  0  0  0  0  0  0  0  0  0
  147.2765  131.4807  154.6222 H   0  0  0  0  0  0  0  0  0  0  0  0
  145.5117  131.4769  154.7429 H   0  0  0  0  0  0  0  0  0  0  0  0
  143.4044  137.8568  152.1477 H   0  0  0  0  0  0  0  0  0  0  0  0
  1  2  1  0  0  0  0
  1 21  1  0  0  0  0
  1 22  1  0  0  0  0
  1 23  1  0  0  0  0
  2 20  2  0  0  0  0
  2  3  1  0  0  0  0
  3  4  2  0  0  0  0
  3 24  1  0  0  0  0
  4  5  1  0  0  0  0
  5  6  1  0  0  0  0
  5 20  1  0  0  0  0
  6  7  1  0  0  0  0
  6  8  1  0  0  0  0
  6 25  1  0  0  0  0
  7 26  1  0  0  0  0
  7 27  1  0  0  0  0
  7 28  1  0  0  0  0
  8  9  1  0  0  0  0
  8 10  1  0  0  0  0
  8 29  1  0  0  0  0
  9 30  1  0  0  0  0
  9 31  1  0  0  0  0
  9 32  1  0  0  0  0
 10 11  1  0  0  0  0
 10 33  1  0  0  0  0
 11 12  1  0  0  0  0
 11 13  1  0  0  0  0
 11 34  1  0  0  0  0
 12 35  1  0  0  0  0
 12 36  1  0  0  0  0
 12 37  1  0  0  0  0
 13 14  2  0  0  0  0
 13 15  1  0  0  0  0
 15 19  1  0  0  0  0
 15 16  1  0  0  0  0
 16 17  1  0  0  0  0
 16 38  1  0  0  0  0
 16 39  1  0  0  0  0
 17 18  1  0  0  0  0
 17 40  1  0  0  0  0
 17 41  1  0  0  0  0
 18 19  1  0  0  0  0
 18 42  1  0  0  0  0
 18 43  1  0  0  0  0
 19 44  1  0  0  0  0
 19 45  1  0  0  0  0
 20 46  1  0  0  0  0
M  END
> <s_m_source_file>
AV-unprocessed.smi

> <i_m_source_file_index>
3335

> <i_lp_mmshare_version>
43012

> <i_f3d_flags>
0

> <s_epik_input>
W0NIM11jMVtjSF1ubihbY0hdMSlbQ0BIXShbQ0gzXSlbQ0BIXShbQ0gzXSlbTkhdW0NASF0oW0NIM10pQyg9TylOMltDSDJdW0NIMl1bQ0gyXVtDSDJdMg==

> <s_epik_cmdline>
J2VwaWtfcHl0aG9uJywgJy1waCcsICc3LjAnLCAnLXRuJywgJzgnLCAnLW1hJywgJzIwMCcsICctbWV0YWxfYmluZGluZycsICctaW1hZScsICc8aW5maWxlLm1hZT4nLCAnLW9tYWUnLCAnPG91dGZpbGUubWFlPic=

> <r_lp_tautomer_probability>
1

> <r_epik_Ionization_Penalty>
0.918803

> <r_epik_Ionization_Penalty_Charging>
0

> <r_epik_Ionization_Penalty_Neutral>
0.918803

> <r_epik_State_Penalty>
0.958258

> <r_epik_Charging_Adjusted_Penalty>
0.958258

> <i_epik_Tot_Q>
0

> <i_epik_Tot_abs_Q>
0

> <r_epik_Metal_State_Penalty>
0.956786

> <b_epik_Metal_Only>
0

> <s_lp_Force_Field>
OPLS_2005

> <r_lp_Energy>
40.4571

> <b_lp_Chiralities_Consistent>
1

> <s_lp_Variant>
AV-unprocessed.smi:3335-10

> <Gold.Version>
5.8.1

> <Gold.Id.Protein>
6NUR|6NUR_protein|mol2

> <Gold.PLP.Fitness>
41.8602

> <Gold.PLP.PLP>
-33.8800

> <Gold.PLP.part.hbond>
-0.6662

> <Gold.PLP.part.metal>
0.0000

> <Gold.PLP.part.buried>
-3.3407

> <Gold.PLP.part.nonpolar>
-32.0186

> <Gold.PLP.part.repulsive>
0.3750

> <Gold.PLP.ligand.clash>
0.0000

> <Gold.PLP.ligand.torsion>
1.5941

> <Gold.PLP.Chemscore.Hbond>
0.9360

> <Gold.PLP.Chemscore.CHOScore>
2.7231

> <Gold.PLP.Chemscore.Metal>
0.0000

> <Gold.Chemscore.Hbonds>
donor molecule, donor type, donor heavy atom, donor atom, acceptor molecule, acceptor atom, score
      L1  H    10    33       P1  7948  1.00
      L1  C     3    24       P1 11000  0.98
      L1  C    20    46       P1 10171  1.00
      L1  C    20    46       P1 10175  0.76

> <Gold.PLP.Chemscore.Internal.Correction>
0.1911

> <Gold.Rescore>
     Score         DG    S(hbond)    S(metal)    S(lipo)     H(rot)  DE(clash)    DE(int)     intcor
     10.31     -14.26       0.98        0.00      82.42       1.62       2.23       1.72       ----

> <Gold.Chemscore.Fitness>
10.3116

> <Gold.Chemscore.DG>
-14.2564

> <Gold.Chemscore.ZeroCoef>
-5.4800

> <Gold.Chemscore.Hbond>
0.9826

> <Gold.Chemscore.Metal>
0.0000

> <Gold.Chemscore.Lipo>
82.4158

> <Gold.Chemscore.Internal_Hbond>
0.0000

> <Gold.Chemscore.DEClash>
2.2295

> <Gold.Chemscore.DEInternal>
1.7153

> <Gold.Chemscore.Rot>
1.6204

> <Gold.Chemscore.Internal.Correction>
   9.000000E+99

> <Gold.Chemscore.Hbonds>
donor molecule, donor type, donor heavy atom, donor atom, acceptor molecule, acceptor atom, score
      L1  H    10    33       P1  7948  0.92

> <Gold.Chemscore.Hbond.Weighted>
-3.2820

> <Gold.Chemscore.Metal.Weighted>
-0.0000

> <Gold.Chemscore.Lipo.Weighted>
-9.6427

> <Gold.Chemscore.Internal_Hbond.Weighted>
0.0000

> <Gold.Chemscore.DEClash.Weighted>
2.2295

> <Gold.Chemscore.DEInternal.Weighted>
1.7153

> <Gold.Chemscore.Rot.Weighted>
4.1482

> <Gold.Chemscore.Internal.Correction.Weighted>
   9.000000E+99

> <Gold.Protein.RotatedTorsions>
[ 6907 6896 6895 6894 ] final   43.19 input  -60.11 | X-H torsion
[ 7974 7965 7964 7962 ] final   48.66 input  175.53 | X-H torsion
[ 8008 7997 7996 7995 ] final -129.07 input   59.86 | X-H torsion
[ 10167 10162 10161 10158 ] final -134.81 input  -65.29 | X-H torsion
[ 10718 10713 10712 10709 ] final   47.15 input   66.30 | X-H torsion
[ 10763 10752 10751 10750 ] final -110.92 input  -60.55 | X-H torsion
[ 11005 11000 10999 10996 ] final  -89.72 input  -57.11 | X-H torsion

> <Gold.Protein.ActiveResidues>
 VAL166  LYS551  ARG553  GLY616  TRP617  ASP618  TYR619  PRO620  LYS621  CYS622 
 ASP623  PHE694  ASN695  SER759  ASP760  ASP761  ALA762  ILE779  LEU786  VAL792 
 PHE793  MET794  SER795  GLU796  ALA797  LYS798  CYS799  TRP800  GLU811  SER814 

> <Gold.Protein.RotatedAtoms>
  152.2172  134.8446  160.0490 H   0  0  0  0  0  0  0  0  0  0  0  0  # atno 6907 bound_to 6896
  151.9243  133.3589  159.3916 H   0  0  0  0  0  0  0  0  0  0  0  0  # atno 6908 bound_to 6896
  150.6991  134.4528  159.5388 H   0  0  0  0  0  0  0  0  0  0  0  0  # atno 6909 bound_to 6896
  146.0183  139.4621  142.9913 H   0  0  0  0  0  0  0  0  0  0  0  0  # atno 7974 bound_to 7965
  155.2731  140.0441  157.3009 H   0  0  0  0  0  0  0  0  0  0  0  0  # atno 8008 bound_to 7997
  154.5641  140.2355  155.8259 H   0  0  0  0  0  0  0  0  0  0  0  0  # atno 8009 bound_to 7997
  156.2071  140.3009  155.9658 H   0  0  0  0  0  0  0  0  0  0  0  0  # atno 8010 bound_to 7997
  139.8842  143.6802  152.2622 H   0  0  0  0  0  0  0  0  0  0  0  0  # atno 10167 bound_to 10162
  157.4555  130.8165  149.7832 H   0  0  0  0  0  0  0  0  0  0  0  0  # atno 10718 bound_to 10713
  154.8273  135.4546  154.0959 H   0  0  0  0  0  0  0  0  0  0  0  0  # atno 10763 bound_to 10752
  153.2262  135.6900  153.7948 H   0  0  0  0  0  0  0  0  0  0  0  0  # atno 10764 bound_to 10752
  153.7347  135.3321  155.3269 H   0  0  0  0  0  0  0  0  0  0  0  0  # atno 10765 bound_to 10752
  141.1579  133.7647  156.9635 H   0  0  0  0  0  0  0  0  0  0  0  0  # atno 11005 bound_to 11000
  145.7234  141.0067  143.1390 LP  0  0  0  0  0  0  0  0  0  0  0  0  # atno 17320 bound_to 7965
  144.6979  139.8897  143.7452 LP  0  0  0  0  0  0  0  0  0  0  0  0  # atno 17321 bound_to 7965
  139.7168  144.7610  151.1020 LP  0  0  0  0  0  0  0  0  0  0  0  0  # atno 17342 bound_to 10162
  140.7739  143.5259  150.9481 LP  0  0  0  0  0  0  0  0  0  0  0  0  # atno 17343 bound_to 10162
  156.0005  130.3882  150.2623 LP  0  0  0  0  0  0  0  0  0  0  0  0  # atno 17370 bound_to 10713
  157.0797  131.0140  151.3161 LP  0  0  0  0  0  0  0  0  0  0  0  0  # atno 17371 bound_to 10713
  140.1177  134.9437  157.2158 LP  0  0  0  0  0  0  0  0  0  0  0  0  # atno 17394 bound_to 11000
  140.3112  134.3022  155.7266 LP  0  0  0  0  0  0  0  0  0  0  0  0  # atno 17395 bound_to 11000

$$$$
