AV-unprocessed.smi:1575|AV-procd|sdf|6341|dock5
  -GOLD-   22720 6553D 1   1.00000     0.00000
 Structure written by MMmdl.
 40 40  0  0  0  0  0  0  0  0  2 V2000
  150.9065  137.8963  154.3702 C   0  0  0  0  0  0  0  0  0  0  0  0
  150.6190  139.2345  154.8625 N   0  0  0  0  0  0  0  0  0  0  0  0
  151.5340  140.0531  155.4016 C   0  0  0  0  0  0  0  0  0  0  0  0
  152.7207  139.7449  155.5260 O   0  0  0  0  0  0  0  0  0  0  0  0
  151.0302  141.4366  155.8467 C   0  0  2  0  0  0  0  0  0  0  0  0
  151.3383  141.5944  157.3555 C   0  0  0  0  0  0  0  0  0  0  0  0
  151.2578  143.0391  157.9034 C   0  0  0  0  0  0  0  0  0  0  0  0
  152.1724  144.0119  157.1412 C   0  0  0  0  0  0  0  0  0  0  0  0
  151.5782  143.0646  159.4054 C   0  0  0  0  0  0  0  0  0  0  0  0
  149.5853  141.5357  155.6586 N   0  0  0  0  0  0  0  0  0  0  0  0
  148.9488  141.7360  154.4925 C   0  0  0  0  0  0  0  0  0  0  0  0
  149.5377  141.8101  153.4143 O   0  0  0  0  0  0  0  0  0  0  0  0
  147.4185  141.8902  154.5281 C   0  0  0  0  0  0  0  0  0  0  0  0
  146.9237  143.1996  154.0625 N   0  0  0  0  0  0  0  0  0  0  0  0
  147.3487  143.6458  152.7985 C   0  0  0  0  0  0  0  0  0  0  0  0
  146.9303  144.8164  152.2808 C   0  0  0  0  0  0  0  0  0  0  0  0
  146.0114  145.6302  153.0670 C   0  0  0  0  0  0  0  0  0  0  0  0
  145.6180  146.7014  152.6094 O   0  0  0  0  0  0  0  0  0  0  0  0
  145.6283  145.1546  154.2880 N   0  5  0  0  0  0  0  0  0  0  0  0
  146.0605  143.9614  154.8014 C   0  0  0  0  0  0  0  0  0  0  0  0
  145.6920  143.5449  155.9000 O   0  0  0  0  0  0  0  0  0  0  0  0
  149.9876  137.4216  154.0268 H   0  0  0  0  0  0  0  0  0  0  0  0
  151.3382  137.2755  155.1566 H   0  0  0  0  0  0  0  0  0  0  0  0
  151.6047  137.9342  153.5331 H   0  0  0  0  0  0  0  0  0  0  0  0
  149.6654  139.5591  154.7932 H   0  0  0  0  0  0  0  0  0  0  0  0
  151.5354  142.2144  155.2717 H   0  0  0  0  0  0  0  0  0  0  0  0
  150.6462  140.9730  157.9276 H   0  0  0  0  0  0  0  0  0  0  0  0
  152.3330  141.1966  157.5634 H   0  0  0  0  0  0  0  0  0  0  0  0
  150.2334  143.3981  157.7979 H   0  0  0  0  0  0  0  0  0  0  0  0
  153.2120  143.6847  157.1692 H   0  0  0  0  0  0  0  0  0  0  0  0
  152.1265  145.0113  157.5748 H   0  0  0  0  0  0  0  0  0  0  0  0
  151.8764  144.1051  156.0967 H   0  0  0  0  0  0  0  0  0  0  0  0
  152.5950  142.7228  159.6003 H   0  0  0  0  0  0  0  0  0  0  0  0
  150.8970  142.4218  159.9639 H   0  0  0  0  0  0  0  0  0  0  0  0
  151.4814  144.0721  159.8112 H   0  0  0  0  0  0  0  0  0  0  0  0
  149.0185  141.4853  156.4930 H   0  0  0  0  0  0  0  0  0  0  0  0
  146.9731  141.0893  153.9353 H   0  0  0  0  0  0  0  0  0  0  0  0
  147.0857  141.7042  155.5501 H   0  0  0  0  0  0  0  0  0  0  0  0
  148.0225  142.9810  152.2785 H   0  0  0  0  0  0  0  0  0  0  0  0
  147.2633  145.1432  151.3067 H   0  0  0  0  0  0  0  0  0  0  0  0
  1  2  1  0  0  0  0
  1 22  1  0  0  0  0
  1 23  1  0  0  0  0
  1 24  1  0  0  0  0
  2  3  1  0  0  0  0
  2 25  1  0  0  0  0
  3  4  2  0  0  0  0
  3  5  1  0  0  0  0
  5  6  1  0  0  0  0
  5 10  1  0  0  0  0
  5 26  1  0  0  0  0
  6  7  1  0  0  0  0
  6 27  1  0  0  0  0
  6 28  1  0  0  0  0
  7  8  1  0  0  0  0
  7  9  1  0  0  0  0
  7 29  1  0  0  0  0
  8 30  1  0  0  0  0
  8 31  1  0  0  0  0
  8 32  1  0  0  0  0
  9 33  1  0  0  0  0
  9 34  1  0  0  0  0
  9 35  1  0  0  0  0
 10 11  1  0  0  0  0
 10 36  1  0  0  0  0
 11 12  2  0  0  0  0
 11 13  1  0  0  0  0
 13 14  1  0  0  0  0
 13 37  1  0  0  0  0
 13 38  1  0  0  0  0
 14 20  1  0  0  0  0
 14 15  1  0  0  0  0
 15 16  2  0  0  0  0
 15 39  1  0  0  0  0
 16 17  1  0  0  0  0
 16 40  1  0  0  0  0
 17 18  2  0  0  0  0
 17 19  1  0  0  0  0
 19 20  1  0  0  0  0
 20 21  2  0  0  0  0
M  CHG  1  19  -1
M  END
> <s_m_source_file>
AV-unprocessed.smi

> <i_m_source_file_index>
1575

> <i_lp_mmshare_version>
43012

> <i_f3d_flags>
0

> <s_epik_input>
W0NIM11bTkhdQyg9TylbQ0BIXShbQ0gyXVtDSF0oW0NIM10pW0NIM10pW05IXUMoPU8pW0NIMl1uMVtjSF1bY0hdYyg9TylbbkhdYzE9Tw==

> <s_epik_cmdline>
J2VwaWtfcHl0aG9uJywgJy1waCcsICc3LjAnLCAnLXRuJywgJzgnLCAnLW1hJywgJzIwMCcsICctbWV0YWxfYmluZGluZycsICctaW1hZScsICc8aW5maWxlLm1hZT4nLCAnLW9tYWUnLCAnPG91dGZpbGUubWFlPic=

> <r_lp_tautomer_probability>
0.999537

> <r_epik_Ionization_Penalty>
3.03017

> <r_epik_Ionization_Penalty_Charging>
2.35557e-08

> <r_epik_Ionization_Penalty_Neutral>
3.03017

> <r_epik_State_Penalty>
3.02913

> <r_epik_Charging_Adjusted_Penalty>
3.02913

> <i_epik_Tot_Q>
-1

> <i_epik_Tot_abs_Q>
1

> <r_epik_Metal_State_Penalty>
0.455824

> <b_epik_Metal_Only>
1

> <s_lp_Force_Field>
OPLS_2005

> <r_lp_Energy>
14.6611

> <b_lp_Chiralities_Consistent>
1

> <s_lp_Variant>
AV-unprocessed.smi:1575-3

> <Gold.Version>
5.8.1

> <Gold.Id.Protein>
6NUR|6NUR_protein|mol2

> <Gold.PLP.Fitness>
42.5091

> <Gold.PLP.PLP>
-37.9870

> <Gold.PLP.part.hbond>
-3.0469

> <Gold.PLP.part.metal>
0.0000

> <Gold.PLP.part.buried>
-4.7196

> <Gold.PLP.part.nonpolar>
-29.7985

> <Gold.PLP.part.repulsive>
0.9691

> <Gold.PLP.ligand.clash>
0.0000

> <Gold.PLP.ligand.torsion>
0.4146

> <Gold.PLP.Chemscore.Hbond>
1.7680

> <Gold.PLP.Chemscore.CHOScore>
0.0000

> <Gold.PLP.Chemscore.Metal>
0.0000

> <Gold.Chemscore.Hbonds>
donor molecule, donor type, donor heavy atom, donor atom, acceptor molecule, acceptor atom, score
      P1  H  7997  8010       L1     4  1.00
      P1  H  8011  8017       L1    12  0.22

> <Gold.PLP.Chemscore.Internal.Correction>
0.0474

> <Gold.Rescore>
     Score         DG    S(hbond)    S(metal)    S(lipo)     H(rot)  DE(clash)    DE(int)     intcor
     11.26     -12.76       1.71        0.00      73.53       2.74       0.77       0.72       ----

> <Gold.Chemscore.Fitness>
11.2587

> <Gold.Chemscore.DG>
-12.7557

> <Gold.Chemscore.ZeroCoef>
-5.4800

> <Gold.Chemscore.Hbond>
1.7052

> <Gold.Chemscore.Metal>
0.0000

> <Gold.Chemscore.Lipo>
73.5346

> <Gold.Chemscore.Internal_Hbond>
0.0000

> <Gold.Chemscore.DEClash>
0.7743

> <Gold.Chemscore.DEInternal>
0.7227

> <Gold.Chemscore.Rot>
2.7435

> <Gold.Chemscore.Internal.Correction>
   9.000000E+99

> <Gold.Chemscore.Hbonds>
donor molecule, donor type, donor heavy atom, donor atom, acceptor molecule, acceptor atom, score
      P1  H  7989  7998       L1    12  0.01
      P1  H  7997  8010       L1     4  1.00
      P1  H  8011  8017       L1    12  0.23

> <Gold.Chemscore.Hbond.Weighted>
-5.6954

> <Gold.Chemscore.Metal.Weighted>
-0.0000

> <Gold.Chemscore.Lipo.Weighted>
-8.6036

> <Gold.Chemscore.Internal_Hbond.Weighted>
0.0000

> <Gold.Chemscore.DEClash.Weighted>
0.7743

> <Gold.Chemscore.DEInternal.Weighted>
0.7227

> <Gold.Chemscore.Rot.Weighted>
7.0233

> <Gold.Chemscore.Internal.Correction.Weighted>
   9.000000E+99

> <Gold.Protein.RotatedTorsions>
[ 6907 6896 6895 6894 ] final -147.57 input  -60.11 | X-H torsion
[ 7974 7965 7964 7962 ] final  -48.66 input  175.53 | X-H torsion
[ 8008 7997 7996 7995 ] final   93.01 input   59.86 | X-H torsion
[ 10167 10162 10161 10158 ] final -154.62 input  -65.29 | X-H torsion
[ 10718 10713 10712 10709 ] final  -74.20 input   66.30 | X-H torsion
[ 10763 10752 10751 10750 ] final  179.83 input  -60.55 | X-H torsion
[ 11005 11000 10999 10996 ] final   -4.38 input  -57.11 | X-H torsion

> <Gold.Protein.ActiveResidues>
 VAL166  LYS551  ARG553  GLY616  TRP617  ASP618  TYR619  PRO620  LYS621  CYS622 
 ASP623  PHE694  ASN695  SER759  ASP760  ASP761  ALA762  ILE779  LEU786  VAL792 
 PHE793  MET794  SER795  GLU796  ALA797  LYS798  CYS799  TRP800  GLU811  SER814 

> <Gold.Protein.RotatedAtoms>
  151.1576  133.4866  159.2594 H   0  0  0  0  0  0  0  0  0  0  0  0  # atno 6907 bound_to 6896
  151.1488  135.0216  159.8669 H   0  0  0  0  0  0  0  0  0  0  0  0  # atno 6908 bound_to 6896
  152.5463  134.1462  159.8552 H   0  0  0  0  0  0  0  0  0  0  0  0  # atno 6909 bound_to 6896
  145.9488  140.7592  142.9515 H   0  0  0  0  0  0  0  0  0  0  0  0  # atno 7974 bound_to 7965
  156.0419  140.3318  155.7253 H   0  0  0  0  0  0  0  0  0  0  0  0  # atno 8008 bound_to 7997
  155.5731  140.0630  157.2819 H   0  0  0  0  0  0  0  0  0  0  0  0  # atno 8009 bound_to 7997
  154.4397  140.1857  156.0888 H   0  0  0  0  0  0  0  0  0  0  0  0  # atno 8010 bound_to 7997
  139.6999  143.9281  152.2424 H   0  0  0  0  0  0  0  0  0  0  0  0  # atno 10167 bound_to 10162
  156.0251  130.4411  150.2857 H   0  0  0  0  0  0  0  0  0  0  0  0  # atno 10718 bound_to 10713
  154.5257  135.2796  155.1224 H   0  0  0  0  0  0  0  0  0  0  0  0  # atno 10763 bound_to 10752
  154.2764  135.6294  153.5334 H   0  0  0  0  0  0  0  0  0  0  0  0  # atno 10764 bound_to 10752
  152.9946  135.5640  154.5757 H   0  0  0  0  0  0  0  0  0  0  0  0  # atno 10765 bound_to 10752
  140.6796  133.9165  155.8546 H   0  0  0  0  0  0  0  0  0  0  0  0  # atno 11005 bound_to 11000
  144.6792  140.2401  143.7345 LP  0  0  0  0  0  0  0  0  0  0  0  0  # atno 17320 bound_to 7965
  145.8199  139.2039  143.1944 LP  0  0  0  0  0  0  0  0  0  0  0  0  # atno 17321 bound_to 7965
  139.9120  144.6851  150.8552 LP  0  0  0  0  0  0  0  0  0  0  0  0  # atno 17342 bound_to 10162
  140.7706  143.3436  151.2157 LP  0  0  0  0  0  0  0  0  0  0  0  0  # atno 17343 bound_to 10162
  157.0960  131.0183  151.3103 LP  0  0  0  0  0  0  0  0  0  0  0  0  # atno 17370 bound_to 10713
  157.4817  130.7769  149.7420 LP  0  0  0  0  0  0  0  0  0  0  0  0  # atno 17371 bound_to 10713
  141.0328  134.0732  157.3994 LP  0  0  0  0  0  0  0  0  0  0  0  0  # atno 17394 bound_to 11000
  139.8956  135.0141  156.7009 LP  0  0  0  0  0  0  0  0  0  0  0  0  # atno 17395 bound_to 11000

$$$$
