AV-unprocessed.smi:2387|AV-procd|sdf|9470|dock3
  -GOLD-   2272013103D 1   1.00000     0.00000
 Structure written by MMmdl.
 48 50  0  0  0  0  0  0  0  0  2 V2000
  153.8083  141.8131  161.0741 C   0  0  0  0  0  0  0  0  0  0  0  0
  152.7839  142.1047  159.9978 C   0  0  0  0  0  0  0  0  0  0  0  0
  152.6489  143.3793  159.4092 C   0  0  0  0  0  0  0  0  0  0  0  0
  151.6713  143.5804  158.4126 C   0  0  0  0  0  0  0  0  0  0  0  0
  150.8354  142.5015  158.0271 C   0  0  0  0  0  0  0  0  0  0  0  0
  149.8307  142.5948  157.0257 N   0  0  0  0  0  0  0  0  0  0  0  0
  148.8324  141.7331  156.7653 C   0  0  0  0  0  0  0  0  0  0  0  0
  148.6318  140.6798  157.3693 O   0  0  0  0  0  0  0  0  0  0  0  0
  148.0747  142.1614  155.7401 N   0  0  0  0  0  0  0  0  0  0  0  0
  146.9125  141.4833  155.1368 C   0  0  0  0  0  0  0  0  0  0  0  0
  145.5597  141.9557  155.7386 C   0  0  0  0  0  0  0  0  0  0  0  0
  144.8188  141.1454  156.2966 O   0  0  0  0  0  0  0  0  0  0  0  0
  145.2312  143.2527  155.6088 N   0  0  0  0  0  0  0  0  0  0  0  0
  144.0057  143.8645  156.1041 C   0  0  0  0  0  0  0  0  0  0  0  0
  143.8087  145.3155  155.7083 C   0  0  0  0  0  0  0  0  0  0  0  0
  142.4844  145.8046  155.1715 C   0  0  0  0  0  0  0  0  0  0  0  0
  143.6787  145.7001  154.2534 C   0  0  0  0  0  0  0  0  0  0  0  0
  146.9170  141.7636  153.6068 C   0  0  0  0  0  0  0  0  0  0  0  0
  147.1401  140.4274  152.8919 C   0  0  0  0  0  0  0  0  0  0  0  0
  146.6502  139.3749  153.8756 C   0  0  0  0  0  0  0  0  0  0  0  0
  147.0655  139.9376  155.2331 C   0  0  0  0  0  0  0  0  0  0  0  0
  151.0328  141.2469  158.6430 C   0  0  0  0  0  0  0  0  0  0  0  0
  151.9806  141.0964  159.5940 N   0  3  0  0  0  0  0  0  0  0  0  0
  154.4017  142.6990  161.3024 H   0  0  0  0  0  0  0  0  0  0  0  0
  154.4868  141.0234  160.7500 H   0  0  0  0  0  0  0  0  0  0  0  0
  153.3143  141.4894  161.9906 H   0  0  0  0  0  0  0  0  0  0  0  0
  153.2879  144.1961  159.7120 H   0  0  0  0  0  0  0  0  0  0  0  0
  151.5918  144.5552  157.9565 H   0  0  0  0  0  0  0  0  0  0  0  0
  149.9191  143.3753  156.3916 H   0  0  0  0  0  0  0  0  0  0  0  0
  148.3303  143.0415  155.3170 H   0  0  0  0  0  0  0  0  0  0  0  0
  145.8825  143.8585  155.1321 H   0  0  0  0  0  0  0  0  0  0  0  0
  143.1457  143.2884  155.7594 H   0  0  0  0  0  0  0  0  0  0  0  0
  144.0068  143.7870  157.1916 H   0  0  0  0  0  0  0  0  0  0  0  0
  144.3640  146.0182  156.3264 H   0  0  0  0  0  0  0  0  0  0  0  0
  141.6872  145.0750  155.0445 H   0  0  0  0  0  0  0  0  0  0  0  0
  142.1615  146.8011  155.4656 H   0  0  0  0  0  0  0  0  0  0  0  0
  144.1511  146.6270  153.9349 H   0  0  0  0  0  0  0  0  0  0  0  0
  143.6746  144.9010  153.5149 H   0  0  0  0  0  0  0  0  0  0  0  0
  145.9666  142.1834  153.2710 H   0  0  0  0  0  0  0  0  0  0  0  0
  147.6807  142.4851  153.3121 H   0  0  0  0  0  0  0  0  0  0  0  0
  146.6272  140.3744  151.9314 H   0  0  0  0  0  0  0  0  0  0  0  0
  148.2056  140.2843  152.7074 H   0  0  0  0  0  0  0  0  0  0  0  0
  145.5641  139.2915  153.8215 H   0  0  0  0  0  0  0  0  0  0  0  0
  147.0727  138.3887  153.6821 H   0  0  0  0  0  0  0  0  0  0  0  0
  148.1074  139.6649  155.4085 H   0  0  0  0  0  0  0  0  0  0  0  0
  146.4908  139.4918  156.0465 H   0  0  0  0  0  0  0  0  0  0  0  0
  150.4584  140.3616  158.4113 H   0  0  0  0  0  0  0  0  0  0  0  0
  152.0953  140.1795  160.0269 H   0  0  0  0  0  0  0  0  0  0  0  0
  1  2  1  0  0  0  0
  1 24  1  0  0  0  0
  1 25  1  0  0  0  0
  1 26  1  0  0  0  0
  2 23  1  0  0  0  0
  2  3  2  0  0  0  0
  3  4  1  0  0  0  0
  3 27  1  0  0  0  0
  4  5  2  0  0  0  0
  4 28  1  0  0  0  0
  5  6  1  0  0  0  0
  5 22  1  0  0  0  0
  6  7  1  0  0  0  0
  6 29  1  0  0  0  0
  7  8  2  0  0  0  0
  7  9  1  0  0  0  0
  9 10  1  0  0  0  0
  9 30  1  0  0  0  0
 10 21  1  0  0  0  0
 10 11  1  0  0  0  0
 10 18  1  0  0  0  0
 11 12  2  0  0  0  0
 11 13  1  0  0  0  0
 13 14  1  0  0  0  0
 13 31  1  0  0  0  0
 14 15  1  0  0  0  0
 14 32  1  0  0  0  0
 14 33  1  0  0  0  0
 15 17  1  0  0  0  0
 15 16  1  0  0  0  0
 15 34  1  0  0  0  0
 16 17  1  0  0  0  0
 16 35  1  0  0  0  0
 16 36  1  0  0  0  0
 17 37  1  0  0  0  0
 17 38  1  0  0  0  0
 18 19  1  0  0  0  0
 18 39  1  0  0  0  0
 18 40  1  0  0  0  0
 19 20  1  0  0  0  0
 19 41  1  0  0  0  0
 19 42  1  0  0  0  0
 20 21  1  0  0  0  0
 20 43  1  0  0  0  0
 20 44  1  0  0  0  0
 21 45  1  0  0  0  0
 21 46  1  0  0  0  0
 22 23  2  0  0  0  0
 22 47  1  0  0  0  0
 23 48  1  0  0  0  0
M  CHG  1  23   1
M  END
> <s_m_source_file>
AV-unprocessed.smi

> <i_m_source_file_index>
2387

> <i_lp_mmshare_version>
43012

> <i_f3d_flags>
0

> <s_epik_input>
W0NIM11jMVtjSF1bY0hdYyhbY0hdbjEpW05IXUMoPU8pW05IXUMyKFtDSDJdW0NIMl1bQ0gyXVtDSDJdMilDKD1PKVtOSF1bQ0gyXVtDSF0zW0NIMl1bQ0gyXTM=

> <s_epik_cmdline>
J2VwaWtfcHl0aG9uJywgJy1waCcsICc3LjAnLCAnLXRuJywgJzgnLCAnLW1hJywgJzIwMCcsICctbWV0YWxfYmluZGluZycsICctaW1hZScsICc8aW5maWxlLm1hZT4nLCAnLW9tYWUnLCAnPG91dGZpbGUubWFlPic=

> <r_epik_Ionization_Penalty>
2.1018

> <r_epik_Ionization_Penalty_Charging>
2.10178

> <r_epik_Ionization_Penalty_Neutral>
2.02976e-05

> <r_epik_State_Penalty>
2.23801

> <r_epik_Charging_Adjusted_Penalty>
4.33979

> <i_epik_Tot_Q>
1

> <i_epik_Tot_abs_Q>
1

> <r_epik_Metal_State_Penalty>
2.25493

> <b_epik_Metal_Only>
0

> <s_lp_Force_Field>
OPLS_2005

> <r_lp_Energy>
37.3987

> <b_lp_Chiralities_Consistent>
1

> <s_lp_Variant>
AV-unprocessed.smi:2387-2

> <Gold.Version>
5.8.1

> <Gold.Id.Protein>
6NUR|6NUR_protein|mol2

> <Gold.PLP.Fitness>
42.7658

> <Gold.PLP.PLP>
-38.9862

> <Gold.PLP.part.hbond>
-2.0000

> <Gold.PLP.part.metal>
0.0000

> <Gold.PLP.part.buried>
-5.4055

> <Gold.PLP.part.nonpolar>
-32.1657

> <Gold.PLP.part.repulsive>
0.3181

> <Gold.PLP.ligand.clash>
0.0000

> <Gold.PLP.ligand.torsion>
0.9687

> <Gold.PLP.Chemscore.Hbond>
1.6960

> <Gold.PLP.Chemscore.CHOScore>
0.0000

> <Gold.PLP.Chemscore.Metal>
0.0000

> <Gold.Chemscore.Hbonds>
donor molecule, donor type, donor heavy atom, donor atom, acceptor molecule, acceptor atom, score
      L1  H     6    29       P1  8028  0.80
      L1  H     9    30       P1  8028  0.90

> <Gold.PLP.Chemscore.Internal.Correction>
0.6290

> <Gold.Rescore>
     Score         DG    S(hbond)    S(metal)    S(lipo)     H(rot)  DE(clash)    DE(int)     intcor
     15.46     -19.43       1.72        0.00     105.79       1.63       0.07       3.91       ----

> <Gold.Chemscore.Fitness>
15.4571

> <Gold.Chemscore.DG>
-19.4346

> <Gold.Chemscore.ZeroCoef>
-5.4800

> <Gold.Chemscore.Hbond>
1.7204

> <Gold.Chemscore.Metal>
0.0000

> <Gold.Chemscore.Lipo>
105.7919

> <Gold.Chemscore.Internal_Hbond>
0.0000

> <Gold.Chemscore.DEClash>
0.0668

> <Gold.Chemscore.DEInternal>
3.9107

> <Gold.Chemscore.Rot>
1.6286

> <Gold.Chemscore.Internal.Correction>
   9.000000E+99

> <Gold.Chemscore.Hbonds>
donor molecule, donor type, donor heavy atom, donor atom, acceptor molecule, acceptor atom, score
      L1  H     6    29       P1  8028  0.80
      L1  H     9    30       P1  8028  0.87

> <Gold.Chemscore.Hbond.Weighted>
-5.7462

> <Gold.Chemscore.Metal.Weighted>
-0.0000

> <Gold.Chemscore.Lipo.Weighted>
-12.3776

> <Gold.Chemscore.Internal_Hbond.Weighted>
0.0000

> <Gold.Chemscore.DEClash.Weighted>
0.0668

> <Gold.Chemscore.DEInternal.Weighted>
3.9107

> <Gold.Chemscore.Rot.Weighted>
4.1692

> <Gold.Chemscore.Internal.Correction.Weighted>
   9.000000E+99

> <Gold.Protein.RotatedTorsions>
[ 6907 6896 6895 6894 ] final  -53.03 input  -60.11 | X-H torsion
[ 7974 7965 7964 7962 ] final -167.61 input  175.53 | X-H torsion
[ 8008 7997 7996 7995 ] final  149.41 input   59.86 | X-H torsion
[ 10167 10162 10161 10158 ] final  -94.02 input  -65.29 | X-H torsion
[ 10718 10713 10712 10709 ] final   13.79 input   66.30 | X-H torsion
[ 10763 10752 10751 10750 ] final   35.03 input  -60.55 | X-H torsion
[ 11005 11000 10999 10996 ] final  147.70 input  -57.11 | X-H torsion

> <Gold.Protein.ActiveResidues>
 VAL166  LYS551  ARG553  GLY616  TRP617  ASP618  TYR619  PRO620  LYS621  CYS622 
 ASP623  PHE694  ASN695  SER759  ASP760  ASP761  ALA762  ILE779  LEU786  VAL792 
 PHE793  MET794  SER795  GLU796  ALA797  LYS798  CYS799  TRP800  GLU811  SER814 

> <Gold.Protein.RotatedAtoms>
  150.8463  134.7774  159.6973 H   0  0  0  0  0  0  0  0  0  0  0  0  # atno 6907 bound_to 6896
  152.4539  134.5330  159.9826 H   0  0  0  0  0  0  0  0  0  0  0  0  # atno 6908 bound_to 6896
  151.5460  133.3387  159.2980 H   0  0  0  0  0  0  0  0  0  0  0  0  # atno 6909 bound_to 6896
  144.7219  140.2493  143.6281 H   0  0  0  0  0  0  0  0  0  0  0  0  # atno 7974 bound_to 7965
  156.2756  140.2102  156.5853 H   0  0  0  0  0  0  0  0  0  0  0  0  # atno 8008 bound_to 7997
  154.7026  140.0519  157.0496 H   0  0  0  0  0  0  0  0  0  0  0  0  # atno 8009 bound_to 7997
  155.0714  140.3177  155.4632 H   0  0  0  0  0  0  0  0  0  0  0  0  # atno 8010 bound_to 7997
  140.3187  143.3062  152.0070 H   0  0  0  0  0  0  0  0  0  0  0  0  # atno 10167 bound_to 10162
  157.0297  130.6188  149.5733 H   0  0  0  0  0  0  0  0  0  0  0  0  # atno 10718 bound_to 10713
  153.0137  135.6344  154.1763 H   0  0  0  0  0  0  0  0  0  0  0  0  # atno 10763 bound_to 10752
  154.1503  135.2829  155.3139 H   0  0  0  0  0  0  0  0  0  0  0  0  # atno 10764 bound_to 10752
  154.6058  135.5572  153.7482 H   0  0  0  0  0  0  0  0  0  0  0  0  # atno 10765 bound_to 10752
  140.0897  134.9048  157.1632 H   0  0  0  0  0  0  0  0  0  0  0  0  # atno 11005 bound_to 11000
  145.8244  139.2058  143.1919 LP  0  0  0  0  0  0  0  0  0  0  0  0  # atno 17320 bound_to 7965
  146.0486  140.8092  142.9793 LP  0  0  0  0  0  0  0  0  0  0  0  0  # atno 17321 bound_to 7965
  139.4879  144.6328  151.7035 LP  0  0  0  0  0  0  0  0  0  0  0  0  # atno 17342 bound_to 10162
  140.5503  144.0435  150.6124 LP  0  0  0  0  0  0  0  0  0  0  0  0  # atno 17343 bound_to 10162
  156.0074  130.5162  150.7875 LP  0  0  0  0  0  0  0  0  0  0  0  0  # atno 17370 bound_to 10713
  157.5187  131.0930  151.0106 LP  0  0  0  0  0  0  0  0  0  0  0  0  # atno 17371 bound_to 10713
  140.3369  134.2747  155.7218 LP  0  0  0  0  0  0  0  0  0  0  0  0  # atno 17394 bound_to 11000
  141.2074  133.7807  157.0121 LP  0  0  0  0  0  0  0  0  0  0  0  0  # atno 17395 bound_to 11000

$$$$
