AV-unprocessed.smi:2423|AV-procd|sdf|9558|dock3
  -GOLD-   2272013193D 1   1.00000     0.00000
 Structure written by MMmdl.
 37 39  0  0  0  0  0  0  0  0  1 V2000
  150.4840  140.1096  157.0166 O   0  0  0  0  0  0  0  0  0  0  0  0
  150.1842  141.2963  156.9071 C   0  0  0  0  0  0  0  0  0  0  0  0
  150.7491  142.2303  157.6915 N   0  0  0  0  0  0  0  0  0  0  0  0
  151.7345  142.0230  158.7533 C   0  0  0  0  0  0  0  0  0  0  0  0
  151.8095  143.2223  159.7169 C   0  0  0  0  0  0  0  0  0  0  0  0
  152.1555  142.6747  161.1053 C   0  0  0  0  0  0  0  0  0  0  0  0
  152.8731  143.4563  162.1814 C   0  0  0  0  0  0  0  0  0  0  0  0
  153.5696  142.3067  161.4781 C   0  0  0  0  0  0  0  0  0  0  0  0
  152.6437  144.4071  159.1691 C   0  0  0  0  0  0  0  0  0  0  0  0
  151.3590  145.0316  158.6267 C   0  0  0  0  0  0  0  0  0  0  0  0
  150.6135  144.1986  159.6679 C   0  0  0  0  0  0  0  0  0  0  0  0
  149.3061  141.7918  156.0128 N   0  0  0  0  0  0  0  0  0  0  0  0
  148.5336  141.1061  155.0360 C   0  0  0  0  0  0  0  0  0  0  0  0
  148.9909  139.9883  154.2967 C   0  0  0  0  0  0  0  0  0  0  0  0
  148.1153  139.3894  153.3689 C   0  0  0  0  0  0  0  0  0  0  0  0
  146.8547  139.8196  153.1499 N   0  0  0  0  0  0  0  0  0  0  0  0
  146.4181  140.8776  153.8653 C   0  0  0  0  0  0  0  0  0  0  0  0
  147.2118  141.5485  154.8170 C   0  0  0  0  0  0  0  0  0  0  0  0
  146.7099  142.6030  155.5048 F   0  0  0  0  0  0  0  0  0  0  0  0
  150.4743  143.1880  157.5270 H   0  0  0  0  0  0  0  0  0  0  0  0
  151.4829  141.1157  159.3052 H   0  0  0  0  0  0  0  0  0  0  0  0
  152.7056  141.8391  158.2910 H   0  0  0  0  0  0  0  0  0  0  0  0
  151.3829  142.0186  161.5016 H   0  0  0  0  0  0  0  0  0  0  0  0
  153.2210  144.4631  161.9676 H   0  0  0  0  0  0  0  0  0  0  0  0
  152.5582  143.2917  163.2099 H   0  0  0  0  0  0  0  0  0  0  0  0
  153.7154  141.3853  162.0378 H   0  0  0  0  0  0  0  0  0  0  0  0
  154.3628  142.5562  160.7763 H   0  0  0  0  0  0  0  0  0  0  0  0
  153.1043  145.0357  159.9297 H   0  0  0  0  0  0  0  0  0  0  0  0
  153.3693  144.1379  158.4008 H   0  0  0  0  0  0  0  0  0  0  0  0
  151.2807  146.1105  158.7637 H   0  0  0  0  0  0  0  0  0  0  0  0
  151.1364  144.7335  157.6011 H   0  0  0  0  0  0  0  0  0  0  0  0
  149.6756  143.7688  159.3147 H   0  0  0  0  0  0  0  0  0  0  0  0
  150.4688  144.7396  160.6048 H   0  0  0  0  0  0  0  0  0  0  0  0
  149.2206  142.7975  155.9947 H   0  0  0  0  0  0  0  0  0  0  0  0
  149.9781  139.5736  154.4266 H   0  0  0  0  0  0  0  0  0  0  0  0
  148.4359  138.5357  152.7902 H   0  0  0  0  0  0  0  0  0  0  0  0
  145.4043  141.1983  153.6754 H   0  0  0  0  0  0  0  0  0  0  0  0
  1  2  2  0  0  0  0
  2  3  1  0  0  0  0
  2 12  1  0  0  0  0
  3  4  1  0  0  0  0
  3 20  1  0  0  0  0
  4  5  1  0  0  0  0
  4 21  1  0  0  0  0
  4 22  1  0  0  0  0
  5 11  1  0  0  0  0
  5  6  1  0  0  0  0
  5  9  1  0  0  0  0
  6  8  1  0  0  0  0
  6  7  1  0  0  0  0
  6 23  1  0  0  0  0
  7  8  1  0  0  0  0
  7 24  1  0  0  0  0
  7 25  1  0  0  0  0
  8 26  1  0  0  0  0
  8 27  1  0  0  0  0
  9 10  1  0  0  0  0
  9 28  1  0  0  0  0
  9 29  1  0  0  0  0
 10 11  1  0  0  0  0
 10 30  1  0  0  0  0
 10 31  1  0  0  0  0
 11 32  1  0  0  0  0
 11 33  1  0  0  0  0
 12 13  1  0  0  0  0
 12 34  1  0  0  0  0
 13 18  1  0  0  0  0
 13 14  2  0  0  0  0
 14 15  1  0  0  0  0
 14 35  1  0  0  0  0
 15 16  2  0  0  0  0
 15 36  1  0  0  0  0
 16 17  1  0  0  0  0
 17 18  2  0  0  0  0
 17 37  1  0  0  0  0
 18 19  1  0  0  0  0
M  END
> <s_m_source_file>
AV-unprocessed.smi

> <i_m_source_file_index>
2423

> <i_lp_mmshare_version>
43012

> <i_f3d_flags>
0

> <s_epik_input>
W0NIMl0xW0NIMl1bQ0hdMUMyKFtDSDJdW0NIMl1bQ0gyXTIpW0NIMl1bTkhdQyg9TylbTkhdYzNbY0hdW2NIXW5bY0hdYzNG

> <s_epik_cmdline>
J2VwaWtfcHl0aG9uJywgJy1waCcsICc3LjAnLCAnLXRuJywgJzgnLCAnLW1hJywgJzIwMCcsICctbWV0YWxfYmluZGluZycsICctaW1hZScsICc8aW5maWxlLm1hZT4nLCAnLW9tYWUnLCAnPG91dGZpbGUubWFlPic=

> <r_epik_Ionization_Penalty>
0.00332314

> <r_epik_Ionization_Penalty_Charging>
0

> <r_epik_Ionization_Penalty_Neutral>
0.00332314

> <r_epik_State_Penalty>
0.00231995

> <r_epik_Charging_Adjusted_Penalty>
0.00231995

> <i_epik_Tot_Q>
0

> <i_epik_Tot_abs_Q>
0

> <r_epik_Metal_State_Penalty>
-0

> <b_epik_Metal_Only>
0

> <s_lp_Force_Field>
OPLS_2005

> <r_lp_Energy>
40.5055

> <b_lp_Chiralities_Consistent>
1

> <s_lp_Variant>
AV-unprocessed.smi:2423-1

> <Gold.Version>
5.8.1

> <Gold.Id.Protein>
6NUR|6NUR_protein|mol2

> <Gold.PLP.Fitness>
43.4883

> <Gold.PLP.PLP>
-35.8163

> <Gold.PLP.part.hbond>
-1.0000

> <Gold.PLP.part.metal>
0.0000

> <Gold.PLP.part.buried>
2.5426

> <Gold.PLP.part.nonpolar>
-37.8438

> <Gold.PLP.part.repulsive>
0.8167

> <Gold.PLP.ligand.clash>
0.0000

> <Gold.PLP.ligand.torsion>
1.7939

> <Gold.PLP.Chemscore.Hbond>
1.0000

> <Gold.PLP.Chemscore.CHOScore>
2.1802

> <Gold.PLP.Chemscore.Metal>
0.0000

> <Gold.Chemscore.Hbonds>
donor molecule, donor type, donor heavy atom, donor atom, acceptor molecule, acceptor atom, score
      L1  H    12    34       P1  8028  1.00
      L1  C    15    36       P1  7948  1.00
      L1  C    15    36       P1  7957  0.23
      L1  C    17    37       P1 10175  1.00

> <Gold.PLP.Chemscore.Internal.Correction>
1.7194

> <Gold.Rescore>
     Score         DG    S(hbond)    S(metal)    S(lipo)     H(rot)  DE(clash)    DE(int)     intcor
     14.47     -19.50       1.00        0.00     121.95       1.40       2.17       2.86       ----

> <Gold.Chemscore.Fitness>
14.4724

> <Gold.Chemscore.DG>
-19.5023

> <Gold.Chemscore.ZeroCoef>
-5.4800

> <Gold.Chemscore.Hbond>
0.9985

> <Gold.Chemscore.Metal>
0.0000

> <Gold.Chemscore.Lipo>
121.9544

> <Gold.Chemscore.Internal_Hbond>
0.0000

> <Gold.Chemscore.DEClash>
2.1718

> <Gold.Chemscore.DEInternal>
2.8581

> <Gold.Chemscore.Rot>
1.3990

> <Gold.Chemscore.Internal.Correction>
   9.000000E+99

> <Gold.Chemscore.Hbonds>
donor molecule, donor type, donor heavy atom, donor atom, acceptor molecule, acceptor atom, score
      L1  H    12    34       P1  8028  0.98

> <Gold.Chemscore.Hbond.Weighted>
-3.3350

> <Gold.Chemscore.Metal.Weighted>
-0.0000

> <Gold.Chemscore.Lipo.Weighted>
-14.2687

> <Gold.Chemscore.Internal_Hbond.Weighted>
0.0000

> <Gold.Chemscore.DEClash.Weighted>
2.1718

> <Gold.Chemscore.DEInternal.Weighted>
2.8581

> <Gold.Chemscore.Rot.Weighted>
3.5814

> <Gold.Chemscore.Internal.Correction.Weighted>
   9.000000E+99

> <Gold.Protein.RotatedTorsions>
[ 6907 6896 6895 6894 ] final  108.99 input  -60.11 | X-H torsion
[ 7974 7965 7964 7962 ] final  178.52 input  175.53 | X-H torsion
[ 8008 7997 7996 7995 ] final  -97.39 input   59.86 | X-H torsion
[ 10167 10162 10161 10158 ] final  -11.34 input  -65.29 | X-H torsion
[ 10718 10713 10712 10709 ] final   60.58 input   66.30 | X-H torsion
[ 10763 10752 10751 10750 ] final   90.71 input  -60.55 | X-H torsion
[ 11005 11000 10999 10996 ] final  120.37 input  -57.11 | X-H torsion

> <Gold.Protein.ActiveResidues>
 VAL166  LYS551  ARG553  GLY616  TRP617  ASP618  TYR619  PRO620  LYS621  CYS622 
 ASP623  PHE694  ASN695  SER759  ASP760  ASP761  ALA762  ILE779  LEU786  VAL792 
 PHE793  MET794  SER795  GLU796  ALA797  LYS798  CYS799  TRP800  GLU811  SER814 

> <Gold.Protein.RotatedAtoms>
  152.5087  133.9009  159.7440 H   0  0  0  0  0  0  0  0  0  0  0  0  # atno 6907 bound_to 6896
  150.9425  133.6632  159.2795 H   0  0  0  0  0  0  0  0  0  0  0  0  # atno 6908 bound_to 6896
  151.3939  135.0965  159.9587 H   0  0  0  0  0  0  0  0  0  0  0  0  # atno 6909 bound_to 6896
  144.7155  140.0409  143.6437 H   0  0  0  0  0  0  0  0  0  0  0  0  # atno 7974 bound_to 7965
  154.7871  140.0463  157.1172 H   0  0  0  0  0  0  0  0  0  0  0  0  # atno 8008 bound_to 7997
  154.9635  140.3080  155.5000 H   0  0  0  0  0  0  0  0  0  0  0  0  # atno 8009 bound_to 7997
  156.2945  140.2266  156.4722 H   0  0  0  0  0  0  0  0  0  0  0  0  # atno 8010 bound_to 7997
  140.7136  143.5650  150.9154 H   0  0  0  0  0  0  0  0  0  0  0  0  # atno 10167 bound_to 10162
  157.5763  130.8946  149.9353 H   0  0  0  0  0  0  0  0  0  0  0  0  # atno 10718 bound_to 10713
  153.2004  135.4424  155.0259 H   0  0  0  0  0  0  0  0  0  0  0  0  # atno 10763 bound_to 10752
  154.8143  135.3308  154.7221 H   0  0  0  0  0  0  0  0  0  0  0  0  # atno 10764 bound_to 10752
  153.7666  135.6987  153.4970 H   0  0  0  0  0  0  0  0  0  0  0  0  # atno 10765 bound_to 10752
  139.9182  134.9634  156.7797 H   0  0  0  0  0  0  0  0  0  0  0  0  # atno 11005 bound_to 11000
  146.0024  139.3102  143.0920 LP  0  0  0  0  0  0  0  0  0  0  0  0  # atno 17320 bound_to 7965
  145.8778  140.9381  143.0617 LP  0  0  0  0  0  0  0  0  0  0  0  0  # atno 17321 bound_to 7965
  139.9376  143.6420  152.3061 LP  0  0  0  0  0  0  0  0  0  0  0  0  # atno 17342 bound_to 10162
  139.6893  144.7648  151.1467 LP  0  0  0  0  0  0  0  0  0  0  0  0  # atno 17343 bound_to 10162
  156.0808  130.3673  150.0584 LP  0  0  0  0  0  0  0  0  0  0  0  0  # atno 17370 bound_to 10713
  156.8730  130.9531  151.3607 LP  0  0  0  0  0  0  0  0  0  0  0  0  # atno 17371 bound_to 10713
  140.6554  133.9693  155.7777 LP  0  0  0  0  0  0  0  0  0  0  0  0  # atno 17394 bound_to 11000
  141.0679  134.0249  157.3567 LP  0  0  0  0  0  0  0  0  0  0  0  0  # atno 17395 bound_to 11000

$$$$
