AV-unprocessed.smi:1848|AV-procd|sdf|7519|dock6
  -GOLD-   22720 9223D 1   1.00000     0.00000
 Structure written by MMmdl.
 31 31  0  0  0  0  0  0  0  0  1 V2000
  144.8069  147.2772  159.1943 C   0  0  0  0  0  0  0  0  0  0  0  0
  145.5549  146.4966  159.7619 C   0  0  0  0  0  0  0  0  0  0  0  0
  146.4461  145.5422  160.4434 C   0  0  0  0  0  0  0  0  0  0  0  0
  147.8296  145.6424  159.9926 N   0  0  0  0  0  0  0  0  0  0  0  0
  148.8570  144.9229  160.4710 C   0  0  0  0  0  0  0  0  0  0  0  0
  148.7362  144.0913  161.3717 O   0  0  0  0  0  0  0  0  0  0  0  0
  150.2287  145.2121  159.8445 C   0  0  0  0  0  0  0  0  0  0  0  0
  150.9552  143.9941  159.4469 N   0  0  0  0  0  0  0  0  0  0  0  0
  150.5068  143.3306  158.2871 C   0  0  0  0  0  0  0  0  0  0  0  0
  151.1000  142.2078  157.8244 C   0  0  0  0  0  0  0  0  0  0  0  0
  150.6644  141.4988  156.6177 C   0  0  0  0  0  0  0  0  0  0  0  0
  151.1110  140.4089  156.2571 O   0  0  0  0  0  0  0  0  0  0  0  0
  149.7171  142.1395  155.9109 N   0  0  0  0  0  0  0  0  0  0  0  0
  149.1287  141.6399  154.6775 C   0  0  0  0  0  0  0  0  0  0  0  0
  152.2310  141.6969  158.5750 C   0  0  0  0  0  0  0  0  0  0  0  0
  152.6681  142.3300  159.6811 C   0  0  0  0  0  0  0  0  0  0  0  0
  152.0254  143.5510  160.1741 C   0  0  0  0  0  0  0  0  0  0  0  0
  152.4244  144.1395  161.1793 O   0  0  0  0  0  0  0  0  0  0  0  0
  144.1531  147.9564  158.6949 H   0  0  0  0  0  0  0  0  0  0  0  0
  146.3674  145.6974  161.5206 H   0  0  0  0  0  0  0  0  0  0  0  0
  146.0806  144.5361  160.2375 H   0  0  0  0  0  0  0  0  0  0  0  0
  148.0201  146.3084  159.2580 H   0  0  0  0  0  0  0  0  0  0  0  0
  150.1021  145.8736  158.9854 H   0  0  0  0  0  0  0  0  0  0  0  0
  150.8140  145.7894  160.5614 H   0  0  0  0  0  0  0  0  0  0  0  0
  149.6630  143.8102  157.8121 H   0  0  0  0  0  0  0  0  0  0  0  0
  149.3883  143.0315  156.2510 H   0  0  0  0  0  0  0  0  0  0  0  0
  148.3915  142.3501  154.3033 H   0  0  0  0  0  0  0  0  0  0  0  0
  148.6289  140.6849  154.8445 H   0  0  0  0  0  0  0  0  0  0  0  0
  149.8919  141.5051  153.9099 H   0  0  0  0  0  0  0  0  0  0  0  0
  152.7405  140.7997  158.2535 H   0  0  0  0  0  0  0  0  0  0  0  0
  153.5140  141.9287  160.2195 H   0  0  0  0  0  0  0  0  0  0  0  0
  1  2  3  0  0  0  0
  1 19  1  0  0  0  0
  2  3  1  0  0  0  0
  3  4  1  0  0  0  0
  3 20  1  0  0  0  0
  3 21  1  0  0  0  0
  4  5  1  0  0  0  0
  4 22  1  0  0  0  0
  5  6  2  0  0  0  0
  5  7  1  0  0  0  0
  7  8  1  0  0  0  0
  7 23  1  0  0  0  0
  7 24  1  0  0  0  0
  8 17  1  0  0  0  0
  8  9  1  0  0  0  0
  9 10  2  0  0  0  0
  9 25  1  0  0  0  0
 10 11  1  0  0  0  0
 10 15  1  0  0  0  0
 11 12  2  0  0  0  0
 11 13  1  0  0  0  0
 13 14  1  0  0  0  0
 13 26  1  0  0  0  0
 14 27  1  0  0  0  0
 14 28  1  0  0  0  0
 14 29  1  0  0  0  0
 15 16  2  0  0  0  0
 15 30  1  0  0  0  0
 16 17  1  0  0  0  0
 16 31  1  0  0  0  0
 17 18  2  0  0  0  0
M  END
> <s_m_source_file>
AV-unprocessed.smi

> <i_m_source_file_index>
1848

> <i_lp_mmshare_version>
43012

> <i_f3d_flags>
0

> <s_epik_input>
W0NIXSNDW0NIMl1bTkhdQyg9TylbQ0gyXW4xW2NIXWMoQyg9TylbTkhdW0NIM10pW2NIXVtjSF1jMT1P

> <s_epik_cmdline>
J2VwaWtfcHl0aG9uJywgJy1waCcsICc3LjAnLCAnLXRuJywgJzgnLCAnLW1hJywgJzIwMCcsICctbWV0YWxfYmluZGluZycsICctaW1hZScsICc8aW5maWxlLm1hZT4nLCAnLW9tYWUnLCAnPG91dGZpbGUubWFlPic=

> <r_lp_tautomer_probability>
1

> <r_epik_Ionization_Penalty>
5.04952e-07

> <r_epik_Ionization_Penalty_Charging>
3.86163e-08

> <r_epik_Ionization_Penalty_Neutral>
4.66336e-07

> <r_epik_State_Penalty>
-0

> <r_epik_Charging_Adjusted_Penalty>
3.86163e-08

> <i_epik_Tot_Q>
0

> <i_epik_Tot_abs_Q>
0

> <r_epik_Metal_State_Penalty>
-0

> <b_epik_Metal_Only>
0

> <s_lp_Force_Field>
OPLS_2005

> <r_lp_Energy>
14.316

> <b_lp_Chiralities_Consistent>
1

> <s_lp_Variant>
AV-unprocessed.smi:1848-1

> <Gold.Version>
5.8.1

> <Gold.Id.Protein>
6NUR|6NUR_protein|mol2

> <Gold.PLP.Fitness>
45.5958

> <Gold.PLP.PLP>
-36.7434

> <Gold.PLP.part.hbond>
-3.0000

> <Gold.PLP.part.metal>
0.0000

> <Gold.PLP.part.buried>
-5.6659

> <Gold.PLP.part.nonpolar>
-29.0461

> <Gold.PLP.part.repulsive>
0.6491

> <Gold.PLP.ligand.clash>
0.0000

> <Gold.PLP.ligand.torsion>
0.3187

> <Gold.PLP.Chemscore.Hbond>
2.0960

> <Gold.PLP.Chemscore.CHOScore>
1.0587

> <Gold.PLP.Chemscore.Metal>
0.0000

> <Gold.Chemscore.Hbonds>
donor molecule, donor type, donor heavy atom, donor atom, acceptor molecule, acceptor atom, score
      L1  H     4    22       P1  8029  0.54
      L1  H    13    26       P1  8028  0.83
      P1  H  6933  6944       L1     6  0.72
      L1  C     9    25       P1  8028  1.00
      L1  C     9    25       P1  8029  0.07

> <Gold.PLP.Chemscore.Internal.Correction>
0.0255

> <Gold.Rescore>
     Score         DG    S(hbond)    S(metal)    S(lipo)     H(rot)  DE(clash)    DE(int)     intcor
     17.44     -17.74       2.80        0.00      60.38       1.62       0.10       0.20       ----

> <Gold.Chemscore.Fitness>
17.4449

> <Gold.Chemscore.DG>
-17.7443

> <Gold.Chemscore.ZeroCoef>
-5.4800

> <Gold.Chemscore.Hbond>
2.8012

> <Gold.Chemscore.Metal>
0.0000

> <Gold.Chemscore.Lipo>
60.3764

> <Gold.Chemscore.Internal_Hbond>
0.0000

> <Gold.Chemscore.DEClash>
0.1003

> <Gold.Chemscore.DEInternal>
0.1991

> <Gold.Chemscore.Rot>
1.6233

> <Gold.Chemscore.Internal.Correction>
   9.000000E+99

> <Gold.Chemscore.Hbonds>
donor molecule, donor type, donor heavy atom, donor atom, acceptor molecule, acceptor atom, score
      L1  H     4    22       P1  8029  0.52
      L1  H    13    26       P1  8028  0.83
      P1  H  6933  6944       L1     6  0.72

> <Gold.Chemscore.Hbond.Weighted>
-9.3559

> <Gold.Chemscore.Metal.Weighted>
-0.0000

> <Gold.Chemscore.Lipo.Weighted>
-7.0640

> <Gold.Chemscore.Internal_Hbond.Weighted>
0.0000

> <Gold.Chemscore.DEClash.Weighted>
0.1003

> <Gold.Chemscore.DEInternal.Weighted>
0.1991

> <Gold.Chemscore.Rot.Weighted>
4.1557

> <Gold.Chemscore.Internal.Correction.Weighted>
   9.000000E+99

> <Gold.Protein.RotatedTorsions>
[ 6907 6896 6895 6894 ] final  -18.66 input  -60.11 | X-H torsion
[ 7974 7965 7964 7962 ] final  -27.89 input  175.53 | X-H torsion
[ 8008 7997 7996 7995 ] final  -51.24 input   59.86 | X-H torsion
[ 10167 10162 10161 10158 ] final  153.39 input  -65.29 | X-H torsion
[ 10718 10713 10712 10709 ] final  -59.24 input   66.30 | X-H torsion
[ 10763 10752 10751 10750 ] final  -70.22 input  -60.55 | X-H torsion
[ 11005 11000 10999 10996 ] final   88.84 input  -57.11 | X-H torsion

> <Gold.Protein.ActiveResidues>
 VAL166  LYS551  ARG553  GLY616  TRP617  ASP618  TYR619  PRO620  LYS621  CYS622 
 ASP623  PHE694  ASN695  SER759  ASP760  ASP761  ALA762  ILE779  LEU786  VAL792 
 PHE793  MET794  SER795  GLU796  ALA797  LYS798  CYS799  TRP800  GLU811  SER814 

> <Gold.Protein.RotatedAtoms>
  151.2748  135.0696  159.9147 H   0  0  0  0  0  0  0  0  0  0  0  0  # atno 6907 bound_to 6896
  152.5344  134.0092  159.7941 H   0  0  0  0  0  0  0  0  0  0  0  0  # atno 6908 bound_to 6896
  151.0337  133.5717  159.2689 H   0  0  0  0  0  0  0  0  0  0  0  0  # atno 6909 bound_to 6896
  146.1327  140.5210  142.8686 H   0  0  0  0  0  0  0  0  0  0  0  0  # atno 7974 bound_to 7965
  154.4078  140.1253  156.4797 H   0  0  0  0  0  0  0  0  0  0  0  0  # atno 8008 bound_to 7997
  155.7098  140.3494  155.4949 H   0  0  0  0  0  0  0  0  0  0  0  0  # atno 8009 bound_to 7997
  155.9311  140.1070  157.1122 H   0  0  0  0  0  0  0  0  0  0  0  0  # atno 8010 bound_to 7997
  139.4827  144.5277  151.7774 H   0  0  0  0  0  0  0  0  0  0  0  0  # atno 10167 bound_to 10162
  156.1076  130.4178  150.0687 H   0  0  0  0  0  0  0  0  0  0  0  0  # atno 10718 bound_to 10713
  154.4146  135.6001  153.5973 H   0  0  0  0  0  0  0  0  0  0  0  0  # atno 10763 bound_to 10752
  152.9791  135.5937  154.4029 H   0  0  0  0  0  0  0  0  0  0  0  0  # atno 10764 bound_to 10752
  154.3846  135.2841  155.2169 H   0  0  0  0  0  0  0  0  0  0  0  0  # atno 10765 bound_to 10752
  139.8888  134.8514  156.3058 H   0  0  0  0  0  0  0  0  0  0  0  0  # atno 11005 bound_to 11000
  144.7707  140.5631  143.6672 LP  0  0  0  0  0  0  0  0  0  0  0  0  # atno 17320 bound_to 7965
  145.5225  139.1476  143.3544 LP  0  0  0  0  0  0  0  0  0  0  0  0  # atno 17321 bound_to 7965
  140.4799  144.1465  150.5931 LP  0  0  0  0  0  0  0  0  0  0  0  0  # atno 17342 bound_to 10162
  140.4289  143.2577  151.9620 LP  0  0  0  0  0  0  0  0  0  0  0  0  # atno 17343 bound_to 10162
  156.8659  130.9507  151.3614 LP  0  0  0  0  0  0  0  0  0  0  0  0  # atno 17370 bound_to 10713
  157.6255  130.8688  149.9181 LP  0  0  0  0  0  0  0  0  0  0  0  0  # atno 17371 bound_to 10713
  140.9883  133.7224  156.0775 LP  0  0  0  0  0  0  0  0  0  0  0  0  # atno 17394 bound_to 11000
  140.7658  134.3888  157.5517 LP  0  0  0  0  0  0  0  0  0  0  0  0  # atno 17395 bound_to 11000

$$$$
