AV-unprocessed.smi:1106|AV-procd|sdf|4777|dock5
  -GOLD-   22720 3313D 1   1.00000     0.00000
 Structure written by MMmdl.
 48 49  0  0  0  0  0  0  0  0  2 V2000
  151.0001  142.6493  157.5327 C   0  0  0  0  0  0  0  0  0  0  0  0
  150.6927  141.9324  156.2095 C   0  0  0  0  0  0  0  0  0  0  0  0
  149.3014  141.5899  156.0660 N   0  0  0  0  0  0  0  0  0  0  0  0
  148.3939  141.7974  157.0867 C   0  0  0  0  0  0  0  0  0  0  0  0
  147.0856  141.4808  156.9793 C   0  0  0  0  0  0  0  0  0  0  0  0
  146.1678  141.7093  158.0458 C   0  0  0  0  0  0  0  0  0  0  0  0
  145.4357  141.9123  158.9188 N   0  0  0  0  0  0  0  0  0  0  0  0
  146.5504  140.8857  155.7569 C   0  0  0  0  0  0  0  0  0  0  0  0
  145.3628  140.5946  155.6018 O   0  0  0  0  0  0  0  0  0  0  0  0
  147.5108  140.6696  154.7368 N   0  0  0  0  0  0  0  0  0  0  0  0
  147.0413  140.0720  153.4949 C   0  0  0  0  0  0  0  0  0  0  0  0
  146.6355  138.5865  153.6224 C   0  0  2  0  0  0  0  0  0  0  0  0
  147.8050  137.8525  153.9222 O   0  0  0  0  0  0  0  0  0  0  0  0
  146.0069  138.0032  152.3387 C   0  0  0  0  0  0  0  0  0  0  0  0
  146.1740  136.5308  152.2423 N   0  3  2  0  0  0  0  0  0  0  0  0
  145.6058  135.9795  150.9855 C   0  0  0  0  0  0  0  0  0  0  0  0
  145.9147  134.4791  150.8466 C   0  0  0  0  0  0  0  0  0  0  0  0
  145.3996  133.6864  152.0600 C   0  0  1  0  0  0  0  0  0  0  0  0
  145.7299  132.1914  151.9460 C   0  0  0  0  0  0  0  0  0  0  0  0
  145.9765  134.3009  153.3463 C   0  0  0  0  0  0  0  0  0  0  0  0
  145.6638  135.8040  153.4357 C   0  0  0  0  0  0  0  0  0  0  0  0
  148.8815  141.0110  154.8457 C   0  0  0  0  0  0  0  0  0  0  0  0
  149.6748  140.8246  153.9191 O   0  0  0  0  0  0  0  0  0  0  0  0
  152.0526  142.9284  157.5837 H   0  0  0  0  0  0  0  0  0  0  0  0
  150.7857  142.0154  158.3935 H   0  0  0  0  0  0  0  0  0  0  0  0
  150.4099  143.5607  157.6323 H   0  0  0  0  0  0  0  0  0  0  0  0
  150.9326  142.5743  155.3607 H   0  0  0  0  0  0  0  0  0  0  0  0
  151.2731  141.0167  156.0823 H   0  0  0  0  0  0  0  0  0  0  0  0
  148.7447  142.2334  158.0113 H   0  0  0  0  0  0  0  0  0  0  0  0
  146.2259  140.6783  153.0980 H   0  0  0  0  0  0  0  0  0  0  0  0
  147.8485  140.1994  152.7704 H   0  0  0  0  0  0  0  0  0  0  0  0
  145.9560  138.4753  154.4664 H   0  0  0  0  0  0  0  0  0  0  0  0
  148.1007  137.4215  153.1343 H   0  0  0  0  0  0  0  0  0  0  0  0
  144.9433  138.2355  152.2815 H   0  0  0  0  0  0  0  0  0  0  0  0
  146.4699  138.4895  151.4784 H   0  0  0  0  0  0  0  0  0  0  0  0
  144.5275  136.1473  150.9665 H   0  0  0  0  0  0  0  0  0  0  0  0
  146.0248  136.5092  150.1288 H   0  0  0  0  0  0  0  0  0  0  0  0
  145.4632  134.0958  149.9307 H   0  0  0  0  0  0  0  0  0  0  0  0
  146.9916  134.3382  150.7420 H   0  0  0  0  0  0  0  0  0  0  0  0
  144.3133  133.7839  152.0938 H   0  0  0  0  0  0  0  0  0  0  0  0
  146.8068  132.0235  151.9087 H   0  0  0  0  0  0  0  0  0  0  0  0
  145.2943  131.7612  151.0436 H   0  0  0  0  0  0  0  0  0  0  0  0
  145.3358  131.6365  152.7978 H   0  0  0  0  0  0  0  0  0  0  0  0
  145.5689  133.7900  154.2194 H   0  0  0  0  0  0  0  0  0  0  0  0
  147.0569  134.1513  153.3779 H   0  0  0  0  0  0  0  0  0  0  0  0
  146.1108  136.2030  154.3454 H   0  0  0  0  0  0  0  0  0  0  0  0
  144.5868  135.9563  153.5225 H   0  0  0  0  0  0  0  0  0  0  0  0
  147.1697  136.3651  152.1951 H   0  0  0  0  0  0  0  0  0  0  0  0
  1  2  1  0  0  0  0
  1 24  1  0  0  0  0
  1 25  1  0  0  0  0
  1 26  1  0  0  0  0
  2  3  1  0  0  0  0
  2 27  1  0  0  0  0
  2 28  1  0  0  0  0
  3 22  1  0  0  0  0
  3  4  1  0  0  0  0
  4  5  2  0  0  0  0
  4 29  1  0  0  0  0
  5  6  1  0  0  0  0
  5  8  1  0  0  0  0
  6  7  3  0  0  0  0
  8  9  2  0  0  0  0
  8 10  1  0  0  0  0
 10 11  1  0  0  0  0
 10 22  1  0  0  0  0
 11 12  1  0  0  0  0
 11 30  1  0  0  0  0
 11 31  1  0  0  0  0
 12 13  1  0  0  0  0
 12 14  1  0  0  0  0
 12 32  1  0  0  0  0
 13 33  1  0  0  0  0
 14 15  1  0  0  0  0
 14 34  1  0  0  0  0
 14 35  1  0  0  0  0
 15 21  1  0  0  0  0
 15 16  1  0  0  0  0
 15 48  1  0  0  0  0
 16 17  1  0  0  0  0
 16 36  1  0  0  0  0
 16 37  1  0  0  0  0
 17 18  1  0  0  0  0
 17 38  1  0  0  0  0
 17 39  1  0  0  0  0
 18 19  1  0  0  0  0
 18 20  1  0  0  0  0
 18 40  1  0  0  0  0
 19 41  1  0  0  0  0
 19 42  1  0  0  0  0
 19 43  1  0  0  0  0
 20 21  1  0  0  0  0
 20 44  1  0  0  0  0
 20 45  1  0  0  0  0
 21 46  1  0  0  0  0
 21 47  1  0  0  0  0
 22 23  2  0  0  0  0
M  CHG  1  15   1
M  END
> <s_m_source_file>
AV-unprocessed.smi

> <i_m_source_file_index>
1106

> <i_lp_mmshare_version>
43012

> <i_f3d_flags>
0

> <s_epik_input>
W0NIM11bQ0gyXW4xW2NIXWMoQyNOKWMoPU8pbihjMT1PKVtDSDJdW0NASF0oW09IXSlbQ0gyXU4yW0NIMl1bQ0gyXVtDSF0oW0NIM10pW0NIMl1bQ0gyXTI=

> <s_epik_cmdline>
J2VwaWtfcHl0aG9uJywgJy1waCcsICc3LjAnLCAnLXRuJywgJzgnLCAnLW1hJywgJzIwMCcsICctbWV0YWxfYmluZGluZycsICctaW1hZScsICc8aW5maWxlLm1hZT4nLCAnLW9tYWUnLCAnPG91dGZpbGUubWFlPic=

> <r_epik_Ionization_Penalty>
0.00136816

> <r_epik_Ionization_Penalty_Charging>
0.00136813

> <r_epik_Ionization_Penalty_Neutral>
3.19882e-08

> <r_epik_State_Penalty>
0.000910892

> <r_epik_Charging_Adjusted_Penalty>
0.00227902

> <i_epik_Tot_Q>
1

> <i_epik_Tot_abs_Q>
1

> <r_epik_Metal_State_Penalty>
-0

> <b_epik_Metal_Only>
0

> <s_lp_Force_Field>
OPLS_2005

> <r_lp_Energy>
27.8711

> <b_lp_Chiralities_Consistent>
1

> <s_lp_Variant>
AV-unprocessed.smi:1106-1

> <Gold.Version>
5.8.1

> <Gold.Id.Protein>
6NUR|6NUR_protein|mol2

> <Gold.PLP.Fitness>
45.8115

> <Gold.PLP.PLP>
-31.1734

> <Gold.PLP.part.hbond>
-5.0000

> <Gold.PLP.part.metal>
0.0000

> <Gold.PLP.part.buried>
-5.1247

> <Gold.PLP.part.nonpolar>
-24.5478

> <Gold.PLP.part.repulsive>
2.5246

> <Gold.PLP.ligand.clash>
0.0000

> <Gold.PLP.ligand.torsion>
0.4145

> <Gold.PLP.Chemscore.Hbond>
5.1462

> <Gold.PLP.Chemscore.CHOScore>
0.0000

> <Gold.PLP.Chemscore.Metal>
0.0000

> <Gold.Chemscore.Hbonds>
donor molecule, donor type, donor heavy atom, donor atom, acceptor molecule, acceptor atom, score
      L1  H    13    33       P1  7948  1.00
      L1  H    15    48       P1  7948  2.00
      P1  H  7989  7998       L1    23  0.50
      P1  H  8011  8017       L1    23  0.44

> <Gold.PLP.Chemscore.Internal.Correction>
0.0286

> <Gold.Rescore>
     Score         DG    S(hbond)    S(metal)    S(lipo)     H(rot)  DE(clash)    DE(int)     intcor
     18.36     -20.20       3.90        0.00      68.81       2.48       1.45       0.38       ----

> <Gold.Chemscore.Fitness>
18.3619

> <Gold.Chemscore.DG>
-20.1960

> <Gold.Chemscore.ZeroCoef>
-5.4800

> <Gold.Chemscore.Hbond>
3.8993

> <Gold.Chemscore.Metal>
0.0000

> <Gold.Chemscore.Lipo>
68.8108

> <Gold.Chemscore.Internal_Hbond>
0.0000

> <Gold.Chemscore.DEClash>
1.4537

> <Gold.Chemscore.DEInternal>
0.3805

> <Gold.Chemscore.Rot>
2.4838

> <Gold.Chemscore.Internal.Correction>
   9.000000E+99

> <Gold.Chemscore.Hbonds>
donor molecule, donor type, donor heavy atom, donor atom, acceptor molecule, acceptor atom, score
      L1  H    13    33       P1  7948  0.99
      L1  H    15    48       P1  7948  1.00
      P1  H  7989  7998       L1    23  0.49
      P1  H  8011  8017       L1    23  0.40

> <Gold.Chemscore.Hbond.Weighted>
-13.0236

> <Gold.Chemscore.Metal.Weighted>
-0.0000

> <Gold.Chemscore.Lipo.Weighted>
-8.0509

> <Gold.Chemscore.Internal_Hbond.Weighted>
0.0000

> <Gold.Chemscore.DEClash.Weighted>
1.4537

> <Gold.Chemscore.DEInternal.Weighted>
0.3805

> <Gold.Chemscore.Rot.Weighted>
6.3585

> <Gold.Chemscore.Internal.Correction.Weighted>
   9.000000E+99

> <Gold.Protein.RotatedTorsions>
[ 6907 6896 6895 6894 ] final  118.57 input  -60.11 | X-H torsion
[ 7974 7965 7964 7962 ] final   -0.15 input  175.53 | X-H torsion
[ 8008 7997 7996 7995 ] final   -7.46 input   59.86 | X-H torsion
[ 10167 10162 10161 10158 ] final  -21.26 input  -65.29 | X-H torsion
[ 10718 10713 10712 10709 ] final  -64.49 input   66.30 | X-H torsion
[ 10763 10752 10751 10750 ] final  170.33 input  -60.55 | X-H torsion
[ 11005 11000 10999 10996 ] final  136.52 input  -57.11 | X-H torsion

> <Gold.Protein.ActiveResidues>
 VAL166  LYS551  ARG553  GLY616  TRP617  ASP618  TYR619  PRO620  LYS621  CYS622 
 ASP623  PHE694  ASN695  SER759  ASP760  ASP761  ALA762  ILE779  LEU786  VAL792 
 PHE793  MET794  SER795  GLU796  ALA797  LYS798  CYS799  TRP800  GLU811  SER814 

> <Gold.Protein.RotatedAtoms>
  152.4534  133.7674  159.6779 H   0  0  0  0  0  0  0  0  0  0  0  0  # atno 6907 bound_to 6896
  150.8452  133.7862  159.3052 H   0  0  0  0  0  0  0  0  0  0  0  0  # atno 6908 bound_to 6896
  151.5474  135.1070  159.9993 H   0  0  0  0  0  0  0  0  0  0  0  0  # atno 6909 bound_to 6896
  146.2430  140.1226  142.8340 H   0  0  0  0  0  0  0  0  0  0  0  0  # atno 7974 bound_to 7965
  154.5836  140.2406  155.8019 H   0  0  0  0  0  0  0  0  0  0  0  0  # atno 8008 bound_to 7997
  156.2197  140.3001  155.9879 H   0  0  0  0  0  0  0  0  0  0  0  0  # atno 8009 bound_to 7997
  155.2497  140.0410  157.2975 H   0  0  0  0  0  0  0  0  0  0  0  0  # atno 8010 bound_to 7997
  140.7281  143.4645  151.0333 H   0  0  0  0  0  0  0  0  0  0  0  0  # atno 10167 bound_to 10162
  156.0726  130.4234  150.1428 H   0  0  0  0  0  0  0  0  0  0  0  0  # atno 10718 bound_to 10713
  154.3961  135.2754  155.2125 H   0  0  0  0  0  0  0  0  0  0  0  0  # atno 10763 bound_to 10752
  154.4171  135.6009  153.5991 H   0  0  0  0  0  0  0  0  0  0  0  0  # atno 10764 bound_to 10752
  152.9831  135.5963  154.4222 H   0  0  0  0  0  0  0  0  0  0  0  0  # atno 10765 bound_to 10752
  140.0052  134.9462  157.0159 H   0  0  0  0  0  0  0  0  0  0  0  0  # atno 11005 bound_to 11000
  145.0394  140.8933  143.5062 LP  0  0  0  0  0  0  0  0  0  0  0  0  # atno 17320 bound_to 7965
  145.1304  139.2636  143.5542 LP  0  0  0  0  0  0  0  0  0  0  0  0  # atno 17321 bound_to 7965
  139.8332  143.7663  152.3180 LP  0  0  0  0  0  0  0  0  0  0  0  0  # atno 17342 bound_to 10162
  139.7786  144.7452  151.0121 LP  0  0  0  0  0  0  0  0  0  0  0  0  # atno 17343 bound_to 10162
  156.9476  130.9764  151.3504 LP  0  0  0  0  0  0  0  0  0  0  0  0  # atno 17370 bound_to 10713
  157.5804  130.8373  149.8515 LP  0  0  0  0  0  0  0  0  0  0  0  0  # atno 17371 bound_to 10713
  140.4655  134.1440  155.7196 LP  0  0  0  0  0  0  0  0  0  0  0  0  # atno 17394 bound_to 11000
  141.1671  133.8681  157.1681 LP  0  0  0  0  0  0  0  0  0  0  0  0  # atno 17395 bound_to 11000

$$$$
