AV-unprocessed.smi:3234|AV-procd|sdf|12358|dock8
  -GOLD-   2272018223D 1   1.00000     0.00000
 Structure written by MMmdl.
 37 39  0  0  0  0  0  0  0  0  4 V2000
  152.5757  139.9817  159.7754 O   0  0  0  0  0  0  0  0  0  0  0  0
  152.6211  140.5224  158.6641 C   0  0  0  0  0  0  0  0  0  0  0  0
  152.5140  141.8585  158.5553 N   0  0  0  0  0  0  0  0  0  0  0  0
  152.2967  142.8193  159.5789 C   0  0  0  0  0  0  0  0  0  0  0  0
  152.7086  142.4923  160.8895 C   0  0  0  0  0  0  0  0  0  0  0  0
  152.5293  143.4295  161.9271 C   0  0  0  0  0  0  0  0  0  0  0  0
  151.9801  144.6336  161.6586 N   0  3  0  0  0  0  0  0  0  0  0  0
  151.5891  144.9978  160.4183 C   0  0  0  0  0  0  0  0  0  0  0  0
  151.7428  144.1023  159.3409 C   0  0  0  0  0  0  0  0  0  0  0  0
  152.7922  139.9194  157.4564 N   0  5  0  0  0  0  0  0  0  0  0  0
  151.7128  139.3457  156.6505 C   0  0  2  0  0  0  0  0  0  0  0  0
  152.2081  138.9075  155.2715 C   0  0  0  0  0  0  0  0  0  0  0  0
  150.9654  138.9999  154.3728 C   0  0  0  0  0  0  0  0  0  0  0  0
  149.9679  139.8123  155.1080 N   0  3  2  0  0  0  0  0  0  0  0  0
  149.2591  140.8106  154.2790 C   0  0  0  0  0  0  0  0  0  0  0  0
  148.1314  141.5051  155.0042 C   0  0  0  0  0  0  0  0  0  0  0  0
  147.8284  140.4359  153.9768 C   0  0  0  0  0  0  0  0  0  0  0  0
  150.6433  140.3782  156.2916 C   0  0  0  0  0  0  0  0  0  0  0  0
  152.6751  142.2316  157.6311 H   0  0  0  0  0  0  0  0  0  0  0  0
  153.1506  141.5293  161.1015 H   0  0  0  0  0  0  0  0  0  0  0  0
  152.8093  143.2540  162.9555 H   0  0  0  0  0  0  0  0  0  0  0  0
  151.1743  145.9905  160.3229 H   0  0  0  0  0  0  0  0  0  0  0  0
  151.4466  144.4147  158.3507 H   0  0  0  0  0  0  0  0  0  0  0  0
  151.2337  138.4933  157.1355 H   0  0  0  0  0  0  0  0  0  0  0  0
  152.9693  139.5963  154.9002 H   0  0  0  0  0  0  0  0  0  0  0  0
  152.6444  137.9083  155.2822 H   0  0  0  0  0  0  0  0  0  0  0  0
  151.2224  139.4462  153.4106 H   0  0  0  0  0  0  0  0  0  0  0  0
  150.5410  138.0147  154.1733 H   0  0  0  0  0  0  0  0  0  0  0  0
  149.8590  141.3484  153.5466 H   0  0  0  0  0  0  0  0  0  0  0  0
  147.9637  141.2587  156.0514 H   0  0  0  0  0  0  0  0  0  0  0  0
  147.9179  142.5360  154.7296 H   0  0  0  0  0  0  0  0  0  0  0  0
  147.4144  140.7624  153.0249 H   0  0  0  0  0  0  0  0  0  0  0  0
  147.4585  139.4792  154.3412 H   0  0  0  0  0  0  0  0  0  0  0  0
  149.9400  140.5562  157.1057 H   0  0  0  0  0  0  0  0  0  0  0  0
  151.1044  141.3318  156.0263 H   0  0  0  0  0  0  0  0  0  0  0  0
  149.2813  139.1623  155.4628 H   0  0  0  0  0  0  0  0  0  0  0  0
  151.8608  145.2981  162.4235 H   0  0  0  0  0  0  0  0  0  0  0  0
  1  2  2  0  0  0  0
  2  3  1  0  0  0  0
  2 10  1  0  0  0  0
  3  4  1  0  0  0  0
  3 19  1  0  0  0  0
  4  9  1  0  0  0  0
  4  5  2  0  0  0  0
  5  6  1  0  0  0  0
  5 20  1  0  0  0  0
  6  7  2  0  0  0  0
  6 21  1  0  0  0  0
  7  8  1  0  0  0  0
  7 37  1  0  0  0  0
  8  9  2  0  0  0  0
  8 22  1  0  0  0  0
  9 23  1  0  0  0  0
 10 11  1  0  0  0  0
 11 18  1  0  0  0  0
 11 12  1  0  0  0  0
 11 24  1  0  0  0  0
 12 13  1  0  0  0  0
 12 25  1  0  0  0  0
 12 26  1  0  0  0  0
 13 14  1  0  0  0  0
 13 27  1  0  0  0  0
 13 28  1  0  0  0  0
 14 15  1  0  0  0  0
 14 18  1  0  0  0  0
 14 36  1  0  0  0  0
 15 17  1  0  0  0  0
 15 16  1  0  0  0  0
 15 29  1  0  0  0  0
 16 17  1  0  0  0  0
 16 30  1  0  0  0  0
 16 31  1  0  0  0  0
 17 32  1  0  0  0  0
 17 33  1  0  0  0  0
 18 34  1  0  0  0  0
 18 35  1  0  0  0  0
M  CHG  1   7   1
M  CHG  1  10  -1
M  CHG  1  14   1
M  END
> <s_m_source_file>
AV-unprocessed.smi

> <i_m_source_file_index>
3234

> <i_lp_mmshare_version>
43012

> <i_f3d_flags>
0

> <s_epik_input>
W2NIXTFbY0hdbltjSF1bY0hdYzFbTkhdQyg9TylbTkhdW0NAQEhdMltDSDJdW0NIMl1OKFtDSDJdMilbQ0hdM1tDSDJdW0NIMl0z

> <s_epik_cmdline>
J2VwaWtfcHl0aG9uJywgJy1waCcsICc3LjAnLCAnLXRuJywgJzgnLCAnLW1hJywgJzIwMCcsICctbWV0YWxfYmluZGluZycsICctaW1hZScsICc8aW5maWxlLm1hZT4nLCAnLW9tYWUnLCAnPG91dGZpbGUubWFlPic=

> <r_epik_Ionization_Penalty>
8.3234

> <r_epik_Ionization_Penalty_Charging>
8.3234

> <r_epik_Ionization_Penalty_Neutral>
3.58513e-06

> <r_epik_State_Penalty>
7.99376

> <r_epik_Charging_Adjusted_Penalty>
16.3172

> <i_epik_Tot_Q>
1

> <i_epik_Tot_abs_Q>
3

> <r_epik_Metal_State_Penalty>
3.98956

> <b_epik_Metal_Only>
1

> <s_lp_Force_Field>
OPLS_2005

> <r_lp_Energy>
39.7431

> <b_lp_Chiralities_Consistent>
1

> <s_lp_Variant>
AV-unprocessed.smi:3234-11

> <Gold.Version>
5.8.1

> <Gold.Id.Protein>
6NUR|6NUR_protein|mol2

> <Gold.PLP.Fitness>
45.0825

> <Gold.PLP.PLP>
-41.0010

> <Gold.PLP.part.hbond>
-2.0000

> <Gold.PLP.part.metal>
0.0000

> <Gold.PLP.part.buried>
-3.7168

> <Gold.PLP.part.nonpolar>
-35.7266

> <Gold.PLP.part.repulsive>
0.2257

> <Gold.PLP.ligand.clash>
0.0000

> <Gold.PLP.ligand.torsion>
1.5987

> <Gold.PLP.Chemscore.Hbond>
2.0000

> <Gold.PLP.Chemscore.CHOScore>
0.0000

> <Gold.PLP.Chemscore.Metal>
0.0000

> <Gold.Chemscore.Hbonds>
donor molecule, donor type, donor heavy atom, donor atom, acceptor molecule, acceptor atom, score
      P1  H  7997  8009       L1    10  2.00

> <Gold.PLP.Chemscore.Internal.Correction>
1.2789

> <Gold.Rescore>
     Score         DG    S(hbond)    S(metal)    S(lipo)     H(rot)  DE(clash)    DE(int)     intcor
     14.42     -17.61       0.88        0.00     105.14       1.21       0.15       3.04       ----

> <Gold.Chemscore.Fitness>
14.4186

> <Gold.Chemscore.DG>
-17.6127

> <Gold.Chemscore.ZeroCoef>
-5.4800

> <Gold.Chemscore.Hbond>
0.8774

> <Gold.Chemscore.Metal>
0.0000

> <Gold.Chemscore.Lipo>
105.1434

> <Gold.Chemscore.Internal_Hbond>
0.0000

> <Gold.Chemscore.DEClash>
0.1529

> <Gold.Chemscore.DEInternal>
3.0412

> <Gold.Chemscore.Rot>
1.2108

> <Gold.Chemscore.Internal.Correction>
   9.000000E+99

> <Gold.Chemscore.Hbonds>
donor molecule, donor type, donor heavy atom, donor atom, acceptor molecule, acceptor atom, score
      P1  H  7997  8009       L1    10  0.79

> <Gold.Chemscore.Hbond.Weighted>
-2.9305

> <Gold.Chemscore.Metal.Weighted>
-0.0000

> <Gold.Chemscore.Lipo.Weighted>
-12.3018

> <Gold.Chemscore.Internal_Hbond.Weighted>
0.0000

> <Gold.Chemscore.DEClash.Weighted>
0.1529

> <Gold.Chemscore.DEInternal.Weighted>
3.0412

> <Gold.Chemscore.Rot.Weighted>
3.0996

> <Gold.Chemscore.Internal.Correction.Weighted>
   9.000000E+99

> <Gold.Protein.RotatedTorsions>
[ 6907 6896 6895 6894 ] final  110.93 input  -60.11 | X-H torsion
[ 7974 7965 7964 7962 ] final -156.28 input  175.53 | X-H torsion
[ 8008 7997 7996 7995 ] final -172.40 input   59.86 | X-H torsion
[ 10167 10162 10161 10158 ] final  -86.73 input  -65.29 | X-H torsion
[ 10718 10713 10712 10709 ] final   -3.60 input   66.30 | X-H torsion
[ 10763 10752 10751 10750 ] final  140.53 input  -60.55 | X-H torsion
[ 11005 11000 10999 10996 ] final  -26.83 input  -57.11 | X-H torsion

> <Gold.Protein.ActiveResidues>
 VAL166  LYS551  ARG553  GLY616  TRP617  ASP618  TYR619  PRO620  LYS621  CYS622 
 ASP623  PHE694  ASN695  SER759  ASP760  ASP761  ALA762  ILE779  LEU786  VAL792 
 PHE793  MET794  SER795  GLU796  ALA797  LYS798  CYS799  TRP800  GLU811  SER814 

> <Gold.Protein.RotatedAtoms>
  152.4995  133.8729  159.7307 H   0  0  0  0  0  0  0  0  0  0  0  0  # atno 6907 bound_to 6896
  150.9211  133.6870  159.2838 H   0  0  0  0  0  0  0  0  0  0  0  0  # atno 6908 bound_to 6896
  151.4247  135.1006  159.9677 H   0  0  0  0  0  0  0  0  0  0  0  0  # atno 6909 bound_to 6896
  144.7600  140.4132  143.5983 H   0  0  0  0  0  0  0  0  0  0  0  0  # atno 7974 bound_to 7965
  155.9441  140.1114  157.1032 H   0  0  0  0  0  0  0  0  0  0  0  0  # atno 8008 bound_to 7997
  154.4095  140.1213  156.5031 H   0  0  0  0  0  0  0  0  0  0  0  0  # atno 8009 bound_to 7997
  155.6925  140.3472  155.4902 H   0  0  0  0  0  0  0  0  0  0  0  0  # atno 8010 bound_to 7997
  140.3913  143.2703  151.9261 H   0  0  0  0  0  0  0  0  0  0  0  0  # atno 10167 bound_to 10162
  156.7737  130.5308  149.5763 H   0  0  0  0  0  0  0  0  0  0  0  0  # atno 10718 bound_to 10713
  153.9242  135.2997  155.3447 H   0  0  0  0  0  0  0  0  0  0  0  0  # atno 10763 bound_to 10752
  154.7560  135.4957  153.9378 H   0  0  0  0  0  0  0  0  0  0  0  0  # atno 10764 bound_to 10752
  153.1125  135.6763  153.9578 H   0  0  0  0  0  0  0  0  0  0  0  0  # atno 10765 bound_to 10752
  140.9064  133.7490  156.0612 H   0  0  0  0  0  0  0  0  0  0  0  0  # atno 11005 bound_to 11000
  145.6650  139.1588  143.2787 LP  0  0  0  0  0  0  0  0  0  0  0  0  # atno 17320 bound_to 7965
  146.1653  140.6727  142.9258 LP  0  0  0  0  0  0  0  0  0  0  0  0  # atno 17321 bound_to 7965
  139.4789  144.5725  151.8066 LP  0  0  0  0  0  0  0  0  0  0  0  0  # atno 17342 bound_to 10162
  140.4837  144.1413  150.5937 LP  0  0  0  0  0  0  0  0  0  0  0  0  # atno 17343 bound_to 10162
  156.1262  130.6145  151.0266 LP  0  0  0  0  0  0  0  0  0  0  0  0  # atno 17370 bound_to 10713
  157.6679  131.0868  150.7684 LP  0  0  0  0  0  0  0  0  0  0  0  0  # atno 17371 bound_to 10713
  140.8165  134.3338  157.5395 LP  0  0  0  0  0  0  0  0  0  0  0  0  # atno 17394 bound_to 11000
  139.8750  134.9284  156.3451 LP  0  0  0  0  0  0  0  0  0  0  0  0  # atno 17395 bound_to 11000

$$$$
