AV-unprocessed.smi:2629|AV-procd|sdf|10245|dock7
  -GOLD-   2272014253D 1   1.00000     0.00000
 Structure written by MMmdl.
 23 24  0  0  0  0  0  0  0  0  2 V2000
  153.8749  135.9393  160.2037 O   0  0  0  0  0  0  0  0  0  0  0  0
  153.8420  137.1676  160.2239 C   0  0  0  0  0  0  0  0  0  0  0  0
  154.1240  137.9085  161.5129 N   0  0  0  0  0  0  0  0  0  0  0  0
  154.0900  139.1665  161.5336 N   0  0  0  0  0  0  0  0  0  0  0  0
  153.7998  139.9545  160.3982 C   0  0  0  0  0  0  0  0  0  0  0  0
  153.8041  141.3317  160.6271 N   0  0  0  0  0  0  0  0  0  0  0  0
  153.7971  141.9523  161.9474 C   0  0  0  0  0  0  0  0  0  0  0  0
  152.4531  142.6593  162.1891 C   0  0  0  0  0  0  0  0  0  0  0  0
  152.2468  143.6338  161.1702 O   0  0  0  0  0  0  0  0  0  0  0  0
  152.2264  143.0541  159.8683 C   0  0  0  0  0  0  0  0  0  0  0  0
  153.5612  142.3368  159.5950 C   0  0  0  0  0  0  0  0  0  0  0  0
  153.5328  139.3085  159.1960 C   0  0  0  0  0  0  0  0  0  0  0  0
  153.2580  139.6612  158.0275 O   0  5  0  0  0  0  0  0  0  0  0  0
  153.5646  137.9209  159.1486 N   0  0  0  0  0  0  0  0  0  0  0  0
  154.6090  142.6790  161.9951 H   0  0  0  0  0  0  0  0  0  0  0  0
  153.9998  141.2273  162.7337 H   0  0  0  0  0  0  0  0  0  0  0  0
  151.6311  141.9415  162.1980 H   0  0  0  0  0  0  0  0  0  0  0  0
  152.4568  143.1557  163.1592 H   0  0  0  0  0  0  0  0  0  0  0  0
  151.3900  142.3585  159.7829 H   0  0  0  0  0  0  0  0  0  0  0  0
  152.0636  143.8413  159.1322 H   0  0  0  0  0  0  0  0  0  0  0  0
  153.5367  141.8976  158.5983 H   0  0  0  0  0  0  0  0  0  0  0  0
  154.3820  143.0548  159.5984 H   0  0  0  0  0  0  0  0  0  0  0  0
  153.3688  137.4804  158.2618 H   0  0  0  0  0  0  0  0  0  0  0  0
  1  2  2  0  0  0  0
  2 14  1  0  0  0  0
  2  3  1  0  0  0  0
  3  4  2  0  0  0  0
  4  5  1  0  0  0  0
  5 12  2  0  0  0  0
  5  6  1  0  0  0  0
  6 11  1  0  0  0  0
  6  7  1  0  0  0  0
  7  8  1  0  0  0  0
  7 15  1  0  0  0  0
  7 16  1  0  0  0  0
  8  9  1  0  0  0  0
  8 17  1  0  0  0  0
  8 18  1  0  0  0  0
  9 10  1  0  0  0  0
 10 11  1  0  0  0  0
 10 19  1  0  0  0  0
 10 20  1  0  0  0  0
 11 21  1  0  0  0  0
 11 22  1  0  0  0  0
 12 13  1  0  0  0  0
 12 14  1  0  0  0  0
 14 23  1  0  0  0  0
M  CHG  1  13  -1
M  END
> <s_m_source_file>
AV-unprocessed.smi

> <i_m_source_file_index>
2629

> <i_lp_mmshare_version>
43012

> <i_f3d_flags>
0

> <s_epik_input>
Tz1jMVtuSF1uYyhjKD1PKVtuSF0xKU4yW0NIMl1bQ0gyXU9bQ0gyXVtDSDJdMg==

> <s_epik_cmdline>
J2VwaWtfcHl0aG9uJywgJy1waCcsICc3LjAnLCAnLXRuJywgJzgnLCAnLW1hJywgJzIwMCcsICctbWV0YWxfYmluZGluZycsICctaW1hZScsICc8aW5maWxlLm1hZT4nLCAnLW9tYWUnLCAnPG91dGZpbGUubWFlPic=

> <r_lp_tautomer_probability>
1

> <r_epik_Ionization_Penalty>
0.519034

> <r_epik_Ionization_Penalty_Charging>
1.15035e-06

> <r_epik_Ionization_Penalty_Neutral>
0.519033

> <r_epik_State_Penalty>
0

> <r_epik_Charging_Adjusted_Penalty>
1.15035e-06

> <i_epik_Tot_Q>
-1

> <i_epik_Tot_abs_Q>
1

> <r_epik_Metal_State_Penalty>
8.21436e-06

> <b_epik_Metal_Only>
1

> <s_epik_pKa_notes>
Reset negative state penalty to 0 from Metal Processing

> <s_lp_Force_Field>
OPLS_2005

> <r_lp_Energy>
19.1466

> <b_lp_Chiralities_Consistent>
1

> <s_lp_Variant>
AV-unprocessed.smi:2629-2

> <Gold.Version>
5.8.1

> <Gold.Id.Protein>
6NUR|6NUR_protein|mol2

> <Gold.PLP.Fitness>
35.2769

> <Gold.PLP.PLP>
-26.3311

> <Gold.PLP.part.hbond>
-2.0000

> <Gold.PLP.part.metal>
0.0000

> <Gold.PLP.part.buried>
-3.2390

> <Gold.PLP.part.nonpolar>
-21.2497

> <Gold.PLP.part.repulsive>
0.1934

> <Gold.PLP.ligand.clash>
0.0000

> <Gold.PLP.ligand.torsion>
0.0440

> <Gold.PLP.Chemscore.Hbond>
3.0000

> <Gold.PLP.Chemscore.CHOScore>
0.0000

> <Gold.PLP.Chemscore.Metal>
0.0000

> <Gold.Chemscore.Hbonds>
donor molecule, donor type, donor heavy atom, donor atom, acceptor molecule, acceptor atom, score
      P1  H  6896  6907       L1     1  1.00
      P1  H  7997  8008       L1    13  2.00

> <Gold.PLP.Chemscore.Internal.Correction>
0.0338

> <Gold.Rescore>
     Score         DG    S(hbond)    S(metal)    S(lipo)     H(rot)  DE(clash)    DE(int)     intcor
     17.54     -17.58       2.00        0.00      46.33       0.00       0.02       0.02       ----

> <Gold.Chemscore.Fitness>
17.5364

> <Gold.Chemscore.DG>
-17.5770

> <Gold.Chemscore.ZeroCoef>
-5.4800

> <Gold.Chemscore.Hbond>
1.9991

> <Gold.Chemscore.Metal>
0.0000

> <Gold.Chemscore.Lipo>
46.3255

> <Gold.Chemscore.Internal_Hbond>
0.0000

> <Gold.Chemscore.DEClash>
0.0158

> <Gold.Chemscore.DEInternal>
0.0248

> <Gold.Chemscore.Rot>
0.0000

> <Gold.Chemscore.Internal.Correction>
   9.000000E+99

> <Gold.Chemscore.Hbonds>
donor molecule, donor type, donor heavy atom, donor atom, acceptor molecule, acceptor atom, score
      P1  H  6896  6907       L1     1  0.99
      P1  H  7997  8008       L1    13  0.78

> <Gold.Chemscore.Hbond.Weighted>
-6.6769

> <Gold.Chemscore.Metal.Weighted>
-0.0000

> <Gold.Chemscore.Lipo.Weighted>
-5.4201

> <Gold.Chemscore.Internal_Hbond.Weighted>
0.0000

> <Gold.Chemscore.DEClash.Weighted>
0.0158

> <Gold.Chemscore.DEInternal.Weighted>
0.0248

> <Gold.Chemscore.Rot.Weighted>
0.0000

> <Gold.Chemscore.Internal.Correction.Weighted>
   9.000000E+99

> <Gold.Protein.RotatedTorsions>
[ 6907 6896 6895 6894 ] final   44.90 input  -60.11 | X-H torsion
[ 7974 7965 7964 7962 ] final -177.25 input  175.53 | X-H torsion
[ 8008 7997 7996 7995 ] final  -94.77 input   59.86 | X-H torsion
[ 10167 10162 10161 10158 ] final  -44.50 input  -65.29 | X-H torsion
[ 10718 10713 10712 10709 ] final  162.81 input   66.30 | X-H torsion
[ 10763 10752 10751 10750 ] final -143.66 input  -60.55 | X-H torsion
[ 11005 11000 10999 10996 ] final  -51.89 input  -57.11 | X-H torsion

> <Gold.Protein.ActiveResidues>
 VAL166  LYS551  ARG553  GLY616  TRP617  ASP618  TYR619  PRO620  LYS621  CYS622 
 ASP623  PHE694  ASN695  SER759  ASP760  ASP761  ALA762  ILE779  LEU786  VAL792 
 PHE793  MET794  SER795  GLU796  ALA797  LYS798  CYS799  TRP800  GLU811  SER814 

> <Gold.Protein.RotatedAtoms>
  152.2381  134.8255  160.0463 H   0  0  0  0  0  0  0  0  0  0  0  0  # atno 6907 bound_to 6896
  151.8980  133.3526  159.3829 H   0  0  0  0  0  0  0  0  0  0  0  0  # atno 6908 bound_to 6896
  150.7045  134.4783  159.5502 H   0  0  0  0  0  0  0  0  0  0  0  0  # atno 6909 bound_to 6896
  144.7127  140.1048  143.6414 H   0  0  0  0  0  0  0  0  0  0  0  0  # atno 7974 bound_to 7965
  154.7527  140.0486  157.0907 H   0  0  0  0  0  0  0  0  0  0  0  0  # atno 8008 bound_to 7997
  155.0037  140.3127  155.4838 H   0  0  0  0  0  0  0  0  0  0  0  0  # atno 8009 bound_to 7997
  156.2888  140.2197  156.5148 H   0  0  0  0  0  0  0  0  0  0  0  0  # atno 8010 bound_to 7997
  140.6894  143.2927  151.3504 H   0  0  0  0  0  0  0  0  0  0  0  0  # atno 10167 bound_to 10162
  157.1174  131.0483  151.2430 H   0  0  0  0  0  0  0  0  0  0  0  0  # atno 10718 bound_to 10713
  154.8461  135.3462  154.6222 H   0  0  0  0  0  0  0  0  0  0  0  0  # atno 10763 bound_to 10752
  153.6831  135.6979  153.5116 H   0  0  0  0  0  0  0  0  0  0  0  0  # atno 10764 bound_to 10752
  153.2652  135.4310  155.0890 H   0  0  0  0  0  0  0  0  0  0  0  0  # atno 10765 bound_to 10752
  141.0895  133.6635  156.3944 H   0  0  0  0  0  0  0  0  0  0  0  0  # atno 11005 bound_to 11000
  145.9506  139.2731  143.1214 LP  0  0  0  0  0  0  0  0  0  0  0  0  # atno 17320 bound_to 7965
  145.9327  140.9037  143.0348 LP  0  0  0  0  0  0  0  0  0  0  0  0  # atno 17321 bound_to 7965
  139.6283  144.0771  152.2453 LP  0  0  0  0  0  0  0  0  0  0  0  0  # atno 17342 bound_to 10162
  140.0238  144.6133  150.7545 LP  0  0  0  0  0  0  0  0  0  0  0  0  # atno 17343 bound_to 10162
  157.4507  130.7596  149.7148 LP  0  0  0  0  0  0  0  0  0  0  0  0  # atno 17370 bound_to 10713
  155.9836  130.3999  150.3353 LP  0  0  0  0  0  0  0  0  0  0  0  0  # atno 17371 bound_to 10713
  140.5284  134.6236  157.5342 LP  0  0  0  0  0  0  0  0  0  0  0  0  # atno 17394 bound_to 11000
  139.9719  134.7279  156.0025 LP  0  0  0  0  0  0  0  0  0  0  0  0  # atno 17395 bound_to 11000

$$$$
