AV-unprocessed.smi:630|AV-procd|sdf|3117|dock1
  -GOLD-   22720 0 43D 1   1.00000     0.00000
 Structure written by MMmdl.
 37 38  0  0  0  0  0  0  0  0  1 V2000
  144.6419  137.5751  151.8065 N   0  0  0  0  0  0  0  0  0  0  0  0
  145.1048  136.3972  152.2338 C   0  0  0  0  0  0  0  0  0  0  0  0
  145.3757  136.1933  153.4156 O   0  0  0  0  0  0  0  0  0  0  0  0
  145.2926  135.2870  151.1819 C   0  0  2  0  0  0  0  0  0  0  0  0
  143.9506  135.0613  150.4441 C   0  0  0  0  0  0  0  0  0  0  0  0
  144.1121  134.3378  149.0971 C   0  0  0  0  0  0  0  0  0  0  0  0
  144.0726  132.8029  149.1729 C   0  0  0  0  0  0  0  0  0  0  0  0
  144.7546  132.1675  150.3958 C   0  0  0  0  0  0  0  0  0  0  0  0
  146.0759  132.8240  150.8281 C   0  0  0  0  0  0  0  0  0  0  0  0
  145.8877  133.9977  151.8182 C   0  0  1  0  0  0  0  0  0  0  0  0
  147.1819  134.3041  152.4346 N   0  0  0  0  0  0  0  0  0  0  0  0
  147.8585  133.5034  153.2717 C   0  0  0  0  0  0  0  0  0  0  0  0
  147.4782  132.3774  153.5932 O   0  0  0  0  0  0  0  0  0  0  0  0
  148.9870  134.0948  153.7008 N   0  0  0  0  0  0  0  0  0  0  0  0
  149.9551  133.5867  154.6061 C   0  0  0  0  0  0  0  0  0  0  0  0
  150.7119  134.3458  155.4072 N   0  0  0  0  0  0  0  0  0  0  0  0
  151.5790  133.5798  156.1902 C   0  0  0  0  0  0  0  0  0  0  0  0
  151.4676  132.2291  155.9717 C   0  0  0  0  0  0  0  0  0  0  0  0
  150.2621  131.8635  154.7664 S   0  0  0  0  0  0  0  0  0  0  0  0
  144.5019  138.3258  152.4673 H   0  0  0  0  0  0  0  0  0  0  0  0
  144.4299  137.7112  150.8290 H   0  0  0  0  0  0  0  0  0  0  0  0
  146.0131  135.6600  150.4512 H   0  0  0  0  0  0  0  0  0  0  0  0
  143.2342  134.5388  151.0796 H   0  0  0  0  0  0  0  0  0  0  0  0
  143.4986  136.0322  150.2333 H   0  0  0  0  0  0  0  0  0  0  0  0
  143.3169  134.6591  148.4236 H   0  0  0  0  0  0  0  0  0  0  0  0
  145.0374  134.6583  148.6173 H   0  0  0  0  0  0  0  0  0  0  0  0
  143.0337  132.4709  149.1547 H   0  0  0  0  0  0  0  0  0  0  0  0
  144.5223  132.4045  148.2627 H   0  0  0  0  0  0  0  0  0  0  0  0
  144.0625  132.1546  151.2387 H   0  0  0  0  0  0  0  0  0  0  0  0
  144.9400  131.1179  150.1651 H   0  0  0  0  0  0  0  0  0  0  0  0
  146.6672  132.0508  151.3212 H   0  0  0  0  0  0  0  0  0  0  0  0
  146.6608  133.1309  149.9600 H   0  0  0  0  0  0  0  0  0  0  0  0
  145.2061  133.6680  152.6051 H   0  0  0  0  0  0  0  0  0  0  0  0
  147.5777  135.2083  152.2242 H   0  0  0  0  0  0  0  0  0  0  0  0
  149.1688  135.0226  153.3483 H   0  0  0  0  0  0  0  0  0  0  0  0
  152.2439  134.0797  156.8789 H   0  0  0  0  0  0  0  0  0  0  0  0
  152.0195  131.4305  156.4447 H   0  0  0  0  0  0  0  0  0  0  0  0
  1  2  1  0  0  0  0
  1 20  1  0  0  0  0
  1 21  1  0  0  0  0
  2  3  2  0  0  0  0
  2  4  1  0  0  0  0
  4 10  1  0  0  0  0
  4  5  1  0  0  0  0
  4 22  1  0  0  0  0
  5  6  1  0  0  0  0
  5 23  1  0  0  0  0
  5 24  1  0  0  0  0
  6  7  1  0  0  0  0
  6 25  1  0  0  0  0
  6 26  1  0  0  0  0
  7  8  1  0  0  0  0
  7 27  1  0  0  0  0
  7 28  1  0  0  0  0
  8  9  1  0  0  0  0
  8 29  1  0  0  0  0
  8 30  1  0  0  0  0
  9 10  1  0  0  0  0
  9 31  1  0  0  0  0
  9 32  1  0  0  0  0
 10 11  1  0  0  0  0
 10 33  1  0  0  0  0
 11 12  1  0  0  0  0
 11 34  1  0  0  0  0
 12 13  2  0  0  0  0
 12 14  1  0  0  0  0
 14 15  1  0  0  0  0
 14 35  1  0  0  0  0
 15 19  1  0  0  0  0
 15 16  2  0  0  0  0
 16 17  1  0  0  0  0
 17 18  2  0  0  0  0
 17 36  1  0  0  0  0
 18 19  1  0  0  0  0
 18 37  1  0  0  0  0
M  END
> <s_m_source_file>
AV-unprocessed.smi

> <i_m_source_file_index>
630

> <i_lp_mmshare_version>
43012

> <i_f3d_flags>
0

> <s_epik_input>
W05IMl1DKD1PKVtDQEBIXTFbQ0gyXVtDSDJdW0NIMl1bQ0gyXVtDSDJdW0NASF0xW05IXUMoPU8pW05IXWMybltjSF1bY0hdczI=

> <s_epik_cmdline>
J2VwaWtfcHl0aG9uJywgJy1waCcsICc3LjAnLCAnLXRuJywgJzgnLCAnLW1hJywgJzIwMCcsICctbWV0YWxfYmluZGluZycsICctaW1hZScsICc8aW5maWxlLm1hZT4nLCAnLW9tYWUnLCAnPG91dGZpbGUubWFlPic=

> <r_lp_tautomer_probability>
0.999

> <r_epik_Ionization_Penalty>
0.000342689

> <r_epik_Ionization_Penalty_Charging>
0

> <r_epik_Ionization_Penalty_Neutral>
0.000342689

> <r_epik_State_Penalty>
0.000177984

> <r_epik_Charging_Adjusted_Penalty>
0.000177984

> <i_epik_Tot_Q>
0

> <i_epik_Tot_abs_Q>
0

> <r_epik_Metal_State_Penalty>
0.00743087

> <b_epik_Metal_Only>
0

> <s_lp_Force_Field>
OPLS_2005

> <r_lp_Energy>
11.5687

> <b_lp_Chiralities_Consistent>
1

> <s_lp_Variant>
AV-unprocessed.smi:630-1

> <Gold.Version>
5.8.1

> <Gold.Id.Protein>
6NUR|6NUR_protein|mol2

> <Gold.PLP.Fitness>
38.2813

> <Gold.PLP.PLP>
-29.9112

> <Gold.PLP.part.hbond>
-3.2905

> <Gold.PLP.part.metal>
0.0000

> <Gold.PLP.part.buried>
0.3675

> <Gold.PLP.part.nonpolar>
-28.0681

> <Gold.PLP.part.repulsive>
0.2628

> <Gold.PLP.ligand.clash>
0.0000

> <Gold.PLP.ligand.torsion>
0.2972

> <Gold.PLP.Chemscore.Hbond>
2.9570

> <Gold.PLP.Chemscore.CHOScore>
0.0000

> <Gold.PLP.Chemscore.Metal>
0.0000

> <Gold.Chemscore.Hbonds>
donor molecule, donor type, donor heavy atom, donor atom, acceptor molecule, acceptor atom, score
      L1  H     1    20       P1 10175  0.29
      L1  H     1    21       P1 10171  0.77
      L1  H    11    34       P1  7948  0.99
      L1  H    14    35       P1  7948  0.76

> <Gold.PLP.Chemscore.Internal.Correction>
0.0936

> <Gold.Rescore>
     Score         DG    S(hbond)    S(metal)    S(lipo)     H(rot)  DE(clash)    DE(int)     intcor
     15.27     -18.05       2.48        0.00      69.92       1.52       1.67       1.11       ----

> <Gold.Chemscore.Fitness>
15.2734

> <Gold.Chemscore.DG>
-18.0543

> <Gold.Chemscore.ZeroCoef>
-5.4800

> <Gold.Chemscore.Hbond>
2.4791

> <Gold.Chemscore.Metal>
0.0000

> <Gold.Chemscore.Lipo>
69.9248

> <Gold.Chemscore.Internal_Hbond>
0.0000

> <Gold.Chemscore.DEClash>
1.6744

> <Gold.Chemscore.DEInternal>
1.1064

> <Gold.Chemscore.Rot>
1.5184

> <Gold.Chemscore.Internal.Correction>
   9.000000E+99

> <Gold.Chemscore.Hbonds>
donor molecule, donor type, donor heavy atom, donor atom, acceptor molecule, acceptor atom, score
      L1  H     1    20       P1 10175  0.29
      L1  H     1    21       P1 10171  0.73
      L1  H    11    34       P1  7948  0.93
      L1  H    14    35       P1  7948  0.13

> <Gold.Chemscore.Hbond.Weighted>
-8.2802

> <Gold.Chemscore.Metal.Weighted>
-0.0000

> <Gold.Chemscore.Lipo.Weighted>
-8.1812

> <Gold.Chemscore.Internal_Hbond.Weighted>
0.0000

> <Gold.Chemscore.DEClash.Weighted>
1.6744

> <Gold.Chemscore.DEInternal.Weighted>
1.1064

> <Gold.Chemscore.Rot.Weighted>
3.8872

> <Gold.Chemscore.Internal.Correction.Weighted>
   9.000000E+99

> <Gold.Protein.RotatedTorsions>
[ 6907 6896 6895 6894 ] final  143.08 input  -60.11 | X-H torsion
[ 7974 7965 7964 7962 ] final   -2.48 input  175.53 | X-H torsion
[ 8008 7997 7996 7995 ] final -101.93 input   59.86 | X-H torsion
[ 10167 10162 10161 10158 ] final -164.55 input  -65.29 | X-H torsion
[ 10718 10713 10712 10709 ] final  -68.32 input   66.30 | X-H torsion
[ 10763 10752 10751 10750 ] final   35.63 input  -60.55 | X-H torsion
[ 11005 11000 10999 10996 ] final -137.76 input  -57.11 | X-H torsion

> <Gold.Protein.ActiveResidues>
 VAL166  LYS551  ARG553  GLY616  TRP617  ASP618  TYR619  PRO620  LYS621  CYS622 
 ASP623  PHE694  ASN695  SER759  ASP760  ASP761  ALA762  ILE779  LEU786  VAL792 
 PHE793  MET794  SER795  GLU796  ALA797  LYS798  CYS799  TRP800  GLU811  SER814 

> <Gold.Protein.RotatedAtoms>
  152.2108  133.4909  159.5108 H   0  0  0  0  0  0  0  0  0  0  0  0  # atno 6907 bound_to 6896
  150.6990  134.1470  159.4135 H   0  0  0  0  0  0  0  0  0  0  0  0  # atno 6908 bound_to 6896
  151.9389  135.0222  160.0585 H   0  0  0  0  0  0  0  0  0  0  0  0  # atno 6909 bound_to 6896
  146.2404  140.1577  142.8333 H   0  0  0  0  0  0  0  0  0  0  0  0  # atno 7974 bound_to 7965
  154.8495  140.0431  157.1594 H   0  0  0  0  0  0  0  0  0  0  0  0  # atno 8008 bound_to 7997
  154.8958  140.2993  155.5324 H   0  0  0  0  0  0  0  0  0  0  0  0  # atno 8009 bound_to 7997
  156.2995  140.2385  156.3980 H   0  0  0  0  0  0  0  0  0  0  0  0  # atno 8010 bound_to 7997
  139.6243  144.0564  152.1960 H   0  0  0  0  0  0  0  0  0  0  0  0  # atno 10167 bound_to 10162
  156.0511  130.4293  150.1984 H   0  0  0  0  0  0  0  0  0  0  0  0  # atno 10718 bound_to 10713
  153.0111  135.6328  154.1857 H   0  0  0  0  0  0  0  0  0  0  0  0  # atno 10763 bound_to 10752
  154.1599  135.2824  155.3113 H   0  0  0  0  0  0  0  0  0  0  0  0  # atno 10764 bound_to 10752
  154.5990  135.5593  153.7415 H   0  0  0  0  0  0  0  0  0  0  0  0  # atno 10765 bound_to 10752
  140.8681  134.2086  157.4668 H   0  0  0  0  0  0  0  0  0  0  0  0  # atno 11005 bound_to 11000
  145.0115  140.8718  143.5221 LP  0  0  0  0  0  0  0  0  0  0  0  0  # atno 17320 bound_to 7965
  145.1611  139.2458  143.5391 LP  0  0  0  0  0  0  0  0  0  0  0  0  # atno 17321 bound_to 7965
  140.0213  144.6151  150.7564 LP  0  0  0  0  0  0  0  0  0  0  0  0  # atno 17342 bound_to 10162
  140.7401  143.2800  151.3627 LP  0  0  0  0  0  0  0  0  0  0  0  0  # atno 17343 bound_to 10162
  157.0067  130.9938  151.3377 LP  0  0  0  0  0  0  0  0  0  0  0  0  # atno 17370 bound_to 10713
  157.5438  130.8137  149.8061 LP  0  0  0  0  0  0  0  0  0  0  0  0  # atno 17371 bound_to 10713
  139.8710  134.9761  156.4909 LP  0  0  0  0  0  0  0  0  0  0  0  0  # atno 17394 bound_to 11000
  140.8606  133.8063  155.9261 LP  0  0  0  0  0  0  0  0  0  0  0  0  # atno 17395 bound_to 11000

$$$$
