AV-unprocessed.smi:1560|AV-procd|sdf|6279|dock7
  -GOLD-   22720 6473D 1   1.00000     0.00000
 Structure written by MMmdl.
 46 47  0  0  0  0  0  0  0  0  2 V2000
  152.0636  144.3846  157.1498 C   0  0  0  0  0  0  0  0  0  0  0  0
  152.3177  143.9687  158.6105 C   0  0  0  0  0  0  0  0  0  0  0  0
  151.9449  142.4949  158.9687 C   0  0  1  0  0  0  0  0  0  0  0  0
  150.4082  142.3752  158.7824 C   0  0  0  0  0  0  0  0  0  0  0  0
  152.6363  141.5392  157.9427 C   0  0  0  0  0  0  0  0  0  0  0  0
  151.7247  140.9756  156.9472 N   0  0  0  0  0  0  0  0  0  0  0  0
  152.0821  140.2579  155.8711 C   0  0  0  0  0  0  0  0  0  0  0  0
  153.2533  140.0167  155.5755 O   0  0  0  0  0  0  0  0  0  0  0  0
  150.9358  139.7706  154.9753 C   0  0  0  0  0  0  0  0  0  0  0  0
  150.8684  138.3032  154.8841 N   0  0  0  0  0  0  0  0  0  0  0  0
  149.7014  137.6697  155.3472 C   0  0  0  0  0  0  0  0  0  0  0  0
  149.5536  136.3319  155.3012 C   0  0  0  0  0  0  0  0  0  0  0  0
  150.6442  135.5350  154.7528 C   0  0  0  0  0  0  0  0  0  0  0  0
  150.5292  134.3116  154.7082 O   0  0  0  0  0  0  0  0  0  0  0  0
  151.7538  136.1968  154.3109 N   0  5  0  0  0  0  0  0  0  0  0  0
  151.8896  137.5583  154.3623 C   0  0  0  0  0  0  0  0  0  0  0  0
  152.8995  138.1354  153.9570 O   0  0  0  0  0  0  0  0  0  0  0  0
  152.3283  142.1763  160.3736 N   0  0  0  0  0  0  0  0  0  0  0  0
  152.2688  143.3073  161.3083 C   0  0  0  0  0  0  0  0  0  0  0  0
  152.5317  142.8699  162.7590 C   0  0  0  0  0  0  0  0  0  0  0  0
  153.7941  142.2194  162.8418 O   0  0  0  0  0  0  0  0  0  0  0  0
  153.8758  141.0821  161.9916 C   0  0  0  0  0  0  0  0  0  0  0  0
  153.6238  141.5051  160.5342 C   0  0  0  0  0  0  0  0  0  0  0  0
  152.3487  145.4253  156.9959 H   0  0  0  0  0  0  0  0  0  0  0  0
  151.0122  144.2936  156.8779 H   0  0  0  0  0  0  0  0  0  0  0  0
  152.6445  143.7839  156.4506 H   0  0  0  0  0  0  0  0  0  0  0  0
  153.3738  144.1451  158.8154 H   0  0  0  0  0  0  0  0  0  0  0  0
  151.7950  144.6617  159.2699 H   0  0  0  0  0  0  0  0  0  0  0  0
  150.0722  142.8245  157.8473 H   0  0  0  0  0  0  0  0  0  0  0  0
  149.8651  142.8692  159.5886 H   0  0  0  0  0  0  0  0  0  0  0  0
  150.0798  141.3360  158.7584 H   0  0  0  0  0  0  0  0  0  0  0  0
  153.4639  142.0399  157.4396 H   0  0  0  0  0  0  0  0  0  0  0  0
  153.0789  140.6860  158.4553 H   0  0  0  0  0  0  0  0  0  0  0  0
  150.7384  141.1267  157.1016 H   0  0  0  0  0  0  0  0  0  0  0  0
  149.9845  140.1657  155.3371 H   0  0  0  0  0  0  0  0  0  0  0  0
  151.0708  140.2100  153.9861 H   0  0  0  0  0  0  0  0  0  0  0  0
  148.9399  138.3320  155.7323 H   0  0  0  0  0  0  0  0  0  0  0  0
  148.6498  135.8606  155.6586 H   0  0  0  0  0  0  0  0  0  0  0  0
  153.0051  144.0630  161.0357 H   0  0  0  0  0  0  0  0  0  0  0  0
  151.2943  143.7909  161.2772 H   0  0  0  0  0  0  0  0  0  0  0  0
  152.5338  143.7361  163.4209 H   0  0  0  0  0  0  0  0  0  0  0  0
  151.7442  142.2006  163.1089 H   0  0  0  0  0  0  0  0  0  0  0  0
  154.8644  140.6336  162.0907 H   0  0  0  0  0  0  0  0  0  0  0  0
  153.1501  140.3304  162.3059 H   0  0  0  0  0  0  0  0  0  0  0  0
  153.6794  140.6107  159.9162 H   0  0  0  0  0  0  0  0  0  0  0  0
  154.4338  142.1614  160.2166 H   0  0  0  0  0  0  0  0  0  0  0  0
  1  2  1  0  0  0  0
  1 24  1  0  0  0  0
  1 25  1  0  0  0  0
  1 26  1  0  0  0  0
  2  3  1  0  0  0  0
  2 27  1  0  0  0  0
  2 28  1  0  0  0  0
  3  4  1  0  0  0  0
  3  5  1  0  0  0  0
  3 18  1  0  0  0  0
  4 29  1  0  0  0  0
  4 30  1  0  0  0  0
  4 31  1  0  0  0  0
  5  6  1  0  0  0  0
  5 32  1  0  0  0  0
  5 33  1  0  0  0  0
  6  7  1  0  0  0  0
  6 34  1  0  0  0  0
  7  8  2  0  0  0  0
  7  9  1  0  0  0  0
  9 10  1  0  0  0  0
  9 35  1  0  0  0  0
  9 36  1  0  0  0  0
 10 16  1  0  0  0  0
 10 11  1  0  0  0  0
 11 12  2  0  0  0  0
 11 37  1  0  0  0  0
 12 13  1  0  0  0  0
 12 38  1  0  0  0  0
 13 14  2  0  0  0  0
 13 15  1  0  0  0  0
 15 16  1  0  0  0  0
 16 17  2  0  0  0  0
 18 23  1  0  0  0  0
 18 19  1  0  0  0  0
 19 20  1  0  0  0  0
 19 39  1  0  0  0  0
 19 40  1  0  0  0  0
 20 21  1  0  0  0  0
 20 41  1  0  0  0  0
 20 42  1  0  0  0  0
 21 22  1  0  0  0  0
 22 23  1  0  0  0  0
 22 43  1  0  0  0  0
 22 44  1  0  0  0  0
 23 45  1  0  0  0  0
 23 46  1  0  0  0  0
M  CHG  1  15  -1
M  END
> <s_m_source_file>
AV-unprocessed.smi

> <i_m_source_file_index>
1560

> <i_lp_mmshare_version>
43012

> <i_f3d_flags>
0

> <s_epik_input>
W0NIMl0xW0NIMl1PW0NIMl1bQ0gyXU4xW0NAQF0oW0NIM10pKFtDSDJdW0NIM10pW0NIMl1bTkhdQyg9TylbQ0gyXW4yW2NIXVtjSF1jKD1PKVtuSF1jMj1P

> <s_epik_cmdline>
J2VwaWtfcHl0aG9uJywgJy1waCcsICc3LjAnLCAnLXRuJywgJzgnLCAnLW1hJywgJzIwMCcsICctbWV0YWxfYmluZGluZycsICctaW1hZScsICc8aW5maWxlLm1hZT4nLCAnLW9tYWUnLCAnPG91dGZpbGUubWFlPic=

> <r_lp_tautomer_probability>
0.999537

> <r_epik_Ionization_Penalty>
3.35108

> <r_epik_Ionization_Penalty_Charging>
2.65778e-08

> <r_epik_Ionization_Penalty_Neutral>
3.35108

> <r_epik_State_Penalty>
3.36199

> <r_epik_Charging_Adjusted_Penalty>
3.36199

> <i_epik_Tot_Q>
-1

> <i_epik_Tot_abs_Q>
1

> <r_epik_Metal_State_Penalty>
0.748914

> <b_epik_Metal_Only>
1

> <s_lp_Force_Field>
OPLS_2005

> <r_lp_Energy>
51.7621

> <b_lp_Chiralities_Consistent>
1

> <s_lp_Variant>
AV-unprocessed.smi:1560-5

> <Gold.Version>
5.8.1

> <Gold.Id.Protein>
6NUR|6NUR_protein|mol2

> <Gold.PLP.Fitness>
39.8759

> <Gold.PLP.PLP>
-38.5675

> <Gold.PLP.part.hbond>
-3.4865

> <Gold.PLP.part.metal>
0.0000

> <Gold.PLP.part.buried>
-1.5649

> <Gold.PLP.part.nonpolar>
-32.5835

> <Gold.PLP.part.repulsive>
0.5465

> <Gold.PLP.ligand.clash>
3.3224

> <Gold.PLP.ligand.torsion>
2.2719

> <Gold.PLP.Chemscore.Hbond>
3.0000

> <Gold.PLP.Chemscore.CHOScore>
0.0000

> <Gold.PLP.Chemscore.Metal>
0.0000

> <Gold.Chemscore.Hbonds>
donor molecule, donor type, donor heavy atom, donor atom, acceptor molecule, acceptor atom, score
      P1  H  7997  8008       L1     8  0.26
      P1  H 10752 10764       L1    15  1.22

> <Gold.PLP.Chemscore.Internal.Correction>
0.1745

> <Gold.Rescore>
     Score         DG    S(hbond)    S(metal)    S(lipo)     H(rot)  DE(clash)    DE(int)     intcor
     10.04     -15.68       1.36        0.00     101.41       2.42       1.69       3.95       ----

> <Gold.Chemscore.Fitness>
10.0378

> <Gold.Chemscore.DG>
-15.6805

> <Gold.Chemscore.ZeroCoef>
-5.4800

> <Gold.Chemscore.Hbond>
1.3563

> <Gold.Chemscore.Metal>
0.0000

> <Gold.Chemscore.Lipo>
101.4091

> <Gold.Chemscore.Internal_Hbond>
0.0000

> <Gold.Chemscore.DEClash>
1.6893

> <Gold.Chemscore.DEInternal>
3.9534

> <Gold.Chemscore.Rot>
2.4197

> <Gold.Chemscore.Internal.Correction>
   9.000000E+99

> <Gold.Chemscore.Hbonds>
donor molecule, donor type, donor heavy atom, donor atom, acceptor molecule, acceptor atom, score
      P1  H  7997  8008       L1     8  0.25
      P1  H 10752 10764       L1    15  0.37

> <Gold.Chemscore.Hbond.Weighted>
-4.5299

> <Gold.Chemscore.Metal.Weighted>
-0.0000

> <Gold.Chemscore.Lipo.Weighted>
-11.8649

> <Gold.Chemscore.Internal_Hbond.Weighted>
0.0000

> <Gold.Chemscore.DEClash.Weighted>
1.6893

> <Gold.Chemscore.DEInternal.Weighted>
3.9534

> <Gold.Chemscore.Rot.Weighted>
6.1943

> <Gold.Chemscore.Internal.Correction.Weighted>
   9.000000E+99

> <Gold.Protein.RotatedTorsions>
[ 6907 6896 6895 6894 ] final  -30.39 input  -60.11 | X-H torsion
[ 7974 7965 7964 7962 ] final   10.19 input  175.53 | X-H torsion
[ 8008 7997 7996 7995 ] final  -25.09 input   59.86 | X-H torsion
[ 10167 10162 10161 10158 ] final  167.56 input  -65.29 | X-H torsion
[ 10718 10713 10712 10709 ] final  -35.77 input   66.30 | X-H torsion
[ 10763 10752 10751 10750 ] final  -46.85 input  -60.55 | X-H torsion
[ 11005 11000 10999 10996 ] final  -63.45 input  -57.11 | X-H torsion

> <Gold.Protein.ActiveResidues>
 VAL166  LYS551  ARG553  GLY616  TRP617  ASP618  TYR619  PRO620  LYS621  CYS622 
 ASP623  PHE694  ASN695  SER759  ASP760  ASP761  ALA762  ILE779  LEU786  VAL792 
 PHE793  MET794  SER795  GLU796  ALA797  LYS798  CYS799  TRP800  GLU811  SER814 

> <Gold.Protein.RotatedAtoms>
  151.1062  135.0001  159.8472 H   0  0  0  0  0  0  0  0  0  0  0  0  # atno 6907 bound_to 6896
  152.5440  134.1890  159.8676 H   0  0  0  0  0  0  0  0  0  0  0  0  # atno 6908 bound_to 6896
  151.1937  133.4607  159.2628 H   0  0  0  0  0  0  0  0  0  0  0  0  # atno 6909 bound_to 6896
  146.2392  139.9671  142.8451 H   0  0  0  0  0  0  0  0  0  0  0  0  # atno 7974 bound_to 7965
  154.4494  140.1936  156.0566 H   0  0  0  0  0  0  0  0  0  0  0  0  # atno 8008 bound_to 7997
  156.0614  140.3296  155.7439 H   0  0  0  0  0  0  0  0  0  0  0  0  # atno 8009 bound_to 7997
  155.5405  140.0586  157.2862 H   0  0  0  0  0  0  0  0  0  0  0  0  # atno 8010 bound_to 7997
  139.4948  144.3908  151.9519 H   0  0  0  0  0  0  0  0  0  0  0  0  # atno 10167 bound_to 10162
  156.3347  130.4284  149.7841 H   0  0  0  0  0  0  0  0  0  0  0  0  # atno 10718 bound_to 10713
  154.0518  135.6630  153.4801 H   0  0  0  0  0  0  0  0  0  0  0  0  # atno 10763 bound_to 10752
  153.0461  135.5114  154.7744 H   0  0  0  0  0  0  0  0  0  0  0  0  # atno 10764 bound_to 10752
  154.6752  135.3036  154.9654 H   0  0  0  0  0  0  0  0  0  0  0  0  # atno 10765 bound_to 10752
  141.1393  133.6652  156.5681 H   0  0  0  0  0  0  0  0  0  0  0  0  # atno 11005 bound_to 11000
  145.1716  140.9723  143.4318 LP  0  0  0  0  0  0  0  0  0  0  0  0  # atno 17320 bound_to 7965
  145.0023  139.3586  143.6161 LP  0  0  0  0  0  0  0  0  0  0  0  0  # atno 17321 bound_to 7965
  140.3346  144.3276  150.5980 LP  0  0  0  0  0  0  0  0  0  0  0  0  # atno 17342 bound_to 10162
  140.5617  143.2191  151.7754 LP  0  0  0  0  0  0  0  0  0  0  0  0  # atno 17343 bound_to 10162
  156.5100  130.8167  151.3165 LP  0  0  0  0  0  0  0  0  0  0  0  0  # atno 17370 bound_to 10713
  157.7436  130.9917  150.2610 LP  0  0  0  0  0  0  0  0  0  0  0  0  # atno 17371 bound_to 10713
  140.3934  134.7420  157.4736 LP  0  0  0  0  0  0  0  0  0  0  0  0  # atno 17394 bound_to 11000
  140.0549  134.6078  155.8817 LP  0  0  0  0  0  0  0  0  0  0  0  0  # atno 17395 bound_to 11000

$$$$
