AV-unprocessed.smi:36|AV-procd|sdf|299|dock8
  -GOLD-   2262016103D 1   1.00000     0.00000
 Structure written by MMmdl.
 63 66  0  0  0  0  0  0  0  0  2 V2000
  148.1460  136.4780  160.6829 C   0  0  0  0  0  0  0  0  0  0  0  0
  146.9826  136.1208  161.6226 C   0  0  0  0  0  0  0  0  0  0  0  0
  147.4665  136.1620  163.0820 C   0  0  0  0  0  0  0  0  0  0  0  0
  145.8269  137.1158  161.4264 C   0  0  0  0  0  0  0  0  0  0  0  0
  146.3737  134.3550  161.2210 Si  0  0  0  0  0  0  0  0  0  0  0  0
  147.6591  133.0602  161.7585 C   0  0  0  0  0  0  0  0  0  0  0  0
  144.7159  133.9900  162.0732 C   0  0  0  0  0  0  0  0  0  0  0  0
  146.1324  134.2581  159.5465 O   0  0  0  0  0  0  0  0  0  0  0  0
  146.9440  133.5113  158.6611 C   0  0  0  0  0  0  0  0  0  0  0  0
  147.6356  134.4731  157.6830 C   0  0  2  0  0  0  0  0  0  0  0  0
  146.7902  135.5606  157.3337 O   0  0  0  0  0  0  0  0  0  0  0  0
  147.3361  136.2120  156.2277 C   0  0  1  0  0  0  0  0  0  0  0  0
  148.2458  137.3005  156.7169 N   0  0  0  0  0  0  0  0  0  0  0  0
  148.4458  137.7430  157.9773 C   0  0  0  0  0  0  0  0  0  0  0  0
  149.2969  138.7524  158.1476 N   0  0  0  0  0  0  0  0  0  0  0  0
  149.6812  139.0165  156.8415 C   0  0  0  0  0  0  0  0  0  0  0  0
  150.5615  139.9800  156.2777 C   0  0  0  0  0  0  0  0  0  0  0  0
  151.2337  140.8709  157.0223 N   0  5  0  0  0  0  0  0  0  0  0  0
  152.1873  140.4429  157.8883 C   0  0  0  0  0  0  0  0  0  0  0  0
  152.8726  139.4205  157.8157 O   0  0  0  0  0  0  0  0  0  0  0  0
  152.3334  141.3286  159.0963 C   0  0  0  0  0  0  0  0  0  0  0  0
  153.1138  140.8941  160.1919 C   0  0  0  0  0  0  0  0  0  0  0  0
  153.2821  141.7170  161.3225 C   0  0  0  0  0  0  0  0  0  0  0  0
  152.6799  142.9882  161.3650 C   0  0  0  0  0  0  0  0  0  0  0  0
  151.9129  143.4379  160.2739 C   0  0  0  0  0  0  0  0  0  0  0  0
  151.7430  142.6150  159.1433 C   0  0  0  0  0  0  0  0  0  0  0  0
  150.7148  139.9578  154.9287 N   0  0  0  0  0  0  0  0  0  0  0  0
  150.0411  139.0712  154.1861 C   0  0  0  0  0  0  0  0  0  0  0  0
  149.1821  138.1252  154.5787 N   0  0  0  0  0  0  0  0  0  0  0  0
  149.0320  138.1289  155.9352 C   0  0  0  0  0  0  0  0  0  0  0  0
  148.1307  135.1504  155.4430 C   0  0  0  0  0  0  0  0  0  0  0  0
  148.0240  133.9047  156.3152 C   0  0  2  0  0  0  0  0  0  0  0  0
  147.0364  133.0248  155.8119 O   0  0  0  0  0  0  0  0  0  0  0  0
  148.5352  137.4745  160.8947 H   0  0  0  0  0  0  0  0  0  0  0  0
  147.8341  136.4630  159.6385 H   0  0  0  0  0  0  0  0  0  0  0  0
  148.9712  135.7731  160.7899 H   0  0  0  0  0  0  0  0  0  0  0  0
  148.2838  135.4592  163.2465 H   0  0  0  0  0  0  0  0  0  0  0  0
  146.6667  135.9042  163.7767 H   0  0  0  0  0  0  0  0  0  0  0  0
  147.8278  137.1546  163.3532 H   0  0  0  0  0  0  0  0  0  0  0  0
  146.1409  138.1363  161.6484 H   0  0  0  0  0  0  0  0  0  0  0  0
  144.9856  136.8821  162.0796 H   0  0  0  0  0  0  0  0  0  0  0  0
  145.4605  137.1017  160.3996 H   0  0  0  0  0  0  0  0  0  0  0  0
  147.8080  133.0707  162.8379 H   0  0  0  0  0  0  0  0  0  0  0  0
  148.6308  133.2393  161.2985 H   0  0  0  0  0  0  0  0  0  0  0  0
  147.3503  132.0513  161.4864 H   0  0  0  0  0  0  0  0  0  0  0  0
  144.8002  134.0542  163.1578 H   0  0  0  0  0  0  0  0  0  0  0  0
  144.3561  132.9893  161.8349 H   0  0  0  0  0  0  0  0  0  0  0  0
  143.9431  134.6934  161.7645 H   0  0  0  0  0  0  0  0  0  0  0  0
  147.6852  132.9541  159.2352 H   0  0  0  0  0  0  0  0  0  0  0  0
  146.3292  132.7832  158.1314 H   0  0  0  0  0  0  0  0  0  0  0  0
  148.5380  134.8710  158.1455 H   0  0  0  0  0  0  0  0  0  0  0  0
  146.5759  136.7316  155.6437 H   0  0  0  0  0  0  0  0  0  0  0  0
  147.9415  137.3003  158.8232 H   0  0  0  0  0  0  0  0  0  0  0  0
  153.5839  139.9213  160.1738 H   0  0  0  0  0  0  0  0  0  0  0  0
  153.8748  141.3719  162.1567 H   0  0  0  0  0  0  0  0  0  0  0  0
  152.8095  143.6194  162.2315 H   0  0  0  0  0  0  0  0  0  0  0  0
  151.4560  144.4162  160.3016 H   0  0  0  0  0  0  0  0  0  0  0  0
  151.1591  142.9823  158.3115 H   0  0  0  0  0  0  0  0  0  0  0  0
  150.2174  139.1270  153.1222 H   0  0  0  0  0  0  0  0  0  0  0  0
  147.7028  135.0130  154.4491 H   0  0  0  0  0  0  0  0  0  0  0  0
  149.1711  135.4569  155.3277 H   0  0  0  0  0  0  0  0  0  0  0  0
  148.9699  133.3643  156.3633 H   0  0  0  0  0  0  0  0  0  0  0  0
  147.4519  132.2111  155.5707 H   0  0  0  0  0  0  0  0  0  0  0  0
  1  2  1  0  0  0  0
  1 34  1  0  0  0  0
  1 35  1  0  0  0  0
  1 36  1  0  0  0  0
  2  3  1  0  0  0  0
  2  4  1  0  0  0  0
  2  5  1  0  0  0  0
  3 37  1  0  0  0  0
  3 38  1  0  0  0  0
  3 39  1  0  0  0  0
  4 40  1  0  0  0  0
  4 41  1  0  0  0  0
  4 42  1  0  0  0  0
  5  6  1  0  0  0  0
  5  7  1  0  0  0  0
  5  8  1  0  0  0  0
  6 43  1  0  0  0  0
  6 44  1  0  0  0  0
  6 45  1  0  0  0  0
  7 46  1  0  0  0  0
  7 47  1  0  0  0  0
  7 48  1  0  0  0  0
  8  9  1  0  0  0  0
  9 10  1  0  0  0  0
  9 49  1  0  0  0  0
  9 50  1  0  0  0  0
 10 32  1  0  0  0  0
 10 11  1  0  0  0  0
 10 51  1  0  0  0  0
 11 12  1  0  0  0  0
 12 13  1  0  0  0  0
 12 31  1  0  0  0  0
 12 52  1  0  0  0  0
 13 30  1  0  0  0  0
 13 14  1  0  0  0  0
 14 15  2  0  0  0  0
 14 53  1  0  0  0  0
 15 16  1  0  0  0  0
 16 30  2  0  0  0  0
 16 17  1  0  0  0  0
 17 18  1  0  0  0  0
 17 27  2  0  0  0  0
 18 19  1  0  0  0  0
 19 20  2  0  0  0  0
 19 21  1  0  0  0  0
 21 26  1  0  0  0  0
 21 22  2  0  0  0  0
 22 23  1  0  0  0  0
 22 54  1  0  0  0  0
 23 24  2  0  0  0  0
 23 55  1  0  0  0  0
 24 25  1  0  0  0  0
 24 56  1  0  0  0  0
 25 26  2  0  0  0  0
 25 57  1  0  0  0  0
 26 58  1  0  0  0  0
 27 28  1  0  0  0  0
 28 29  2  0  0  0  0
 28 59  1  0  0  0  0
 29 30  1  0  0  0  0
 31 32  1  0  0  0  0
 31 60  1  0  0  0  0
 31 61  1  0  0  0  0
 32 33  1  0  0  0  0
 32 62  1  0  0  0  0
 33 63  1  0  0  0  0
M  CHG  1  18  -1
M  END
> <s_m_source_file>
AV-unprocessed.smi

> <i_m_source_file_index>
36

> <i_lp_mmshare_version>
43012

> <i_f3d_flags>
0

> <s_epik_input>
W0NIM11DKFtDSDNdKShbQ0gzXSlbU2ldKFtDSDNdKShbQ0gzXSlPW0NIMl1bQ0BASF0xT1tDQEhdKFtDSDJdW0NASF0xW09IXSluKFtjSF1uMiljKGMyMyluW2NIXW5jM1tOSF1DKD1PKWM0W2NIXVtjSF1bY0hdW2NIXVtjSF00

> <s_epik_cmdline>
J2VwaWtfcHl0aG9uJywgJy1waCcsICc3LjAnLCAnLXRuJywgJzgnLCAnLW1hJywgJzIwMCcsICctbWV0YWxfYmluZGluZycsICctaW1hZScsICc8aW5maWxlLm1hZT4nLCAnLW9tYWUnLCAnPG91dGZpbGUubWFlPic=

> <r_lp_tautomer_probability>
1

> <r_epik_Ionization_Penalty>
4.75685

> <r_epik_Ionization_Penalty_Charging>
3.55822

> <r_epik_Ionization_Penalty_Neutral>
1.19863

> <r_epik_State_Penalty>
3.564

> <r_epik_Charging_Adjusted_Penalty>
7.12222

> <i_epik_Tot_Q>
-1

> <i_epik_Tot_abs_Q>
1

> <r_epik_Metal_State_Penalty>
0.523258

> <b_epik_Metal_Only>
1

> <s_epik_Chemistry_Notes>
This compound contains an acetal/aminal-like group ( X-CH(R)-Y where X, Y are N, S, or O) that may be acid/base labile, releasing an aldehyde.

> <s_lp_Force_Field>
OPLS_2005

> <r_lp_Energy>
31.8214

> <b_lp_Chiralities_Consistent>
1

> <s_lp_Variant>
AV-unprocessed.smi:36-21

> <Gold.Version>
5.8.1

> <Gold.Id.Protein>
6NUR|6NUR_protein|mol2

> <Gold.PLP.Fitness>
50.6784

> <Gold.PLP.PLP>
-47.0816

> <Gold.PLP.part.hbond>
-2.0000

> <Gold.PLP.part.metal>
0.0000

> <Gold.PLP.part.buried>
-5.8337

> <Gold.PLP.part.nonpolar>
-40.4156

> <Gold.PLP.part.repulsive>
0.2459

> <Gold.PLP.ligand.clash>
0.0000

> <Gold.PLP.ligand.torsion>
2.8767

> <Gold.PLP.Chemscore.Hbond>
2.0000

> <Gold.PLP.Chemscore.CHOScore>
1.0000

> <Gold.PLP.Chemscore.Metal>
0.0000

> <Gold.Chemscore.Hbonds>
donor molecule, donor type, donor heavy atom, donor atom, acceptor molecule, acceptor atom, score
      P1  H  7989  7998       L1    27  0.90
      P1  H  7997  8009       L1    20  0.98
      L1  C    28    59       P1  7957  1.00

> <Gold.PLP.Chemscore.Internal.Correction>
0.3503

> <Gold.Rescore>
     Score         DG    S(hbond)    S(metal)    S(lipo)     H(rot)  DE(clash)    DE(int)     intcor
     14.87     -17.70       1.54        0.00     118.97       2.67       0.11       2.72       ----

> <Gold.Chemscore.Fitness>
14.8707

> <Gold.Chemscore.DG>
-17.7047

> <Gold.Chemscore.ZeroCoef>
-5.4800

> <Gold.Chemscore.Hbond>
1.5391

> <Gold.Chemscore.Metal>
0.0000

> <Gold.Chemscore.Lipo>
118.9719

> <Gold.Chemscore.Internal_Hbond>
0.0000

> <Gold.Chemscore.DEClash>
0.1096

> <Gold.Chemscore.DEInternal>
2.7244

> <Gold.Chemscore.Rot>
2.6702

> <Gold.Chemscore.Internal.Correction>
   9.000000E+99

> <Gold.Chemscore.Hbonds>
donor molecule, donor type, donor heavy atom, donor atom, acceptor molecule, acceptor atom, score
      P1  H  7989  7998       L1    27  0.18
      P1  H  7997  8009       L1    20  0.48

> <Gold.Chemscore.Hbond.Weighted>
-5.1408

> <Gold.Chemscore.Metal.Weighted>
-0.0000

> <Gold.Chemscore.Lipo.Weighted>
-13.9197

> <Gold.Chemscore.Internal_Hbond.Weighted>
0.0000

> <Gold.Chemscore.DEClash.Weighted>
0.1096

> <Gold.Chemscore.DEInternal.Weighted>
2.7244

> <Gold.Chemscore.Rot.Weighted>
6.8358

> <Gold.Chemscore.Internal.Correction.Weighted>
   9.000000E+99

> <Gold.Protein.RotatedTorsions>
[ 6907 6896 6895 6894 ] final  160.08 input  -60.11 | X-H torsion
[ 7974 7965 7964 7962 ] final  -21.94 input  175.53 | X-H torsion
[ 8008 7997 7996 7995 ] final  145.04 input   59.86 | X-H torsion
[ 10167 10162 10161 10158 ] final  -38.89 input  -65.29 | X-H torsion
[ 10718 10713 10712 10709 ] final -154.75 input   66.30 | X-H torsion
[ 10763 10752 10751 10750 ] final   41.15 input  -60.55 | X-H torsion
[ 11005 11000 10999 10996 ] final  -76.63 input  -57.11 | X-H torsion

> <Gold.Protein.ActiveResidues>
 VAL166  LYS551  ARG553  GLY616  TRP617  ASP618  TYR619  PRO620  LYS621  CYS622 
 ASP623  PHE694  ASN695  SER759  ASP760  ASP761  ALA762  ILE779  LEU786  VAL792 
 PHE793  MET794  SER795  GLU796  ALA797  LYS798  CYS799  TRP800  GLU811  SER814 

> <Gold.Protein.RotatedAtoms>
  151.9760  133.3741  159.4088 H   0  0  0  0  0  0  0  0  0  0  0  0  # atno 6907 bound_to 6896
  150.6942  134.4090  159.5162 H   0  0  0  0  0  0  0  0  0  0  0  0  # atno 6908 bound_to 6896
  152.1801  134.8761  160.0578 H   0  0  0  0  0  0  0  0  0  0  0  0  # atno 6909 bound_to 6896
  146.1704  140.4411  142.8535 H   0  0  0  0  0  0  0  0  0  0  0  0  # atno 7974 bound_to 7965
  156.2893  140.2220  156.5150 H   0  0  0  0  0  0  0  0  0  0  0  0  # atno 8008 bound_to 7997
  154.7577  140.0475  157.0968 H   0  0  0  0  0  0  0  0  0  0  0  0  # atno 8009 bound_to 7997
  155.0031  140.3104  155.4863 H   0  0  0  0  0  0  0  0  0  0  0  0  # atno 8010 bound_to 7997
  140.7079  143.3249  151.2705 H   0  0  0  0  0  0  0  0  0  0  0  0  # atno 10167 bound_to 10162
  156.5035  130.8402  151.2618 H   0  0  0  0  0  0  0  0  0  0  0  0  # atno 10718 bound_to 10713
  152.9916  135.6170  154.2740 H   0  0  0  0  0  0  0  0  0  0  0  0  # atno 10763 bound_to 10752
  154.2472  135.2786  155.2832 H   0  0  0  0  0  0  0  0  0  0  0  0  # atno 10764 bound_to 10752
  154.5319  135.5786  153.6823 H   0  0  0  0  0  0  0  0  0  0  0  0  # atno 10765 bound_to 10752
  141.1655  133.6991  156.7698 H   0  0  0  0  0  0  0  0  0  0  0  0  # atno 11005 bound_to 11000
  144.8154  140.6459  143.6387 LP  0  0  0  0  0  0  0  0  0  0  0  0  # atno 17320 bound_to 7965
  145.4355  139.1543  143.3999 LP  0  0  0  0  0  0  0  0  0  0  0  0  # atno 17321 bound_to 7965
  139.6714  144.0014  152.2755 LP  0  0  0  0  0  0  0  0  0  0  0  0  # atno 17342 bound_to 10162
  139.9614  144.6555  150.8076 LP  0  0  0  0  0  0  0  0  0  0  0  0  # atno 17343 bound_to 10162
  157.7460  130.9974  150.2813 LP  0  0  0  0  0  0  0  0  0  0  0  0  # atno 17370 bound_to 10713
  156.3310  130.3800  149.7491 LP  0  0  0  0  0  0  0  0  0  0  0  0  # atno 17371 bound_to 10713
  140.2473  134.8568  157.3632 LP  0  0  0  0  0  0  0  0  0  0  0  0  # atno 17394 bound_to 11000
  140.1737  134.4576  155.7815 LP  0  0  0  0  0  0  0  0  0  0  0  0  # atno 17395 bound_to 11000

$$$$
