AV-unprocessed.smi:327|AV-procd|sdf|2346|dock8
  -GOLD-   2262022253D 1   1.00000     0.00000
 Structure written by MMmdl.
 47 48  0  0  0  0  0  0  0  0  1 V2000
  145.7007  143.2503  160.8644 C   0  0  0  0  0  0  0  0  0  0  0  0
  145.8658  142.3418  159.7903 O   0  0  0  0  0  0  0  0  0  0  0  0
  146.5730  142.9101  158.7004 C   0  0  0  0  0  0  0  0  0  0  0  0
  145.8533  142.5841  157.3816 C   0  0  0  0  0  0  0  0  0  0  0  0
  146.7927  142.1587  156.3376 N   0  0  0  0  0  0  0  0  0  0  0  0
  148.0997  142.0307  156.7783 N   0  0  0  0  0  0  0  0  0  0  0  0
  149.0323  141.6730  155.9554 C   0  0  0  0  0  0  0  0  0  0  0  0
  150.4510  141.5376  156.3875 C   0  0  0  0  0  0  0  0  0  0  0  0
  151.3016  141.0065  155.6715 O   0  0  0  0  0  0  0  0  0  0  0  0
  150.7309  142.0434  157.6026 N   0  0  0  0  0  0  0  0  0  0  0  0
  152.0460  142.0714  158.2380 C   0  0  0  0  0  0  0  0  0  0  0  0
  152.0234  141.1556  159.4814 C   0  0  0  0  0  0  0  0  0  0  0  0
  153.2470  141.2636  160.4135 C   0  0  0  0  0  0  0  0  0  0  0  0
  153.0022  142.0799  161.6993 C   0  0  0  0  0  0  0  0  0  0  0  0
  152.8108  143.6016  161.5351 C   0  0  0  0  0  0  0  0  0  0  0  0
  151.4976  144.0171  160.8412 C   0  0  0  0  0  0  0  0  0  0  0  0
  151.6324  144.4234  159.3610 C   0  0  0  0  0  0  0  0  0  0  0  0
  152.5156  143.5268  158.4703 C   0  0  0  0  0  0  0  0  0  0  0  0
  148.7281  141.3935  154.5623 C   0  0  0  0  0  0  0  0  0  0  0  0
  147.4500  141.5275  154.1457 C   0  0  0  0  0  0  0  0  0  0  0  0
  146.3778  141.9392  155.0532 C   0  0  0  0  0  0  0  0  0  0  0  0
  145.2095  142.0769  154.6921 O   0  0  0  0  0  0  0  0  0  0  0  0
  145.1469  142.7682  161.6697 H   0  0  0  0  0  0  0  0  0  0  0  0
  145.1409  144.1330  160.5523 H   0  0  0  0  0  0  0  0  0  0  0  0
  146.6647  143.5694  161.2629 H   0  0  0  0  0  0  0  0  0  0  0  0
  146.6668  143.9900  158.8265 H   0  0  0  0  0  0  0  0  0  0  0  0
  147.5833  142.4993  158.6723 H   0  0  0  0  0  0  0  0  0  0  0  0
  145.1365  141.7804  157.5585 H   0  0  0  0  0  0  0  0  0  0  0  0
  145.2521  143.4364  157.0607 H   0  0  0  0  0  0  0  0  0  0  0  0
  149.9706  142.4597  158.1208 H   0  0  0  0  0  0  0  0  0  0  0  0
  152.7644  141.6236  157.5488 H   0  0  0  0  0  0  0  0  0  0  0  0
  151.1045  141.2861  160.0512 H   0  0  0  0  0  0  0  0  0  0  0  0
  151.9678  140.1281  159.1192 H   0  0  0  0  0  0  0  0  0  0  0  0
  153.5066  140.2523  160.7285 H   0  0  0  0  0  0  0  0  0  0  0  0
  154.1268  141.6229  159.8800 H   0  0  0  0  0  0  0  0  0  0  0  0
  152.1499  141.6632  162.2373 H   0  0  0  0  0  0  0  0  0  0  0  0
  153.8594  141.9255  162.3556 H   0  0  0  0  0  0  0  0  0  0  0  0
  152.7972  144.0267  162.5393 H   0  0  0  0  0  0  0  0  0  0  0  0
  153.6760  144.0555  161.0520 H   0  0  0  0  0  0  0  0  0  0  0  0
  150.7391  143.2453  160.9621 H   0  0  0  0  0  0  0  0  0  0  0  0
  151.0897  144.8783  161.3719 H   0  0  0  0  0  0  0  0  0  0  0  0
  150.6378  144.5161  158.9234 H   0  0  0  0  0  0  0  0  0  0  0  0
  152.0558  145.4279  159.3294 H   0  0  0  0  0  0  0  0  0  0  0  0
  153.5414  143.5358  158.8348 H   0  0  0  0  0  0  0  0  0  0  0  0
  152.5840  144.0117  157.4957 H   0  0  0  0  0  0  0  0  0  0  0  0
  149.4991  141.0872  153.8701 H   0  0  0  0  0  0  0  0  0  0  0  0
  147.2101  141.3247  153.1123 H   0  0  0  0  0  0  0  0  0  0  0  0
  1  2  1  0  0  0  0
  1 23  1  0  0  0  0
  1 24  1  0  0  0  0
  1 25  1  0  0  0  0
  2  3  1  0  0  0  0
  3  4  1  0  0  0  0
  3 26  1  0  0  0  0
  3 27  1  0  0  0  0
  4  5  1  0  0  0  0
  4 28  1  0  0  0  0
  4 29  1  0  0  0  0
  5 21  1  0  0  0  0
  5  6  1  0  0  0  0
  6  7  2  0  0  0  0
  7  8  1  0  0  0  0
  7 19  1  0  0  0  0
  8  9  2  0  0  0  0
  8 10  1  0  0  0  0
 10 11  1  0  0  0  0
 10 30  1  0  0  0  0
 11 18  1  0  0  0  0
 11 12  1  0  0  0  0
 11 31  1  0  0  0  0
 12 13  1  0  0  0  0
 12 32  1  0  0  0  0
 12 33  1  0  0  0  0
 13 14  1  0  0  0  0
 13 34  1  0  0  0  0
 13 35  1  0  0  0  0
 14 15  1  0  0  0  0
 14 36  1  0  0  0  0
 14 37  1  0  0  0  0
 15 16  1  0  0  0  0
 15 38  1  0  0  0  0
 15 39  1  0  0  0  0
 16 17  1  0  0  0  0
 16 40  1  0  0  0  0
 16 41  1  0  0  0  0
 17 18  1  0  0  0  0
 17 42  1  0  0  0  0
 17 43  1  0  0  0  0
 18 44  1  0  0  0  0
 18 45  1  0  0  0  0
 19 20  2  0  0  0  0
 19 46  1  0  0  0  0
 20 21  1  0  0  0  0
 20 47  1  0  0  0  0
 21 22  2  0  0  0  0
M  END
> <s_m_source_file>
AV-unprocessed.smi

> <i_m_source_file_index>
327

> <i_lp_mmshare_version>
43012

> <i_f3d_flags>
0

> <s_epik_input>
W0NIM11PW0NIMl1bQ0gyXW4xbmMoW2NIXVtjSF1jMT1PKUMoPU8pW05IXVtDSF0yW0NIMl1bQ0gyXVtDSDJdW0NIMl1bQ0gyXVtDSDJdW0NIMl0y

> <s_epik_cmdline>
J2VwaWtfcHl0aG9uJywgJy1waCcsICc3LjAnLCAnLXRuJywgJzgnLCAnLW1hJywgJzIwMCcsICctbWV0YWxfYmluZGluZycsICctaW1hZScsICc8aW5maWxlLm1hZT4nLCAnLW9tYWUnLCAnPG91dGZpbGUubWFlPic=

> <r_lp_tautomer_probability>
1

> <r_epik_Ionization_Penalty>
5.81787e-07

> <r_epik_Ionization_Penalty_Charging>
6.75108e-09

> <r_epik_Ionization_Penalty_Neutral>
5.75036e-07

> <r_epik_State_Penalty>
-0

> <r_epik_Charging_Adjusted_Penalty>
6.75108e-09

> <i_epik_Tot_Q>
0

> <i_epik_Tot_abs_Q>
0

> <r_epik_Metal_State_Penalty>
-0

> <b_epik_Metal_Only>
0

> <s_lp_Force_Field>
OPLS_2005

> <r_lp_Energy>
41.0284

> <b_lp_Chiralities_Consistent>
1

> <s_lp_Variant>
AV-unprocessed.smi:327-1

> <Gold.Version>
5.8.1

> <Gold.Id.Protein>
6NUR|6NUR_protein|mol2

> <Gold.PLP.Fitness>
45.3381

> <Gold.PLP.PLP>
-42.6228

> <Gold.PLP.part.hbond>
-2.0000

> <Gold.PLP.part.metal>
0.0000

> <Gold.PLP.part.buried>
-5.1784

> <Gold.PLP.part.nonpolar>
-36.1363

> <Gold.PLP.part.repulsive>
1.3085

> <Gold.PLP.ligand.clash>
0.0000

> <Gold.PLP.ligand.torsion>
0.7604

> <Gold.PLP.Chemscore.Hbond>
1.3955

> <Gold.PLP.Chemscore.CHOScore>
0.0000

> <Gold.PLP.Chemscore.Metal>
0.0000

> <Gold.Chemscore.Hbonds>
donor molecule, donor type, donor heavy atom, donor atom, acceptor molecule, acceptor atom, score
      P1  H  6934  6946       L1     2  0.99
      P1  H  7989  7998       L1     9  0.39

> <Gold.PLP.Chemscore.Internal.Correction>
0.0498

> <Gold.Rescore>
     Score         DG    S(hbond)    S(metal)    S(lipo)     H(rot)  DE(clash)    DE(int)     intcor
     16.67     -18.85       1.18        0.00     114.05       1.53       1.36       0.81       ----

> <Gold.Chemscore.Fitness>
16.6708

> <Gold.Chemscore.DG>
-18.8472

> <Gold.Chemscore.ZeroCoef>
-5.4800

> <Gold.Chemscore.Hbond>
1.1783

> <Gold.Chemscore.Metal>
0.0000

> <Gold.Chemscore.Lipo>
114.0503

> <Gold.Chemscore.Internal_Hbond>
0.0000

> <Gold.Chemscore.DEClash>
1.3640

> <Gold.Chemscore.DEInternal>
0.8124

> <Gold.Chemscore.Rot>
1.5283

> <Gold.Chemscore.Internal.Correction>
   9.000000E+99

> <Gold.Chemscore.Hbonds>
donor molecule, donor type, donor heavy atom, donor atom, acceptor molecule, acceptor atom, score
      P1  H  6934  6946       L1     2  0.24
      P1  H  7989  7998       L1     9  0.37

> <Gold.Chemscore.Hbond.Weighted>
-3.9357

> <Gold.Chemscore.Metal.Weighted>
-0.0000

> <Gold.Chemscore.Lipo.Weighted>
-13.3439

> <Gold.Chemscore.Internal_Hbond.Weighted>
0.0000

> <Gold.Chemscore.DEClash.Weighted>
1.3640

> <Gold.Chemscore.DEInternal.Weighted>
0.8124

> <Gold.Chemscore.Rot.Weighted>
3.9124

> <Gold.Chemscore.Internal.Correction.Weighted>
   9.000000E+99

> <Gold.Protein.RotatedTorsions>
[ 6907 6896 6895 6894 ] final  178.64 input  -60.11 | X-H torsion
[ 7974 7965 7964 7962 ] final  -95.31 input  175.53 | X-H torsion
[ 8008 7997 7996 7995 ] final   34.05 input   59.86 | X-H torsion
[ 10167 10162 10161 10158 ] final   95.25 input  -65.29 | X-H torsion
[ 10718 10713 10712 10709 ] final  -75.40 input   66.30 | X-H torsion
[ 10763 10752 10751 10750 ] final -107.04 input  -60.55 | X-H torsion
[ 11005 11000 10999 10996 ] final  138.76 input  -57.11 | X-H torsion

> <Gold.Protein.ActiveResidues>
 VAL166  LYS551  ARG553  GLY616  TRP617  ASP618  TYR619  PRO620  LYS621  CYS622 
 ASP623  PHE694  ASN695  SER759  ASP760  ASP761  ALA762  ILE779  LEU786  VAL792 
 PHE793  MET794  SER795  GLU796  ALA797  LYS798  CYS799  TRP800  GLU811  SER814 

> <Gold.Protein.RotatedAtoms>
  151.6846  133.3311  159.3227 H   0  0  0  0  0  0  0  0  0  0  0  0  # atno 6907 bound_to 6896
  150.7807  134.6751  159.6422 H   0  0  0  0  0  0  0  0  0  0  0  0  # atno 6908 bound_to 6896
  152.3863  134.6515  160.0176 H   0  0  0  0  0  0  0  0  0  0  0  0  # atno 6909 bound_to 6896
  145.3617  140.9493  143.2497 H   0  0  0  0  0  0  0  0  0  0  0  0  # atno 7974 bound_to 7965
  155.1485  140.3272  155.4436 H   0  0  0  0  0  0  0  0  0  0  0  0  # atno 8008 bound_to 7997
  156.2582  140.1981  156.6548 H   0  0  0  0  0  0  0  0  0  0  0  0  # atno 8009 bound_to 7997
  154.6490  140.0561  156.9921 H   0  0  0  0  0  0  0  0  0  0  0  0  # atno 8010 bound_to 7997
  139.8006  144.6815  150.9770 H   0  0  0  0  0  0  0  0  0  0  0  0  # atno 10167 bound_to 10162
  156.0209  130.4440  150.3037 H   0  0  0  0  0  0  0  0  0  0  0  0  # atno 10718 bound_to 10713
  154.8050  135.4689  154.0371 H   0  0  0  0  0  0  0  0  0  0  0  0  # atno 10763 bound_to 10752
  153.1846  135.6846  153.8439 H   0  0  0  0  0  0  0  0  0  0  0  0  # atno 10764 bound_to 10752
  153.7977  135.3234  155.3364 H   0  0  0  0  0  0  0  0  0  0  0  0  # atno 10765 bound_to 10752
  140.0206  134.9398  157.0467 H   0  0  0  0  0  0  0  0  0  0  0  0  # atno 11005 bound_to 11000
  144.8641  139.5133  143.6798 LP  0  0  0  0  0  0  0  0  0  0  0  0  # atno 17320 bound_to 7965
  146.2924  139.7178  142.9151 LP  0  0  0  0  0  0  0  0  0  0  0  0  # atno 17321 bound_to 7965
  140.7820  143.4285  151.0730 LP  0  0  0  0  0  0  0  0  0  0  0  0  # atno 17342 bound_to 10162
  139.7957  143.8154  152.3157 LP  0  0  0  0  0  0  0  0  0  0  0  0  # atno 17343 bound_to 10162
  157.1140  131.0229  151.3036 LP  0  0  0  0  0  0  0  0  0  0  0  0  # atno 17370 bound_to 10713
  157.4682  130.7693  149.7298 LP  0  0  0  0  0  0  0  0  0  0  0  0  # atno 17371 bound_to 10713
  140.4393  134.1698  155.7173 LP  0  0  0  0  0  0  0  0  0  0  0  0  # atno 17394 bound_to 11000
  141.1771  133.8490  157.1383 LP  0  0  0  0  0  0  0  0  0  0  0  0  # atno 17395 bound_to 11000

$$$$
