AV-unprocessed.smi:2147|AV-procd|sdf|8744|dock10
  -GOLD-   2272011523D 1   1.00000     0.00000
 Structure written by MMmdl.
 42 44  0  0  0  0  0  0  0  0  2 V2000
  152.5567  130.1923  156.2429 C   0  0  0  0  0  0  0  0  0  0  0  0
  151.3732  131.0464  155.7914 C   0  0  0  0  0  0  0  0  0  0  0  0
  150.3773  130.4838  155.3369 O   0  0  0  0  0  0  0  0  0  0  0  0
  151.4912  132.5262  155.9282 C   0  0  0  0  0  0  0  0  0  0  0  0
  152.4253  133.1218  156.8071 C   0  0  0  0  0  0  0  0  0  0  0  0
  152.5136  134.5231  156.9118 C   0  0  0  0  0  0  0  0  0  0  0  0
  151.6788  135.3613  156.1472 C   0  0  0  0  0  0  0  0  0  0  0  0
  151.8358  136.7209  156.3114 O   0  0  0  0  0  0  0  0  0  0  0  0
  151.4837  137.5746  155.2307 C   0  0  0  0  0  0  0  0  0  0  0  0
  151.9300  139.0064  155.5617 C   0  0  2  0  0  0  0  0  0  0  0  0
  153.3391  139.0682  155.4649 O   0  0  0  0  0  0  0  0  0  0  0  0
  151.4726  139.4530  156.9652 C   0  0  0  0  0  0  0  0  0  0  0  0
  151.0537  140.8612  157.0104 N   0  0  0  0  0  0  0  0  0  0  0  0
  150.1069  141.5081  156.2781 C   0  0  0  0  0  0  0  0  0  0  0  0
  150.0828  142.8059  156.6902 N   0  3  0  0  0  0  0  0  0  0  0  0
  151.0292  142.9924  157.6998 C   0  0  0  0  0  0  0  0  0  0  0  0
  151.3742  144.1282  158.4259 C   0  0  0  0  0  0  0  0  0  0  0  0
  152.3931  143.9781  159.3895 C   0  0  0  0  0  0  0  0  0  0  0  0
  153.0266  142.7363  159.6013 C   0  0  0  0  0  0  0  0  0  0  0  0
  152.6674  141.5910  158.8606 C   0  0  0  0  0  0  0  0  0  0  0  0
  151.6584  141.7469  157.9103 C   0  0  0  0  0  0  0  0  0  0  0  0
  150.7415  134.7664  155.2677 C   0  0  0  0  0  0  0  0  0  0  0  0
  150.6518  133.3650  155.1612 C   0  0  0  0  0  0  0  0  0  0  0  0
  153.4486  130.4398  155.6670 H   0  0  0  0  0  0  0  0  0  0  0  0
  152.3408  129.1336  156.0984 H   0  0  0  0  0  0  0  0  0  0  0  0
  152.7642  130.3563  157.3004 H   0  0  0  0  0  0  0  0  0  0  0  0
  153.0878  132.5222  157.4130 H   0  0  0  0  0  0  0  0  0  0  0  0
  153.2338  134.9599  157.5881 H   0  0  0  0  0  0  0  0  0  0  0  0
  151.9539  137.2423  154.3034 H   0  0  0  0  0  0  0  0  0  0  0  0
  150.4016  137.5490  155.0901 H   0  0  0  0  0  0  0  0  0  0  0  0
  151.5224  139.6877  154.8136 H   0  0  0  0  0  0  0  0  0  0  0  0
  153.6378  138.3299  154.9557 H   0  0  0  0  0  0  0  0  0  0  0  0
  150.6156  138.8576  157.2825 H   0  0  0  0  0  0  0  0  0  0  0  0
  152.2507  139.2843  157.7099 H   0  0  0  0  0  0  0  0  0  0  0  0
  149.4854  141.0700  155.5103 H   0  0  0  0  0  0  0  0  0  0  0  0
  150.8914  145.0809  158.2651 H   0  0  0  0  0  0  0  0  0  0  0  0
  152.6960  144.8329  159.9768 H   0  0  0  0  0  0  0  0  0  0  0  0
  153.8054  142.6600  160.3462 H   0  0  0  0  0  0  0  0  0  0  0  0
  153.1634  140.6463  159.0270 H   0  0  0  0  0  0  0  0  0  0  0  0
  150.0773  135.3629  154.6613 H   0  0  0  0  0  0  0  0  0  0  0  0
  149.9270  132.9423  154.4802 H   0  0  0  0  0  0  0  0  0  0  0  0
  149.4648  143.5106  156.3086 H   0  0  0  0  0  0  0  0  0  0  0  0
  1  2  1  0  0  0  0
  1 24  1  0  0  0  0
  1 25  1  0  0  0  0
  1 26  1  0  0  0  0
  2  3  2  0  0  0  0
  2  4  1  0  0  0  0
  4 23  1  0  0  0  0
  4  5  2  0  0  0  0
  5  6  1  0  0  0  0
  5 27  1  0  0  0  0
  6  7  2  0  0  0  0
  6 28  1  0  0  0  0
  7  8  1  0  0  0  0
  7 22  1  0  0  0  0
  8  9  1  0  0  0  0
  9 10  1  0  0  0  0
  9 29  1  0  0  0  0
  9 30  1  0  0  0  0
 10 11  1  0  0  0  0
 10 12  1  0  0  0  0
 10 31  1  0  0  0  0
 11 32  1  0  0  0  0
 12 13  1  0  0  0  0
 12 33  1  0  0  0  0
 12 34  1  0  0  0  0
 13 21  1  0  0  0  0
 13 14  1  0  0  0  0
 14 15  2  0  0  0  0
 14 35  1  0  0  0  0
 15 16  1  0  0  0  0
 15 42  1  0  0  0  0
 16 21  2  0  0  0  0
 16 17  1  0  0  0  0
 17 18  2  0  0  0  0
 17 36  1  0  0  0  0
 18 19  1  0  0  0  0
 18 37  1  0  0  0  0
 19 20  2  0  0  0  0
 19 38  1  0  0  0  0
 20 21  1  0  0  0  0
 20 39  1  0  0  0  0
 22 23  2  0  0  0  0
 22 40  1  0  0  0  0
 23 41  1  0  0  0  0
M  CHG  1  15   1
M  END
> <s_m_source_file>
AV-unprocessed.smi

> <i_m_source_file_index>
2147

> <i_lp_mmshare_version>
43012

> <i_f3d_flags>
0

> <s_epik_input>
W0NIM11DKD1PKWMxW2NIXVtjSF1jKFtjSF1bY0hdMSlPW0NIMl1bQ0BIXShbT0hdKVtDSDJdbihbY0hdbjIpYyhjMjMpW2NIXVtjSF1bY0hdW2NIXTM=

> <s_epik_cmdline>
J2VwaWtfcHl0aG9uJywgJy1waCcsICc3LjAnLCAnLXRuJywgJzgnLCAnLW1hJywgJzIwMCcsICctbWV0YWxfYmluZGluZycsICctaW1hZScsICc8aW5maWxlLm1hZT4nLCAnLW9tYWUnLCAnPG91dGZpbGUubWFlPic=

> <r_lp_tautomer_probability>
0.99995

> <r_epik_Ionization_Penalty>
1.40272

> <r_epik_Ionization_Penalty_Charging>
1.40272

> <r_epik_Ionization_Penalty_Neutral>
2.3993e-06

> <r_epik_State_Penalty>
1.48501

> <r_epik_Charging_Adjusted_Penalty>
2.88772

> <i_epik_Tot_Q>
1

> <i_epik_Tot_abs_Q>
1

> <r_epik_Metal_State_Penalty>
5.5274

> <b_epik_Metal_Only>
0

> <s_lp_Force_Field>
OPLS_2005

> <r_lp_Energy>
26.2273

> <b_lp_Chiralities_Consistent>
1

> <s_lp_Variant>
AV-unprocessed.smi:2147-3

> <Gold.Version>
5.8.1

> <Gold.Id.Protein>
6NUR|6NUR_protein|mol2

> <Gold.PLP.Fitness>
54.9386

> <Gold.PLP.PLP>
-48.1604

> <Gold.PLP.part.hbond>
-2.0000

> <Gold.PLP.part.metal>
0.0000

> <Gold.PLP.part.buried>
-4.4426

> <Gold.PLP.part.nonpolar>
-40.6216

> <Gold.PLP.part.repulsive>
0.1252

> <Gold.PLP.ligand.clash>
0.0000

> <Gold.PLP.ligand.torsion>
1.1578

> <Gold.PLP.Chemscore.Hbond>
3.0000

> <Gold.PLP.Chemscore.CHOScore>
0.0000

> <Gold.PLP.Chemscore.Metal>
0.0000

> <Gold.Chemscore.Hbonds>
donor molecule, donor type, donor heavy atom, donor atom, acceptor molecule, acceptor atom, score
      L1  H    15    42       P1  8028  1.79
      P1  H  7997  8008       L1    11  1.00

> <Gold.PLP.Chemscore.Internal.Correction>
0.0938

> <Gold.Rescore>
     Score         DG    S(hbond)    S(metal)    S(lipo)     H(rot)  DE(clash)    DE(int)     intcor
     18.31     -19.64       1.93        0.00     120.18       2.48       0.07       1.25       ----

> <Gold.Chemscore.Fitness>
18.3133

> <Gold.Chemscore.DG>
-19.6384

> <Gold.Chemscore.ZeroCoef>
-5.4800

> <Gold.Chemscore.Hbond>
1.9333

> <Gold.Chemscore.Metal>
0.0000

> <Gold.Chemscore.Lipo>
120.1769

> <Gold.Chemscore.Internal_Hbond>
0.0000

> <Gold.Chemscore.DEClash>
0.0725

> <Gold.Chemscore.DEInternal>
1.2526

> <Gold.Chemscore.Rot>
2.4842

> <Gold.Chemscore.Internal.Correction>
   9.000000E+99

> <Gold.Chemscore.Hbonds>
donor molecule, donor type, donor heavy atom, donor atom, acceptor molecule, acceptor atom, score
      L1  H    15    42       P1  8028  0.87
      P1  H  7997  8008       L1    11  0.96

> <Gold.Chemscore.Hbond.Weighted>
-6.4571

> <Gold.Chemscore.Metal.Weighted>
-0.0000

> <Gold.Chemscore.Lipo.Weighted>
-14.0607

> <Gold.Chemscore.Internal_Hbond.Weighted>
0.0000

> <Gold.Chemscore.DEClash.Weighted>
0.0725

> <Gold.Chemscore.DEInternal.Weighted>
1.2526

> <Gold.Chemscore.Rot.Weighted>
6.3594

> <Gold.Chemscore.Internal.Correction.Weighted>
   9.000000E+99

> <Gold.Protein.RotatedTorsions>
[ 6907 6896 6895 6894 ] final  -21.42 input  -60.11 | X-H torsion
[ 7974 7965 7964 7962 ] final   35.65 input  175.53 | X-H torsion
[ 8008 7997 7996 7995 ] final  -28.15 input   59.86 | X-H torsion
[ 10167 10162 10161 10158 ] final  133.37 input  -65.29 | X-H torsion
[ 10718 10713 10712 10709 ] final  -14.17 input   66.30 | X-H torsion
[ 10763 10752 10751 10750 ] final   -3.01 input  -60.55 | X-H torsion
[ 11005 11000 10999 10996 ] final  115.28 input  -57.11 | X-H torsion

> <Gold.Protein.ActiveResidues>
 VAL166  LYS551  ARG553  GLY616  TRP617  ASP618  TYR619  PRO620  LYS621  CYS622 
 ASP623  PHE694  ASN695  SER759  ASP760  ASP761  ALA762  ILE779  LEU786  VAL792 
 PHE793  MET794  SER795  GLU796  ALA797  LYS798  CYS799  TRP800  GLU811  SER814 

> <Gold.Protein.RotatedAtoms>
  151.2335  135.0563  159.8996 H   0  0  0  0  0  0  0  0  0  0  0  0  # atno 6907 bound_to 6896
  152.5402  134.0511  159.8120 H   0  0  0  0  0  0  0  0  0  0  0  0  # atno 6908 bound_to 6896
  151.0694  133.5430  159.2660 H   0  0  0  0  0  0  0  0  0  0  0  0  # atno 6909 bound_to 6896
  146.1268  139.6116  142.9253 H   0  0  0  0  0  0  0  0  0  0  0  0  # atno 7974 bound_to 7965
  154.4345  140.1853  156.1044 H   0  0  0  0  0  0  0  0  0  0  0  0  # atno 8008 bound_to 7997
  156.0266  140.3335  155.7070 H   0  0  0  0  0  0  0  0  0  0  0  0  # atno 8009 bound_to 7997
  155.5899  140.0630  157.2752 H   0  0  0  0  0  0  0  0  0  0  0  0  # atno 8010 bound_to 7997
  139.5300  144.6619  151.4986 H   0  0  0  0  0  0  0  0  0  0  0  0  # atno 10167 bound_to 10162
  156.6198  130.4872  149.6169 H   0  0  0  0  0  0  0  0  0  0  0  0  # atno 10718 bound_to 10713
  153.3657  135.6992  153.6677 H   0  0  0  0  0  0  0  0  0  0  0  0  # atno 10763 bound_to 10752
  153.5347  135.3585  155.2692 H   0  0  0  0  0  0  0  0  0  0  0  0  # atno 10764 bound_to 10752
  154.8674  135.4189  154.2924 H   0  0  0  0  0  0  0  0  0  0  0  0  # atno 10765 bound_to 10752
  139.9005  134.9581  156.7021 H   0  0  0  0  0  0  0  0  0  0  0  0  # atno 11005 bound_to 11000
  145.5348  141.0425  143.2363 LP  0  0  0  0  0  0  0  0  0  0  0  0  # atno 17320 bound_to 7965
  144.7650  139.6866  143.7218 LP  0  0  0  0  0  0  0  0  0  0  0  0  # atno 17321 bound_to 7965
  140.6471  143.8772  150.6748 LP  0  0  0  0  0  0  0  0  0  0  0  0  # atno 17342 bound_to 10162
  140.2125  143.3872  152.1707 LP  0  0  0  0  0  0  0  0  0  0  0  0  # atno 17343 bound_to 10162
  156.2321  130.6800  151.1473 LP  0  0  0  0  0  0  0  0  0  0  0  0  # atno 17370 bound_to 10713
  157.7231  131.0668  150.6052 LP  0  0  0  0  0  0  0  0  0  0  0  0  # atno 17371 bound_to 10713
  140.7142  133.9197  155.8104 LP  0  0  0  0  0  0  0  0  0  0  0  0  # atno 17394 bound_to 11000
  141.0277  134.0800  157.4050 LP  0  0  0  0  0  0  0  0  0  0  0  0  # atno 17395 bound_to 11000

$$$$
