AV-unprocessed.smi:1827|AV-procd|sdf|7421|dock7
  -GOLD-   22720 9103D 1   1.00000     0.00000
 Structure written by MMmdl.
 44 45  0  0  0  0  0  0  0  0  2 V2000
  151.5538  138.1511  154.6513 C   0  0  0  0  0  0  0  0  0  0  0  0
  150.4420  139.1608  154.5718 C   0  0  0  0  0  0  0  0  0  0  0  0
  150.7030  140.4218  154.8910 N   0  0  0  0  0  0  0  0  0  0  0  0
  149.5465  141.0802  154.6617 N   0  0  0  0  0  0  0  0  0  0  0  0
  148.5353  140.2697  154.1975 C   0  0  0  0  0  0  0  0  0  0  0  0
  147.1780  140.7926  153.8643 C   0  0  0  0  0  0  0  0  0  0  0  0
  149.0805  139.0193  154.1580 C   0  0  0  0  0  0  0  0  0  0  0  0
  148.3971  137.8621  153.7079 N   0  0  0  0  0  0  0  0  0  0  0  0
  147.2014  137.4211  154.1269 C   0  0  0  0  0  0  0  0  0  0  0  0
  146.4905  137.9908  154.9539 O   0  0  0  0  0  0  0  0  0  0  0  0
  146.8573  136.2796  153.5135 N   0  0  0  0  0  0  0  0  0  0  0  0
  145.6088  135.5488  153.7309 C   0  0  2  0  0  0  0  0  0  0  0  0
  145.8415  134.0277  153.8334 C   0  0  0  0  0  0  0  0  0  0  0  0
  146.2288  133.4115  152.4782 C   0  0  0  0  0  0  0  0  0  0  0  0
  145.2066  133.7156  151.4414 N   0  3  2  0  0  0  0  0  0  0  0  0
  145.4624  133.0256  150.1506 C   0  0  0  0  0  0  0  0  0  0  0  0
  144.1826  132.7509  149.3540 C   0  0  0  0  0  0  0  0  0  0  0  0
  143.9780  133.4974  148.2664 N   0  0  0  0  0  0  0  0  0  0  0  0
  143.3819  131.8921  149.7197 O   0  0  0  0  0  0  0  0  0  0  0  0
  145.0172  135.1791  151.2741 C   0  0  0  0  0  0  0  0  0  0  0  0
  144.6075  135.8446  152.6009 C   0  0  0  0  0  0  0  0  0  0  0  0
  149.4664  142.0750  154.8178 H   0  0  0  0  0  0  0  0  0  0  0  0
  151.4491  137.3858  153.8825 H   0  0  0  0  0  0  0  0  0  0  0  0
  151.5626  137.6551  155.6218 H   0  0  0  0  0  0  0  0  0  0  0  0
  152.5289  138.6189  154.5116 H   0  0  0  0  0  0  0  0  0  0  0  0
  146.5651  140.0260  153.3903 H   0  0  0  0  0  0  0  0  0  0  0  0
  147.2457  141.6382  153.1797 H   0  0  0  0  0  0  0  0  0  0  0  0
  146.6616  141.1261  154.7646 H   0  0  0  0  0  0  0  0  0  0  0  0
  148.8183  137.3741  152.9314 H   0  0  0  0  0  0  0  0  0  0  0  0
  147.5006  135.8953  152.8371 H   0  0  0  0  0  0  0  0  0  0  0  0
  145.1746  135.9018  154.6681 H   0  0  0  0  0  0  0  0  0  0  0  0
  146.6049  133.8022  154.5789 H   0  0  0  0  0  0  0  0  0  0  0  0
  144.9272  133.5514  154.1901 H   0  0  0  0  0  0  0  0  0  0  0  0
  147.2013  133.7869  152.1562 H   0  0  0  0  0  0  0  0  0  0  0  0
  146.3344  132.3326  152.5964 H   0  0  0  0  0  0  0  0  0  0  0  0
  146.0923  133.6525  149.5180 H   0  0  0  0  0  0  0  0  0  0  0  0
  146.0141  132.0999  150.3230 H   0  0  0  0  0  0  0  0  0  0  0  0
  143.1540  133.3571  147.6998 H   0  0  0  0  0  0  0  0  0  0  0  0
  144.6548  134.2018  148.0084 H   0  0  0  0  0  0  0  0  0  0  0  0
  145.9363  135.6249  150.8912 H   0  0  0  0  0  0  0  0  0  0  0  0
  144.2419  135.3667  150.5302 H   0  0  0  0  0  0  0  0  0  0  0  0
  143.6226  135.4766  152.8921 H   0  0  0  0  0  0  0  0  0  0  0  0
  144.4987  136.9212  152.4635 H   0  0  0  0  0  0  0  0  0  0  0  0
  144.3268  133.3524  151.7809 H   0  0  0  0  0  0  0  0  0  0  0  0
  1  2  1  0  0  0  0
  1 23  1  0  0  0  0
  1 24  1  0  0  0  0
  1 25  1  0  0  0  0
  2  7  1  0  0  0  0
  2  3  2  0  0  0  0
  3  4  1  0  0  0  0
  4 22  1  0  0  0  0
  4  5  1  0  0  0  0
  5  6  1  0  0  0  0
  5  7  2  0  0  0  0
  6 26  1  0  0  0  0
  6 27  1  0  0  0  0
  6 28  1  0  0  0  0
  7  8  1  0  0  0  0
  8  9  1  0  0  0  0
  8 29  1  0  0  0  0
  9 10  2  0  0  0  0
  9 11  1  0  0  0  0
 11 12  1  0  0  0  0
 11 30  1  0  0  0  0
 12 21  1  0  0  0  0
 12 13  1  0  0  0  0
 12 31  1  0  0  0  0
 13 14  1  0  0  0  0
 13 32  1  0  0  0  0
 13 33  1  0  0  0  0
 14 15  1  0  0  0  0
 14 34  1  0  0  0  0
 14 35  1  0  0  0  0
 15 16  1  0  0  0  0
 15 20  1  0  0  0  0
 15 44  1  0  0  0  0
 16 17  1  0  0  0  0
 16 36  1  0  0  0  0
 16 37  1  0  0  0  0
 17 18  1  0  0  0  0
 17 19  2  0  0  0  0
 18 38  1  0  0  0  0
 18 39  1  0  0  0  0
 20 21  1  0  0  0  0
 20 40  1  0  0  0  0
 20 41  1  0  0  0  0
 21 42  1  0  0  0  0
 21 43  1  0  0  0  0
M  CHG  1  15   1
M  END
> <s_m_source_file>
AV-unprocessed.smi

> <i_m_source_file_index>
1827

> <i_lp_mmshare_version>
43012

> <i_f3d_flags>
0

> <s_epik_input>
W0NIM11jMW5bbkhdYyhbQ0gzXSljMVtOSF1DKD1PKVtOSF1bQ0hdMltDSDJdW0NIMl1OKFtDSDJdW0NIMl0yKVtDSDJdQyg9TylbTkgyXQ==

> <s_epik_cmdline>
J2VwaWtfcHl0aG9uJywgJy1waCcsICc3LjAnLCAnLXRuJywgJzgnLCAnLW1hJywgJzIwMCcsICctbWV0YWxfYmluZGluZycsICctaW1hZScsICc8aW5maWxlLm1hZT4nLCAnLW9tYWUnLCAnPG91dGZpbGUubWFlPic=

> <r_lp_tautomer_probability>
0.5

> <r_epik_Ionization_Penalty>
0.839233

> <r_epik_Ionization_Penalty_Charging>
0.838844

> <r_epik_Ionization_Penalty_Neutral>
0.000388936

> <r_epik_State_Penalty>
0.8734

> <r_epik_Charging_Adjusted_Penalty>
1.71224

> <i_epik_Tot_Q>
1

> <i_epik_Tot_abs_Q>
1

> <r_epik_Metal_State_Penalty>
0.890753

> <b_epik_Metal_Only>
0

> <s_lp_Force_Field>
OPLS_2005

> <r_lp_Energy>
15.6473

> <b_lp_Chiralities_Consistent>
1

> <s_lp_Variant>
AV-unprocessed.smi:1827-3

> <Gold.Version>
5.8.1

> <Gold.Id.Protein>
6NUR|6NUR_protein|mol2

> <Gold.PLP.Fitness>
45.0096

> <Gold.PLP.PLP>
-32.1254

> <Gold.PLP.part.hbond>
-5.0000

> <Gold.PLP.part.metal>
0.0000

> <Gold.PLP.part.buried>
-5.1424

> <Gold.PLP.part.nonpolar>
-23.4037

> <Gold.PLP.part.repulsive>
2.0111

> <Gold.PLP.ligand.clash>
0.0000

> <Gold.PLP.ligand.torsion>
1.0980

> <Gold.PLP.Chemscore.Hbond>
4.9120

> <Gold.PLP.Chemscore.CHOScore>
0.0000

> <Gold.PLP.Chemscore.Metal>
0.0000

> <Gold.Chemscore.Hbonds>
donor molecule, donor type, donor heavy atom, donor atom, acceptor molecule, acceptor atom, score
      L1  H     8    29       P1  7948  1.00
      L1  H    11    30       P1  7948  0.91
      L1  H    18    39       P1  7921  1.00
      P1  H  7989  7998       L1     3  1.00
      P1  H 10785 10796       L1    19  1.00

> <Gold.PLP.Chemscore.Internal.Correction>
0.3441

> <Gold.Rescore>
     Score         DG    S(hbond)    S(metal)    S(lipo)     H(rot)  DE(clash)    DE(int)     intcor
     19.22     -20.39       3.90        0.00      59.55       1.98       0.06       1.11       ----

> <Gold.Chemscore.Fitness>
19.2194

> <Gold.Chemscore.DG>
-20.3887

> <Gold.Chemscore.ZeroCoef>
-5.4800

> <Gold.Chemscore.Hbond>
3.8990

> <Gold.Chemscore.Metal>
0.0000

> <Gold.Chemscore.Lipo>
59.5487

> <Gold.Chemscore.Internal_Hbond>
0.0000

> <Gold.Chemscore.DEClash>
0.0605

> <Gold.Chemscore.DEInternal>
1.1088

> <Gold.Chemscore.Rot>
1.9848

> <Gold.Chemscore.Internal.Correction>
   9.000000E+99

> <Gold.Chemscore.Hbonds>
donor molecule, donor type, donor heavy atom, donor atom, acceptor molecule, acceptor atom, score
      L1  H     8    29       P1  7948  0.94
      L1  H    11    30       P1  7948  0.90
      L1  H    18    39       P1  7921  0.98
      P1  H  7989  7998       L1     3  0.07
      P1  H 10785 10796       L1    19  0.91

> <Gold.Chemscore.Hbond.Weighted>
-13.0225

> <Gold.Chemscore.Metal.Weighted>
-0.0000

> <Gold.Chemscore.Lipo.Weighted>
-6.9672

> <Gold.Chemscore.Internal_Hbond.Weighted>
0.0000

> <Gold.Chemscore.DEClash.Weighted>
0.0605

> <Gold.Chemscore.DEInternal.Weighted>
1.1088

> <Gold.Chemscore.Rot.Weighted>
5.0810

> <Gold.Chemscore.Internal.Correction.Weighted>
   9.000000E+99

> <Gold.Protein.RotatedTorsions>
[ 6907 6896 6895 6894 ] final  -28.87 input  -60.11 | X-H torsion
[ 7974 7965 7964 7962 ] final -145.41 input  175.53 | X-H torsion
[ 8008 7997 7996 7995 ] final -105.00 input   59.86 | X-H torsion
[ 10167 10162 10161 10158 ] final   51.28 input  -65.29 | X-H torsion
[ 10718 10713 10712 10709 ] final    6.39 input   66.30 | X-H torsion
[ 10763 10752 10751 10750 ] final  -68.21 input  -60.55 | X-H torsion
[ 11005 11000 10999 10996 ] final   85.44 input  -57.11 | X-H torsion

> <Gold.Protein.ActiveResidues>
 VAL166  LYS551  ARG553  GLY616  TRP617  ASP618  TYR619  PRO620  LYS621  CYS622 
 ASP623  PHE694  ASN695  SER759  ASP760  ASP761  ALA762  ILE779  LEU786  VAL792 
 PHE793  MET794  SER795  GLU796  ALA797  LYS798  CYS799  TRP800  GLU811  SER814 

> <Gold.Protein.RotatedAtoms>
  151.1269  135.0110  159.8564 H   0  0  0  0  0  0  0  0  0  0  0  0  # atno 6907 bound_to 6896
  152.5450  134.1656  159.8586 H   0  0  0  0  0  0  0  0  0  0  0  0  # atno 6908 bound_to 6896
  151.1719  133.4734  159.2627 H   0  0  0  0  0  0  0  0  0  0  0  0  # atno 6909 bound_to 6896
  144.8230  140.5587  143.5566 H   0  0  0  0  0  0  0  0  0  0  0  0  # atno 7974 bound_to 7965
  154.8935  140.0415  157.1852 H   0  0  0  0  0  0  0  0  0  0  0  0  # atno 8008 bound_to 7997
  154.8517  140.2930  155.5573 H   0  0  0  0  0  0  0  0  0  0  0  0  # atno 8009 bound_to 7997
  156.2996  140.2463  156.3476 H   0  0  0  0  0  0  0  0  0  0  0  0  # atno 8010 bound_to 7997
  140.2635  144.3346  150.6311 H   0  0  0  0  0  0  0  0  0  0  0  0  # atno 10167 bound_to 10162
  156.9214  130.5792  149.5648 H   0  0  0  0  0  0  0  0  0  0  0  0  # atno 10718 bound_to 10713
  154.3858  135.6064  153.5815 H   0  0  0  0  0  0  0  0  0  0  0  0  # atno 10763 bound_to 10752
  152.9787  135.5871  154.4356 H   0  0  0  0  0  0  0  0  0  0  0  0  # atno 10764 bound_to 10752
  154.4133  135.2844  155.2001 H   0  0  0  0  0  0  0  0  0  0  0  0  # atno 10765 bound_to 10752
  139.8971  134.8287  156.2583 H   0  0  0  0  0  0  0  0  0  0  0  0  # atno 11005 bound_to 11000
  145.5064  139.1481  143.3629 LP  0  0  0  0  0  0  0  0  0  0  0  0  # atno 17320 bound_to 7965
  146.2535  140.5204  142.8883 LP  0  0  0  0  0  0  0  0  0  0  0  0  # atno 17321 bound_to 7965
  140.5947  143.2167  151.7187 LP  0  0  0  0  0  0  0  0  0  0  0  0  # atno 17342 bound_to 10162
  139.5009  144.3886  152.0303 LP  0  0  0  0  0  0  0  0  0  0  0  0  # atno 17343 bound_to 10162
  156.0489  130.5561  150.8944 LP  0  0  0  0  0  0  0  0  0  0  0  0  # atno 17370 bound_to 10713
  157.5905  131.0944  150.9126 LP  0  0  0  0  0  0  0  0  0  0  0  0  # atno 17371 bound_to 10713
  141.0179  133.7058  156.1219 LP  0  0  0  0  0  0  0  0  0  0  0  0  # atno 17394 bound_to 11000
  140.7275  134.4291  157.5569 LP  0  0  0  0  0  0  0  0  0  0  0  0  # atno 17395 bound_to 11000

$$$$
