AV-unprocessed.smi:196|AV-procd|sdf|1532|dock5
  -GOLD-   2262019383D 1   1.00000     0.00000
 Structure written by MMmdl.
 47 50  0  0  0  0  0  0  0  0  1 V2000
  152.0430  144.8954  157.8097 C   0  0  0  0  0  0  0  0  0  0  0  0
  151.4921  144.1386  159.0282 C   0  0  2  0  0  0  0  0  0  0  0  0
  152.2361  144.5426  160.1737 O   0  0  0  0  0  0  0  0  0  0  0  0
  152.2087  143.4899  161.1201 C   0  0  0  0  0  0  0  0  0  0  0  0
  152.4068  142.2632  160.2430 C   0  0  0  0  0  0  0  0  0  0  0  0
  151.5839  142.5859  158.9962 C   0  0  1  0  0  0  0  0  0  0  0  0
  150.2771  142.0737  159.1941 O   0  0  0  0  0  0  0  0  0  0  0  0
  152.1586  141.9569  157.6993 C   0  0  0  0  0  0  0  0  0  0  0  0
  151.9761  140.5150  157.6244 N   0  0  0  0  0  0  0  0  0  0  0  0
  152.3087  139.5894  158.5887 C   0  0  0  0  0  0  0  0  0  0  0  0
  152.0435  138.3479  158.2855 N   0  0  0  0  0  0  0  0  0  0  0  0
  151.4941  138.4234  157.0123 C   0  0  0  0  0  0  0  0  0  0  0  0
  150.9889  137.4638  156.0969 C   0  0  0  0  0  0  0  0  0  0  0  0
  150.9584  136.1419  156.3854 N   0  0  0  0  0  0  0  0  0  0  0  0
  151.4846  135.2682  155.3387 C   0  0  0  0  0  0  0  0  0  0  0  0
  150.3139  134.3947  154.9012 C   0  0  1  0  0  0  0  0  0  0  0  0
  150.7043  133.2233  154.3997 F   0  0  0  0  0  0  0  0  0  0  0  0
  149.5219  134.2458  156.1915 C   0  0  0  0  0  0  0  0  0  0  0  0
  149.6538  135.6338  156.8410 C   0  0  1  0  0  0  0  0  0  0  0  0
  149.5013  135.5630  158.3712 C   0  0  0  0  0  0  0  0  0  0  0  0
  148.5011  136.2321  158.9531 N   0  0  0  0  0  0  0  0  0  0  0  0
  150.2916  134.8904  159.0296 O   0  0  0  0  0  0  0  0  0  0  0  0
  150.5254  137.9089  154.8988 N   0  0  0  0  0  0  0  0  0  0  0  0
  150.5496  139.2155  154.6182 C   0  0  0  0  0  0  0  0  0  0  0  0
  150.9840  140.2245  155.3768 N   0  0  0  0  0  0  0  0  0  0  0  0
  151.4521  139.7771  156.5773 C   0  0  0  0  0  0  0  0  0  0  0  0
  149.7168  134.9033  154.1430 H   0  0  0  0  0  0  0  0  0  0  0  0
  148.8492  136.2670  156.4613 H   0  0  0  0  0  0  0  0  0  0  0  0
  151.5007  144.6342  156.9008 H   0  0  0  0  0  0  0  0  0  0  0  0
  153.1009  144.6860  157.6500 H   0  0  0  0  0  0  0  0  0  0  0  0
  151.9429  145.9717  157.9503 H   0  0  0  0  0  0  0  0  0  0  0  0
  150.4587  144.4528  159.1879 H   0  0  0  0  0  0  0  0  0  0  0  0
  152.9902  143.6031  161.8718 H   0  0  0  0  0  0  0  0  0  0  0  0
  151.2406  143.4655  161.6229 H   0  0  0  0  0  0  0  0  0  0  0  0
  153.4642  142.1904  159.9861 H   0  0  0  0  0  0  0  0  0  0  0  0
  152.1209  141.3327  160.7354 H   0  0  0  0  0  0  0  0  0  0  0  0
  149.7448  142.3114  158.4502 H   0  0  0  0  0  0  0  0  0  0  0  0
  151.6957  142.4052  156.8192 H   0  0  0  0  0  0  0  0  0  0  0  0
  153.2277  142.1554  157.6212 H   0  0  0  0  0  0  0  0  0  0  0  0
  152.7541  139.8660  159.5335 H   0  0  0  0  0  0  0  0  0  0  0  0
  151.9289  135.7998  154.4952 H   0  0  0  0  0  0  0  0  0  0  0  0
  152.2704  134.6559  155.7829 H   0  0  0  0  0  0  0  0  0  0  0  0
  148.4846  133.9601  156.0136 H   0  0  0  0  0  0  0  0  0  0  0  0
  149.9796  133.4766  156.8167 H   0  0  0  0  0  0  0  0  0  0  0  0
  148.3892  136.1973  159.9564 H   0  0  0  0  0  0  0  0  0  0  0  0
  147.8623  136.7719  158.3876 H   0  0  0  0  0  0  0  0  0  0  0  0
  150.1647  139.4921  153.6477 H   0  0  0  0  0  0  0  0  0  0  0  0
  1  2  1  0  0  0  0
  1 29  1  0  0  0  0
  1 30  1  0  0  0  0
  1 31  1  0  0  0  0
  2  6  1  0  0  0  0
  2  3  1  0  0  0  0
  2 32  1  0  0  0  0
  3  4  1  0  0  0  0
  4  5  1  0  0  0  0
  4 33  1  0  0  0  0
  4 34  1  0  0  0  0
  5  6  1  0  0  0  0
  5 35  1  0  0  0  0
  5 36  1  0  0  0  0
  6  7  1  0  0  0  0
  6  8  1  0  0  0  0
  7 37  1  0  0  0  0
  8  9  1  0  0  0  0
  8 38  1  0  0  0  0
  8 39  1  0  0  0  0
  9 26  1  0  0  0  0
  9 10  1  0  0  0  0
 10 11  2  0  0  0  0
 10 40  1  0  0  0  0
 11 12  1  0  0  0  0
 12 26  2  0  0  0  0
 12 13  1  0  0  0  0
 13 14  1  0  0  0  0
 13 23  2  0  0  0  0
 14 19  1  0  0  0  0
 14 15  1  0  0  0  0
 15 16  1  0  0  0  0
 15 41  1  0  0  0  0
 15 42  1  0  0  0  0
 16 27  1  0  0  0  0
 16 17  1  0  0  0  0
 16 18  1  0  0  0  0
 18 19  1  0  0  0  0
 18 43  1  0  0  0  0
 18 44  1  0  0  0  0
 19 28  1  0  0  0  0
 19 20  1  0  0  0  0
 20 21  1  0  0  0  0
 20 22  2  0  0  0  0
 21 45  1  0  0  0  0
 21 46  1  0  0  0  0
 23 24  1  0  0  0  0
 24 25  2  0  0  0  0
 24 47  1  0  0  0  0
 25 26  1  0  0  0  0
M  END
> <s_m_source_file>
AV-unprocessed.smi

> <i_m_source_file_index>
196

> <i_lp_mmshare_version>
43012

> <i_f3d_flags>
0

> <s_epik_input>
W0NIMl0xW0NIMl1PW0NAQEhdKFtDSDNdKVtDQEBdMShbT0hdKVtDSDJdbihbY0hdbjIpYyhjMjMpbltjSF1uYzNONFtDSDJdW0NASF0oRilbQ0gyXVtDQEhdNEMoPU8pW05IMl0=

> <s_epik_cmdline>
J2VwaWtfcHl0aG9uJywgJy1waCcsICc3LjAnLCAnLXRuJywgJzgnLCAnLW1hJywgJzIwMCcsICctbWV0YWxfYmluZGluZycsICctaW1hZScsICc8aW5maWxlLm1hZT4nLCAnLW9tYWUnLCAnPG91dGZpbGUubWFlPic=

> <r_lp_tautomer_probability>
1

> <r_epik_Ionization_Penalty>
0.000857933

> <r_epik_Ionization_Penalty_Charging>
0

> <r_epik_Ionization_Penalty_Neutral>
0.000857933

> <r_epik_State_Penalty>
0.000462053

> <r_epik_Charging_Adjusted_Penalty>
0.000462053

> <i_epik_Tot_Q>
0

> <i_epik_Tot_abs_Q>
0

> <r_epik_Metal_State_Penalty>
-0

> <b_epik_Metal_Only>
0

> <s_lp_Force_Field>
OPLS_2005

> <r_lp_Energy>
45.3025

> <b_lp_Chiralities_Consistent>
1

> <s_lp_Variant>
AV-unprocessed.smi:196-5

> <Gold.Version>
5.8.1

> <Gold.Id.Protein>
6NUR|6NUR_protein|mol2

> <Gold.PLP.Fitness>
41.9141

> <Gold.PLP.PLP>
-37.0756

> <Gold.PLP.part.hbond>
-3.0000

> <Gold.PLP.part.metal>
0.0000

> <Gold.PLP.part.buried>
-4.7486

> <Gold.PLP.part.nonpolar>
-28.9015

> <Gold.PLP.part.repulsive>
0.3458

> <Gold.PLP.ligand.clash>
0.0000

> <Gold.PLP.ligand.torsion>
0.6210

> <Gold.PLP.Chemscore.Hbond>
1.0000

> <Gold.PLP.Chemscore.CHOScore>
1.0000

> <Gold.PLP.Chemscore.Metal>
0.0000

> <Gold.Chemscore.Hbonds>
donor molecule, donor type, donor heavy atom, donor atom, acceptor molecule, acceptor atom, score
      L1  C    24    47       P1  7957  0.83

> <Gold.PLP.Chemscore.Internal.Correction>
0.0806

> <Gold.Rescore>
     Score         DG    S(hbond)    S(metal)    S(lipo)     H(rot)  DE(clash)    DE(int)     intcor
     10.18     -10.89       1.00        0.00      84.27       3.04       0.02       0.69       ----

> <Gold.Chemscore.Fitness>
10.1845

> <Gold.Chemscore.DG>
-10.8898

> <Gold.Chemscore.ZeroCoef>
-5.4800

> <Gold.Chemscore.Hbond>
0.9988

> <Gold.Chemscore.Metal>
0.0000

> <Gold.Chemscore.Lipo>
84.2699

> <Gold.Chemscore.Internal_Hbond>
0.0000

> <Gold.Chemscore.DEClash>
0.0201

> <Gold.Chemscore.DEInternal>
0.6852

> <Gold.Chemscore.Rot>
3.0413

> <Gold.Chemscore.Internal.Correction>
   9.000000E+99

> <Gold.Chemscore.Hbond.Weighted>
-3.3359

> <Gold.Chemscore.Metal.Weighted>
-0.0000

> <Gold.Chemscore.Lipo.Weighted>
-9.8596

> <Gold.Chemscore.Internal_Hbond.Weighted>
0.0000

> <Gold.Chemscore.DEClash.Weighted>
0.0201

> <Gold.Chemscore.DEInternal.Weighted>
0.6852

> <Gold.Chemscore.Rot.Weighted>
7.7856

> <Gold.Chemscore.Internal.Correction.Weighted>
   9.000000E+99

> <Gold.Protein.RotatedTorsions>
[ 6907 6896 6895 6894 ] final  -85.84 input  -60.11 | X-H torsion
[ 7974 7965 7964 7962 ] final -164.09 input  175.53 | X-H torsion
[ 8008 7997 7996 7995 ] final  148.71 input   59.86 | X-H torsion
[ 10167 10162 10161 10158 ] final  106.46 input  -65.29 | X-H torsion
[ 10718 10713 10712 10709 ] final  -52.97 input   66.30 | X-H torsion
[ 10763 10752 10751 10750 ] final -173.30 input  -60.55 | X-H torsion
[ 11005 11000 10999 10996 ] final   85.53 input  -57.11 | X-H torsion

> <Gold.Protein.ActiveResidues>
 VAL166  LYS551  ARG553  GLY616  TRP617  ASP618  TYR619  PRO620  LYS621  CYS622 
 ASP623  PHE694  ASN695  SER759  ASP760  ASP761  ALA762  ILE779  LEU786  VAL792 
 PHE793  MET794  SER795  GLU796  ALA797  LYS798  CYS799  TRP800  GLU811  SER814 

> <Gold.Protein.RotatedAtoms>
  150.6868  134.3143  159.4759 H   0  0  0  0  0  0  0  0  0  0  0  0  # atno 6907 bound_to 6896
  152.1025  134.9329  160.0578 H   0  0  0  0  0  0  0  0  0  0  0  0  # atno 6908 bound_to 6896
  152.0602  133.4024  159.4451 H   0  0  0  0  0  0  0  0  0  0  0  0  # atno 6909 bound_to 6896
  144.7306  140.3011  143.6204 H   0  0  0  0  0  0  0  0  0  0  0  0  # atno 7974 bound_to 7965
  156.2781  140.2121  156.5742 H   0  0  0  0  0  0  0  0  0  0  0  0  # atno 8008 bound_to 7997
  154.7111  140.0512  157.0573 H   0  0  0  0  0  0  0  0  0  0  0  0  # atno 8009 bound_to 7997
  155.0605  140.3166  155.4665 H   0  0  0  0  0  0  0  0  0  0  0  0  # atno 8010 bound_to 7997
  139.7007  144.7094  151.1190 H   0  0  0  0  0  0  0  0  0  0  0  0  # atno 10167 bound_to 10162
  156.1575  130.4150  149.9845 H   0  0  0  0  0  0  0  0  0  0  0  0  # atno 10718 bound_to 10713
  154.6094  135.2863  155.0448 H   0  0  0  0  0  0  0  0  0  0  0  0  # atno 10763 bound_to 10752
  154.1684  135.6476  153.5007 H   0  0  0  0  0  0  0  0  0  0  0  0  # atno 10764 bound_to 10752
  153.0189  135.5395  154.6842 H   0  0  0  0  0  0  0  0  0  0  0  0  # atno 10765 bound_to 10752
  139.8969  134.8293  156.2595 H   0  0  0  0  0  0  0  0  0  0  0  0  # atno 11005 bound_to 11000
  145.7759  139.1874  143.2185 LP  0  0  0  0  0  0  0  0  0  0  0  0  # atno 17320 bound_to 7965
  146.0873  140.7696  142.9612 LP  0  0  0  0  0  0  0  0  0  0  0  0  # atno 17321 bound_to 7965
  140.7709  143.5427  150.9294 LP  0  0  0  0  0  0  0  0  0  0  0  0  # atno 17342 bound_to 10162
  139.9109  143.6721  152.3115 LP  0  0  0  0  0  0  0  0  0  0  0  0  # atno 17343 bound_to 10162
  156.7684  130.9177  151.3643 LP  0  0  0  0  0  0  0  0  0  0  0  0  # atno 17370 bound_to 10713
  157.6707  130.9048  150.0033 LP  0  0  0  0  0  0  0  0  0  0  0  0  # atno 17371 bound_to 10713
  141.0172  133.7062  156.1208 LP  0  0  0  0  0  0  0  0  0  0  0  0  # atno 17394 bound_to 11000
  140.7285  134.4281  157.5568 LP  0  0  0  0  0  0  0  0  0  0  0  0  # atno 17395 bound_to 11000

$$$$
