AV-unprocessed.smi:2414|AV-procd|sdf|9540|dock3
  -GOLD-   2272013173D 1   1.00000     0.00000
 Structure written by MMmdl.
 43 44  0  0  0  0  0  0  0  0  1 V2000
  151.8459  142.1861  159.3643 C   0  0  0  0  0  0  0  0  0  0  0  0
  151.2402  141.6709  158.1028 C   0  0  0  0  0  0  0  0  0  0  0  0
  150.4933  142.3715  157.1886 C   0  0  0  0  0  0  0  0  0  0  0  0
  150.0625  141.6035  156.1049 N   0  0  0  0  0  0  0  0  0  0  0  0
  150.4737  140.3346  156.1809 C   0  0  0  0  0  0  0  0  0  0  0  0
  150.1425  139.2900  155.1584 C   0  0  2  0  0  0  0  0  0  0  0  0
  151.3956  138.5572  154.6576 C   0  0  0  0  0  0  0  0  0  0  0  0
  149.2621  139.8263  154.0128 C   0  0  0  0  0  0  0  0  0  0  0  0
  148.4766  138.7653  153.3924 N   0  0  0  0  0  0  0  0  0  0  0  0
  147.1388  138.7347  153.3607 C   0  0  0  0  0  0  0  0  0  0  0  0
  146.4195  139.6093  153.8437 O   0  0  0  0  0  0  0  0  0  0  0  0
  146.6841  137.6389  152.7390 N   0  0  0  0  0  0  0  0  0  0  0  0
  145.2790  137.3117  152.5149 C   0  0  0  0  0  0  0  0  0  0  0  0
  145.1153  135.9478  151.8105 C   0  0  2  0  0  0  0  0  0  0  0  0
  145.7167  135.9403  150.3915 C   0  0  0  0  0  0  0  0  0  0  0  0
  143.6440  135.4949  151.7902 C   0  0  0  0  0  0  0  0  0  0  0  0
  143.7288  134.0159  152.0972 C   0  0  0  0  0  0  0  0  0  0  0  0
  144.8913  133.9860  153.0773 C   0  0  0  0  0  0  0  0  0  0  0  0
  145.8044  134.9500  152.5691 O   0  0  0  0  0  0  0  0  0  0  0  0
  151.4319  140.0056  157.6203 S   0  0  0  0  0  0  0  0  0  0  0  0
  151.1272  142.7876  159.9213 H   0  0  0  0  0  0  0  0  0  0  0  0
  152.7134  142.8099  159.1487 H   0  0  0  0  0  0  0  0  0  0  0  0
  152.1697  141.3689  160.0089 H   0  0  0  0  0  0  0  0  0  0  0  0
  150.2197  143.4155  157.2310 H   0  0  0  0  0  0  0  0  0  0  0  0
  149.5438  138.5402  155.6778 H   0  0  0  0  0  0  0  0  0  0  0  0
  151.9412  138.1026  155.4850 H   0  0  0  0  0  0  0  0  0  0  0  0
  152.0750  139.2383  154.1443 H   0  0  0  0  0  0  0  0  0  0  0  0
  151.1326  137.7625  153.9591 H   0  0  0  0  0  0  0  0  0  0  0  0
  148.5817  140.5877  154.3980 H   0  0  0  0  0  0  0  0  0  0  0  0
  149.8828  140.3078  153.2557 H   0  0  0  0  0  0  0  0  0  0  0  0
  148.9855  138.0025  152.9701 H   0  0  0  0  0  0  0  0  0  0  0  0
  147.3605  136.9816  152.3786 H   0  0  0  0  0  0  0  0  0  0  0  0
  144.7788  137.2981  153.4839 H   0  0  0  0  0  0  0  0  0  0  0  0
  144.7855  138.0839  151.9222 H   0  0  0  0  0  0  0  0  0  0  0  0
  145.2414  136.6912  149.7598 H   0  0  0  0  0  0  0  0  0  0  0  0
  145.5826  134.9709  149.9109 H   0  0  0  0  0  0  0  0  0  0  0  0
  146.7870  136.1471  150.4037 H   0  0  0  0  0  0  0  0  0  0  0  0
  143.0763  135.9890  152.5800 H   0  0  0  0  0  0  0  0  0  0  0  0
  143.1390  135.7033  150.8463 H   0  0  0  0  0  0  0  0  0  0  0  0
  142.8072  133.6095  152.5144 H   0  0  0  0  0  0  0  0  0  0  0  0
  143.9773  133.4538  151.1961 H   0  0  0  0  0  0  0  0  0  0  0  0
  144.5640  134.2957  154.0709 H   0  0  0  0  0  0  0  0  0  0  0  0
  145.3509  133.0007  153.1587 H   0  0  0  0  0  0  0  0  0  0  0  0
  1  2  1  0  0  0  0
  1 21  1  0  0  0  0
  1 22  1  0  0  0  0
  1 23  1  0  0  0  0
  2 20  1  0  0  0  0
  2  3  2  0  0  0  0
  3  4  1  0  0  0  0
  3 24  1  0  0  0  0
  4  5  2  0  0  0  0
  5  6  1  0  0  0  0
  5 20  1  0  0  0  0
  6  7  1  0  0  0  0
  6  8  1  0  0  0  0
  6 25  1  0  0  0  0
  7 26  1  0  0  0  0
  7 27  1  0  0  0  0
  7 28  1  0  0  0  0
  8  9  1  0  0  0  0
  8 29  1  0  0  0  0
  8 30  1  0  0  0  0
  9 10  1  0  0  0  0
  9 31  1  0  0  0  0
 10 11  2  0  0  0  0
 10 12  1  0  0  0  0
 12 13  1  0  0  0  0
 12 32  1  0  0  0  0
 13 14  1  0  0  0  0
 13 33  1  0  0  0  0
 13 34  1  0  0  0  0
 14 19  1  0  0  0  0
 14 15  1  0  0  0  0
 14 16  1  0  0  0  0
 15 35  1  0  0  0  0
 15 36  1  0  0  0  0
 15 37  1  0  0  0  0
 16 17  1  0  0  0  0
 16 38  1  0  0  0  0
 16 39  1  0  0  0  0
 17 18  1  0  0  0  0
 17 40  1  0  0  0  0
 17 41  1  0  0  0  0
 18 19  1  0  0  0  0
 18 42  1  0  0  0  0
 18 43  1  0  0  0  0
M  END
> <s_m_source_file>
AV-unprocessed.smi

> <i_m_source_file_index>
2414

> <i_lp_mmshare_version>
43012

> <i_f3d_flags>
0

> <s_epik_input>
W0NIM11jMVtjSF1uYyhzMSlbQ0BIXShbQ0gzXSlbQ0gyXVtOSF1DKD1PKVtOSF1bQ0gyXVtDQEBdMihbQ0gzXSlbQ0gyXVtDSDJdW0NIMl1PMg==

> <s_epik_cmdline>
J2VwaWtfcHl0aG9uJywgJy1waCcsICc3LjAnLCAnLXRuJywgJzgnLCAnLW1hJywgJzIwMCcsICctbWV0YWxfYmluZGluZycsICctaW1hZScsICc8aW5maWxlLm1hZT4nLCAnLW9tYWUnLCAnPG91dGZpbGUubWFlPic=

> <r_epik_Ionization_Penalty>
0.000646956

> <r_epik_Ionization_Penalty_Charging>
0

> <r_epik_Ionization_Penalty_Neutral>
0.000646956

> <r_epik_State_Penalty>
0.000375727

> <r_epik_Charging_Adjusted_Penalty>
0.000375727

> <i_epik_Tot_Q>
0

> <i_epik_Tot_abs_Q>
0

> <r_epik_Metal_State_Penalty>
-0

> <b_epik_Metal_Only>
0

> <s_lp_Force_Field>
OPLS_2005

> <r_lp_Energy>
9.0626

> <b_lp_Chiralities_Consistent>
1

> <s_lp_Variant>
AV-unprocessed.smi:2414-3

> <Gold.Version>
5.8.1

> <Gold.Id.Protein>
6NUR|6NUR_protein|mol2

> <Gold.PLP.Fitness>
41.8893

> <Gold.PLP.PLP>
-33.4783

> <Gold.PLP.part.hbond>
-3.0000

> <Gold.PLP.part.metal>
0.0000

> <Gold.PLP.part.buried>
-1.2750

> <Gold.PLP.part.nonpolar>
-29.8193

> <Gold.PLP.part.repulsive>
0.4279

> <Gold.PLP.ligand.clash>
0.0000

> <Gold.PLP.ligand.torsion>
0.3166

> <Gold.PLP.Chemscore.Hbond>
2.0000

> <Gold.PLP.Chemscore.CHOScore>
0.9763

> <Gold.PLP.Chemscore.Metal>
0.0000

> <Gold.Chemscore.Hbonds>
donor molecule, donor type, donor heavy atom, donor atom, acceptor molecule, acceptor atom, score
      L1  H     9    31       P1  7948  0.92
      L1  H    12    32       P1  7948  1.00
      L1  C     3    24       P1  8028  1.00

> <Gold.PLP.Chemscore.Internal.Correction>
0.1152

> <Gold.Rescore>
     Score         DG    S(hbond)    S(metal)    S(lipo)     H(rot)  DE(clash)    DE(int)     intcor
     16.64     -18.63       1.92        0.00      93.68       1.65       1.59       0.41       ----

> <Gold.Chemscore.Fitness>
16.6385

> <Gold.Chemscore.DG>
-18.6343

> <Gold.Chemscore.ZeroCoef>
-5.4800

> <Gold.Chemscore.Hbond>
1.9230

> <Gold.Chemscore.Metal>
0.0000

> <Gold.Chemscore.Lipo>
93.6825

> <Gold.Chemscore.Internal_Hbond>
0.0000

> <Gold.Chemscore.DEClash>
1.5890

> <Gold.Chemscore.DEInternal>
0.4068

> <Gold.Chemscore.Rot>
1.6522

> <Gold.Chemscore.Internal.Correction>
   9.000000E+99

> <Gold.Chemscore.Hbonds>
donor molecule, donor type, donor heavy atom, donor atom, acceptor molecule, acceptor atom, score
      L1  H     9    31       P1  7948  0.84
      L1  H    12    32       P1  7948  1.00

> <Gold.Chemscore.Hbond.Weighted>
-6.4230

> <Gold.Chemscore.Metal.Weighted>
-0.0000

> <Gold.Chemscore.Lipo.Weighted>
-10.9609

> <Gold.Chemscore.Internal_Hbond.Weighted>
0.0000

> <Gold.Chemscore.DEClash.Weighted>
1.5890

> <Gold.Chemscore.DEInternal.Weighted>
0.4068

> <Gold.Chemscore.Rot.Weighted>
4.2295

> <Gold.Chemscore.Internal.Correction.Weighted>
   9.000000E+99

> <Gold.Protein.RotatedTorsions>
[ 6907 6896 6895 6894 ] final   10.13 input  -60.11 | X-H torsion
[ 7974 7965 7964 7962 ] final -101.69 input  175.53 | X-H torsion
[ 8008 7997 7996 7995 ] final   -4.49 input   59.86 | X-H torsion
[ 10167 10162 10161 10158 ] final  178.01 input  -65.29 | X-H torsion
[ 10718 10713 10712 10709 ] final   72.61 input   66.30 | X-H torsion
[ 10763 10752 10751 10750 ] final  -92.84 input  -60.55 | X-H torsion
[ 11005 11000 10999 10996 ] final   80.36 input  -57.11 | X-H torsion

> <Gold.Protein.ActiveResidues>
 VAL166  LYS551  ARG553  GLY616  TRP617  ASP618  TYR619  PRO620  LYS621  CYS622 
 ASP623  PHE694  ASN695  SER759  ASP760  ASP761  ALA762  ILE779  LEU786  VAL792 
 PHE793  MET794  SER795  GLU796  ALA797  LYS798  CYS799  TRP800  GLU811  SER814 

> <Gold.Protein.RotatedAtoms>
  151.7334  135.0870  160.0303 H   0  0  0  0  0  0  0  0  0  0  0  0  # atno 6907 bound_to 6896
  152.3527  133.6194  159.5965 H   0  0  0  0  0  0  0  0  0  0  0  0  # atno 6908 bound_to 6896
  150.7550  133.9465  159.3514 H   0  0  0  0  0  0  0  0  0  0  0  0  # atno 6909 bound_to 6896
  145.2783  140.9319  143.2946 H   0  0  0  0  0  0  0  0  0  0  0  0  # atno 7974 bound_to 7965
  154.6137  140.2482  155.7636 H   0  0  0  0  0  0  0  0  0  0  0  0  # atno 8008 bound_to 7997
  156.2386  140.2941  156.0331 H   0  0  0  0  0  0  0  0  0  0  0  0  # atno 8009 bound_to 7997
  155.2009  140.0394  157.2907 H   0  0  0  0  0  0  0  0  0  0  0  0  # atno 8010 bound_to 7997
  139.5276  144.2730  152.0612 H   0  0  0  0  0  0  0  0  0  0  0  0  # atno 10167 bound_to 10162
  157.6509  130.9587  150.0953 H   0  0  0  0  0  0  0  0  0  0  0  0  # atno 10718 bound_to 10713
  154.6901  135.5216  153.8380 H   0  0  0  0  0  0  0  0  0  0  0  0  # atno 10763 bound_to 10752
  153.0626  135.6573  154.0438 H   0  0  0  0  0  0  0  0  0  0  0  0  # atno 10764 bound_to 10752
  154.0313  135.2985  155.3348 H   0  0  0  0  0  0  0  0  0  0  0  0  # atno 10765 bound_to 10752
  139.9137  134.7914  156.1899 H   0  0  0  0  0  0  0  0  0  0  0  0  # atno 11005 bound_to 11000
  144.9275  139.4338  143.6511 LP  0  0  0  0  0  0  0  0  0  0  0  0  # atno 17320 bound_to 7965
  146.3224  139.8168  142.8934 LP  0  0  0  0  0  0  0  0  0  0  0  0  # atno 17321 bound_to 7965
  140.2189  144.4487  150.6351 LP  0  0  0  0  0  0  0  0  0  0  0  0  # atno 17342 bound_to 10162
  140.6432  143.2208  151.6245 LP  0  0  0  0  0  0  0  0  0  0  0  0  # atno 17343 bound_to 10162
  156.1890  130.3653  149.8934 LP  0  0  0  0  0  0  0  0  0  0  0  0  # atno 17370 bound_to 10713
  156.6867  130.8880  151.3583 LP  0  0  0  0  0  0  0  0  0  0  0  0  # atno 17371 bound_to 10713
  141.0590  133.6851  156.1916 LP  0  0  0  0  0  0  0  0  0  0  0  0  # atno 17394 bound_to 11000
  140.6691  134.4887  157.5586 LP  0  0  0  0  0  0  0  0  0  0  0  0  # atno 17395 bound_to 11000

$$$$
