AV-unprocessed.smi:828|AV-procd|sdf|3860|dock5
  -GOLD-   22720 1313D 1   1.00000     0.00000
 Structure written by MMmdl.
 35 36  0  0  0  0  0  0  0  0  2 V2000
  143.5854  143.9896  161.9229 C   0  0  0  0  0  0  0  0  0  0  0  0
  144.8054  143.6392  161.1418 C   0  0  0  0  0  0  0  0  0  0  0  0
  145.8245  142.9462  161.6646 N   0  0  0  0  0  0  0  0  0  0  0  0
  146.8492  142.7464  160.7498 N   0  0  0  0  0  0  0  0  0  0  0  0
  146.5709  143.2975  159.5603 C   0  0  0  0  0  0  0  0  0  0  0  0
  147.4474  143.2498  158.4443 N   0  0  0  0  0  0  0  0  0  0  0  0
  148.0421  142.1752  157.8975 C   0  0  0  0  0  0  0  0  0  0  0  0
  147.8955  141.0106  158.2697 O   0  0  0  0  0  0  0  0  0  0  0  0
  148.8351  142.5263  156.8752 N   0  0  0  0  0  0  0  0  0  0  0  0
  149.6230  141.5982  156.0699 C   0  0  0  0  0  0  0  0  0  0  0  0
  149.0325  141.4063  154.6498 C   0  0  2  0  0  0  0  0  0  0  0  0
  147.5238  141.6961  154.5751 C   0  0  0  0  0  0  0  0  0  0  0  0
  147.0317  140.8063  153.4422 C   0  0  0  0  0  0  0  0  0  0  0  0
  147.9008  139.5636  153.6015 C   0  0  0  0  0  0  0  0  0  0  0  0
  149.2250  140.0584  154.0361 N   0  3  2  0  0  0  0  0  0  0  0  0
  150.0129  139.0544  154.7885 C   0  0  0  0  0  0  0  0  0  0  0  0
  145.0204  144.1142  159.4614 S   0  0  0  0  0  0  0  0  0  0  0  0
  143.3422  143.1924  162.6260 H   0  0  0  0  0  0  0  0  0  0  0  0
  142.7369  144.1336  161.2541 H   0  0  0  0  0  0  0  0  0  0  0  0
  143.7528  144.9110  162.4806 H   0  0  0  0  0  0  0  0  0  0  0  0
  147.6522  144.1418  158.0186 H   0  0  0  0  0  0  0  0  0  0  0  0
  148.8962  143.5049  156.6339 H   0  0  0  0  0  0  0  0  0  0  0  0
  150.6499  141.9633  156.0216 H   0  0  0  0  0  0  0  0  0  0  0  0
  149.6493  140.6481  156.6036 H   0  0  0  0  0  0  0  0  0  0  0  0
  149.5375  142.0947  153.9710 H   0  0  0  0  0  0  0  0  0  0  0  0
  147.0343  141.3993  155.5038 H   0  0  0  0  0  0  0  0  0  0  0  0
  147.3054  142.7511  154.4067 H   0  0  0  0  0  0  0  0  0  0  0  0
  145.9650  140.5889  153.5040 H   0  0  0  0  0  0  0  0  0  0  0  0
  147.2276  141.2821  152.4802 H   0  0  0  0  0  0  0  0  0  0  0  0
  147.4747  138.9224  154.3750 H   0  0  0  0  0  0  0  0  0  0  0  0
  147.9717  138.9804  152.6830 H   0  0  0  0  0  0  0  0  0  0  0  0
  149.5410  138.8024  155.7387 H   0  0  0  0  0  0  0  0  0  0  0  0
  151.0245  139.4126  154.9802 H   0  0  0  0  0  0  0  0  0  0  0  0
  150.0993  138.1368  154.2060 H   0  0  0  0  0  0  0  0  0  0  0  0
  149.7417  140.2339  153.1858 H   0  0  0  0  0  0  0  0  0  0  0  0
  1  2  1  0  0  0  0
  1 18  1  0  0  0  0
  1 19  1  0  0  0  0
  1 20  1  0  0  0  0
  2 17  1  0  0  0  0
  2  3  2  0  0  0  0
  3  4  1  0  0  0  0
  4  5  2  0  0  0  0
  5  6  1  0  0  0  0
  5 17  1  0  0  0  0
  6  7  1  0  0  0  0
  6 21  1  0  0  0  0
  7  8  2  0  0  0  0
  7  9  1  0  0  0  0
  9 10  1  0  0  0  0
  9 22  1  0  0  0  0
 10 11  1  0  0  0  0
 10 23  1  0  0  0  0
 10 24  1  0  0  0  0
 11 15  1  0  0  0  0
 11 12  1  0  0  0  0
 11 25  1  0  0  0  0
 12 13  1  0  0  0  0
 12 26  1  0  0  0  0
 12 27  1  0  0  0  0
 13 14  1  0  0  0  0
 13 28  1  0  0  0  0
 13 29  1  0  0  0  0
 14 15  1  0  0  0  0
 14 30  1  0  0  0  0
 14 31  1  0  0  0  0
 15 16  1  0  0  0  0
 15 35  1  0  0  0  0
 16 32  1  0  0  0  0
 16 33  1  0  0  0  0
 16 34  1  0  0  0  0
M  CHG  1  15   1
M  END
> <s_m_source_file>
AV-unprocessed.smi

> <i_m_source_file_index>
828

> <i_lp_mmshare_version>
43012

> <i_f3d_flags>
0

> <s_epik_input>
W0NIM11jMW5uYyhzMSlbTkhdQyg9TylbTkhdW0NIMl1bQ0BASF0yW0NIMl1bQ0gyXVtDSDJdTjJbQ0gzXQ==

> <s_epik_cmdline>
J2VwaWtfcHl0aG9uJywgJy1waCcsICc3LjAnLCAnLXRuJywgJzgnLCAnLW1hJywgJzIwMCcsICctbWV0YWxfYmluZGluZycsICctaW1hZScsICc8aW5maWxlLm1hZT4nLCAnLW9tYWUnLCAnPG91dGZpbGUubWFlPic=

> <r_lp_tautomer_probability>
1

> <r_epik_Ionization_Penalty>
0.00466477

> <r_epik_Ionization_Penalty_Charging>
0.00372199

> <r_epik_Ionization_Penalty_Neutral>
0.000942783

> <r_epik_State_Penalty>
-0

> <r_epik_Charging_Adjusted_Penalty>
0.00372199

> <i_epik_Tot_Q>
1

> <i_epik_Tot_abs_Q>
1

> <r_epik_Metal_State_Penalty>
0.28212

> <b_epik_Metal_Only>
0

> <s_lp_Force_Field>
OPLS_2005

> <r_lp_Energy>
27.2564

> <b_lp_Chiralities_Consistent>
1

> <s_lp_Variant>
AV-unprocessed.smi:828-3

> <Gold.Version>
5.8.1

> <Gold.Id.Protein>
6NUR|6NUR_protein|mol2

> <Gold.PLP.Fitness>
38.9309

> <Gold.PLP.PLP>
-27.2880

> <Gold.PLP.part.hbond>
-5.8510

> <Gold.PLP.part.metal>
0.0000

> <Gold.PLP.part.buried>
-2.3869

> <Gold.PLP.part.nonpolar>
-20.5869

> <Gold.PLP.part.repulsive>
0.2890

> <Gold.PLP.ligand.clash>
0.0000

> <Gold.PLP.ligand.torsion>
0.9801

> <Gold.PLP.Chemscore.Hbond>
4.5333

> <Gold.PLP.Chemscore.CHOScore>
0.0000

> <Gold.PLP.Chemscore.Metal>
0.0000

> <Gold.Chemscore.Hbonds>
donor molecule, donor type, donor heavy atom, donor atom, acceptor molecule, acceptor atom, score
      L1  H     6    21       P1  8029  0.95
      L1  H     9    22       P1  8028  1.00
      L1  H    15    35       P1  7957  0.84
      P1  H  6933  6944       L1     4  0.86
      P1  H  6934  6946       L1     4  0.83

> <Gold.PLP.Chemscore.Internal.Correction>
0.0032

> <Gold.Rescore>
     Score         DG    S(hbond)    S(metal)    S(lipo)     H(rot)  DE(clash)    DE(int)     intcor
     18.17     -19.28       3.23        0.00      54.88       1.33       0.05       1.06       ----

> <Gold.Chemscore.Fitness>
18.1716

> <Gold.Chemscore.DG>
-19.2818

> <Gold.Chemscore.ZeroCoef>
-5.4800

> <Gold.Chemscore.Hbond>
3.2286

> <Gold.Chemscore.Metal>
0.0000

> <Gold.Chemscore.Lipo>
54.8843

> <Gold.Chemscore.Internal_Hbond>
0.0000

> <Gold.Chemscore.DEClash>
0.0536

> <Gold.Chemscore.DEInternal>
1.0566

> <Gold.Chemscore.Rot>
1.3294

> <Gold.Chemscore.Internal.Correction>
   9.000000E+99

> <Gold.Chemscore.Hbonds>
donor molecule, donor type, donor heavy atom, donor atom, acceptor molecule, acceptor atom, score
      L1  H     6    21       P1  8029  0.21
      L1  H     9    22       P1  8028  0.77
      L1  H    15    35       P1  7957  0.77
      P1  H  6933  6944       L1     4  0.79
      P1  H  6934  6946       L1     4  0.19

> <Gold.Chemscore.Hbond.Weighted>
-10.7837

> <Gold.Chemscore.Metal.Weighted>
-0.0000

> <Gold.Chemscore.Lipo.Weighted>
-6.4215

> <Gold.Chemscore.Internal_Hbond.Weighted>
0.0000

> <Gold.Chemscore.DEClash.Weighted>
0.0536

> <Gold.Chemscore.DEInternal.Weighted>
1.0566

> <Gold.Chemscore.Rot.Weighted>
3.4033

> <Gold.Chemscore.Internal.Correction.Weighted>
   9.000000E+99

> <Gold.Protein.RotatedTorsions>
[ 6907 6896 6895 6894 ] final   11.17 input  -60.11 | X-H torsion
[ 7974 7965 7964 7962 ] final -121.15 input  175.53 | X-H torsion
[ 8008 7997 7996 7995 ] final   83.97 input   59.86 | X-H torsion
[ 10167 10162 10161 10158 ] final   43.06 input  -65.29 | X-H torsion
[ 10718 10713 10712 10709 ] final  -21.25 input   66.30 | X-H torsion
[ 10763 10752 10751 10750 ] final  117.35 input  -60.55 | X-H torsion
[ 11005 11000 10999 10996 ] final   25.69 input  -57.11 | X-H torsion

> <Gold.Protein.ActiveResidues>
 VAL166  LYS551  ARG553  GLY616  TRP617  ASP618  TYR619  PRO620  LYS621  CYS622 
 ASP623  PHE694  ASN695  SER759  ASP760  ASP761  ALA762  ILE779  LEU786  VAL792 
 PHE793  MET794  SER795  GLU796  ALA797  LYS798  CYS799  TRP800  GLU811  SER814 

> <Gold.Protein.RotatedAtoms>
  151.7500  135.0835  160.0329 H   0  0  0  0  0  0  0  0  0  0  0  0  # atno 6907 bound_to 6896
  152.3423  133.6076  159.5893 H   0  0  0  0  0  0  0  0  0  0  0  0  # atno 6908 bound_to 6896
  150.7487  133.9620  159.3560 H   0  0  0  0  0  0  0  0  0  0  0  0  # atno 6909 bound_to 6896
  145.0435  140.8163  143.4252 H   0  0  0  0  0  0  0  0  0  0  0  0  # atno 7974 bound_to 7965
  155.9310  140.3415  155.6249 H   0  0  0  0  0  0  0  0  0  0  0  0  # atno 8008 bound_to 7997
  155.7158  140.0777  157.2370 H   0  0  0  0  0  0  0  0  0  0  0  0  # atno 8009 bound_to 7997
  154.4085  140.1614  156.2334 H   0  0  0  0  0  0  0  0  0  0  0  0  # atno 8010 bound_to 7997
  140.3481  144.2385  150.6148 H   0  0  0  0  0  0  0  0  0  0  0  0  # atno 10167 bound_to 10162
  156.5207  130.4632  149.6598 H   0  0  0  0  0  0  0  0  0  0  0  0  # atno 10718 bound_to 10713
  153.5511  135.3539  155.2759 H   0  0  0  0  0  0  0  0  0  0  0  0  # atno 10763 bound_to 10752
  154.8706  135.4114  154.2936 H   0  0  0  0  0  0  0  0  0  0  0  0  # atno 10764 bound_to 10752
  153.3663  135.7062  153.6741 H   0  0  0  0  0  0  0  0  0  0  0  0  # atno 10765 bound_to 10752
  140.3451  134.2291  155.7686 H   0  0  0  0  0  0  0  0  0  0  0  0  # atno 11005 bound_to 11000
  145.1617  139.2454  143.5388 LP  0  0  0  0  0  0  0  0  0  0  0  0  # atno 17320 bound_to 7965
  146.3511  140.1346  142.8596 LP  0  0  0  0  0  0  0  0  0  0  0  0  # atno 17321 bound_to 7965
  140.5245  143.2258  151.8337 LP  0  0  0  0  0  0  0  0  0  0  0  0  # atno 17342 bound_to 10162
  139.4830  144.4797  151.9323 LP  0  0  0  0  0  0  0  0  0  0  0  0  # atno 17343 bound_to 10162
  156.3152  130.7250  151.2151 LP  0  0  0  0  0  0  0  0  0  0  0  0  # atno 17370 bound_to 10713
  157.7437  131.0470  150.4924 LP  0  0  0  0  0  0  0  0  0  0  0  0  # atno 17371 bound_to 10713
  141.2028  133.7929  157.0373 LP  0  0  0  0  0  0  0  0  0  0  0  0  # atno 17394 bound_to 11000
  140.0749  134.9681  157.1529 LP  0  0  0  0  0  0  0  0  0  0  0  0  # atno 17395 bound_to 11000

$$$$
