AV-unprocessed.smi:2124|AV-procd|sdf|8670|dock1
  -GOLD-   2272011423D 1   1.00000     0.00000
 Structure written by MMmdl.
 46 48  0  0  0  0  0  0  0  0  2 V2000
  147.3643  135.9839  160.2591 C   0  0  0  0  0  0  0  0  0  0  0  0
  148.1783  136.7246  159.2198 C   0  0  0  0  0  0  0  0  0  0  0  0
  147.6285  137.6656  158.5513 N   0  0  0  0  0  0  0  0  0  0  0  0
  148.3766  138.3536  157.5807 C   0  0  0  0  0  0  0  0  0  0  0  0
  147.6396  139.4497  156.8311 C   0  0  0  0  0  0  0  0  0  0  0  0
  149.6804  138.0347  157.3392 C   0  0  0  0  0  0  0  0  0  0  0  0
  150.5439  138.7421  156.2959 C   0  0  0  0  0  0  0  0  0  0  0  0
  151.7357  139.5333  156.8406 C   0  0  0  0  0  0  0  0  0  0  0  0
  152.8443  139.4382  156.3134 O   0  0  0  0  0  0  0  0  0  0  0  0
  151.4888  140.3139  157.9037 N   0  0  0  0  0  0  0  0  0  0  0  0
  152.4604  141.1771  158.5725 C   0  0  2  0  0  0  0  0  0  0  0  0
  153.1502  140.3812  159.6964 C   0  0  0  0  0  0  0  0  0  0  0  0
  151.7442  142.4493  159.0899 C   0  0  2  0  0  0  0  0  0  0  0  0
  150.9280  143.1904  158.0001 C   0  0  0  0  0  0  0  0  0  0  0  0
  151.4543  144.6338  158.0807 C   0  0  1  0  0  0  0  0  0  0  0  0
  150.9953  145.2780  159.4014 C   0  0  0  0  0  0  0  0  0  0  0  0
  151.8714  144.5637  160.4472 C   0  0  0  0  0  0  0  0  0  0  0  0
  152.6857  143.5744  159.5910 C   0  0  2  0  0  0  0  0  0  0  0  0
  152.9373  144.4019  158.3346 C   0  0  0  0  0  0  0  0  0  0  0  0
  150.2797  136.9516  158.1383 C   0  0  0  0  0  0  0  0  0  0  0  0
  151.4588  136.6404  157.9729 O   0  0  0  0  0  0  0  0  0  0  0  0
  149.4860  136.3266  159.0541 N   0  5  0  0  0  0  0  0  0  0  0  0
  146.4464  136.5236  160.4954 H   0  0  0  0  0  0  0  0  0  0  0  0
  147.9355  135.8660  161.1805 H   0  0  0  0  0  0  0  0  0  0  0  0
  147.0954  134.9943  159.8892 H   0  0  0  0  0  0  0  0  0  0  0  0
  147.5349  139.1872  155.7784 H   0  0  0  0  0  0  0  0  0  0  0  0
  148.1778  140.3948  156.9019 H   0  0  0  0  0  0  0  0  0  0  0  0
  146.6404  139.6040  157.2396 H   0  0  0  0  0  0  0  0  0  0  0  0
  150.8897  138.0174  155.5573 H   0  0  0  0  0  0  0  0  0  0  0  0
  149.9266  139.4376  155.7280 H   0  0  0  0  0  0  0  0  0  0  0  0
  150.5459  140.3292  158.2648 H   0  0  0  0  0  0  0  0  0  0  0  0
  153.2183  141.4781  157.8474 H   0  0  0  0  0  0  0  0  0  0  0  0
  153.9426  140.9559  160.1738 H   0  0  0  0  0  0  0  0  0  0  0  0
  153.6109  139.4718  159.3091 H   0  0  0  0  0  0  0  0  0  0  0  0
  152.4389  140.0876  160.4689 H   0  0  0  0  0  0  0  0  0  0  0  0
  151.0761  142.1494  159.8992 H   0  0  0  0  0  0  0  0  0  0  0  0
  151.1237  142.7850  157.0062 H   0  0  0  0  0  0  0  0  0  0  0  0
  149.8530  143.1291  158.1732 H   0  0  0  0  0  0  0  0  0  0  0  0
  151.2254  145.2318  157.1983 H   0  0  0  0  0  0  0  0  0  0  0  0
  151.1937  146.3507  159.4033 H   0  0  0  0  0  0  0  0  0  0  0  0
  149.9294  145.1332  159.5813 H   0  0  0  0  0  0  0  0  0  0  0  0
  152.5304  145.2773  160.9436 H   0  0  0  0  0  0  0  0  0  0  0  0
  151.2818  144.0656  161.2177 H   0  0  0  0  0  0  0  0  0  0  0  0
  153.5872  143.2285  160.0947 H   0  0  0  0  0  0  0  0  0  0  0  0
  153.4325  143.8467  157.5364 H   0  0  0  0  0  0  0  0  0  0  0  0
  153.4919  145.3222  158.5261 H   0  0  0  0  0  0  0  0  0  0  0  0
  1  2  1  0  0  0  0
  1 23  1  0  0  0  0
  1 24  1  0  0  0  0
  1 25  1  0  0  0  0
  2 22  1  0  0  0  0
  2  3  2  0  0  0  0
  3  4  1  0  0  0  0
  4  5  1  0  0  0  0
  4  6  2  0  0  0  0
  5 26  1  0  0  0  0
  5 27  1  0  0  0  0
  5 28  1  0  0  0  0
  6  7  1  0  0  0  0
  6 20  1  0  0  0  0
  7  8  1  0  0  0  0
  7 29  1  0  0  0  0
  7 30  1  0  0  0  0
  8  9  2  0  0  0  0
  8 10  1  0  0  0  0
 10 11  1  0  0  0  0
 10 31  1  0  0  0  0
 11 12  1  0  0  0  0
 11 13  1  0  0  0  0
 11 32  1  0  0  0  0
 12 33  1  0  0  0  0
 12 34  1  0  0  0  0
 12 35  1  0  0  0  0
 13 18  1  0  0  0  0
 13 14  1  0  0  0  0
 13 36  1  0  0  0  0
 14 15  1  0  0  0  0
 14 37  1  0  0  0  0
 14 38  1  0  0  0  0
 15 19  1  0  0  0  0
 15 16  1  0  0  0  0
 15 39  1  0  0  0  0
 16 17  1  0  0  0  0
 16 40  1  0  0  0  0
 16 41  1  0  0  0  0
 17 18  1  0  0  0  0
 17 42  1  0  0  0  0
 17 43  1  0  0  0  0
 18 19  1  0  0  0  0
 18 44  1  0  0  0  0
 19 45  1  0  0  0  0
 19 46  1  0  0  0  0
 20 21  2  0  0  0  0
 20 22  1  0  0  0  0
M  CHG  1  22  -1
M  END
> <s_m_source_file>
AV-unprocessed.smi

> <i_m_source_file_index>
2124

> <i_lp_mmshare_version>
43012

> <i_f3d_flags>
0

> <s_epik_input>
W0NIM11jMW5jKFtDSDNdKWMoYyg9TylbbkhdMSlbQ0gyXUMoPU8pW05IXVtDQEhdKFtDSDNdKVtDQEhdKFtDSDJdW0NASF0yMylbQ0BIXShbQ0gyXTMpW0NIMl1bQ0gyXTI=

> <s_epik_cmdline>
J2VwaWtfcHl0aG9uJywgJy1waCcsICc3LjAnLCAnLXRuJywgJzgnLCAnLW1hJywgJzIwMCcsICctbWV0YWxfYmluZGluZycsICctaW1hZScsICc8aW5maWxlLm1hZT4nLCAnLW9tYWUnLCAnPG91dGZpbGUubWFlPic=

> <r_lp_tautomer_probability>
0.839158

> <r_epik_Ionization_Penalty>
6.63797

> <r_epik_Ionization_Penalty_Charging>
7.48558e-08

> <r_epik_Ionization_Penalty_Neutral>
6.63797

> <r_epik_State_Penalty>
4.49496

> <r_epik_Charging_Adjusted_Penalty>
4.49496

> <i_epik_Tot_Q>
-1

> <i_epik_Tot_abs_Q>
1

> <r_epik_Metal_State_Penalty>
0.841241

> <b_epik_Metal_Only>
1

> <s_lp_Force_Field>
OPLS_2005

> <r_lp_Energy>
56.157

> <b_lp_Chiralities_Consistent>
1

> <s_lp_Variant>
AV-unprocessed.smi:2124-21

> <Gold.Version>
5.8.1

> <Gold.Id.Protein>
6NUR|6NUR_protein|mol2

> <Gold.PLP.Fitness>
51.2701

> <Gold.PLP.PLP>
-42.3495

> <Gold.PLP.part.hbond>
-3.6044

> <Gold.PLP.part.metal>
0.0000

> <Gold.PLP.part.buried>
-6.8648

> <Gold.PLP.part.nonpolar>
-33.5188

> <Gold.PLP.part.repulsive>
0.0977

> <Gold.PLP.ligand.clash>
0.0000

> <Gold.PLP.ligand.torsion>
0.6382

> <Gold.PLP.Chemscore.Hbond>
3.3731

> <Gold.PLP.Chemscore.CHOScore>
0.0000

> <Gold.PLP.Chemscore.Metal>
0.0000

> <Gold.Chemscore.Hbonds>
donor molecule, donor type, donor heavy atom, donor atom, acceptor molecule, acceptor atom, score
      P1  H  6896  6909       L1    22  1.59
      P1  H  7997  8009       L1     9  1.00

> <Gold.PLP.Chemscore.Internal.Correction>
0.0777

> <Gold.Rescore>
     Score         DG    S(hbond)    S(metal)    S(lipo)     H(rot)  DE(clash)    DE(int)     intcor
     20.68     -21.16       1.95        0.00     113.43       1.61       0.01       0.48       ----

> <Gold.Chemscore.Fitness>
20.6802

> <Gold.Chemscore.DG>
-21.1620

> <Gold.Chemscore.ZeroCoef>
-5.4800

> <Gold.Chemscore.Hbond>
1.9519

> <Gold.Chemscore.Metal>
0.0000

> <Gold.Chemscore.Lipo>
113.4333

> <Gold.Chemscore.Internal_Hbond>
0.0000

> <Gold.Chemscore.DEClash>
0.0058

> <Gold.Chemscore.DEInternal>
0.4760

> <Gold.Chemscore.Rot>
1.6051

> <Gold.Chemscore.Internal.Correction>
   9.000000E+99

> <Gold.Chemscore.Hbonds>
donor molecule, donor type, donor heavy atom, donor atom, acceptor molecule, acceptor atom, score
      P1  H  6896  6909       L1    22  0.24
      P1  H  7997  8009       L1     9  1.00

> <Gold.Chemscore.Hbond.Weighted>
-6.5193

> <Gold.Chemscore.Metal.Weighted>
-0.0000

> <Gold.Chemscore.Lipo.Weighted>
-13.2717

> <Gold.Chemscore.Internal_Hbond.Weighted>
0.0000

> <Gold.Chemscore.DEClash.Weighted>
0.0058

> <Gold.Chemscore.DEInternal.Weighted>
0.4760

> <Gold.Chemscore.Rot.Weighted>
4.1090

> <Gold.Chemscore.Internal.Correction.Weighted>
   9.000000E+99

> <Gold.Protein.RotatedTorsions>
[ 6907 6896 6895 6894 ] final   57.71 input  -60.11 | X-H torsion
[ 7974 7965 7964 7962 ] final   52.91 input  175.53 | X-H torsion
[ 8008 7997 7996 7995 ] final -173.73 input   59.86 | X-H torsion
[ 10167 10162 10161 10158 ] final   -3.65 input  -65.29 | X-H torsion
[ 10718 10713 10712 10709 ] final  124.23 input   66.30 | X-H torsion
[ 10763 10752 10751 10750 ] final   64.39 input  -60.55 | X-H torsion
[ 11005 11000 10999 10996 ] final  118.43 input  -57.11 | X-H torsion

> <Gold.Protein.ActiveResidues>
 VAL166  LYS551  ARG553  GLY616  TRP617  ASP618  TYR619  PRO620  LYS621  CYS622 
 ASP623  PHE694  ASN695  SER759  ASP760  ASP761  ALA762  ILE779  LEU786  VAL792 
 PHE793  MET794  SER795  GLU796  ALA797  LYS798  CYS799  TRP800  GLU811  SER814 

> <Gold.Protein.RotatedAtoms>
  152.3757  134.6667  160.0160 H   0  0  0  0  0  0  0  0  0  0  0  0  # atno 6907 bound_to 6896
  151.6946  133.3305  159.3259 H   0  0  0  0  0  0  0  0  0  0  0  0  # atno 6908 bound_to 6896
  150.7707  134.6604  159.6381 H   0  0  0  0  0  0  0  0  0  0  0  0  # atno 6909 bound_to 6896
  145.9765  139.4200  143.0158 H   0  0  0  0  0  0  0  0  0  0  0  0  # atno 7974 bound_to 7965
  155.9612  140.1145  157.0894 H   0  0  0  0  0  0  0  0  0  0  0  0  # atno 8008 bound_to 7997
  154.4132  140.1181  156.5248 H   0  0  0  0  0  0  0  0  0  0  0  0  # atno 8009 bound_to 7997
  155.6718  140.3473  155.4823 H   0  0  0  0  0  0  0  0  0  0  0  0  # atno 8010 bound_to 7997
  140.6898  143.6515  150.8346 H   0  0  0  0  0  0  0  0  0  0  0  0  # atno 10167 bound_to 10162
  157.5602  131.1090  150.8552 H   0  0  0  0  0  0  0  0  0  0  0  0  # atno 10718 bound_to 10713
  153.0054  135.5394  154.6503 H   0  0  0  0  0  0  0  0  0  0  0  0  # atno 10763 bound_to 10752
  154.5737  135.2844  155.0804 H   0  0  0  0  0  0  0  0  0  0  0  0  # atno 10764 bound_to 10752
  154.1960  135.6492  153.5126 H   0  0  0  0  0  0  0  0  0  0  0  0  # atno 10765 bound_to 10752
  139.9109  134.9620  156.7501 H   0  0  0  0  0  0  0  0  0  0  0  0  # atno 11005 bound_to 11000
  145.7831  140.9848  143.1089 LP  0  0  0  0  0  0  0  0  0  0  0  0  # atno 17320 bound_to 7965
  144.6850  139.9589  143.7480 LP  0  0  0  0  0  0  0  0  0  0  0  0  # atno 17321 bound_to 7965
  140.0227  143.5526  152.2794 LP  0  0  0  0  0  0  0  0  0  0  0  0  # atno 17342 bound_to 10162
  139.6290  144.7641  151.2577 LP  0  0  0  0  0  0  0  0  0  0  0  0  # atno 17343 bound_to 10162
  156.9052  130.5261  149.5281 LP  0  0  0  0  0  0  0  0  0  0  0  0  # atno 17370 bound_to 10713
  156.0655  130.5699  150.9280 LP  0  0  0  0  0  0  0  0  0  0  0  0  # atno 17371 bound_to 10713
  140.6780  133.9500  155.7894 LP  0  0  0  0  0  0  0  0  0  0  0  0  # atno 17394 bound_to 11000
  141.0530  134.0457  157.3758 LP  0  0  0  0  0  0  0  0  0  0  0  0  # atno 17395 bound_to 11000

$$$$
