AV-unprocessed.smi:907|AV-procd|sdf|4113|dock4
  -GOLD-   22720 2 13D 1   1.00000     0.00000
 Structure written by MMmdl.
 54 57  0  0  0  0  0  0  0  0  3 V2000
  153.1503  138.9656  155.6556 O   0  0  0  0  0  0  0  0  0  0  0  0
  151.9506  139.0737  155.3989 C   0  0  0  0  0  0  0  0  0  0  0  0
  151.1576  139.9453  156.0461 N   0  0  0  0  0  0  0  0  0  0  0  0
  151.6064  140.8829  157.0701 C   0  0  0  0  0  0  0  0  0  0  0  0
  150.8357  142.2125  157.0035 C   0  0  0  0  0  0  0  0  0  0  0  0
  151.2354  143.1635  158.1149 C   0  0  0  0  0  0  0  0  0  0  0  0
  152.1008  142.7718  159.1594 C   0  0  0  0  0  0  0  0  0  0  0  0
  152.4403  143.7057  160.1605 C   0  0  0  0  0  0  0  0  0  0  0  0
  151.9094  145.0107  160.0954 C   0  0  0  0  0  0  0  0  0  0  0  0
  151.0514  145.3490  159.0289 C   0  0  0  0  0  0  0  0  0  0  0  0
  150.7497  144.4260  158.0891 N   0  3  0  0  0  0  0  0  0  0  0  0
  151.3113  138.2833  154.5012 N   0  0  0  0  0  0  0  0  0  0  0  0
  151.6983  136.9174  154.1240 C   0  0  0  0  0  0  0  0  0  0  0  0
  150.7357  135.9159  154.7915 C   0  0  0  0  0  0  0  0  0  0  0  0
  149.3100  136.2093  154.4641 N   0  3  0  0  0  0  0  0  0  0  0  0
  148.3518  135.2655  155.1092 C   0  0  1  0  0  0  0  0  0  0  0  0
  146.9818  135.1562  154.3948 C   0  0  0  0  0  0  0  0  0  0  0  0
  146.7823  133.6358  154.2498 C   0  0  1  0  0  0  0  0  0  0  0  0
  147.6879  133.1244  153.1166 C   0  0  0  0  0  0  0  0  0  0  0  0
  149.0923  133.2388  153.7351 C   0  0  0  0  0  0  0  0  0  0  0  0
  148.8054  133.7843  155.1515 C   0  0  2  0  0  0  0  0  0  0  0  0
  147.4895  133.0886  155.4838 C   0  0  0  0  0  0  0  0  0  0  0  0
  148.9613  137.6380  154.7107 C   0  0  0  0  0  0  0  0  0  0  0  0
  149.9599  138.5878  154.0268 C   0  0  0  0  0  0  0  0  0  0  0  0
  150.1761  139.9612  155.8093 H   0  0  0  0  0  0  0  0  0  0  0  0
  151.5001  140.4301  158.0574 H   0  0  0  0  0  0  0  0  0  0  0  0
  152.6723  141.0607  156.9245 H   0  0  0  0  0  0  0  0  0  0  0  0
  151.0063  142.6976  156.0416 H   0  0  0  0  0  0  0  0  0  0  0  0
  149.7617  142.0321  157.0688 H   0  0  0  0  0  0  0  0  0  0  0  0
  152.5020  141.7691  159.1939 H   0  0  0  0  0  0  0  0  0  0  0  0
  153.1011  143.4243  160.9675 H   0  0  0  0  0  0  0  0  0  0  0  0
  152.1578  145.7410  160.8518 H   0  0  0  0  0  0  0  0  0  0  0  0
  150.6013  146.3225  158.8998 H   0  0  0  0  0  0  0  0  0  0  0  0
  151.6417  136.8194  153.0388 H   0  0  0  0  0  0  0  0  0  0  0  0
  152.7253  136.6629  154.3856 H   0  0  0  0  0  0  0  0  0  0  0  0
  151.0014  134.9115  154.4637 H   0  0  0  0  0  0  0  0  0  0  0  0
  150.8685  135.9423  155.8743 H   0  0  0  0  0  0  0  0  0  0  0  0
  148.1896  135.6024  156.1351 H   0  0  0  0  0  0  0  0  0  0  0  0
  146.1960  135.5994  155.0077 H   0  0  0  0  0  0  0  0  0  0  0  0
  146.9563  135.6434  153.4196 H   0  0  0  0  0  0  0  0  0  0  0  0
  145.7390  133.3374  154.1429 H   0  0  0  0  0  0  0  0  0  0  0  0
  147.4586  132.0856  152.8746 H   0  0  0  0  0  0  0  0  0  0  0  0
  147.5844  133.7103  152.2024 H   0  0  0  0  0  0  0  0  0  0  0  0
  149.5632  132.2565  153.7896 H   0  0  0  0  0  0  0  0  0  0  0  0
  149.7500  133.8855  153.1542 H   0  0  0  0  0  0  0  0  0  0  0  0
  149.6024  133.5856  155.8685 H   0  0  0  0  0  0  0  0  0  0  0  0
  147.0437  133.4230  156.4224 H   0  0  0  0  0  0  0  0  0  0  0  0
  147.5644  131.9995  155.4926 H   0  0  0  0  0  0  0  0  0  0  0  0
  147.9598  137.8598  154.3443 H   0  0  0  0  0  0  0  0  0  0  0  0
  148.9506  137.8273  155.7855 H   0  0  0  0  0  0  0  0  0  0  0  0
  149.6759  139.6256  154.2081 H   0  0  0  0  0  0  0  0  0  0  0  0
  149.9196  138.4578  152.9441 H   0  0  0  0  0  0  0  0  0  0  0  0
  149.2201  136.0661  153.4684 H   0  0  0  0  0  0  0  0  0  0  0  0
  150.1268  144.6936  157.3266 H   0  0  0  0  0  0  0  0  0  0  0  0
  1  2  2  0  0  0  0
  2  3  1  0  0  0  0
  2 12  1  0  0  0  0
  3  4  1  0  0  0  0
  3 25  1  0  0  0  0
  4  5  1  0  0  0  0
  4 26  1  0  0  0  0
  4 27  1  0  0  0  0
  5  6  1  0  0  0  0
  5 28  1  0  0  0  0
  5 29  1  0  0  0  0
  6 11  1  0  0  0  0
  6  7  2  0  0  0  0
  7  8  1  0  0  0  0
  7 30  1  0  0  0  0
  8  9  2  0  0  0  0
  8 31  1  0  0  0  0
  9 10  1  0  0  0  0
  9 32  1  0  0  0  0
 10 11  2  0  0  0  0
 10 33  1  0  0  0  0
 11 54  1  0  0  0  0
 12 24  1  0  0  0  0
 12 13  1  0  0  0  0
 13 14  1  0  0  0  0
 13 34  1  0  0  0  0
 13 35  1  0  0  0  0
 14 15  1  0  0  0  0
 14 36  1  0  0  0  0
 14 37  1  0  0  0  0
 15 16  1  0  0  0  0
 15 23  1  0  0  0  0
 15 53  1  0  0  0  0
 16 21  1  0  0  0  0
 16 17  1  0  0  0  0
 16 38  1  0  0  0  0
 17 18  1  0  0  0  0
 17 39  1  0  0  0  0
 17 40  1  0  0  0  0
 18 22  1  0  0  0  0
 18 19  1  0  0  0  0
 18 41  1  0  0  0  0
 19 20  1  0  0  0  0
 19 42  1  0  0  0  0
 19 43  1  0  0  0  0
 20 21  1  0  0  0  0
 20 44  1  0  0  0  0
 20 45  1  0  0  0  0
 21 22  1  0  0  0  0
 21 46  1  0  0  0  0
 22 47  1  0  0  0  0
 22 48  1  0  0  0  0
 23 24  1  0  0  0  0
 23 49  1  0  0  0  0
 23 50  1  0  0  0  0
 24 51  1  0  0  0  0
 24 52  1  0  0  0  0
M  CHG  1  11   1
M  CHG  1  15   1
M  END
> <s_m_source_file>
AV-unprocessed.smi

> <i_m_source_file_index>
907

> <i_lp_mmshare_version>
43012

> <i_f3d_flags>
0

> <s_epik_input>
W0NIMl0xW0NIMl1bQ0BASF0oW0NIMl0yKVtDQEBIXShbQ0gyXVtDQEhdMTIpTihbQ0gyXVtDSDJdMylbQ0gyXVtDSDJdTjNDKD1PKVtOSF1bQ0gyXVtDSDJdYzRbY0hdW2NIXVtjSF1bY0hdbjQ=

> <s_epik_cmdline>
J2VwaWtfcHl0aG9uJywgJy1waCcsICc3LjAnLCAnLXRuJywgJzgnLCAnLW1hJywgJzIwMCcsICctbWV0YWxfYmluZGluZycsICctaW1hZScsICc8aW5maWxlLm1hZT4nLCAnLW9tYWUnLCAnPG91dGZpbGUubWFlPic=

> <r_epik_Ionization_Penalty>
1.63018

> <r_epik_Ionization_Penalty_Charging>
1.63015

> <r_epik_Ionization_Penalty_Neutral>
2.64641e-05

> <r_epik_State_Penalty>
1.72761

> <r_epik_Charging_Adjusted_Penalty>
3.35777

> <i_epik_Tot_Q>
2

> <i_epik_Tot_abs_Q>
2

> <r_epik_Metal_State_Penalty>
1.76501

> <b_epik_Metal_Only>
0

> <s_lp_Force_Field>
OPLS_2005

> <r_lp_Energy>
102.542

> <b_lp_Chiralities_Consistent>
1

> <s_lp_Variant>
AV-unprocessed.smi:907-8

> <Gold.Version>
5.8.1

> <Gold.Id.Protein>
6NUR|6NUR_protein|mol2

> <Gold.PLP.Fitness>
54.1756

> <Gold.PLP.PLP>
-41.9464

> <Gold.PLP.part.hbond>
-3.0803

> <Gold.PLP.part.metal>
0.0000

> <Gold.PLP.part.buried>
1.6249

> <Gold.PLP.part.nonpolar>
-41.8711

> <Gold.PLP.part.repulsive>
0.2109

> <Gold.PLP.ligand.clash>
1.3742

> <Gold.PLP.ligand.torsion>
0.7505

> <Gold.PLP.Chemscore.Hbond>
5.0000

> <Gold.PLP.Chemscore.CHOScore>
0.0000

> <Gold.PLP.Chemscore.Metal>
0.0000

> <Gold.Chemscore.Hbonds>
donor molecule, donor type, donor heavy atom, donor atom, acceptor molecule, acceptor atom, score
      L1  H    11    54       P1  8028  1.95
      L1  H    15    53       P1  7948  2.00
      P1  H  7997  8008       L1     1  1.00

> <Gold.PLP.Chemscore.Internal.Correction>
0.1044

> <Gold.Rescore>
     Score         DG    S(hbond)    S(metal)    S(lipo)     H(rot)  DE(clash)    DE(int)     intcor
     20.92     -23.95       2.48        0.00     118.86       1.46       2.29       0.74       ----

> <Gold.Chemscore.Fitness>
20.9170

> <Gold.Chemscore.DG>
-23.9487

> <Gold.Chemscore.ZeroCoef>
-5.4800

> <Gold.Chemscore.Hbond>
2.4828

> <Gold.Chemscore.Metal>
0.0000

> <Gold.Chemscore.Lipo>
118.8615

> <Gold.Chemscore.Internal_Hbond>
0.0000

> <Gold.Chemscore.DEClash>
2.2921

> <Gold.Chemscore.DEInternal>
0.7396

> <Gold.Chemscore.Rot>
1.4572

> <Gold.Chemscore.Internal.Correction>
   9.000000E+99

> <Gold.Chemscore.Hbonds>
donor molecule, donor type, donor heavy atom, donor atom, acceptor molecule, acceptor atom, score
      L1  H    11    54       P1  8028  0.24
      L1  H    15    53       P1  7948  0.81
      P1  H  7997  8008       L1     1  0.99

> <Gold.Chemscore.Hbond.Weighted>
-8.2925

> <Gold.Chemscore.Metal.Weighted>
-0.0000

> <Gold.Chemscore.Lipo.Weighted>
-13.9068

> <Gold.Chemscore.Internal_Hbond.Weighted>
0.0000

> <Gold.Chemscore.DEClash.Weighted>
2.2921

> <Gold.Chemscore.DEInternal.Weighted>
0.7396

> <Gold.Chemscore.Rot.Weighted>
3.7305

> <Gold.Chemscore.Internal.Correction.Weighted>
   9.000000E+99

> <Gold.Protein.RotatedTorsions>
[ 6907 6896 6895 6894 ] final    1.87 input  -60.11 | X-H torsion
[ 7974 7965 7964 7962 ] final -135.17 input  175.53 | X-H torsion
[ 8008 7997 7996 7995 ] final  -28.65 input   59.86 | X-H torsion
[ 10167 10162 10161 10158 ] final  110.67 input  -65.29 | X-H torsion
[ 10718 10713 10712 10709 ] final   48.01 input   66.30 | X-H torsion
[ 10763 10752 10751 10750 ] final  -34.14 input  -60.55 | X-H torsion
[ 11005 11000 10999 10996 ] final -176.29 input  -57.11 | X-H torsion

> <Gold.Protein.ActiveResidues>
 VAL166  LYS551  ARG553  GLY616  TRP617  ASP618  TYR619  PRO620  LYS621  CYS622 
 ASP623  PHE694  ASN695  SER759  ASP760  ASP761  ALA762  ILE779  LEU786  VAL792 
 PHE793  MET794  SER795  GLU796  ALA797  LYS798  CYS799  TRP800  GLU811  SER814 

> <Gold.Protein.RotatedAtoms>
  151.5996  135.1048  160.0056 H   0  0  0  0  0  0  0  0  0  0  0  0  # atno 6907 bound_to 6896
  152.4265  133.7199  159.6538 H   0  0  0  0  0  0  0  0  0  0  0  0  # atno 6908 bound_to 6896
  150.8154  133.8275  159.3185 H   0  0  0  0  0  0  0  0  0  0  0  0  # atno 6909 bound_to 6896
  144.9038  140.6806  143.5068 H   0  0  0  0  0  0  0  0  0  0  0  0  # atno 7974 bound_to 7965
  154.4323  140.1839  156.1122 H   0  0  0  0  0  0  0  0  0  0  0  0  # atno 8008 bound_to 7997
  156.0208  140.3341  155.7012 H   0  0  0  0  0  0  0  0  0  0  0  0  # atno 8009 bound_to 7997
  155.5978  140.0637  157.2732 H   0  0  0  0  0  0  0  0  0  0  0  0  # atno 8010 bound_to 7997
  139.6670  144.7127  151.1758 H   0  0  0  0  0  0  0  0  0  0  0  0  # atno 10167 bound_to 10162
  157.4643  130.8216  149.7920 H   0  0  0  0  0  0  0  0  0  0  0  0  # atno 10718 bound_to 10713
  153.8418  135.6857  153.4802 H   0  0  0  0  0  0  0  0  0  0  0  0  # atno 10763 bound_to 10752
  153.1449  135.4642  154.9549 H   0  0  0  0  0  0  0  0  0  0  0  0  # atno 10764 bound_to 10752
  154.7841  135.3279  154.7871 H   0  0  0  0  0  0  0  0  0  0  0  0  # atno 10765 bound_to 10752
  140.4537  134.6319  157.4812 H   0  0  0  0  0  0  0  0  0  0  0  0  # atno 11005 bound_to 11000
  145.3571  139.1691  143.4403 LP  0  0  0  0  0  0  0  0  0  0  0  0  # atno 17320 bound_to 7965
  146.3122  140.3629  142.8666 LP  0  0  0  0  0  0  0  0  0  0  0  0  # atno 17321 bound_to 7965
  140.7603  143.5904  150.8802 LP  0  0  0  0  0  0  0  0  0  0  0  0  # atno 17342 bound_to 10162
  139.9566  143.6211  152.3014 LP  0  0  0  0  0  0  0  0  0  0  0  0  # atno 17343 bound_to 10162
  156.0043  130.3863  150.2488 LP  0  0  0  0  0  0  0  0  0  0  0  0  # atno 17370 bound_to 10713
  157.0668  131.0105  151.3204 LP  0  0  0  0  0  0  0  0  0  0  0  0  # atno 17371 bound_to 10713
  139.9990  134.6866  155.9562 LP  0  0  0  0  0  0  0  0  0  0  0  0  # atno 17394 bound_to 11000
  141.1652  133.6537  156.4456 LP  0  0  0  0  0  0  0  0  0  0  0  0  # atno 17395 bound_to 11000

$$$$
