AV-unprocessed.smi:453|AV-procd|sdf|2611|dock8
  -GOLD-   2262023 13D 1   1.00000     0.00000
 Structure written by MMmdl.
 43 44  0  0  0  0  0  0  0  0  1 V2000
  143.8518  133.6317  151.1932 C   0  0  0  0  0  0  0  0  0  0  0  0
  145.2482  134.0513  150.6975 C   0  0  0  0  0  0  0  0  0  0  0  0
  146.0542  132.8160  150.2674 C   0  0  0  0  0  0  0  0  0  0  0  0
  146.0411  134.8818  151.7331 C   0  0  0  0  0  0  0  0  0  0  0  0
  145.6477  136.3622  151.7689 C   0  0  0  0  0  0  0  0  0  0  0  0
  144.4831  136.6889  151.9965 O   0  0  0  0  0  0  0  0  0  0  0  0
  146.6354  137.2476  151.5657 N   0  0  0  0  0  0  0  0  0  0  0  0
  146.4735  138.6982  151.5669 C   0  0  0  0  0  0  0  0  0  0  0  0
  147.1318  139.4125  152.7398 C   0  0  0  0  0  0  0  0  0  0  0  0
  147.0336  140.8128  152.8551 C   0  0  0  0  0  0  0  0  0  0  0  0
  147.6627  141.4586  153.9363 C   0  0  0  0  0  0  0  0  0  0  0  0
  148.3829  140.6859  154.8779 C   0  0  0  0  0  0  0  0  0  0  0  0
  149.0270  141.3131  155.9666 N   0  0  0  0  0  0  0  0  0  0  0  0
  148.5036  141.0636  157.3085 C   0  0  0  0  0  0  0  0  0  0  0  0
  149.1350  142.0352  158.3195 C   0  0  0  0  0  0  0  0  0  0  0  0
  150.5539  141.9365  158.2571 O   0  0  0  0  0  0  0  0  0  0  0  0
  151.0528  142.2906  156.9716 C   0  0  0  0  0  0  0  0  0  0  0  0
  150.4868  141.3318  155.9097 C   0  0  0  0  0  0  0  0  0  0  0  0
  148.4739  139.3376  154.7660 N   0  0  0  0  0  0  0  0  0  0  0  0
  147.8695  138.7237  153.7271 C   0  0  0  0  0  0  0  0  0  0  0  0
  143.9168  133.0521  152.1147 H   0  0  0  0  0  0  0  0  0  0  0  0
  143.3425  133.0170  150.4506 H   0  0  0  0  0  0  0  0  0  0  0  0
  143.2122  134.4932  151.3840 H   0  0  0  0  0  0  0  0  0  0  0  0
  145.1091  134.6666  149.8072 H   0  0  0  0  0  0  0  0  0  0  0  0
  146.2325  132.1466  151.1097 H   0  0  0  0  0  0  0  0  0  0  0  0
  147.0235  133.1005  149.8573 H   0  0  0  0  0  0  0  0  0  0  0  0
  145.5276  132.2500  149.4982 H   0  0  0  0  0  0  0  0  0  0  0  0
  145.9051  134.4606  152.7303 H   0  0  0  0  0  0  0  0  0  0  0  0
  147.1096  134.8119  151.5226 H   0  0  0  0  0  0  0  0  0  0  0  0
  147.5642  136.8911  151.3927 H   0  0  0  0  0  0  0  0  0  0  0  0
  146.9103  139.0858  150.6464 H   0  0  0  0  0  0  0  0  0  0  0  0
  145.4121  138.9507  151.5322 H   0  0  0  0  0  0  0  0  0  0  0  0
  146.4811  141.3878  152.1266 H   0  0  0  0  0  0  0  0  0  0  0  0
  147.5752  142.5301  154.0366 H   0  0  0  0  0  0  0  0  0  0  0  0
  147.4196  141.1850  157.3198 H   0  0  0  0  0  0  0  0  0  0  0  0
  148.7206  140.0337  157.5957 H   0  0  0  0  0  0  0  0  0  0  0  0
  148.8215  143.0614  158.1209 H   0  0  0  0  0  0  0  0  0  0  0  0
  148.8060  141.7917  159.3298 H   0  0  0  0  0  0  0  0  0  0  0  0
  150.7917  143.3247  156.7403 H   0  0  0  0  0  0  0  0  0  0  0  0
  152.1413  142.2335  156.9857 H   0  0  0  0  0  0  0  0  0  0  0  0
  150.8578  140.3210  156.0855 H   0  0  0  0  0  0  0  0  0  0  0  0
  150.8502  141.6358  154.9291 H   0  0  0  0  0  0  0  0  0  0  0  0
  147.9890  137.6512  153.6871 H   0  0  0  0  0  0  0  0  0  0  0  0
  1  2  1  0  0  0  0
  1 21  1  0  0  0  0
  1 22  1  0  0  0  0
  1 23  1  0  0  0  0
  2  3  1  0  0  0  0
  2  4  1  0  0  0  0
  2 24  1  0  0  0  0
  3 25  1  0  0  0  0
  3 26  1  0  0  0  0
  3 27  1  0  0  0  0
  4  5  1  0  0  0  0
  4 28  1  0  0  0  0
  4 29  1  0  0  0  0
  5  6  2  0  0  0  0
  5  7  1  0  0  0  0
  7  8  1  0  0  0  0
  7 30  1  0  0  0  0
  8  9  1  0  0  0  0
  8 31  1  0  0  0  0
  8 32  1  0  0  0  0
  9 20  1  0  0  0  0
  9 10  2  0  0  0  0
 10 11  1  0  0  0  0
 10 33  1  0  0  0  0
 11 12  2  0  0  0  0
 11 34  1  0  0  0  0
 12 13  1  0  0  0  0
 12 19  1  0  0  0  0
 13 18  1  0  0  0  0
 13 14  1  0  0  0  0
 14 15  1  0  0  0  0
 14 35  1  0  0  0  0
 14 36  1  0  0  0  0
 15 16  1  0  0  0  0
 15 37  1  0  0  0  0
 15 38  1  0  0  0  0
 16 17  1  0  0  0  0
 17 18  1  0  0  0  0
 17 39  1  0  0  0  0
 17 40  1  0  0  0  0
 18 41  1  0  0  0  0
 18 42  1  0  0  0  0
 19 20  2  0  0  0  0
 20 43  1  0  0  0  0
M  END
> <s_m_source_file>
AV-unprocessed.smi

> <i_m_source_file_index>
453

> <i_lp_mmshare_version>
43012

> <i_f3d_flags>
0

> <s_epik_input>
W0NIM11bQ0hdKFtDSDNdKVtDSDJdQyg9TylbTkhdW0NIMl1jMVtjSF1bY0hdYyhuW2NIXTEpTjJbQ0gyXVtDSDJdT1tDSDJdW0NIMl0y

> <s_epik_cmdline>
J2VwaWtfcHl0aG9uJywgJy1waCcsICc3LjAnLCAnLXRuJywgJzgnLCAnLW1hJywgJzIwMCcsICctbWV0YWxfYmluZGluZycsICctaW1hZScsICc8aW5maWxlLm1hZT4nLCAnLW9tYWUnLCAnPG91dGZpbGUubWFlPic=

> <r_lp_tautomer_probability>
1

> <r_epik_Ionization_Penalty>
0.00505548

> <r_epik_Ionization_Penalty_Charging>
0

> <r_epik_Ionization_Penalty_Neutral>
0.00505548

> <r_epik_State_Penalty>
0.00367784

> <r_epik_Charging_Adjusted_Penalty>
0.00367784

> <i_epik_Tot_Q>
0

> <i_epik_Tot_abs_Q>
0

> <r_epik_Metal_State_Penalty>
-0

> <b_epik_Metal_Only>
0

> <s_lp_Force_Field>
OPLS_2005

> <r_lp_Energy>
17.3119

> <b_lp_Chiralities_Consistent>
1

> <s_lp_Variant>
AV-unprocessed.smi:453-1

> <Gold.Version>
5.8.1

> <Gold.Id.Protein>
6NUR|6NUR_protein|mol2

> <Gold.PLP.Fitness>
39.3817

> <Gold.PLP.PLP>
-34.1034

> <Gold.PLP.part.hbond>
-0.9693

> <Gold.PLP.part.metal>
0.0000

> <Gold.PLP.part.buried>
-3.1233

> <Gold.PLP.part.nonpolar>
-31.5658

> <Gold.PLP.part.repulsive>
1.2635

> <Gold.PLP.ligand.clash>
0.0000

> <Gold.PLP.ligand.torsion>
0.4487

> <Gold.PLP.Chemscore.Hbond>
1.0000

> <Gold.PLP.Chemscore.CHOScore>
0.9439

> <Gold.PLP.Chemscore.Metal>
0.0000

> <Gold.Chemscore.Hbonds>
donor molecule, donor type, donor heavy atom, donor atom, acceptor molecule, acceptor atom, score
      L1  H     7    30       P1  7948  1.00
      L1  C    20    43       P1  7948  0.97

> <Gold.PLP.Chemscore.Internal.Correction>
0.3440

> <Gold.Rescore>
     Score         DG    S(hbond)    S(metal)    S(lipo)     H(rot)  DE(clash)    DE(int)     intcor
     13.95     -14.73       0.98        0.00      87.09       1.65       0.45       0.33       ----

> <Gold.Chemscore.Fitness>
13.9534

> <Gold.Chemscore.DG>
-14.7327

> <Gold.Chemscore.ZeroCoef>
-5.4800

> <Gold.Chemscore.Hbond>
0.9833

> <Gold.Chemscore.Metal>
0.0000

> <Gold.Chemscore.Lipo>
87.0868

> <Gold.Chemscore.Internal_Hbond>
0.0000

> <Gold.Chemscore.DEClash>
0.4471

> <Gold.Chemscore.DEInternal>
0.3322

> <Gold.Chemscore.Rot>
1.6488

> <Gold.Chemscore.Internal.Correction>
   9.000000E+99

> <Gold.Chemscore.Hbonds>
donor molecule, donor type, donor heavy atom, donor atom, acceptor molecule, acceptor atom, score
      L1  H     7    30       P1  7948  0.95

> <Gold.Chemscore.Hbond.Weighted>
-3.2844

> <Gold.Chemscore.Metal.Weighted>
-0.0000

> <Gold.Chemscore.Lipo.Weighted>
-10.1892

> <Gold.Chemscore.Internal_Hbond.Weighted>
0.0000

> <Gold.Chemscore.DEClash.Weighted>
0.4471

> <Gold.Chemscore.DEInternal.Weighted>
0.3322

> <Gold.Chemscore.Rot.Weighted>
4.2208

> <Gold.Chemscore.Internal.Correction.Weighted>
   9.000000E+99

> <Gold.Protein.RotatedTorsions>
[ 6907 6896 6895 6894 ] final -105.47 input  -60.11 | X-H torsion
[ 7974 7965 7964 7962 ] final  148.81 input  175.53 | X-H torsion
[ 8008 7997 7996 7995 ] final   76.92 input   59.86 | X-H torsion
[ 10167 10162 10161 10158 ] final   51.47 input  -65.29 | X-H torsion
[ 10718 10713 10712 10709 ] final  -56.98 input   66.30 | X-H torsion
[ 10763 10752 10751 10750 ] final  165.21 input  -60.55 | X-H torsion
[ 11005 11000 10999 10996 ] final   55.81 input  -57.11 | X-H torsion

> <Gold.Protein.ActiveResidues>
 VAL166  LYS551  ARG553  GLY616  TRP617  ASP618  TYR619  PRO620  LYS621  CYS622 
 ASP623  PHE694  ASN695  SER759  ASP760  ASP761  ALA762  ILE779  LEU786  VAL792 
 PHE793  MET794  SER795  GLU796  ALA797  LYS798  CYS799  TRP800  GLU811  SER814 

> <Gold.Protein.RotatedAtoms>
  150.7338  134.0122  159.3673 H   0  0  0  0  0  0  0  0  0  0  0  0  # atno 6907 bound_to 6896
  151.8082  135.0686  160.0419 H   0  0  0  0  0  0  0  0  0  0  0  0  # atno 6908 bound_to 6896
  152.3091  133.5698  159.5705 H   0  0  0  0  0  0  0  0  0  0  0  0  # atno 6909 bound_to 6896
  144.8486  139.6200  143.5984 H   0  0  0  0  0  0  0  0  0  0  0  0  # atno 7974 bound_to 7965
  155.8342  140.3465  155.5591 H   0  0  0  0  0  0  0  0  0  0  0  0  # atno 8008 bound_to 7997
  155.8210  140.0913  157.1869 H   0  0  0  0  0  0  0  0  0  0  0  0  # atno 8009 bound_to 7997
  154.4004  140.1430  156.3487 H   0  0  0  0  0  0  0  0  0  0  0  0  # atno 8010 bound_to 7997
  140.2616  144.3367  150.6316 H   0  0  0  0  0  0  0  0  0  0  0  0  # atno 10167 bound_to 10162
  156.1246  130.4163  150.0379 H   0  0  0  0  0  0  0  0  0  0  0  0  # atno 10718 bound_to 10713
  154.3205  135.2756  155.2522 H   0  0  0  0  0  0  0  0  0  0  0  0  # atno 10763 bound_to 10752
  154.4877  135.5842  153.6439 H   0  0  0  0  0  0  0  0  0  0  0  0  # atno 10764 bound_to 10752
  152.9877  135.6127  154.3389 H   0  0  0  0  0  0  0  0  0  0  0  0  # atno 10765 bound_to 10752
  140.0578  134.5646  155.9187 H   0  0  0  0  0  0  0  0  0  0  0  0  # atno 11005 bound_to 11000
  146.2765  139.6766  142.9259 LP  0  0  0  0  0  0  0  0  0  0  0  0  # atno 17320 bound_to 7965
  145.4547  141.0430  143.2785 LP  0  0  0  0  0  0  0  0  0  0  0  0  # atno 17321 bound_to 7965
  140.5962  143.2167  151.7160 LP  0  0  0  0  0  0  0  0  0  0  0  0  # atno 17342 bound_to 10162
  139.5015  144.3864  152.0324 LP  0  0  0  0  0  0  0  0  0  0  0  0  # atno 17343 bound_to 10162
  156.8308  130.9392  151.3637 LP  0  0  0  0  0  0  0  0  0  0  0  0  # atno 17370 bound_to 10713
  157.6428  130.8819  149.9481 LP  0  0  0  0  0  0  0  0  0  0  0  0  # atno 17371 bound_to 10713
  141.1960  133.6589  156.5668 LP  0  0  0  0  0  0  0  0  0  0  0  0  # atno 17394 bound_to 11000
  140.3817  134.7517  157.4665 LP  0  0  0  0  0  0  0  0  0  0  0  0  # atno 17395 bound_to 11000

$$$$
