AV-unprocessed.smi:639|AV-procd|sdf|3146|dock3
  -GOLD-   22720 0 73D 1   1.00000     0.00000
 Structure written by MMmdl.
 23 24  0  0  0  0  0  0  0  0  2 V2000
  152.3113  145.0858  158.9903 C   0  0  0  0  0  0  0  0  0  0  0  0
  152.0238  143.7204  158.6071 N   0  0  0  0  0  0  0  0  0  0  0  0
  151.0695  143.2554  157.7293 C   0  0  0  0  0  0  0  0  0  0  0  0
  151.1683  141.8911  157.6891 C   0  0  0  0  0  0  0  0  0  0  0  0
  150.3449  140.9066  156.8791 C   0  0  1  0  0  0  0  0  0  0  0  0
  149.6660  139.8504  157.7723 C   0  0  0  0  0  0  0  0  0  0  0  0
  149.3588  141.5639  156.0460 N   0  0  0  0  0  0  0  0  0  0  0  0
  149.6047  141.3658  154.7518 C   0  0  0  0  0  0  0  0  0  0  0  0
  148.8892  141.8487  153.8773 O   0  0  0  0  0  0  0  0  0  0  0  0
  150.6992  140.5949  154.5991 N   0  5  0  0  0  0  0  0  0  0  0  0
  151.2178  140.2549  155.7996 C   0  0  0  0  0  0  0  0  0  0  0  0
  152.1934  139.5558  156.0722 O   0  0  0  0  0  0  0  0  0  0  0  0
  152.2351  141.6215  158.5973 C   0  0  0  0  0  0  0  0  0  0  0  0
  152.7452  142.7148  159.1407 N   0  0  0  0  0  0  0  0  0  0  0  0
  151.6392  145.7695  158.4710 H   0  0  0  0  0  0  0  0  0  0  0  0
  153.3406  145.3333  158.7296 H   0  0  0  0  0  0  0  0  0  0  0  0
  152.1747  145.2033  160.0657 H   0  0  0  0  0  0  0  0  0  0  0  0
  150.3992  143.9251  157.2108 H   0  0  0  0  0  0  0  0  0  0  0  0
  150.3976  139.2893  158.3549 H   0  0  0  0  0  0  0  0  0  0  0  0
  149.0977  139.1306  157.1816 H   0  0  0  0  0  0  0  0  0  0  0  0
  148.9746  140.3176  158.4742 H   0  0  0  0  0  0  0  0  0  0  0  0
  148.5941  142.1115  156.4118 H   0  0  0  0  0  0  0  0  0  0  0  0
  152.6534  140.6655  158.8761 H   0  0  0  0  0  0  0  0  0  0  0  0
  1  2  1  0  0  0  0
  1 15  1  0  0  0  0
  1 16  1  0  0  0  0
  1 17  1  0  0  0  0
  2 14  1  0  0  0  0
  2  3  1  0  0  0  0
  3  4  2  0  0  0  0
  3 18  1  0  0  0  0
  4  5  1  0  0  0  0
  4 13  1  0  0  0  0
  5 11  1  0  0  0  0
  5  6  1  0  0  0  0
  5  7  1  0  0  0  0
  6 19  1  0  0  0  0
  6 20  1  0  0  0  0
  6 21  1  0  0  0  0
  7  8  1  0  0  0  0
  7 22  1  0  0  0  0
  8  9  2  0  0  0  0
  8 10  1  0  0  0  0
 10 11  1  0  0  0  0
 11 12  2  0  0  0  0
 13 14  2  0  0  0  0
 13 23  1  0  0  0  0
M  CHG  1  10  -1
M  END
> <s_m_source_file>
AV-unprocessed.smi

> <i_m_source_file_index>
639

> <i_lp_mmshare_version>
43012

> <i_f3d_flags>
0

> <s_epik_input>
W0NIM11uMVtjSF1jKFtjSF1uMSlbQ0BAXTIoW0NIM10pW05IXUMoPU8pW05IXUMyPU8=

> <s_epik_cmdline>
J2VwaWtfcHl0aG9uJywgJy1waCcsICc3LjAnLCAnLXRuJywgJzgnLCAnLW1hJywgJzIwMCcsICctbWV0YWxfYmluZGluZycsICctaW1hZScsICc8aW5maWxlLm1hZT4nLCAnLW9tYWUnLCAnPG91dGZpbGUubWFlPic=

> <r_lp_tautomer_probability>
1

> <r_epik_Ionization_Penalty>
1.82128

> <r_epik_Ionization_Penalty_Charging>
1.82122

> <r_epik_Ionization_Penalty_Neutral>
5.526e-05

> <r_epik_State_Penalty>
1.93645

> <r_epik_Charging_Adjusted_Penalty>
3.75767

> <i_epik_Tot_Q>
-1

> <i_epik_Tot_abs_Q>
1

> <r_epik_Metal_State_Penalty>
0.532903

> <b_epik_Metal_Only>
0

> <s_lp_Force_Field>
OPLS_2005

> <r_lp_Energy>
3.65424

> <b_lp_Chiralities_Consistent>
1

> <s_lp_Variant>
AV-unprocessed.smi:639-3

> <Gold.Version>
5.8.1

> <Gold.Id.Protein>
6NUR|6NUR_protein|mol2

> <Gold.PLP.Fitness>
39.8605

> <Gold.PLP.PLP>
-28.8868

> <Gold.PLP.part.hbond>
-3.8571

> <Gold.PLP.part.metal>
0.0000

> <Gold.PLP.part.buried>
-3.7374

> <Gold.PLP.part.nonpolar>
-21.4174

> <Gold.PLP.part.repulsive>
0.3095

> <Gold.PLP.ligand.clash>
0.0000

> <Gold.PLP.ligand.torsion>
0.0802

> <Gold.PLP.Chemscore.Hbond>
2.6820

> <Gold.PLP.Chemscore.CHOScore>
1.0000

> <Gold.PLP.Chemscore.Metal>
0.0000

> <Gold.Chemscore.Hbonds>
donor molecule, donor type, donor heavy atom, donor atom, acceptor molecule, acceptor atom, score
      P1  H  7989  7998       L1    10  0.82
      P1  H  7997  8010       L1    12  0.08
      P1  H  8011  8017       L1     9  0.53
      L1  C     3    18       P1  8028  1.00

> <Gold.PLP.Chemscore.Internal.Correction>
0.0881

> <Gold.Rescore>
     Score         DG    S(hbond)    S(metal)    S(lipo)     H(rot)  DE(clash)    DE(int)     intcor
     12.96     -13.19       1.35        0.00      49.36       1.00       0.19       0.05       ----

> <Gold.Chemscore.Fitness>
12.9570

> <Gold.Chemscore.DG>
-13.1944

> <Gold.Chemscore.ZeroCoef>
-5.4800

> <Gold.Chemscore.Hbond>
1.3469

> <Gold.Chemscore.Metal>
0.0000

> <Gold.Chemscore.Lipo>
49.3644

> <Gold.Chemscore.Internal_Hbond>
0.0000

> <Gold.Chemscore.DEClash>
0.1915

> <Gold.Chemscore.DEInternal>
0.0459

> <Gold.Chemscore.Rot>
1.0000

> <Gold.Chemscore.Internal.Correction>
   9.000000E+99

> <Gold.Chemscore.Hbonds>
donor molecule, donor type, donor heavy atom, donor atom, acceptor molecule, acceptor atom, score
      P1  H  7989  7998       L1    10  0.72
      P1  H  7997  8010       L1    12  0.10
      P1  H  8011  8017       L1     9  0.47

> <Gold.Chemscore.Hbond.Weighted>
-4.4988

> <Gold.Chemscore.Metal.Weighted>
-0.0000

> <Gold.Chemscore.Lipo.Weighted>
-5.7756

> <Gold.Chemscore.Internal_Hbond.Weighted>
0.0000

> <Gold.Chemscore.DEClash.Weighted>
0.1915

> <Gold.Chemscore.DEInternal.Weighted>
0.0459

> <Gold.Chemscore.Rot.Weighted>
2.5600

> <Gold.Chemscore.Internal.Correction.Weighted>
   9.000000E+99

> <Gold.Protein.RotatedTorsions>
[ 6907 6896 6895 6894 ] final   85.03 input  -60.11 | X-H torsion
[ 7974 7965 7964 7962 ] final  163.67 input  175.53 | X-H torsion
[ 8008 7997 7996 7995 ] final   50.88 input   59.86 | X-H torsion
[ 10167 10162 10161 10158 ] final  -62.79 input  -65.29 | X-H torsion
[ 10718 10713 10712 10709 ] final  -47.92 input   66.30 | X-H torsion
[ 10763 10752 10751 10750 ] final  120.89 input  -60.55 | X-H torsion
[ 11005 11000 10999 10996 ] final   -8.41 input  -57.11 | X-H torsion

> <Gold.Protein.ActiveResidues>
 VAL166  LYS551  ARG553  GLY616  TRP617  ASP618  TYR619  PRO620  LYS621  CYS622 
 ASP623  PHE694  ASN695  SER759  ASP760  ASP761  ALA762  ILE779  LEU786  VAL792 
 PHE793  MET794  SER795  GLU796  ALA797  LYS798  CYS799  TRP800  GLU811  SER814 

> <Gold.Protein.RotatedAtoms>
  152.5366  134.2650  159.8949 H   0  0  0  0  0  0  0  0  0  0  0  0  # atno 6907 bound_to 6896
  151.2608  133.4296  159.2623 H   0  0  0  0  0  0  0  0  0  0  0  0  # atno 6908 bound_to 6896
  151.0454  134.9651  159.8240 H   0  0  0  0  0  0  0  0  0  0  0  0  # atno 6909 bound_to 6896
  144.7579  139.8216  143.6343 H   0  0  0  0  0  0  0  0  0  0  0  0  # atno 7974 bound_to 7965
  155.4260  140.3448  155.4275 H   0  0  0  0  0  0  0  0  0  0  0  0  # atno 8008 bound_to 7997
  156.1365  140.1529  156.9018 H   0  0  0  0  0  0  0  0  0  0  0  0  # atno 8009 bound_to 7997
  154.4936  140.0834  156.7628 H   0  0  0  0  0  0  0  0  0  0  0  0  # atno 8010 bound_to 7997
  140.5915  143.2342  151.6129 H   0  0  0  0  0  0  0  0  0  0  0  0  # atno 10167 bound_to 10162
  156.2038  130.4157  149.9206 H   0  0  0  0  0  0  0  0  0  0  0  0  # atno 10718 bound_to 10713
  153.6056  135.3440  155.2961 H   0  0  0  0  0  0  0  0  0  0  0  0  # atno 10763 bound_to 10752
  154.8628  135.4238  154.2365 H   0  0  0  0  0  0  0  0  0  0  0  0  # atno 10764 bound_to 10752
  153.3204  135.7038  153.7107 H   0  0  0  0  0  0  0  0  0  0  0  0  # atno 10765 bound_to 10752
  140.7232  133.8811  155.8836 H   0  0  0  0  0  0  0  0  0  0  0  0  # atno 11005 bound_to 11000
  146.1610  139.4725  142.9988 LP  0  0  0  0  0  0  0  0  0  0  0  0  # atno 17320 bound_to 7965
  145.6717  141.0215  143.1654 LP  0  0  0  0  0  0  0  0  0  0  0  0  # atno 17321 bound_to 7965
  139.5230  144.3145  152.0964 LP  0  0  0  0  0  0  0  0  0  0  0  0  # atno 17342 bound_to 10162
  140.2310  144.4368  150.6300 LP  0  0  0  0  0  0  0  0  0  0  0  0  # atno 17343 bound_to 10162
  156.6906  130.8894  151.3588 LP  0  0  0  0  0  0  0  0  0  0  0  0  # atno 17370 bound_to 10713
  157.7000  130.9323  150.0758 LP  0  0  0  0  0  0  0  0  0  0  0  0  # atno 17371 bound_to 10713
  140.9986  134.1182  157.4340 LP  0  0  0  0  0  0  0  0  0  0  0  0  # atno 17394 bound_to 11000
  139.8843  135.0061  156.6361 LP  0  0  0  0  0  0  0  0  0  0  0  0  # atno 17395 bound_to 11000

$$$$
