AV-unprocessed.smi:1118|AV-procd|sdf|4815|dock4
  -GOLD-   22720 3373D 1   1.00000     0.00000
 Structure written by MMmdl.
 45 46  0  0  0  0  0  0  0  0  2 V2000
  142.3043  137.7721  153.9546 C   0  0  0  0  0  0  0  0  0  0  0  0
  142.7671  137.9056  155.2873 O   0  0  0  0  0  0  0  0  0  0  0  0
  143.6448  139.0076  155.4500 C   0  0  0  0  0  0  0  0  0  0  0  0
  145.0155  138.6455  154.8577 C   0  0  0  0  0  0  0  0  0  0  0  0
  145.7981  139.8418  154.4551 N   0  3  2  0  0  0  0  0  0  0  0  0
  147.0403  139.4765  153.7276 C   0  0  0  0  0  0  0  0  0  0  0  0
  147.7576  140.7282  153.1965 C   0  0  0  0  0  0  0  0  0  0  0  0
  148.0947  141.7215  154.3283 C   0  0  2  0  0  0  0  0  0  0  0  0
  149.2325  141.2609  155.2701 C   0  0  0  0  0  0  0  0  0  0  0  0
  149.9020  142.3927  155.9017 N   0  0  0  0  0  0  0  0  0  0  0  0
  151.0005  142.3188  156.6699 C   0  0  0  0  0  0  0  0  0  0  0  0
  151.5274  141.2595  157.0097 O   0  0  0  0  0  0  0  0  0  0  0  0
  151.6266  143.6498  157.0834 C   0  0  0  0  0  0  0  0  0  0  0  0
  151.9556  143.6369  158.4975 N   0  0  0  0  0  0  0  0  0  0  0  0
  151.6292  144.5687  159.4611 C   0  0  0  0  0  0  0  0  0  0  0  0
  152.1354  144.1209  160.6476 C   0  0  0  0  0  0  0  0  0  0  0  0
  152.7616  142.8899  160.3053 C   0  0  0  0  0  0  0  0  0  0  0  0
  152.6518  142.6020  159.0183 N   0  0  0  0  0  0  0  0  0  0  0  0
  146.7999  142.0445  155.0968 C   0  0  0  0  0  0  0  0  0  0  0  0
  146.0731  140.7748  155.5809 C   0  0  0  0  0  0  0  0  0  0  0  0
  141.6403  136.9106  153.8814 H   0  0  0  0  0  0  0  0  0  0  0  0
  143.1332  137.6180  153.2621 H   0  0  0  0  0  0  0  0  0  0  0  0
  141.7456  138.6548  153.6406 H   0  0  0  0  0  0  0  0  0  0  0  0
  143.2295  139.9030  154.9873 H   0  0  0  0  0  0  0  0  0  0  0  0
  143.7595  139.2247  156.5131 H   0  0  0  0  0  0  0  0  0  0  0  0
  145.5935  138.0517  155.5672 H   0  0  0  0  0  0  0  0  0  0  0  0
  144.8472  138.0060  153.9902 H   0  0  0  0  0  0  0  0  0  0  0  0
  147.6977  138.9042  154.3834 H   0  0  0  0  0  0  0  0  0  0  0  0
  146.7951  138.8280  152.8858 H   0  0  0  0  0  0  0  0  0  0  0  0
  148.6503  140.4436  152.6398 H   0  0  0  0  0  0  0  0  0  0  0  0
  147.1097  141.2230  152.4717 H   0  0  0  0  0  0  0  0  0  0  0  0
  148.4352  142.6455  153.8583 H   0  0  0  0  0  0  0  0  0  0  0  0
  148.8176  140.6399  156.0646 H   0  0  0  0  0  0  0  0  0  0  0  0
  149.9477  140.6291  154.7429 H   0  0  0  0  0  0  0  0  0  0  0  0
  149.5466  143.3117  155.6795 H   0  0  0  0  0  0  0  0  0  0  0  0
  152.5277  143.8501  156.5013 H   0  0  0  0  0  0  0  0  0  0  0  0
  150.9287  144.4654  156.8894 H   0  0  0  0  0  0  0  0  0  0  0  0
  151.0679  145.4610  159.2247 H   0  0  0  0  0  0  0  0  0  0  0  0
  152.0677  144.5994  161.6134 H   0  0  0  0  0  0  0  0  0  0  0  0
  153.2881  142.2013  160.9495 H   0  0  0  0  0  0  0  0  0  0  0  0
  147.0152  142.6979  155.9428 H   0  0  0  0  0  0  0  0  0  0  0  0
  146.1293  142.6073  154.4458 H   0  0  0  0  0  0  0  0  0  0  0  0
  145.1408  141.0724  156.0588 H   0  0  0  0  0  0  0  0  0  0  0  0
  146.6619  140.2643  156.3438 H   0  0  0  0  0  0  0  0  0  0  0  0
  145.2253  140.3432  153.7906 H   0  0  0  0  0  0  0  0  0  0  0  0
  1  2  1  0  0  0  0
  1 21  1  0  0  0  0
  1 22  1  0  0  0  0
  1 23  1  0  0  0  0
  2  3  1  0  0  0  0
  3  4  1  0  0  0  0
  3 24  1  0  0  0  0
  3 25  1  0  0  0  0
  4  5  1  0  0  0  0
  4 26  1  0  0  0  0
  4 27  1  0  0  0  0
  5 20  1  0  0  0  0
  5  6  1  0  0  0  0
  5 45  1  0  0  0  0
  6  7  1  0  0  0  0
  6 28  1  0  0  0  0
  6 29  1  0  0  0  0
  7  8  1  0  0  0  0
  7 30  1  0  0  0  0
  7 31  1  0  0  0  0
  8  9  1  0  0  0  0
  8 19  1  0  0  0  0
  8 32  1  0  0  0  0
  9 10  1  0  0  0  0
  9 33  1  0  0  0  0
  9 34  1  0  0  0  0
 10 11  1  0  0  0  0
 10 35  1  0  0  0  0
 11 12  2  0  0  0  0
 11 13  1  0  0  0  0
 13 14  1  0  0  0  0
 13 36  1  0  0  0  0
 13 37  1  0  0  0  0
 14 18  1  0  0  0  0
 14 15  1  0  0  0  0
 15 16  2  0  0  0  0
 15 38  1  0  0  0  0
 16 17  1  0  0  0  0
 16 39  1  0  0  0  0
 17 18  2  0  0  0  0
 17 40  1  0  0  0  0
 19 20  1  0  0  0  0
 19 41  1  0  0  0  0
 19 42  1  0  0  0  0
 20 43  1  0  0  0  0
 20 44  1  0  0  0  0
M  CHG  1   5   1
M  END
> <s_m_source_file>
AV-unprocessed.smi

> <i_m_source_file_index>
1118

> <i_lp_mmshare_version>
43012

> <i_f3d_flags>
0

> <s_epik_input>
W0NIM11PW0NIMl1bQ0gyXU4xW0NIMl1bQ0gyXVtDSF0oW0NIMl1bQ0gyXTEpW0NIMl1bTkhdQyg9TylbQ0gyXW4yW2NIXVtjSF1bY0hdbjI=

> <s_epik_cmdline>
J2VwaWtfcHl0aG9uJywgJy1waCcsICc3LjAnLCAnLXRuJywgJzgnLCAnLW1hJywgJzIwMCcsICctbWV0YWxfYmluZGluZycsICctaW1hZScsICc8aW5maWxlLm1hZT4nLCAnLW9tYWUnLCAnPG91dGZpbGUubWFlPic=

> <r_lp_tautomer_probability>
1

> <r_epik_Ionization_Penalty>
0.00991549

> <r_epik_Ionization_Penalty_Charging>
0.00990284

> <r_epik_Ionization_Penalty_Neutral>
1.26554e-05

> <r_epik_State_Penalty>
0.00754525

> <r_epik_Charging_Adjusted_Penalty>
0.0174481

> <i_epik_Tot_Q>
1

> <i_epik_Tot_abs_Q>
1

> <r_epik_Metal_State_Penalty>
0.00754527

> <b_epik_Metal_Only>
0

> <s_lp_Force_Field>
OPLS_2005

> <r_lp_Energy>
20.3216

> <b_lp_Chiralities_Consistent>
1

> <s_lp_Variant>
AV-unprocessed.smi:1118-2

> <Gold.Version>
5.8.1

> <Gold.Id.Protein>
6NUR|6NUR_protein|mol2

> <Gold.PLP.Fitness>
43.8892

> <Gold.PLP.PLP>
-36.1323

> <Gold.PLP.part.hbond>
-2.0000

> <Gold.PLP.part.metal>
0.0000

> <Gold.PLP.part.buried>
-2.4567

> <Gold.PLP.part.nonpolar>
-32.1927

> <Gold.PLP.part.repulsive>
0.2191

> <Gold.PLP.ligand.clash>
0.0000

> <Gold.PLP.ligand.torsion>
0.7168

> <Gold.PLP.Chemscore.Hbond>
3.0000

> <Gold.PLP.Chemscore.CHOScore>
0.0000

> <Gold.PLP.Chemscore.Metal>
0.0000

> <Gold.Chemscore.Hbonds>
donor molecule, donor type, donor heavy atom, donor atom, acceptor molecule, acceptor atom, score
      L1  H     5    45       P1 10175  2.00
      L1  H    10    35       P1  8028  1.00

> <Gold.PLP.Chemscore.Internal.Correction>
0.1905

> <Gold.Rescore>
     Score         DG    S(hbond)    S(metal)    S(lipo)     H(rot)  DE(clash)    DE(int)     intcor
     13.66     -15.78       1.90        0.00      82.35       2.22       0.23       1.88       ----

> <Gold.Chemscore.Fitness>
13.6642

> <Gold.Chemscore.DG>
-15.7780

> <Gold.Chemscore.ZeroCoef>
-5.4800

> <Gold.Chemscore.Hbond>
1.8975

> <Gold.Chemscore.Metal>
0.0000

> <Gold.Chemscore.Lipo>
82.3495

> <Gold.Chemscore.Internal_Hbond>
0.0000

> <Gold.Chemscore.DEClash>
0.2318

> <Gold.Chemscore.DEInternal>
1.8820

> <Gold.Chemscore.Rot>
2.2166

> <Gold.Chemscore.Internal.Correction>
   9.000000E+99

> <Gold.Chemscore.Hbonds>
donor molecule, donor type, donor heavy atom, donor atom, acceptor molecule, acceptor atom, score
      L1  H     5    45       P1 10175  0.91
      L1  H    10    35       P1  8028  0.95

> <Gold.Chemscore.Hbond.Weighted>
-6.3376

> <Gold.Chemscore.Metal.Weighted>
-0.0000

> <Gold.Chemscore.Lipo.Weighted>
-9.6349

> <Gold.Chemscore.Internal_Hbond.Weighted>
0.0000

> <Gold.Chemscore.DEClash.Weighted>
0.2318

> <Gold.Chemscore.DEInternal.Weighted>
1.8820

> <Gold.Chemscore.Rot.Weighted>
5.6745

> <Gold.Chemscore.Internal.Correction.Weighted>
   9.000000E+99

> <Gold.Protein.RotatedTorsions>
[ 6907 6896 6895 6894 ] final  135.61 input  -60.11 | X-H torsion
[ 7974 7965 7964 7962 ] final   55.65 input  175.53 | X-H torsion
[ 8008 7997 7996 7995 ] final  -59.93 input   59.86 | X-H torsion
[ 10167 10162 10161 10158 ] final  108.90 input  -65.29 | X-H torsion
[ 10718 10713 10712 10709 ] final -127.79 input   66.30 | X-H torsion
[ 10763 10752 10751 10750 ] final  -90.18 input  -60.55 | X-H torsion
[ 11005 11000 10999 10996 ] final   75.50 input  -57.11 | X-H torsion

> <Gold.Protein.ActiveResidues>
 VAL166  LYS551  ARG553  GLY616  TRP617  ASP618  TYR619  PRO620  LYS621  CYS622 
 ASP623  PHE694  ASN695  SER759  ASP760  ASP761  ALA762  ILE779  LEU786  VAL792 
 PHE793  MET794  SER795  GLU796  ALA797  LYS798  CYS799  TRP800  GLU811  SER814 

> <Gold.Protein.RotatedAtoms>
  152.2985  133.5632  159.5603 H   0  0  0  0  0  0  0  0  0  0  0  0  # atno 6907 bound_to 6896
  150.7267  134.0325  159.3747 H   0  0  0  0  0  0  0  0  0  0  0  0  # atno 6908 bound_to 6896
  151.8227  135.0647  160.0478 H   0  0  0  0  0  0  0  0  0  0  0  0  # atno 6909 bound_to 6896
  145.9482  139.3948  143.0322 H   0  0  0  0  0  0  0  0  0  0  0  0  # atno 7974 bound_to 7965
  154.4375  140.1050  156.6194 H   0  0  0  0  0  0  0  0  0  0  0  0  # atno 8008 bound_to 7997
  155.5724  140.3489  155.4500 H   0  0  0  0  0  0  0  0  0  0  0  0  # atno 8009 bound_to 7997
  156.0380  140.1275  157.0176 H   0  0  0  0  0  0  0  0  0  0  0  0  # atno 8010 bound_to 7997
  139.6809  144.7118  151.1517 H   0  0  0  0  0  0  0  0  0  0  0  0  # atno 10167 bound_to 10162
  156.1890  130.6783  151.0401 H   0  0  0  0  0  0  0  0  0  0  0  0  # atno 10718 bound_to 10713
  154.6631  135.5314  153.8043 H   0  0  0  0  0  0  0  0  0  0  0  0  # atno 10763 bound_to 10752
  153.0454  135.6510  154.0841 H   0  0  0  0  0  0  0  0  0  0  0  0  # atno 10764 bound_to 10752
  154.0748  135.2951  155.3281 H   0  0  0  0  0  0  0  0  0  0  0  0  # atno 10765 bound_to 10752
  139.9341  134.7522  156.1278 H   0  0  0  0  0  0  0  0  0  0  0  0  # atno 11005 bound_to 11000
  145.8208  140.9680  143.0900 LP  0  0  0  0  0  0  0  0  0  0  0  0  # atno 17320 bound_to 7965
  144.6791  140.0039  143.7484 LP  0  0  0  0  0  0  0  0  0  0  0  0  # atno 17321 bound_to 7965
  140.7652  143.5701  150.9005 LP  0  0  0  0  0  0  0  0  0  0  0  0  # atno 17342 bound_to 10162
  139.9373  143.6423  152.3062 LP  0  0  0  0  0  0  0  0  0  0  0  0  # atno 17343 bound_to 10162
  157.6917  131.0807  150.7087 LP  0  0  0  0  0  0  0  0  0  0  0  0  # atno 17370 bound_to 10713
  156.7144  130.4661  149.5539 LP  0  0  0  0  0  0  0  0  0  0  0  0  # atno 17371 bound_to 10713
  141.0946  133.6701  156.2615 LP  0  0  0  0  0  0  0  0  0  0  0  0  # atno 17394 bound_to 11000
  140.6123  134.5446  157.5535 LP  0  0  0  0  0  0  0  0  0  0  0  0  # atno 17395 bound_to 11000

$$$$
