AV-unprocessed.smi:2583|AV-procd|sdf|10137|dock4
  -GOLD-   2272014153D 1   1.00000     0.00000
 Structure written by MMmdl.
 55 57  0  0  0  0  0  0  0  0  3 V2000
  154.0458  141.6888  160.4967 C   0  0  0  0  0  0  0  0  0  0  0  0
  153.1035  142.1431  159.4017 C   0  0  0  0  0  0  0  0  0  0  0  0
  152.8912  143.5137  159.1466 C   0  0  0  0  0  0  0  0  0  0  0  0
  152.0746  143.9675  158.1726 N   0  0  0  0  0  0  0  0  0  0  0  0
  151.4280  143.0568  157.4144 C   0  0  0  0  0  0  0  0  0  0  0  0
  151.5510  141.6625  157.5917 C   0  0  0  0  0  0  0  0  0  0  0  0
  150.8293  140.8083  156.7155 N   0  0  0  0  0  0  0  0  0  0  0  0
  150.4284  139.5446  156.9363 C   0  0  0  0  0  0  0  0  0  0  0  0
  150.5934  138.9201  157.9841 O   0  0  0  0  0  0  0  0  0  0  0  0
  149.7904  139.0404  155.8698 N   0  0  0  0  0  0  0  0  0  0  0  0
  149.2111  137.7018  155.7991 C   0  0  2  0  0  0  0  0  0  0  0  0
  150.1761  136.7411  155.0942 C   0  0  0  0  0  0  0  0  0  0  0  0
  149.5597  135.3391  154.9407 C   0  0  0  0  0  0  0  0  0  0  0  0
  148.2594  135.3794  154.2078 N   0  3  1  0  0  0  0  0  0  0  0  0
  147.6388  134.0402  153.9256 C   0  0  2  0  0  0  0  0  0  0  0  0
  147.3815  133.1458  155.1651 C   0  0  0  0  0  0  0  0  0  0  0  0
  148.6848  132.6072  155.7857 C   0  0  0  0  0  0  0  0  0  0  0  0
  149.4802  131.8564  154.7841 N   0  3  2  0  0  0  0  0  0  0  0  0
  150.6939  131.2472  155.3697 C   0  0  0  0  0  0  0  0  0  0  0  0
  149.7797  132.6749  153.5834 C   0  0  0  0  0  0  0  0  0  0  0  0
  148.4862  133.2040  152.9361 C   0  0  0  0  0  0  0  0  0  0  0  0
  147.3075  136.3026  154.8929 C   0  0  0  0  0  0  0  0  0  0  0  0
  147.8807  137.7213  155.0324 C   0  0  0  0  0  0  0  0  0  0  0  0
  152.4227  141.1997  158.6063 C   0  0  0  0  0  0  0  0  0  0  0  0
  154.3467  142.5227  161.1315 H   0  0  0  0  0  0  0  0  0  0  0  0
  154.9431  141.2478  160.0616 H   0  0  0  0  0  0  0  0  0  0  0  0
  153.5644  140.9392  161.1253 H   0  0  0  0  0  0  0  0  0  0  0  0
  153.3943  144.2683  159.7330 H   0  0  0  0  0  0  0  0  0  0  0  0
  150.7857  143.4565  156.6432 H   0  0  0  0  0  0  0  0  0  0  0  0
  150.5341  141.2279  155.8460 H   0  0  0  0  0  0  0  0  0  0  0  0
  149.6982  139.6247  155.0514 H   0  0  0  0  0  0  0  0  0  0  0  0
  149.0376  137.3304  156.8113 H   0  0  0  0  0  0  0  0  0  0  0  0
  150.4371  137.1318  154.1093 H   0  0  0  0  0  0  0  0  0  0  0  0
  151.1090  136.6718  155.6553 H   0  0  0  0  0  0  0  0  0  0  0  0
  150.2925  134.7365  154.4078 H   0  0  0  0  0  0  0  0  0  0  0  0
  149.4138  134.8797  155.9196 H   0  0  0  0  0  0  0  0  0  0  0  0
  146.6659  134.2340  153.4707 H   0  0  0  0  0  0  0  0  0  0  0  0
  146.7659  133.6441  155.9132 H   0  0  0  0  0  0  0  0  0  0  0  0
  146.7805  132.2911  154.8506 H   0  0  0  0  0  0  0  0  0  0  0  0
  149.2853  133.4225  156.1909 H   0  0  0  0  0  0  0  0  0  0  0  0
  148.4424  131.9487  156.6209 H   0  0  0  0  0  0  0  0  0  0  0  0
  151.3809  132.0127  155.7334 H   0  0  0  0  0  0  0  0  0  0  0  0
  151.2171  130.6419  154.6287 H   0  0  0  0  0  0  0  0  0  0  0  0
  150.4336  130.5965  156.2051 H   0  0  0  0  0  0  0  0  0  0  0  0
  150.4341  133.5042  153.8564 H   0  0  0  0  0  0  0  0  0  0  0  0
  150.3246  132.0676  152.8598 H   0  0  0  0  0  0  0  0  0  0  0  0
  147.8939  132.3517  152.5994 H   0  0  0  0  0  0  0  0  0  0  0  0
  148.7267  133.7547  152.0289 H   0  0  0  0  0  0  0  0  0  0  0  0
  146.3674  136.3739  154.3500 H   0  0  0  0  0  0  0  0  0  0  0  0
  147.0643  135.9053  155.8799 H   0  0  0  0  0  0  0  0  0  0  0  0
  147.1594  138.3566  155.5482 H   0  0  0  0  0  0  0  0  0  0  0  0
  148.0242  138.1568  154.0422 H   0  0  0  0  0  0  0  0  0  0  0  0
  152.5911  140.1472  158.7756 H   0  0  0  0  0  0  0  0  0  0  0  0
  148.4665  135.7906  153.3090 H   0  0  0  0  0  0  0  0  0  0  0  0
  148.9011  131.0893  154.4725 H   0  0  0  0  0  0  0  0  0  0  0  0
  1  2  1  0  0  0  0
  1 25  1  0  0  0  0
  1 26  1  0  0  0  0
  1 27  1  0  0  0  0
  2 24  1  0  0  0  0
  2  3  2  0  0  0  0
  3  4  1  0  0  0  0
  3 28  1  0  0  0  0
  4  5  2  0  0  0  0
  5  6  1  0  0  0  0
  5 29  1  0  0  0  0
  6  7  1  0  0  0  0
  6 24  2  0  0  0  0
  7  8  1  0  0  0  0
  7 30  1  0  0  0  0
  8  9  2  0  0  0  0
  8 10  1  0  0  0  0
 10 11  1  0  0  0  0
 10 31  1  0  0  0  0
 11 23  1  0  0  0  0
 11 12  1  0  0  0  0
 11 32  1  0  0  0  0
 12 13  1  0  0  0  0
 12 33  1  0  0  0  0
 12 34  1  0  0  0  0
 13 14  1  0  0  0  0
 13 35  1  0  0  0  0
 13 36  1  0  0  0  0
 14 15  1  0  0  0  0
 14 22  1  0  0  0  0
 14 54  1  0  0  0  0
 15 21  1  0  0  0  0
 15 16  1  0  0  0  0
 15 37  1  0  0  0  0
 16 17  1  0  0  0  0
 16 38  1  0  0  0  0
 16 39  1  0  0  0  0
 17 18  1  0  0  0  0
 17 40  1  0  0  0  0
 17 41  1  0  0  0  0
 18 19  1  0  0  0  0
 18 20  1  0  0  0  0
 18 55  1  0  0  0  0
 19 42  1  0  0  0  0
 19 43  1  0  0  0  0
 19 44  1  0  0  0  0
 20 21  1  0  0  0  0
 20 45  1  0  0  0  0
 20 46  1  0  0  0  0
 21 47  1  0  0  0  0
 21 48  1  0  0  0  0
 22 23  1  0  0  0  0
 22 49  1  0  0  0  0
 22 50  1  0  0  0  0
 23 51  1  0  0  0  0
 23 52  1  0  0  0  0
 24 53  1  0  0  0  0
M  CHG  1  14   1
M  CHG  1  18   1
M  END
> <s_m_source_file>
AV-unprocessed.smi

> <i_m_source_file_index>
2583

> <i_lp_mmshare_version>
43012

> <i_f3d_flags>
0

> <s_epik_input>
W0NIM11jMVtjSF1uW2NIXWMoW2NIXTEpW05IXUMoPU8pW05IXVtDSF0yW0NIMl1bQ0gyXU4oW0NIMl1bQ0gyXTIpW0NIXTNbQ0gyXVtDSDJdTihbQ0gzXSlbQ0gyXVtDSDJdMw==

> <s_epik_cmdline>
J2VwaWtfcHl0aG9uJywgJy1waCcsICc3LjAnLCAnLXRuJywgJzgnLCAnLW1hJywgJzIwMCcsICctbWV0YWxfYmluZGluZycsICctaW1hZScsICc8aW5maWxlLm1hZT4nLCAnLW9tYWUnLCAnPG91dGZpbGUubWFlPic=

> <r_epik_Ionization_Penalty>
0.188357

> <r_epik_Ionization_Penalty_Charging>
0.180787

> <r_epik_Ionization_Penalty_Neutral>
0.00756971

> <r_epik_State_Penalty>
0.157948

> <r_epik_Charging_Adjusted_Penalty>
0.338735

> <i_epik_Tot_Q>
2

> <i_epik_Tot_abs_Q>
2

> <r_epik_Metal_State_Penalty>
0.153874

> <b_epik_Metal_Only>
0

> <s_lp_Force_Field>
OPLS_2005

> <r_lp_Energy>
48.801

> <b_lp_Chiralities_Consistent>
1

> <s_lp_Variant>
AV-unprocessed.smi:2583-3

> <Gold.Version>
5.8.1

> <Gold.Id.Protein>
6NUR|6NUR_protein|mol2

> <Gold.PLP.Fitness>
41.8884

> <Gold.PLP.PLP>
-34.3120

> <Gold.PLP.part.hbond>
-1.0000

> <Gold.PLP.part.metal>
0.0000

> <Gold.PLP.part.buried>
-4.7564

> <Gold.PLP.part.nonpolar>
-27.7368

> <Gold.PLP.part.repulsive>
0.1602

> <Gold.PLP.ligand.clash>
0.3814

> <Gold.PLP.ligand.torsion>
0.5382

> <Gold.PLP.Chemscore.Hbond>
2.0000

> <Gold.PLP.Chemscore.CHOScore>
1.0000

> <Gold.PLP.Chemscore.Metal>
0.0000

> <Gold.Chemscore.Hbonds>
donor molecule, donor type, donor heavy atom, donor atom, acceptor molecule, acceptor atom, score
      L1  H    14    54       P1  7948  2.00
      L1  C     5    29       P1  8028  1.00

> <Gold.PLP.Chemscore.Internal.Correction>
0.0341

> <Gold.Rescore>
     Score         DG    S(hbond)    S(metal)    S(lipo)     H(rot)  DE(clash)    DE(int)     intcor
     13.81     -17.35       1.00        0.00      99.50       1.21       0.11       3.44       ----

> <Gold.Chemscore.Fitness>
13.8051

> <Gold.Chemscore.DG>
-17.3547

> <Gold.Chemscore.ZeroCoef>
-5.4800

> <Gold.Chemscore.Hbond>
0.9967

> <Gold.Chemscore.Metal>
0.0000

> <Gold.Chemscore.Lipo>
99.4977

> <Gold.Chemscore.Internal_Hbond>
0.0000

> <Gold.Chemscore.DEClash>
0.1075

> <Gold.Chemscore.DEInternal>
3.4420

> <Gold.Chemscore.Rot>
1.2092

> <Gold.Chemscore.Internal.Correction>
   9.000000E+99

> <Gold.Chemscore.Hbonds>
donor molecule, donor type, donor heavy atom, donor atom, acceptor molecule, acceptor atom, score
      L1  H    14    54       P1  7948  0.97

> <Gold.Chemscore.Hbond.Weighted>
-3.3289

> <Gold.Chemscore.Metal.Weighted>
-0.0000

> <Gold.Chemscore.Lipo.Weighted>
-11.6412

> <Gold.Chemscore.Internal_Hbond.Weighted>
0.0000

> <Gold.Chemscore.DEClash.Weighted>
0.1075

> <Gold.Chemscore.DEInternal.Weighted>
3.4420

> <Gold.Chemscore.Rot.Weighted>
3.0955

> <Gold.Chemscore.Internal.Correction.Weighted>
   9.000000E+99

> <Gold.Protein.RotatedTorsions>
[ 6907 6896 6895 6894 ] final -147.25 input  -60.11 | X-H torsion
[ 7974 7965 7964 7962 ] final  129.89 input  175.53 | X-H torsion
[ 8008 7997 7996 7995 ] final  -22.51 input   59.86 | X-H torsion
[ 10167 10162 10161 10158 ] final -139.24 input  -65.29 | X-H torsion
[ 10718 10713 10712 10709 ] final  -28.19 input   66.30 | X-H torsion
[ 10763 10752 10751 10750 ] final   22.73 input  -60.55 | X-H torsion
[ 11005 11000 10999 10996 ] final  160.50 input  -57.11 | X-H torsion

> <Gold.Protein.ActiveResidues>
 VAL166  LYS551  ARG553  GLY616  TRP617  ASP618  TYR619  PRO620  LYS621  CYS622 
 ASP623  PHE694  ASN695  SER759  ASP760  ASP761  ALA762  ILE779  LEU786  VAL792 
 PHE793  MET794  SER795  GLU796  ALA797  LYS798  CYS799  TRP800  GLU811  SER814 

> <Gold.Protein.RotatedAtoms>
  151.1530  133.4894  159.2594 H   0  0  0  0  0  0  0  0  0  0  0  0  # atno 6907 bound_to 6896
  151.1533  135.0238  159.8688 H   0  0  0  0  0  0  0  0  0  0  0  0  # atno 6908 bound_to 6896
  152.5463  134.1412  159.8533 H   0  0  0  0  0  0  0  0  0  0  0  0  # atno 6909 bound_to 6896
  145.0237  139.4108  143.5184 H   0  0  0  0  0  0  0  0  0  0  0  0  # atno 7974 bound_to 7965
  154.4640  140.2006  156.0168 H   0  0  0  0  0  0  0  0  0  0  0  0  # atno 8008 bound_to 7997
  156.0893  140.3260  155.7766 H   0  0  0  0  0  0  0  0  0  0  0  0  # atno 8009 bound_to 7997
  155.4983  140.0552  157.2934 H   0  0  0  0  0  0  0  0  0  0  0  0  # atno 8010 bound_to 7997
  139.8399  143.7336  152.2663 H   0  0  0  0  0  0  0  0  0  0  0  0  # atno 10167 bound_to 10162
  156.4284  130.4440  149.7134 H   0  0  0  0  0  0  0  0  0  0  0  0  # atno 10718 bound_to 10713
  153.0892  135.6642  153.9887 H   0  0  0  0  0  0  0  0  0  0  0  0  # atno 10763 bound_to 10752
  153.9488  135.2986  155.3441 H   0  0  0  0  0  0  0  0  0  0  0  0  # atno 10764 bound_to 10752
  154.7305  135.5125  153.9028 H   0  0  0  0  0  0  0  0  0  0  0  0  # atno 10765 bound_to 10752
  140.2065  134.8299  157.3075 H   0  0  0  0  0  0  0  0  0  0  0  0  # atno 11005 bound_to 11000
  146.3489  139.9750  142.8702 LP  0  0  0  0  0  0  0  0  0  0  0  0  # atno 17320 bound_to 7965
  145.1861  140.9790  143.4238 LP  0  0  0  0  0  0  0  0  0  0  0  0  # atno 17321 bound_to 7965
  139.7569  144.7518  151.0421 LP  0  0  0  0  0  0  0  0  0  0  0  0  # atno 17342 bound_to 10162
  140.7799  143.4795  151.0037 LP  0  0  0  0  0  0  0  0  0  0  0  0  # atno 17343 bound_to 10162
  156.4047  130.7692  151.2702 LP  0  0  0  0  0  0  0  0  0  0  0  0  # atno 17370 bound_to 10713
  157.7508  131.0229  150.3812 LP  0  0  0  0  0  0  0  0  0  0  0  0  # atno 17371 bound_to 10713
  140.1997  134.4270  155.7670 LP  0  0  0  0  0  0  0  0  0  0  0  0  # atno 17394 bound_to 11000
  141.2227  133.7066  156.8163 LP  0  0  0  0  0  0  0  0  0  0  0  0  # atno 17395 bound_to 11000

$$$$
