AV-unprocessed.smi:1899|AV-procd|sdf|7705|dock3
  -GOLD-   22720 9443D 1   1.00000     0.00000
 Structure written by MMmdl.
 34 35  0  0  0  0  0  0  0  0  2 V2000
  151.4307  140.9616  157.1628 O   0  0  0  0  0  0  0  0  0  0  0  0
  150.8323  142.0374  157.1264 C   0  0  0  0  0  0  0  0  0  0  0  0
  149.9852  142.3735  156.1406 N   0  0  0  0  0  0  0  0  0  0  0  0
  149.6221  141.5185  155.0138 C   0  0  0  0  0  0  0  0  0  0  0  0
  148.1280  141.1430  155.0307 C   0  0  0  0  0  0  0  0  0  0  0  0
  147.7815  140.1412  154.0170 N   0  0  0  0  0  0  0  0  0  0  0  0
  146.7796  140.2160  153.0839 C   0  0  0  0  0  0  0  0  0  0  0  0
  146.8471  139.0630  152.3449 C   0  0  0  0  0  0  0  0  0  0  0  0
  147.8834  138.3318  152.8603 N   0  3  0  0  0  0  0  0  0  0  0  0
  148.4472  138.9866  153.8804 C   0  0  0  0  0  0  0  0  0  0  0  0
  151.0058  143.0551  158.2604 C   0  0  2  0  0  0  0  0  0  0  0  0
  151.6290  144.3727  157.7441 C   0  0  0  0  0  0  0  0  0  0  0  0
  152.0610  145.2856  158.8783 C   0  0  0  0  0  0  0  0  0  0  0  0
  152.2007  144.8714  160.1492 C   0  0  0  0  0  0  0  0  0  0  0  0
  151.9467  143.4424  160.5954 C   0  0  0  0  0  0  0  0  0  0  0  0
  151.8555  142.4684  159.4060 C   0  0  0  0  0  0  0  0  0  0  0  0
  149.5434  143.2806  156.1854 H   0  0  0  0  0  0  0  0  0  0  0  0
  149.8425  142.0711  154.1004 H   0  0  0  0  0  0  0  0  0  0  0  0
  150.2448  140.6227  154.9822 H   0  0  0  0  0  0  0  0  0  0  0  0
  147.8323  140.7681  156.0119 H   0  0  0  0  0  0  0  0  0  0  0  0
  147.5196  142.0263  154.8338 H   0  0  0  0  0  0  0  0  0  0  0  0
  146.1159  141.0654  153.0119 H   0  0  0  0  0  0  0  0  0  0  0  0
  146.2528  138.7178  151.5118 H   0  0  0  0  0  0  0  0  0  0  0  0
  149.2850  138.6545  154.4673 H   0  0  0  0  0  0  0  0  0  0  0  0
  150.0189  143.2852  158.6671 H   0  0  0  0  0  0  0  0  0  0  0  0
  152.5009  144.1828  157.1167 H   0  0  0  0  0  0  0  0  0  0  0  0
  150.9046  144.9055  157.1270 H   0  0  0  0  0  0  0  0  0  0  0  0
  152.2736  146.3132  158.6222 H   0  0  0  0  0  0  0  0  0  0  0  0
  152.4994  145.5742  160.9132 H   0  0  0  0  0  0  0  0  0  0  0  0
  152.7423  143.1292  161.2720 H   0  0  0  0  0  0  0  0  0  0  0  0
  151.0187  143.4276  161.1674 H   0  0  0  0  0  0  0  0  0  0  0  0
  151.4463  141.5153  159.7439 H   0  0  0  0  0  0  0  0  0  0  0  0
  152.8625  142.2578  159.0415 H   0  0  0  0  0  0  0  0  0  0  0  0
  148.1840  137.4276  152.5183 H   0  0  0  0  0  0  0  0  0  0  0  0
  1  2  2  0  0  0  0
  2  3  1  0  0  0  0
  2 11  1  0  0  0  0
  3  4  1  0  0  0  0
  3 17  1  0  0  0  0
  4  5  1  0  0  0  0
  4 18  1  0  0  0  0
  4 19  1  0  0  0  0
  5  6  1  0  0  0  0
  5 20  1  0  0  0  0
  5 21  1  0  0  0  0
  6 10  1  0  0  0  0
  6  7  1  0  0  0  0
  7  8  2  0  0  0  0
  7 22  1  0  0  0  0
  8  9  1  0  0  0  0
  8 23  1  0  0  0  0
  9 10  2  0  0  0  0
  9 34  1  0  0  0  0
 10 24  1  0  0  0  0
 11 16  1  0  0  0  0
 11 12  1  0  0  0  0
 11 25  1  0  0  0  0
 12 13  1  0  0  0  0
 12 26  1  0  0  0  0
 12 27  1  0  0  0  0
 13 14  2  0  0  0  0
 13 28  1  0  0  0  0
 14 15  1  0  0  0  0
 14 29  1  0  0  0  0
 15 16  1  0  0  0  0
 15 30  1  0  0  0  0
 15 31  1  0  0  0  0
 16 32  1  0  0  0  0
 16 33  1  0  0  0  0
M  CHG  1   9   1
M  END
> <s_m_source_file>
AV-unprocessed.smi

> <i_m_source_file_index>
1899

> <i_lp_mmshare_version>
43012

> <i_f3d_flags>
0

> <s_epik_input>
W0NIMl0xW0NIMl1bQ0hdPVtDSF1bQ0gyXVtDQEhdMUMoPU8pW05IXVtDSDJdW0NIMl1uMltjSF1bY0hdbltjSF0y

> <s_epik_cmdline>
J2VwaWtfcHl0aG9uJywgJy1waCcsICc3LjAnLCAnLXRuJywgJzgnLCAnLW1hJywgJzIwMCcsICctbWV0YWxfYmluZGluZycsICctaW1hZScsICc8aW5maWxlLm1hZT4nLCAnLW9tYWUnLCAnPG91dGZpbGUubWFlPic=

> <r_lp_tautomer_probability>
1

> <r_epik_Ionization_Penalty>
0.268283

> <r_epik_Ionization_Penalty_Charging>
0

> <r_epik_Ionization_Penalty_Neutral>
0.268283

> <r_epik_State_Penalty>
0.260312

> <r_epik_Charging_Adjusted_Penalty>
0.260312

> <i_epik_Tot_Q>
1

> <i_epik_Tot_abs_Q>
1

> <r_epik_Metal_State_Penalty>
0.545819

> <b_epik_Metal_Only>
0

> <s_lp_Force_Field>
OPLS_2005

> <r_lp_Energy>
10.5606

> <b_lp_Chiralities_Consistent>
1

> <s_lp_Variant>
AV-unprocessed.smi:1899-1

> <Gold.Version>
5.8.1

> <Gold.Id.Protein>
6NUR|6NUR_protein|mol2

> <Gold.PLP.Fitness>
50.0333

> <Gold.PLP.PLP>
-39.1949

> <Gold.PLP.part.hbond>
-3.0000

> <Gold.PLP.part.metal>
0.0000

> <Gold.PLP.part.buried>
-2.3921

> <Gold.PLP.part.nonpolar>
-34.7255

> <Gold.PLP.part.repulsive>
0.1831

> <Gold.PLP.ligand.clash>
0.0000

> <Gold.PLP.ligand.torsion>
0.1479

> <Gold.PLP.Chemscore.Hbond>
3.0000

> <Gold.PLP.Chemscore.CHOScore>
0.7029

> <Gold.PLP.Chemscore.Metal>
0.0000

> <Gold.Chemscore.Hbonds>
donor molecule, donor type, donor heavy atom, donor atom, acceptor molecule, acceptor atom, score
      L1  H     3    17       P1  8028  1.00
      L1  H     9    34       P1  7948  2.00
      L1  C     7    22       P1 10175  0.68

> <Gold.PLP.Chemscore.Internal.Correction>
0.0253

> <Gold.Rescore>
     Score         DG    S(hbond)    S(metal)    S(lipo)     H(rot)  DE(clash)    DE(int)     intcor
     19.00     -19.19       1.98        0.00     101.59       1.87       0.15       0.04       ----

> <Gold.Chemscore.Fitness>
18.9951

> <Gold.Chemscore.DG>
-19.1850

> <Gold.Chemscore.ZeroCoef>
-5.4800

> <Gold.Chemscore.Hbond>
1.9813

> <Gold.Chemscore.Metal>
0.0000

> <Gold.Chemscore.Lipo>
101.5891

> <Gold.Chemscore.Internal_Hbond>
0.0000

> <Gold.Chemscore.DEClash>
0.1507

> <Gold.Chemscore.DEInternal>
0.0392

> <Gold.Chemscore.Rot>
1.8743

> <Gold.Chemscore.Internal.Correction>
   9.000000E+99

> <Gold.Chemscore.Hbonds>
donor molecule, donor type, donor heavy atom, donor atom, acceptor molecule, acceptor atom, score
      L1  H     3    17       P1  8028  0.99
      L1  H     9    34       P1  7948  0.95

> <Gold.Chemscore.Hbond.Weighted>
-6.6174

> <Gold.Chemscore.Metal.Weighted>
-0.0000

> <Gold.Chemscore.Lipo.Weighted>
-11.8859

> <Gold.Chemscore.Internal_Hbond.Weighted>
0.0000

> <Gold.Chemscore.DEClash.Weighted>
0.1507

> <Gold.Chemscore.DEInternal.Weighted>
0.0392

> <Gold.Chemscore.Rot.Weighted>
4.7983

> <Gold.Chemscore.Internal.Correction.Weighted>
   9.000000E+99

> <Gold.Protein.RotatedTorsions>
[ 6907 6896 6895 6894 ] final   -0.70 input  -60.11 | X-H torsion
[ 7974 7965 7964 7962 ] final  -51.21 input  175.53 | X-H torsion
[ 8008 7997 7996 7995 ] final   67.58 input   59.86 | X-H torsion
[ 10167 10162 10161 10158 ] final  -33.48 input  -65.29 | X-H torsion
[ 10718 10713 10712 10709 ] final -106.71 input   66.30 | X-H torsion
[ 10763 10752 10751 10750 ] final  174.08 input  -60.55 | X-H torsion
[ 11005 11000 10999 10996 ] final   95.82 input  -57.11 | X-H torsion

> <Gold.Protein.ActiveResidues>
 VAL166  LYS551  ARG553  GLY616  TRP617  ASP618  TYR619  PRO620  LYS621  CYS622 
 ASP623  PHE694  ASN695  SER759  ASP760  ASP761  ALA762  ILE779  LEU786  VAL792 
 PHE793  MET794  SER795  GLU796  ALA797  LYS798  CYS799  TRP800  GLU811  SER814 

> <Gold.Protein.RotatedAtoms>
  151.5581  135.1066  159.9965 H   0  0  0  0  0  0  0  0  0  0  0  0  # atno 6907 bound_to 6896
  152.4460  133.7533  159.6716 H   0  0  0  0  0  0  0  0  0  0  0  0  # atno 6908 bound_to 6896
  150.8375  133.7921  159.3097 H   0  0  0  0  0  0  0  0  0  0  0  0  # atno 6909 bound_to 6896
  145.9214  140.7830  142.9645 H   0  0  0  0  0  0  0  0  0  0  0  0  # atno 7974 bound_to 7965
  155.6950  140.3496  155.4909 H   0  0  0  0  0  0  0  0  0  0  0  0  # atno 8008 bound_to 7997
  155.9491  140.1116  157.1014 H   0  0  0  0  0  0  0  0  0  0  0  0  # atno 8009 bound_to 7997
  154.4118  140.1198  156.5014 H   0  0  0  0  0  0  0  0  0  0  0  0  # atno 8010 bound_to 7997
  140.7203  143.3617  151.1950 H   0  0  0  0  0  0  0  0  0  0  0  0  # atno 10167 bound_to 10162
  156.0403  130.5626  150.7720 H   0  0  0  0  0  0  0  0  0  0  0  0  # atno 10718 bound_to 10713
  154.4490  135.2764  155.1795 H   0  0  0  0  0  0  0  0  0  0  0  0  # atno 10763 bound_to 10752
  154.3630  135.6125  153.5704 H   0  0  0  0  0  0  0  0  0  0  0  0  # atno 10764 bound_to 10752
  152.9846  135.5839  154.4831 H   0  0  0  0  0  0  0  0  0  0  0  0  # atno 10765 bound_to 10752
  139.8786  134.8919  156.4068 H   0  0  0  0  0  0  0  0  0  0  0  0  # atno 11005 bound_to 11000
  144.6753  140.1981  143.7390 LP  0  0  0  0  0  0  0  0  0  0  0  0  # atno 17320 bound_to 7965
  145.8545  139.2192  143.1753 LP  0  0  0  0  0  0  0  0  0  0  0  0  # atno 17321 bound_to 7965
  139.7170  143.9284  152.2971 LP  0  0  0  0  0  0  0  0  0  0  0  0  # atno 17342 bound_to 10162
  139.9028  144.6902  150.8647 LP  0  0  0  0  0  0  0  0  0  0  0  0  # atno 17343 bound_to 10162
  157.5211  131.0931  151.0077 LP  0  0  0  0  0  0  0  0  0  0  0  0  # atno 17370 bound_to 10713
  157.0408  130.5748  149.5356 LP  0  0  0  0  0  0  0  0  0  0  0  0  # atno 17371 bound_to 10713
  140.9228  133.7633  155.9928 LP  0  0  0  0  0  0  0  0  0  0  0  0  # atno 17394 bound_to 11000
  140.8419  134.3056  157.5310 LP  0  0  0  0  0  0  0  0  0  0  0  0  # atno 17395 bound_to 11000

$$$$
