AV-unprocessed.smi:1415|AV-procd|sdf|5763|dock8
  -GOLD-   22720 5403D 1   1.00000     0.00000
 Structure written by MMmdl.
 40 41  0  0  0  0  0  0  0  0  1 V2000
  144.6721  136.8086  152.3476 O   0  0  0  0  0  0  0  0  0  0  0  0
  145.8652  136.5938  152.1312 C   0  0  0  0  0  0  0  0  0  0  0  0
  146.8340  137.4845  152.3887 N   0  0  0  0  0  0  0  0  0  0  0  0
  146.6161  138.8124  152.9496 C   0  0  0  0  0  0  0  0  0  0  0  0
  147.8781  139.6888  152.8382 C   0  0  0  0  0  0  0  0  0  0  0  0
  148.6227  139.7094  154.1033 N   0  0  0  0  0  0  0  0  0  0  0  0
  148.8422  138.4071  154.7549 C   0  0  0  0  0  0  0  0  0  0  0  0
  150.3146  137.9329  154.7219 C   0  0  0  0  0  0  0  0  0  0  0  0
  151.3893  139.0380  154.7009 C   0  0  0  0  0  0  0  0  0  0  0  0
  151.2594  140.0965  155.8163 C   0  0  0  0  0  0  0  0  0  0  0  0
  149.8872  140.7998  155.9429 C   0  0  0  0  0  0  0  0  0  0  0  0
  149.0892  140.8683  154.6310 C   0  0  0  0  0  0  0  0  0  0  0  0
  148.9084  141.9667  154.1050 O   0  0  0  0  0  0  0  0  0  0  0  0
  146.3704  135.4598  151.6145 N   0  0  0  0  0  0  0  0  0  0  0  0
  145.6719  134.2863  151.2233 C   0  0  0  0  0  0  0  0  0  0  0  0
  146.4922  133.1999  150.8438 C   0  0  0  0  0  0  0  0  0  0  0  0
  145.8962  131.9894  150.4397 C   0  0  0  0  0  0  0  0  0  0  0  0
  144.4932  131.8959  150.4261 C   0  0  0  0  0  0  0  0  0  0  0  0
  143.7499  133.0240  150.8192 C   0  0  0  0  0  0  0  0  0  0  0  0
  144.3192  134.1849  151.2067 N   0  0  0  0  0  0  0  0  0  0  0  0
  147.7881  137.2284  152.1805 H   0  0  0  0  0  0  0  0  0  0  0  0
  145.7933  139.2782  152.4066 H   0  0  0  0  0  0  0  0  0  0  0  0
  146.2906  138.7262  153.9878 H   0  0  0  0  0  0  0  0  0  0  0  0
  148.5231  139.3224  152.0374 H   0  0  0  0  0  0  0  0  0  0  0  0
  147.5990  140.6983  152.5349 H   0  0  0  0  0  0  0  0  0  0  0  0
  148.4954  138.4619  155.7869 H   0  0  0  0  0  0  0  0  0  0  0  0
  148.2190  137.6312  154.3098 H   0  0  0  0  0  0  0  0  0  0  0  0
  150.4892  137.2692  155.5693 H   0  0  0  0  0  0  0  0  0  0  0  0
  150.4588  137.3174  153.8333 H   0  0  0  0  0  0  0  0  0  0  0  0
  152.3728  138.5726  154.7712 H   0  0  0  0  0  0  0  0  0  0  0  0
  151.3811  139.5314  153.7278 H   0  0  0  0  0  0  0  0  0  0  0  0
  151.4996  139.6330  156.7736 H   0  0  0  0  0  0  0  0  0  0  0  0
  152.0278  140.8539  155.6579 H   0  0  0  0  0  0  0  0  0  0  0  0
  149.2808  140.3059  156.7016 H   0  0  0  0  0  0  0  0  0  0  0  0
  150.0374  141.8111  156.3230 H   0  0  0  0  0  0  0  0  0  0  0  0
  147.3711  135.4320  151.4866 H   0  0  0  0  0  0  0  0  0  0  0  0
  147.5688  133.2890  150.8601 H   0  0  0  0  0  0  0  0  0  0  0  0
  146.5055  131.1476  150.1460 H   0  0  0  0  0  0  0  0  0  0  0  0
  143.9993  130.9847  150.1229 H   0  0  0  0  0  0  0  0  0  0  0  0
  142.6706  132.9939  150.8230 H   0  0  0  0  0  0  0  0  0  0  0  0
  1  2  2  0  0  0  0
  2  3  1  0  0  0  0
  2 14  1  0  0  0  0
  3  4  1  0  0  0  0
  3 21  1  0  0  0  0
  4  5  1  0  0  0  0
  4 22  1  0  0  0  0
  4 23  1  0  0  0  0
  5  6  1  0  0  0  0
  5 24  1  0  0  0  0
  5 25  1  0  0  0  0
  6 12  1  0  0  0  0
  6  7  1  0  0  0  0
  7  8  1  0  0  0  0
  7 26  1  0  0  0  0
  7 27  1  0  0  0  0
  8  9  1  0  0  0  0
  8 28  1  0  0  0  0
  8 29  1  0  0  0  0
  9 10  1  0  0  0  0
  9 30  1  0  0  0  0
  9 31  1  0  0  0  0
 10 11  1  0  0  0  0
 10 32  1  0  0  0  0
 10 33  1  0  0  0  0
 11 12  1  0  0  0  0
 11 34  1  0  0  0  0
 11 35  1  0  0  0  0
 12 13  2  0  0  0  0
 14 15  1  0  0  0  0
 14 36  1  0  0  0  0
 15 20  1  0  0  0  0
 15 16  2  0  0  0  0
 16 17  1  0  0  0  0
 16 37  1  0  0  0  0
 17 18  2  0  0  0  0
 17 38  1  0  0  0  0
 18 19  1  0  0  0  0
 18 39  1  0  0  0  0
 19 20  2  0  0  0  0
 19 40  1  0  0  0  0
M  END
> <s_m_source_file>
AV-unprocessed.smi

> <i_m_source_file_index>
1415

> <i_lp_mmshare_version>
43012

> <i_f3d_flags>
0

> <s_epik_input>
bjFbY0hdW2NIXVtjSF1bY0hdYzFbTkhdQyg9TylbTkhdW0NIMl1bQ0gyXU4yW0NIMl1bQ0gyXVtDSDJdW0NIMl1bQ0gyXUMyPU8=

> <s_epik_cmdline>
J2VwaWtfcHl0aG9uJywgJy1waCcsICc3LjAnLCAnLXRuJywgJzgnLCAnLW1hJywgJzIwMCcsICctbWV0YWxfYmluZGluZycsICctaW1hZScsICc8aW5maWxlLm1hZT4nLCAnLW9tYWUnLCAnPG91dGZpbGUubWFlPic=

> <r_lp_tautomer_probability>
1

> <r_epik_Ionization_Penalty>
4.30218e-05

> <r_epik_Ionization_Penalty_Charging>
0

> <r_epik_Ionization_Penalty_Neutral>
4.30218e-05

> <r_epik_State_Penalty>
-0

> <r_epik_Charging_Adjusted_Penalty>
0

> <i_epik_Tot_Q>
0

> <i_epik_Tot_abs_Q>
0

> <r_epik_Metal_State_Penalty>
-0

> <b_epik_Metal_Only>
0

> <s_lp_Force_Field>
OPLS_2005

> <r_lp_Energy>
23.0834

> <b_lp_Chiralities_Consistent>
1

> <s_lp_Variant>
AV-unprocessed.smi:1415-1

> <Gold.Version>
5.8.1

> <Gold.Id.Protein>
6NUR|6NUR_protein|mol2

> <Gold.PLP.Fitness>
45.7761

> <Gold.PLP.PLP>
-36.6172

> <Gold.PLP.part.hbond>
-2.9315

> <Gold.PLP.part.metal>
0.0000

> <Gold.PLP.part.buried>
-0.0948

> <Gold.PLP.part.nonpolar>
-34.8120

> <Gold.PLP.part.repulsive>
0.6840

> <Gold.PLP.ligand.clash>
0.0000

> <Gold.PLP.ligand.torsion>
0.5117

> <Gold.PLP.Chemscore.Hbond>
2.3920

> <Gold.PLP.Chemscore.CHOScore>
1.0000

> <Gold.PLP.Chemscore.Metal>
0.0000

> <Gold.Chemscore.Hbonds>
donor molecule, donor type, donor heavy atom, donor atom, acceptor molecule, acceptor atom, score
      L1  H     3    21       P1  7948  1.00
      L1  H    14    36       P1  7948  0.96
      P1  H  8011  8017       L1    13  0.43
      L1  C    19    40       P1 10186  1.00

> <Gold.PLP.Chemscore.Internal.Correction>
0.0062

> <Gold.Rescore>
     Score         DG    S(hbond)    S(metal)    S(lipo)     H(rot)  DE(clash)    DE(int)     intcor
     15.05     -19.01       2.32        0.00      83.89       1.57       2.15       1.81       ----

> <Gold.Chemscore.Fitness>
15.0506

> <Gold.Chemscore.DG>
-19.0084

> <Gold.Chemscore.ZeroCoef>
-5.4800

> <Gold.Chemscore.Hbond>
2.3173

> <Gold.Chemscore.Metal>
0.0000

> <Gold.Chemscore.Lipo>
83.8940

> <Gold.Chemscore.Internal_Hbond>
0.0000

> <Gold.Chemscore.DEClash>
2.1466

> <Gold.Chemscore.DEInternal>
1.8112

> <Gold.Chemscore.Rot>
1.5731

> <Gold.Chemscore.Internal.Correction>
   9.000000E+99

> <Gold.Chemscore.Hbonds>
donor molecule, donor type, donor heavy atom, donor atom, acceptor molecule, acceptor atom, score
      L1  H     3    21       P1  7948  0.94
      L1  H    14    36       P1  7948  0.85
      P1  H  8011  8017       L1    13  0.39

> <Gold.Chemscore.Hbond.Weighted>
-7.7399

> <Gold.Chemscore.Metal.Weighted>
-0.0000

> <Gold.Chemscore.Lipo.Weighted>
-9.8156

> <Gold.Chemscore.Internal_Hbond.Weighted>
0.0000

> <Gold.Chemscore.DEClash.Weighted>
2.1466

> <Gold.Chemscore.DEInternal.Weighted>
1.8112

> <Gold.Chemscore.Rot.Weighted>
4.0271

> <Gold.Chemscore.Internal.Correction.Weighted>
   9.000000E+99

> <Gold.Protein.RotatedTorsions>
[ 6907 6896 6895 6894 ] final   92.92 input  -60.11 | X-H torsion
[ 7974 7965 7964 7962 ] final   44.31 input  175.53 | X-H torsion
[ 8008 7997 7996 7995 ] final  -21.13 input   59.86 | X-H torsion
[ 10167 10162 10161 10158 ] final   -1.82 input  -65.29 | X-H torsion
[ 10718 10713 10712 10709 ] final -138.73 input   66.30 | X-H torsion
[ 10763 10752 10751 10750 ] final  107.63 input  -60.55 | X-H torsion
[ 11005 11000 10999 10996 ] final   37.28 input  -57.11 | X-H torsion

> <Gold.Protein.ActiveResidues>
 VAL166  LYS551  ARG553  GLY616  TRP617  ASP618  TYR619  PRO620  LYS621  CYS622 
 ASP623  PHE694  ASN695  SER759  ASP760  ASP761  ALA762  ILE779  LEU786  VAL792 
 PHE793  MET794  SER795  GLU796  ALA797  LYS798  CYS799  TRP800  GLU811  SER814 

> <Gold.Protein.RotatedAtoms>
  152.5453  134.1428  159.8485 H   0  0  0  0  0  0  0  0  0  0  0  0  # atno 6907 bound_to 6896
  151.1462  133.4930  159.2603 H   0  0  0  0  0  0  0  0  0  0  0  0  # atno 6908 bound_to 6896
  151.1520  135.0242  159.8727 H   0  0  0  0  0  0  0  0  0  0  0  0  # atno 6909 bound_to 6896
  146.0579  139.5088  142.9677 H   0  0  0  0  0  0  0  0  0  0  0  0  # atno 7974 bound_to 7965
  154.4725  140.2043  155.9959 H   0  0  0  0  0  0  0  0  0  0  0  0  # atno 8008 bound_to 7997
  156.1035  140.3240  155.7944 H   0  0  0  0  0  0  0  0  0  0  0  0  # atno 8009 bound_to 7997
  155.4757  140.0534  157.2964 H   0  0  0  0  0  0  0  0  0  0  0  0  # atno 8010 bound_to 7997
  140.6826  143.6730  150.8169 H   0  0  0  0  0  0  0  0  0  0  0  0  # atno 10167 bound_to 10162
  156.3027  130.7437  151.1493 H   0  0  0  0  0  0  0  0  0  0  0  0  # atno 10718 bound_to 10713
  153.4094  135.3838  155.2040 H   0  0  0  0  0  0  0  0  0  0  0  0  # atno 10763 bound_to 10752
  154.8736  135.3790  154.4520 H   0  0  0  0  0  0  0  0  0  0  0  0  # atno 10764 bound_to 10752
  153.5026  135.7088  153.5885 H   0  0  0  0  0  0  0  0  0  0  0  0  # atno 10765 bound_to 10752
  140.2242  134.3605  155.7992 H   0  0  0  0  0  0  0  0  0  0  0  0  # atno 11005 bound_to 11000
  145.6611  141.0240  143.1708 LP  0  0  0  0  0  0  0  0  0  0  0  0  # atno 17320 bound_to 7965
  144.7158  139.8202  143.7399 LP  0  0  0  0  0  0  0  0  0  0  0  0  # atno 17321 bound_to 7965
  140.0433  143.5324  152.2708 LP  0  0  0  0  0  0  0  0  0  0  0  0  # atno 17342 bound_to 10162
  139.6159  144.7619  151.2847 LP  0  0  0  0  0  0  0  0  0  0  0  0  # atno 17343 bound_to 10162
  157.7372  131.0554  150.5371 LP  0  0  0  0  0  0  0  0  0  0  0  0  # atno 17370 bound_to 10713
  156.5500  130.4229  149.6112 LP  0  0  0  0  0  0  0  0  0  0  0  0  # atno 17371 bound_to 10713
  141.2221  133.7210  156.8625 LP  0  0  0  0  0  0  0  0  0  0  0  0  # atno 17394 bound_to 11000
  140.1818  134.9028  157.2957 LP  0  0  0  0  0  0  0  0  0  0  0  0  # atno 17395 bound_to 11000

$$$$
