AV-unprocessed.smi:3147|AV-procd|sdf|11988|dock5
  -GOLD-   2272017393D 1   1.00000     0.00000
 Structure written by MMmdl.
 37 38  0  0  0  0  0  0  0  0  2 V2000
  146.4127  142.1732  153.9169 C   0  0  0  0  0  0  0  0  0  0  0  0
  147.7118  141.5528  154.3093 C   0  0  0  0  0  0  0  0  0  0  0  0
  148.6901  142.2695  154.9470 N   0  3  0  0  0  0  0  0  0  0  0  0
  149.7505  141.4998  155.1944 C   0  0  0  0  0  0  0  0  0  0  0  0
  149.4643  140.2837  154.7172 N   0  0  0  0  0  0  0  0  0  0  0  0
  150.4146  139.1659  154.8291 C   0  0  0  0  0  0  0  0  0  0  0  0
  151.6990  139.5508  155.5731 C   0  0  0  0  0  0  0  0  0  0  0  0
  152.5678  140.2334  155.0279 O   0  0  0  0  0  0  0  0  0  0  0  0
  151.8041  139.0987  156.8312 N   0  0  0  0  0  0  0  0  0  0  0  0
  152.9431  139.3303  157.7125 C   0  0  0  0  0  0  0  0  0  0  0  0
  152.6309  140.3964  158.7764 C   0  0  1  0  0  0  0  0  0  0  0  0
  153.7987  140.6890  159.7148 C   0  0  0  0  0  0  0  0  0  0  0  0
  153.4419  142.0692  160.2173 C   0  0  0  0  0  0  0  0  0  0  0  0
  152.8389  142.7179  158.9732 C   0  0  0  0  0  0  0  0  0  0  0  0
  152.3436  141.6514  158.1660 O   0  0  0  0  0  0  0  0  0  0  0  0
  148.2042  140.2756  154.1608 C   0  0  0  0  0  0  0  0  0  0  0  0
  147.5967  139.0546  153.5486 C   0  0  0  0  0  0  0  0  0  0  0  0
  145.7636  141.4422  153.4355 H   0  0  0  0  0  0  0  0  0  0  0  0
  146.5829  142.9948  153.2208 H   0  0  0  0  0  0  0  0  0  0  0  0
  145.9006  142.5618  154.7974 H   0  0  0  0  0  0  0  0  0  0  0  0
  150.6579  141.8004  155.6872 H   0  0  0  0  0  0  0  0  0  0  0  0
  149.9214  138.3409  155.3441 H   0  0  0  0  0  0  0  0  0  0  0  0
  150.6570  138.8192  153.8232 H   0  0  0  0  0  0  0  0  0  0  0  0
  151.0471  138.5439  157.2042 H   0  0  0  0  0  0  0  0  0  0  0  0
  153.2359  138.3940  158.1906 H   0  0  0  0  0  0  0  0  0  0  0  0
  153.7911  139.6447  157.1033 H   0  0  0  0  0  0  0  0  0  0  0  0
  151.7651  140.1033  159.3723 H   0  0  0  0  0  0  0  0  0  0  0  0
  153.8966  139.9543  160.5145 H   0  0  0  0  0  0  0  0  0  0  0  0
  154.7392  140.7234  159.1630 H   0  0  0  0  0  0  0  0  0  0  0  0
  152.6902  141.9960  161.0042 H   0  0  0  0  0  0  0  0  0  0  0  0
  154.2972  142.6177  160.6127 H   0  0  0  0  0  0  0  0  0  0  0  0
  152.0482  143.4259  159.2233 H   0  0  0  0  0  0  0  0  0  0  0  0
  153.6044  143.2518  158.4093 H   0  0  0  0  0  0  0  0  0  0  0  0
  146.5415  139.2152  153.3307 H   0  0  0  0  0  0  0  0  0  0  0  0
  147.6776  138.2070  154.2294 H   0  0  0  0  0  0  0  0  0  0  0  0
  148.1078  138.8063  152.6184 H   0  0  0  0  0  0  0  0  0  0  0  0
  148.6198  143.2470  155.2006 H   0  0  0  0  0  0  0  0  0  0  0  0
  1  2  1  0  0  0  0
  1 18  1  0  0  0  0
  1 19  1  0  0  0  0
  1 20  1  0  0  0  0
  2 16  2  0  0  0  0
  2  3  1  0  0  0  0
  3  4  2  0  0  0  0
  3 37  1  0  0  0  0
  4  5  1  0  0  0  0
  4 21  1  0  0  0  0
  5  6  1  0  0  0  0
  5 16  1  0  0  0  0
  6  7  1  0  0  0  0
  6 22  1  0  0  0  0
  6 23  1  0  0  0  0
  7  8  2  0  0  0  0
  7  9  1  0  0  0  0
  9 10  1  0  0  0  0
  9 24  1  0  0  0  0
 10 11  1  0  0  0  0
 10 25  1  0  0  0  0
 10 26  1  0  0  0  0
 11 15  1  0  0  0  0
 11 12  1  0  0  0  0
 11 27  1  0  0  0  0
 12 13  1  0  0  0  0
 12 28  1  0  0  0  0
 12 29  1  0  0  0  0
 13 14  1  0  0  0  0
 13 30  1  0  0  0  0
 13 31  1  0  0  0  0
 14 15  1  0  0  0  0
 14 32  1  0  0  0  0
 14 33  1  0  0  0  0
 16 17  1  0  0  0  0
 17 34  1  0  0  0  0
 17 35  1  0  0  0  0
 17 36  1  0  0  0  0
M  CHG  1   3   1
M  END
> <s_m_source_file>
AV-unprocessed.smi

> <i_m_source_file_index>
3147

> <i_lp_mmshare_version>
43012

> <i_f3d_flags>
0

> <s_epik_input>
W0NIM11jMW5bY0hdbihjMVtDSDNdKVtDSDJdQyg9TylbTkhdW0NIMl1bQ0BASF0yW0NIMl1bQ0gyXVtDSDJdTzI=

> <s_epik_cmdline>
J2VwaWtfcHl0aG9uJywgJy1waCcsICc3LjAnLCAnLXRuJywgJzgnLCAnLW1hJywgJzIwMCcsICctbWV0YWxfYmluZGluZycsICctaW1hZScsICc8aW5maWxlLm1hZT4nLCAnLW9tYWUnLCAnPG91dGZpbGUubWFlPic=

> <r_lp_tautomer_probability>
1

> <r_epik_Ionization_Penalty>
0.131257

> <r_epik_Ionization_Penalty_Charging>
0

> <r_epik_Ionization_Penalty_Neutral>
0.131257

> <r_epik_State_Penalty>
0.12065

> <r_epik_Charging_Adjusted_Penalty>
0.12065

> <i_epik_Tot_Q>
1

> <i_epik_Tot_abs_Q>
1

> <r_epik_Metal_State_Penalty>
0.448684

> <b_epik_Metal_Only>
0

> <s_lp_Force_Field>
OPLS_2005

> <r_lp_Energy>
19.5729

> <b_lp_Chiralities_Consistent>
1

> <s_lp_Variant>
AV-unprocessed.smi:3147-2

> <Gold.Version>
5.8.1

> <Gold.Id.Protein>
6NUR|6NUR_protein|mol2

> <Gold.PLP.Fitness>
47.0503

> <Gold.PLP.PLP>
-37.2966

> <Gold.PLP.part.hbond>
-3.0000

> <Gold.PLP.part.metal>
0.0000

> <Gold.PLP.part.buried>
-3.5049

> <Gold.PLP.part.nonpolar>
-31.1343

> <Gold.PLP.part.repulsive>
0.2719

> <Gold.PLP.ligand.clash>
0.0000

> <Gold.PLP.ligand.torsion>
0.3025

> <Gold.PLP.Chemscore.Hbond>
3.4493

> <Gold.PLP.Chemscore.CHOScore>
0.0000

> <Gold.PLP.Chemscore.Metal>
0.0000

> <Gold.Chemscore.Hbonds>
donor molecule, donor type, donor heavy atom, donor atom, acceptor molecule, acceptor atom, score
      L1  H     3    37       P1  8028  2.00
      P1  H  7989  7998       L1     8  0.46
      P1  H  7997  8009       L1     8  0.81

> <Gold.PLP.Chemscore.Internal.Correction>
0.0109

> <Gold.Rescore>
     Score         DG    S(hbond)    S(metal)    S(lipo)     H(rot)  DE(clash)    DE(int)     intcor
     16.41     -16.87       2.04        0.00      77.57       1.76       0.02       0.43       ----

> <Gold.Chemscore.Fitness>
16.4109

> <Gold.Chemscore.DG>
-16.8677

> <Gold.Chemscore.ZeroCoef>
-5.4800

> <Gold.Chemscore.Hbond>
2.0395

> <Gold.Chemscore.Metal>
0.0000

> <Gold.Chemscore.Lipo>
77.5699

> <Gold.Chemscore.Internal_Hbond>
0.0000

> <Gold.Chemscore.DEClash>
0.0218

> <Gold.Chemscore.DEInternal>
0.4350

> <Gold.Chemscore.Rot>
1.7577

> <Gold.Chemscore.Internal.Correction>
   9.000000E+99

> <Gold.Chemscore.Hbonds>
donor molecule, donor type, donor heavy atom, donor atom, acceptor molecule, acceptor atom, score
      L1  H     3    37       P1  8028  0.95
      P1  H  7989  7998       L1     8  0.19
      P1  H  7997  8009       L1     8  0.61

> <Gold.Chemscore.Hbond.Weighted>
-6.8118

> <Gold.Chemscore.Metal.Weighted>
-0.0000

> <Gold.Chemscore.Lipo.Weighted>
-9.0757

> <Gold.Chemscore.Internal_Hbond.Weighted>
0.0000

> <Gold.Chemscore.DEClash.Weighted>
0.0218

> <Gold.Chemscore.DEInternal.Weighted>
0.4350

> <Gold.Chemscore.Rot.Weighted>
4.4998

> <Gold.Chemscore.Internal.Correction.Weighted>
   9.000000E+99

> <Gold.Protein.RotatedTorsions>
[ 6907 6896 6895 6894 ] final  -30.49 input  -60.11 | X-H torsion
[ 7974 7965 7964 7962 ] final   92.20 input  175.53 | X-H torsion
[ 8008 7997 7996 7995 ] final -152.02 input   59.86 | X-H torsion
[ 10167 10162 10161 10158 ] final  168.29 input  -65.29 | X-H torsion
[ 10718 10713 10712 10709 ] final    6.90 input   66.30 | X-H torsion
[ 10763 10752 10751 10750 ] final -121.60 input  -60.55 | X-H torsion
[ 11005 11000 10999 10996 ] final  -14.52 input  -57.11 | X-H torsion

> <Gold.Protein.ActiveResidues>
 VAL166  LYS551  ARG553  GLY616  TRP617  ASP618  TYR619  PRO620  LYS621  CYS622 
 ASP623  PHE694  ASN695  SER759  ASP760  ASP761  ALA762  ILE779  LEU786  VAL792 
 PHE793  MET794  SER795  GLU796  ALA797  LYS798  CYS799  TRP800  GLU811  SER814 

> <Gold.Protein.RotatedAtoms>
  151.1049  134.9993  159.8466 H   0  0  0  0  0  0  0  0  0  0  0  0  # atno 6907 bound_to 6896
  152.5439  134.1905  159.8682 H   0  0  0  0  0  0  0  0  0  0  0  0  # atno 6908 bound_to 6896
  151.1951  133.4599  159.2628 H   0  0  0  0  0  0  0  0  0  0  0  0  # atno 6909 bound_to 6896
  145.4954  139.2276  143.2806 H   0  0  0  0  0  0  0  0  0  0  0  0  # atno 7974 bound_to 7965
  155.6485  140.0709  157.2595 H   0  0  0  0  0  0  0  0  0  0  0  0  # atno 8008 bound_to 7997
  154.4167  140.1737  156.1699 H   0  0  0  0  0  0  0  0  0  0  0  0  # atno 8009 bound_to 7997
  155.9796  140.3355  155.6654 H   0  0  0  0  0  0  0  0  0  0  0  0  # atno 8010 bound_to 7997
  139.4964  144.3830  151.9601 H   0  0  0  0  0  0  0  0  0  0  0  0  # atno 10167 bound_to 10162
  156.9290  130.5819  149.5649 H   0  0  0  0  0  0  0  0  0  0  0  0  # atno 10718 bound_to 10713
  154.8671  135.4162  154.2646 H   0  0  0  0  0  0  0  0  0  0  0  0  # atno 10763 bound_to 10752
  153.3567  135.7001  153.6750 H   0  0  0  0  0  0  0  0  0  0  0  0  # atno 10764 bound_to 10752
  153.5668  135.3599  155.2794 H   0  0  0  0  0  0  0  0  0  0  0  0  # atno 10765 bound_to 10752
  140.7873  133.8316  155.9346 H   0  0  0  0  0  0  0  0  0  0  0  0  # atno 11005 bound_to 11000
  146.2258  140.5751  142.8997 LP  0  0  0  0  0  0  0  0  0  0  0  0  # atno 17320 bound_to 7965
  144.7810  140.5839  143.6606 LP  0  0  0  0  0  0  0  0  0  0  0  0  # atno 17321 bound_to 7965
  140.3267  144.3365  150.5997 LP  0  0  0  0  0  0  0  0  0  0  0  0  # atno 17342 bound_to 10162
  140.5679  143.2184  151.7651 LP  0  0  0  0  0  0  0  0  0  0  0  0  # atno 17343 bound_to 10162
  156.0456  130.5533  150.8872 LP  0  0  0  0  0  0  0  0  0  0  0  0  # atno 17370 bound_to 10713
  157.5859  131.0945  150.9197 LP  0  0  0  0  0  0  0  0  0  0  0  0  # atno 17371 bound_to 10713
  140.9424  134.1883  157.4788 LP  0  0  0  0  0  0  0  0  0  0  0  0  # atno 17394 bound_to 11000
  139.8735  134.9877  156.5380 LP  0  0  0  0  0  0  0  0  0  0  0  0  # atno 17395 bound_to 11000

$$$$
