AV-unprocessed.smi:1695|AV-procd|sdf|6797|dock3
  -GOLD-   22720 7563D 1   1.00000     0.00000
 Structure written by MMmdl.
 50 52  0  0  0  0  0  0  0  0  1 V2000
  153.3991  142.5759  161.4901 C   0  0  0  0  0  0  0  0  0  0  0  0
  152.7050  142.3259  160.1628 C   0  0  0  0  0  0  0  0  0  0  0  0
  152.7002  141.0190  159.6256 C   0  0  0  0  0  0  0  0  0  0  0  0
  152.0687  140.7448  158.3927 C   0  0  0  0  0  0  0  0  0  0  0  0
  151.9451  139.5583  157.6903 N   0  0  0  0  0  0  0  0  0  0  0  0
  151.2557  139.9502  156.6225 C   0  0  0  0  0  0  0  0  0  0  0  0
  150.9174  141.2520  156.5506 N   0  0  0  0  0  0  0  0  0  0  0  0
  150.1732  141.9084  155.4906 C   0  0  0  0  0  0  0  0  0  0  0  0
  149.3228  140.9224  154.6654 C   0  0  2  0  0  0  0  0  0  0  0  0
  149.2552  141.3933  153.3325 O   0  0  0  0  0  0  0  0  0  0  0  0
  147.8909  140.7928  155.2270 C   0  0  0  0  0  0  0  0  0  0  0  0
  147.0872  142.0157  155.1898 N   0  0  0  0  0  0  0  0  0  0  0  0
  146.1046  142.0739  156.2754 C   0  0  0  0  0  0  0  0  0  0  0  0
  145.2877  143.3775  156.2665 C   0  0  0  0  0  0  0  0  0  0  0  0
  144.5730  143.5654  154.9132 C   0  0  0  0  0  0  0  0  0  0  0  0
  143.8273  144.9053  154.8545 C   0  0  0  0  0  0  0  0  0  0  0  0
  142.9700  145.1680  155.8441 N   0  0  0  0  0  0  0  0  0  0  0  0
  144.0194  145.6938  153.9307 O   0  0  0  0  0  0  0  0  0  0  0  0
  145.6104  143.4545  153.7789 C   0  0  0  0  0  0  0  0  0  0  0  0
  146.4053  142.1440  153.9013 C   0  0  0  0  0  0  0  0  0  0  0  0
  151.4366  141.8229  157.7068 C   0  0  0  0  0  0  0  0  0  0  0  0
  151.4324  143.1270  158.2320 C   0  0  0  0  0  0  0  0  0  0  0  0
  152.0676  143.3834  159.4650 C   0  0  0  0  0  0  0  0  0  0  0  0
  152.0584  144.7955  160.0228 C   0  0  0  0  0  0  0  0  0  0  0  0
  153.8879  141.6744  161.8599 H   0  0  0  0  0  0  0  0  0  0  0  0
  152.6787  142.8990  162.2417 H   0  0  0  0  0  0  0  0  0  0  0  0
  154.1609  143.3485  161.3851 H   0  0  0  0  0  0  0  0  0  0  0  0
  153.1836  140.2129  160.1575 H   0  0  0  0  0  0  0  0  0  0  0  0
  150.9773  139.2504  155.8480 H   0  0  0  0  0  0  0  0  0  0  0  0
  149.5349  142.6658  155.9473 H   0  0  0  0  0  0  0  0  0  0  0  0
  150.8759  142.4395  154.8464 H   0  0  0  0  0  0  0  0  0  0  0  0
  149.8131  139.9476  154.6707 H   0  0  0  0  0  0  0  0  0  0  0  0
  149.3549  140.6556  152.7505 H   0  0  0  0  0  0  0  0  0  0  0  0
  147.3747  140.0460  154.6222 H   0  0  0  0  0  0  0  0  0  0  0  0
  147.9116  140.3781  156.2363 H   0  0  0  0  0  0  0  0  0  0  0  0
  145.4295  141.2191  156.2109 H   0  0  0  0  0  0  0  0  0  0  0  0
  146.6078  141.9999  157.2388 H   0  0  0  0  0  0  0  0  0  0  0  0
  144.5597  143.3596  157.0783 H   0  0  0  0  0  0  0  0  0  0  0  0
  145.9545  144.2183  156.4662 H   0  0  0  0  0  0  0  0  0  0  0  0
  143.8489  142.7571  154.7947 H   0  0  0  0  0  0  0  0  0  0  0  0
  142.4573  146.0379  155.8512 H   0  0  0  0  0  0  0  0  0  0  0  0
  142.8398  144.4942  156.5848 H   0  0  0  0  0  0  0  0  0  0  0  0
  145.1148  143.4936  152.8082 H   0  0  0  0  0  0  0  0  0  0  0  0
  146.3018  144.2984  153.8097 H   0  0  0  0  0  0  0  0  0  0  0  0
  147.1369  142.1043  153.0932 H   0  0  0  0  0  0  0  0  0  0  0  0
  145.7348  141.2962  153.7511 H   0  0  0  0  0  0  0  0  0  0  0  0
  150.9434  143.9224  157.6890 H   0  0  0  0  0  0  0  0  0  0  0  0
  151.4656  145.4654  159.3993 H   0  0  0  0  0  0  0  0  0  0  0  0
  153.0730  145.1914  160.0712 H   0  0  0  0  0  0  0  0  0  0  0  0
  151.6316  144.8100  161.0260 H   0  0  0  0  0  0  0  0  0  0  0  0
  1  2  1  0  0  0  0
  1 25  1  0  0  0  0
  1 26  1  0  0  0  0
  1 27  1  0  0  0  0
  2 23  1  0  0  0  0
  2  3  2  0  0  0  0
  3  4  1  0  0  0  0
  3 28  1  0  0  0  0
  4 21  2  0  0  0  0
  4  5  1  0  0  0  0
  5  6  2  0  0  0  0
  6  7  1  0  0  0  0
  6 29  1  0  0  0  0
  7  8  1  0  0  0  0
  7 21  1  0  0  0  0
  8  9  1  0  0  0  0
  8 30  1  0  0  0  0
  8 31  1  0  0  0  0
  9 10  1  0  0  0  0
  9 11  1  0  0  0  0
  9 32  1  0  0  0  0
 10 33  1  0  0  0  0
 11 12  1  0  0  0  0
 11 34  1  0  0  0  0
 11 35  1  0  0  0  0
 12 20  1  0  0  0  0
 12 13  1  0  0  0  0
 13 14  1  0  0  0  0
 13 36  1  0  0  0  0
 13 37  1  0  0  0  0
 14 15  1  0  0  0  0
 14 38  1  0  0  0  0
 14 39  1  0  0  0  0
 15 16  1  0  0  0  0
 15 19  1  0  0  0  0
 15 40  1  0  0  0  0
 16 17  1  0  0  0  0
 16 18  2  0  0  0  0
 17 41  1  0  0  0  0
 17 42  1  0  0  0  0
 19 20  1  0  0  0  0
 19 43  1  0  0  0  0
 19 44  1  0  0  0  0
 20 45  1  0  0  0  0
 20 46  1  0  0  0  0
 21 22  1  0  0  0  0
 22 23  2  0  0  0  0
 22 47  1  0  0  0  0
 23 24  1  0  0  0  0
 24 48  1  0  0  0  0
 24 49  1  0  0  0  0
 24 50  1  0  0  0  0
M  END
> <s_m_source_file>
AV-unprocessed.smi

> <i_m_source_file_index>
1695

> <i_lp_mmshare_version>
43012

> <i_f3d_flags>
0

> <s_epik_input>
W0NIM11jKFtjSF0xKWMoW0NIM10pW2NIXWMoYzEyKW4oW2NIXW4yKVtDSDJdW0NASF0oW09IXSlbQ0gyXU4zW0NIMl1bQ0gyXVtDSF0oQyg9TylbTkgyXSlbQ0gyXVtDSDJdMw==

> <s_epik_cmdline>
J2VwaWtfcHl0aG9uJywgJy1waCcsICc3LjAnLCAnLXRuJywgJzgnLCAnLW1hJywgJzIwMCcsICctbWV0YWxfYmluZGluZycsICctaW1hZScsICc8aW5maWxlLm1hZT4nLCAnLW9tYWUnLCAnPG91dGZpbGUubWFlPic=

> <r_epik_Ionization_Penalty>
1.9508

> <r_epik_Ionization_Penalty_Charging>
0

> <r_epik_Ionization_Penalty_Neutral>
1.9508

> <r_epik_State_Penalty>
2.03746

> <r_epik_Charging_Adjusted_Penalty>
2.03746

> <i_epik_Tot_Q>
0

> <i_epik_Tot_abs_Q>
0

> <r_epik_Metal_State_Penalty>
2.03012

> <b_epik_Metal_Only>
0

> <s_lp_Force_Field>
OPLS_2005

> <r_lp_Energy>
30.2081

> <b_lp_Chiralities_Consistent>
1

> <s_lp_Variant>
AV-unprocessed.smi:1695-9

> <Gold.Version>
5.8.1

> <Gold.Id.Protein>
6NUR|6NUR_protein|mol2

> <Gold.PLP.Fitness>
55.8608

> <Gold.PLP.PLP>
-52.5125

> <Gold.PLP.part.hbond>
-4.4868

> <Gold.PLP.part.metal>
0.0000

> <Gold.PLP.part.buried>
-7.4477

> <Gold.PLP.part.nonpolar>
-41.4772

> <Gold.PLP.part.repulsive>
0.2469

> <Gold.PLP.ligand.clash>
0.0000

> <Gold.PLP.ligand.torsion>
1.1387

> <Gold.PLP.Chemscore.Hbond>
1.8320

> <Gold.PLP.Chemscore.CHOScore>
0.0000

> <Gold.PLP.Chemscore.Metal>
0.0000

> <Gold.Chemscore.Hbonds>
donor molecule, donor type, donor heavy atom, donor atom, acceptor molecule, acceptor atom, score
      L1  H    10    33       P1  7957  0.98
      P1  H  8011  8017       L1    10  0.74

> <Gold.PLP.Chemscore.Internal.Correction>
0.1296

> <Gold.Rescore>
     Score         DG    S(hbond)    S(metal)    S(lipo)     H(rot)  DE(clash)    DE(int)     intcor
     16.26     -17.86       1.44        0.00     125.61       2.78       0.22       1.38       ----

> <Gold.Chemscore.Fitness>
16.2628

> <Gold.Chemscore.DG>
-17.8633

> <Gold.Chemscore.ZeroCoef>
-5.4800

> <Gold.Chemscore.Hbond>
1.4421

> <Gold.Chemscore.Metal>
0.0000

> <Gold.Chemscore.Lipo>
125.6072

> <Gold.Chemscore.Internal_Hbond>
0.0000

> <Gold.Chemscore.DEClash>
0.2240

> <Gold.Chemscore.DEInternal>
1.3765

> <Gold.Chemscore.Rot>
2.7849

> <Gold.Chemscore.Internal.Correction>
   9.000000E+99

> <Gold.Chemscore.Hbonds>
donor molecule, donor type, donor heavy atom, donor atom, acceptor molecule, acceptor atom, score
      L1  H    10    33       P1  7957  0.93
      P1  H  8011  8017       L1    10  0.08

> <Gold.Chemscore.Hbond.Weighted>
-4.8167

> <Gold.Chemscore.Metal.Weighted>
-0.0000

> <Gold.Chemscore.Lipo.Weighted>
-14.6960

> <Gold.Chemscore.Internal_Hbond.Weighted>
0.0000

> <Gold.Chemscore.DEClash.Weighted>
0.2240

> <Gold.Chemscore.DEInternal.Weighted>
1.3765

> <Gold.Chemscore.Rot.Weighted>
7.1294

> <Gold.Chemscore.Internal.Correction.Weighted>
   9.000000E+99

> <Gold.Protein.RotatedTorsions>
[ 6907 6896 6895 6894 ] final -172.08 input  -60.11 | X-H torsion
[ 7974 7965 7964 7962 ] final -138.83 input  175.53 | X-H torsion
[ 8008 7997 7996 7995 ] final  -58.60 input   59.86 | X-H torsion
[ 10167 10162 10161 10158 ] final -118.54 input  -65.29 | X-H torsion
[ 10718 10713 10712 10709 ] final  153.00 input   66.30 | X-H torsion
[ 10763 10752 10751 10750 ] final  -25.33 input  -60.55 | X-H torsion
[ 11005 11000 10999 10996 ] final   17.71 input  -57.11 | X-H torsion

> <Gold.Protein.ActiveResidues>
 VAL166  LYS551  ARG553  GLY616  TRP617  ASP618  TYR619  PRO620  LYS621  CYS622 
 ASP623  PHE694  ASN695  SER759  ASP760  ASP761  ALA762  ILE779  LEU786  VAL792 
 PHE793  MET794  SER795  GLU796  ALA797  LYS798  CYS799  TRP800  GLU811  SER814 

> <Gold.Protein.RotatedAtoms>
  151.5342  133.3444  159.2923 H   0  0  0  0  0  0  0  0  0  0  0  0  # atno 6907 bound_to 6896
  150.8575  134.7920  159.7068 H   0  0  0  0  0  0  0  0  0  0  0  0  # atno 6908 bound_to 6896
  152.4604  134.5205  159.9833 H   0  0  0  0  0  0  0  0  0  0  0  0  # atno 6909 bound_to 6896
  144.8726  140.6389  143.5257 H   0  0  0  0  0  0  0  0  0  0  0  0  # atno 7974 bound_to 7965
  154.4316  140.1080  156.5983 H   0  0  0  0  0  0  0  0  0  0  0  0  # atno 8008 bound_to 7997
  155.5939  140.3492  155.4555 H   0  0  0  0  0  0  0  0  0  0  0  0  # atno 8009 bound_to 7997
  156.0226  140.1243  157.0331 H   0  0  0  0  0  0  0  0  0  0  0  0  # atno 8010 bound_to 7997
  140.0564  143.5010  152.2055 H   0  0  0  0  0  0  0  0  0  0  0  0  # atno 10167 bound_to 10162
  157.2505  131.0778  151.1733 H   0  0  0  0  0  0  0  0  0  0  0  0  # atno 10718 bound_to 10713
  153.6981  135.6958  153.5071 H   0  0  0  0  0  0  0  0  0  0  0  0  # atno 10763 bound_to 10752
  153.2363  135.4321  155.0649 H   0  0  0  0  0  0  0  0  0  0  0  0  # atno 10764 bound_to 10752
  154.8352  135.3496  154.6521 H   0  0  0  0  0  0  0  0  0  0  0  0  # atno 10765 bound_to 10752
  140.4329  134.1401  155.7682 H   0  0  0  0  0  0  0  0  0  0  0  0  # atno 11005 bound_to 11000
  145.4102  139.1581  143.4130 LP  0  0  0  0  0  0  0  0  0  0  0  0  # atno 17320 bound_to 7965
  146.2941  140.4205  142.8728 LP  0  0  0  0  0  0  0  0  0  0  0  0  # atno 17321 bound_to 7965
  139.5921  144.7554  151.3375 LP  0  0  0  0  0  0  0  0  0  0  0  0  # atno 17342 bound_to 10162
  140.7193  143.7181  150.7717 LP  0  0  0  0  0  0  0  0  0  0  0  0  # atno 17343 bound_to 10162
  157.3283  130.6972  149.6309 LP  0  0  0  0  0  0  0  0  0  0  0  0  # atno 17370 bound_to 10713
  155.9666  130.4315  150.4923 LP  0  0  0  0  0  0  0  0  0  0  0  0  # atno 17371 bound_to 10713
  141.1738  133.8555  157.1487 LP  0  0  0  0  0  0  0  0  0  0  0  0  # atno 17394 bound_to 11000
  140.0122  134.9983  157.0419 LP  0  0  0  0  0  0  0  0  0  0  0  0  # atno 17395 bound_to 11000

$$$$
