AV-unprocessed.smi:1102|AV-procd|sdf|4768|dock6
  -GOLD-   22720 3303D 1   1.00000     0.00000
 Structure written by MMmdl.
 40 41  0  0  0  0  0  0  0  0  2 V2000
  151.3641  144.2188  157.7969 C   0  0  0  0  0  0  0  0  0  0  0  0
  151.5747  142.7783  157.8899 N   0  0  0  0  0  0  0  0  0  0  0  0
  152.3990  142.2223  158.9550 C   0  0  0  0  0  0  0  0  0  0  0  0
  150.9885  141.9207  156.9341 C   0  0  0  0  0  0  0  0  0  0  0  0
  151.4251  140.5916  156.7124 C   0  0  0  0  0  0  0  0  0  0  0  0
  150.7871  139.7969  155.7381 C   0  0  0  0  0  0  0  0  0  0  0  0
  149.7115  140.3246  154.9936 C   0  0  0  0  0  0  0  0  0  0  0  0
  149.1101  139.4881  154.0138 N   0  0  0  0  0  0  0  0  0  0  0  0
  147.8629  139.5406  153.5150 C   0  0  0  0  0  0  0  0  0  0  0  0
  146.9924  140.3396  153.8584 O   0  0  0  0  0  0  0  0  0  0  0  0
  147.6704  138.5858  152.5942 N   0  0  0  0  0  0  0  0  0  0  0  0
  146.4274  138.3495  151.8660 C   0  0  0  0  0  0  0  0  0  0  0  0
  145.9148  136.9122  152.0592 C   0  0  1  0  0  0  0  0  0  0  0  0
  144.4650  136.7961  152.5315 C   0  0  0  0  0  0  0  0  0  0  0  0
  144.0996  135.4121  152.0475 C   0  0  0  0  0  0  0  0  0  0  0  0
  144.8153  135.3549  150.7010 C   0  0  0  0  0  0  0  0  0  0  0  0
  145.9530  136.2061  150.8218 O   0  0  0  0  0  0  0  0  0  0  0  0
  149.3188  141.6609  155.2444 C   0  0  0  0  0  0  0  0  0  0  0  0
  149.9590  142.3872  156.1862 N   0  3  0  0  0  0  0  0  0  0  0  0
  151.7339  144.5987  156.8440 H   0  0  0  0  0  0  0  0  0  0  0  0
  151.8870  144.7495  158.5927 H   0  0  0  0  0  0  0  0  0  0  0  0
  150.3029  144.4571  157.8779 H   0  0  0  0  0  0  0  0  0  0  0  0
  153.2677  141.7102  158.5400 H   0  0  0  0  0  0  0  0  0  0  0  0
  151.8265  141.5121  159.5524 H   0  0  0  0  0  0  0  0  0  0  0  0
  152.7605  143.0029  159.6245 H   0  0  0  0  0  0  0  0  0  0  0  0
  152.2436  140.1661  157.2736 H   0  0  0  0  0  0  0  0  0  0  0  0
  151.1235  138.7842  155.5690 H   0  0  0  0  0  0  0  0  0  0  0  0
  149.6866  138.7300  153.6787 H   0  0  0  0  0  0  0  0  0  0  0  0
  148.4416  137.9708  152.3788 H   0  0  0  0  0  0  0  0  0  0  0  0
  145.6600  139.0716  152.1501 H   0  0  0  0  0  0  0  0  0  0  0  0
  146.6281  138.5213  150.8085 H   0  0  0  0  0  0  0  0  0  0  0  0
  146.5618  136.3772  152.7564 H   0  0  0  0  0  0  0  0  0  0  0  0
  144.3554  136.9163  153.6097 H   0  0  0  0  0  0  0  0  0  0  0  0
  143.8378  137.5400  152.0381 H   0  0  0  0  0  0  0  0  0  0  0  0
  144.5077  134.6595  152.7236 H   0  0  0  0  0  0  0  0  0  0  0  0
  143.0239  135.2535  151.9666 H   0  0  0  0  0  0  0  0  0  0  0  0
  145.1045  134.3396  150.4285 H   0  0  0  0  0  0  0  0  0  0  0  0
  144.1733  135.7471  149.9113 H   0  0  0  0  0  0  0  0  0  0  0  0
  148.5306  142.1876  154.7286 H   0  0  0  0  0  0  0  0  0  0  0  0
  149.6486  143.3466  156.3414 H   0  0  0  0  0  0  0  0  0  0  0  0
  1  2  1  0  0  0  0
  1 20  1  0  0  0  0
  1 21  1  0  0  0  0
  1 22  1  0  0  0  0
  2  3  1  0  0  0  0
  2  4  1  0  0  0  0
  3 23  1  0  0  0  0
  3 24  1  0  0  0  0
  3 25  1  0  0  0  0
  4 19  1  0  0  0  0
  4  5  2  0  0  0  0
  5  6  1  0  0  0  0
  5 26  1  0  0  0  0
  6  7  2  0  0  0  0
  6 27  1  0  0  0  0
  7  8  1  0  0  0  0
  7 18  1  0  0  0  0
  8  9  1  0  0  0  0
  8 28  1  0  0  0  0
  9 10  2  0  0  0  0
  9 11  1  0  0  0  0
 11 12  1  0  0  0  0
 11 29  1  0  0  0  0
 12 13  1  0  0  0  0
 12 30  1  0  0  0  0
 12 31  1  0  0  0  0
 13 17  1  0  0  0  0
 13 14  1  0  0  0  0
 13 32  1  0  0  0  0
 14 15  1  0  0  0  0
 14 33  1  0  0  0  0
 14 34  1  0  0  0  0
 15 16  1  0  0  0  0
 15 35  1  0  0  0  0
 15 36  1  0  0  0  0
 16 17  1  0  0  0  0
 16 37  1  0  0  0  0
 16 38  1  0  0  0  0
 18 19  2  0  0  0  0
 18 39  1  0  0  0  0
 19 40  1  0  0  0  0
M  CHG  1  19   1
M  END
> <s_m_source_file>
AV-unprocessed.smi

> <i_m_source_file_index>
1102

> <i_lp_mmshare_version>
43012

> <i_f3d_flags>
0

> <s_epik_input>
W0NIM11OKFtDSDNdKWMxW2NIXVtjSF1jKFtjSF1uMSlbTkhdQyg9TylbTkhdW0NIMl1bQ0BASF0yW0NIMl1bQ0gyXVtDSDJdTzI=

> <s_epik_cmdline>
J2VwaWtfcHl0aG9uJywgJy1waCcsICc3LjAnLCAnLXRuJywgJzgnLCAnLW1hJywgJzIwMCcsICctbWV0YWxfYmluZGluZycsICctaW1hZScsICc8aW5maWxlLm1hZT4nLCAnLW9tYWUnLCAnPG91dGZpbGUubWFlPic=

> <r_lp_tautomer_probability>
0.999994

> <r_epik_Ionization_Penalty>
0.265123

> <r_epik_Ionization_Penalty_Charging>
0.265104

> <r_epik_Ionization_Penalty_Neutral>
1.89079e-05

> <r_epik_State_Penalty>
0.257001

> <r_epik_Charging_Adjusted_Penalty>
0.522106

> <i_epik_Tot_Q>
1

> <i_epik_Tot_abs_Q>
1

> <r_epik_Metal_State_Penalty>
0.543599

> <b_epik_Metal_Only>
0

> <s_lp_Force_Field>
OPLS_2005

> <r_lp_Energy>
27.717

> <b_lp_Chiralities_Consistent>
1

> <s_lp_Variant>
AV-unprocessed.smi:1102-2

> <Gold.Version>
5.8.1

> <Gold.Id.Protein>
6NUR|6NUR_protein|mol2

> <Gold.PLP.Fitness>
45.0539

> <Gold.PLP.PLP>
-38.1494

> <Gold.PLP.part.hbond>
-4.0000

> <Gold.PLP.part.metal>
0.0000

> <Gold.PLP.part.buried>
-1.2747

> <Gold.PLP.part.nonpolar>
-34.2941

> <Gold.PLP.part.repulsive>
0.7088

> <Gold.PLP.ligand.clash>
0.0000

> <Gold.PLP.ligand.torsion>
1.0163

> <Gold.PLP.Chemscore.Hbond>
2.9760

> <Gold.PLP.Chemscore.CHOScore>
0.0000

> <Gold.PLP.Chemscore.Metal>
0.0000

> <Gold.Chemscore.Hbonds>
donor molecule, donor type, donor heavy atom, donor atom, acceptor molecule, acceptor atom, score
      L1  H    11    29       P1  7948  0.94
      L1  H    19    40       P1  8028  1.86

> <Gold.PLP.Chemscore.Internal.Correction>
0.0092

> <Gold.Rescore>
     Score         DG    S(hbond)    S(metal)    S(lipo)     H(rot)  DE(clash)    DE(int)     intcor
     15.63     -17.91       1.94        0.00      77.61       1.23       0.22       2.06       ----

> <Gold.Chemscore.Fitness>
15.6268

> <Gold.Chemscore.DG>
-17.9142

> <Gold.Chemscore.ZeroCoef>
-5.4800

> <Gold.Chemscore.Hbond>
1.9443

> <Gold.Chemscore.Metal>
0.0000

> <Gold.Chemscore.Lipo>
77.6147

> <Gold.Chemscore.Internal_Hbond>
0.0000

> <Gold.Chemscore.DEClash>
0.2224

> <Gold.Chemscore.DEInternal>
2.0650

> <Gold.Chemscore.Rot>
1.2268

> <Gold.Chemscore.Internal.Correction>
   9.000000E+99

> <Gold.Chemscore.Hbonds>
donor molecule, donor type, donor heavy atom, donor atom, acceptor molecule, acceptor atom, score
      L1  H    11    29       P1  7948  0.91
      L1  H    19    40       P1  8028  0.90

> <Gold.Chemscore.Hbond.Weighted>
-6.4939

> <Gold.Chemscore.Metal.Weighted>
-0.0000

> <Gold.Chemscore.Lipo.Weighted>
-9.0809

> <Gold.Chemscore.Internal_Hbond.Weighted>
0.0000

> <Gold.Chemscore.DEClash.Weighted>
0.2224

> <Gold.Chemscore.DEInternal.Weighted>
2.0650

> <Gold.Chemscore.Rot.Weighted>
3.1406

> <Gold.Chemscore.Internal.Correction.Weighted>
   9.000000E+99

> <Gold.Protein.RotatedTorsions>
[ 6907 6896 6895 6894 ] final  -49.33 input  -60.11 | X-H torsion
[ 7974 7965 7964 7962 ] final -117.81 input  175.53 | X-H torsion
[ 8008 7997 7996 7995 ] final  -11.38 input   59.86 | X-H torsion
[ 10167 10162 10161 10158 ] final  -72.54 input  -65.29 | X-H torsion
[ 10718 10713 10712 10709 ] final  109.44 input   66.30 | X-H torsion
[ 10763 10752 10751 10750 ] final  -99.81 input  -60.55 | X-H torsion
[ 11005 11000 10999 10996 ] final -143.43 input  -57.11 | X-H torsion

> <Gold.Protein.ActiveResidues>
 VAL166  LYS551  ARG553  GLY616  TRP617  ASP618  TYR619  PRO620  LYS621  CYS622 
 ASP623  PHE694  ASN695  SER759  ASP760  ASP761  ALA762  ILE779  LEU786  VAL792 
 PHE793  MET794  SER795  GLU796  ALA797  LYS798  CYS799  TRP800  GLU811  SER814 

> <Gold.Protein.RotatedAtoms>
  150.8816  134.8208  159.7228 H   0  0  0  0  0  0  0  0  0  0  0  0  # atno 6907 bound_to 6896
  152.4781  134.4787  159.9668 H   0  0  0  0  0  0  0  0  0  0  0  0  # atno 6908 bound_to 6896
  151.4861  133.3496  159.2881 H   0  0  0  0  0  0  0  0  0  0  0  0  # atno 6909 bound_to 6896
  145.0809  140.8425  143.4039 H   0  0  0  0  0  0  0  0  0  0  0  0  # atno 7974 bound_to 7965
  154.5470  140.2304  155.8547 H   0  0  0  0  0  0  0  0  0  0  0  0  # atno 8008 bound_to 7997
  156.1912  140.3076  155.9297 H   0  0  0  0  0  0  0  0  0  0  0  0  # atno 8009 bound_to 7997
  155.3145  140.0437  157.3027 H   0  0  0  0  0  0  0  0  0  0  0  0  # atno 8010 bound_to 7997
  140.5184  143.2335  151.7473 H   0  0  0  0  0  0  0  0  0  0  0  0  # atno 10167 bound_to 10162
  157.6541  131.0914  150.6455 H   0  0  0  0  0  0  0  0  0  0  0  0  # atno 10718 bound_to 10713
  154.7528  135.4958  153.9321 H   0  0  0  0  0  0  0  0  0  0  0  0  # atno 10763 bound_to 10752
  153.1163  135.6721  153.9421 H   0  0  0  0  0  0  0  0  0  0  0  0  # atno 10764 bound_to 10752
  153.9166  135.3093  155.3427 H   0  0  0  0  0  0  0  0  0  0  0  0  # atno 10765 bound_to 10752
  140.8126  134.2726  157.4934 H   0  0  0  0  0  0  0  0  0  0  0  0  # atno 11005 bound_to 11000
  145.1179  139.2713  143.5603 LP  0  0  0  0  0  0  0  0  0  0  0  0  # atno 17320 bound_to 7965
  146.3531  140.0794  142.8618 LP  0  0  0  0  0  0  0  0  0  0  0  0  # atno 17321 bound_to 7965
  139.4916  144.4291  151.9892 LP  0  0  0  0  0  0  0  0  0  0  0  0  # atno 17342 bound_to 10162
  140.3386  144.3230  150.5972 LP  0  0  0  0  0  0  0  0  0  0  0  0  # atno 17343 bound_to 10162
  156.6763  130.4554  149.5641 LP  0  0  0  0  0  0  0  0  0  0  0  0  # atno 17370 bound_to 10713
  156.1961  130.6590  151.1116 LP  0  0  0  0  0  0  0  0  0  0  0  0  # atno 17371 bound_to 10713
  139.8713  134.9491  156.4016 LP  0  0  0  0  0  0  0  0  0  0  0  0  # atno 17394 bound_to 11000
  140.9182  133.7663  155.9874 LP  0  0  0  0  0  0  0  0  0  0  0  0  # atno 17395 bound_to 11000

$$$$
