AV-unprocessed.smi:2166|AV-procd|sdf|8815|dock10
  -GOLD-   2272012 03D 1   1.00000     0.00000
 Structure written by MMmdl.
 38 39  0  0  0  0  0  0  0  0  1 V2000
  143.3913  134.5412  163.2377 C   0  0  0  0  0  0  0  0  0  0  0  0
  144.4091  135.8312  162.4694 S   0  0  0  0  0  0  0  0  0  0  0  0
  146.0748  135.1318  162.6752 C   0  0  1  0  0  0  0  0  0  0  0  0
  146.1046  133.6766  162.1805 C   0  0  0  0  0  0  0  0  0  0  0  0
  147.1425  135.9833  161.9751 C   0  0  0  0  0  0  0  0  0  0  0  0
  147.9140  136.6708  162.6449 O   0  0  0  0  0  0  0  0  0  0  0  0
  147.1609  135.9058  160.6307 N   0  0  0  0  0  0  0  0  0  0  0  0
  148.0465  136.5441  159.7231 C   0  0  0  0  0  0  0  0  0  0  0  0
  147.4531  136.9914  158.5239 C   0  0  0  0  0  0  0  0  0  0  0  0
  148.2489  137.6273  157.5525 C   0  0  0  0  0  0  0  0  0  0  0  0
  149.6300  137.8080  157.7888 C   0  0  0  0  0  0  0  0  0  0  0  0
  150.4462  138.4378  156.8243 N   0  0  0  0  0  0  0  0  0  0  0  0
  150.5526  137.8232  155.5040 C   0  0  0  0  0  0  0  0  0  0  0  0
  151.6961  138.4690  154.7028 C   0  0  0  0  0  0  0  0  0  0  0  0
  151.5004  139.8776  154.6386 O   0  0  0  0  0  0  0  0  0  0  0  0
  151.5120  140.4723  155.9323 C   0  0  0  0  0  0  0  0  0  0  0  0
  150.3660  139.8960  156.7823 C   0  0  0  0  0  0  0  0  0  0  0  0
  150.1292  137.3339  159.0264 C   0  0  0  0  0  0  0  0  0  0  0  0
  149.3681  136.7226  159.9583 N   0  0  0  0  0  0  0  0  0  0  0  0
  142.3356  134.7975  163.1498 H   0  0  0  0  0  0  0  0  0  0  0  0
  143.6293  134.4383  164.2962 H   0  0  0  0  0  0  0  0  0  0  0  0
  143.5557  133.5820  162.7470 H   0  0  0  0  0  0  0  0  0  0  0  0
  146.2878  135.1153  163.7452 H   0  0  0  0  0  0  0  0  0  0  0  0
  147.1000  133.2423  162.2812 H   0  0  0  0  0  0  0  0  0  0  0  0
  145.8108  133.6013  161.1327 H   0  0  0  0  0  0  0  0  0  0  0  0
  145.4185  133.0569  162.7588 H   0  0  0  0  0  0  0  0  0  0  0  0
  146.4689  135.3032  160.2105 H   0  0  0  0  0  0  0  0  0  0  0  0
  146.3972  136.8509  158.3442 H   0  0  0  0  0  0  0  0  0  0  0  0
  147.7875  137.9791  156.6418 H   0  0  0  0  0  0  0  0  0  0  0  0
  150.7396  136.7530  155.5999 H   0  0  0  0  0  0  0  0  0  0  0  0
  149.6098  137.9473  154.9692 H   0  0  0  0  0  0  0  0  0  0  0  0
  152.6637  138.2451  155.1553 H   0  0  0  0  0  0  0  0  0  0  0  0
  151.7179  138.0669  153.6899 H   0  0  0  0  0  0  0  0  0  0  0  0
  152.4764  140.3023  156.4139 H   0  0  0  0  0  0  0  0  0  0  0  0
  151.3952  141.5510  155.8276 H   0  0  0  0  0  0  0  0  0  0  0  0
  149.4048  140.1826  156.3534 H   0  0  0  0  0  0  0  0  0  0  0  0
  150.4103  140.3324  157.7793 H   0  0  0  0  0  0  0  0  0  0  0  0
  151.1720  137.4243  159.2908 H   0  0  0  0  0  0  0  0  0  0  0  0
  1  2  1  0  0  0  0
  1 20  1  0  0  0  0
  1 21  1  0  0  0  0
  1 22  1  0  0  0  0
  2  3  1  0  0  0  0
  3  4  1  0  0  0  0
  3  5  1  0  0  0  0
  3 23  1  0  0  0  0
  4 24  1  0  0  0  0
  4 25  1  0  0  0  0
  4 26  1  0  0  0  0
  5  6  2  0  0  0  0
  5  7  1  0  0  0  0
  7  8  1  0  0  0  0
  7 27  1  0  0  0  0
  8 19  1  0  0  0  0
  8  9  2  0  0  0  0
  9 10  1  0  0  0  0
  9 28  1  0  0  0  0
 10 11  2  0  0  0  0
 10 29  1  0  0  0  0
 11 12  1  0  0  0  0
 11 18  1  0  0  0  0
 12 17  1  0  0  0  0
 12 13  1  0  0  0  0
 13 14  1  0  0  0  0
 13 30  1  0  0  0  0
 13 31  1  0  0  0  0
 14 15  1  0  0  0  0
 14 32  1  0  0  0  0
 14 33  1  0  0  0  0
 15 16  1  0  0  0  0
 16 17  1  0  0  0  0
 16 34  1  0  0  0  0
 16 35  1  0  0  0  0
 17 36  1  0  0  0  0
 17 37  1  0  0  0  0
 18 19  2  0  0  0  0
 18 38  1  0  0  0  0
M  END
> <s_m_source_file>
AV-unprocessed.smi

> <i_m_source_file_index>
2166

> <i_lp_mmshare_version>
43012

> <i_f3d_flags>
0

> <s_epik_input>
W0NIM11TW0NASF0oW0NIM10pQyg9TylbTkhdYzFbY0hdW2NIXWMoW2NIXW4xKU4yW0NIMl1bQ0gyXU9bQ0gyXVtDSDJdMg==

> <s_epik_cmdline>
J2VwaWtfcHl0aG9uJywgJy1waCcsICc3LjAnLCAnLXRuJywgJzgnLCAnLW1hJywgJzIwMCcsICctbWV0YWxfYmluZGluZycsICctaW1hZScsICc8aW5maWxlLm1hZT4nLCAnLW9tYWUnLCAnPG91dGZpbGUubWFlPic=

> <r_lp_tautomer_probability>
1

> <r_epik_Ionization_Penalty>
0.0038652

> <r_epik_Ionization_Penalty_Charging>
0

> <r_epik_Ionization_Penalty_Neutral>
0.0038652

> <r_epik_State_Penalty>
0.00681294

> <r_epik_Charging_Adjusted_Penalty>
0.00681294

> <i_epik_Tot_Q>
0

> <i_epik_Tot_abs_Q>
0

> <r_epik_Metal_State_Penalty>
-0

> <b_epik_Metal_Only>
0

> <s_lp_Force_Field>
OPLS_2005

> <r_lp_Energy>
24.7489

> <b_lp_Chiralities_Consistent>
1

> <s_lp_Variant>
AV-unprocessed.smi:2166-2

> <Gold.Version>
5.8.1

> <Gold.Id.Protein>
6NUR|6NUR_protein|mol2

> <Gold.PLP.Fitness>
39.1653

> <Gold.PLP.PLP>
-34.0794

> <Gold.PLP.part.hbond>
-3.0233

> <Gold.PLP.part.metal>
0.0000

> <Gold.PLP.part.buried>
-5.8847

> <Gold.PLP.part.nonpolar>
-25.6630

> <Gold.PLP.part.repulsive>
0.1983

> <Gold.PLP.ligand.clash>
0.0000

> <Gold.PLP.ligand.torsion>
0.8109

> <Gold.PLP.Chemscore.Hbond>
2.1110

> <Gold.PLP.Chemscore.CHOScore>
0.0000

> <Gold.PLP.Chemscore.Metal>
0.0000

> <Gold.Chemscore.Hbonds>
donor molecule, donor type, donor heavy atom, donor atom, acceptor molecule, acceptor atom, score
      P1  H  6896  6909       L1    19  0.01
      P1  H  6931  6943       L1     6  0.94
      P1  H  7989  7998       L1    15  0.96

> <Gold.PLP.Chemscore.Internal.Correction>
0.3746

> <Gold.Rescore>
     Score         DG    S(hbond)    S(metal)    S(lipo)     H(rot)  DE(clash)    DE(int)     intcor
     14.63     -16.01       1.82        0.00      66.64       1.31       0.00       1.38       ----

> <Gold.Chemscore.Fitness>
14.6267

> <Gold.Chemscore.DG>
-16.0093

> <Gold.Chemscore.ZeroCoef>
-5.4800

> <Gold.Chemscore.Hbond>
1.8225

> <Gold.Chemscore.Metal>
0.0000

> <Gold.Chemscore.Lipo>
66.6412

> <Gold.Chemscore.Internal_Hbond>
0.0000

> <Gold.Chemscore.DEClash>
0.0009

> <Gold.Chemscore.DEInternal>
1.3817

> <Gold.Chemscore.Rot>
1.3105

> <Gold.Chemscore.Internal.Correction>
   9.000000E+99

> <Gold.Chemscore.Hbonds>
donor molecule, donor type, donor heavy atom, donor atom, acceptor molecule, acceptor atom, score
      P1  H  6931  6943       L1     6  0.86
      P1  H  7989  7998       L1    15  0.79

> <Gold.Chemscore.Hbond.Weighted>
-6.0873

> <Gold.Chemscore.Metal.Weighted>
-0.0000

> <Gold.Chemscore.Lipo.Weighted>
-7.7970

> <Gold.Chemscore.Internal_Hbond.Weighted>
0.0000

> <Gold.Chemscore.DEClash.Weighted>
0.0009

> <Gold.Chemscore.DEInternal.Weighted>
1.3817

> <Gold.Chemscore.Rot.Weighted>
3.3549

> <Gold.Chemscore.Internal.Correction.Weighted>
   9.000000E+99

> <Gold.Protein.RotatedTorsions>
[ 6907 6896 6895 6894 ] final   95.77 input  -60.11 | X-H torsion
[ 7974 7965 7964 7962 ] final   62.46 input  175.53 | X-H torsion
[ 8008 7997 7996 7995 ] final  -42.03 input   59.86 | X-H torsion
[ 10167 10162 10161 10158 ] final  133.28 input  -65.29 | X-H torsion
[ 10718 10713 10712 10709 ] final  141.30 input   66.30 | X-H torsion
[ 10763 10752 10751 10750 ] final -157.63 input  -60.55 | X-H torsion
[ 11005 11000 10999 10996 ] final   13.59 input  -57.11 | X-H torsion

> <Gold.Protein.ActiveResidues>
 VAL166  LYS551  ARG553  GLY616  TRP617  ASP618  TYR619  PRO620  LYS621  CYS622 
 ASP623  PHE694  ASN695  SER759  ASP760  ASP761  ALA762  ILE779  LEU786  VAL792 
 PHE793  MET794  SER795  GLU796  ALA797  LYS798  CYS799  TRP800  GLU811  SER814 

> <Gold.Protein.RotatedAtoms>
  152.5441  134.0989  159.8308 H   0  0  0  0  0  0  0  0  0  0  0  0  # atno 6907 bound_to 6896
  151.1069  133.5194  159.2614 H   0  0  0  0  0  0  0  0  0  0  0  0  # atno 6908 bound_to 6896
  151.1927  135.0419  159.8894 H   0  0  0  0  0  0  0  0  0  0  0  0  # atno 6909 bound_to 6896
  145.8731  139.3391  143.0750 H   0  0  0  0  0  0  0  0  0  0  0  0  # atno 7974 bound_to 7965
  154.4001  140.1484  156.3287 H   0  0  0  0  0  0  0  0  0  0  0  0  # atno 8008 bound_to 7997
  155.8463  140.3460  155.5643 H   0  0  0  0  0  0  0  0  0  0  0  0  # atno 8009 bound_to 7997
  155.8033  140.0873  157.1935 H   0  0  0  0  0  0  0  0  0  0  0  0  # atno 8010 bound_to 7997
  139.5303  144.6623  151.4973 H   0  0  0  0  0  0  0  0  0  0  0  0  # atno 10167 bound_to 10162
  157.3936  131.1008  151.0622 H   0  0  0  0  0  0  0  0  0  0  0  0  # atno 10718 bound_to 10713
  154.7621  135.3120  154.8358 H   0  0  0  0  0  0  0  0  0  0  0  0  # atno 10763 bound_to 10752
  153.9116  135.6805  153.4755 H   0  0  0  0  0  0  0  0  0  0  0  0  # atno 10764 bound_to 10752
  153.1222  135.4817  154.9146 H   0  0  0  0  0  0  0  0  0  0  0  0  # atno 10765 bound_to 10752
  140.4790  134.0954  155.7747 H   0  0  0  0  0  0  0  0  0  0  0  0  # atno 11005 bound_to 11000
  145.9113  140.9178  143.0452 LP  0  0  0  0  0  0  0  0  0  0  0  0  # atno 17320 bound_to 7965
  144.6726  140.1164  143.7452 LP  0  0  0  0  0  0  0  0  0  0  0  0  # atno 17321 bound_to 7965
  140.6477  143.8761  150.6754 LP  0  0  0  0  0  0  0  0  0  0  0  0  # atno 17342 bound_to 10162
  140.2115  143.3879  152.1714 LP  0  0  0  0  0  0  0  0  0  0  0  0  # atno 17343 bound_to 10162
  157.1647  130.6241  149.5621 LP  0  0  0  0  0  0  0  0  0  0  0  0  # atno 17370 bound_to 10713
  155.9804  130.4805  150.6773 LP  0  0  0  0  0  0  0  0  0  0  0  0  # atno 17371 bound_to 10713
  141.1540  133.8916  157.2025 LP  0  0  0  0  0  0  0  0  0  0  0  0  # atno 17394 bound_to 11000
  139.9838  135.0089  156.9813 LP  0  0  0  0  0  0  0  0  0  0  0  0  # atno 17395 bound_to 11000

$$$$
