AV-unprocessed.smi:1419|AV-procd|sdf|5778|dock3
  -GOLD-   22720 5423D 1   1.00000     0.00000
 Structure written by MMmdl.
 42 43  0  0  0  0  0  0  0  0  2 V2000
  152.1082  138.5858  157.9223 C   0  0  0  0  0  0  0  0  0  0  0  0
  151.4934  139.8786  157.3695 C   0  0  2  0  0  0  0  0  0  0  0  0
  151.7669  140.0222  155.8565 C   0  0  0  0  0  0  0  0  0  0  0  0
  150.6366  139.5929  155.0257 N   0  0  0  0  0  0  0  0  0  0  0  0
  149.3904  140.1621  154.9607 C   0  0  0  0  0  0  0  0  0  0  0  0
  148.6748  139.4332  154.0464 C   0  0  0  0  0  0  0  0  0  0  0  0
  149.5094  138.4433  153.6013 N   0  3  0  0  0  0  0  0  0  0  0  0
  150.6990  138.5372  154.2038 C   0  0  0  0  0  0  0  0  0  0  0  0
  152.0369  141.0135  158.1148 N   0  0  0  0  0  0  0  0  0  0  0  0
  151.6673  142.2998  157.9833 C   0  0  0  0  0  0  0  0  0  0  0  0
  150.8068  142.6566  157.1776 O   0  0  0  0  0  0  0  0  0  0  0  0
  152.3349  143.1647  158.7861 N   0  0  0  0  0  0  0  0  0  0  0  0
  152.3272  144.6321  158.7092 C   0  0  0  0  0  0  0  0  0  0  0  0
  151.5978  145.1967  159.9459 C   0  0  1  0  0  0  0  0  0  0  0  0
  150.0780  144.9560  159.9363 C   0  0  0  0  0  0  0  0  0  0  0  0
  152.2002  144.6843  161.1392 O   0  0  0  0  0  0  0  0  0  0  0  0
  152.3164  143.2608  161.2183 C   0  0  2  0  0  0  0  0  0  0  0  0
  153.0454  142.9181  162.5218 C   0  0  0  0  0  0  0  0  0  0  0  0
  153.0662  142.7339  159.9788 C   0  0  0  0  0  0  0  0  0  0  0  0
  151.7029  137.7102  157.4146 H   0  0  0  0  0  0  0  0  0  0  0  0
  151.8976  138.4735  158.9864 H   0  0  0  0  0  0  0  0  0  0  0  0
  153.1911  138.5729  157.7931 H   0  0  0  0  0  0  0  0  0  0  0  0
  150.4158  139.8158  157.5319 H   0  0  0  0  0  0  0  0  0  0  0  0
  152.0197  141.0532  155.6031 H   0  0  0  0  0  0  0  0  0  0  0  0
  152.6214  139.4086  155.5675 H   0  0  0  0  0  0  0  0  0  0  0  0
  149.1164  141.0275  155.5468 H   0  0  0  0  0  0  0  0  0  0  0  0
  147.6607  139.5412  153.6898 H   0  0  0  0  0  0  0  0  0  0  0  0
  151.5447  137.8912  154.0499 H   0  0  0  0  0  0  0  0  0  0  0  0
  152.7518  140.8037  158.7963 H   0  0  0  0  0  0  0  0  0  0  0  0
  153.3593  144.9860  158.7011 H   0  0  0  0  0  0  0  0  0  0  0  0
  151.8827  145.0298  157.7970 H   0  0  0  0  0  0  0  0  0  0  0  0
  151.7521  146.2759  159.9629 H   0  0  0  0  0  0  0  0  0  0  0  0
  149.6191  145.4164  159.0612 H   0  0  0  0  0  0  0  0  0  0  0  0
  149.6115  145.3901  160.8208 H   0  0  0  0  0  0  0  0  0  0  0  0
  149.8280  143.8965  159.9158 H   0  0  0  0  0  0  0  0  0  0  0  0
  151.3213  142.8164  161.2592 H   0  0  0  0  0  0  0  0  0  0  0  0
  153.1494  141.8395  162.6422 H   0  0  0  0  0  0  0  0  0  0  0  0
  152.4987  143.2975  163.3855 H   0  0  0  0  0  0  0  0  0  0  0  0
  154.0441  143.3551  162.5420 H   0  0  0  0  0  0  0  0  0  0  0  0
  153.1729  141.6498  160.0398 H   0  0  0  0  0  0  0  0  0  0  0  0
  154.0811  143.1333  159.9481 H   0  0  0  0  0  0  0  0  0  0  0  0
  149.2631  137.7391  152.9170 H   0  0  0  0  0  0  0  0  0  0  0  0
  1  2  1  0  0  0  0
  1 20  1  0  0  0  0
  1 21  1  0  0  0  0
  1 22  1  0  0  0  0
  2  3  1  0  0  0  0
  2  9  1  0  0  0  0
  2 23  1  0  0  0  0
  3  4  1  0  0  0  0
  3 24  1  0  0  0  0
  3 25  1  0  0  0  0
  4  8  1  0  0  0  0
  4  5  1  0  0  0  0
  5  6  2  0  0  0  0
  5 26  1  0  0  0  0
  6  7  1  0  0  0  0
  6 27  1  0  0  0  0
  7  8  2  0  0  0  0
  7 42  1  0  0  0  0
  8 28  1  0  0  0  0
  9 10  1  0  0  0  0
  9 29  1  0  0  0  0
 10 11  2  0  0  0  0
 10 12  1  0  0  0  0
 12 19  1  0  0  0  0
 12 13  1  0  0  0  0
 13 14  1  0  0  0  0
 13 30  1  0  0  0  0
 13 31  1  0  0  0  0
 14 15  1  0  0  0  0
 14 16  1  0  0  0  0
 14 32  1  0  0  0  0
 15 33  1  0  0  0  0
 15 34  1  0  0  0  0
 15 35  1  0  0  0  0
 16 17  1  0  0  0  0
 17 18  1  0  0  0  0
 17 19  1  0  0  0  0
 17 36  1  0  0  0  0
 18 37  1  0  0  0  0
 18 38  1  0  0  0  0
 18 39  1  0  0  0  0
 19 40  1  0  0  0  0
 19 41  1  0  0  0  0
M  CHG  1   7   1
M  END
> <s_m_source_file>
AV-unprocessed.smi

> <i_m_source_file_index>
1419

> <i_lp_mmshare_version>
43012

> <i_f3d_flags>
0

> <s_epik_input>
W2NIXTFuW2NIXVtjSF1uMVtDSDJdW0NAQEhdKFtDSDNdKVtOSF1DKD1PKU4yW0NIMl1bQ0BASF0oW0NIM10pT1tDQEBIXShbQ0gzXSlbQ0gyXTI=

> <s_epik_cmdline>
J2VwaWtfcHl0aG9uJywgJy1waCcsICc3LjAnLCAnLXRuJywgJzgnLCAnLW1hJywgJzIwMCcsICctbWV0YWxfYmluZGluZycsICctaW1hZScsICc8aW5maWxlLm1hZT4nLCAnLW9tYWUnLCAnPG91dGZpbGUubWFlPic=

> <r_lp_tautomer_probability>
1

> <r_epik_Ionization_Penalty>
0.253607

> <r_epik_Ionization_Penalty_Charging>
0

> <r_epik_Ionization_Penalty_Neutral>
0.253607

> <r_epik_State_Penalty>
0.245018

> <r_epik_Charging_Adjusted_Penalty>
0.245018

> <i_epik_Tot_Q>
1

> <i_epik_Tot_abs_Q>
1

> <r_epik_Metal_State_Penalty>
0.535379

> <b_epik_Metal_Only>
0

> <s_lp_Force_Field>
OPLS_2005

> <r_lp_Energy>
31.638

> <b_lp_Chiralities_Consistent>
1

> <s_lp_Variant>
AV-unprocessed.smi:1419-5

> <Gold.Version>
5.8.1

> <Gold.Id.Protein>
6NUR|6NUR_protein|mol2

> <Gold.PLP.Fitness>
52.2079

> <Gold.PLP.PLP>
-47.9893

> <Gold.PLP.part.hbond>
-2.0000

> <Gold.PLP.part.metal>
0.0000

> <Gold.PLP.part.buried>
-4.5950

> <Gold.PLP.part.nonpolar>
-41.1087

> <Gold.PLP.part.repulsive>
0.4667

> <Gold.PLP.ligand.clash>
0.4526

> <Gold.PLP.ligand.torsion>
0.6849

> <Gold.PLP.Chemscore.Hbond>
2.0000

> <Gold.PLP.Chemscore.CHOScore>
0.0000

> <Gold.PLP.Chemscore.Metal>
0.0000

> <Gold.Chemscore.Hbonds>
donor molecule, donor type, donor heavy atom, donor atom, acceptor molecule, acceptor atom, score
      L1  H     7    42       P1  7948  2.00

> <Gold.PLP.Chemscore.Internal.Correction>
0.0409

> <Gold.Rescore>
     Score         DG    S(hbond)    S(metal)    S(lipo)     H(rot)  DE(clash)    DE(int)     intcor
     15.18     -15.91       1.00        0.00      96.37       1.63       0.11       0.62       ----

> <Gold.Chemscore.Fitness>
15.1786

> <Gold.Chemscore.DG>
-15.9140

> <Gold.Chemscore.ZeroCoef>
-5.4800

> <Gold.Chemscore.Hbond>
0.9953

> <Gold.Chemscore.Metal>
0.0000

> <Gold.Chemscore.Lipo>
96.3726

> <Gold.Chemscore.Internal_Hbond>
0.0000

> <Gold.Chemscore.DEClash>
0.1117

> <Gold.Chemscore.DEInternal>
0.6237

> <Gold.Chemscore.Rot>
1.6273

> <Gold.Chemscore.Internal.Correction>
   9.000000E+99

> <Gold.Chemscore.Hbonds>
donor molecule, donor type, donor heavy atom, donor atom, acceptor molecule, acceptor atom, score
      L1  H     7    42       P1  7948  0.97

> <Gold.Chemscore.Hbond.Weighted>
-3.3242

> <Gold.Chemscore.Metal.Weighted>
-0.0000

> <Gold.Chemscore.Lipo.Weighted>
-11.2756

> <Gold.Chemscore.Internal_Hbond.Weighted>
0.0000

> <Gold.Chemscore.DEClash.Weighted>
0.1117

> <Gold.Chemscore.DEInternal.Weighted>
0.6237

> <Gold.Chemscore.Rot.Weighted>
4.1658

> <Gold.Chemscore.Internal.Correction.Weighted>
   9.000000E+99

> <Gold.Protein.RotatedTorsions>
[ 6907 6896 6895 6894 ] final   -6.31 input  -60.11 | X-H torsion
[ 7974 7965 7964 7962 ] final   57.38 input  175.53 | X-H torsion
[ 8008 7997 7996 7995 ] final  173.55 input   59.86 | X-H torsion
[ 10167 10162 10161 10158 ] final  107.45 input  -65.29 | X-H torsion
[ 10718 10713 10712 10709 ] final  114.66 input   66.30 | X-H torsion
[ 10763 10752 10751 10750 ] final  121.50 input  -60.55 | X-H torsion
[ 11005 11000 10999 10996 ] final -117.26 input  -57.11 | X-H torsion

> <Gold.Protein.ActiveResidues>
 VAL166  LYS551  ARG553  GLY616  TRP617  ASP618  TYR619  PRO620  LYS621  CYS622 
 ASP623  PHE694  ASN695  SER759  ASP760  ASP761  ALA762  ILE779  LEU786  VAL792 
 PHE793  MET794  SER795  GLU796  ALA797  LYS798  CYS799  TRP800  GLU811  SER814 

> <Gold.Protein.RotatedAtoms>
  151.4677  135.1043  159.9742 H   0  0  0  0  0  0  0  0  0  0  0  0  # atno 6907 bound_to 6896
  152.4829  133.8294  159.7106 H   0  0  0  0  0  0  0  0  0  0  0  0  # atno 6908 bound_to 6896
  150.8914  133.7177  159.2930 H   0  0  0  0  0  0  0  0  0  0  0  0  # atno 6909 bound_to 6896
  145.9297  139.3797  143.0429 H   0  0  0  0  0  0  0  0  0  0  0  0  # atno 7974 bound_to 7965
  156.1064  140.1457  156.9399 H   0  0  0  0  0  0  0  0  0  0  0  0  # atno 8008 bound_to 7997
  154.4736  140.0901  156.7252 H   0  0  0  0  0  0  0  0  0  0  0  0  # atno 8009 bound_to 7997
  155.4672  140.3440  155.4323 H   0  0  0  0  0  0  0  0  0  0  0  0  # atno 8010 bound_to 7997
  139.6926  144.7106  151.1323 H   0  0  0  0  0  0  0  0  0  0  0  0  # atno 10167 bound_to 10162
  157.6268  131.1002  150.7218 H   0  0  0  0  0  0  0  0  0  0  0  0  # atno 10718 bound_to 10713
  153.6151  135.3423  155.2992 H   0  0  0  0  0  0  0  0  0  0  0  0  # atno 10763 bound_to 10752
  154.8611  135.4259  154.2268 H   0  0  0  0  0  0  0  0  0  0  0  0  # atno 10764 bound_to 10752
  153.3128  135.7033  153.7173 H   0  0  0  0  0  0  0  0  0  0  0  0  # atno 10765 bound_to 10752
  141.0367  133.9899  157.3060 H   0  0  0  0  0  0  0  0  0  0  0  0  # atno 11005 bound_to 11000
  145.8443  140.9564  143.0783 LP  0  0  0  0  0  0  0  0  0  0  0  0  # atno 17320 bound_to 7965
  144.6763  140.0324  143.7482 LP  0  0  0  0  0  0  0  0  0  0  0  0  # atno 17321 bound_to 7965
  140.7687  143.5538  150.9175 LP  0  0  0  0  0  0  0  0  0  0  0  0  # atno 17342 bound_to 10162
  139.9216  143.6599  152.3095 LP  0  0  0  0  0  0  0  0  0  0  0  0  # atno 17343 bound_to 10162
  156.7564  130.4785  149.5446 LP  0  0  0  0  0  0  0  0  0  0  0  0  # atno 17370 bound_to 10713
  156.1445  130.6268  151.0513 LP  0  0  0  0  0  0  0  0  0  0  0  0  # atno 17371 bound_to 10713
  139.9245  135.0201  156.8187 LP  0  0  0  0  0  0  0  0  0  0  0  0  # atno 17394 bound_to 11000
  140.6310  133.9906  155.7662 LP  0  0  0  0  0  0  0  0  0  0  0  0  # atno 17395 bound_to 11000

$$$$
