AV-unprocessed.smi:2809|AV-procd|sdf|10826|dock4
  -GOLD-   2272015263D 1   1.00000     0.00000
 Structure written by MMmdl.
 44 45  0  0  0  0  0  0  0  0  1 V2000
  152.7103  142.6087  162.4583 C   0  0  0  0  0  0  0  0  0  0  0  0
  153.5701  142.0383  161.3254 C   0  0  0  0  0  0  0  0  0  0  0  0
  152.7499  141.6963  160.0960 C   0  0  0  0  0  0  0  0  0  0  0  0
  152.7536  140.3845  159.5820 C   0  0  0  0  0  0  0  0  0  0  0  0
  151.9937  140.0714  158.4387 C   0  0  0  0  0  0  0  0  0  0  0  0
  151.2214  141.0577  157.7920 C   0  0  0  0  0  0  0  0  0  0  0  0
  150.5149  140.6643  156.6762 O   0  0  0  0  0  0  0  0  0  0  0  0
  150.0765  141.6652  155.7655 C   0  0  0  0  0  0  0  0  0  0  0  0
  149.3825  141.0034  154.5633 C   0  0  1  0  0  0  0  0  0  0  0  0
  150.2486  140.0009  154.0703 O   0  0  0  0  0  0  0  0  0  0  0  0
  148.0034  140.4010  154.9129 C   0  0  0  0  0  0  0  0  0  0  0  0
  146.9513  141.4289  154.9777 N   0  0  0  0  0  0  0  0  0  0  0  0
  146.6953  142.1319  153.7893 C   0  0  0  0  0  0  0  0  0  0  0  0
  145.7989  143.0618  153.7296 N   0  0  0  0  0  0  0  0  0  0  0  0
  145.0598  143.3915  154.8694 C   0  0  0  0  0  0  0  0  0  0  0  0
  144.0383  144.5008  154.6909 C   0  0  0  0  0  0  0  0  0  0  0  0
  145.2619  142.7505  156.0530 C   0  0  0  0  0  0  0  0  0  0  0  0
  144.4921  143.0715  157.3280 C   0  0  0  0  0  0  0  0  0  0  0  0
  146.2803  141.6912  156.1364 C   0  0  0  0  0  0  0  0  0  0  0  0
  146.5234  141.0779  157.1777 O   0  0  0  0  0  0  0  0  0  0  0  0
  151.2165  142.3746  158.3171 C   0  0  0  0  0  0  0  0  0  0  0  0
  151.9767  142.6887  159.4606 C   0  0  0  0  0  0  0  0  0  0  0  0
  153.3230  142.8462  163.3282 H   0  0  0  0  0  0  0  0  0  0  0  0
  151.9486  141.8948  162.7728 H   0  0  0  0  0  0  0  0  0  0  0  0
  152.2051  143.5236  162.1474 H   0  0  0  0  0  0  0  0  0  0  0  0
  154.3442  142.7559  161.0509 H   0  0  0  0  0  0  0  0  0  0  0  0
  154.0904  141.1441  161.6709 H   0  0  0  0  0  0  0  0  0  0  0  0
  153.3392  139.6141  160.0622 H   0  0  0  0  0  0  0  0  0  0  0  0
  152.0052  139.0627  158.0526 H   0  0  0  0  0  0  0  0  0  0  0  0
  149.3616  142.3159  156.2720 H   0  0  0  0  0  0  0  0  0  0  0  0
  150.9076  142.2863  155.4264 H   0  0  0  0  0  0  0  0  0  0  0  0
  149.2786  141.7573  153.7822 H   0  0  0  0  0  0  0  0  0  0  0  0
  150.3414  139.3342  154.7338 H   0  0  0  0  0  0  0  0  0  0  0  0
  147.7489  139.5977  154.2181 H   0  0  0  0  0  0  0  0  0  0  0  0
  148.0631  139.9056  155.8839 H   0  0  0  0  0  0  0  0  0  0  0  0
  147.3042  141.8420  152.9311 H   0  0  0  0  0  0  0  0  0  0  0  0
  143.0334  144.1308  154.8950 H   0  0  0  0  0  0  0  0  0  0  0  0
  144.0493  144.8917  153.6726 H   0  0  0  0  0  0  0  0  0  0  0  0
  144.2507  145.3283  155.3683 H   0  0  0  0  0  0  0  0  0  0  0  0
  145.1742  143.4421  158.0937 H   0  0  0  0  0  0  0  0  0  0  0  0
  144.0064  142.1737  157.7119 H   0  0  0  0  0  0  0  0  0  0  0  0
  143.7181  143.8237  157.1842 H   0  0  0  0  0  0  0  0  0  0  0  0
  150.6375  143.1631  157.8613 H   0  0  0  0  0  0  0  0  0  0  0  0
  151.9638  143.6965  159.8491 H   0  0  0  0  0  0  0  0  0  0  0  0
  1  2  1  0  0  0  0
  1 23  1  0  0  0  0
  1 24  1  0  0  0  0
  1 25  1  0  0  0  0
  2  3  1  0  0  0  0
  2 26  1  0  0  0  0
  2 27  1  0  0  0  0
  3 22  1  0  0  0  0
  3  4  2  0  0  0  0
  4  5  1  0  0  0  0
  4 28  1  0  0  0  0
  5  6  2  0  0  0  0
  5 29  1  0  0  0  0
  6  7  1  0  0  0  0
  6 21  1  0  0  0  0
  7  8  1  0  0  0  0
  8  9  1  0  0  0  0
  8 30  1  0  0  0  0
  8 31  1  0  0  0  0
  9 10  1  0  0  0  0
  9 11  1  0  0  0  0
  9 32  1  0  0  0  0
 10 33  1  0  0  0  0
 11 12  1  0  0  0  0
 11 34  1  0  0  0  0
 11 35  1  0  0  0  0
 12 19  1  0  0  0  0
 12 13  1  0  0  0  0
 13 14  2  0  0  0  0
 13 36  1  0  0  0  0
 14 15  1  0  0  0  0
 15 16  1  0  0  0  0
 15 17  2  0  0  0  0
 16 37  1  0  0  0  0
 16 38  1  0  0  0  0
 16 39  1  0  0  0  0
 17 18  1  0  0  0  0
 17 19  1  0  0  0  0
 18 40  1  0  0  0  0
 18 41  1  0  0  0  0
 18 42  1  0  0  0  0
 19 20  2  0  0  0  0
 21 22  2  0  0  0  0
 21 43  1  0  0  0  0
 22 44  1  0  0  0  0
M  END
> <s_m_source_file>
AV-unprocessed.smi

> <i_m_source_file_index>
2809

> <i_lp_mmshare_version>
43012

> <i_f3d_flags>
0

> <s_epik_input>
W0NIM11bQ0gyXWMxW2NIXVtjSF1jKFtjSF1bY0hdMSlPW0NIMl1bQ0BIXShbT0hdKVtDSDJdbjJbY0hdbmMoW0NIM10pYyhbQ0gzXSljMj1P

> <s_epik_cmdline>
J2VwaWtfcHl0aG9uJywgJy1waCcsICc3LjAnLCAnLXRuJywgJzgnLCAnLW1hJywgJzIwMCcsICctbWV0YWxfYmluZGluZycsICctaW1hZScsICc8aW5maWxlLm1hZT4nLCAnLW9tYWUnLCAnPG91dGZpbGUubWFlPic=

> <r_lp_tautomer_probability>
1

> <r_epik_Ionization_Penalty>
3.74127e-05

> <r_epik_Ionization_Penalty_Charging>
8.43242e-08

> <r_epik_Ionization_Penalty_Neutral>
3.73284e-05

> <r_epik_State_Penalty>
-0

> <r_epik_Charging_Adjusted_Penalty>
8.43242e-08

> <i_epik_Tot_Q>
0

> <i_epik_Tot_abs_Q>
0

> <r_epik_Metal_State_Penalty>
-0

> <b_epik_Metal_Only>
0

> <s_lp_Force_Field>
OPLS_2005

> <r_lp_Energy>
23.3526

> <b_lp_Chiralities_Consistent>
1

> <s_lp_Variant>
AV-unprocessed.smi:2809-2

> <Gold.Version>
5.8.1

> <Gold.Id.Protein>
6NUR|6NUR_protein|mol2

> <Gold.PLP.Fitness>
48.0461

> <Gold.PLP.PLP>
-46.0260

> <Gold.PLP.part.hbond>
-2.0000

> <Gold.PLP.part.metal>
0.0000

> <Gold.PLP.part.buried>
-8.0190

> <Gold.PLP.part.nonpolar>
-36.8479

> <Gold.PLP.part.repulsive>
0.2658

> <Gold.PLP.ligand.clash>
0.0000

> <Gold.PLP.ligand.torsion>
0.5180

> <Gold.PLP.Chemscore.Hbond>
1.0000

> <Gold.PLP.Chemscore.CHOScore>
0.0000

> <Gold.PLP.Chemscore.Metal>
0.0000

> <Gold.Chemscore.Hbonds>
donor molecule, donor type, donor heavy atom, donor atom, acceptor molecule, acceptor atom, score
      P1  H  7989  7998       L1    10  1.00

> <Gold.PLP.Chemscore.Internal.Correction>
0.0562

> <Gold.Rescore>
     Score         DG    S(hbond)    S(metal)    S(lipo)     H(rot)  DE(clash)    DE(int)     intcor
     13.84     -14.57       0.79        0.00     109.10       2.47       0.07       0.66       ----

> <Gold.Chemscore.Fitness>
13.8351

> <Gold.Chemscore.DG>
-14.5671

> <Gold.Chemscore.ZeroCoef>
-5.4800

> <Gold.Chemscore.Hbond>
0.7887

> <Gold.Chemscore.Metal>
0.0000

> <Gold.Chemscore.Lipo>
109.1030

> <Gold.Chemscore.Internal_Hbond>
0.0000

> <Gold.Chemscore.DEClash>
0.0702

> <Gold.Chemscore.DEInternal>
0.6618

> <Gold.Chemscore.Rot>
2.4657

> <Gold.Chemscore.Internal.Correction>
   9.000000E+99

> <Gold.Chemscore.Hbonds>
donor molecule, donor type, donor heavy atom, donor atom, acceptor molecule, acceptor atom, score
      P1  H  7989  7998       L1    10  0.42

> <Gold.Chemscore.Hbond.Weighted>
-2.6341

> <Gold.Chemscore.Metal.Weighted>
-0.0000

> <Gold.Chemscore.Lipo.Weighted>
-12.7650

> <Gold.Chemscore.Internal_Hbond.Weighted>
0.0000

> <Gold.Chemscore.DEClash.Weighted>
0.0702

> <Gold.Chemscore.DEInternal.Weighted>
0.6618

> <Gold.Chemscore.Rot.Weighted>
6.3121

> <Gold.Chemscore.Internal.Correction.Weighted>
   9.000000E+99

> <Gold.Protein.RotatedTorsions>
[ 6907 6896 6895 6894 ] final  -55.36 input  -60.11 | X-H torsion
[ 7974 7965 7964 7962 ] final  130.11 input  175.53 | X-H torsion
[ 8008 7997 7996 7995 ] final  169.03 input   59.86 | X-H torsion
[ 10167 10162 10161 10158 ] final   -3.93 input  -65.29 | X-H torsion
[ 10718 10713 10712 10709 ] final  -31.21 input   66.30 | X-H torsion
[ 10763 10752 10751 10750 ] final  152.31 input  -60.55 | X-H torsion
[ 11005 11000 10999 10996 ] final   35.18 input  -57.11 | X-H torsion

> <Gold.Protein.ActiveResidues>
 VAL166  LYS551  ARG553  GLY616  TRP617  ASP618  TYR619  PRO620  LYS621  CYS622 
 ASP623  PHE694  ASN695  SER759  ASP760  ASP761  ALA762  ILE779  LEU786  VAL792 
 PHE793  MET794  SER795  GLU796  ALA797  LYS798  CYS799  TRP800  GLU811  SER814 

> <Gold.Protein.RotatedAtoms>
  150.8258  134.7488  159.6811 H   0  0  0  0  0  0  0  0  0  0  0  0  # atno 6907 bound_to 6896
  152.4369  134.5665  159.9919 H   0  0  0  0  0  0  0  0  0  0  0  0  # atno 6908 bound_to 6896
  151.5838  133.3337  159.3049 H   0  0  0  0  0  0  0  0  0  0  0  0  # atno 6909 bound_to 6896
  145.0214  139.4128  143.5195 H   0  0  0  0  0  0  0  0  0  0  0  0  # atno 7974 bound_to 7965
  156.1494  140.1575  156.8795 H   0  0  0  0  0  0  0  0  0  0  0  0  # atno 8008 bound_to 7997
  154.5057  140.0813  156.7926 H   0  0  0  0  0  0  0  0  0  0  0  0  # atno 8009 bound_to 7997
  155.3926  140.3410  155.4254 H   0  0  0  0  0  0  0  0  0  0  0  0  # atno 8010 bound_to 7997
  140.6908  143.6483  150.8373 H   0  0  0  0  0  0  0  0  0  0  0  0  # atno 10167 bound_to 10162
  156.3902  130.4371  149.7401 H   0  0  0  0  0  0  0  0  0  0  0  0  # atno 10718 bound_to 10713
  154.1180  135.2834  155.3215 H   0  0  0  0  0  0  0  0  0  0  0  0  # atno 10763 bound_to 10752
  154.6443  135.5391  153.7829 H   0  0  0  0  0  0  0  0  0  0  0  0  # atno 10764 bound_to 10752
  153.0322  135.6494  154.1335 H   0  0  0  0  0  0  0  0  0  0  0  0  # atno 10765 bound_to 10752
  140.2453  134.3366  155.7910 H   0  0  0  0  0  0  0  0  0  0  0  0  # atno 11005 bound_to 11000
  146.3486  139.9714  142.8706 LP  0  0  0  0  0  0  0  0  0  0  0  0  # atno 17320 bound_to 7965
  145.1890  140.9803  143.4222 LP  0  0  0  0  0  0  0  0  0  0  0  0  # atno 17321 bound_to 7965
  140.0196  143.5557  152.2806 LP  0  0  0  0  0  0  0  0  0  0  0  0  # atno 17342 bound_to 10162
  139.6310  144.7644  151.2536 LP  0  0  0  0  0  0  0  0  0  0  0  0  # atno 17343 bound_to 10162
  156.4457  130.7882  151.2904 LP  0  0  0  0  0  0  0  0  0  0  0  0  # atno 17370 bound_to 10713
  157.7498  131.0111  150.3332 LP  0  0  0  0  0  0  0  0  0  0  0  0  # atno 17371 bound_to 10713
  141.2207  133.7322  156.8951 LP  0  0  0  0  0  0  0  0  0  0  0  0  # atno 17394 bound_to 11000
  140.1612  134.9164  157.2717 LP  0  0  0  0  0  0  0  0  0  0  0  0  # atno 17395 bound_to 11000

$$$$
