AV-unprocessed.smi:1887|AV-procd|sdf|7655|dock6
  -GOLD-   22720 9393D 1   1.00000     0.00000
 Structure written by MMmdl.
 44 46  0  0  0  0  0  0  0  0  1 V2000
  155.0514  136.8148  157.5027 C   0  0  0  0  0  0  0  0  0  0  0  0
  153.8615  136.3016  156.9324 O   0  0  0  0  0  0  0  0  0  0  0  0
  152.7223  137.0869  157.2416 C   0  0  0  0  0  0  0  0  0  0  0  0
  152.9610  138.5357  156.7950 C   0  0  0  0  0  0  0  0  0  0  0  0
  151.7096  139.2512  156.5612 N   0  0  0  0  0  0  0  0  0  0  0  0
  151.2023  140.3108  157.2434 C   0  0  0  0  0  0  0  0  0  0  0  0
  151.8876  140.8842  158.3349 N   0  0  0  0  0  0  0  0  0  0  0  0
  152.8107  140.1657  159.0069 N   0  0  0  0  0  0  0  0  0  0  0  0
  153.2426  140.9740  159.9598 C   0  0  0  0  0  0  0  0  0  0  0  0
  154.3080  140.4859  160.8986 C   0  0  0  0  0  0  0  0  0  0  0  0
  152.5883  142.2404  159.9369 C   0  0  0  0  0  0  0  0  0  0  0  0
  152.8093  143.4020  160.8668 C   0  0  0  0  0  0  0  0  0  0  0  0
  151.7230  142.1445  158.8806 C   0  0  0  0  0  0  0  0  0  0  0  0
  150.7471  143.1396  158.3356 C   0  0  0  0  0  0  0  0  0  0  0  0
  150.0386  140.7754  156.7804 N   0  0  0  0  0  0  0  0  0  0  0  0
  149.7778  139.9335  155.7088 C   0  0  0  0  0  0  0  0  0  0  0  0
  150.7700  139.0190  155.5575 C   0  0  0  0  0  0  0  0  0  0  0  0
  150.7652  138.0186  154.4832 C   0  0  0  0  0  0  0  0  0  0  0  0
  151.6592  137.1900  154.3251 O   0  0  0  0  0  0  0  0  0  0  0  0
  149.6777  138.1083  153.6797 N   0  0  0  0  0  0  0  0  0  0  0  0
  148.6446  139.0002  153.7752 C   0  0  0  0  0  0  0  0  0  0  0  0
  147.7222  138.9620  152.9610 O   0  0  0  0  0  0  0  0  0  0  0  0
  148.6861  139.9177  154.7941 N   0  0  0  0  0  0  0  0  0  0  0  0
  147.6081  140.8973  154.9413 C   0  0  0  0  0  0  0  0  0  0  0  0
  149.6249  137.4436  152.9217 H   0  0  0  0  0  0  0  0  0  0  0  0
  155.8912  136.1757  157.2301 H   0  0  0  0  0  0  0  0  0  0  0  0
  154.9874  136.8407  158.5912 H   0  0  0  0  0  0  0  0  0  0  0  0
  155.2611  137.8213  157.1387 H   0  0  0  0  0  0  0  0  0  0  0  0
  151.8414  136.6804  156.7425 H   0  0  0  0  0  0  0  0  0  0  0  0
  152.5311  137.0586  158.3153 H   0  0  0  0  0  0  0  0  0  0  0  0
  153.5438  139.0746  157.5411 H   0  0  0  0  0  0  0  0  0  0  0  0
  153.5668  138.5468  155.8905 H   0  0  0  0  0  0  0  0  0  0  0  0
  154.5279  141.2214  161.6721 H   0  0  0  0  0  0  0  0  0  0  0  0
  155.2361  140.2824  160.3639 H   0  0  0  0  0  0  0  0  0  0  0  0
  154.0012  139.5658  161.3964 H   0  0  0  0  0  0  0  0  0  0  0  0
  152.0177  144.1472  160.7895 H   0  0  0  0  0  0  0  0  0  0  0  0
  153.7506  143.9098  160.6563 H   0  0  0  0  0  0  0  0  0  0  0  0
  152.8413  143.0835  161.9088 H   0  0  0  0  0  0  0  0  0  0  0  0
  151.0894  144.1591  158.5126 H   0  0  0  0  0  0  0  0  0  0  0  0
  149.7732  143.0221  158.8107 H   0  0  0  0  0  0  0  0  0  0  0  0
  150.6133  143.0230  157.2601 H   0  0  0  0  0  0  0  0  0  0  0  0
  146.6399  140.3985  155.0090 H   0  0  0  0  0  0  0  0  0  0  0  0
  147.5862  141.5691  154.0822 H   0  0  0  0  0  0  0  0  0  0  0  0
  147.7183  141.5108  155.8355 H   0  0  0  0  0  0  0  0  0  0  0  0
  1  2  1  0  0  0  0
  1 26  1  0  0  0  0
  1 27  1  0  0  0  0
  1 28  1  0  0  0  0
  2  3  1  0  0  0  0
  3  4  1  0  0  0  0
  3 29  1  0  0  0  0
  3 30  1  0  0  0  0
  4  5  1  0  0  0  0
  4 31  1  0  0  0  0
  4 32  1  0  0  0  0
  5 17  1  0  0  0  0
  5  6  1  0  0  0  0
  6  7  1  0  0  0  0
  6 15  2  0  0  0  0
  7 13  1  0  0  0  0
  7  8  1  0  0  0  0
  8  9  2  0  0  0  0
  9 10  1  0  0  0  0
  9 11  1  0  0  0  0
 10 33  1  0  0  0  0
 10 34  1  0  0  0  0
 10 35  1  0  0  0  0
 11 12  1  0  0  0  0
 11 13  2  0  0  0  0
 12 36  1  0  0  0  0
 12 37  1  0  0  0  0
 12 38  1  0  0  0  0
 13 14  1  0  0  0  0
 14 39  1  0  0  0  0
 14 40  1  0  0  0  0
 14 41  1  0  0  0  0
 15 16  1  0  0  0  0
 16 23  1  0  0  0  0
 16 17  2  0  0  0  0
 17 18  1  0  0  0  0
 18 19  2  0  0  0  0
 18 20  1  0  0  0  0
 20 25  1  0  0  0  0
 20 21  1  0  0  0  0
 21 22  2  0  0  0  0
 21 23  1  0  0  0  0
 23 24  1  0  0  0  0
 24 42  1  0  0  0  0
 24 43  1  0  0  0  0
 24 44  1  0  0  0  0
M  END
> <s_m_source_file>
AV-unprocessed.smi

> <i_m_source_file_index>
1887

> <i_lp_mmshare_version>
43012

> <i_f3d_flags>
0

> <s_epik_input>
W0NIM11uMWMoPU8pW25IXWMoPU8pYyhjMTIpbihbQ0gyXVtDSDJdT1tDSDNdKWMobjIpLW4zbmMoW0NIM10pYyhbQ0gzXSljM1tDSDNd

> <s_epik_cmdline>
J2VwaWtfcHl0aG9uJywgJy1waCcsICc3LjAnLCAnLXRuJywgJzgnLCAnLW1hJywgJzIwMCcsICctbWV0YWxfYmluZGluZycsICctaW1hZScsICc8aW5maWxlLm1hZT4nLCAnLW9tYWUnLCAnPG91dGZpbGUubWFlPic=

> <r_lp_tautomer_probability>
1

> <r_epik_Ionization_Penalty>
0.00244877

> <r_epik_Ionization_Penalty_Charging>
0.000731299

> <r_epik_Ionization_Penalty_Neutral>
0.00171747

> <r_epik_State_Penalty>
-0

> <r_epik_Charging_Adjusted_Penalty>
0.000731299

> <i_epik_Tot_Q>
0

> <i_epik_Tot_abs_Q>
0

> <r_epik_Metal_State_Penalty>
0.260296

> <b_epik_Metal_Only>
0

> <s_lp_Force_Field>
OPLS_2005

> <r_lp_Energy>
24.2445

> <b_lp_Chiralities_Consistent>
1

> <s_lp_Variant>
AV-unprocessed.smi:1887-1

> <Gold.Version>
5.8.1

> <Gold.Id.Protein>
6NUR|6NUR_protein|mol2

> <Gold.PLP.Fitness>
44.0477

> <Gold.PLP.PLP>
-35.4093

> <Gold.PLP.part.hbond>
-3.4611

> <Gold.PLP.part.metal>
0.0000

> <Gold.PLP.part.buried>
-5.4122

> <Gold.PLP.part.nonpolar>
-29.1461

> <Gold.PLP.part.repulsive>
2.5779

> <Gold.PLP.ligand.clash>
0.0000

> <Gold.PLP.ligand.torsion>
0.3513

> <Gold.PLP.Chemscore.Hbond>
2.9913

> <Gold.PLP.Chemscore.CHOScore>
0.0000

> <Gold.PLP.Chemscore.Metal>
0.0000

> <Gold.Chemscore.Hbonds>
donor molecule, donor type, donor heavy atom, donor atom, acceptor molecule, acceptor atom, score
      L1  H    20    25       P1  7948  1.00
      P1  H 10752 10763       L1    19  1.00
      P1  H 10752 10764       L1     2  0.99

> <Gold.PLP.Chemscore.Internal.Correction>
0.3672

> <Gold.Rescore>
     Score         DG    S(hbond)    S(metal)    S(lipo)     H(rot)  DE(clash)    DE(int)     intcor
     17.14     -20.23       2.76        0.00      80.13       1.50       0.01       3.08       ----

> <Gold.Chemscore.Fitness>
17.1359

> <Gold.Chemscore.DG>
-20.2317

> <Gold.Chemscore.ZeroCoef>
-5.4800

> <Gold.Chemscore.Hbond>
2.7606

> <Gold.Chemscore.Metal>
0.0000

> <Gold.Chemscore.Lipo>
80.1283

> <Gold.Chemscore.Internal_Hbond>
0.0000

> <Gold.Chemscore.DEClash>
0.0126

> <Gold.Chemscore.DEInternal>
3.0832

> <Gold.Chemscore.Rot>
1.5014

> <Gold.Chemscore.Internal.Correction>
   9.000000E+99

> <Gold.Chemscore.Hbonds>
donor molecule, donor type, donor heavy atom, donor atom, acceptor molecule, acceptor atom, score
      L1  H    20    25       P1  7948  0.65
      P1  H 10752 10763       L1    19  0.92
      P1  H 10752 10764       L1     2  0.87

> <Gold.Chemscore.Hbond.Weighted>
-9.2204

> <Gold.Chemscore.Metal.Weighted>
-0.0000

> <Gold.Chemscore.Lipo.Weighted>
-9.3750

> <Gold.Chemscore.Internal_Hbond.Weighted>
0.0000

> <Gold.Chemscore.DEClash.Weighted>
0.0126

> <Gold.Chemscore.DEInternal.Weighted>
3.0832

> <Gold.Chemscore.Rot.Weighted>
3.8437

> <Gold.Chemscore.Internal.Correction.Weighted>
   9.000000E+99

> <Gold.Protein.RotatedTorsions>
[ 6907 6896 6895 6894 ] final  -48.20 input  -60.11 | X-H torsion
[ 7974 7965 7964 7962 ] final -158.21 input  175.53 | X-H torsion
[ 8008 7997 7996 7995 ] final -155.27 input   59.86 | X-H torsion
[ 10167 10162 10161 10158 ] final -109.10 input  -65.29 | X-H torsion
[ 10718 10713 10712 10709 ] final  166.66 input   66.30 | X-H torsion
[ 10763 10752 10751 10750 ] final   30.59 input  -60.55 | X-H torsion
[ 11005 11000 10999 10996 ] final  -53.22 input  -57.11 | X-H torsion

> <Gold.Protein.ActiveResidues>
 VAL166  LYS551  ARG553  GLY616  TRP617  ASP618  TYR619  PRO620  LYS621  CYS622 
 ASP623  PHE694  ASN695  SER759  ASP760  ASP761  ALA762  ILE779  LEU786  VAL792 
 PHE793  MET794  SER795  GLU796  ALA797  LYS798  CYS799  TRP800  GLU811  SER814 

> <Gold.Protein.RotatedAtoms>
  150.8929  134.8335  159.7306 H   0  0  0  0  0  0  0  0  0  0  0  0  # atno 6907 bound_to 6896
  152.4848  134.4620  159.9618 H   0  0  0  0  0  0  0  0  0  0  0  0  # atno 6908 bound_to 6896
  151.4680  133.3537  159.2854 H   0  0  0  0  0  0  0  0  0  0  0  0  # atno 6909 bound_to 6896
  144.7515  140.3859  143.6044 H   0  0  0  0  0  0  0  0  0  0  0  0  # atno 7974 bound_to 7965
  155.6992  140.0764  157.2417 H   0  0  0  0  0  0  0  0  0  0  0  0  # atno 8008 bound_to 7997
  154.4076  140.1650  156.2225 H   0  0  0  0  0  0  0  0  0  0  0  0  # atno 8009 bound_to 7997
  155.9383  140.3386  155.6309 H   0  0  0  0  0  0  0  0  0  0  0  0  # atno 8010 bound_to 7997
  140.1590  143.4136  152.1439 H   0  0  0  0  0  0  0  0  0  0  0  0  # atno 10167 bound_to 10162
  157.0627  131.0344  151.2641 H   0  0  0  0  0  0  0  0  0  0  0  0  # atno 10718 bound_to 10713
  153.0363  135.6460  154.1067 H   0  0  0  0  0  0  0  0  0  0  0  0  # atno 10763 bound_to 10752
  154.0782  135.2875  155.3297 H   0  0  0  0  0  0  0  0  0  0  0  0  # atno 10764 bound_to 10752
  154.6548  135.5413  153.8010 H   0  0  0  0  0  0  0  0  0  0  0  0  # atno 10765 bound_to 10752
  141.0965  133.6624  156.4140 H   0  0  0  0  0  0  0  0  0  0  0  0  # atno 11005 bound_to 11000
  145.6928  139.1643  143.2637 LP  0  0  0  0  0  0  0  0  0  0  0  0  # atno 17320 bound_to 7965
  146.1471  140.6977  142.9339 LP  0  0  0  0  0  0  0  0  0  0  0  0  # atno 17321 bound_to 7965
  139.5390  144.7238  151.4797 LP  0  0  0  0  0  0  0  0  0  0  0  0  # atno 17342 bound_to 10162
  140.6655  143.8407  150.6937 LP  0  0  0  0  0  0  0  0  0  0  0  0  # atno 17343 bound_to 10162
  157.4942  130.7840  149.7538 LP  0  0  0  0  0  0  0  0  0  0  0  0  # atno 17370 bound_to 10713
  155.9974  130.3900  150.2743 LP  0  0  0  0  0  0  0  0  0  0  0  0  # atno 17371 bound_to 10713
  140.5128  134.6379  157.5290 LP  0  0  0  0  0  0  0  0  0  0  0  0  # atno 17394 bound_to 11000
  139.9803  134.7148  155.9872 LP  0  0  0  0  0  0  0  0  0  0  0  0  # atno 17395 bound_to 11000

$$$$
