AV-unprocessed.smi:2148|AV-procd|sdf|8750|dock2
  -GOLD-   2272011523D 1   1.00000     0.00000
 Structure written by MMmdl.
 44 45  0  0  0  0  0  0  0  0  1 V2000
  141.9852  140.1473  156.3805 C   0  0  0  0  0  0  0  0  0  0  0  0
  140.2078  140.2632  156.0380 S   0  0  0  0  0  0  0  0  0  0  0  0
  140.1689  139.8553  154.2663 C   0  0  2  0  0  0  0  0  0  0  0  0
  138.7546  140.0681  153.7040 C   0  0  0  0  0  0  0  0  0  0  0  0
  140.6608  138.4271  153.9973 C   0  0  0  0  0  0  0  0  0  0  0  0
  139.9956  137.4703  154.3929 O   0  0  0  0  0  0  0  0  0  0  0  0
  141.8381  138.3274  153.3515 N   0  0  0  0  0  0  0  0  0  0  0  0
  142.5573  137.1612  152.9721 C   0  0  0  0  0  0  0  0  0  0  0  0
  142.0099  135.9106  153.3181 C   0  0  0  0  0  0  0  0  0  0  0  0
  142.7005  134.7342  152.9713 C   0  0  0  0  0  0  0  0  0  0  0  0
  143.9331  134.8346  152.2839 C   0  0  0  0  0  0  0  0  0  0  0  0
  144.6441  133.6698  151.9202 N   0  0  0  0  0  0  0  0  0  0  0  0
  145.5712  133.1485  152.9198 C   0  0  0  0  0  0  0  0  0  0  0  0
  146.5391  132.1391  152.2772 C   0  0  1  0  0  0  0  0  0  0  0  0
  147.4467  131.4751  153.3180 C   0  0  0  0  0  0  0  0  0  0  0  0
  145.7947  131.1135  151.6214 O   0  0  0  0  0  0  0  0  0  0  0  0
  144.8958  131.5794  150.6128 C   0  0  2  0  0  0  0  0  0  0  0  0
  145.6363  132.0763  149.3587 C   0  0  0  0  0  0  0  0  0  0  0  0
  143.9230  132.6191  151.2036 C   0  0  0  0  0  0  0  0  0  0  0  0
  144.4691  136.0392  151.9685 N   0  0  0  0  0  0  0  0  0  0  0  0
  143.8041  137.1652  152.3026 C   0  0  0  0  0  0  0  0  0  0  0  0
  142.1829  140.4090  157.4199 H   0  0  0  0  0  0  0  0  0  0  0  0
  142.5428  140.8307  155.7403 H   0  0  0  0  0  0  0  0  0  0  0  0
  142.3471  139.1336  156.2093 H   0  0  0  0  0  0  0  0  0  0  0  0
  140.8325  140.5583  153.7602 H   0  0  0  0  0  0  0  0  0  0  0  0
  138.7096  139.8290  152.6407 H   0  0  0  0  0  0  0  0  0  0  0  0
  138.4437  141.1069  153.8183 H   0  0  0  0  0  0  0  0  0  0  0  0
  138.0198  139.4467  154.2180 H   0  0  0  0  0  0  0  0  0  0  0  0
  142.3005  139.2019  153.1493 H   0  0  0  0  0  0  0  0  0  0  0  0
  141.0687  135.8484  153.8448 H   0  0  0  0  0  0  0  0  0  0  0  0
  142.2849  133.7768  153.2477 H   0  0  0  0  0  0  0  0  0  0  0  0
  146.1482  133.9424  153.3916 H   0  0  0  0  0  0  0  0  0  0  0  0
  144.9950  132.6654  153.7099 H   0  0  0  0  0  0  0  0  0  0  0  0
  147.1752  132.6516  151.5553 H   0  0  0  0  0  0  0  0  0  0  0  0
  148.0469  132.2170  153.8456 H   0  0  0  0  0  0  0  0  0  0  0  0
  148.1307  130.7700  152.8447 H   0  0  0  0  0  0  0  0  0  0  0  0
  146.8631  130.9276  154.0588 H   0  0  0  0  0  0  0  0  0  0  0  0
  144.3078  130.7137  150.3071 H   0  0  0  0  0  0  0  0  0  0  0  0
  144.9315  132.2914  148.5553 H   0  0  0  0  0  0  0  0  0  0  0  0
  146.3317  131.3205  148.9933 H   0  0  0  0  0  0  0  0  0  0  0  0
  146.2009  132.9895  149.5451 H   0  0  0  0  0  0  0  0  0  0  0  0
  143.2414  132.1280  151.8997 H   0  0  0  0  0  0  0  0  0  0  0  0
  143.3150  133.0444  150.4043 H   0  0  0  0  0  0  0  0  0  0  0  0
  144.3117  138.0776  152.0341 H   0  0  0  0  0  0  0  0  0  0  0  0
  1  2  1  0  0  0  0
  1 22  1  0  0  0  0
  1 23  1  0  0  0  0
  1 24  1  0  0  0  0
  2  3  1  0  0  0  0
  3  4  1  0  0  0  0
  3  5  1  0  0  0  0
  3 25  1  0  0  0  0
  4 26  1  0  0  0  0
  4 27  1  0  0  0  0
  4 28  1  0  0  0  0
  5  6  2  0  0  0  0
  5  7  1  0  0  0  0
  7  8  1  0  0  0  0
  7 29  1  0  0  0  0
  8 21  1  0  0  0  0
  8  9  2  0  0  0  0
  9 10  1  0  0  0  0
  9 30  1  0  0  0  0
 10 11  2  0  0  0  0
 10 31  1  0  0  0  0
 11 12  1  0  0  0  0
 11 20  1  0  0  0  0
 12 19  1  0  0  0  0
 12 13  1  0  0  0  0
 13 14  1  0  0  0  0
 13 32  1  0  0  0  0
 13 33  1  0  0  0  0
 14 15  1  0  0  0  0
 14 16  1  0  0  0  0
 14 34  1  0  0  0  0
 15 35  1  0  0  0  0
 15 36  1  0  0  0  0
 15 37  1  0  0  0  0
 16 17  1  0  0  0  0
 17 18  1  0  0  0  0
 17 19  1  0  0  0  0
 17 38  1  0  0  0  0
 18 39  1  0  0  0  0
 18 40  1  0  0  0  0
 18 41  1  0  0  0  0
 19 42  1  0  0  0  0
 19 43  1  0  0  0  0
 20 21  2  0  0  0  0
 21 44  1  0  0  0  0
M  END
> <s_m_source_file>
AV-unprocessed.smi

> <i_m_source_file_index>
2148

> <i_lp_mmshare_version>
43012

> <i_f3d_flags>
0

> <s_epik_input>
W0NIM11TW0NASF0oW0NIM10pQyg9TylbTkhdYzFbY0hdW2NIXWMobltjSF0xKU4yW0NIMl1bQ0BASF0oW0NIM10pT1tDQEBIXShbQ0gzXSlbQ0gyXTI=

> <s_epik_cmdline>
J2VwaWtfcHl0aG9uJywgJy1waCcsICc3LjAnLCAnLXRuJywgJzgnLCAnLW1hJywgJzIwMCcsICctbWV0YWxfYmluZGluZycsICctaW1hZScsICc8aW5maWxlLm1hZT4nLCAnLW9tYWUnLCAnPG91dGZpbGUubWFlPic=

> <r_lp_tautomer_probability>
1

> <r_epik_Ionization_Penalty>
0.000646494

> <r_epik_Ionization_Penalty_Charging>
0

> <r_epik_Ionization_Penalty_Neutral>
0.000646494

> <r_epik_State_Penalty>
0.000408447

> <r_epik_Charging_Adjusted_Penalty>
0.000408447

> <i_epik_Tot_Q>
0

> <i_epik_Tot_abs_Q>
0

> <r_epik_Metal_State_Penalty>
-0

> <b_epik_Metal_Only>
0

> <s_lp_Force_Field>
OPLS_2005

> <r_lp_Energy>
25.6467

> <b_lp_Chiralities_Consistent>
1

> <s_lp_Variant>
AV-unprocessed.smi:2148-5

> <Gold.Version>
5.8.1

> <Gold.Id.Protein>
6NUR|6NUR_protein|mol2

> <Gold.PLP.Fitness>
38.7623

> <Gold.PLP.PLP>
-31.8631

> <Gold.PLP.part.hbond>
-1.0000

> <Gold.PLP.part.metal>
0.0000

> <Gold.PLP.part.buried>
-3.8154

> <Gold.PLP.part.nonpolar>
-26.0436

> <Gold.PLP.part.repulsive>
0.4996

> <Gold.PLP.ligand.clash>
0.0000

> <Gold.PLP.ligand.torsion>
0.5555

> <Gold.PLP.Chemscore.Hbond>
1.0000

> <Gold.PLP.Chemscore.CHOScore>
1.5461

> <Gold.PLP.Chemscore.Metal>
0.0000

> <Gold.Chemscore.Hbonds>
donor molecule, donor type, donor heavy atom, donor atom, acceptor molecule, acceptor atom, score
      L1  H     7    29       P1 10175  1.00
      L1  C    21    44       P1 10171  0.59
      L1  C    21    44       P1 10175  0.99

> <Gold.PLP.Chemscore.Internal.Correction>
0.3719

> <Gold.Rescore>
     Score         DG    S(hbond)    S(metal)    S(lipo)     H(rot)  DE(clash)    DE(int)     intcor
     12.76     -14.85       0.99        0.00      79.43       1.27       0.06       2.03       ----

> <Gold.Chemscore.Fitness>
12.7623

> <Gold.Chemscore.DG>
-14.8523

> <Gold.Chemscore.ZeroCoef>
-5.4800

> <Gold.Chemscore.Hbond>
0.9937

> <Gold.Chemscore.Metal>
0.0000

> <Gold.Chemscore.Lipo>
79.4342

> <Gold.Chemscore.Internal_Hbond>
0.0000

> <Gold.Chemscore.DEClash>
0.0573

> <Gold.Chemscore.DEInternal>
2.0327

> <Gold.Chemscore.Rot>
1.2659

> <Gold.Chemscore.Internal.Correction>
   9.000000E+99

> <Gold.Chemscore.Hbonds>
donor molecule, donor type, donor heavy atom, donor atom, acceptor molecule, acceptor atom, score
      L1  H     7    29       P1 10175  0.99

> <Gold.Chemscore.Hbond.Weighted>
-3.3191

> <Gold.Chemscore.Metal.Weighted>
-0.0000

> <Gold.Chemscore.Lipo.Weighted>
-9.2938

> <Gold.Chemscore.Internal_Hbond.Weighted>
0.0000

> <Gold.Chemscore.DEClash.Weighted>
0.0573

> <Gold.Chemscore.DEInternal.Weighted>
2.0327

> <Gold.Chemscore.Rot.Weighted>
3.2406

> <Gold.Chemscore.Internal.Correction.Weighted>
   9.000000E+99

> <Gold.Protein.RotatedTorsions>
[ 6907 6896 6895 6894 ] final -143.26 input  -60.11 | X-H torsion
[ 7974 7965 7964 7962 ] final   -1.96 input  175.53 | X-H torsion
[ 8008 7997 7996 7995 ] final  -33.99 input   59.86 | X-H torsion
[ 10167 10162 10161 10158 ] final -129.85 input  -65.29 | X-H torsion
[ 10718 10713 10712 10709 ] final -103.50 input   66.30 | X-H torsion
[ 10763 10752 10751 10750 ] final   64.32 input  -60.55 | X-H torsion
[ 11005 11000 10999 10996 ] final -104.34 input  -57.11 | X-H torsion

> <Gold.Protein.ActiveResidues>
 VAL166  LYS551  ARG553  GLY616  TRP617  ASP618  TYR619  PRO620  LYS621  CYS622 
 ASP623  PHE694  ASN695  SER759  ASP760  ASP761  ALA762  ILE779  LEU786  VAL792 
 PHE793  MET794  SER795  GLU796  ALA797  LYS798  CYS799  TRP800  GLU811  SER814 

> <Gold.Protein.RotatedAtoms>
  151.0981  133.5264  159.2611 H   0  0  0  0  0  0  0  0  0  0  0  0  # atno 6907 bound_to 6896
  151.2106  135.0479  159.8919 H   0  0  0  0  0  0  0  0  0  0  0  0  # atno 6908 bound_to 6896
  152.5440  134.0797  159.8284 H   0  0  0  0  0  0  0  0  0  0  0  0  # atno 6909 bound_to 6896
  146.2411  140.1498  142.8334 H   0  0  0  0  0  0  0  0  0  0  0  0  # atno 7974 bound_to 7965
  154.4133  140.1696  156.1978 H   0  0  0  0  0  0  0  0  0  0  0  0  # atno 8008 bound_to 7997
  155.9549  140.3398  155.6417 H   0  0  0  0  0  0  0  0  0  0  0  0  # atno 8009 bound_to 7997
  155.6822  140.0724  157.2471 H   0  0  0  0  0  0  0  0  0  0  0  0  # atno 8010 bound_to 7997
  139.9355  143.6223  152.2518 H   0  0  0  0  0  0  0  0  0  0  0  0  # atno 10167 bound_to 10162
  156.0268  130.5470  150.7262 H   0  0  0  0  0  0  0  0  0  0  0  0  # atno 10718 bound_to 10713
  153.0051  135.5397  154.6491 H   0  0  0  0  0  0  0  0  0  0  0  0  # atno 10763 bound_to 10752
  154.5728  135.2843  155.0813 H   0  0  0  0  0  0  0  0  0  0  0  0  # atno 10764 bound_to 10752
  154.1972  135.6490  153.5129 H   0  0  0  0  0  0  0  0  0  0  0  0  # atno 10765 bound_to 10752
  141.1105  133.8715  157.1599 H   0  0  0  0  0  0  0  0  0  0  0  0  # atno 11005 bound_to 11000
  145.0177  140.8767  143.5186 LP  0  0  0  0  0  0  0  0  0  0  0  0  # atno 17320 bound_to 7965
  145.1542  139.2496  143.5425 LP  0  0  0  0  0  0  0  0  0  0  0  0  # atno 17321 bound_to 7965
  139.6747  144.7659  151.1718 LP  0  0  0  0  0  0  0  0  0  0  0  0  # atno 17342 bound_to 10162
  140.7626  143.5812  150.8893 LP  0  0  0  0  0  0  0  0  0  0  0  0  # atno 17343 bound_to 10162
  157.4866  131.0907  151.0476 LP  0  0  0  0  0  0  0  0  0  0  0  0  # atno 17370 bound_to 10713
  157.0894  130.5936  149.5436 LP  0  0  0  0  0  0  0  0  0  0  0  0  # atno 17371 bound_to 10713
  139.9996  135.0033  157.0160 LP  0  0  0  0  0  0  0  0  0  0  0  0  # atno 17394 bound_to 11000
  140.4789  134.1310  155.7214 LP  0  0  0  0  0  0  0  0  0  0  0  0  # atno 17395 bound_to 11000

$$$$
