AV-unprocessed.smi:876|AV-procd|sdf|4022|dock1
  -GOLD-   22720 1513D 1   1.00000     0.00000
 Structure written by MMmdl.
 41 42  0  0  0  0  0  0  0  0  2 V2000
  152.7162  142.5581  158.9793 C   0  0  0  0  0  0  0  0  0  0  0  0
  151.8595  142.9860  157.8809 N   0  0  0  0  0  0  0  0  0  0  0  0
  151.6570  144.4059  157.6148 C   0  0  0  0  0  0  0  0  0  0  0  0
  151.2612  142.0223  157.0404 C   0  0  0  0  0  0  0  0  0  0  0  0
  151.7229  140.6870  156.9391 C   0  0  0  0  0  0  0  0  0  0  0  0
  151.0738  139.7800  156.0761 C   0  0  0  0  0  0  0  0  0  0  0  0
  149.9553  140.2109  155.3212 C   0  0  0  0  0  0  0  0  0  0  0  0
  149.2364  139.3892  154.4109 N   0  0  0  0  0  0  0  0  0  0  0  0
  147.9712  139.5207  153.9756 C   0  0  0  0  0  0  0  0  0  0  0  0
  147.1985  140.4248  154.2922 O   0  0  0  0  0  0  0  0  0  0  0  0
  147.6467  138.5368  153.1251 N   0  0  0  0  0  0  0  0  0  0  0  0
  146.3485  138.3920  152.4760 C   0  0  1  0  0  0  0  0  0  0  0  0
  146.5081  138.3415  150.9812 C   0  0  0  0  0  0  0  0  0  0  0  0
  145.9550  137.2577  150.4417 C   0  0  0  0  0  0  0  0  0  0  0  0
  145.3171  136.3546  151.4667 C   0  0  1  0  0  0  0  0  0  0  0  0
  145.8220  134.9035  151.3857 C   0  0  0  0  0  0  0  0  0  0  0  0
  145.3506  134.2773  150.2108 O   0  0  0  0  0  0  0  0  0  0  0  0
  145.6555  137.0449  152.8126 C   0  0  0  0  0  0  0  0  0  0  0  0
  149.5437  141.5525  155.4501 C   0  0  0  0  0  0  0  0  0  0  0  0
  150.1947  142.3876  156.2878 N   0  3  0  0  0  0  0  0  0  0  0  0
  145.7027  139.2363  152.7233 H   0  0  0  0  0  0  0  0  0  0  0  0
  144.2380  136.3782  151.3082 H   0  0  0  0  0  0  0  0  0  0  0  0
  153.5745  142.0016  158.6015 H   0  0  0  0  0  0  0  0  0  0  0  0
  152.1637  141.9216  159.6712 H   0  0  0  0  0  0  0  0  0  0  0  0
  153.0941  143.4112  159.5432 H   0  0  0  0  0  0  0  0  0  0  0  0
  150.5972  144.6581  157.6647 H   0  0  0  0  0  0  0  0  0  0  0  0
  152.0300  144.6668  156.6238 H   0  0  0  0  0  0  0  0  0  0  0  0
  152.1817  145.0255  158.3425 H   0  0  0  0  0  0  0  0  0  0  0  0
  152.5726  140.3398  157.5077 H   0  0  0  0  0  0  0  0  0  0  0  0
  151.4597  138.7752  156.0045 H   0  0  0  0  0  0  0  0  0  0  0  0
  149.7651  138.6319  154.0035 H   0  0  0  0  0  0  0  0  0  0  0  0
  148.3415  137.8358  152.9136 H   0  0  0  0  0  0  0  0  0  0  0  0
  147.0068  139.1240  150.4280 H   0  0  0  0  0  0  0  0  0  0  0  0
  145.9397  137.0297  149.3861 H   0  0  0  0  0  0  0  0  0  0  0  0
  146.9120  134.8689  151.3985 H   0  0  0  0  0  0  0  0  0  0  0  0
  145.4699  134.3328  152.2454 H   0  0  0  0  0  0  0  0  0  0  0  0
  145.7043  134.7355  149.4637 H   0  0  0  0  0  0  0  0  0  0  0  0
  146.3107  136.4097  153.4115 H   0  0  0  0  0  0  0  0  0  0  0  0
  144.7551  137.2081  153.4057 H   0  0  0  0  0  0  0  0  0  0  0  0
  148.7115  141.9843  154.9130 H   0  0  0  0  0  0  0  0  0  0  0  0
  149.8643  143.3502  156.3573 H   0  0  0  0  0  0  0  0  0  0  0  0
  1  2  1  0  0  0  0
  1 23  1  0  0  0  0
  1 24  1  0  0  0  0
  1 25  1  0  0  0  0
  2  3  1  0  0  0  0
  2  4  1  0  0  0  0
  3 26  1  0  0  0  0
  3 27  1  0  0  0  0
  3 28  1  0  0  0  0
  4 20  1  0  0  0  0
  4  5  2  0  0  0  0
  5  6  1  0  0  0  0
  5 29  1  0  0  0  0
  6  7  2  0  0  0  0
  6 30  1  0  0  0  0
  7  8  1  0  0  0  0
  7 19  1  0  0  0  0
  8  9  1  0  0  0  0
  8 31  1  0  0  0  0
  9 10  2  0  0  0  0
  9 11  1  0  0  0  0
 11 12  1  0  0  0  0
 11 32  1  0  0  0  0
 12 21  1  0  0  0  0
 12 18  1  0  0  0  0
 12 13  1  0  0  0  0
 13 14  2  0  0  0  0
 13 33  1  0  0  0  0
 14 15  1  0  0  0  0
 14 34  1  0  0  0  0
 15 22  1  0  0  0  0
 15 16  1  0  0  0  0
 15 18  1  0  0  0  0
 16 17  1  0  0  0  0
 16 35  1  0  0  0  0
 16 36  1  0  0  0  0
 17 37  1  0  0  0  0
 18 38  1  0  0  0  0
 18 39  1  0  0  0  0
 19 20  2  0  0  0  0
 19 40  1  0  0  0  0
 20 41  1  0  0  0  0
M  CHG  1  20   1
M  END
> <s_m_source_file>
AV-unprocessed.smi

> <i_m_source_file_index>
876

> <i_lp_mmshare_version>
43012

> <i_f3d_flags>
0

> <s_epik_input>
W0NIM11OKFtDSDNdKWMxW2NIXVtjSF1jKFtjSF1uMSlbTkhdQyg9TylbTkhdW0NAQEhdMltDSF09W0NIXVtDQEBIXShbQ0gyXTIpW0NIMl1bT0hd

> <s_epik_cmdline>
J2VwaWtfcHl0aG9uJywgJy1waCcsICc3LjAnLCAnLXRuJywgJzgnLCAnLW1hJywgJzIwMCcsICctbWV0YWxfYmluZGluZycsICctaW1hZScsICc8aW5maWxlLm1hZT4nLCAnLW9tYWUnLCAnPG91dGZpbGUubWFlPic=

> <r_lp_tautomer_probability>
0.999994

> <r_epik_Ionization_Penalty>
0.257994

> <r_epik_Ionization_Penalty_Charging>
0.257974

> <r_epik_Ionization_Penalty_Neutral>
1.95938e-05

> <r_epik_State_Penalty>
0.249586

> <r_epik_Charging_Adjusted_Penalty>
0.50756

> <i_epik_Tot_Q>
1

> <i_epik_Tot_abs_Q>
1

> <r_epik_Metal_State_Penalty>
0.538508

> <b_epik_Metal_Only>
0

> <s_lp_Force_Field>
OPLS_2005

> <r_lp_Energy>
25.8864

> <b_lp_Chiralities_Consistent>
1

> <s_lp_Variant>
AV-unprocessed.smi:876-4

> <Gold.Version>
5.8.1

> <Gold.Id.Protein>
6NUR|6NUR_protein|mol2

> <Gold.PLP.Fitness>
46.8000

> <Gold.PLP.PLP>
-35.4953

> <Gold.PLP.part.hbond>
-3.6146

> <Gold.PLP.part.metal>
0.0000

> <Gold.PLP.part.buried>
4.2530

> <Gold.PLP.part.nonpolar>
-37.2539

> <Gold.PLP.part.repulsive>
0.3161

> <Gold.PLP.ligand.clash>
0.0000

> <Gold.PLP.ligand.torsion>
0.3398

> <Gold.PLP.Chemscore.Hbond>
3.9840

> <Gold.PLP.Chemscore.CHOScore>
0.0000

> <Gold.PLP.Chemscore.Metal>
0.0000

> <Gold.Chemscore.Hbonds>
donor molecule, donor type, donor heavy atom, donor atom, acceptor molecule, acceptor atom, score
      L1  H    11    32       P1  7948  1.00
      L1  H    17    37       P1  7921  1.00
      L1  H    20    41       P1  8028  1.98

> <Gold.PLP.Chemscore.Internal.Correction>
0.0323

> <Gold.Rescore>
     Score         DG    S(hbond)    S(metal)    S(lipo)     H(rot)  DE(clash)    DE(int)     intcor
     16.63     -21.70       2.92        0.00      95.24       1.82       3.35       1.72       ----

> <Gold.Chemscore.Fitness>
16.6299

> <Gold.Chemscore.DG>
-21.7005

> <Gold.Chemscore.ZeroCoef>
-5.4800

> <Gold.Chemscore.Hbond>
2.9150

> <Gold.Chemscore.Metal>
0.0000

> <Gold.Chemscore.Lipo>
95.2383

> <Gold.Chemscore.Internal_Hbond>
0.0000

> <Gold.Chemscore.DEClash>
3.3469

> <Gold.Chemscore.DEInternal>
1.7237

> <Gold.Chemscore.Rot>
1.8197

> <Gold.Chemscore.Internal.Correction>
   9.000000E+99

> <Gold.Chemscore.Hbonds>
donor molecule, donor type, donor heavy atom, donor atom, acceptor molecule, acceptor atom, score
      L1  H    11    32       P1  7948  0.92
      L1  H    17    37       P1  7921  0.88
      L1  H    20    41       P1  8028  0.94

> <Gold.Chemscore.Hbond.Weighted>
-9.7361

> <Gold.Chemscore.Metal.Weighted>
-0.0000

> <Gold.Chemscore.Lipo.Weighted>
-11.1429

> <Gold.Chemscore.Internal_Hbond.Weighted>
0.0000

> <Gold.Chemscore.DEClash.Weighted>
3.3469

> <Gold.Chemscore.DEInternal.Weighted>
1.7237

> <Gold.Chemscore.Rot.Weighted>
4.6585

> <Gold.Chemscore.Internal.Correction.Weighted>
   9.000000E+99

> <Gold.Protein.RotatedTorsions>
[ 6907 6896 6895 6894 ] final  -40.11 input  -60.11 | X-H torsion
[ 7974 7965 7964 7962 ] final -176.18 input  175.53 | X-H torsion
[ 8008 7997 7996 7995 ] final -114.38 input   59.86 | X-H torsion
[ 10167 10162 10161 10158 ] final  -23.26 input  -65.29 | X-H torsion
[ 10718 10713 10712 10709 ] final   16.31 input   66.30 | X-H torsion
[ 10763 10752 10751 10750 ] final  130.32 input  -60.55 | X-H torsion
[ 11005 11000 10999 10996 ] final   93.97 input  -57.11 | X-H torsion

> <Gold.Protein.ActiveResidues>
 VAL166  LYS551  ARG553  GLY616  TRP617  ASP618  TYR619  PRO620  LYS621  CYS622 
 ASP623  PHE694  ASN695  SER759  ASP760  ASP761  ALA762  ILE779  LEU786  VAL792 
 PHE793  MET794  SER795  GLU796  ALA797  LYS798  CYS799  TRP800  GLU811  SER814 

> <Gold.Protein.RotatedAtoms>
  150.9823  134.9176  159.7851 H   0  0  0  0  0  0  0  0  0  0  0  0  # atno 6907 bound_to 6896
  152.5225  134.3393  159.9221 H   0  0  0  0  0  0  0  0  0  0  0  0  # atno 6908 bound_to 6896
  151.3400  133.3925  159.2705 H   0  0  0  0  0  0  0  0  0  0  0  0  # atno 6909 bound_to 6896
  144.7127  140.1210  143.6405 H   0  0  0  0  0  0  0  0  0  0  0  0  # atno 7974 bound_to 7965
  155.0354  140.0392  157.2489 H   0  0  0  0  0  0  0  0  0  0  0  0  # atno 8008 bound_to 7997
  154.7262  140.2721  155.6473 H   0  0  0  0  0  0  0  0  0  0  0  0  # atno 8009 bound_to 7997
  156.2829  140.2693  156.1948 H   0  0  0  0  0  0  0  0  0  0  0  0  # atno 8010 bound_to 7997
  140.7287  143.4459  151.0587 H   0  0  0  0  0  0  0  0  0  0  0  0  # atno 10167 bound_to 10162
  157.0660  130.6328  149.5796 H   0  0  0  0  0  0  0  0  0  0  0  0  # atno 10718 bound_to 10713
  153.7560  135.3203  155.3329 H   0  0  0  0  0  0  0  0  0  0  0  0  # atno 10763 bound_to 10752
  154.8246  135.4578  154.0884 H   0  0  0  0  0  0  0  0  0  0  0  0  # atno 10764 bound_to 10752
  153.2101  135.6934  153.8207 H   0  0  0  0  0  0  0  0  0  0  0  0  # atno 10765 bound_to 10752
  139.8804  134.8820  156.3796 H   0  0  0  0  0  0  0  0  0  0  0  0  # atno 11005 bound_to 11000
  145.9371  139.2644  143.1290 LP  0  0  0  0  0  0  0  0  0  0  0  0  # atno 17320 bound_to 7965
  145.9462  140.8943  143.0282 LP  0  0  0  0  0  0  0  0  0  0  0  0  # atno 17321 bound_to 7965
  139.8131  143.7924  152.3172 LP  0  0  0  0  0  0  0  0  0  0  0  0  # atno 17342 bound_to 10162
  139.7980  144.7385  150.9864 LP  0  0  0  0  0  0  0  0  0  0  0  0  # atno 17343 bound_to 10162
  155.9964  130.5033  150.7496 LP  0  0  0  0  0  0  0  0  0  0  0  0  # atno 17370 bound_to 10713
  157.4916  131.0911  151.0420 LP  0  0  0  0  0  0  0  0  0  0  0  0  # atno 17371 bound_to 10713
  140.9408  133.7516  156.0144 LP  0  0  0  0  0  0  0  0  0  0  0  0  # atno 17394 bound_to 11000
  140.8222  134.3276  157.5378 LP  0  0  0  0  0  0  0  0  0  0  0  0  # atno 17395 bound_to 11000

$$$$
