AV-unprocessed.smi:1453|AV-procd|sdf|5911|dock1
  -GOLD-   22720 5593D 1   1.00000     0.00000
 Structure written by MMmdl.
 43 44  0  0  0  0  0  0  0  0  1 V2000
  147.0833  134.1934  159.6433 C   0  0  0  0  0  0  0  0  0  0  0  0
  147.1770  135.7192  159.4844 C   0  0  2  0  0  0  0  0  0  0  0  0
  148.4148  136.1270  158.6749 C   0  0  0  0  0  0  0  0  0  0  0  0
  149.5438  135.9785  159.1430 O   0  0  0  0  0  0  0  0  0  0  0  0
  148.1892  136.6446  157.4569 N   0  0  0  0  0  0  0  0  0  0  0  0
  149.2277  137.1205  156.5499 C   0  0  0  0  0  0  0  0  0  0  0  0
  149.9373  138.3630  157.0600 C   0  0  0  0  0  0  0  0  0  0  0  0
  150.9786  138.2732  158.0048 C   0  0  0  0  0  0  0  0  0  0  0  0
  151.6112  139.4537  158.4382 C   0  0  0  0  0  0  0  0  0  0  0  0
  151.1830  140.6982  157.9170 C   0  0  0  0  0  0  0  0  0  0  0  0
  151.8065  141.8950  158.3328 N   0  0  0  0  0  0  0  0  0  0  0  0
  151.3141  143.1172  157.7017 C   0  0  0  0  0  0  0  0  0  0  0  0
  152.2598  144.2935  158.0001 C   0  0  0  0  0  0  0  0  0  0  0  0
  152.4334  144.4289  159.4067 O   0  0  0  0  0  0  0  0  0  0  0  0
  153.0200  143.2661  159.9817 C   0  0  0  0  0  0  0  0  0  0  0  0
  152.0980  142.0561  159.7564 C   0  0  0  0  0  0  0  0  0  0  0  0
  150.1699  140.7791  157.0186 N   0  0  0  0  0  0  0  0  0  0  0  0
  149.5689  139.6442  156.6037 C   0  0  0  0  0  0  0  0  0  0  0  0
  147.2107  136.5249  161.1546 S   0  0  0  0  0  0  0  0  0  0  0  0
  146.8110  135.1369  162.2980 C   0  0  0  0  0  0  0  0  0  0  0  0
  148.5917  136.9552  161.4211 O   0  0  0  0  0  0  0  0  0  0  0  0
  146.1218  137.5107  161.2353 O   0  0  0  0  0  0  0  0  0  0  0  0
  147.0737  133.6936  158.6739 H   0  0  0  0  0  0  0  0  0  0  0  0
  146.1680  133.9137  160.1652 H   0  0  0  0  0  0  0  0  0  0  0  0
  147.9224  133.7972  160.2169 H   0  0  0  0  0  0  0  0  0  0  0  0
  146.2792  136.0742  158.9770 H   0  0  0  0  0  0  0  0  0  0  0  0
  147.2339  136.7251  157.1401 H   0  0  0  0  0  0  0  0  0  0  0  0
  149.9481  136.3249  156.3513 H   0  0  0  0  0  0  0  0  0  0  0  0
  148.7623  137.3591  155.5933 H   0  0  0  0  0  0  0  0  0  0  0  0
  151.2917  137.3147  158.3921 H   0  0  0  0  0  0  0  0  0  0  0  0
  152.4021  139.3919  159.1706 H   0  0  0  0  0  0  0  0  0  0  0  0
  151.2190  143.0059  156.6226 H   0  0  0  0  0  0  0  0  0  0  0  0
  150.3170  143.3343  158.0870 H   0  0  0  0  0  0  0  0  0  0  0  0
  153.2266  144.1470  157.5154 H   0  0  0  0  0  0  0  0  0  0  0  0
  151.8428  145.2195  157.6042 H   0  0  0  0  0  0  0  0  0  0  0  0
  154.0060  143.0901  159.5483 H   0  0  0  0  0  0  0  0  0  0  0  0
  153.1662  143.4328  161.0491 H   0  0  0  0  0  0  0  0  0  0  0  0
  151.1635  142.1923  160.3029 H   0  0  0  0  0  0  0  0  0  0  0  0
  152.5786  141.1588  160.1485 H   0  0  0  0  0  0  0  0  0  0  0  0
  148.7743  139.7654  155.8821 H   0  0  0  0  0  0  0  0  0  0  0  0
  146.9157  135.4782  163.3276 H   0  0  0  0  0  0  0  0  0  0  0  0
  147.4938  134.3061  162.1219 H   0  0  0  0  0  0  0  0  0  0  0  0
  145.7842  134.8109  162.1370 H   0  0  0  0  0  0  0  0  0  0  0  0
  1  2  1  0  0  0  0
  1 23  1  0  0  0  0
  1 24  1  0  0  0  0
  1 25  1  0  0  0  0
  2  3  1  0  0  0  0
  2 19  1  0  0  0  0
  2 26  1  0  0  0  0
  3  4  2  0  0  0  0
  3  5  1  0  0  0  0
  5  6  1  0  0  0  0
  5 27  1  0  0  0  0
  6  7  1  0  0  0  0
  6 28  1  0  0  0  0
  6 29  1  0  0  0  0
  7 18  1  0  0  0  0
  7  8  2  0  0  0  0
  8  9  1  0  0  0  0
  8 30  1  0  0  0  0
  9 10  2  0  0  0  0
  9 31  1  0  0  0  0
 10 11  1  0  0  0  0
 10 17  1  0  0  0  0
 11 16  1  0  0  0  0
 11 12  1  0  0  0  0
 12 13  1  0  0  0  0
 12 32  1  0  0  0  0
 12 33  1  0  0  0  0
 13 14  1  0  0  0  0
 13 34  1  0  0  0  0
 13 35  1  0  0  0  0
 14 15  1  0  0  0  0
 15 16  1  0  0  0  0
 15 36  1  0  0  0  0
 15 37  1  0  0  0  0
 16 38  1  0  0  0  0
 16 39  1  0  0  0  0
 17 18  2  0  0  0  0
 18 40  1  0  0  0  0
 19 20  1  0  0  0  0
 19 21  2  0  0  0  0
 19 22  2  0  0  0  0
 20 41  1  0  0  0  0
 20 42  1  0  0  0  0
 20 43  1  0  0  0  0
M  END
> <s_m_source_file>
AV-unprocessed.smi

> <i_m_source_file_index>
1453

> <i_lp_mmshare_version>
43012

> <i_f3d_flags>
0

> <s_epik_input>
W0NIM11TKD1PKSg9TylbQ0BIXShbQ0gzXSlDKD1PKVtOSF1bQ0gyXWMxW2NIXVtjSF1jKG5bY0hdMSlOMltDSDJdW0NIMl1PW0NIMl1bQ0gyXTI=

> <s_epik_cmdline>
J2VwaWtfcHl0aG9uJywgJy1waCcsICc3LjAnLCAnLXRuJywgJzgnLCAnLW1hJywgJzIwMCcsICctbWV0YWxfYmluZGluZycsICctaW1hZScsICc8aW5maWxlLm1hZT4nLCAnLW9tYWUnLCAnPG91dGZpbGUubWFlPic=

> <r_lp_tautomer_probability>
1

> <r_epik_Ionization_Penalty>
0.00349781

> <r_epik_Ionization_Penalty_Charging>
0

> <r_epik_Ionization_Penalty_Neutral>
0.00349781

> <r_epik_State_Penalty>
0.00248024

> <r_epik_Charging_Adjusted_Penalty>
0.00248024

> <i_epik_Tot_Q>
0

> <i_epik_Tot_abs_Q>
0

> <r_epik_Metal_State_Penalty>
-0

> <b_epik_Metal_Only>
0

> <s_lp_Force_Field>
OPLS_2005

> <r_lp_Energy>
14.1024

> <b_lp_Chiralities_Consistent>
1

> <s_lp_Variant>
AV-unprocessed.smi:1453-1

> <Gold.Version>
5.8.1

> <Gold.Id.Protein>
6NUR|6NUR_protein|mol2

> <Gold.PLP.Fitness>
40.3509

> <Gold.PLP.PLP>
-33.3706

> <Gold.PLP.part.hbond>
-2.8831

> <Gold.PLP.part.metal>
0.0000

> <Gold.PLP.part.buried>
-6.1344

> <Gold.PLP.part.nonpolar>
-25.1993

> <Gold.PLP.part.repulsive>
0.0518

> <Gold.PLP.ligand.clash>
0.0000

> <Gold.PLP.ligand.torsion>
1.0651

> <Gold.PLP.Chemscore.Hbond>
2.8613

> <Gold.PLP.Chemscore.CHOScore>
0.0000

> <Gold.PLP.Chemscore.Metal>
0.0000

> <Gold.Chemscore.Hbonds>
donor molecule, donor type, donor heavy atom, donor atom, acceptor molecule, acceptor atom, score
      P1  H  6896  6908       L1     4  1.00
      P1  H  6931  6943       L1    21  0.80
      P1  H  6934  6947       L1    22  0.90

> <Gold.PLP.Chemscore.Internal.Correction>
0.5268

> <Gold.Rescore>
     Score         DG    S(hbond)    S(metal)    S(lipo)     H(rot)  DE(clash)    DE(int)     intcor
     13.79     -17.78       2.61        0.00      75.90       2.08       0.09       3.89       ----

> <Gold.Chemscore.Fitness>
13.7880

> <Gold.Chemscore.DG>
-17.7757

> <Gold.Chemscore.ZeroCoef>
-5.4800

> <Gold.Chemscore.Hbond>
2.6142

> <Gold.Chemscore.Metal>
0.0000

> <Gold.Chemscore.Lipo>
75.8952

> <Gold.Chemscore.Internal_Hbond>
0.0000

> <Gold.Chemscore.DEClash>
0.0933

> <Gold.Chemscore.DEInternal>
3.8945

> <Gold.Chemscore.Rot>
2.0764

> <Gold.Chemscore.Internal.Correction>
   9.000000E+99

> <Gold.Chemscore.Hbonds>
donor molecule, donor type, donor heavy atom, donor atom, acceptor molecule, acceptor atom, score
      P1  H  6896  6908       L1     4  1.00
      P1  H  6931  6943       L1    21  0.79
      P1  H  6934  6947       L1    22  0.18

> <Gold.Chemscore.Hbond.Weighted>
-8.7315

> <Gold.Chemscore.Metal.Weighted>
-0.0000

> <Gold.Chemscore.Lipo.Weighted>
-8.8797

> <Gold.Chemscore.Internal_Hbond.Weighted>
0.0000

> <Gold.Chemscore.DEClash.Weighted>
0.0933

> <Gold.Chemscore.DEInternal.Weighted>
3.8945

> <Gold.Chemscore.Rot.Weighted>
5.3155

> <Gold.Chemscore.Internal.Correction.Weighted>
   9.000000E+99

> <Gold.Protein.RotatedTorsions>
[ 6907 6896 6895 6894 ] final  174.03 input  -60.11 | X-H torsion
[ 7974 7965 7964 7962 ] final -155.25 input  175.53 | X-H torsion
[ 8008 7997 7996 7995 ] final   -9.04 input   59.86 | X-H torsion
[ 10167 10162 10161 10158 ] final -128.05 input  -65.29 | X-H torsion
[ 10718 10713 10712 10709 ] final  -60.11 input   66.30 | X-H torsion
[ 10763 10752 10751 10750 ] final   29.25 input  -60.55 | X-H torsion
[ 11005 11000 10999 10996 ] final  -87.50 input  -57.11 | X-H torsion

> <Gold.Protein.ActiveResidues>
 VAL166  LYS551  ARG553  GLY616  TRP617  ASP618  TYR619  PRO620  LYS621  CYS622 
 ASP623  PHE694  ASN695  SER759  ASP760  ASP761  ALA762  ILE779  LEU786  VAL792 
 PHE793  MET794  SER795  GLU796  ALA797  LYS798  CYS799  TRP800  GLU811  SER814 

> <Gold.Protein.RotatedAtoms>
  151.7588  133.3332  159.3411 H   0  0  0  0  0  0  0  0  0  0  0  0  # atno 6907 bound_to 6896
  150.7506  134.6124  159.6102 H   0  0  0  0  0  0  0  0  0  0  0  0  # atno 6908 bound_to 6896
  152.3419  134.7125  160.0313 H   0  0  0  0  0  0  0  0  0  0  0  0  # atno 6909 bound_to 6896
  144.7649  140.4275  143.5949 H   0  0  0  0  0  0  0  0  0  0  0  0  # atno 7974 bound_to 7965
  154.5684  140.2365  155.8229 H   0  0  0  0  0  0  0  0  0  0  0  0  # atno 8008 bound_to 7997
  156.2087  140.3032  155.9642 H   0  0  0  0  0  0  0  0  0  0  0  0  # atno 8009 bound_to 7997
  155.2758  140.0420  157.3001 H   0  0  0  0  0  0  0  0  0  0  0  0  # atno 8010 bound_to 7997
  139.9544  143.6019  152.2465 H   0  0  0  0  0  0  0  0  0  0  0  0  # atno 10167 bound_to 10162
  156.1014  130.4186  150.0808 H   0  0  0  0  0  0  0  0  0  0  0  0  # atno 10718 bound_to 10713
  153.0442  135.6493  154.0861 H   0  0  0  0  0  0  0  0  0  0  0  0  # atno 10763 bound_to 10752
  154.0562  135.2891  155.3334 H   0  0  0  0  0  0  0  0  0  0  0  0  # atno 10764 bound_to 10752
  154.6687  135.5364  153.8176 H   0  0  0  0  0  0  0  0  0  0  0  0  # atno 10765 bound_to 10752
  141.1616  133.7515  156.9316 H   0  0  0  0  0  0  0  0  0  0  0  0  # atno 11005 bound_to 11000
  145.6501  139.1563  143.2867 LP  0  0  0  0  0  0  0  0  0  0  0  0  # atno 17320 bound_to 7965
  146.1747  140.6591  142.9217 LP  0  0  0  0  0  0  0  0  0  0  0  0  # atno 17321 bound_to 7965
  139.6603  144.7662  151.1976 LP  0  0  0  0  0  0  0  0  0  0  0  0  # atno 17342 bound_to 10162
  140.7573  143.6021  150.8689 LP  0  0  0  0  0  0  0  0  0  0  0  0  # atno 17343 bound_to 10162
  156.8794  130.9551  151.3601 LP  0  0  0  0  0  0  0  0  0  0  0  0  # atno 17370 bound_to 10713
  157.6184  130.8636  149.9068 LP  0  0  0  0  0  0  0  0  0  0  0  0  # atno 17371 bound_to 10713
  140.1383  134.9311  157.2431 LP  0  0  0  0  0  0  0  0  0  0  0  0  # atno 17394 bound_to 11000
  140.2868  134.3286  155.7326 LP  0  0  0  0  0  0  0  0  0  0  0  0  # atno 17395 bound_to 11000

$$$$
