AV-unprocessed.smi:2253|AV-procd|sdf|9120|dock7
  -GOLD-   2272012323D 1   1.00000     0.00000
 Structure written by MMmdl.
 51 53  0  0  0  0  0  0  0  0  2 V2000
  146.4276  134.0608  155.6139 C   0  0  0  0  0  0  0  0  0  0  0  0
  145.8008  135.0813  154.7468 N   0  3  2  0  0  0  0  0  0  0  0  0
  146.7655  135.6773  153.7898 C   0  0  0  0  0  0  0  0  0  0  0  0
  146.0710  136.6816  152.8524 C   0  0  0  0  0  0  0  0  0  0  0  0
  145.3649  137.8148  153.6406 C   0  0  2  0  0  0  0  0  0  0  0  0
  146.2976  138.7336  154.3339 N   0  0  0  0  0  0  0  0  0  0  0  0
  145.5713  139.7389  155.1282 C   0  0  0  0  0  0  0  0  0  0  0  0
  146.5304  140.6396  155.9250 C   0  0  0  0  0  0  0  0  0  0  0  0
  147.4956  141.3780  154.9905 C   0  0  0  0  0  0  0  0  0  0  0  0
  148.4823  142.1409  155.7495 N   0  0  0  0  0  0  0  0  0  0  0  0
  149.3576  141.6182  156.6205 C   0  0  0  0  0  0  0  0  0  0  0  0
  149.4244  140.4150  156.8691 O   0  0  0  0  0  0  0  0  0  0  0  0
  150.1250  142.5775  157.1672 N   0  0  0  0  0  0  0  0  0  0  0  0
  151.1525  142.4745  158.1471 C   0  0  0  0  0  0  0  0  0  0  0  0
  151.6434  141.2576  158.6819 C   0  0  0  0  0  0  0  0  0  0  0  0
  152.6688  141.3088  159.6478 C   0  0  0  0  0  0  0  0  0  0  0  0
  153.2164  142.4590  160.0930 N   0  0  0  0  0  0  0  0  0  0  0  0
  152.7513  143.6163  159.5780 C   0  0  0  0  0  0  0  0  0  0  0  0
  151.7295  143.6769  158.6093 C   0  0  0  0  0  0  0  0  0  0  0  0
  151.3102  144.8749  158.1344 F   0  0  0  0  0  0  0  0  0  0  0  0
  148.1944  140.3389  154.1104 C   0  0  0  0  0  0  0  0  0  0  0  0
  147.1715  139.4460  153.3862 C   0  0  0  0  0  0  0  0  0  0  0  0
  144.3645  137.1154  154.5966 C   0  0  0  0  0  0  0  0  0  0  0  0
  145.0685  136.1101  155.5259 C   0  0  0  0  0  0  0  0  0  0  0  0
  147.1952  134.5052  156.2489 H   0  0  0  0  0  0  0  0  0  0  0  0
  146.8918  133.2776  155.0138 H   0  0  0  0  0  0  0  0  0  0  0  0
  145.6825  133.5902  156.2560 H   0  0  0  0  0  0  0  0  0  0  0  0
  147.5724  136.1676  154.3366 H   0  0  0  0  0  0  0  0  0  0  0  0
  147.2219  134.8834  153.1972 H   0  0  0  0  0  0  0  0  0  0  0  0
  146.7613  137.0498  152.0964 H   0  0  0  0  0  0  0  0  0  0  0  0
  145.3169  136.1429  152.2766 H   0  0  0  0  0  0  0  0  0  0  0  0
  144.7938  138.4138  152.9292 H   0  0  0  0  0  0  0  0  0  0  0  0
  144.9371  140.3430  154.4773 H   0  0  0  0  0  0  0  0  0  0  0  0
  144.9210  139.2691  155.8611 H   0  0  0  0  0  0  0  0  0  0  0  0
  145.9545  141.3559  156.5119 H   0  0  0  0  0  0  0  0  0  0  0  0
  147.0890  140.0331  156.6397 H   0  0  0  0  0  0  0  0  0  0  0  0
  146.9299  142.0543  154.3465 H   0  0  0  0  0  0  0  0  0  0  0  0
  148.4936  143.1398  155.6047 H   0  0  0  0  0  0  0  0  0  0  0  0
  149.9271  143.5196  156.8632 H   0  0  0  0  0  0  0  0  0  0  0  0
  151.2696  140.2930  158.3788 H   0  0  0  0  0  0  0  0  0  0  0  0
  153.0617  140.3972  160.0729 H   0  0  0  0  0  0  0  0  0  0  0  0
  153.2070  144.5225  159.9487 H   0  0  0  0  0  0  0  0  0  0  0  0
  148.8286  140.8385  153.3770 H   0  0  0  0  0  0  0  0  0  0  0  0
  148.8542  139.7152  154.7160 H   0  0  0  0  0  0  0  0  0  0  0  0
  147.7531  138.7482  152.7894 H   0  0  0  0  0  0  0  0  0  0  0  0
  146.5703  140.0392  152.6952 H   0  0  0  0  0  0  0  0  0  0  0  0
  143.7575  137.8118  155.1705 H   0  0  0  0  0  0  0  0  0  0  0  0
  143.6371  136.5697  153.9937 H   0  0  0  0  0  0  0  0  0  0  0  0
  144.3273  135.6220  156.1597 H   0  0  0  0  0  0  0  0  0  0  0  0
  145.7591  136.6308  156.1913 H   0  0  0  0  0  0  0  0  0  0  0  0
  145.1089  134.5994  154.1906 H   0  0  0  0  0  0  0  0  0  0  0  0
  1  2  1  0  0  0  0
  1 25  1  0  0  0  0
  1 26  1  0  0  0  0
  1 27  1  0  0  0  0
  2 24  1  0  0  0  0
  2  3  1  0  0  0  0
  2 51  1  0  0  0  0
  3  4  1  0  0  0  0
  3 28  1  0  0  0  0
  3 29  1  0  0  0  0
  4  5  1  0  0  0  0
  4 30  1  0  0  0  0
  4 31  1  0  0  0  0
  5  6  1  0  0  0  0
  5 23  1  0  0  0  0
  5 32  1  0  0  0  0
  6 22  1  0  0  0  0
  6  7  1  0  0  0  0
  7  8  1  0  0  0  0
  7 33  1  0  0  0  0
  7 34  1  0  0  0  0
  8  9  1  0  0  0  0
  8 35  1  0  0  0  0
  8 36  1  0  0  0  0
  9 10  1  0  0  0  0
  9 21  1  0  0  0  0
  9 37  1  0  0  0  0
 10 11  1  0  0  0  0
 10 38  1  0  0  0  0
 11 12  2  0  0  0  0
 11 13  1  0  0  0  0
 13 14  1  0  0  0  0
 13 39  1  0  0  0  0
 14 19  1  0  0  0  0
 14 15  2  0  0  0  0
 15 16  1  0  0  0  0
 15 40  1  0  0  0  0
 16 17  2  0  0  0  0
 16 41  1  0  0  0  0
 17 18  1  0  0  0  0
 18 19  2  0  0  0  0
 18 42  1  0  0  0  0
 19 20  1  0  0  0  0
 21 22  1  0  0  0  0
 21 43  1  0  0  0  0
 21 44  1  0  0  0  0
 22 45  1  0  0  0  0
 22 46  1  0  0  0  0
 23 24  1  0  0  0  0
 23 47  1  0  0  0  0
 23 48  1  0  0  0  0
 24 49  1  0  0  0  0
 24 50  1  0  0  0  0
M  CHG  1   2   1
M  END
> <s_m_source_file>
AV-unprocessed.smi

> <i_m_source_file_index>
2253

> <i_lp_mmshare_version>
43012

> <i_f3d_flags>
0

> <s_epik_input>
W0NIM11OMVtDSDJdW0NIMl1bQ0hdKFtDSDJdW0NIMl0xKU4yW0NIMl1bQ0gyXVtDSF0oW0NIMl1bQ0gyXTIpW05IXUMoPU8pW05IXWMzW2NIXVtjSF1uW2NIXWMzRg==

> <s_epik_cmdline>
J2VwaWtfcHl0aG9uJywgJy1waCcsICc3LjAnLCAnLXRuJywgJzgnLCAnLW1hJywgJzIwMCcsICctbWV0YWxfYmluZGluZycsICctaW1hZScsICc8aW5maWxlLm1hZT4nLCAnLW9tYWUnLCAnPG91dGZpbGUubWFlPic=

> <r_epik_Ionization_Penalty>
1.01315

> <r_epik_Ionization_Penalty_Charging>
0.000974969

> <r_epik_Ionization_Penalty_Neutral>
1.01217

> <r_epik_State_Penalty>
1.10286

> <r_epik_Charging_Adjusted_Penalty>
1.10383

> <i_epik_Tot_Q>
1

> <i_epik_Tot_abs_Q>
1

> <r_epik_Metal_State_Penalty>
1.10232

> <b_epik_Metal_Only>
0

> <s_lp_Force_Field>
OPLS_2005

> <r_lp_Energy>
40.3277

> <b_lp_Chiralities_Consistent>
1

> <s_lp_Variant>
AV-unprocessed.smi:2253-6

> <Gold.Version>
5.8.1

> <Gold.Id.Protein>
6NUR|6NUR_protein|mol2

> <Gold.PLP.Fitness>
36.9597

> <Gold.PLP.PLP>
-31.1894

> <Gold.PLP.part.hbond>
-2.0000

> <Gold.PLP.part.metal>
0.0000

> <Gold.PLP.part.buried>
-4.9517

> <Gold.PLP.part.nonpolar>
-24.9077

> <Gold.PLP.part.repulsive>
0.2546

> <Gold.PLP.ligand.clash>
0.0000

> <Gold.PLP.ligand.torsion>
0.0194

> <Gold.PLP.Chemscore.Hbond>
1.9357

> <Gold.PLP.Chemscore.CHOScore>
0.0000

> <Gold.PLP.Chemscore.Metal>
0.0000

> <Gold.Chemscore.Hbonds>
donor molecule, donor type, donor heavy atom, donor atom, acceptor molecule, acceptor atom, score
      L1  H    10    38       P1  8028  1.00
      L1  H    13    39       P1  8028  0.98

> <Gold.PLP.Chemscore.Internal.Correction>
0.0018

> <Gold.Rescore>
     Score         DG    S(hbond)    S(metal)    S(lipo)     H(rot)  DE(clash)    DE(int)     intcor
     15.72     -18.01       1.95        0.00      78.70       1.24       0.05       2.24       ----

> <Gold.Chemscore.Fitness>
15.7229

> <Gold.Chemscore.DG>
-18.0148

> <Gold.Chemscore.ZeroCoef>
-5.4800

> <Gold.Chemscore.Hbond>
1.9496

> <Gold.Chemscore.Metal>
0.0000

> <Gold.Chemscore.Lipo>
78.6993

> <Gold.Chemscore.Internal_Hbond>
0.0000

> <Gold.Chemscore.DEClash>
0.0515

> <Gold.Chemscore.DEInternal>
2.2403

> <Gold.Chemscore.Rot>
1.2440

> <Gold.Chemscore.Internal.Correction>
   9.000000E+99

> <Gold.Chemscore.Hbonds>
donor molecule, donor type, donor heavy atom, donor atom, acceptor molecule, acceptor atom, score
      L1  H    10    38       P1  8028  0.98
      L1  H    13    39       P1  8028  0.91

> <Gold.Chemscore.Hbond.Weighted>
-6.5116

> <Gold.Chemscore.Metal.Weighted>
-0.0000

> <Gold.Chemscore.Lipo.Weighted>
-9.2078

> <Gold.Chemscore.Internal_Hbond.Weighted>
0.0000

> <Gold.Chemscore.DEClash.Weighted>
0.0515

> <Gold.Chemscore.DEInternal.Weighted>
2.2403

> <Gold.Chemscore.Rot.Weighted>
3.1847

> <Gold.Chemscore.Internal.Correction.Weighted>
   9.000000E+99

> <Gold.Protein.RotatedTorsions>
[ 6907 6896 6895 6894 ] final    4.80 input  -60.11 | X-H torsion
[ 7974 7965 7964 7962 ] final   63.15 input  175.53 | X-H torsion
[ 8008 7997 7996 7995 ] final   20.09 input   59.86 | X-H torsion
[ 10167 10162 10161 10158 ] final  -12.20 input  -65.29 | X-H torsion
[ 10718 10713 10712 10709 ] final  -50.51 input   66.30 | X-H torsion
[ 10763 10752 10751 10750 ] final  -79.12 input  -60.55 | X-H torsion
[ 11005 11000 10999 10996 ] final  -50.97 input  -57.11 | X-H torsion

> <Gold.Protein.ActiveResidues>
 VAL166  LYS551  ARG553  GLY616  TRP617  ASP618  TYR619  PRO620  LYS621  CYS622 
 ASP623  PHE694  ASN695  SER759  ASP760  ASP761  ALA762  ILE779  LEU786  VAL792 
 PHE793  MET794  SER795  GLU796  ALA797  LYS798  CYS799  TRP800  GLU811  SER814 

> <Gold.Protein.RotatedAtoms>
  151.6471  135.1006  160.0152 H   0  0  0  0  0  0  0  0  0  0  0  0  # atno 6907 bound_to 6896
  152.4021  133.6830  159.6334 H   0  0  0  0  0  0  0  0  0  0  0  0  # atno 6908 bound_to 6896
  150.7920  133.8689  159.3294 H   0  0  0  0  0  0  0  0  0  0  0  0  # atno 6909 bound_to 6896
  145.8652  139.3341  143.0795 H   0  0  0  0  0  0  0  0  0  0  0  0  # atno 7974 bound_to 7965
  154.9305  140.3039  155.5170 H   0  0  0  0  0  0  0  0  0  0  0  0  # atno 8008 bound_to 7997
  156.3004  140.2355  156.4301 H   0  0  0  0  0  0  0  0  0  0  0  0  # atno 8009 bound_to 7997
  154.8242  140.0422  157.1421 H   0  0  0  0  0  0  0  0  0  0  0  0  # atno 8010 bound_to 7997
  140.7156  143.5558  150.9251 H   0  0  0  0  0  0  0  0  0  0  0  0  # atno 10167 bound_to 10162
  156.1794  130.4150  149.9529 H   0  0  0  0  0  0  0  0  0  0  0  0  # atno 10718 bound_to 10713
  154.5346  135.5706  153.6788 H   0  0  0  0  0  0  0  0  0  0  0  0  # atno 10763 bound_to 10752
  152.9948  135.6213  154.2583 H   0  0  0  0  0  0  0  0  0  0  0  0  # atno 10764 bound_to 10752
  154.2511  135.2859  155.2796 H   0  0  0  0  0  0  0  0  0  0  0  0  # atno 10765 bound_to 10752
  141.0845  133.6645  156.3809 H   0  0  0  0  0  0  0  0  0  0  0  0  # atno 11005 bound_to 11000
  145.9202  140.9120  143.0409 LP  0  0  0  0  0  0  0  0  0  0  0  0  # atno 17320 bound_to 7965
  144.6726  140.1278  143.7445 LP  0  0  0  0  0  0  0  0  0  0  0  0  # atno 17321 bound_to 7965
  139.9282  143.6524  152.3082 LP  0  0  0  0  0  0  0  0  0  0  0  0  # atno 17342 bound_to 10162
  139.6966  144.7640  151.1346 LP  0  0  0  0  0  0  0  0  0  0  0  0  # atno 17343 bound_to 10162
  156.7304  130.9041  151.3625 LP  0  0  0  0  0  0  0  0  0  0  0  0  # atno 17370 bound_to 10713
  157.6858  130.9184  150.0382 LP  0  0  0  0  0  0  0  0  0  0  0  0  # atno 17371 bound_to 10713
  140.5393  134.6136  157.5375 LP  0  0  0  0  0  0  0  0  0  0  0  0  # atno 17394 bound_to 11000
  139.9662  134.7369  156.0133 LP  0  0  0  0  0  0  0  0  0  0  0  0  # atno 17395 bound_to 11000

$$$$
