AV-unprocessed.smi:3303|AV-procd|sdf|12687|dock6
  -GOLD-   2272019 23D 1   1.00000     0.00000
 Structure written by MMmdl.
 44 45  0  0  0  0  0  0  0  0  2 V2000
  147.1250  139.7821  152.8871 C   0  0  0  0  0  0  0  0  0  0  0  0
  147.4701  140.2550  154.3098 C   0  0  2  0  0  0  0  0  0  0  0  0
  146.2902  140.0480  155.2800 C   0  0  0  0  0  0  0  0  0  0  0  0
  145.1729  140.9941  155.0256 N   0  3  1  0  0  0  0  0  0  0  0  0
  143.9986  140.6578  155.8665 C   0  0  0  0  0  0  0  0  0  0  0  0
  145.6105  142.4177  155.1336 C   0  0  2  0  0  0  0  0  0  0  0  0
  144.4674  143.4143  154.8583 C   0  0  0  0  0  0  0  0  0  0  0  0
  146.7834  142.7029  154.1687 C   0  0  0  0  0  0  0  0  0  0  0  0
  147.9597  141.7230  154.3274 C   0  0  1  0  0  0  0  0  0  0  0  0
  148.6741  142.0393  155.5583 N   0  0  0  0  0  0  0  0  0  0  0  0
  150.0635  141.6014  155.5405 C   0  0  0  0  0  0  0  0  0  0  0  0
  150.4914  141.1214  156.9377 C   0  0  0  0  0  0  0  0  0  0  0  0
  151.2112  142.1946  157.7396 C   0  0  0  0  0  0  0  0  0  0  0  0
  151.2306  143.5321  157.2894 C   0  0  0  0  0  0  0  0  0  0  0  0
  151.9319  144.4874  158.0503 C   0  0  0  0  0  0  0  0  0  0  0  0
  152.5860  144.0709  159.2259 C   0  0  0  0  0  0  0  0  0  0  0  0
  152.5070  142.7123  159.5908 C   0  0  0  0  0  0  0  0  0  0  0  0
  151.8380  141.7886  158.8679 N   0  0  0  0  0  0  0  0  0  0  0  0
  146.2977  140.3476  152.4584 H   0  0  0  0  0  0  0  0  0  0  0  0
  146.8410  138.7292  152.8826 H   0  0  0  0  0  0  0  0  0  0  0  0
  147.9813  139.8914  152.2210 H   0  0  0  0  0  0  0  0  0  0  0  0
  148.2754  139.6018  154.6447 H   0  0  0  0  0  0  0  0  0  0  0  0
  145.9328  139.0207  155.1979 H   0  0  0  0  0  0  0  0  0  0  0  0
  146.6320  140.1713  156.3094 H   0  0  0  0  0  0  0  0  0  0  0  0
  144.1881  140.8921  156.9148 H   0  0  0  0  0  0  0  0  0  0  0  0
  143.7631  139.5954  155.7951 H   0  0  0  0  0  0  0  0  0  0  0  0
  143.1070  141.1949  155.5444 H   0  0  0  0  0  0  0  0  0  0  0  0
  145.9570  142.5834  156.1554 H   0  0  0  0  0  0  0  0  0  0  0  0
  144.8397  144.4392  154.8490 H   0  0  0  0  0  0  0  0  0  0  0  0
  143.6940  143.3742  155.6251 H   0  0  0  0  0  0  0  0  0  0  0  0
  143.9987  143.2262  153.8919 H   0  0  0  0  0  0  0  0  0  0  0  0
  146.4186  142.6476  153.1421 H   0  0  0  0  0  0  0  0  0  0  0  0
  147.1354  143.7276  154.2974 H   0  0  0  0  0  0  0  0  0  0  0  0
  148.6491  141.8914  153.4984 H   0  0  0  0  0  0  0  0  0  0  0  0
  148.6503  143.0349  155.7288 H   0  0  0  0  0  0  0  0  0  0  0  0
  150.2193  140.7970  154.8228 H   0  0  0  0  0  0  0  0  0  0  0  0
  150.6886  142.4365  155.2230 H   0  0  0  0  0  0  0  0  0  0  0  0
  149.6100  140.8027  157.4952 H   0  0  0  0  0  0  0  0  0  0  0  0
  151.1291  140.2398  156.8552 H   0  0  0  0  0  0  0  0  0  0  0  0
  150.7245  143.8202  156.3795 H   0  0  0  0  0  0  0  0  0  0  0  0
  151.9693  145.5202  157.7365 H   0  0  0  0  0  0  0  0  0  0  0  0
  153.1338  144.7756  159.8337 H   0  0  0  0  0  0  0  0  0  0  0  0
  152.9968  142.3570  160.4853 H   0  0  0  0  0  0  0  0  0  0  0  0
  144.8890  140.8484  154.0673 H   0  0  0  0  0  0  0  0  0  0  0  0
  1  2  1  0  0  0  0
  1 19  1  0  0  0  0
  1 20  1  0  0  0  0
  1 21  1  0  0  0  0
  2  9  1  0  0  0  0
  2  3  1  0  0  0  0
  2 22  1  0  0  0  0
  3  4  1  0  0  0  0
  3 23  1  0  0  0  0
  3 24  1  0  0  0  0
  4  5  1  0  0  0  0
  4  6  1  0  0  0  0
  4 44  1  0  0  0  0
  5 25  1  0  0  0  0
  5 26  1  0  0  0  0
  5 27  1  0  0  0  0
  6  7  1  0  0  0  0
  6  8  1  0  0  0  0
  6 28  1  0  0  0  0
  7 29  1  0  0  0  0
  7 30  1  0  0  0  0
  7 31  1  0  0  0  0
  8  9  1  0  0  0  0
  8 32  1  0  0  0  0
  8 33  1  0  0  0  0
  9 10  1  0  0  0  0
  9 34  1  0  0  0  0
 10 11  1  0  0  0  0
 10 35  1  0  0  0  0
 11 12  1  0  0  0  0
 11 36  1  0  0  0  0
 11 37  1  0  0  0  0
 12 13  1  0  0  0  0
 12 38  1  0  0  0  0
 12 39  1  0  0  0  0
 13 18  1  0  0  0  0
 13 14  2  0  0  0  0
 14 15  1  0  0  0  0
 14 40  1  0  0  0  0
 15 16  2  0  0  0  0
 15 41  1  0  0  0  0
 16 17  1  0  0  0  0
 16 42  1  0  0  0  0
 17 18  2  0  0  0  0
 17 43  1  0  0  0  0
M  CHG  1   4   1
M  END
> <s_m_source_file>
AV-unprocessed.smi

> <i_m_source_file_index>
3303

> <i_lp_mmshare_version>
43012

> <i_f3d_flags>
0

> <s_epik_input>
W0NIM11bQ0BASF0xW0NIMl1OKFtDSDNdKVtDQEBIXShbQ0gzXSlbQ0gyXVtDQEhdMVtOSF1bQ0gyXVtDSDJdYzJbY0hdW2NIXVtjSF1bY0hdbjI=

> <s_epik_cmdline>
J2VwaWtfcHl0aG9uJywgJy1waCcsICc3LjAnLCAnLXRuJywgJzgnLCAnLW1hJywgJzIwMCcsICctbWV0YWxfYmluZGluZycsICctaW1hZScsICc8aW5maWxlLm1hZT4nLCAnLW9tYWUnLCAnPG91dGZpbGUubWFlPic=

> <r_epik_Ionization_Penalty>
2.31085

> <r_epik_Ionization_Penalty_Charging>
0.000313057

> <r_epik_Ionization_Penalty_Neutral>
2.31054

> <r_epik_State_Penalty>
2.4087

> <r_epik_Charging_Adjusted_Penalty>
2.40902

> <i_epik_Tot_Q>
1

> <i_epik_Tot_abs_Q>
1

> <r_epik_Metal_State_Penalty>
2.30979

> <b_epik_Metal_Only>
0

> <s_lp_Force_Field>
OPLS_2005

> <r_lp_Energy>
26.8033

> <b_lp_Chiralities_Consistent>
1

> <s_lp_Variant>
AV-unprocessed.smi:3303-31

> <Gold.Version>
5.8.1

> <Gold.Id.Protein>
6NUR|6NUR_protein|mol2

> <Gold.PLP.Fitness>
46.8642

> <Gold.PLP.PLP>
-39.5416

> <Gold.PLP.part.hbond>
-2.0000

> <Gold.PLP.part.metal>
0.0000

> <Gold.PLP.part.buried>
-2.9578

> <Gold.PLP.part.nonpolar>
-35.2886

> <Gold.PLP.part.repulsive>
0.0000

> <Gold.PLP.ligand.clash>
0.0000

> <Gold.PLP.ligand.torsion>
0.8494

> <Gold.PLP.Chemscore.Hbond>
3.0000

> <Gold.PLP.Chemscore.CHOScore>
0.0000

> <Gold.PLP.Chemscore.Metal>
0.0000

> <Gold.Chemscore.Hbonds>
donor molecule, donor type, donor heavy atom, donor atom, acceptor molecule, acceptor atom, score
      L1  H     4    44       P1 10175  2.00
      L1  H    10    35       P1  8028  1.00

> <Gold.PLP.Chemscore.Internal.Correction>
0.0214

> <Gold.Rescore>
     Score         DG    S(hbond)    S(metal)    S(lipo)     H(rot)  DE(clash)    DE(int)     intcor
     20.57     -21.59       1.95        0.00     110.94       1.33       0.03       0.99       ----

> <Gold.Chemscore.Fitness>
20.5676

> <Gold.Chemscore.DG>
-21.5900

> <Gold.Chemscore.ZeroCoef>
-5.4800

> <Gold.Chemscore.Hbond>
1.9544

> <Gold.Chemscore.Metal>
0.0000

> <Gold.Chemscore.Lipo>
110.9397

> <Gold.Chemscore.Internal_Hbond>
0.0000

> <Gold.Chemscore.DEClash>
0.0304

> <Gold.Chemscore.DEInternal>
0.9920

> <Gold.Chemscore.Rot>
1.3272

> <Gold.Chemscore.Internal.Correction>
   9.000000E+99

> <Gold.Chemscore.Hbonds>
donor molecule, donor type, donor heavy atom, donor atom, acceptor molecule, acceptor atom, score
      L1  H     4    44       P1 10175  0.90
      L1  H    10    35       P1  8028  1.00

> <Gold.Chemscore.Hbond.Weighted>
-6.5277

> <Gold.Chemscore.Metal.Weighted>
-0.0000

> <Gold.Chemscore.Lipo.Weighted>
-12.9799

> <Gold.Chemscore.Internal_Hbond.Weighted>
0.0000

> <Gold.Chemscore.DEClash.Weighted>
0.0304

> <Gold.Chemscore.DEInternal.Weighted>
0.9920

> <Gold.Chemscore.Rot.Weighted>
3.3976

> <Gold.Chemscore.Internal.Correction.Weighted>
   9.000000E+99

> <Gold.Protein.RotatedTorsions>
[ 6907 6896 6895 6894 ] final    3.70 input  -60.11 | X-H torsion
[ 7974 7965 7964 7962 ] final  -67.40 input  175.53 | X-H torsion
[ 8008 7997 7996 7995 ] final    5.86 input   59.86 | X-H torsion
[ 10167 10162 10161 10158 ] final -165.96 input  -65.29 | X-H torsion
[ 10718 10713 10712 10709 ] final  155.15 input   66.30 | X-H torsion
[ 10763 10752 10751 10750 ] final -153.06 input  -60.55 | X-H torsion
[ 11005 11000 10999 10996 ] final  -35.08 input  -57.11 | X-H torsion

> <Gold.Protein.ActiveResidues>
 VAL166  LYS551  ARG553  GLY616  TRP617  ASP618  TYR619  PRO620  LYS621  CYS622 
 ASP623  PHE694  ASN695  SER759  ASP760  ASP761  ALA762  ILE779  LEU786  VAL792 
 PHE793  MET794  SER795  GLU796  ALA797  LYS798  CYS799  TRP800  GLU811  SER814 

> <Gold.Protein.RotatedAtoms>
  151.6293  135.1024  160.0118 H   0  0  0  0  0  0  0  0  0  0  0  0  # atno 6907 bound_to 6896
  152.4115  133.6966  159.6410 H   0  0  0  0  0  0  0  0  0  0  0  0  # atno 6908 bound_to 6896
  150.8005  133.8533  159.3252 H   0  0  0  0  0  0  0  0  0  0  0  0  # atno 6909 bound_to 6896
  145.7296  140.9002  143.0587 H   0  0  0  0  0  0  0  0  0  0  0  0  # atno 7974 bound_to 7965
  154.7337  140.2735  155.6434 H   0  0  0  0  0  0  0  0  0  0  0  0  # atno 8008 bound_to 7997
  156.2856  140.2711  156.1969 H   0  0  0  0  0  0  0  0  0  0  0  0  # atno 8009 bound_to 7997
  155.0349  140.0371  157.2477 H   0  0  0  0  0  0  0  0  0  0  0  0  # atno 8010 bound_to 7997
  139.6147  144.0744  152.1876 H   0  0  0  0  0  0  0  0  0  0  0  0  # atno 10167 bound_to 10162
  157.2222  131.0721  151.1905 H   0  0  0  0  0  0  0  0  0  0  0  0  # atno 10718 bound_to 10713
  154.7953  135.3221  154.7681 H   0  0  0  0  0  0  0  0  0  0  0  0  # atno 10763 bound_to 10752
  153.8361  135.6875  153.4813 H   0  0  0  0  0  0  0  0  0  0  0  0  # atno 10764 bound_to 10752
  153.1641  135.4649  154.9755 H   0  0  0  0  0  0  0  0  0  0  0  0  # atno 10765 bound_to 10752
  140.9768  133.7078  156.1615 H   0  0  0  0  0  0  0  0  0  0  0  0  # atno 11005 bound_to 11000
  144.6896  139.9313  143.7472 LP  0  0  0  0  0  0  0  0  0  0  0  0  # atno 17320 bound_to 7965
  146.0550  139.3547  143.0616 LP  0  0  0  0  0  0  0  0  0  0  0  0  # atno 17321 bound_to 7965
  140.0371  144.6036  150.7441 LP  0  0  0  0  0  0  0  0  0  0  0  0  # atno 17342 bound_to 10162
  140.7343  143.2727  151.3838 LP  0  0  0  0  0  0  0  0  0  0  0  0  # atno 17343 bound_to 10162
  157.3564  130.7108  149.6473 LP  0  0  0  0  0  0  0  0  0  0  0  0  # atno 17370 bound_to 10713
  155.9681  130.4238  150.4578 LP  0  0  0  0  0  0  0  0  0  0  0  0  # atno 17371 bound_to 10713
  140.7247  134.4320  157.5571 LP  0  0  0  0  0  0  0  0  0  0  0  0  # atno 17394 bound_to 11000
  139.8934  134.8732  156.2227 LP  0  0  0  0  0  0  0  0  0  0  0  0  # atno 17395 bound_to 11000

$$$$
