AV-unprocessed.smi:189|AV-procd|sdf|1478|dock2
  -GOLD-   2262019293D 1   1.00000     0.00000
 Structure written by MMmdl.
 53 57  0  0  0  0  0  0  0  0  1 V2000
  154.0688  139.5995  159.4091 C   0  0  0  0  0  0  0  0  0  0  0  0
  152.8258  140.4828  159.5895 C   0  0  1  0  0  0  0  0  0  0  0  0
  152.8545  141.3445  160.8754 C   0  0  0  0  0  0  0  0  0  0  0  0
  152.7213  142.7749  160.3534 C   0  0  2  0  0  0  0  0  0  0  0  0
  152.0032  143.8181  161.2178 C   0  0  0  0  0  0  0  0  0  0  0  0
  151.9168  145.1465  160.4353 C   0  0  0  0  0  0  0  0  0  0  0  0
  151.2864  144.9690  159.0338 C   0  0  0  0  0  0  0  0  0  0  0  0
  151.9685  143.8517  158.2161 C   0  0  0  0  0  0  0  0  0  0  0  0
  151.9740  142.5611  159.0490 C   0  0  1  0  0  0  0  0  0  0  0  0
  152.6503  141.4139  158.4710 N   0  0  0  0  0  0  0  0  0  0  0  0
  152.0842  140.8969  157.3578 C   0  0  0  0  0  0  0  0  0  0  0  0
  152.7707  139.9128  156.7280 N   0  0  0  0  0  0  0  0  0  0  0  0
  152.2750  139.3570  155.6184 C   0  0  0  0  0  0  0  0  0  0  0  0
  151.1331  139.6320  154.9847 N   0  0  0  0  0  0  0  0  0  0  0  0
  150.4386  140.6200  155.6189 C   0  0  0  0  0  0  0  0  0  0  0  0
  150.8387  141.3056  156.8003 C   0  0  0  0  0  0  0  0  0  0  0  0
  149.8798  142.2509  157.1456 N   0  0  0  0  0  0  0  0  0  0  0  0
  148.9651  142.1290  156.2233 C   0  0  0  0  0  0  0  0  0  0  0  0
  149.2158  141.1669  155.2710 N   0  0  0  0  0  0  0  0  0  0  0  0
  148.3701  140.8175  154.1404 C   0  0  0  0  0  0  0  0  0  0  0  0
  148.1640  139.2935  153.9747 C   0  0  1  0  0  0  0  0  0  0  0  0
  149.3538  138.7170  153.4646 O   0  0  0  0  0  0  0  0  0  0  0  0
  147.7926  138.5698  155.2665 C   0  0  0  0  0  0  0  0  0  0  0  0
  146.8853  137.4482  154.7809 C   0  0  0  0  0  0  0  0  0  0  0  0
  146.1320  138.0833  153.7627 O   0  0  0  0  0  0  0  0  0  0  0  0
  147.0026  138.9354  153.0257 C   0  0  0  0  0  0  0  0  0  0  0  0
  154.1911  138.9219  160.2540 H   0  0  0  0  0  0  0  0  0  0  0  0
  154.9735  140.2029  159.3298 H   0  0  0  0  0  0  0  0  0  0  0  0
  153.9930  138.9913  158.5073 H   0  0  0  0  0  0  0  0  0  0  0  0
  151.9590  139.8241  159.6511 H   0  0  0  0  0  0  0  0  0  0  0  0
  152.0092  141.0847  161.5138 H   0  0  0  0  0  0  0  0  0  0  0  0
  153.7659  141.2131  161.4595 H   0  0  0  0  0  0  0  0  0  0  0  0
  153.7259  143.1403  160.1293 H   0  0  0  0  0  0  0  0  0  0  0  0
  151.0015  143.4703  161.4736 H   0  0  0  0  0  0  0  0  0  0  0  0
  152.5369  143.9664  162.1569 H   0  0  0  0  0  0  0  0  0  0  0  0
  151.3475  145.8786  161.0084 H   0  0  0  0  0  0  0  0  0  0  0  0
  152.9197  145.5603  160.3235 H   0  0  0  0  0  0  0  0  0  0  0  0
  150.2279  144.7315  159.1473 H   0  0  0  0  0  0  0  0  0  0  0  0
  151.3306  145.9100  158.4850 H   0  0  0  0  0  0  0  0  0  0  0  0
  151.4395  143.7006  157.2746 H   0  0  0  0  0  0  0  0  0  0  0  0
  152.9888  144.1425  157.9621 H   0  0  0  0  0  0  0  0  0  0  0  0
  150.9416  142.2872  159.2724 H   0  0  0  0  0  0  0  0  0  0  0  0
  152.8799  138.5801  155.1750 H   0  0  0  0  0  0  0  0  0  0  0  0
  148.0740  142.7395  156.2151 H   0  0  0  0  0  0  0  0  0  0  0  0
  147.4077  141.3132  154.2739 H   0  0  0  0  0  0  0  0  0  0  0  0
  148.8084  141.2411  153.2357 H   0  0  0  0  0  0  0  0  0  0  0  0
  149.6897  139.2765  152.7812 H   0  0  0  0  0  0  0  0  0  0  0  0
  148.6522  138.2135  155.8361 H   0  0  0  0  0  0  0  0  0  0  0  0
  147.2146  139.2286  155.9154 H   0  0  0  0  0  0  0  0  0  0  0  0
  147.4653  136.6273  154.3560 H   0  0  0  0  0  0  0  0  0  0  0  0
  146.2452  137.0508  155.5690 H   0  0  0  0  0  0  0  0  0  0  0  0
  146.4479  139.8142  152.6949 H   0  0  0  0  0  0  0  0  0  0  0  0
  147.3490  138.4146  152.1314 H   0  0  0  0  0  0  0  0  0  0  0  0
  1  2  1  0  0  0  0
  1 27  1  0  0  0  0
  1 28  1  0  0  0  0
  1 29  1  0  0  0  0
  2 10  1  0  0  0  0
  2  3  1  0  0  0  0
  2 30  1  0  0  0  0
  3  4  1  0  0  0  0
  3 31  1  0  0  0  0
  3 32  1  0  0  0  0
  4  9  1  0  0  0  0
  4  5  1  0  0  0  0
  4 33  1  0  0  0  0
  5  6  1  0  0  0  0
  5 34  1  0  0  0  0
  5 35  1  0  0  0  0
  6  7  1  0  0  0  0
  6 36  1  0  0  0  0
  6 37  1  0  0  0  0
  7  8  1  0  0  0  0
  7 38  1  0  0  0  0
  7 39  1  0  0  0  0
  8  9  1  0  0  0  0
  8 40  1  0  0  0  0
  8 41  1  0  0  0  0
  9 10  1  0  0  0  0
  9 42  1  0  0  0  0
 10 11  1  0  0  0  0
 11 16  1  0  0  0  0
 11 12  2  0  0  0  0
 12 13  1  0  0  0  0
 13 14  2  0  0  0  0
 13 43  1  0  0  0  0
 14 15  1  0  0  0  0
 15 19  1  0  0  0  0
 15 16  2  0  0  0  0
 16 17  1  0  0  0  0
 17 18  2  0  0  0  0
 18 19  1  0  0  0  0
 18 44  1  0  0  0  0
 19 20  1  0  0  0  0
 20 21  1  0  0  0  0
 20 45  1  0  0  0  0
 20 46  1  0  0  0  0
 21 26  1  0  0  0  0
 21 22  1  0  0  0  0
 21 23  1  0  0  0  0
 22 47  1  0  0  0  0
 23 24  1  0  0  0  0
 23 48  1  0  0  0  0
 23 49  1  0  0  0  0
 24 25  1  0  0  0  0
 24 50  1  0  0  0  0
 24 51  1  0  0  0  0
 25 26  1  0  0  0  0
 26 52  1  0  0  0  0
 26 53  1  0  0  0  0
M  END
> <s_m_source_file>
AV-unprocessed.smi

> <i_m_source_file_index>
189

> <i_lp_mmshare_version>
43012

> <i_f3d_flags>
0

> <s_epik_input>
W0NIMl0xW0NIMl1bQ0gyXVtDSDJdW0NASF0oW0NASF0xMilOKFtDQEhdKFtDSDNdKVtDSDJdMiljKG5bY0hdbjMpYyhjMzQpbltjSF1uNFtDSDJdW0NAQF01KFtPSF0pW0NIMl1bQ0gyXU9bQ0gyXTU=

> <s_epik_cmdline>
J2VwaWtfcHl0aG9uJywgJy1waCcsICc3LjAnLCAnLXRuJywgJzgnLCAnLW1hJywgJzIwMCcsICctbWV0YWxfYmluZGluZycsICctaW1hZScsICc8aW5maWxlLm1hZT4nLCAnLW9tYWUnLCAnPG91dGZpbGUubWFlPic=

> <r_lp_tautomer_probability>
1

> <r_epik_Ionization_Penalty>
0.00594261

> <r_epik_Ionization_Penalty_Charging>
0

> <r_epik_Ionization_Penalty_Neutral>
0.00594261

> <r_epik_State_Penalty>
0.00429776

> <r_epik_Charging_Adjusted_Penalty>
0.00429776

> <i_epik_Tot_Q>
0

> <i_epik_Tot_abs_Q>
0

> <r_epik_Metal_State_Penalty>
-0

> <b_epik_Metal_Only>
0

> <s_lp_Force_Field>
OPLS_2005

> <r_lp_Energy>
58.2794

> <b_lp_Chiralities_Consistent>
1

> <s_lp_Variant>
AV-unprocessed.smi:189-4

> <Gold.Version>
5.8.1

> <Gold.Id.Protein>
6NUR|6NUR_protein|mol2

> <Gold.PLP.Fitness>
56.7772

> <Gold.PLP.PLP>
-48.2587

> <Gold.PLP.part.hbond>
-4.0000

> <Gold.PLP.part.metal>
0.0000

> <Gold.PLP.part.buried>
-0.7643

> <Gold.PLP.part.nonpolar>
-44.2047

> <Gold.PLP.part.repulsive>
1.1668

> <Gold.PLP.ligand.clash>
0.0000

> <Gold.PLP.ligand.torsion>
0.3304

> <Gold.PLP.Chemscore.Hbond>
2.5500

> <Gold.PLP.Chemscore.CHOScore>
0.5009

> <Gold.PLP.Chemscore.Metal>
0.0000

> <Gold.Chemscore.Hbonds>
donor molecule, donor type, donor heavy atom, donor atom, acceptor molecule, acceptor atom, score
      L1  H    22    47       P1  7957  1.00
      P1  H  7989  7998       L1    14  0.60
      P1  H  7997  8008       L1    12  1.00
      L1  C    18    44       P1  8028  0.46

> <Gold.PLP.Chemscore.Internal.Correction>
0.0267

> <Gold.Rescore>
     Score         DG    S(hbond)    S(metal)    S(lipo)     H(rot)  DE(clash)    DE(int)     intcor
     14.40     -20.02       1.65        0.00     121.60       2.03       1.73       3.89       ----

> <Gold.Chemscore.Fitness>
14.3981

> <Gold.Chemscore.DG>
-20.0189

> <Gold.Chemscore.ZeroCoef>
-5.4800

> <Gold.Chemscore.Hbond>
1.6490

> <Gold.Chemscore.Metal>
0.0000

> <Gold.Chemscore.Lipo>
121.5996

> <Gold.Chemscore.Internal_Hbond>
0.0000

> <Gold.Chemscore.DEClash>
1.7294

> <Gold.Chemscore.DEInternal>
3.8914

> <Gold.Chemscore.Rot>
2.0297

> <Gold.Chemscore.Internal.Correction>
   9.000000E+99

> <Gold.Chemscore.Hbonds>
donor molecule, donor type, donor heavy atom, donor atom, acceptor molecule, acceptor atom, score
      L1  H    22    47       P1  7957  0.96
      P1  H  7989  7998       L1    14  0.02
      P1  H  7997  8008       L1    12  0.24

> <Gold.Chemscore.Hbond.Weighted>
-5.5077

> <Gold.Chemscore.Metal.Weighted>
-0.0000

> <Gold.Chemscore.Lipo.Weighted>
-14.2272

> <Gold.Chemscore.Internal_Hbond.Weighted>
0.0000

> <Gold.Chemscore.DEClash.Weighted>
1.7294

> <Gold.Chemscore.DEInternal.Weighted>
3.8914

> <Gold.Chemscore.Rot.Weighted>
5.1960

> <Gold.Chemscore.Internal.Correction.Weighted>
   9.000000E+99

> <Gold.Protein.RotatedTorsions>
[ 6907 6896 6895 6894 ] final -151.47 input  -60.11 | X-H torsion
[ 7974 7965 7964 7962 ] final   -5.28 input  175.53 | X-H torsion
[ 8008 7997 7996 7995 ] final  -36.44 input   59.86 | X-H torsion
[ 10167 10162 10161 10158 ] final   -2.30 input  -65.29 | X-H torsion
[ 10718 10713 10712 10709 ] final   90.28 input   66.30 | X-H torsion
[ 10763 10752 10751 10750 ] final  122.10 input  -60.55 | X-H torsion
[ 11005 11000 10999 10996 ] final  -33.87 input  -57.11 | X-H torsion

> <Gold.Protein.ActiveResidues>
 VAL166  LYS551  ARG553  GLY616  TRP617  ASP618  TYR619  PRO620  LYS621  CYS622 
 ASP623  PHE694  ASN695  SER759  ASP760  ASP761  ALA762  ILE779  LEU786  VAL792 
 PHE793  MET794  SER795  GLU796  ALA797  LYS798  CYS799  TRP800  GLU811  SER814 

> <Gold.Protein.RotatedAtoms>
  151.2135  133.4542  159.2598 H   0  0  0  0  0  0  0  0  0  0  0  0  # atno 6907 bound_to 6896
  151.0953  134.9940  159.8433 H   0  0  0  0  0  0  0  0  0  0  0  0  # atno 6908 bound_to 6896
  152.5438  134.2066  159.8786 H   0  0  0  0  0  0  0  0  0  0  0  0  # atno 6909 bound_to 6896
  146.2356  140.1997  142.8333 H   0  0  0  0  0  0  0  0  0  0  0  0  # atno 7974 bound_to 7965
  154.4073  140.1630  156.2374 H   0  0  0  0  0  0  0  0  0  0  0  0  # atno 8008 bound_to 7997
  155.9230  140.3420  155.6165 H   0  0  0  0  0  0  0  0  0  0  0  0  # atno 8009 bound_to 7997
  155.7198  140.0767  157.2326 H   0  0  0  0  0  0  0  0  0  0  0  0  # atno 8010 bound_to 7997
  140.6845  143.6673  150.8215 H   0  0  0  0  0  0  0  0  0  0  0  0  # atno 10167 bound_to 10162
  157.6958  131.0365  150.3554 H   0  0  0  0  0  0  0  0  0  0  0  0  # atno 10718 bound_to 10713
  153.6244  135.3407  155.3021 H   0  0  0  0  0  0  0  0  0  0  0  0  # atno 10763 bound_to 10752
  154.8593  135.4281  154.2172 H   0  0  0  0  0  0  0  0  0  0  0  0  # atno 10764 bound_to 10752
  153.3053  135.7027  153.7238 H   0  0  0  0  0  0  0  0  0  0  0  0  # atno 10765 bound_to 10752
  140.9670  133.7131  156.1461 H   0  0  0  0  0  0  0  0  0  0  0  0  # atno 11005 bound_to 11000
  144.9792  140.8442  143.5408 LP  0  0  0  0  0  0  0  0  0  0  0  0  # atno 17320 bound_to 7965
  145.1988  139.2262  143.5203 LP  0  0  0  0  0  0  0  0  0  0  0  0  # atno 17321 bound_to 7965
  140.0378  143.5377  152.2731 LP  0  0  0  0  0  0  0  0  0  0  0  0  # atno 17342 bound_to 10162
  139.6193  144.7626  151.2776 LP  0  0  0  0  0  0  0  0  0  0  0  0  # atno 17343 bound_to 10162
  156.3997  130.3913  149.6969 LP  0  0  0  0  0  0  0  0  0  0  0  0  # atno 17370 bound_to 10713
  156.4290  130.7806  151.2825 LP  0  0  0  0  0  0  0  0  0  0  0  0  # atno 17371 bound_to 10713
  140.7385  134.4177  157.5558 LP  0  0  0  0  0  0  0  0  0  0  0  0  # atno 17394 bound_to 11000
  139.8898  134.8821  156.2402 LP  0  0  0  0  0  0  0  0  0  0  0  0  # atno 17395 bound_to 11000

$$$$
