AV-unprocessed.smi:196|AV-procd|sdf|1529|dock1
  -GOLD-   2262019383D 1   1.00000     0.00000
 Structure written by MMmdl.
 47 50  0  0  0  0  0  0  0  0  1 V2000
  152.7061  138.5214  155.8509 C   0  0  0  0  0  0  0  0  0  0  0  0
  151.2336  138.7570  155.4771 C   0  0  1  0  0  0  0  0  0  0  0  0
  151.1155  139.8384  154.5644 O   0  0  0  0  0  0  0  0  0  0  0  0
  149.8278  139.7483  153.9821 C   0  0  0  0  0  0  0  0  0  0  0  0
  149.6998  138.2611  153.6750 C   0  0  0  0  0  0  0  0  0  0  0  0
  150.4755  137.5800  154.8072 C   0  0  1  0  0  0  0  0  0  0  0  0
  151.3692  136.6429  154.2283 O   0  0  0  0  0  0  0  0  0  0  0  0
  149.5406  136.8201  155.7809 C   0  0  0  0  0  0  0  0  0  0  0  0
  148.4230  136.1649  155.1178 N   0  0  0  0  0  0  0  0  0  0  0  0
  147.2826  136.7670  154.6366 C   0  0  0  0  0  0  0  0  0  0  0  0
  146.4295  135.9644  154.0626 N   0  0  0  0  0  0  0  0  0  0  0  0
  147.0153  134.7081  154.1696 C   0  0  0  0  0  0  0  0  0  0  0  0
  146.6405  133.3976  153.7535 C   0  0  0  0  0  0  0  0  0  0  0  0
  145.4812  133.1258  153.0949 N   0  0  0  0  0  0  0  0  0  0  0  0
  145.3154  131.8136  152.4786 C   0  0  0  0  0  0  0  0  0  0  0  0
  144.5540  132.0604  151.1769 C   0  0  2  0  0  0  0  0  0  0  0  0
  145.4236  132.2720  150.1875 F   0  0  0  0  0  0  0  0  0  0  0  0
  143.7837  133.3451  151.4621 C   0  0  0  0  0  0  0  0  0  0  0  0
  144.7353  134.1553  152.3575 C   0  0  1  0  0  0  0  0  0  0  0  0
  143.9510  135.1470  153.2393 C   0  0  0  0  0  0  0  0  0  0  0  0
  143.0930  134.6664  154.1456 N   0  0  0  0  0  0  0  0  0  0  0  0
  144.1278  136.3550  153.0995 O   0  0  0  0  0  0  0  0  0  0  0  0
  147.5109  132.3887  154.0233 N   0  0  0  0  0  0  0  0  0  0  0  0
  148.6562  132.6329  154.6655 C   0  0  0  0  0  0  0  0  0  0  0  0
  149.1280  133.7966  155.1145 N   0  0  0  0  0  0  0  0  0  0  0  0
  148.2693  134.8184  154.8358 C   0  0  0  0  0  0  0  0  0  0  0  0
  143.9170  131.2258  150.8825 H   0  0  0  0  0  0  0  0  0  0  0  0
  145.4230  134.7133  151.7198 H   0  0  0  0  0  0  0  0  0  0  0  0
  152.8086  137.6804  156.5370 H   0  0  0  0  0  0  0  0  0  0  0  0
  153.1235  139.4001  156.3422 H   0  0  0  0  0  0  0  0  0  0  0  0
  153.3165  138.3172  154.9710 H   0  0  0  0  0  0  0  0  0  0  0  0
  150.6964  139.0674  156.3738 H   0  0  0  0  0  0  0  0  0  0  0  0
  149.0734  140.0667  154.7033 H   0  0  0  0  0  0  0  0  0  0  0  0
  149.7417  140.3721  153.0922 H   0  0  0  0  0  0  0  0  0  0  0  0
  148.6589  137.9432  153.6068 H   0  0  0  0  0  0  0  0  0  0  0  0
  150.1632  138.0628  152.7069 H   0  0  0  0  0  0  0  0  0  0  0  0
  151.0405  136.4013  153.3761 H   0  0  0  0  0  0  0  0  0  0  0  0
  150.1054  136.0639  156.3279 H   0  0  0  0  0  0  0  0  0  0  0  0
  149.1392  137.5009  156.5328 H   0  0  0  0  0  0  0  0  0  0  0  0
  147.1072  137.8301  154.7140 H   0  0  0  0  0  0  0  0  0  0  0  0
  146.2616  131.3040  152.2889 H   0  0  0  0  0  0  0  0  0  0  0  0
  144.7257  131.1906  153.1518 H   0  0  0  0  0  0  0  0  0  0  0  0
  143.5052  133.8778  150.5521 H   0  0  0  0  0  0  0  0  0  0  0  0
  142.8638  133.0989  151.9963 H   0  0  0  0  0  0  0  0  0  0  0  0
  142.5683  135.3029  154.7278 H   0  0  0  0  0  0  0  0  0  0  0  0
  142.9704  133.6689  154.2406 H   0  0  0  0  0  0  0  0  0  0  0  0
  149.2848  131.7728  154.8431 H   0  0  0  0  0  0  0  0  0  0  0  0
  1  2  1  0  0  0  0
  1 29  1  0  0  0  0
  1 30  1  0  0  0  0
  1 31  1  0  0  0  0
  2  6  1  0  0  0  0
  2  3  1  0  0  0  0
  2 32  1  0  0  0  0
  3  4  1  0  0  0  0
  4  5  1  0  0  0  0
  4 33  1  0  0  0  0
  4 34  1  0  0  0  0
  5  6  1  0  0  0  0
  5 35  1  0  0  0  0
  5 36  1  0  0  0  0
  6  7  1  0  0  0  0
  6  8  1  0  0  0  0
  7 37  1  0  0  0  0
  8  9  1  0  0  0  0
  8 38  1  0  0  0  0
  8 39  1  0  0  0  0
  9 26  1  0  0  0  0
  9 10  1  0  0  0  0
 10 11  2  0  0  0  0
 10 40  1  0  0  0  0
 11 12  1  0  0  0  0
 12 26  2  0  0  0  0
 12 13  1  0  0  0  0
 13 14  1  0  0  0  0
 13 23  2  0  0  0  0
 14 19  1  0  0  0  0
 14 15  1  0  0  0  0
 15 16  1  0  0  0  0
 15 41  1  0  0  0  0
 15 42  1  0  0  0  0
 16 27  1  0  0  0  0
 16 17  1  0  0  0  0
 16 18  1  0  0  0  0
 18 19  1  0  0  0  0
 18 43  1  0  0  0  0
 18 44  1  0  0  0  0
 19 28  1  0  0  0  0
 19 20  1  0  0  0  0
 20 21  1  0  0  0  0
 20 22  2  0  0  0  0
 21 45  1  0  0  0  0
 21 46  1  0  0  0  0
 23 24  1  0  0  0  0
 24 25  2  0  0  0  0
 24 47  1  0  0  0  0
 25 26  1  0  0  0  0
M  END
> <s_m_source_file>
AV-unprocessed.smi

> <i_m_source_file_index>
196

> <i_lp_mmshare_version>
43012

> <i_f3d_flags>
0

> <s_epik_input>
W0NIMl0xW0NIMl1PW0NAQEhdKFtDSDNdKVtDQEBdMShbT0hdKVtDSDJdbihbY0hdbjIpYyhjMjMpbltjSF1uYzNONFtDSDJdW0NASF0oRilbQ0gyXVtDQEhdNEMoPU8pW05IMl0=

> <s_epik_cmdline>
J2VwaWtfcHl0aG9uJywgJy1waCcsICc3LjAnLCAnLXRuJywgJzgnLCAnLW1hJywgJzIwMCcsICctbWV0YWxfYmluZGluZycsICctaW1hZScsICc8aW5maWxlLm1hZT4nLCAnLW9tYWUnLCAnPG91dGZpbGUubWFlPic=

> <r_lp_tautomer_probability>
1

> <r_epik_Ionization_Penalty>
0.000857933

> <r_epik_Ionization_Penalty_Charging>
0

> <r_epik_Ionization_Penalty_Neutral>
0.000857933

> <r_epik_State_Penalty>
0.000462053

> <r_epik_Charging_Adjusted_Penalty>
0.000462053

> <i_epik_Tot_Q>
0

> <i_epik_Tot_abs_Q>
0

> <r_epik_Metal_State_Penalty>
-0

> <b_epik_Metal_Only>
0

> <s_lp_Force_Field>
OPLS_2005

> <r_lp_Energy>
42.3272

> <b_lp_Chiralities_Consistent>
1

> <s_lp_Variant>
AV-unprocessed.smi:196-2

> <Gold.Version>
5.8.1

> <Gold.Id.Protein>
6NUR|6NUR_protein|mol2

> <Gold.PLP.Fitness>
45.0709

> <Gold.PLP.PLP>
-35.0543

> <Gold.PLP.part.hbond>
-4.3926

> <Gold.PLP.part.metal>
0.0000

> <Gold.PLP.part.buried>
-1.0618

> <Gold.PLP.part.nonpolar>
-29.0469

> <Gold.PLP.part.repulsive>
0.4218

> <Gold.PLP.ligand.clash>
0.4852

> <Gold.PLP.ligand.torsion>
0.7712

> <Gold.PLP.Chemscore.Hbond>
3.8620

> <Gold.PLP.Chemscore.CHOScore>
0.0000

> <Gold.PLP.Chemscore.Metal>
0.0000

> <Gold.Chemscore.Hbonds>
donor molecule, donor type, donor heavy atom, donor atom, acceptor molecule, acceptor atom, score
      L1  H     7    37       P1  7949  1.00
      L1  H    21    46       P1 10957  1.00
      P1  H  7989  7998       L1     3  0.70
      P1  H 10752 10765       L1     7  0.85

> <Gold.PLP.Chemscore.Internal.Correction>
0.4584

> <Gold.Rescore>
     Score         DG    S(hbond)    S(metal)    S(lipo)     H(rot)  DE(clash)    DE(int)     intcor
      9.11     -15.68       2.84        0.00      62.81       2.60       0.24       6.34       ----

> <Gold.Chemscore.Fitness>
9.1074

> <Gold.Chemscore.DG>
-15.6814

> <Gold.Chemscore.ZeroCoef>
-5.4800

> <Gold.Chemscore.Hbond>
2.8444

> <Gold.Chemscore.Metal>
0.0000

> <Gold.Chemscore.Lipo>
62.8099

> <Gold.Chemscore.Internal_Hbond>
0.0000

> <Gold.Chemscore.DEClash>
0.2383

> <Gold.Chemscore.DEInternal>
6.3357

> <Gold.Chemscore.Rot>
2.5968

> <Gold.Chemscore.Internal.Correction>
   9.000000E+99

> <Gold.Chemscore.Hbonds>
donor molecule, donor type, donor heavy atom, donor atom, acceptor molecule, acceptor atom, score
      L1  H     7    37       P1  7949  0.25
      L1  H    21    46       P1 10957  0.96
      P1  H  7989  7998       L1     3  0.07
      P1  H 10752 10765       L1     7  0.15

> <Gold.Chemscore.Hbond.Weighted>
-9.5004

> <Gold.Chemscore.Metal.Weighted>
-0.0000

> <Gold.Chemscore.Lipo.Weighted>
-7.3488

> <Gold.Chemscore.Internal_Hbond.Weighted>
0.0000

> <Gold.Chemscore.DEClash.Weighted>
0.2383

> <Gold.Chemscore.DEInternal.Weighted>
6.3357

> <Gold.Chemscore.Rot.Weighted>
6.6477

> <Gold.Chemscore.Internal.Correction.Weighted>
   9.000000E+99

> <Gold.Protein.RotatedTorsions>
[ 6907 6896 6895 6894 ] final  104.80 input  -60.11 | X-H torsion
[ 7974 7965 7964 7962 ] final  -57.51 input  175.53 | X-H torsion
[ 8008 7997 7996 7995 ] final  170.09 input   59.86 | X-H torsion
[ 10167 10162 10161 10158 ] final  -75.51 input  -65.29 | X-H torsion
[ 10718 10713 10712 10709 ] final   72.27 input   66.30 | X-H torsion
[ 10763 10752 10751 10750 ] final  151.38 input  -60.55 | X-H torsion
[ 11005 11000 10999 10996 ] final  -88.38 input  -57.11 | X-H torsion

> <Gold.Protein.ActiveResidues>
 VAL166  LYS551  ARG553  GLY616  TRP617  ASP618  TYR619  PRO620  LYS621  CYS622 
 ASP623  PHE694  ASN695  SER759  ASP760  ASP761  ALA762  ILE779  LEU786  VAL792 
 PHE793  MET794  SER795  GLU796  ALA797  LYS798  CYS799  TRP800  GLU811  SER814 

> <Gold.Protein.RotatedAtoms>
  152.5252  133.9623  159.7722 H   0  0  0  0  0  0  0  0  0  0  0  0  # atno 6907 bound_to 6896
  150.9911  133.6140  159.2715 H   0  0  0  0  0  0  0  0  0  0  0  0  # atno 6908 bound_to 6896
  151.3283  135.0841  159.9383 H   0  0  0  0  0  0  0  0  0  0  0  0  # atno 6909 bound_to 6896
  145.8502  140.8358  142.9990 H   0  0  0  0  0  0  0  0  0  0  0  0  # atno 7974 bound_to 7965
  156.1398  140.1547  156.8938 H   0  0  0  0  0  0  0  0  0  0  0  0  # atno 8008 bound_to 7997
  154.4978  140.0833  156.7771 H   0  0  0  0  0  0  0  0  0  0  0  0  # atno 8009 bound_to 7997
  155.4100  140.3418  155.4265 H   0  0  0  0  0  0  0  0  0  0  0  0  # atno 8010 bound_to 7997
  140.4936  143.2375  151.7867 H   0  0  0  0  0  0  0  0  0  0  0  0  # atno 10167 bound_to 10162
  157.6492  130.9570  150.0905 H   0  0  0  0  0  0  0  0  0  0  0  0  # atno 10718 bound_to 10713
  154.1028  135.2844  155.3248 H   0  0  0  0  0  0  0  0  0  0  0  0  # atno 10763 bound_to 10752
  154.6544  135.5357  153.7944 H   0  0  0  0  0  0  0  0  0  0  0  0  # atno 10764 bound_to 10752
  153.0373  135.6518  154.1190 H   0  0  0  0  0  0  0  0  0  0  0  0  # atno 10765 bound_to 10752
  141.1602  133.7566  156.9442 H   0  0  0  0  0  0  0  0  0  0  0  0  # atno 11005 bound_to 11000
  144.6729  140.0941  143.7464 LP  0  0  0  0  0  0  0  0  0  0  0  0  # atno 17320 bound_to 7965
  145.9367  139.2641  143.1293 LP  0  0  0  0  0  0  0  0  0  0  0  0  # atno 17321 bound_to 7965
  139.4856  144.4616  151.9534 LP  0  0  0  0  0  0  0  0  0  0  0  0  # atno 17342 bound_to 10162
  140.3704  144.2863  150.5921 LP  0  0  0  0  0  0  0  0  0  0  0  0  # atno 17343 bound_to 10162
  156.1855  130.3652  149.8978 LP  0  0  0  0  0  0  0  0  0  0  0  0  # atno 17370 bound_to 10713
  156.6920  130.8899  151.3589 LP  0  0  0  0  0  0  0  0  0  0  0  0  # atno 17371 bound_to 10713
  140.1301  134.9361  157.2325 LP  0  0  0  0  0  0  0  0  0  0  0  0  # atno 17394 bound_to 11000
  140.2964  134.3182  155.7301 LP  0  0  0  0  0  0  0  0  0  0  0  0  # atno 17395 bound_to 11000

$$$$
