AV-unprocessed.smi:2453|AV-procd|sdf|9691|dock6
  -GOLD-   2272013333D 1   1.00000     0.00000
 Structure written by MMmdl.
 41 42  0  0  0  0  0  0  0  0  2 V2000
  150.3478  139.0806  154.4658 C   0  0  0  0  0  0  0  0  0  0  0  0
  149.1361  139.9946  154.4076 C   0  0  0  0  0  0  0  0  0  0  0  0
  149.2633  141.3440  154.8042 C   0  0  0  0  0  0  0  0  0  0  0  0
  148.1965  142.1691  154.7540 N   0  3  0  0  0  0  0  0  0  0  0  0
  146.9811  141.7654  154.3301 C   0  0  0  0  0  0  0  0  0  0  0  0
  146.7872  140.4311  153.9209 C   0  0  0  0  0  0  0  0  0  0  0  0
  147.8733  139.5196  153.9683 C   0  0  0  0  0  0  0  0  0  0  0  0
  147.7628  138.1637  153.5480 N   0  0  0  0  0  0  0  0  0  0  0  0
  146.7233  137.3234  153.6906 C   0  0  0  0  0  0  0  0  0  0  0  0
  145.6749  137.5868  154.2789 O   0  0  0  0  0  0  0  0  0  0  0  0
  146.9789  136.1383  153.1168 N   0  0  0  0  0  0  0  0  0  0  0  0
  146.0708  134.9922  153.0708 C   0  0  2  0  0  0  0  0  0  0  0  0
  146.7422  133.8043  153.7892 C   0  0  0  0  0  0  0  0  0  0  0  0
  145.8808  132.5363  153.7218 C   0  0  0  0  0  0  0  0  0  0  0  0
  145.5543  132.1777  152.2671 C   0  0  0  0  0  0  0  0  0  0  0  0
  144.8615  133.3484  151.5551 C   0  0  0  0  0  0  0  0  0  0  0  0
  145.7035  134.6440  151.6036 C   0  0  1  0  0  0  0  0  0  0  0  0
  144.9690  135.8054  150.8963 C   0  0  0  0  0  0  0  0  0  0  0  0
  145.8472  136.8844  150.6535 O   0  0  0  0  0  0  0  0  0  0  0  0
  151.2263  139.6094  154.8369 H   0  0  0  0  0  0  0  0  0  0  0  0
  150.5818  138.6942  153.4734 H   0  0  0  0  0  0  0  0  0  0  0  0
  150.1573  138.2371  155.1299 H   0  0  0  0  0  0  0  0  0  0  0  0
  150.1830  141.7887  155.1563 H   0  0  0  0  0  0  0  0  0  0  0  0
  146.2061  142.5179  154.3233 H   0  0  0  0  0  0  0  0  0  0  0  0
  145.8119  140.1368  153.5648 H   0  0  0  0  0  0  0  0  0  0  0  0
  148.5937  137.7719  153.1298 H   0  0  0  0  0  0  0  0  0  0  0  0
  147.8732  136.0161  152.6645 H   0  0  0  0  0  0  0  0  0  0  0  0
  145.1445  135.2222  153.6005 H   0  0  0  0  0  0  0  0  0  0  0  0
  147.7150  133.6014  153.3387 H   0  0  0  0  0  0  0  0  0  0  0  0
  146.9334  134.0590  154.8324 H   0  0  0  0  0  0  0  0  0  0  0  0
  146.3998  131.7069  154.2029 H   0  0  0  0  0  0  0  0  0  0  0  0
  144.9563  132.6899  154.2798 H   0  0  0  0  0  0  0  0  0  0  0  0
  146.4712  131.9165  151.7371 H   0  0  0  0  0  0  0  0  0  0  0  0
  144.9162  131.2941  152.2361 H   0  0  0  0  0  0  0  0  0  0  0  0
  144.6620  133.0660  150.5210 H   0  0  0  0  0  0  0  0  0  0  0  0
  143.8890  133.5258  152.0163 H   0  0  0  0  0  0  0  0  0  0  0  0
  146.6347  134.4586  151.0646 H   0  0  0  0  0  0  0  0  0  0  0  0
  144.5372  135.4715  149.9522 H   0  0  0  0  0  0  0  0  0  0  0  0
  144.1489  136.1857  151.5046 H   0  0  0  0  0  0  0  0  0  0  0  0
  145.3425  137.6171  150.3345 H   0  0  0  0  0  0  0  0  0  0  0  0
  148.3152  143.1405  155.0432 H   0  0  0  0  0  0  0  0  0  0  0  0
  1  2  1  0  0  0  0
  1 20  1  0  0  0  0
  1 21  1  0  0  0  0
  1 22  1  0  0  0  0
  2  7  1  0  0  0  0
  2  3  2  0  0  0  0
  3  4  1  0  0  0  0
  3 23  1  0  0  0  0
  4  5  2  0  0  0  0
  4 41  1  0  0  0  0
  5  6  1  0  0  0  0
  5 24  1  0  0  0  0
  6  7  2  0  0  0  0
  6 25  1  0  0  0  0
  7  8  1  0  0  0  0
  8  9  1  0  0  0  0
  8 26  1  0  0  0  0
  9 10  2  0  0  0  0
  9 11  1  0  0  0  0
 11 12  1  0  0  0  0
 11 27  1  0  0  0  0
 12 17  1  0  0  0  0
 12 13  1  0  0  0  0
 12 28  1  0  0  0  0
 13 14  1  0  0  0  0
 13 29  1  0  0  0  0
 13 30  1  0  0  0  0
 14 15  1  0  0  0  0
 14 31  1  0  0  0  0
 14 32  1  0  0  0  0
 15 16  1  0  0  0  0
 15 33  1  0  0  0  0
 15 34  1  0  0  0  0
 16 17  1  0  0  0  0
 16 35  1  0  0  0  0
 16 36  1  0  0  0  0
 17 18  1  0  0  0  0
 17 37  1  0  0  0  0
 18 19  1  0  0  0  0
 18 38  1  0  0  0  0
 18 39  1  0  0  0  0
 19 40  1  0  0  0  0
M  CHG  1   4   1
M  END
> <s_m_source_file>
AV-unprocessed.smi

> <i_m_source_file_index>
2453

> <i_lp_mmshare_version>
43012

> <i_f3d_flags>
0

> <s_epik_input>
W0NIM11jMVtjSF1uW2NIXVtjSF1jMVtOSF1DKD1PKVtOSF1bQ0BASF0yW0NIMl1bQ0gyXVtDSDJdW0NIMl1bQ0BIXTJbQ0gyXVtPSF0=

> <s_epik_cmdline>
J2VwaWtfcHl0aG9uJywgJy1waCcsICc3LjAnLCAnLXRuJywgJzgnLCAnLW1hJywgJzIwMCcsICctbWV0YWxfYmluZGluZycsICctaW1hZScsICc8aW5maWxlLm1hZT4nLCAnLW9tYWUnLCAnPG91dGZpbGUubWFlPic=

> <r_epik_Ionization_Penalty>
0.71493

> <r_epik_Ionization_Penalty_Charging>
0.714909

> <r_epik_Ionization_Penalty_Neutral>
2.10174e-05

> <r_epik_State_Penalty>
0.738815

> <r_epik_Charging_Adjusted_Penalty>
1.45372

> <i_epik_Tot_Q>
1

> <i_epik_Tot_abs_Q>
1

> <r_epik_Metal_State_Penalty>
0.896004

> <b_epik_Metal_Only>
0

> <s_lp_Force_Field>
OPLS_2005

> <r_lp_Energy>
24.2673

> <b_lp_Chiralities_Consistent>
1

> <s_lp_Variant>
AV-unprocessed.smi:2453-5

> <Gold.Version>
5.8.1

> <Gold.Id.Protein>
6NUR|6NUR_protein|mol2

> <Gold.PLP.Fitness>
42.9159

> <Gold.PLP.PLP>
-30.4597

> <Gold.PLP.part.hbond>
-3.5193

> <Gold.PLP.part.metal>
0.0000

> <Gold.PLP.part.buried>
-4.2187

> <Gold.PLP.part.nonpolar>
-24.5954

> <Gold.PLP.part.repulsive>
0.3360

> <Gold.PLP.ligand.clash>
0.0000

> <Gold.PLP.ligand.torsion>
0.3320

> <Gold.PLP.Chemscore.Hbond>
4.3703

> <Gold.PLP.Chemscore.CHOScore>
0.0000

> <Gold.PLP.Chemscore.Metal>
0.0000

> <Gold.Chemscore.Hbonds>
donor molecule, donor type, donor heavy atom, donor atom, acceptor molecule, acceptor atom, score
      L1  H     4    41       P1  8028  2.00
      L1  H     8    26       P1  7948  0.70
      L1  H    11    27       P1  7948  0.57
      L1  H    19    40       P1 10171  1.00

> <Gold.PLP.Chemscore.Internal.Correction>
0.0095

> <Gold.Rescore>
     Score         DG    S(hbond)    S(metal)    S(lipo)     H(rot)  DE(clash)    DE(int)     intcor
     19.86     -21.82       3.78        0.00      70.48       1.77       0.23       1.73       ----

> <Gold.Chemscore.Fitness>
19.8594

> <Gold.Chemscore.DG>
-21.8215

> <Gold.Chemscore.ZeroCoef>
-5.4800

> <Gold.Chemscore.Hbond>
3.7835

> <Gold.Chemscore.Metal>
0.0000

> <Gold.Chemscore.Lipo>
70.4843

> <Gold.Chemscore.Internal_Hbond>
0.0000

> <Gold.Chemscore.DEClash>
0.2337

> <Gold.Chemscore.DEInternal>
1.7283

> <Gold.Chemscore.Rot>
1.7742

> <Gold.Chemscore.Internal.Correction>
   9.000000E+99

> <Gold.Chemscore.Hbonds>
donor molecule, donor type, donor heavy atom, donor atom, acceptor molecule, acceptor atom, score
      L1  H     4    41       P1  8028  0.99
      L1  H     8    26       P1  7948  0.67
      L1  H    11    27       P1  7948  0.56
      L1  H    19    40       P1 10171  0.99

> <Gold.Chemscore.Hbond.Weighted>
-12.6368

> <Gold.Chemscore.Metal.Weighted>
-0.0000

> <Gold.Chemscore.Lipo.Weighted>
-8.2467

> <Gold.Chemscore.Internal_Hbond.Weighted>
0.0000

> <Gold.Chemscore.DEClash.Weighted>
0.2337

> <Gold.Chemscore.DEInternal.Weighted>
1.7283

> <Gold.Chemscore.Rot.Weighted>
4.5419

> <Gold.Chemscore.Internal.Correction.Weighted>
   9.000000E+99

> <Gold.Protein.RotatedTorsions>
[ 6907 6896 6895 6894 ] final  -80.29 input  -60.11 | X-H torsion
[ 7974 7965 7964 7962 ] final  -24.17 input  175.53 | X-H torsion
[ 8008 7997 7996 7995 ] final  -48.74 input   59.86 | X-H torsion
[ 10167 10162 10161 10158 ] final  171.44 input  -65.29 | X-H torsion
[ 10718 10713 10712 10709 ] final   97.57 input   66.30 | X-H torsion
[ 10763 10752 10751 10750 ] final   98.09 input  -60.55 | X-H torsion
[ 11005 11000 10999 10996 ] final    5.08 input  -57.11 | X-H torsion

> <Gold.Protein.ActiveResidues>
 VAL166  LYS551  ARG553  GLY616  TRP617  ASP618  TYR619  PRO620  LYS621  CYS622 
 ASP623  PHE694  ASN695  SER759  ASP760  ASP761  ALA762  ILE779  LEU786  VAL792 
 PHE793  MET794  SER795  GLU796  ALA797  LYS798  CYS799  TRP800  GLU811  SER814 

> <Gold.Protein.RotatedAtoms>
  150.6932  134.3991  159.5110 H   0  0  0  0  0  0  0  0  0  0  0  0  # atno 6907 bound_to 6896
  152.1768  134.8785  160.0539 H   0  0  0  0  0  0  0  0  0  0  0  0  # atno 6908 bound_to 6896
  151.9791  133.3717  159.4137 H   0  0  0  0  0  0  0  0  0  0  0  0  # atno 6909 bound_to 6896
  146.1571  140.4715  142.8587 H   0  0  0  0  0  0  0  0  0  0  0  0  # atno 7974 bound_to 7965
  154.4033  140.1314  156.4389 H   0  0  0  0  0  0  0  0  0  0  0  0  # atno 8008 bound_to 7997
  155.7478  140.3488  155.5115 H   0  0  0  0  0  0  0  0  0  0  0  0  # atno 8009 bound_to 7997
  155.8978  140.1014  157.1362 H   0  0  0  0  0  0  0  0  0  0  0  0  # atno 8010 bound_to 7997
  139.5047  144.3485  151.9946 H   0  0  0  0  0  0  0  0  0  0  0  0  # atno 10167 bound_to 10162
  157.6910  131.0613  150.4663 H   0  0  0  0  0  0  0  0  0  0  0  0  # atno 10718 bound_to 10713
  153.2848  135.4160  155.1112 H   0  0  0  0  0  0  0  0  0  0  0  0  # atno 10763 bound_to 10752
  154.8501  135.3504  154.6062 H   0  0  0  0  0  0  0  0  0  0  0  0  # atno 10764 bound_to 10752
  153.6483  135.7054  153.5275 H   0  0  0  0  0  0  0  0  0  0  0  0  # atno 10765 bound_to 10752
  140.5747  134.0069  155.8023 H   0  0  0  0  0  0  0  0  0  0  0  0  # atno 11005 bound_to 11000
  144.7978  140.6155  143.6498 LP  0  0  0  0  0  0  0  0  0  0  0  0  # atno 17320 bound_to 7965
  145.4681  139.1506  143.3829 LP  0  0  0  0  0  0  0  0  0  0  0  0  # atno 17321 bound_to 7965
  140.2923  144.3740  150.6085 LP  0  0  0  0  0  0  0  0  0  0  0  0  # atno 17342 bound_to 10162
  140.5937  143.2167  151.7204 LP  0  0  0  0  0  0  0  0  0  0  0  0  # atno 17343 bound_to 10162
  156.5004  130.4116  149.6356 LP  0  0  0  0  0  0  0  0  0  0  0  0  # atno 17370 bound_to 10713
  156.3333  130.7343  151.2276 LP  0  0  0  0  0  0  0  0  0  0  0  0  # atno 17371 bound_to 10713
  141.1034  133.9732  157.3039 LP  0  0  0  0  0  0  0  0  0  0  0  0  # atno 17394 bound_to 11000
  139.9345  135.0197  156.8511 LP  0  0  0  0  0  0  0  0  0  0  0  0  # atno 17395 bound_to 11000

$$$$
