AV-unprocessed.smi:34|AV-procd|sdf|228|dock7
  -GOLD-   2262015553D 1   1.00000     0.00000
 Structure written by MMmdl.
 55 59  0  0  0  0  0  0  0  0  1 V2000
  153.1672  140.1310  158.4026 O   0  0  0  0  0  0  0  0  0  0  0  0
  152.3582  140.9088  157.8958 C   0  0  0  0  0  0  0  0  0  0  0  0
  151.5556  140.5453  156.7419 N   0  0  0  0  0  0  0  0  0  0  0  0
  151.4718  139.3430  156.1260 C   0  0  0  0  0  0  0  0  0  0  0  0
  151.8618  139.1527  154.8382 N   0  0  0  0  0  0  0  0  0  0  0  0
  151.7656  137.9431  154.2793 C   0  0  0  0  0  0  0  0  0  0  0  0
  151.3193  136.8090  154.8218 N   0  0  0  0  0  0  0  0  0  0  0  0
  150.9215  136.9900  156.1132 C   0  0  0  0  0  0  0  0  0  0  0  0
  150.9642  138.2193  156.8287 C   0  0  0  0  0  0  0  0  0  0  0  0
  150.4810  138.0316  158.1168 N   0  0  0  0  0  0  0  0  0  0  0  0
  150.1742  136.7631  158.1558 C   0  0  0  0  0  0  0  0  0  0  0  0
  150.4111  136.0590  156.9960 N   0  0  0  0  0  0  0  0  0  0  0  0
  150.1698  134.6023  156.7635 C   0  0  1  0  0  0  0  0  0  0  0  0
  149.6435  134.0415  157.9290 O   0  0  0  0  0  0  0  0  0  0  0  0
  148.5893  133.1232  157.6178 C   0  0  1  0  0  0  0  0  0  0  0  0
  147.2591  133.6573  158.1661 C   0  0  0  0  0  0  0  0  0  0  0  0
  146.3320  132.5884  158.2660 O   0  0  0  0  0  0  0  0  0  0  0  0
  145.0119  132.8414  158.3625 C   0  0  0  0  0  0  0  0  0  0  0  0
  144.5110  133.9491  158.1573 O   0  0  0  0  0  0  0  0  0  0  0  0
  144.2184  131.6396  158.7490 C   0  0  0  0  0  0  0  0  0  0  0  0
  144.8443  130.3712  158.7612 C   0  0  0  0  0  0  0  0  0  0  0  0
  144.1205  129.2178  159.1206 C   0  0  0  0  0  0  0  0  0  0  0  0
  142.7622  129.3185  159.4731 C   0  0  0  0  0  0  0  0  0  0  0  0
  142.1279  130.5745  159.4650 C   0  0  0  0  0  0  0  0  0  0  0  0
  142.8499  131.7292  159.1051 C   0  0  0  0  0  0  0  0  0  0  0  0
  148.5858  133.0256  156.0896 C   0  0  2  0  0  0  0  0  0  0  0  0
  149.4267  132.0471  155.7415 F   0  0  0  0  0  0  0  0  0  0  0  0
  149.1319  134.3793  155.6675 C   0  0  2  0  0  0  0  0  0  0  0  0
  149.6794  134.3083  154.3662 O   0  0  0  0  0  0  0  0  0  0  0  0
  152.2045  142.3193  158.3873 C   0  0  0  0  0  0  0  0  0  0  0  0
  152.7271  142.6908  159.6466 C   0  0  0  0  0  0  0  0  0  0  0  0
  152.5678  144.0061  160.1249 C   0  0  0  0  0  0  0  0  0  0  0  0
  151.8794  144.9594  159.3513 C   0  0  0  0  0  0  0  0  0  0  0  0
  151.3467  144.5957  158.1004 C   0  0  0  0  0  0  0  0  0  0  0  0
  151.5043  143.2805  157.6213 C   0  0  0  0  0  0  0  0  0  0  0  0
  150.9558  141.2703  156.3763 H   0  0  0  0  0  0  0  0  0  0  0  0
  152.0927  137.8737  153.2521 H   0  0  0  0  0  0  0  0  0  0  0  0
  149.7693  136.2993  159.0435 H   0  0  0  0  0  0  0  0  0  0  0  0
  151.1461  134.1667  156.5445 H   0  0  0  0  0  0  0  0  0  0  0  0
  148.7994  132.1510  158.0659 H   0  0  0  0  0  0  0  0  0  0  0  0
  147.4138  134.1453  159.1278 H   0  0  0  0  0  0  0  0  0  0  0  0
  146.8505  134.4095  157.4907 H   0  0  0  0  0  0  0  0  0  0  0  0
  145.8861  130.2687  158.4938 H   0  0  0  0  0  0  0  0  0  0  0  0
  144.6087  128.2546  159.1250 H   0  0  0  0  0  0  0  0  0  0  0  0
  142.2076  128.4338  159.7486 H   0  0  0  0  0  0  0  0  0  0  0  0
  141.0852  130.6530  159.7350 H   0  0  0  0  0  0  0  0  0  0  0  0
  142.3327  132.6774  159.1095 H   0  0  0  0  0  0  0  0  0  0  0  0
  147.6107  132.7917  155.6610 H   0  0  0  0  0  0  0  0  0  0  0  0
  148.3555  135.1435  155.7248 H   0  0  0  0  0  0  0  0  0  0  0  0
  149.3849  135.0611  153.8765 H   0  0  0  0  0  0  0  0  0  0  0  0
  153.2563  141.9706  160.2540 H   0  0  0  0  0  0  0  0  0  0  0  0
  152.9727  144.2834  161.0871 H   0  0  0  0  0  0  0  0  0  0  0  0
  151.7564  145.9676  159.7188 H   0  0  0  0  0  0  0  0  0  0  0  0
  150.8129  145.3245  157.5086 H   0  0  0  0  0  0  0  0  0  0  0  0
  151.0774  143.0211  156.6633 H   0  0  0  0  0  0  0  0  0  0  0  0
  1  2  2  0  0  0  0
  2  3  1  0  0  0  0
  2 30  1  0  0  0  0
  3  4  1  0  0  0  0
  3 36  1  0  0  0  0
  4  9  1  0  0  0  0
  4  5  2  0  0  0  0
  5  6  1  0  0  0  0
  6  7  2  0  0  0  0
  6 37  1  0  0  0  0
  7  8  1  0  0  0  0
  8 12  1  0  0  0  0
  8  9  2  0  0  0  0
  9 10  1  0  0  0  0
 10 11  2  0  0  0  0
 11 12  1  0  0  0  0
 11 38  1  0  0  0  0
 12 13  1  0  0  0  0
 13 28  1  0  0  0  0
 13 14  1  0  0  0  0
 13 39  1  0  0  0  0
 14 15  1  0  0  0  0
 15 16  1  0  0  0  0
 15 26  1  0  0  0  0
 15 40  1  0  0  0  0
 16 17  1  0  0  0  0
 16 41  1  0  0  0  0
 16 42  1  0  0  0  0
 17 18  1  0  0  0  0
 18 19  2  0  0  0  0
 18 20  1  0  0  0  0
 20 25  1  0  0  0  0
 20 21  2  0  0  0  0
 21 22  1  0  0  0  0
 21 43  1  0  0  0  0
 22 23  2  0  0  0  0
 22 44  1  0  0  0  0
 23 24  1  0  0  0  0
 23 45  1  0  0  0  0
 24 25  2  0  0  0  0
 24 46  1  0  0  0  0
 25 47  1  0  0  0  0
 26 27  1  0  0  0  0
 26 28  1  0  0  0  0
 26 48  1  0  0  0  0
 28 29  1  0  0  0  0
 28 49  1  0  0  0  0
 29 50  1  0  0  0  0
 30 35  1  0  0  0  0
 30 31  2  0  0  0  0
 31 32  1  0  0  0  0
 31 51  1  0  0  0  0
 32 33  2  0  0  0  0
 32 52  1  0  0  0  0
 33 34  1  0  0  0  0
 33 53  1  0  0  0  0
 34 35  2  0  0  0  0
 34 54  1  0  0  0  0
 35 55  1  0  0  0  0
M  END
> <s_m_source_file>
AV-unprocessed.smi

> <i_m_source_file_index>
34

> <i_lp_mmshare_version>
43012

> <i_f3d_flags>
0

> <s_epik_input>
W2NIXTFbY0hdW2NIXVtjSF1bY0hdYzFDKD1PKVtOSF1jKG5bY0hdbjIpYyhjMjMpbltjSF1uM1tDQEBIXTRPW0NASF0oW0NAQEhdKEYpW0NASF00W09IXSlbQ0gyXU9DKD1PKWM1W2NIXVtjSF1bY0hdW2NIXVtjSF01

> <s_epik_cmdline>
J2VwaWtfcHl0aG9uJywgJy1waCcsICc3LjAnLCAnLXRuJywgJzgnLCAnLW1hJywgJzIwMCcsICctbWV0YWxfYmluZGluZycsICctaW1hZScsICc8aW5maWxlLm1hZT4nLCAnLW9tYWUnLCAnPG91dGZpbGUubWFlPic=

> <r_lp_tautomer_probability>
1

> <r_epik_Ionization_Penalty>
0.00257489

> <r_epik_Ionization_Penalty_Charging>
0

> <r_epik_Ionization_Penalty_Neutral>
0.00257489

> <r_epik_State_Penalty>
0.00519398

> <r_epik_Charging_Adjusted_Penalty>
0.00519398

> <i_epik_Tot_Q>
0

> <i_epik_Tot_abs_Q>
0

> <r_epik_Metal_State_Penalty>
0.335891

> <b_epik_Metal_Only>
0

> <s_epik_Chemistry_Notes>
This compound has an ester and may undergo hydrolysis at high or low pH. This compound contains an acetal/aminal-like group ( X-CH(R)-Y where X, Y are N, S, or O) that may be acid/base labile, releasing an aldehyde.

> <s_lp_Force_Field>
OPLS_2005

> <r_lp_Energy>
45.4832

> <b_lp_Chiralities_Consistent>
1

> <s_lp_Variant>
AV-unprocessed.smi:34-14

> <Gold.Version>
5.8.1

> <Gold.Id.Protein>
6NUR|6NUR_protein|mol2

> <Gold.PLP.Fitness>
62.0063

> <Gold.PLP.PLP>
-48.7491

> <Gold.PLP.part.hbond>
-4.9462

> <Gold.PLP.part.metal>
0.0000

> <Gold.PLP.part.buried>
-7.9183

> <Gold.PLP.part.nonpolar>
-34.7784

> <Gold.PLP.part.repulsive>
0.4110

> <Gold.PLP.ligand.clash>
0.0000

> <Gold.PLP.ligand.torsion>
1.1581

> <Gold.PLP.Chemscore.Hbond>
4.7508

> <Gold.PLP.Chemscore.CHOScore>
0.4043

> <Gold.PLP.Chemscore.Metal>
0.0000

> <Gold.Chemscore.Hbonds>
donor molecule, donor type, donor heavy atom, donor atom, acceptor molecule, acceptor atom, score
      L1  H    29    50       P1  7948  0.22
      P1  H  6896  6908       L1    14  1.00
      P1  H  7989  7998       L1     5  0.63
      P1  H  7997  8009       L1     1  0.99
      P1  H 10752 10765       L1     7  0.83
      L1  C     6    37       P1  7949  0.44

> <Gold.PLP.Chemscore.Internal.Correction>
0.1079

> <Gold.Rescore>
     Score         DG    S(hbond)    S(metal)    S(lipo)     H(rot)  DE(clash)    DE(int)     intcor
     18.30     -19.99       2.80        0.00     103.70       2.72       0.33       1.36       ----

> <Gold.Chemscore.Fitness>
18.2963

> <Gold.Chemscore.DG>
-19.9869

> <Gold.Chemscore.ZeroCoef>
-5.4800

> <Gold.Chemscore.Hbond>
2.7969

> <Gold.Chemscore.Metal>
0.0000

> <Gold.Chemscore.Lipo>
103.6960

> <Gold.Chemscore.Internal_Hbond>
0.0000

> <Gold.Chemscore.DEClash>
0.3275

> <Gold.Chemscore.DEInternal>
1.3630

> <Gold.Chemscore.Rot>
2.7215

> <Gold.Chemscore.Internal.Correction>
   9.000000E+99

> <Gold.Chemscore.Hbonds>
donor molecule, donor type, donor heavy atom, donor atom, acceptor molecule, acceptor atom, score
      L1  H    29    50       P1  7948  0.04
      P1  H  6896  6908       L1    14  0.92
      P1  H  7989  7998       L1     5  0.52
      P1  H  7997  8009       L1     1  0.41
      P1  H 10752 10765       L1     7  0.13

> <Gold.Chemscore.Hbond.Weighted>
-9.3415

> <Gold.Chemscore.Metal.Weighted>
-0.0000

> <Gold.Chemscore.Lipo.Weighted>
-12.1324

> <Gold.Chemscore.Internal_Hbond.Weighted>
0.0000

> <Gold.Chemscore.DEClash.Weighted>
0.3275

> <Gold.Chemscore.DEInternal.Weighted>
1.3630

> <Gold.Chemscore.Rot.Weighted>
6.9670

> <Gold.Chemscore.Internal.Correction.Weighted>
   9.000000E+99

> <Gold.Protein.RotatedTorsions>
[ 6907 6896 6895 6894 ] final  133.33 input  -60.11 | X-H torsion
[ 7974 7965 7964 7962 ] final   75.80 input  175.53 | X-H torsion
[ 8008 7997 7996 7995 ] final  150.12 input   59.86 | X-H torsion
[ 10167 10162 10161 10158 ] final -131.46 input  -65.29 | X-H torsion
[ 10718 10713 10712 10709 ] final  152.75 input   66.30 | X-H torsion
[ 10763 10752 10751 10750 ] final  165.12 input  -60.55 | X-H torsion
[ 11005 11000 10999 10996 ] final -137.85 input  -57.11 | X-H torsion

> <Gold.Protein.ActiveResidues>
 VAL166  LYS551  ARG553  GLY616  TRP617  ASP618  TYR619  PRO620  LYS621  CYS622 
 ASP623  PHE694  ASN695  SER759  ASP760  ASP761  ALA762  ILE779  LEU786  VAL792 
 PHE793  MET794  SER795  GLU796  ALA797  LYS798  CYS799  TRP800  GLU811  SER814 

> <Gold.Protein.RotatedAtoms>
  152.3231  133.5875  159.5757 H   0  0  0  0  0  0  0  0  0  0  0  0  # atno 6907 bound_to 6896
  150.7382  133.9982  159.3638 H   0  0  0  0  0  0  0  0  0  0  0  0  # atno 6908 bound_to 6896
  151.7864  135.0748  160.0432 H   0  0  0  0  0  0  0  0  0  0  0  0  # atno 6909 bound_to 6896
  145.7109  139.2614  143.1651 H   0  0  0  0  0  0  0  0  0  0  0  0  # atno 7974 bound_to 7965
  156.2728  140.2083  156.5966 H   0  0  0  0  0  0  0  0  0  0  0  0  # atno 8008 bound_to 7997
  154.6939  140.0527  157.0415 H   0  0  0  0  0  0  0  0  0  0  0  0  # atno 8009 bound_to 7997
  155.0827  140.3188  155.4599 H   0  0  0  0  0  0  0  0  0  0  0  0  # atno 8010 bound_to 7997
  139.9187  143.6408  152.2558 H   0  0  0  0  0  0  0  0  0  0  0  0  # atno 10167 bound_to 10162
  157.2538  131.0784  151.1712 H   0  0  0  0  0  0  0  0  0  0  0  0  # atno 10718 bound_to 10713
  154.3193  135.2756  155.2527 H   0  0  0  0  0  0  0  0  0  0  0  0  # atno 10763 bound_to 10752
  154.4888  135.5839  153.6447 H   0  0  0  0  0  0  0  0  0  0  0  0  # atno 10764 bound_to 10752
  152.9878  135.6129  154.3376 H   0  0  0  0  0  0  0  0  0  0  0  0  # atno 10765 bound_to 10752
  140.8671  134.2096  157.4673 H   0  0  0  0  0  0  0  0  0  0  0  0  # atno 11005 bound_to 11000
  146.0713  140.7866  142.9687 LP  0  0  0  0  0  0  0  0  0  0  0  0  # atno 17320 bound_to 7965
  144.6942  140.3346  143.7210 LP  0  0  0  0  0  0  0  0  0  0  0  0  # atno 17321 bound_to 7965
  139.6880  144.7650  151.1489 LP  0  0  0  0  0  0  0  0  0  0  0  0  # atno 17342 bound_to 10162
  140.7667  143.5630  150.9079 LP  0  0  0  0  0  0  0  0  0  0  0  0  # atno 17343 bound_to 10162
  157.3250  130.6956  149.6291 LP  0  0  0  0  0  0  0  0  0  0  0  0  # atno 17370 bound_to 10713
  155.9665  130.4324  150.4963 LP  0  0  0  0  0  0  0  0  0  0  0  0  # atno 17371 bound_to 10713
  139.8710  134.9757  156.4893 LP  0  0  0  0  0  0  0  0  0  0  0  0  # atno 17394 bound_to 11000
  140.8616  133.8056  155.9271 LP  0  0  0  0  0  0  0  0  0  0  0  0  # atno 17395 bound_to 11000

$$$$
