AV-unprocessed.smi:2458|AV-procd|sdf|9708|dock3
  -GOLD-   2272013343D 1   1.00000     0.00000
 Structure written by MMmdl.
 47 48  0  0  0  0  0  0  0  0  1 V2000
  152.4574  143.7981  161.1787 C   0  0  0  0  0  0  0  0  0  0  0  0
  152.5149  142.3025  160.8108 C   0  0  0  0  0  0  0  0  0  0  0  0
  153.9857  141.9086  160.5728 C   0  0  0  0  0  0  0  0  0  0  0  0
  151.5930  141.9429  159.6081 C   0  0  1  0  0  0  0  0  0  0  0  0
  151.8609  142.8365  158.3716 C   0  0  0  0  0  0  0  0  0  0  0  0
  150.9643  142.4742  157.1764 C   0  0  0  0  0  0  0  0  0  0  0  0
  151.1266  140.9960  156.7796 C   0  0  2  0  0  0  0  0  0  0  0  0
  150.2231  140.6417  155.5903 C   0  0  0  0  0  0  0  0  0  0  0  0
  150.7088  140.1959  154.5501 O   0  0  0  0  0  0  0  0  0  0  0  0
  148.9085  140.8456  155.7556 N   0  0  0  0  0  0  0  0  0  0  0  0
  147.8971  140.5673  154.7442 C   0  0  0  0  0  0  0  0  0  0  0  0
  147.4831  141.8547  154.0092 C   0  0  2  0  0  0  0  0  0  0  0  0
  148.5242  142.8030  154.1376 O   0  0  0  0  0  0  0  0  0  0  0  0
  146.1687  142.3992  154.5456 C   0  0  0  0  0  0  0  0  0  0  0  0
  145.5277  143.4997  153.9363 C   0  0  0  0  0  0  0  0  0  0  0  0
  144.3166  143.9692  154.4798 C   0  0  0  0  0  0  0  0  0  0  0  0
  143.7943  143.3180  155.6148 C   0  0  0  0  0  0  0  0  0  0  0  0
  144.3976  142.2661  156.2087 N   0  0  0  0  0  0  0  0  0  0  0  0
  145.5588  141.8221  155.6810 C   0  0  0  0  0  0  0  0  0  0  0  0
  150.8233  140.1003  157.9945 C   0  0  0  0  0  0  0  0  0  0  0  0
  151.7172  140.4555  159.1937 C   0  0  0  0  0  0  0  0  0  0  0  0
  150.5611  142.1127  159.9193 H   0  0  0  0  0  0  0  0  0  0  0  0
  152.1648  140.8324  156.4848 H   0  0  0  0  0  0  0  0  0  0  0  0
  152.6922  144.4273  160.3196 H   0  0  0  0  0  0  0  0  0  0  0  0
  153.1717  144.0375  161.9670 H   0  0  0  0  0  0  0  0  0  0  0  0
  151.4776  144.0900  161.5547 H   0  0  0  0  0  0  0  0  0  0  0  0
  152.1690  141.7436  161.6815 H   0  0  0  0  0  0  0  0  0  0  0  0
  154.3725  142.3553  159.6563 H   0  0  0  0  0  0  0  0  0  0  0  0
  154.1148  140.8293  160.5045 H   0  0  0  0  0  0  0  0  0  0  0  0
  154.6202  142.2417  161.3947 H   0  0  0  0  0  0  0  0  0  0  0  0
  151.6876  143.8855  158.6082 H   0  0  0  0  0  0  0  0  0  0  0  0
  152.9082  142.7541  158.0776 H   0  0  0  0  0  0  0  0  0  0  0  0
  149.9245  142.6857  157.4312 H   0  0  0  0  0  0  0  0  0  0  0  0
  151.2108  143.1178  156.3307 H   0  0  0  0  0  0  0  0  0  0  0  0
  148.5859  141.2088  156.6409 H   0  0  0  0  0  0  0  0  0  0  0  0
  148.3360  139.8668  154.0317 H   0  0  0  0  0  0  0  0  0  0  0  0
  147.0304  140.0709  155.1844 H   0  0  0  0  0  0  0  0  0  0  0  0
  147.3566  141.6444  152.9459 H   0  0  0  0  0  0  0  0  0  0  0  0
  149.3467  142.3723  153.9610 H   0  0  0  0  0  0  0  0  0  0  0  0
  145.9568  143.9790  153.0686 H   0  0  0  0  0  0  0  0  0  0  0  0
  143.8010  144.8092  154.0384 H   0  0  0  0  0  0  0  0  0  0  0  0
  142.8681  143.6524  156.0581 H   0  0  0  0  0  0  0  0  0  0  0  0
  146.0139  140.9813  156.1834 H   0  0  0  0  0  0  0  0  0  0  0  0
  149.7770  140.2011  158.2875 H   0  0  0  0  0  0  0  0  0  0  0  0
  150.9693  139.0515  157.7319 H   0  0  0  0  0  0  0  0  0  0  0  0
  152.7560  140.2250  158.9538 H   0  0  0  0  0  0  0  0  0  0  0  0
  151.4379  139.8011  160.0184 H   0  0  0  0  0  0  0  0  0  0  0  0
  1  2  1  0  0  0  0
  1 24  1  0  0  0  0
  1 25  1  0  0  0  0
  1 26  1  0  0  0  0
  2  3  1  0  0  0  0
  2  4  1  0  0  0  0
  2 27  1  0  0  0  0
  3 28  1  0  0  0  0
  3 29  1  0  0  0  0
  3 30  1  0  0  0  0
  4 22  1  0  0  0  0
  4 21  1  0  0  0  0
  4  5  1  0  0  0  0
  5  6  1  0  0  0  0
  5 31  1  0  0  0  0
  5 32  1  0  0  0  0
  6  7  1  0  0  0  0
  6 33  1  0  0  0  0
  6 34  1  0  0  0  0
  7 23  1  0  0  0  0
  7  8  1  0  0  0  0
  7 20  1  0  0  0  0
  8  9  2  0  0  0  0
  8 10  1  0  0  0  0
 10 11  1  0  0  0  0
 10 35  1  0  0  0  0
 11 12  1  0  0  0  0
 11 36  1  0  0  0  0
 11 37  1  0  0  0  0
 12 13  1  0  0  0  0
 12 14  1  0  0  0  0
 12 38  1  0  0  0  0
 13 39  1  0  0  0  0
 14 19  1  0  0  0  0
 14 15  2  0  0  0  0
 15 16  1  0  0  0  0
 15 40  1  0  0  0  0
 16 17  2  0  0  0  0
 16 41  1  0  0  0  0
 17 18  1  0  0  0  0
 17 42  1  0  0  0  0
 18 19  2  0  0  0  0
 19 43  1  0  0  0  0
 20 21  1  0  0  0  0
 20 44  1  0  0  0  0
 20 45  1  0  0  0  0
 21 46  1  0  0  0  0
 21 47  1  0  0  0  0
M  END
> <s_m_source_file>
AV-unprocessed.smi

> <i_m_source_file_index>
2458

> <i_lp_mmshare_version>
43012

> <i_f3d_flags>
0

> <s_epik_input>
W0NIM11bQ0hdKFtDSDNdKVtDQEhdMVtDSDJdW0NIMl1bQ0BASF0oW0NIMl1bQ0gyXTEpQyg9TylbTkhdW0NIMl1bQ0BIXShbT0hdKWMyW2NIXVtjSF1bY0hdbltjSF0y

> <s_epik_cmdline>
J2VwaWtfcHl0aG9uJywgJy1waCcsICc3LjAnLCAnLXRuJywgJzgnLCAnLW1hJywgJzIwMCcsICctbWV0YWxfYmluZGluZycsICctaW1hZScsICc8aW5maWxlLm1hZT4nLCAnLW9tYWUnLCAnPG91dGZpbGUubWFlPic=

> <r_epik_Ionization_Penalty>
0.00169206

> <r_epik_Ionization_Penalty_Charging>
0

> <r_epik_Ionization_Penalty_Neutral>
0.00169206

> <r_epik_State_Penalty>
0.0011427

> <r_epik_Charging_Adjusted_Penalty>
0.0011427

> <i_epik_Tot_Q>
0

> <i_epik_Tot_abs_Q>
0

> <r_epik_Metal_State_Penalty>
-0

> <b_epik_Metal_Only>
0

> <s_lp_Force_Field>
OPLS_2005

> <r_lp_Energy>
18.0059

> <b_lp_Chiralities_Consistent>
1

> <s_lp_Variant>
AV-unprocessed.smi:2458-1

> <Gold.Version>
5.8.1

> <Gold.Id.Protein>
6NUR|6NUR_protein|mol2

> <Gold.PLP.Fitness>
49.4043

> <Gold.PLP.PLP>
-45.0068

> <Gold.PLP.part.hbond>
-3.4071

> <Gold.PLP.part.metal>
0.0000

> <Gold.PLP.part.buried>
-5.1671

> <Gold.PLP.part.nonpolar>
-36.0757

> <Gold.PLP.part.repulsive>
0.2242

> <Gold.PLP.ligand.clash>
0.0000

> <Gold.PLP.ligand.torsion>
0.8248

> <Gold.PLP.Chemscore.Hbond>
2.0000

> <Gold.PLP.Chemscore.CHOScore>
0.0000

> <Gold.PLP.Chemscore.Metal>
0.0000

> <Gold.Chemscore.Hbonds>
donor molecule, donor type, donor heavy atom, donor atom, acceptor molecule, acceptor atom, score
      P1  H  7989  7998       L1     9  1.00
      P1  H  8022  8030       L1    13  1.00

> <Gold.PLP.Chemscore.Internal.Correction>
0.0471

> <Gold.Rescore>
     Score         DG    S(hbond)    S(metal)    S(lipo)     H(rot)  DE(clash)    DE(int)     intcor
     19.43     -20.43       1.96        0.00     116.88       2.06       0.20       0.80       ----

> <Gold.Chemscore.Fitness>
19.4312

> <Gold.Chemscore.DG>
-20.4345

> <Gold.Chemscore.ZeroCoef>
-5.4800

> <Gold.Chemscore.Hbond>
1.9612

> <Gold.Chemscore.Metal>
0.0000

> <Gold.Chemscore.Lipo>
116.8766

> <Gold.Chemscore.Internal_Hbond>
0.0000

> <Gold.Chemscore.DEClash>
0.2020

> <Gold.Chemscore.DEInternal>
0.8013

> <Gold.Chemscore.Rot>
2.0588

> <Gold.Chemscore.Internal.Correction>
   9.000000E+99

> <Gold.Chemscore.Hbonds>
donor molecule, donor type, donor heavy atom, donor atom, acceptor molecule, acceptor atom, score
      P1  H  7989  7998       L1     9  0.95
      P1  H  8022  8030       L1    13  0.72

> <Gold.Chemscore.Hbond.Weighted>
-6.5504

> <Gold.Chemscore.Metal.Weighted>
-0.0000

> <Gold.Chemscore.Lipo.Weighted>
-13.6746

> <Gold.Chemscore.Internal_Hbond.Weighted>
0.0000

> <Gold.Chemscore.DEClash.Weighted>
0.2020

> <Gold.Chemscore.DEInternal.Weighted>
0.8013

> <Gold.Chemscore.Rot.Weighted>
5.2705

> <Gold.Chemscore.Internal.Correction.Weighted>
   9.000000E+99

> <Gold.Protein.RotatedTorsions>
[ 6907 6896 6895 6894 ] final  131.62 input  -60.11 | X-H torsion
[ 7974 7965 7964 7962 ] final  -37.92 input  175.53 | X-H torsion
[ 8008 7997 7996 7995 ] final  -58.29 input   59.86 | X-H torsion
[ 10167 10162 10161 10158 ] final   48.99 input  -65.29 | X-H torsion
[ 10718 10713 10712 10709 ] final -153.65 input   66.30 | X-H torsion
[ 10763 10752 10751 10750 ] final   35.72 input  -60.55 | X-H torsion
[ 11005 11000 10999 10996 ] final -174.34 input  -57.11 | X-H torsion

> <Gold.Protein.ActiveResidues>
 VAL166  LYS551  ARG553  GLY616  TRP617  ASP618  TYR619  PRO620  LYS621  CYS622 
 ASP623  PHE694  ASN695  SER759  ASP760  ASP761  ALA762  ILE779  LEU786  VAL792 
 PHE793  MET794  SER795  GLU796  ALA797  LYS798  CYS799  TRP800  GLU811  SER814 

> <Gold.Protein.RotatedAtoms>
  152.3407  133.6064  159.5874 H   0  0  0  0  0  0  0  0  0  0  0  0  # atno 6907 bound_to 6896
  150.7477  133.9726  159.3559 H   0  0  0  0  0  0  0  0  0  0  0  0  # atno 6908 bound_to 6896
  151.7590  135.0815  160.0393 H   0  0  0  0  0  0  0  0  0  0  0  0  # atno 6909 bound_to 6896
  146.0532  140.6452  142.9032 H   0  0  0  0  0  0  0  0  0  0  0  0  # atno 7974 bound_to 7965
  154.4303  140.1087  156.5934 H   0  0  0  0  0  0  0  0  0  0  0  0  # atno 8008 bound_to 7997
  155.5988  140.3493  155.4569 H   0  0  0  0  0  0  0  0  0  0  0  0  # atno 8009 bound_to 7997
  156.0190  140.1235  157.0367 H   0  0  0  0  0  0  0  0  0  0  0  0  # atno 8010 bound_to 7997
  140.2876  144.3084  150.6248 H   0  0  0  0  0  0  0  0  0  0  0  0  # atno 10167 bound_to 10162
  156.4887  130.8337  151.2561 H   0  0  0  0  0  0  0  0  0  0  0  0  # atno 10718 bound_to 10713
  153.0107  135.6325  154.1871 H   0  0  0  0  0  0  0  0  0  0  0  0  # atno 10763 bound_to 10752
  154.1613  135.2823  155.3109 H   0  0  0  0  0  0  0  0  0  0  0  0  # atno 10764 bound_to 10752
  154.5979  135.5597  153.7405 H   0  0  0  0  0  0  0  0  0  0  0  0  # atno 10765 bound_to 10752
  140.4757  134.6123  157.4899 H   0  0  0  0  0  0  0  0  0  0  0  0  # atno 11005 bound_to 11000
  144.7134  140.4121  143.7063 LP  0  0  0  0  0  0  0  0  0  0  0  0  # atno 17320 bound_to 7965
  145.6688  139.1595  143.2766 LP  0  0  0  0  0  0  0  0  0  0  0  0  # atno 17321 bound_to 7965
  140.5760  143.2176  151.7515 LP  0  0  0  0  0  0  0  0  0  0  0  0  # atno 17342 bound_to 10162
  139.4946  144.4149  152.0040 LP  0  0  0  0  0  0  0  0  0  0  0  0  # atno 17343 bound_to 10162
  157.7476  131.0021  150.2987 LP  0  0  0  0  0  0  0  0  0  0  0  0  # atno 17370 bound_to 10713
  156.3449  130.3821  149.7378 LP  0  0  0  0  0  0  0  0  0  0  0  0  # atno 17371 bound_to 10713
  139.9858  134.7064  155.9777 LP  0  0  0  0  0  0  0  0  0  0  0  0  # atno 17394 bound_to 11000
  141.1556  133.6543  156.4150 LP  0  0  0  0  0  0  0  0  0  0  0  0  # atno 17395 bound_to 11000

$$$$
