AV-unprocessed.smi:1971|AV-procd|sdf|7969|dock4
  -GOLD-   2272010143D 1   1.00000     0.00000
 Structure written by MMmdl.
 43 44  0  0  0  0  0  0  0  0  3 V2000
  146.7003  142.5522  153.8387 C   0  0  0  0  0  0  0  0  0  0  0  0
  146.7886  141.8458  155.1992 C   0  0  0  0  0  0  0  0  0  0  0  0
  148.1336  141.9622  155.8153 N   0  3  0  0  0  0  0  0  0  0  0  0
  149.1652  141.2004  155.0685 C   0  0  0  0  0  0  0  0  0  0  0  0
  150.5546  141.3618  155.7268 C   0  0  0  0  0  0  0  0  0  0  0  0
  150.5578  140.9239  157.1310 N   0  0  0  0  0  0  0  0  0  0  0  0
  150.3809  139.4663  157.3200 C   0  0  1  0  0  0  0  0  0  0  0  0
  151.0922  138.6928  156.1844 C   0  0  0  0  0  0  0  0  0  0  0  0
  150.8990  138.9860  158.7039 C   0  0  0  0  0  0  0  0  0  0  0  0
  150.4149  137.6524  159.0486 N   0  0  0  0  0  0  0  0  0  0  0  0
  149.1274  137.2829  159.1152 C   0  0  0  0  0  0  0  0  0  0  0  0
  148.2382  138.1080  158.8893 O   0  0  0  0  0  0  0  0  0  0  0  0
  148.9506  135.9815  159.4349 N   0  5  0  0  0  0  0  0  0  0  0  0
  148.1219  135.6409  160.4353 C   0  0  0  0  0  0  0  0  0  0  0  0
  147.6372  136.5258  161.3141 N   0  0  0  0  0  0  0  0  0  0  0  0
  146.7871  135.9564  162.2638 C   0  0  0  0  0  0  0  0  0  0  0  0
  146.6153  134.6074  162.1004 C   0  0  0  0  0  0  0  0  0  0  0  0
  147.5211  134.0087  160.7400 S   0  0  0  0  0  0  0  0  0  0  0  0
  149.5854  141.7824  157.8216 C   0  0  0  0  0  0  0  0  0  0  0  0
  148.1619  141.6018  157.2553 C   0  0  0  0  0  0  0  0  0  0  0  0
  145.7343  142.3624  153.3702 H   0  0  0  0  0  0  0  0  0  0  0  0
  147.4727  142.1942  153.1574 H   0  0  0  0  0  0  0  0  0  0  0  0
  146.8055  143.6328  153.9316 H   0  0  0  0  0  0  0  0  0  0  0  0
  146.0291  142.2293  155.8822 H   0  0  0  0  0  0  0  0  0  0  0  0
  146.5604  140.7904  155.0439 H   0  0  0  0  0  0  0  0  0  0  0  0
  148.8792  140.1509  154.9935 H   0  0  0  0  0  0  0  0  0  0  0  0
  149.2137  141.5773  154.0464 H   0  0  0  0  0  0  0  0  0  0  0  0
  151.3131  140.8409  155.1459 H   0  0  0  0  0  0  0  0  0  0  0  0
  150.8479  142.4121  155.6913 H   0  0  0  0  0  0  0  0  0  0  0  0
  149.3205  139.2257  157.2707 H   0  0  0  0  0  0  0  0  0  0  0  0
  151.0501  137.6151  156.3409 H   0  0  0  0  0  0  0  0  0  0  0  0
  152.1447  138.9697  156.1150 H   0  0  0  0  0  0  0  0  0  0  0  0
  150.6316  138.8618  155.2126 H   0  0  0  0  0  0  0  0  0  0  0  0
  151.9892  138.9708  158.7151 H   0  0  0  0  0  0  0  0  0  0  0  0
  150.5881  139.6450  159.5134 H   0  0  0  0  0  0  0  0  0  0  0  0
  151.1114  136.9480  159.2433 H   0  0  0  0  0  0  0  0  0  0  0  0
  146.3460  136.5873  163.0208 H   0  0  0  0  0  0  0  0  0  0  0  0
  146.0143  133.9335  162.6918 H   0  0  0  0  0  0  0  0  0  0  0  0
  149.6018  141.6200  158.8975 H   0  0  0  0  0  0  0  0  0  0  0  0
  149.8902  142.8226  157.6987 H   0  0  0  0  0  0  0  0  0  0  0  0
  147.4844  142.2485  157.8111 H   0  0  0  0  0  0  0  0  0  0  0  0
  147.8048  140.5812  157.4001 H   0  0  0  0  0  0  0  0  0  0  0  0
  148.4015  142.9338  155.7522 H   0  0  0  0  0  0  0  0  0  0  0  0
  1  2  1  0  0  0  0
  1 21  1  0  0  0  0
  1 22  1  0  0  0  0
  1 23  1  0  0  0  0
  2  3  1  0  0  0  0
  2 24  1  0  0  0  0
  2 25  1  0  0  0  0
  3 20  1  0  0  0  0
  3  4  1  0  0  0  0
  3 43  1  0  0  0  0
  4  5  1  0  0  0  0
  4 26  1  0  0  0  0
  4 27  1  0  0  0  0
  5  6  1  0  0  0  0
  5 28  1  0  0  0  0
  5 29  1  0  0  0  0
  6  7  1  0  0  0  0
  6 19  1  0  0  0  0
  7  8  1  0  0  0  0
  7  9  1  0  0  0  0
  7 30  1  0  0  0  0
  8 31  1  0  0  0  0
  8 32  1  0  0  0  0
  8 33  1  0  0  0  0
  9 10  1  0  0  0  0
  9 34  1  0  0  0  0
  9 35  1  0  0  0  0
 10 11  1  0  0  0  0
 10 36  1  0  0  0  0
 11 12  2  0  0  0  0
 11 13  1  0  0  0  0
 13 14  1  0  0  0  0
 14 18  1  0  0  0  0
 14 15  2  0  0  0  0
 15 16  1  0  0  0  0
 16 17  2  0  0  0  0
 16 37  1  0  0  0  0
 17 18  1  0  0  0  0
 17 38  1  0  0  0  0
 19 20  1  0  0  0  0
 19 39  1  0  0  0  0
 19 40  1  0  0  0  0
 20 41  1  0  0  0  0
 20 42  1  0  0  0  0
M  CHG  1   3   1
M  CHG  1  13  -1
M  END
> <s_m_source_file>
AV-unprocessed.smi

> <i_m_source_file_index>
1971

> <i_lp_mmshare_version>
43012

> <i_f3d_flags>
0

> <s_epik_input>
W0NIM11bQ0gyXU4xW0NIMl1bQ0gyXU4oW0NIMl1bQ0gyXTEpW0NASF0oW0NIM10pW0NIMl1bTkhdQyg9TylbTkhdYzJuW2NIXVtjSF1zMg==

> <s_epik_cmdline>
J2VwaWtfcHl0aG9uJywgJy1waCcsICc3LjAnLCAnLXRuJywgJzgnLCAnLW1hJywgJzIwMCcsICctbWV0YWxfYmluZGluZycsICctaW1hZScsICc8aW5maWxlLm1hZT4nLCAnLW9tYWUnLCAnPG91dGZpbGUubWFlPic=

> <r_lp_tautomer_probability>
0.999

> <r_epik_Ionization_Penalty>
7.06996

> <r_epik_Ionization_Penalty_Charging>
5.92347

> <r_epik_Ionization_Penalty_Neutral>
1.14649

> <r_epik_State_Penalty>
6.04391

> <r_epik_Charging_Adjusted_Penalty>
11.9674

> <i_epik_Tot_Q>
0

> <i_epik_Tot_abs_Q>
2

> <r_epik_Metal_State_Penalty>
2.01291

> <b_epik_Metal_Only>
1

> <s_lp_Force_Field>
OPLS_2005

> <r_lp_Energy>
11.7698

> <b_lp_Chiralities_Consistent>
1

> <s_lp_Variant>
AV-unprocessed.smi:1971-8

> <Gold.Version>
5.8.1

> <Gold.Id.Protein>
6NUR|6NUR_protein|mol2

> <Gold.PLP.Fitness>
47.3870

> <Gold.PLP.PLP>
-34.3943

> <Gold.PLP.part.hbond>
-4.3129

> <Gold.PLP.part.metal>
0.0000

> <Gold.PLP.part.buried>
-5.7364

> <Gold.PLP.part.nonpolar>
-24.7993

> <Gold.PLP.part.repulsive>
0.2371

> <Gold.PLP.ligand.clash>
0.0000

> <Gold.PLP.ligand.torsion>
1.0718

> <Gold.PLP.Chemscore.Hbond>
5.0023

> <Gold.PLP.Chemscore.CHOScore>
0.0000

> <Gold.PLP.Chemscore.Metal>
0.0000

> <Gold.Chemscore.Hbonds>
donor molecule, donor type, donor heavy atom, donor atom, acceptor molecule, acceptor atom, score
      L1  H     3    43       P1  8028  2.00
      P1  H  6896  6909       L1    13  1.14
      P1  H  6931  6943       L1    15  0.34

> <Gold.PLP.Chemscore.Internal.Correction>
0.1292

> <Gold.Rescore>
     Score         DG    S(hbond)    S(metal)    S(lipo)     H(rot)  DE(clash)    DE(int)     intcor
     15.28     -18.54       2.83        0.00      69.04       1.75       0.08       3.18       ----

> <Gold.Chemscore.Fitness>
15.2781

> <Gold.Chemscore.DG>
-18.5383

> <Gold.Chemscore.ZeroCoef>
-5.4800

> <Gold.Chemscore.Hbond>
2.8329

> <Gold.Chemscore.Metal>
0.0000

> <Gold.Chemscore.Lipo>
69.0396

> <Gold.Chemscore.Internal_Hbond>
0.0000

> <Gold.Chemscore.DEClash>
0.0811

> <Gold.Chemscore.DEInternal>
3.1790

> <Gold.Chemscore.Rot>
1.7505

> <Gold.Chemscore.Internal.Correction>
   9.000000E+99

> <Gold.Chemscore.Hbonds>
donor molecule, donor type, donor heavy atom, donor atom, acceptor molecule, acceptor atom, score
      L1  H     3    43       P1  8028  0.98
      P1  H  6896  6909       L1    13  0.30
      P1  H  6931  6943       L1    15  0.30
      P1  H  6934  6947       L1    12  0.01

> <Gold.Chemscore.Hbond.Weighted>
-9.4620

> <Gold.Chemscore.Metal.Weighted>
-0.0000

> <Gold.Chemscore.Lipo.Weighted>
-8.0776

> <Gold.Chemscore.Internal_Hbond.Weighted>
0.0000

> <Gold.Chemscore.DEClash.Weighted>
0.0811

> <Gold.Chemscore.DEInternal.Weighted>
3.1790

> <Gold.Chemscore.Rot.Weighted>
4.4813

> <Gold.Chemscore.Internal.Correction.Weighted>
   9.000000E+99

> <Gold.Protein.RotatedTorsions>
[ 6907 6896 6895 6894 ] final   71.86 input  -60.11 | X-H torsion
[ 7974 7965 7964 7962 ] final   12.62 input  175.53 | X-H torsion
[ 8008 7997 7996 7995 ] final  -92.23 input   59.86 | X-H torsion
[ 10167 10162 10161 10158 ] final  103.74 input  -65.29 | X-H torsion
[ 10718 10713 10712 10709 ] final   38.43 input   66.30 | X-H torsion
[ 10763 10752 10751 10750 ] final -109.60 input  -60.55 | X-H torsion
[ 11005 11000 10999 10996 ] final -164.43 input  -57.11 | X-H torsion

> <Gold.Protein.ActiveResidues>
 VAL166  LYS551  ARG553  GLY616  TRP617  ASP618  TYR619  PRO620  LYS621  CYS622 
 ASP623  PHE694  ASN695  SER759  ASP760  ASP761  ALA762  ILE779  LEU786  VAL792 
 PHE793  MET794  SER795  GLU796  ALA797  LYS798  CYS799  TRP800  GLU811  SER814 

> <Gold.Protein.RotatedAtoms>
  152.4834  134.4658  159.9619 H   0  0  0  0  0  0  0  0  0  0  0  0  # atno 6907 bound_to 6896
  151.4659  133.3575  159.2824 H   0  0  0  0  0  0  0  0  0  0  0  0  # atno 6908 bound_to 6896
  150.8925  134.8355  159.7364 H   0  0  0  0  0  0  0  0  0  0  0  0  # atno 6909 bound_to 6896
  146.2347  139.9309  142.8496 H   0  0  0  0  0  0  0  0  0  0  0  0  # atno 7974 bound_to 7965
  154.7205  140.0511  157.0635 H   0  0  0  0  0  0  0  0  0  0  0  0  # atno 8008 bound_to 7997
  155.0434  140.3171  155.4697 H   0  0  0  0  0  0  0  0  0  0  0  0  # atno 8009 bound_to 7997
  156.2815  140.2129  156.5558 H   0  0  0  0  0  0  0  0  0  0  0  0  # atno 8010 bound_to 7997
  139.7237  144.7052  151.0832 H   0  0  0  0  0  0  0  0  0  0  0  0  # atno 10167 bound_to 10162
  157.3588  130.7638  149.7032 H   0  0  0  0  0  0  0  0  0  0  0  0  # atno 10718 bound_to 10713
  154.8202  135.4595  154.0757 H   0  0  0  0  0  0  0  0  0  0  0  0  # atno 10763 bound_to 10752
  153.2117  135.6882  153.8112 H   0  0  0  0  0  0  0  0  0  0  0  0  # atno 10764 bound_to 10752
  153.7561  135.3291  155.3306 H   0  0  0  0  0  0  0  0  0  0  0  0  # atno 10765 bound_to 10752
  140.5870  134.5083  157.5187 H   0  0  0  0  0  0  0  0  0  0  0  0  # atno 11005 bound_to 11000
  145.2045  140.9869  143.4136 LP  0  0  0  0  0  0  0  0  0  0  0  0  # atno 17320 bound_to 7965
  144.9745  139.3846  143.6292 LP  0  0  0  0  0  0  0  0  0  0  0  0  # atno 17321 bound_to 7965
  140.7758  143.5133  150.9626 LP  0  0  0  0  0  0  0  0  0  0  0  0  # atno 17342 bound_to 10162
  139.8820  143.7060  152.3156 LP  0  0  0  0  0  0  0  0  0  0  0  0  # atno 17343 bound_to 10162
  155.9734  130.4120  150.4008 LP  0  0  0  0  0  0  0  0  0  0  0  0  # atno 17370 bound_to 10713
  157.2082  131.0454  151.2613 LP  0  0  0  0  0  0  0  0  0  0  0  0  # atno 17371 bound_to 10713
  139.9291  134.7998  156.0982 LP  0  0  0  0  0  0  0  0  0  0  0  0  # atno 17394 bound_to 11000
  141.0959  133.6695  156.2645 LP  0  0  0  0  0  0  0  0  0  0  0  0  # atno 17395 bound_to 11000

$$$$
