AV-unprocessed.smi:1491|AV-procd|sdf|6034|dock1
  -GOLD-   22720 6133D 1   1.00000     0.00000
 Structure written by MMmdl.
 38 39  0  0  0  0  0  0  0  0  1 V2000
  145.3458  137.9182  153.7133 O   0  0  0  0  0  0  0  0  0  0  0  0
  146.3600  137.5225  153.1384 C   0  0  0  0  0  0  0  0  0  0  0  0
  147.5994  137.9448  153.4269 N   0  0  0  0  0  0  0  0  0  0  0  0
  147.9403  138.9014  154.4758 C   0  0  0  0  0  0  0  0  0  0  0  0
  149.2307  139.6771  154.1513 C   0  0  0  0  0  0  0  0  0  0  0  0
  150.4254  138.9945  154.6129 N   0  0  0  0  0  0  0  0  0  0  0  0
  151.4673  139.5357  155.3548 C   0  0  0  0  0  0  0  0  0  0  0  0
  152.3782  138.5225  155.5503 C   0  0  0  0  0  0  0  0  0  0  0  0
  151.9173  137.3546  154.9476 N   0  0  0  0  0  0  0  0  0  0  0  0
  150.7558  137.7110  154.4145 C   0  0  0  0  0  0  0  0  0  0  0  0
  146.3658  136.6088  152.1580 N   0  0  0  0  0  0  0  0  0  0  0  0
  145.1926  135.9257  151.6206 C   0  0  2  0  0  0  0  0  0  0  0  0
  144.3764  135.3101  152.7737 C   0  0  0  0  0  0  0  0  0  0  0  0
  143.1795  134.5018  152.2472 C   0  0  0  0  0  0  0  0  0  0  0  0
  143.6359  133.4201  151.2532 C   0  0  1  0  0  0  0  0  0  0  0  0
  142.5073  132.7452  150.7394 O   0  0  0  0  0  0  0  0  0  0  0  0
  144.4384  134.0358  150.0942 C   0  0  0  0  0  0  0  0  0  0  0  0
  145.6366  134.8436  150.6181 C   0  0  0  0  0  0  0  0  0  0  0  0
  148.3671  137.5618  152.8949 H   0  0  0  0  0  0  0  0  0  0  0  0
  147.1114  139.6048  154.5570 H   0  0  0  0  0  0  0  0  0  0  0  0
  148.0166  138.4118  155.4484 H   0  0  0  0  0  0  0  0  0  0  0  0
  149.3137  139.8503  153.0774 H   0  0  0  0  0  0  0  0  0  0  0  0
  149.1998  140.6588  154.6248 H   0  0  0  0  0  0  0  0  0  0  0  0
  151.4774  140.5692  155.6676 H   0  0  0  0  0  0  0  0  0  0  0  0
  153.3222  138.5436  156.0745 H   0  0  0  0  0  0  0  0  0  0  0  0
  150.1330  137.0240  153.8603 H   0  0  0  0  0  0  0  0  0  0  0  0
  147.2568  136.3531  151.7584 H   0  0  0  0  0  0  0  0  0  0  0  0
  144.5508  136.6326  151.0911 H   0  0  0  0  0  0  0  0  0  0  0  0
  145.0148  134.6584  153.3722 H   0  0  0  0  0  0  0  0  0  0  0  0
  144.0229  136.0961  153.4425 H   0  0  0  0  0  0  0  0  0  0  0  0
  142.6486  134.0437  153.0825 H   0  0  0  0  0  0  0  0  0  0  0  0
  142.4726  135.1772  151.7630 H   0  0  0  0  0  0  0  0  0  0  0  0
  144.2558  132.6888  151.7739 H   0  0  0  0  0  0  0  0  0  0  0  0
  142.0590  133.3224  150.1402 H   0  0  0  0  0  0  0  0  0  0  0  0
  144.7887  133.2517  149.4218 H   0  0  0  0  0  0  0  0  0  0  0  0
  143.7948  134.6877  149.5016 H   0  0  0  0  0  0  0  0  0  0  0  0
  146.1626  135.3041  149.7809 H   0  0  0  0  0  0  0  0  0  0  0  0
  146.3469  134.1662  151.0942 H   0  0  0  0  0  0  0  0  0  0  0  0
  1  2  2  0  0  0  0
  2  3  1  0  0  0  0
  2 11  1  0  0  0  0
  3  4  1  0  0  0  0
  3 19  1  0  0  0  0
  4  5  1  0  0  0  0
  4 20  1  0  0  0  0
  4 21  1  0  0  0  0
  5  6  1  0  0  0  0
  5 22  1  0  0  0  0
  5 23  1  0  0  0  0
  6 10  1  0  0  0  0
  6  7  1  0  0  0  0
  7  8  2  0  0  0  0
  7 24  1  0  0  0  0
  8  9  1  0  0  0  0
  8 25  1  0  0  0  0
  9 10  2  0  0  0  0
 10 26  1  0  0  0  0
 11 12  1  0  0  0  0
 11 27  1  0  0  0  0
 12 18  1  0  0  0  0
 12 13  1  0  0  0  0
 12 28  1  0  0  0  0
 13 14  1  0  0  0  0
 13 29  1  0  0  0  0
 13 30  1  0  0  0  0
 14 15  1  0  0  0  0
 14 31  1  0  0  0  0
 14 32  1  0  0  0  0
 15 16  1  0  0  0  0
 15 17  1  0  0  0  0
 15 33  1  0  0  0  0
 16 34  1  0  0  0  0
 17 18  1  0  0  0  0
 17 35  1  0  0  0  0
 17 36  1  0  0  0  0
 18 37  1  0  0  0  0
 18 38  1  0  0  0  0
M  END
> <s_m_source_file>
AV-unprocessed.smi

> <i_m_source_file_index>
1491

> <i_lp_mmshare_version>
43012

> <i_f3d_flags>
0

> <s_epik_input>
W0NIMl0xW0NIMl1bQ0BIXShbT0hdKVtDSDJdW0NIMl1bQ0BIXTFbTkhdQyg9TylbTkhdW0NIMl1bQ0gyXW4yW2NIXVtjSF1uW2NIXTI=

> <s_epik_cmdline>
J2VwaWtfcHl0aG9uJywgJy1waCcsICc3LjAnLCAnLXRuJywgJzgnLCAnLW1hJywgJzIwMCcsICctbWV0YWxfYmluZGluZycsICctaW1hZScsICc8aW5maWxlLm1hZT4nLCAnLW9tYWUnLCAnPG91dGZpbGUubWFlPic=

> <r_lp_tautomer_probability>
1

> <r_epik_Ionization_Penalty>
0.623245

> <r_epik_Ionization_Penalty_Charging>
0.623187

> <r_epik_Ionization_Penalty_Neutral>
5.75214e-05

> <r_epik_State_Penalty>
0.639392

> <r_epik_Charging_Adjusted_Penalty>
1.26258

> <i_epik_Tot_Q>
0

> <i_epik_Tot_abs_Q>
0

> <r_epik_Metal_State_Penalty>
0.307266

> <b_epik_Metal_Only>
0

> <s_lp_Force_Field>
OPLS_2005

> <r_lp_Energy>
7.54437

> <b_lp_Chiralities_Consistent>
1

> <s_lp_Variant>
AV-unprocessed.smi:1491-3

> <Gold.Version>
5.8.1

> <Gold.Id.Protein>
6NUR|6NUR_protein|mol2

> <Gold.PLP.Fitness>
46.5803

> <Gold.PLP.PLP>
-32.7426

> <Gold.PLP.part.hbond>
-4.5678

> <Gold.PLP.part.metal>
0.0000

> <Gold.PLP.part.buried>
-2.1337

> <Gold.PLP.part.nonpolar>
-26.5844

> <Gold.PLP.part.repulsive>
0.3127

> <Gold.PLP.ligand.clash>
0.0000

> <Gold.PLP.ligand.torsion>
0.5098

> <Gold.PLP.Chemscore.Hbond>
3.8720

> <Gold.PLP.Chemscore.CHOScore>
1.0627

> <Gold.PLP.Chemscore.Metal>
0.0000

> <Gold.Chemscore.Hbonds>
donor molecule, donor type, donor heavy atom, donor atom, acceptor molecule, acceptor atom, score
      L1  H     3    19       P1  7948  0.96
      L1  H    11    27       P1  7948  1.00
      L1  H    16    34       P1 10186  1.00
      P1  H 10752 10763       L1     9  0.86
      L1  C    10    26       P1  7948  1.00
      L1  C    10    26       P1  7949  0.05

> <Gold.PLP.Chemscore.Internal.Correction>
0.0532

> <Gold.Rescore>
     Score         DG    S(hbond)    S(metal)    S(lipo)     H(rot)  DE(clash)    DE(int)     intcor
     17.78     -18.82       3.86        0.00      60.11       2.57       0.49       0.55       ----

> <Gold.Chemscore.Fitness>
17.7823

> <Gold.Chemscore.DG>
-18.8183

> <Gold.Chemscore.ZeroCoef>
-5.4800

> <Gold.Chemscore.Hbond>
3.8604

> <Gold.Chemscore.Metal>
0.0000

> <Gold.Chemscore.Lipo>
60.1148

> <Gold.Chemscore.Internal_Hbond>
0.0000

> <Gold.Chemscore.DEClash>
0.4904

> <Gold.Chemscore.DEInternal>
0.5457

> <Gold.Chemscore.Rot>
2.5738

> <Gold.Chemscore.Internal.Correction>
   9.000000E+99

> <Gold.Chemscore.Hbonds>
donor molecule, donor type, donor heavy atom, donor atom, acceptor molecule, acceptor atom, score
      L1  H     3    19       P1  7948  0.92
      L1  H    11    27       P1  7948  0.97
      L1  H    16    34       P1 10186  0.99
      P1  H 10752 10763       L1     9  0.79

> <Gold.Chemscore.Hbond.Weighted>
-12.8939

> <Gold.Chemscore.Metal.Weighted>
-0.0000

> <Gold.Chemscore.Lipo.Weighted>
-7.0334

> <Gold.Chemscore.Internal_Hbond.Weighted>
0.0000

> <Gold.Chemscore.DEClash.Weighted>
0.4904

> <Gold.Chemscore.DEInternal.Weighted>
0.5457

> <Gold.Chemscore.Rot.Weighted>
6.5890

> <Gold.Chemscore.Internal.Correction.Weighted>
   9.000000E+99

> <Gold.Protein.RotatedTorsions>
[ 6907 6896 6895 6894 ] final   92.00 input  -60.11 | X-H torsion
[ 7974 7965 7964 7962 ] final   77.83 input  175.53 | X-H torsion
[ 8008 7997 7996 7995 ] final  100.91 input   59.86 | X-H torsion
[ 10167 10162 10161 10158 ] final   64.15 input  -65.29 | X-H torsion
[ 10718 10713 10712 10709 ] final -178.47 input   66.30 | X-H torsion
[ 10763 10752 10751 10750 ] final   54.35 input  -60.55 | X-H torsion
[ 11005 11000 10999 10996 ] final -104.01 input  -57.11 | X-H torsion

> <Gold.Protein.ActiveResidues>
 VAL166  LYS551  ARG553  GLY616  TRP617  ASP618  TYR619  PRO620  LYS621  CYS622 
 ASP623  PHE694  ASN695  SER759  ASP760  ASP761  ALA762  ILE779  LEU786  VAL792 
 PHE793  MET794  SER795  GLU796  ALA797  LYS798  CYS799  TRP800  GLU811  SER814 

> <Gold.Protein.RotatedAtoms>
  152.5452  134.1570  159.8541 H   0  0  0  0  0  0  0  0  0  0  0  0  # atno 6907 bound_to 6896
  151.1592  133.4849  159.2602 H   0  0  0  0  0  0  0  0  0  0  0  0  # atno 6908 bound_to 6896
  151.1391  135.0181  159.8672 H   0  0  0  0  0  0  0  0  0  0  0  0  # atno 6909 bound_to 6896
  145.6850  139.2535  143.1792 H   0  0  0  0  0  0  0  0  0  0  0  0  # atno 7974 bound_to 7965
  156.1249  140.3206  155.8262 H   0  0  0  0  0  0  0  0  0  0  0  0  # atno 8008 bound_to 7997
  155.4438  140.0527  157.3025 H   0  0  0  0  0  0  0  0  0  0  0  0  # atno 8009 bound_to 7997
  154.4855  140.2070  155.9680 H   0  0  0  0  0  0  0  0  0  0  0  0  # atno 8010 bound_to 7997
  140.1253  144.4694  150.6896 H   0  0  0  0  0  0  0  0  0  0  0  0  # atno 10167 bound_to 10162
  156.8448  130.9698  151.3097 H   0  0  0  0  0  0  0  0  0  0  0  0  # atno 10718 bound_to 10713
  152.9804  135.5748  154.4889 H   0  0  0  0  0  0  0  0  0  0  0  0  # atno 10763 bound_to 10752
  154.4427  135.2776  155.1838 H   0  0  0  0  0  0  0  0  0  0  0  0  # atno 10764 bound_to 10752
  154.3500  135.6211  153.5691 H   0  0  0  0  0  0  0  0  0  0  0  0  # atno 10765 bound_to 10752
  141.1120  133.8688  157.1558 H   0  0  0  0  0  0  0  0  0  0  0  0  # atno 11005 bound_to 11000
  146.0931  140.7632  142.9585 LP  0  0  0  0  0  0  0  0  0  0  0  0  # atno 17320 bound_to 7965
  144.7014  140.3669  143.7153 LP  0  0  0  0  0  0  0  0  0  0  0  0  # atno 17321 bound_to 7965
  140.6849  143.2345  151.5288 LP  0  0  0  0  0  0  0  0  0  0  0  0  # atno 17342 bound_to 10162
  139.5548  144.2304  152.1592 LP  0  0  0  0  0  0  0  0  0  0  0  0  # atno 17343 bound_to 10162
  157.6336  130.8749  149.9318 LP  0  0  0  0  0  0  0  0  0  0  0  0  # atno 17370 bound_to 10713
  156.0861  130.3668  150.0485 LP  0  0  0  0  0  0  0  0  0  0  0  0  # atno 17371 bound_to 10713
  140.0019  135.0024  157.0208 LP  0  0  0  0  0  0  0  0  0  0  0  0  # atno 17394 bound_to 11000
  140.4750  134.1348  155.7208 LP  0  0  0  0  0  0  0  0  0  0  0  0  # atno 17395 bound_to 11000

$$$$
