AV-unprocessed.smi:1770|AV-procd|sdf|7155|dock7
  -GOLD-   22720 8393D 1   1.00000     0.00000
 Structure written by MMmdl.
 37 38  0  0  0  0  0  0  0  0  1 V2000
  151.7118  145.4665  159.7826 C   0  0  0  0  0  0  0  0  0  0  0  0
  151.7452  144.1366  159.2964 O   0  0  0  0  0  0  0  0  0  0  0  0
  150.9447  143.9606  158.1346 C   0  0  0  0  0  0  0  0  0  0  0  0
  151.1589  142.5610  157.5494 C   0  0  0  0  0  0  0  0  0  0  0  0
  151.9286  141.7900  158.1202 O   0  0  0  0  0  0  0  0  0  0  0  0
  150.4509  142.2616  156.4444 N   0  0  0  0  0  0  0  0  0  0  0  0
  150.4098  141.0616  155.6761 C   0  0  0  0  0  0  0  0  0  0  0  0
  151.5184  140.1920  155.5279 C   0  0  0  0  0  0  0  0  0  0  0  0
  151.3775  139.0256  154.7547 C   0  0  0  0  0  0  0  0  0  0  0  0
  150.1343  138.7693  154.1507 C   0  0  0  0  0  0  0  0  0  0  0  0
  149.0738  139.5932  154.2682 N   0  0  0  0  0  0  0  0  0  0  0  0
  149.2018  140.7215  155.0080 C   0  0  0  0  0  0  0  0  0  0  0  0
  148.0809  141.5721  155.0860 N   0  0  0  0  0  0  0  0  0  0  0  0
  147.3946  141.7609  153.8093 C   0  0  0  0  0  0  0  0  0  0  0  0
  146.4419  142.9664  153.8781 C   0  0  0  0  0  0  0  0  0  0  0  0
  145.4662  142.8299  155.0584 C   0  0  0  0  0  0  0  0  0  0  0  0
  146.2402  142.6004  156.3673 C   0  0  0  0  0  0  0  0  0  0  0  0
  147.1976  141.4028  156.2391 C   0  0  0  0  0  0  0  0  0  0  0  0
  152.3384  145.5472  160.6709 H   0  0  0  0  0  0  0  0  0  0  0  0
  150.6981  145.7607  160.0567 H   0  0  0  0  0  0  0  0  0  0  0  0
  152.0910  146.1677  159.0381 H   0  0  0  0  0  0  0  0  0  0  0  0
  149.8897  144.0895  158.3811 H   0  0  0  0  0  0  0  0  0  0  0  0
  151.2054  144.7024  157.3782 H   0  0  0  0  0  0  0  0  0  0  0  0
  149.8118  142.9815  156.1385 H   0  0  0  0  0  0  0  0  0  0  0  0
  152.4761  140.3953  155.9795 H   0  0  0  0  0  0  0  0  0  0  0  0
  152.2052  138.3440  154.6267 H   0  0  0  0  0  0  0  0  0  0  0  0
  149.9892  137.8831  153.5508 H   0  0  0  0  0  0  0  0  0  0  0  0
  148.1105  141.9044  152.9996 H   0  0  0  0  0  0  0  0  0  0  0  0
  146.8336  140.8556  153.5748 H   0  0  0  0  0  0  0  0  0  0  0  0
  147.0232  143.8833  153.9872 H   0  0  0  0  0  0  0  0  0  0  0  0
  145.8888  143.0593  152.9431 H   0  0  0  0  0  0  0  0  0  0  0  0
  144.8446  143.7221  155.1389 H   0  0  0  0  0  0  0  0  0  0  0  0
  144.7902  141.9927  154.8804 H   0  0  0  0  0  0  0  0  0  0  0  0
  146.8103  143.4966  156.6153 H   0  0  0  0  0  0  0  0  0  0  0  0
  145.5454  142.4371  157.1913 H   0  0  0  0  0  0  0  0  0  0  0  0
  146.6246  140.4815  156.1257 H   0  0  0  0  0  0  0  0  0  0  0  0
  147.7912  141.3046  157.1490 H   0  0  0  0  0  0  0  0  0  0  0  0
  1  2  1  0  0  0  0
  1 19  1  0  0  0  0
  1 20  1  0  0  0  0
  1 21  1  0  0  0  0
  2  3  1  0  0  0  0
  3  4  1  0  0  0  0
  3 22  1  0  0  0  0
  3 23  1  0  0  0  0
  4  5  2  0  0  0  0
  4  6  1  0  0  0  0
  6  7  1  0  0  0  0
  6 24  1  0  0  0  0
  7 12  1  0  0  0  0
  7  8  2  0  0  0  0
  8  9  1  0  0  0  0
  8 25  1  0  0  0  0
  9 10  2  0  0  0  0
  9 26  1  0  0  0  0
 10 11  1  0  0  0  0
 10 27  1  0  0  0  0
 11 12  2  0  0  0  0
 12 13  1  0  0  0  0
 13 18  1  0  0  0  0
 13 14  1  0  0  0  0
 14 15  1  0  0  0  0
 14 28  1  0  0  0  0
 14 29  1  0  0  0  0
 15 16  1  0  0  0  0
 15 30  1  0  0  0  0
 15 31  1  0  0  0  0
 16 17  1  0  0  0  0
 16 32  1  0  0  0  0
 16 33  1  0  0  0  0
 17 18  1  0  0  0  0
 17 34  1  0  0  0  0
 17 35  1  0  0  0  0
 18 36  1  0  0  0  0
 18 37  1  0  0  0  0
M  END
> <s_m_source_file>
AV-unprocessed.smi

> <i_m_source_file_index>
1770

> <i_lp_mmshare_version>
43012

> <i_f3d_flags>
0

> <s_epik_input>
W0NIM11PW0NIMl1DKD1PKVtOSF1jMVtjSF1bY0hdW2NIXW5jMU4yW0NIMl1bQ0gyXVtDSDJdW0NIMl1bQ0gyXTI=

> <s_epik_cmdline>
J2VwaWtfcHl0aG9uJywgJy1waCcsICc3LjAnLCAnLXRuJywgJzgnLCAnLW1hJywgJzIwMCcsICctbWV0YWxfYmluZGluZycsICctaW1hZScsICc8aW5maWxlLm1hZT4nLCAnLW9tYWUnLCAnPG91dGZpbGUubWFlPic=

> <r_lp_tautomer_probability>
1

> <r_epik_Ionization_Penalty>
0.0272113

> <r_epik_Ionization_Penalty_Charging>
0

> <r_epik_Ionization_Penalty_Neutral>
0.0272113

> <r_epik_State_Penalty>
0.0213264

> <r_epik_Charging_Adjusted_Penalty>
0.0213264

> <i_epik_Tot_Q>
0

> <i_epik_Tot_abs_Q>
0

> <r_epik_Metal_State_Penalty>
0.0203232

> <b_epik_Metal_Only>
0

> <s_lp_Force_Field>
OPLS_2005

> <r_lp_Energy>
23.4593

> <b_lp_Chiralities_Consistent>
1

> <s_lp_Variant>
AV-unprocessed.smi:1770-1

> <Gold.Version>
5.8.1

> <Gold.Id.Protein>
6NUR|6NUR_protein|mol2

> <Gold.PLP.Fitness>
42.0217

> <Gold.PLP.PLP>
-37.2995

> <Gold.PLP.part.hbond>
-1.0000

> <Gold.PLP.part.metal>
0.0000

> <Gold.PLP.part.buried>
-4.9506

> <Gold.PLP.part.nonpolar>
-31.3304

> <Gold.PLP.part.repulsive>
0.3823

> <Gold.PLP.ligand.clash>
0.0000

> <Gold.PLP.ligand.torsion>
0.7926

> <Gold.PLP.Chemscore.Hbond>
1.0000

> <Gold.PLP.Chemscore.CHOScore>
1.0000

> <Gold.PLP.Chemscore.Metal>
0.0000

> <Gold.Chemscore.Hbonds>
donor molecule, donor type, donor heavy atom, donor atom, acceptor molecule, acceptor atom, score
      L1  H     6    24       P1  8028  1.00
      L1  C    10    27       P1  7948  0.98

> <Gold.PLP.Chemscore.Internal.Correction>
0.3075

> <Gold.Rescore>
     Score         DG    S(hbond)    S(metal)    S(lipo)     H(rot)  DE(clash)    DE(int)     intcor
     13.29     -14.13       0.97        0.00      76.86       1.39       0.06       0.78       ----

> <Gold.Chemscore.Fitness>
13.2850

> <Gold.Chemscore.DG>
-14.1342

> <Gold.Chemscore.ZeroCoef>
-5.4800

> <Gold.Chemscore.Hbond>
0.9670

> <Gold.Chemscore.Metal>
0.0000

> <Gold.Chemscore.Lipo>
76.8573

> <Gold.Chemscore.Internal_Hbond>
0.0000

> <Gold.Chemscore.DEClash>
0.0642

> <Gold.Chemscore.DEInternal>
0.7850

> <Gold.Chemscore.Rot>
1.3937

> <Gold.Chemscore.Internal.Correction>
   9.000000E+99

> <Gold.Chemscore.Hbonds>
donor molecule, donor type, donor heavy atom, donor atom, acceptor molecule, acceptor atom, score
      L1  H     6    24       P1  8028  0.93

> <Gold.Chemscore.Hbond.Weighted>
-3.2297

> <Gold.Chemscore.Metal.Weighted>
-0.0000

> <Gold.Chemscore.Lipo.Weighted>
-8.9923

> <Gold.Chemscore.Internal_Hbond.Weighted>
0.0000

> <Gold.Chemscore.DEClash.Weighted>
0.0642

> <Gold.Chemscore.DEInternal.Weighted>
0.7850

> <Gold.Chemscore.Rot.Weighted>
3.5678

> <Gold.Chemscore.Internal.Correction.Weighted>
   9.000000E+99

> <Gold.Protein.RotatedTorsions>
[ 6907 6896 6895 6894 ] final  -12.67 input  -60.11 | X-H torsion
[ 7974 7965 7964 7962 ] final -100.33 input  175.53 | X-H torsion
[ 8008 7997 7996 7995 ] final   16.03 input   59.86 | X-H torsion
[ 10167 10162 10161 10158 ] final -116.48 input  -65.29 | X-H torsion
[ 10718 10713 10712 10709 ] final   61.91 input   66.30 | X-H torsion
[ 10763 10752 10751 10750 ] final -133.49 input  -60.55 | X-H torsion
[ 11005 11000 10999 10996 ] final  -93.62 input  -57.11 | X-H torsion

> <Gold.Protein.ActiveResidues>
 VAL166  LYS551  ARG553  GLY616  TRP617  ASP618  TYR619  PRO620  LYS621  CYS622 
 ASP623  PHE694  ASN695  SER759  ASP760  ASP761  ALA762  ILE779  LEU786  VAL792 
 PHE793  MET794  SER795  GLU796  ALA797  LYS798  CYS799  TRP800  GLU811  SER814 

> <Gold.Protein.RotatedAtoms>
  151.3669  135.0915  159.9452 H   0  0  0  0  0  0  0  0  0  0  0  0  # atno 6907 bound_to 6896
  152.5146  133.9203  159.7541 H   0  0  0  0  0  0  0  0  0  0  0  0  # atno 6908 bound_to 6896
  150.9609  133.6392  159.2784 H   0  0  0  0  0  0  0  0  0  0  0  0  # atno 6909 bound_to 6896
  145.2960  140.9365  143.2851 H   0  0  0  0  0  0  0  0  0  0  0  0  # atno 7974 bound_to 7965
  154.8711  140.2959  155.5481 H   0  0  0  0  0  0  0  0  0  0  0  0  # atno 8008 bound_to 7997
  156.3021  140.2460  156.3633 H   0  0  0  0  0  0  0  0  0  0  0  0  # atno 8009 bound_to 7997
  154.8816  140.0397  157.1775 H   0  0  0  0  0  0  0  0  0  0  0  0  # atno 8010 bound_to 7997
  140.0787  143.4808  152.1938 H   0  0  0  0  0  0  0  0  0  0  0  0  # atno 10167 bound_to 10162
  157.5863  130.9021  149.9521 H   0  0  0  0  0  0  0  0  0  0  0  0  # atno 10718 bound_to 10713
  154.8732  135.3764  154.4580 H   0  0  0  0  0  0  0  0  0  0  0  0  # atno 10763 bound_to 10752
  153.5251  135.7028  153.5717 H   0  0  0  0  0  0  0  0  0  0  0  0  # atno 10764 bound_to 10752
  153.3946  135.3963  155.1912 H   0  0  0  0  0  0  0  0  0  0  0  0  # atno 10765 bound_to 10752
  141.1492  133.7900  157.0184 H   0  0  0  0  0  0  0  0  0  0  0  0  # atno 11005 bound_to 11000
  144.9133  139.4501  143.6576 LP  0  0  0  0  0  0  0  0  0  0  0  0  # atno 17320 bound_to 7965
  146.3169  139.7954  142.8977 LP  0  0  0  0  0  0  0  0  0  0  0  0  # atno 17321 bound_to 7965
  139.5792  144.7502  151.3684 LP  0  0  0  0  0  0  0  0  0  0  0  0  # atno 17342 bound_to 10162
  140.7089  143.7443  150.7530 LP  0  0  0  0  0  0  0  0  0  0  0  0  # atno 17343 bound_to 10162
  156.0912  130.3663  150.0391 LP  0  0  0  0  0  0  0  0  0  0  0  0  # atno 17370 bound_to 10713
  156.8522  130.9463  151.3624 LP  0  0  0  0  0  0  0  0  0  0  0  0  # atno 17371 bound_to 10713
  140.0832  134.9636  157.1657 LP  0  0  0  0  0  0  0  0  0  0  0  0  # atno 17394 bound_to 11000
  140.3548  134.2559  155.7194 LP  0  0  0  0  0  0  0  0  0  0  0  0  # atno 17395 bound_to 11000

$$$$
