AV-unprocessed.smi:870|AV-procd|sdf|4010|dock7
  -GOLD-   22720 1503D 1   1.00000     0.00000
 Structure written by MMmdl.
 47 49  0  0  0  0  0  0  0  0  2 V2000
  148.7085  141.2096  153.4890 C   0  0  0  0  0  0  0  0  0  0  0  0
  149.7809  141.1885  154.4149 O   0  0  0  0  0  0  0  0  0  0  0  0
  149.3785  140.7471  155.7014 C   0  0  0  0  0  0  0  0  0  0  0  0
  150.2691  141.2766  156.7774 C   0  0  0  0  0  0  0  0  0  0  0  0
  150.5900  142.5856  156.9826 N   0  3  0  0  0  0  0  0  0  0  0  0
  151.4431  142.6975  158.0812 C   0  0  0  0  0  0  0  0  0  0  0  0
  152.0307  143.8128  158.6704 C   0  0  0  0  0  0  0  0  0  0  0  0
  152.8546  143.5761  159.7904 C   0  0  0  0  0  0  0  0  0  0  0  0
  153.0687  142.2719  160.2825 C   0  0  0  0  0  0  0  0  0  0  0  0
  152.4679  141.1489  159.6762 C   0  0  0  0  0  0  0  0  0  0  0  0
  151.6543  141.3922  158.5702 C   0  0  0  0  0  0  0  0  0  0  0  0
  150.9112  140.5498  157.7368 N   0  0  0  0  0  0  0  0  0  0  0  0
  150.9178  139.1009  157.9910 C   0  0  0  0  0  0  0  0  0  0  0  0
  149.5431  138.5630  158.4365 C   0  0  1  0  0  0  0  0  0  0  0  0
  148.7747  138.2619  157.2883 O   0  0  0  0  0  0  0  0  0  0  0  0
  149.6751  137.2880  159.2832 C   0  0  0  0  0  0  0  0  0  0  0  0
  148.5066  137.1490  160.0800 O   0  0  0  0  0  0  0  0  0  0  0  0
  147.9798  135.8868  160.2630 C   0  0  0  0  0  0  0  0  0  0  0  0
  148.1076  134.8353  159.3192 C   0  0  0  0  0  0  0  0  0  0  0  0
  147.5420  133.5716  159.5744 C   0  0  0  0  0  0  0  0  0  0  0  0
  146.8435  133.3400  160.7725 C   0  0  0  0  0  0  0  0  0  0  0  0
  146.7116  134.3741  161.7166 C   0  0  0  0  0  0  0  0  0  0  0  0
  147.2761  135.6426  161.4658 C   0  0  0  0  0  0  0  0  0  0  0  0
  147.1231  136.7471  162.4950 C   0  0  0  0  0  0  0  0  0  0  0  0
  149.0655  141.5639  152.5219 H   0  0  0  0  0  0  0  0  0  0  0  0
  147.9137  141.8792  153.8201 H   0  0  0  0  0  0  0  0  0  0  0  0
  148.2898  140.2123  153.3485 H   0  0  0  0  0  0  0  0  0  0  0  0
  148.3563  141.0711  155.9013 H   0  0  0  0  0  0  0  0  0  0  0  0
  149.3924  139.6569  155.7427 H   0  0  0  0  0  0  0  0  0  0  0  0
  151.8681  144.8126  158.2952 H   0  0  0  0  0  0  0  0  0  0  0  0
  153.3317  144.4114  160.2823 H   0  0  0  0  0  0  0  0  0  0  0  0
  153.7061  142.1294  161.1432 H   0  0  0  0  0  0  0  0  0  0  0  0
  152.6364  140.1539  160.0612 H   0  0  0  0  0  0  0  0  0  0  0  0
  151.2403  138.6035  157.0754 H   0  0  0  0  0  0  0  0  0  0  0  0
  151.6824  138.8881  158.7394 H   0  0  0  0  0  0  0  0  0  0  0  0
  149.0258  139.3310  159.0127 H   0  0  0  0  0  0  0  0  0  0  0  0
  148.5057  137.3570  157.3389 H   0  0  0  0  0  0  0  0  0  0  0  0
  149.8386  136.4162  158.6469 H   0  0  0  0  0  0  0  0  0  0  0  0
  150.5355  137.3843  159.9476 H   0  0  0  0  0  0  0  0  0  0  0  0
  148.6369  134.9714  158.3886 H   0  0  0  0  0  0  0  0  0  0  0  0
  147.6452  132.7782  158.8490 H   0  0  0  0  0  0  0  0  0  0  0  0
  146.4099  132.3701  160.9680 H   0  0  0  0  0  0  0  0  0  0  0  0
  146.1739  134.1888  162.6350 H   0  0  0  0  0  0  0  0  0  0  0  0
  146.5434  136.4130  163.3559 H   0  0  0  0  0  0  0  0  0  0  0  0
  146.6135  137.6058  162.0572 H   0  0  0  0  0  0  0  0  0  0  0  0
  148.1015  137.0713  162.8503 H   0  0  0  0  0  0  0  0  0  0  0  0
  150.2440  143.3439  156.4088 H   0  0  0  0  0  0  0  0  0  0  0  0
  1  2  1  0  0  0  0
  1 25  1  0  0  0  0
  1 26  1  0  0  0  0
  1 27  1  0  0  0  0
  2  3  1  0  0  0  0
  3  4  1  0  0  0  0
  3 28  1  0  0  0  0
  3 29  1  0  0  0  0
  4 12  1  0  0  0  0
  4  5  2  0  0  0  0
  5  6  1  0  0  0  0
  5 47  1  0  0  0  0
  6 11  2  0  0  0  0
  6  7  1  0  0  0  0
  7  8  2  0  0  0  0
  7 30  1  0  0  0  0
  8  9  1  0  0  0  0
  8 31  1  0  0  0  0
  9 10  2  0  0  0  0
  9 32  1  0  0  0  0
 10 11  1  0  0  0  0
 10 33  1  0  0  0  0
 11 12  1  0  0  0  0
 12 13  1  0  0  0  0
 13 14  1  0  0  0  0
 13 34  1  0  0  0  0
 13 35  1  0  0  0  0
 14 15  1  0  0  0  0
 14 16  1  0  0  0  0
 14 36  1  0  0  0  0
 15 37  1  0  0  0  0
 16 17  1  0  0  0  0
 16 38  1  0  0  0  0
 16 39  1  0  0  0  0
 17 18  1  0  0  0  0
 18 23  1  0  0  0  0
 18 19  2  0  0  0  0
 19 20  1  0  0  0  0
 19 40  1  0  0  0  0
 20 21  2  0  0  0  0
 20 41  1  0  0  0  0
 21 22  1  0  0  0  0
 21 42  1  0  0  0  0
 22 23  2  0  0  0  0
 22 43  1  0  0  0  0
 23 24  1  0  0  0  0
 24 44  1  0  0  0  0
 24 45  1  0  0  0  0
 24 46  1  0  0  0  0
M  CHG  1   5   1
M  END
> <s_m_source_file>
AV-unprocessed.smi

> <i_m_source_file_index>
870

> <i_lp_mmshare_version>
43012

> <i_f3d_flags>
0

> <s_epik_input>
W2NIXTFbY0hdW2NIXVtjSF1jKGMxMiluKGMobjIpW0NIMl1PW0NIM10pW0NIMl1bQ0BIXShbT0hdKVtDSDJdT2MzW2NIXVtjSF1bY0hdW2NIXWMzW0NIM10=

> <s_epik_cmdline>
J2VwaWtfcHl0aG9uJywgJy1waCcsICc3LjAnLCAnLXRuJywgJzgnLCAnLW1hJywgJzIwMCcsICctbWV0YWxfYmluZGluZycsICctaW1hZScsICc8aW5maWxlLm1hZT4nLCAnLW9tYWUnLCAnPG91dGZpbGUubWFlPic=

> <r_lp_tautomer_probability>
1

> <r_epik_Ionization_Penalty>
1.55338

> <r_epik_Ionization_Penalty_Charging>
1.55338

> <r_epik_Ionization_Penalty_Neutral>
2.3993e-06

> <r_epik_State_Penalty>
1.64778

> <r_epik_Charging_Adjusted_Penalty>
3.20115

> <i_epik_Tot_Q>
1

> <i_epik_Tot_abs_Q>
1

> <r_epik_Metal_State_Penalty>
5.70266

> <b_epik_Metal_Only>
0

> <s_lp_Force_Field>
OPLS_2005

> <r_lp_Energy>
19.1039

> <b_lp_Chiralities_Consistent>
1

> <s_lp_Variant>
AV-unprocessed.smi:870-4

> <Gold.Version>
5.8.1

> <Gold.Id.Protein>
6NUR|6NUR_protein|mol2

> <Gold.PLP.Fitness>
56.2866

> <Gold.PLP.PLP>
-51.1243

> <Gold.PLP.part.hbond>
-2.9130

> <Gold.PLP.part.metal>
0.0000

> <Gold.PLP.part.buried>
-5.2848

> <Gold.PLP.part.nonpolar>
-43.0340

> <Gold.PLP.part.repulsive>
0.1638

> <Gold.PLP.ligand.clash>
0.0000

> <Gold.PLP.ligand.torsion>
1.4105

> <Gold.PLP.Chemscore.Hbond>
2.6400

> <Gold.PLP.Chemscore.CHOScore>
0.0000

> <Gold.PLP.Chemscore.Metal>
0.0000

> <Gold.Chemscore.Hbonds>
donor molecule, donor type, donor heavy atom, donor atom, acceptor molecule, acceptor atom, score
      L1  H     5    47       P1  8028  1.82
      P1  H  6931  6943       L1    17  0.38
      P1  H  7989  7998       L1     2  0.44

> <Gold.PLP.Chemscore.Internal.Correction>
0.0633

> <Gold.Rescore>
     Score         DG    S(hbond)    S(metal)    S(lipo)     H(rot)  DE(clash)    DE(int)     intcor
     18.87     -20.35       1.55        0.00     136.41       2.45       0.03       1.45       ----

> <Gold.Chemscore.Fitness>
18.8716

> <Gold.Chemscore.DG>
-20.3524

> <Gold.Chemscore.ZeroCoef>
-5.4800

> <Gold.Chemscore.Hbond>
1.5519

> <Gold.Chemscore.Metal>
0.0000

> <Gold.Chemscore.Lipo>
136.4074

> <Gold.Chemscore.Internal_Hbond>
0.0000

> <Gold.Chemscore.DEClash>
0.0269

> <Gold.Chemscore.DEInternal>
1.4539

> <Gold.Chemscore.Rot>
2.4494

> <Gold.Chemscore.Internal.Correction>
   9.000000E+99

> <Gold.Chemscore.Hbonds>
donor molecule, donor type, donor heavy atom, donor atom, acceptor molecule, acceptor atom, score
      L1  H     5    47       P1  8028  0.86
      P1  H  6931  6943       L1    17  0.12
      P1  H  6934  6947       L1    17  0.03
      P1  H  7989  7998       L1     2  0.34

> <Gold.Chemscore.Hbond.Weighted>
-5.1832

> <Gold.Chemscore.Metal.Weighted>
-0.0000

> <Gold.Chemscore.Lipo.Weighted>
-15.9597

> <Gold.Chemscore.Internal_Hbond.Weighted>
0.0000

> <Gold.Chemscore.DEClash.Weighted>
0.0269

> <Gold.Chemscore.DEInternal.Weighted>
1.4539

> <Gold.Chemscore.Rot.Weighted>
6.2704

> <Gold.Chemscore.Internal.Correction.Weighted>
   9.000000E+99

> <Gold.Protein.RotatedTorsions>
[ 6907 6896 6895 6894 ] final -172.13 input  -60.11 | X-H torsion
[ 7974 7965 7964 7962 ] final  -11.52 input  175.53 | X-H torsion
[ 8008 7997 7996 7995 ] final  113.06 input   59.86 | X-H torsion
[ 10167 10162 10161 10158 ] final  -56.72 input  -65.29 | X-H torsion
[ 10718 10713 10712 10709 ] final -165.51 input   66.30 | X-H torsion
[ 10763 10752 10751 10750 ] final   38.59 input  -60.55 | X-H torsion
[ 11005 11000 10999 10996 ] final  133.63 input  -57.11 | X-H torsion

> <Gold.Protein.ActiveResidues>
 VAL166  LYS551  ARG553  GLY616  TRP617  ASP618  TYR619  PRO620  LYS621  CYS622 
 ASP623  PHE694  ASN695  SER759  ASP760  ASP761  ALA762  ILE779  LEU786  VAL792 
 PHE793  MET794  SER795  GLU796  ALA797  LYS798  CYS799  TRP800  GLU811  SER814 

> <Gold.Protein.RotatedAtoms>
  151.5351  133.3442  159.2924 H   0  0  0  0  0  0  0  0  0  0  0  0  # atno 6907 bound_to 6896
  150.8570  134.7914  159.7064 H   0  0  0  0  0  0  0  0  0  0  0  0  # atno 6908 bound_to 6896
  152.4600  134.5213  159.9835 H   0  0  0  0  0  0  0  0  0  0  0  0  # atno 6909 bound_to 6896
  146.2184  140.2923  142.8369 H   0  0  0  0  0  0  0  0  0  0  0  0  # atno 7974 bound_to 7965
  156.2233  140.2987  156.0006 H   0  0  0  0  0  0  0  0  0  0  0  0  # atno 8008 bound_to 7997
  155.2423  140.0423  157.2993 H   0  0  0  0  0  0  0  0  0  0  0  0  # atno 8009 bound_to 7997
  154.5876  140.2392  155.7974 H   0  0  0  0  0  0  0  0  0  0  0  0  # atno 8010 bound_to 7997
  140.6300  143.2455  151.5265 H   0  0  0  0  0  0  0  0  0  0  0  0  # atno 10167 bound_to 10162
  156.6544  130.9020  151.3019 H   0  0  0  0  0  0  0  0  0  0  0  0  # atno 10718 bound_to 10713
  152.9996  135.6245  154.2329 H   0  0  0  0  0  0  0  0  0  0  0  0  # atno 10763 bound_to 10752
  154.2071  135.2801  155.2973 H   0  0  0  0  0  0  0  0  0  0  0  0  # atno 10764 bound_to 10752
  154.5637  135.5697  153.7089 H   0  0  0  0  0  0  0  0  0  0  0  0  # atno 10765 bound_to 10752
  139.9863  134.9531  156.9751 H   0  0  0  0  0  0  0  0  0  0  0  0  # atno 11005 bound_to 11000
  144.9118  140.7766  143.5803 LP  0  0  0  0  0  0  0  0  0  0  0  0  # atno 17320 bound_to 7965
  145.2854  139.1903  143.4768 LP  0  0  0  0  0  0  0  0  0  0  0  0  # atno 17321 bound_to 7965
  139.5515  144.2382  152.1539 LP  0  0  0  0  0  0  0  0  0  0  0  0  # atno 17342 bound_to 10162
  140.1624  144.5013  150.6625 LP  0  0  0  0  0  0  0  0  0  0  0  0  # atno 17343 bound_to 10162
  157.7130  130.9463  150.1156 LP  0  0  0  0  0  0  0  0  0  0  0  0  # atno 17370 bound_to 10713
  156.2059  130.3663  149.8730 LP  0  0  0  0  0  0  0  0  0  0  0  0  # atno 17371 bound_to 10713
  140.4995  134.1111  155.7248 LP  0  0  0  0  0  0  0  0  0  0  0  0  # atno 17394 bound_to 11000
  141.1528  133.8938  157.2055 LP  0  0  0  0  0  0  0  0  0  0  0  0  # atno 17395 bound_to 11000

$$$$
