AV-unprocessed.smi:1703|AV-procd|sdf|6856|dock2
  -GOLD-   22720 8 43D 1   1.00000     0.00000
 Structure written by MMmdl.
 48 50  0  0  0  0  0  0  0  0  1 V2000
  146.0676  143.1365  153.9642 C   0  0  0  0  0  0  0  0  0  0  0  0
  146.7462  141.9243  154.6099 C   0  0  2  0  0  0  0  0  0  0  0  0
  148.1694  142.2467  155.1050 C   0  0  0  0  0  0  0  0  0  0  0  0
  148.8379  141.0666  155.6495 N   0  0  0  0  0  0  0  0  0  0  0  0
  150.1987  141.3452  156.1128 C   0  0  0  0  0  0  0  0  0  0  0  0
  150.3040  142.2231  157.3758 C   0  0  1  0  0  0  0  0  0  0  0  0
  150.0225  141.4190  158.5043 O   0  0  0  0  0  0  0  0  0  0  0  0
  151.7117  142.8319  157.5250 C   0  0  0  0  0  0  0  0  0  0  0  0
  152.1622  142.8798  158.9105 N   0  0  0  0  0  0  0  0  0  0  0  0
  151.9796  143.8730  159.8175 C   0  0  0  0  0  0  0  0  0  0  0  0
  151.2326  145.1297  159.4699 C   0  0  0  0  0  0  0  0  0  0  0  0
  151.1562  146.0591  160.5316 O   0  0  0  0  0  0  0  0  0  0  0  0
  152.4942  143.6490  161.0291 N   0  0  0  0  0  0  0  0  0  0  0  0
  153.0683  142.4006  160.8928 C   0  0  0  0  0  0  0  0  0  0  0  0
  153.7747  141.6081  161.8258 C   0  0  0  0  0  0  0  0  0  0  0  0
  154.2741  140.3428  161.4538 C   0  0  0  0  0  0  0  0  0  0  0  0
  154.0738  139.8525  160.1472 C   0  0  0  0  0  0  0  0  0  0  0  0
  153.3728  140.6266  159.2024 C   0  0  0  0  0  0  0  0  0  0  0  0
  152.8779  141.8899  159.5780 C   0  0  0  0  0  0  0  0  0  0  0  0
  148.8381  140.0176  154.6358 C   0  0  0  0  0  0  0  0  0  0  0  0
  147.4158  139.6894  154.1432 C   0  0  2  0  0  0  0  0  0  0  0  0
  147.4145  138.6434  153.0235 C   0  0  0  0  0  0  0  0  0  0  0  0
  146.8129  140.8796  153.6435 O   0  0  0  0  0  0  0  0  0  0  0  0
  145.9732  143.9578  154.6750 H   0  0  0  0  0  0  0  0  0  0  0  0
  145.0663  142.8825  153.6154 H   0  0  0  0  0  0  0  0  0  0  0  0
  146.6370  143.4982  153.1074 H   0  0  0  0  0  0  0  0  0  0  0  0
  146.1358  141.5887  155.4501 H   0  0  0  0  0  0  0  0  0  0  0  0
  148.7576  142.6567  154.2821 H   0  0  0  0  0  0  0  0  0  0  0  0
  148.1014  143.0285  155.8599 H   0  0  0  0  0  0  0  0  0  0  0  0
  150.7089  140.4024  156.3170 H   0  0  0  0  0  0  0  0  0  0  0  0
  150.7605  141.8134  155.3028 H   0  0  0  0  0  0  0  0  0  0  0  0
  149.5781  143.0336  157.3426 H   0  0  0  0  0  0  0  0  0  0  0  0
  150.8425  141.1260  158.8720 H   0  0  0  0  0  0  0  0  0  0  0  0
  152.4339  142.2559  156.9450 H   0  0  0  0  0  0  0  0  0  0  0  0
  151.7352  143.8388  157.1096 H   0  0  0  0  0  0  0  0  0  0  0  0
  151.7190  145.6238  158.6293 H   0  0  0  0  0  0  0  0  0  0  0  0
  150.2209  144.8694  159.1592 H   0  0  0  0  0  0  0  0  0  0  0  0
  152.0191  146.1546  160.9050 H   0  0  0  0  0  0  0  0  0  0  0  0
  153.9319  141.9743  162.8296 H   0  0  0  0  0  0  0  0  0  0  0  0
  154.8120  139.7449  162.1749 H   0  0  0  0  0  0  0  0  0  0  0  0
  154.4573  138.8814  159.8706 H   0  0  0  0  0  0  0  0  0  0  0  0
  153.2137  140.2515  158.2023 H   0  0  0  0  0  0  0  0  0  0  0  0
  149.4552  140.3235  153.7891 H   0  0  0  0  0  0  0  0  0  0  0  0
  149.2944  139.1141  155.0422 H   0  0  0  0  0  0  0  0  0  0  0  0
  146.8189  139.3125  154.9755 H   0  0  0  0  0  0  0  0  0  0  0  0
  147.8623  137.7080  153.3592 H   0  0  0  0  0  0  0  0  0  0  0  0
  147.9763  138.9923  152.1567 H   0  0  0  0  0  0  0  0  0  0  0  0
  146.3976  138.4261  152.6962 H   0  0  0  0  0  0  0  0  0  0  0  0
  1  2  1  0  0  0  0
  1 24  1  0  0  0  0
  1 25  1  0  0  0  0
  1 26  1  0  0  0  0
  2 23  1  0  0  0  0
  2  3  1  0  0  0  0
  2 27  1  0  0  0  0
  3  4  1  0  0  0  0
  3 28  1  0  0  0  0
  3 29  1  0  0  0  0
  4  5  1  0  0  0  0
  4 20  1  0  0  0  0
  5  6  1  0  0  0  0
  5 30  1  0  0  0  0
  5 31  1  0  0  0  0
  6  7  1  0  0  0  0
  6  8  1  0  0  0  0
  6 32  1  0  0  0  0
  7 33  1  0  0  0  0
  8  9  1  0  0  0  0
  8 34  1  0  0  0  0
  8 35  1  0  0  0  0
  9 19  1  0  0  0  0
  9 10  1  0  0  0  0
 10 11  1  0  0  0  0
 10 13  2  0  0  0  0
 11 12  1  0  0  0  0
 11 36  1  0  0  0  0
 11 37  1  0  0  0  0
 12 38  1  0  0  0  0
 13 14  1  0  0  0  0
 14 19  2  0  0  0  0
 14 15  1  0  0  0  0
 15 16  2  0  0  0  0
 15 39  1  0  0  0  0
 16 17  1  0  0  0  0
 16 40  1  0  0  0  0
 17 18  2  0  0  0  0
 17 41  1  0  0  0  0
 18 19  1  0  0  0  0
 18 42  1  0  0  0  0
 20 21  1  0  0  0  0
 20 43  1  0  0  0  0
 20 44  1  0  0  0  0
 21 22  1  0  0  0  0
 21 23  1  0  0  0  0
 21 45  1  0  0  0  0
 22 46  1  0  0  0  0
 22 47  1  0  0  0  0
 22 48  1  0  0  0  0
M  END
> <s_m_source_file>
AV-unprocessed.smi

> <i_m_source_file_index>
1703

> <i_lp_mmshare_version>
43012

> <i_f3d_flags>
0

> <s_epik_input>
W0NIM11bQ0BASF0xW0NIMl1OKFtDSDJdW0NASF0oTzEpW0NIM10pW0NIMl1bQ0BIXShbT0hdKVtDSDJdbihjKG4yKVtDSDJdW09IXSljKGMyMylbY0hdW2NIXVtjSF1bY0hdMw==

> <s_epik_cmdline>
J2VwaWtfcHl0aG9uJywgJy1waCcsICc3LjAnLCAnLXRuJywgJzgnLCAnLW1hJywgJzIwMCcsICctbWV0YWxfYmluZGluZycsICctaW1hZScsICc8aW5maWxlLm1hZT4nLCAnLW9tYWUnLCAnPG91dGZpbGUubWFlPic=

> <r_epik_Ionization_Penalty>
0.307685

> <r_epik_Ionization_Penalty_Charging>
0

> <r_epik_Ionization_Penalty_Neutral>
0.307685

> <r_epik_State_Penalty>
0.277856

> <r_epik_Charging_Adjusted_Penalty>
0.277856

> <i_epik_Tot_Q>
0

> <i_epik_Tot_abs_Q>
0

> <r_epik_Metal_State_Penalty>
0.238959

> <b_epik_Metal_Only>
0

> <s_lp_Force_Field>
OPLS_2005

> <r_lp_Energy>
30.3815

> <b_lp_Chiralities_Consistent>
1

> <s_lp_Variant>
AV-unprocessed.smi:1703-4

> <Gold.Version>
5.8.1

> <Gold.Id.Protein>
6NUR|6NUR_protein|mol2

> <Gold.PLP.Fitness>
45.7558

> <Gold.PLP.PLP>
-47.9193

> <Gold.PLP.part.hbond>
-3.0000

> <Gold.PLP.part.metal>
0.0000

> <Gold.PLP.part.buried>
-1.1086

> <Gold.PLP.part.nonpolar>
-44.3120

> <Gold.PLP.part.repulsive>
0.3590

> <Gold.PLP.ligand.clash>
0.0000

> <Gold.PLP.ligand.torsion>
1.1155

> <Gold.PLP.Chemscore.Hbond>
0.0000

> <Gold.PLP.Chemscore.CHOScore>
0.0000

> <Gold.PLP.Chemscore.Metal>
0.0000

> <Gold.PLP.Chemscore.Internal.Correction>
0.0677

> <Gold.Rescore>
     Score         DG    S(hbond)    S(metal)    S(lipo)     H(rot)  DE(clash)    DE(int)     intcor
      8.02     -12.47       0.00        0.00     122.75       2.88       2.55       1.91       ----

> <Gold.Chemscore.Fitness>
8.0157

> <Gold.Chemscore.DG>
-12.4744

> <Gold.Chemscore.ZeroCoef>
-5.4800

> <Gold.Chemscore.Hbond>
0.0000

> <Gold.Chemscore.Metal>
0.0000

> <Gold.Chemscore.Lipo>
122.7479

> <Gold.Chemscore.Internal_Hbond>
0.0000

> <Gold.Chemscore.DEClash>
2.5525

> <Gold.Chemscore.DEInternal>
1.9062

> <Gold.Chemscore.Rot>
2.8778

> <Gold.Chemscore.Internal.Correction>
   9.000000E+99

> <Gold.Chemscore.Hbond.Weighted>
-0.0000

> <Gold.Chemscore.Metal.Weighted>
-0.0000

> <Gold.Chemscore.Lipo.Weighted>
-14.3615

> <Gold.Chemscore.Internal_Hbond.Weighted>
0.0000

> <Gold.Chemscore.DEClash.Weighted>
2.5525

> <Gold.Chemscore.DEInternal.Weighted>
1.9062

> <Gold.Chemscore.Rot.Weighted>
7.3671

> <Gold.Chemscore.Internal.Correction.Weighted>
   9.000000E+99

> <Gold.Protein.RotatedTorsions>
[ 6907 6896 6895 6894 ] final -133.17 input  -60.11 | X-H torsion
[ 7974 7965 7964 7962 ] final -133.54 input  175.53 | X-H torsion
[ 8008 7997 7996 7995 ] final  173.60 input   59.86 | X-H torsion
[ 10167 10162 10161 10158 ] final  -39.39 input  -65.29 | X-H torsion
[ 10718 10713 10712 10709 ] final   55.61 input   66.30 | X-H torsion
[ 10763 10752 10751 10750 ] final  -65.61 input  -60.55 | X-H torsion
[ 11005 11000 10999 10996 ] final  -87.96 input  -57.11 | X-H torsion

> <Gold.Protein.ActiveResidues>
 VAL166  LYS551  ARG553  GLY616  TRP617  ASP618  TYR619  PRO620  LYS621  CYS622 
 ASP623  PHE694  ASN695  SER759  ASP760  ASP761  ALA762  ILE779  LEU786  VAL792 
 PHE793  MET794  SER795  GLU796  ALA797  LYS798  CYS799  TRP800  GLU811  SER814 

> <Gold.Protein.RotatedAtoms>
  150.9709  133.6345  159.2738 H   0  0  0  0  0  0  0  0  0  0  0  0  # atno 6907 bound_to 6896
  151.3635  135.0907  159.9452 H   0  0  0  0  0  0  0  0  0  0  0  0  # atno 6908 bound_to 6896
  152.5182  133.9277  159.7620 H   0  0  0  0  0  0  0  0  0  0  0  0  # atno 6909 bound_to 6896
  144.9184  140.6983  143.4981 H   0  0  0  0  0  0  0  0  0  0  0  0  # atno 7974 bound_to 7965
  156.1059  140.1456  156.9405 H   0  0  0  0  0  0  0  0  0  0  0  0  # atno 8008 bound_to 7997
  154.4733  140.0902  156.7244 H   0  0  0  0  0  0  0  0  0  0  0  0  # atno 8009 bound_to 7997
  155.4680  140.3440  155.4324 H   0  0  0  0  0  0  0  0  0  0  0  0  # atno 8010 bound_to 7997
  140.7065  143.3217  151.2776 H   0  0  0  0  0  0  0  0  0  0  0  0  # atno 10167 bound_to 10162
  157.5360  130.8663  149.8754 H   0  0  0  0  0  0  0  0  0  0  0  0  # atno 10718 bound_to 10713
  154.3476  135.6143  153.5627 H   0  0  0  0  0  0  0  0  0  0  0  0  # atno 10763 bound_to 10752
  152.9800  135.5784  154.4780 H   0  0  0  0  0  0  0  0  0  0  0  0  # atno 10764 bound_to 10752
  154.4496  135.2852  155.1768 H   0  0  0  0  0  0  0  0  0  0  0  0  # atno 10765 bound_to 10752
  141.1609  133.7541  156.9382 H   0  0  0  0  0  0  0  0  0  0  0  0  # atno 11005 bound_to 11000
  145.3337  139.1752  143.4523 LP  0  0  0  0  0  0  0  0  0  0  0  0  # atno 17320 bound_to 7965
  146.3193  140.3370  142.8645 LP  0  0  0  0  0  0  0  0  0  0  0  0  # atno 17321 bound_to 7965
  139.6673  144.0082  152.2731 LP  0  0  0  0  0  0  0  0  0  0  0  0  # atno 17342 bound_to 10162
  139.9669  144.6520  150.8026 LP  0  0  0  0  0  0  0  0  0  0  0  0  # atno 17343 bound_to 10162
  156.0459  130.3728  150.1319 LP  0  0  0  0  0  0  0  0  0  0  0  0  # atno 17370 bound_to 10713
  156.9502  130.9772  151.3500 LP  0  0  0  0  0  0  0  0  0  0  0  0  # atno 17371 bound_to 10713
  140.1340  134.9337  157.2376 LP  0  0  0  0  0  0  0  0  0  0  0  0  # atno 17394 bound_to 11000
  140.2918  134.3231  155.7313 LP  0  0  0  0  0  0  0  0  0  0  0  0  # atno 17395 bound_to 11000

$$$$
