AV-unprocessed.smi:2499|AV-procd|sdf|9840|dock3
  -GOLD-   2272013463D 1   1.00000     0.00000
 Structure written by MMmdl.
 26 27  0  0  0  0  0  0  0  0  2 V2000
  151.1937  140.9640  158.2857 C   0  0  0  0  0  0  0  0  0  0  0  0
  151.3391  142.2747  157.5005 C   0  0  1  0  0  0  0  0  0  0  0  0
  150.2626  142.3483  156.5165 N   0  0  0  0  0  0  0  0  0  0  0  0
  150.0525  141.4955  155.5028 C   0  0  0  0  0  0  0  0  0  0  0  0
  150.8075  140.5346  155.3384 O   0  0  0  0  0  0  0  0  0  0  0  0
  148.9796  141.8098  154.7420 N   0  5  0  0  0  0  0  0  0  0  0  0
  148.2710  140.8345  154.1508 C   0  0  0  0  0  0  0  0  0  0  0  0
  147.1331  140.9844  153.4706 N   0  0  0  0  0  0  0  0  0  0  0  0
  146.7771  139.7149  153.0424 C   0  0  0  0  0  0  0  0  0  0  0  0
  147.7333  138.8406  153.4816 C   0  0  0  0  0  0  0  0  0  0  0  0
  148.6825  139.5352  154.1792 O   0  0  0  0  0  0  0  0  0  0  0  0
  151.3823  143.4670  158.4424 C   0  0  0  0  0  0  0  0  0  0  0  0
  152.3120  144.6324  158.1967 C   0  0  0  0  0  0  0  0  0  0  0  0
  152.5655  143.6946  159.3538 C   0  0  0  0  0  0  0  0  0  0  0  0
  152.0117  140.8382  158.9955 H   0  0  0  0  0  0  0  0  0  0  0  0
  151.2044  140.1023  157.6176 H   0  0  0  0  0  0  0  0  0  0  0  0
  150.2591  140.9391  158.8473 H   0  0  0  0  0  0  0  0  0  0  0  0
  152.2912  142.2281  156.9685 H   0  0  0  0  0  0  0  0  0  0  0  0
  149.6159  143.1176  156.6101 H   0  0  0  0  0  0  0  0  0  0  0  0
  145.8827  139.5367  152.4644 H   0  0  0  0  0  0  0  0  0  0  0  0
  147.8775  137.7745  153.3915 H   0  0  0  0  0  0  0  0  0  0  0  0
  150.4124  143.7160  158.8693 H   0  0  0  0  0  0  0  0  0  0  0  0
  152.9899  144.5733  157.3475 H   0  0  0  0  0  0  0  0  0  0  0  0
  151.9372  145.6278  158.4250 H   0  0  0  0  0  0  0  0  0  0  0  0
  152.3627  144.0656  160.3564 H   0  0  0  0  0  0  0  0  0  0  0  0
  153.4092  143.0125  159.2704 H   0  0  0  0  0  0  0  0  0  0  0  0
  1  2  1  0  0  0  0
  1 15  1  0  0  0  0
  1 16  1  0  0  0  0
  1 17  1  0  0  0  0
  2  3  1  0  0  0  0
  2 12  1  0  0  0  0
  2 18  1  0  0  0  0
  3 19  1  0  0  0  0
  3  4  1  0  0  0  0
  4  6  1  0  0  0  0
  4  5  2  0  0  0  0
  6  7  1  0  0  0  0
  7 11  1  0  0  0  0
  7  8  2  0  0  0  0
  8  9  1  0  0  0  0
  9 20  1  0  0  0  0
  9 10  2  0  0  0  0
 10 21  1  0  0  0  0
 10 11  1  0  0  0  0
 12 14  1  0  0  0  0
 12 13  1  0  0  0  0
 12 22  1  0  0  0  0
 13 14  1  0  0  0  0
 13 23  1  0  0  0  0
 13 24  1  0  0  0  0
 14 25  1  0  0  0  0
 14 26  1  0  0  0  0
M  CHG  1   6  -1
M  END
> <s_m_source_file>
AV-unprocessed.smi

> <i_m_source_file_index>
2499

> <i_lp_mmshare_version>
43012

> <i_f3d_flags>
0

> <s_epik_input>
W0NIMl0xW0NIMl1bQ0hdMVtDQEhdKFtDSDNdKVtOSF1DKD1PKVtOSF1jMm5bY0hdW2NIXW8y

> <s_epik_cmdline>
J2VwaWtfcHl0aG9uJywgJy1waCcsICc3LjAnLCAnLXRuJywgJzgnLCAnLW1hJywgJzIwMCcsICctbWV0YWxfYmluZGluZycsICctaW1hZScsICc8aW5maWxlLm1hZT4nLCAnLW9tYWUnLCAnPG91dGZpbGUubWFlPic=

> <r_lp_tautomer_probability>
0.107061

> <r_epik_Ionization_Penalty>
11.2144

> <r_epik_Ionization_Penalty_Charging>
7.87172

> <r_epik_Ionization_Penalty_Neutral>
3.3427

> <r_epik_State_Penalty>
5.96777

> <r_epik_Charging_Adjusted_Penalty>
13.8395

> <i_epik_Tot_Q>
-1

> <i_epik_Tot_abs_Q>
1

> <r_epik_Metal_State_Penalty>
1.88989

> <b_epik_Metal_Only>
1

> <s_lp_Force_Field>
OPLS_2005

> <r_lp_Energy>
7.96156

> <b_lp_Chiralities_Consistent>
1

> <s_lp_Variant>
AV-unprocessed.smi:2499-10

> <Gold.Version>
5.8.1

> <Gold.Id.Protein>
6NUR|6NUR_protein|mol2

> <Gold.PLP.Fitness>
39.5399

> <Gold.PLP.PLP>
-28.1471

> <Gold.PLP.part.hbond>
-2.6594

> <Gold.PLP.part.metal>
0.0000

> <Gold.PLP.part.buried>
-4.2061

> <Gold.PLP.part.nonpolar>
-22.7042

> <Gold.PLP.part.repulsive>
1.0467

> <Gold.PLP.ligand.clash>
0.0000

> <Gold.PLP.ligand.torsion>
0.8165

> <Gold.PLP.Chemscore.Hbond>
1.9760

> <Gold.PLP.Chemscore.CHOScore>
2.0000

> <Gold.PLP.Chemscore.Metal>
0.0000

> <Gold.Chemscore.Hbonds>
donor molecule, donor type, donor heavy atom, donor atom, acceptor molecule, acceptor atom, score
      L1  H     3    19       P1  8028  0.86
      P1  H  7989  7998       L1     5  0.94
      L1  C     9    20       P1 10175  1.00
      L1  C    10    21       P1  7948  1.00

> <Gold.PLP.Chemscore.Internal.Correction>
1.0978

> <Gold.Rescore>
     Score         DG    S(hbond)    S(metal)    S(lipo)     H(rot)  DE(clash)    DE(int)     intcor
     10.29     -14.45       1.30        0.00      67.49       1.28       0.38       3.78       ----

> <Gold.Chemscore.Fitness>
10.2879

> <Gold.Chemscore.DG>
-14.4467

> <Gold.Chemscore.ZeroCoef>
-5.4800

> <Gold.Chemscore.Hbond>
1.2998

> <Gold.Chemscore.Metal>
0.0000

> <Gold.Chemscore.Lipo>
67.4914

> <Gold.Chemscore.Internal_Hbond>
0.0000

> <Gold.Chemscore.DEClash>
0.3785

> <Gold.Chemscore.DEInternal>
3.7804

> <Gold.Chemscore.Rot>
1.2778

> <Gold.Chemscore.Internal.Correction>
   9.000000E+99

> <Gold.Chemscore.Hbonds>
donor molecule, donor type, donor heavy atom, donor atom, acceptor molecule, acceptor atom, score
      L1  H     3    19       P1  8028  0.83
      P1  H  7989  7998       L1     5  0.34

> <Gold.Chemscore.Hbond.Weighted>
-4.3413

> <Gold.Chemscore.Metal.Weighted>
-0.0000

> <Gold.Chemscore.Lipo.Weighted>
-7.8965

> <Gold.Chemscore.Internal_Hbond.Weighted>
0.0000

> <Gold.Chemscore.DEClash.Weighted>
0.3785

> <Gold.Chemscore.DEInternal.Weighted>
3.7804

> <Gold.Chemscore.Rot.Weighted>
3.2711

> <Gold.Chemscore.Internal.Correction.Weighted>
   9.000000E+99

> <Gold.Protein.RotatedTorsions>
[ 6907 6896 6895 6894 ] final   10.99 input  -60.11 | X-H torsion
[ 7974 7965 7964 7962 ] final  115.33 input  175.53 | X-H torsion
[ 8008 7997 7996 7995 ] final   59.92 input   59.86 | X-H torsion
[ 10167 10162 10161 10158 ] final   44.22 input  -65.29 | X-H torsion
[ 10718 10713 10712 10709 ] final -133.09 input   66.30 | X-H torsion
[ 10763 10752 10751 10750 ] final  134.04 input  -60.55 | X-H torsion
[ 11005 11000 10999 10996 ] final   63.91 input  -57.11 | X-H torsion

> <Gold.Protein.ActiveResidues>
 VAL166  LYS551  ARG553  GLY616  TRP617  ASP618  TYR619  PRO620  LYS621  CYS622 
 ASP623  PHE694  ASN695  SER759  ASP760  ASP761  ALA762  ILE779  LEU786  VAL792 
 PHE793  MET794  SER795  GLU796  ALA797  LYS798  CYS799  TRP800  GLU811  SER814 

> <Gold.Protein.RotatedAtoms>
  151.7472  135.0841  160.0324 H   0  0  0  0  0  0  0  0  0  0  0  0  # atno 6907 bound_to 6896
  152.3441  133.6096  159.5905 H   0  0  0  0  0  0  0  0  0  0  0  0  # atno 6908 bound_to 6896
  150.7497  133.9593  159.3552 H   0  0  0  0  0  0  0  0  0  0  0  0  # atno 6909 bound_to 6896
  145.1933  139.2989  143.4356 H   0  0  0  0  0  0  0  0  0  0  0  0  # atno 7974 bound_to 7965
  155.5739  140.3490  155.4522 H   0  0  0  0  0  0  0  0  0  0  0  0  # atno 8008 bound_to 7997
  156.0423  140.1299  157.0167 H   0  0  0  0  0  0  0  0  0  0  0  0  # atno 8009 bound_to 7997
  154.4397  140.1021  156.6241 H   0  0  0  0  0  0  0  0  0  0  0  0  # atno 8010 bound_to 7997
  140.3365  144.2524  150.6161 H   0  0  0  0  0  0  0  0  0  0  0  0  # atno 10167 bound_to 10162
  156.2413  130.7097  151.0960 H   0  0  0  0  0  0  0  0  0  0  0  0  # atno 10718 bound_to 10713
  153.8170  135.3121  155.3406 H   0  0  0  0  0  0  0  0  0  0  0  0  # atno 10763 bound_to 10752
  154.8028  135.4716  154.0321 H   0  0  0  0  0  0  0  0  0  0  0  0  # atno 10764 bound_to 10752
  153.1717  135.6879  153.8687 H   0  0  0  0  0  0  0  0  0  0  0  0  # atno 10765 bound_to 10752
  139.9993  134.6467  155.9957 H   0  0  0  0  0  0  0  0  0  0  0  0  # atno 11005 bound_to 11000
  146.3432  140.2154  142.8590 LP  0  0  0  0  0  0  0  0  0  0  0  0  # atno 17320 bound_to 7965
  145.0019  140.8639  143.5276 LP  0  0  0  0  0  0  0  0  0  0  0  0  # atno 17321 bound_to 7965
  140.5349  143.2235  151.8179 LP  0  0  0  0  0  0  0  0  0  0  0  0  # atno 17342 bound_to 10162
  139.4847  144.4674  151.9467 LP  0  0  0  0  0  0  0  0  0  0  0  0  # atno 17343 bound_to 10162
  157.7176  131.0700  150.6264 LP  0  0  0  0  0  0  0  0  0  0  0  0  # atno 17370 bound_to 10713
  156.6338  130.4439  149.5777 LP  0  0  0  0  0  0  0  0  0  0  0  0  # atno 17371 bound_to 10713
  141.1629  133.6538  156.4381 LP  0  0  0  0  0  0  0  0  0  0  0  0  # atno 17394 bound_to 11000
  140.4758  134.6711  157.5149 LP  0  0  0  0  0  0  0  0  0  0  0  0  # atno 17395 bound_to 11000

$$$$
