AV-unprocessed.smi:2958|AV-procd|sdf|11307|dock2
  -GOLD-   2272016203D 1   1.00000     0.00000
 Structure written by MMmdl.
 39 41  0  0  0  0  0  0  0  0  1 V2000
  151.9013  145.0140  159.9569 C   0  0  0  0  0  0  0  0  0  0  0  0
  152.4000  143.5835  159.9489 C   0  0  0  0  0  0  0  0  0  0  0  0
  153.0353  143.0445  161.0856 C   0  0  0  0  0  0  0  0  0  0  0  0
  153.4959  141.7154  161.0685 C   0  0  0  0  0  0  0  0  0  0  0  0
  153.3223  140.9243  159.9171 C   0  0  0  0  0  0  0  0  0  0  0  0
  152.6871  141.4465  158.7719 C   0  0  0  0  0  0  0  0  0  0  0  0
  152.5569  140.6016  157.6907 O   0  0  0  0  0  0  0  0  0  0  0  0
  151.5773  140.9123  156.7105 C   0  0  0  0  0  0  0  0  0  0  0  0
  151.7943  140.0007  155.4973 C   0  0  0  0  0  0  0  0  0  0  0  0
  150.5354  139.4772  154.9918 N   0  0  0  0  0  0  0  0  0  0  0  0
  150.1696  138.1809  154.8293 C   0  0  0  0  0  0  0  0  0  0  0  0
  151.0818  137.0441  155.1745 C   0  0  0  0  0  0  0  0  0  0  0  0
  151.1769  136.0888  154.1398 O   0  0  0  0  0  0  0  0  0  0  0  0
  148.9438  137.9808  154.3434 N   0  0  0  0  0  0  0  0  0  0  0  0
  148.4679  139.2676  154.1812 C   0  0  0  0  0  0  0  0  0  0  0  0
  147.2218  139.7325  153.7032 C   0  0  0  0  0  0  0  0  0  0  0  0
  146.9556  141.1158  153.6315 C   0  0  0  0  0  0  0  0  0  0  0  0
  147.9292  142.0521  154.0361 C   0  0  0  0  0  0  0  0  0  0  0  0
  149.1783  141.6103  154.5133 C   0  0  0  0  0  0  0  0  0  0  0  0
  149.4392  140.2286  154.5815 C   0  0  0  0  0  0  0  0  0  0  0  0
  152.2268  142.7877  158.7974 C   0  0  0  0  0  0  0  0  0  0  0  0
  152.1157  145.5055  160.9064 H   0  0  0  0  0  0  0  0  0  0  0  0
  150.8232  145.0393  159.7965 H   0  0  0  0  0  0  0  0  0  0  0  0
  152.3810  145.5860  159.1623 H   0  0  0  0  0  0  0  0  0  0  0  0
  153.1720  143.6460  161.9724 H   0  0  0  0  0  0  0  0  0  0  0  0
  153.9830  141.3015  161.9392 H   0  0  0  0  0  0  0  0  0  0  0  0
  153.6790  139.9048  159.9133 H   0  0  0  0  0  0  0  0  0  0  0  0
  150.5763  140.7562  157.1158 H   0  0  0  0  0  0  0  0  0  0  0  0
  151.6646  141.9570  156.4073 H   0  0  0  0  0  0  0  0  0  0  0  0
  152.2887  140.5519  154.6967 H   0  0  0  0  0  0  0  0  0  0  0  0
  152.4565  139.1736  155.7529 H   0  0  0  0  0  0  0  0  0  0  0  0
  152.0758  137.4247  155.4094 H   0  0  0  0  0  0  0  0  0  0  0  0
  150.7155  136.5491  156.0744 H   0  0  0  0  0  0  0  0  0  0  0  0
  151.0995  136.5359  153.3111 H   0  0  0  0  0  0  0  0  0  0  0  0
  146.4690  139.0237  153.3917 H   0  0  0  0  0  0  0  0  0  0  0  0
  145.9996  141.4598  153.2652 H   0  0  0  0  0  0  0  0  0  0  0  0
  147.7166  143.1097  153.9790 H   0  0  0  0  0  0  0  0  0  0  0  0
  149.9263  142.3248  154.8236 H   0  0  0  0  0  0  0  0  0  0  0  0
  151.7370  143.2298  157.9428 H   0  0  0  0  0  0  0  0  0  0  0  0
  1  2  1  0  0  0  0
  1 22  1  0  0  0  0
  1 23  1  0  0  0  0
  1 24  1  0  0  0  0
  2 21  1  0  0  0  0
  2  3  2  0  0  0  0
  3  4  1  0  0  0  0
  3 25  1  0  0  0  0
  4  5  2  0  0  0  0
  4 26  1  0  0  0  0
  5  6  1  0  0  0  0
  5 27  1  0  0  0  0
  6  7  1  0  0  0  0
  6 21  2  0  0  0  0
  7  8  1  0  0  0  0
  8  9  1  0  0  0  0
  8 28  1  0  0  0  0
  8 29  1  0  0  0  0
  9 10  1  0  0  0  0
  9 30  1  0  0  0  0
  9 31  1  0  0  0  0
 10 20  1  0  0  0  0
 10 11  1  0  0  0  0
 11 12  1  0  0  0  0
 11 14  2  0  0  0  0
 12 13  1  0  0  0  0
 12 32  1  0  0  0  0
 12 33  1  0  0  0  0
 13 34  1  0  0  0  0
 14 15  1  0  0  0  0
 15 20  2  0  0  0  0
 15 16  1  0  0  0  0
 16 17  2  0  0  0  0
 16 35  1  0  0  0  0
 17 18  1  0  0  0  0
 17 36  1  0  0  0  0
 18 19  2  0  0  0  0
 18 37  1  0  0  0  0
 19 20  1  0  0  0  0
 19 38  1  0  0  0  0
 21 39  1  0  0  0  0
M  END
> <s_m_source_file>
AV-unprocessed.smi

> <i_m_source_file_index>
2958

> <i_lp_mmshare_version>
43012

> <i_f3d_flags>
0

> <s_epik_input>
W0NIM11jMVtjSF1bY0hdW2NIXWMoW2NIXTEpT1tDSDJdW0NIMl1uKGMobjIpW0NIMl1bT0hdKWMoYzIzKVtjSF1bY0hdW2NIXVtjSF0z

> <s_epik_cmdline>
J2VwaWtfcHl0aG9uJywgJy1waCcsICc3LjAnLCAnLXRuJywgJzgnLCAnLW1hJywgJzIwMCcsICctbWV0YWxfYmluZGluZycsICctaW1hZScsICc8aW5maWxlLm1hZT4nLCAnLW9tYWUnLCAnPG91dGZpbGUubWFlPic=

> <r_lp_tautomer_probability>
1

> <r_epik_Ionization_Penalty>
0.0482759

> <r_epik_Ionization_Penalty_Charging>
0

> <r_epik_Ionization_Penalty_Neutral>
0.0482759

> <r_epik_State_Penalty>
0.0410957

> <r_epik_Charging_Adjusted_Penalty>
0.0410957

> <i_epik_Tot_Q>
0

> <i_epik_Tot_abs_Q>
0

> <r_epik_Metal_State_Penalty>
4.25529e-05

> <b_epik_Metal_Only>
0

> <s_lp_Force_Field>
OPLS_2005

> <r_lp_Energy>
16.0806

> <b_lp_Chiralities_Consistent>
1

> <s_lp_Variant>
AV-unprocessed.smi:2958-1

> <Gold.Version>
5.8.1

> <Gold.Id.Protein>
6NUR|6NUR_protein|mol2

> <Gold.PLP.Fitness>
55.1379

> <Gold.PLP.PLP>
-49.7373

> <Gold.PLP.part.hbond>
-3.2159

> <Gold.PLP.part.metal>
0.0000

> <Gold.PLP.part.buried>
-2.4257

> <Gold.PLP.part.nonpolar>
-44.1798

> <Gold.PLP.part.repulsive>
0.6300

> <Gold.PLP.ligand.clash>
0.0000

> <Gold.PLP.ligand.torsion>
0.7345

> <Gold.PLP.Chemscore.Hbond>
2.2547

> <Gold.PLP.Chemscore.CHOScore>
0.0000

> <Gold.PLP.Chemscore.Metal>
0.0000

> <Gold.Chemscore.Hbonds>
donor molecule, donor type, donor heavy atom, donor atom, acceptor molecule, acceptor atom, score
      L1  H    13    34       P1  7949  0.69
      P1  H  7997  8010       L1     7  0.59
      P1  H 10752 10765       L1    13  0.90

> <Gold.PLP.Chemscore.Internal.Correction>
0.1054

> <Gold.Rescore>
     Score         DG    S(hbond)    S(metal)    S(lipo)     H(rot)  DE(clash)    DE(int)     intcor
     19.49     -20.14       1.23        0.00     137.17       2.15       0.07       0.58       ----

> <Gold.Chemscore.Fitness>
19.4882

> <Gold.Chemscore.DG>
-20.1446

> <Gold.Chemscore.ZeroCoef>
-5.4800

> <Gold.Chemscore.Hbond>
1.2333

> <Gold.Chemscore.Metal>
0.0000

> <Gold.Chemscore.Lipo>
137.1736

> <Gold.Chemscore.Internal_Hbond>
0.0000

> <Gold.Chemscore.DEClash>
0.0722

> <Gold.Chemscore.DEInternal>
0.5842

> <Gold.Chemscore.Rot>
2.1499

> <Gold.Chemscore.Internal.Correction>
   9.000000E+99

> <Gold.Chemscore.Hbonds>
donor molecule, donor type, donor heavy atom, donor atom, acceptor molecule, acceptor atom, score
      L1  H    13    34       P1  7949  0.27
      P1  H  7997  8010       L1     7  0.41
      P1  H 10752 10765       L1    13  0.13

> <Gold.Chemscore.Hbond.Weighted>
-4.1191

> <Gold.Chemscore.Metal.Weighted>
-0.0000

> <Gold.Chemscore.Lipo.Weighted>
-16.0493

> <Gold.Chemscore.Internal_Hbond.Weighted>
0.0000

> <Gold.Chemscore.DEClash.Weighted>
0.0722

> <Gold.Chemscore.DEInternal.Weighted>
0.5842

> <Gold.Chemscore.Rot.Weighted>
5.5038

> <Gold.Chemscore.Internal.Correction.Weighted>
   9.000000E+99

> <Gold.Protein.RotatedTorsions>
[ 6907 6896 6895 6894 ] final  -35.28 input  -60.11 | X-H torsion
[ 7974 7965 7964 7962 ] final   76.78 input  175.53 | X-H torsion
[ 8008 7997 7996 7995 ] final   49.74 input   59.86 | X-H torsion
[ 10167 10162 10161 10158 ] final   -0.64 input  -65.29 | X-H torsion
[ 10718 10713 10712 10709 ] final -168.39 input   66.30 | X-H torsion
[ 10763 10752 10751 10750 ] final  170.29 input  -60.55 | X-H torsion
[ 11005 11000 10999 10996 ] final -158.50 input  -57.11 | X-H torsion

> <Gold.Protein.ActiveResidues>
 VAL166  LYS551  ARG553  GLY616  TRP617  ASP618  TYR619  PRO620  LYS621  CYS622 
 ASP623  PHE694  ASN695  SER759  ASP760  ASP761  ALA762  ILE779  LEU786  VAL792 
 PHE793  MET794  SER795  GLU796  ALA797  LYS798  CYS799  TRP800  GLU811  SER814 

> <Gold.Protein.RotatedAtoms>
  151.0419  134.9613  159.8165 H   0  0  0  0  0  0  0  0  0  0  0  0  # atno 6907 bound_to 6896
  152.5365  134.2648  159.8959 H   0  0  0  0  0  0  0  0  0  0  0  0  # atno 6908 bound_to 6896
  151.2660  133.4236  159.2652 H   0  0  0  0  0  0  0  0  0  0  0  0  # atno 6909 bound_to 6896
  145.6984  139.2575  143.1719 H   0  0  0  0  0  0  0  0  0  0  0  0  # atno 7974 bound_to 7965
  155.4072  140.3440  155.4261 H   0  0  0  0  0  0  0  0  0  0  0  0  # atno 8008 bound_to 7997
  156.1469  140.1559  156.8864 H   0  0  0  0  0  0  0  0  0  0  0  0  # atno 8009 bound_to 7997
  154.5019  140.0812  156.7795 H   0  0  0  0  0  0  0  0  0  0  0  0  # atno 8010 bound_to 7997
  140.6776  143.6870  150.8058 H   0  0  0  0  0  0  0  0  0  0  0  0  # atno 10167 bound_to 10162
  156.6963  130.9179  151.3075 H   0  0  0  0  0  0  0  0  0  0  0  0  # atno 10718 bound_to 10713
  154.3955  135.2754  155.2129 H   0  0  0  0  0  0  0  0  0  0  0  0  # atno 10763 bound_to 10752
  154.4177  135.6007  153.5994 H   0  0  0  0  0  0  0  0  0  0  0  0  # atno 10764 bound_to 10752
  152.9831  135.5965  154.4215 H   0  0  0  0  0  0  0  0  0  0  0  0  # atno 10765 bound_to 10752
  140.6529  134.4431  157.5235 H   0  0  0  0  0  0  0  0  0  0  0  0  # atno 11005 bound_to 11000
  146.0819  140.7754  142.9637 LP  0  0  0  0  0  0  0  0  0  0  0  0  # atno 17320 bound_to 7965
  144.6976  140.3503  143.7183 LP  0  0  0  0  0  0  0  0  0  0  0  0  # atno 17321 bound_to 7965
  140.0566  143.5197  152.2648 LP  0  0  0  0  0  0  0  0  0  0  0  0  # atno 17342 bound_to 10162
  139.6078  144.7601  151.3022 LP  0  0  0  0  0  0  0  0  0  0  0  0  # atno 17343 bound_to 10162
  157.6990  130.9312  150.0729 LP  0  0  0  0  0  0  0  0  0  0  0  0  # atno 17370 bound_to 10713
  156.1761  130.3648  149.9098 LP  0  0  0  0  0  0  0  0  0  0  0  0  # atno 17371 bound_to 10713
  139.9039  134.8492  156.1782 LP  0  0  0  0  0  0  0  0  0  0  0  0  # atno 17394 bound_to 11000
  141.0523  133.6882  156.1795 LP  0  0  0  0  0  0  0  0  0  0  0  0  # atno 17395 bound_to 11000

$$$$
