AV-unprocessed.smi:686|AV-procd|sdf|3348|dock3
  -GOLD-   22720 0323D 1   1.00000     0.00000
 Structure written by MMmdl.
 40 41  0  0  0  0  0  0  0  0  3 V2000
  147.7634  140.7868  153.4898 C   0  0  0  0  0  0  0  0  0  0  0  0
  146.9177  139.5034  153.6271 C   0  0  1  0  0  0  0  0  0  0  0  0
  146.6350  138.7702  152.3047 C   0  0  0  0  0  0  0  0  0  0  0  0
  146.5500  137.3222  152.6270 N   0  3  2  0  0  0  0  0  0  0  0  0
  145.4442  136.5810  151.9577 C   0  0  0  0  0  0  0  0  0  0  0  0
  144.0761  136.9004  152.5906 C   0  0  0  0  0  0  0  0  0  0  0  0
  145.6903  135.0613  152.0070 C   0  0  0  0  0  0  0  0  0  0  0  0
  146.6092  137.2041  154.1033 C   0  0  0  0  0  0  0  0  0  0  0  0
  147.4312  138.4072  154.5774 C   0  0  1  0  0  0  0  0  0  0  0  0
  148.8560  138.1497  154.3689 N   0  5  0  0  0  0  0  0  0  0  0  0
  149.9873  138.7597  155.3669 S   0  0  0  0  0  0  0  0  0  0  0  0
  150.6099  139.9997  154.8725 O   0  0  0  0  0  0  0  0  0  0  0  0
  149.5039  138.7770  156.7558 O   0  0  0  0  0  0  0  0  0  0  0  0
  151.2975  137.4540  155.3161 C   0  0  0  0  0  0  0  0  0  0  0  0
  150.7895  136.1926  155.9561 C   0  0  0  0  0  0  0  0  0  0  0  0
  150.5401  134.9299  155.3502 C   0  0  0  0  0  0  0  0  0  0  0  0
  150.0985  134.1597  156.3868 C   0  0  0  0  0  0  0  0  0  0  0  0
  150.0839  134.8764  157.5385 O   0  0  0  0  0  0  0  0  0  0  0  0
  150.5297  136.1721  157.2544 N   0  0  0  0  0  0  0  0  0  0  0  0
  148.7424  140.5944  153.0476 H   0  0  0  0  0  0  0  0  0  0  0  0
  147.9211  141.2739  154.4535 H   0  0  0  0  0  0  0  0  0  0  0  0
  147.2585  141.5062  152.8448 H   0  0  0  0  0  0  0  0  0  0  0  0
  145.9489  139.8130  154.0233 H   0  0  0  0  0  0  0  0  0  0  0  0
  145.7143  139.1504  151.8596 H   0  0  0  0  0  0  0  0  0  0  0  0
  147.4364  138.9181  151.5785 H   0  0  0  0  0  0  0  0  0  0  0  0
  145.4128  136.8922  150.9124 H   0  0  0  0  0  0  0  0  0  0  0  0
  143.2844  136.3112  152.1268 H   0  0  0  0  0  0  0  0  0  0  0  0
  143.8014  137.9479  152.4655 H   0  0  0  0  0  0  0  0  0  0  0  0
  144.0711  136.6772  153.6580 H   0  0  0  0  0  0  0  0  0  0  0  0
  144.8727  134.5180  151.5323 H   0  0  0  0  0  0  0  0  0  0  0  0
  145.7676  134.7072  153.0355 H   0  0  0  0  0  0  0  0  0  0  0  0
  146.6046  134.7744  151.4877 H   0  0  0  0  0  0  0  0  0  0  0  0
  145.6002  137.2733  154.5134 H   0  0  0  0  0  0  0  0  0  0  0  0
  147.0273  136.2469  154.4162 H   0  0  0  0  0  0  0  0  0  0  0  0
  147.2038  138.6589  155.6135 H   0  0  0  0  0  0  0  0  0  0  0  0
  151.5656  137.2798  154.2743 H   0  0  0  0  0  0  0  0  0  0  0  0
  152.1852  137.8231  155.8295 H   0  0  0  0  0  0  0  0  0  0  0  0
  150.6588  134.6401  154.3167 H   0  0  0  0  0  0  0  0  0  0  0  0
  149.7740  133.1326  156.4623 H   0  0  0  0  0  0  0  0  0  0  0  0
  147.4174  136.9212  152.2988 H   0  0  0  0  0  0  0  0  0  0  0  0
  1  2  1  0  0  0  0
  1 20  1  0  0  0  0
  1 21  1  0  0  0  0
  1 22  1  0  0  0  0
  2  9  1  0  0  0  0
  2  3  1  0  0  0  0
  2 23  1  0  0  0  0
  3  4  1  0  0  0  0
  3 24  1  0  0  0  0
  3 25  1  0  0  0  0
  4  5  1  0  0  0  0
  4  8  1  0  0  0  0
  4 40  1  0  0  0  0
  5  6  1  0  0  0  0
  5  7  1  0  0  0  0
  5 26  1  0  0  0  0
  6 27  1  0  0  0  0
  6 28  1  0  0  0  0
  6 29  1  0  0  0  0
  7 30  1  0  0  0  0
  7 31  1  0  0  0  0
  7 32  1  0  0  0  0
  8  9  1  0  0  0  0
  8 33  1  0  0  0  0
  8 34  1  0  0  0  0
  9 10  1  0  0  0  0
  9 35  1  0  0  0  0
 10 11  1  0  0  0  0
 11 12  2  0  0  0  0
 11 13  2  0  0  0  0
 11 14  1  0  0  0  0
 14 15  1  0  0  0  0
 14 36  1  0  0  0  0
 14 37  1  0  0  0  0
 15 19  2  0  0  0  0
 15 16  1  0  0  0  0
 16 17  2  0  0  0  0
 16 38  1  0  0  0  0
 17 18  1  0  0  0  0
 17 39  1  0  0  0  0
 18 19  1  0  0  0  0
M  CHG  1   4   1
M  CHG  1  10  -1
M  END
> <s_m_source_file>
AV-unprocessed.smi

> <i_m_source_file_index>
686

> <i_lp_mmshare_version>
43012

> <i_f3d_flags>
0

> <s_epik_input>
W0NIM11bQ0BASF0xW0NIMl1OKFtDSF0oW0NIM10pW0NIM10pW0NIMl1bQ0BIXTFbTkhdUyg9TykoPU8pW0NIMl1jMltjSF1bY0hdb24y

> <s_epik_cmdline>
J2VwaWtfcHl0aG9uJywgJy1waCcsICc3LjAnLCAnLXRuJywgJzgnLCAnLW1hJywgJzIwMCcsICctbWV0YWxfYmluZGluZycsICctaW1hZScsICc8aW5maWxlLm1hZT4nLCAnLW9tYWUnLCAnPG91dGZpbGUubWFlPic=

> <r_epik_Ionization_Penalty>
3.62478

> <r_epik_Ionization_Penalty_Charging>
3.62478

> <r_epik_Ionization_Penalty_Neutral>
2.03645e-10

> <r_epik_State_Penalty>
3.6247

> <r_epik_Charging_Adjusted_Penalty>
7.24949

> <i_epik_Tot_Q>
0

> <i_epik_Tot_abs_Q>
2

> <r_epik_Metal_State_Penalty>
0.530836

> <b_epik_Metal_Only>
1

> <s_lp_Force_Field>
OPLS_2005

> <r_lp_Energy>
18.5921

> <b_lp_Chiralities_Consistent>
1

> <s_lp_Variant>
AV-unprocessed.smi:686-12

> <Gold.Version>
5.8.1

> <Gold.Id.Protein>
6NUR|6NUR_protein|mol2

> <Gold.PLP.Fitness>
35.2423

> <Gold.PLP.PLP>
-25.1904

> <Gold.PLP.part.hbond>
-3.0000

> <Gold.PLP.part.metal>
0.0000

> <Gold.PLP.part.buried>
-4.2897

> <Gold.PLP.part.nonpolar>
-20.3368

> <Gold.PLP.part.repulsive>
0.2999

> <Gold.PLP.ligand.clash>
0.0000

> <Gold.PLP.ligand.torsion>
1.2330

> <Gold.PLP.Chemscore.Hbond>
3.7840

> <Gold.PLP.Chemscore.CHOScore>
0.0000

> <Gold.PLP.Chemscore.Metal>
0.0000

> <Gold.Chemscore.Hbonds>
donor molecule, donor type, donor heavy atom, donor atom, acceptor molecule, acceptor atom, score
      L1  H     4    40       P1  7948  2.00
      P1  H  6896  6907       L1    18  0.78
      P1  H  7989  7998       L1    12  1.00

> <Gold.PLP.Chemscore.Internal.Correction>
1.1660

> <Gold.Rescore>
     Score         DG    S(hbond)    S(metal)    S(lipo)     H(rot)  DE(clash)    DE(int)     intcor
     14.76     -17.35       2.71        0.00      59.37       1.61       0.04       2.55       ----

> <Gold.Chemscore.Fitness>
14.7630

> <Gold.Chemscore.DG>
-17.3540

> <Gold.Chemscore.ZeroCoef>
-5.4800

> <Gold.Chemscore.Hbond>
2.7131

> <Gold.Chemscore.Metal>
0.0000

> <Gold.Chemscore.Lipo>
59.3697

> <Gold.Chemscore.Internal_Hbond>
0.0000

> <Gold.Chemscore.DEClash>
0.0370

> <Gold.Chemscore.DEInternal>
2.5540

> <Gold.Chemscore.Rot>
1.6149

> <Gold.Chemscore.Internal.Correction>
   9.000000E+99

> <Gold.Chemscore.Hbonds>
donor molecule, donor type, donor heavy atom, donor atom, acceptor molecule, acceptor atom, score
      L1  H     4    40       P1  7948  1.00
      P1  H  6896  6907       L1    18  0.60
      P1  H  7989  7998       L1    12  1.00

> <Gold.Chemscore.Hbond.Weighted>
-9.0618

> <Gold.Chemscore.Metal.Weighted>
-0.0000

> <Gold.Chemscore.Lipo.Weighted>
-6.9463

> <Gold.Chemscore.Internal_Hbond.Weighted>
0.0000

> <Gold.Chemscore.DEClash.Weighted>
0.0370

> <Gold.Chemscore.DEInternal.Weighted>
2.5540

> <Gold.Chemscore.Rot.Weighted>
4.1341

> <Gold.Chemscore.Internal.Correction.Weighted>
   9.000000E+99

> <Gold.Protein.RotatedTorsions>
[ 6907 6896 6895 6894 ] final  -92.13 input  -60.11 | X-H torsion
[ 7974 7965 7964 7962 ] final -117.10 input  175.53 | X-H torsion
[ 8008 7997 7996 7995 ] final   77.19 input   59.86 | X-H torsion
[ 10167 10162 10161 10158 ] final  168.21 input  -65.29 | X-H torsion
[ 10718 10713 10712 10709 ] final  123.30 input   66.30 | X-H torsion
[ 10763 10752 10751 10750 ] final  116.11 input  -60.55 | X-H torsion
[ 11005 11000 10999 10996 ] final -127.61 input  -57.11 | X-H torsion

> <Gold.Protein.ActiveResidues>
 VAL166  LYS551  ARG553  GLY616  TRP617  ASP618  TYR619  PRO620  LYS621  CYS622 
 ASP623  PHE694  ASN695  SER759  ASP760  ASP761  ALA762  ILE779  LEU786  VAL792 
 PHE793  MET794  SER795  GLU796  ALA797  LYS798  CYS799  TRP800  GLU811  SER814 

> <Gold.Protein.RotatedAtoms>
  150.6902  134.2170  159.4381 H   0  0  0  0  0  0  0  0  0  0  0  0  # atno 6907 bound_to 6896
  152.0129  134.9864  160.0578 H   0  0  0  0  0  0  0  0  0  0  0  0  # atno 6908 bound_to 6896
  152.1471  133.4464  159.4832 H   0  0  0  0  0  0  0  0  0  0  0  0  # atno 6909 bound_to 6896
  145.0892  140.8478  143.3993 H   0  0  0  0  0  0  0  0  0  0  0  0  # atno 7974 bound_to 7965
  155.8381  140.3463  155.5614 H   0  0  0  0  0  0  0  0  0  0  0  0  # atno 8008 bound_to 7997
  155.8170  140.0907  157.1891 H   0  0  0  0  0  0  0  0  0  0  0  0  # atno 8009 bound_to 7997
  154.4004  140.1437  156.3442 H   0  0  0  0  0  0  0  0  0  0  0  0  # atno 8010 bound_to 7997
  139.4962  144.3839  151.9592 H   0  0  0  0  0  0  0  0  0  0  0  0  # atno 10167 bound_to 10162
  157.5676  131.1085  150.8426 H   0  0  0  0  0  0  0  0  0  0  0  0  # atno 10718 bound_to 10713
  153.5323  135.3576  155.2681 H   0  0  0  0  0  0  0  0  0  0  0  0  # atno 10763 bound_to 10752
  154.8725  135.4071  154.3138 H   0  0  0  0  0  0  0  0  0  0  0  0  # atno 10764 bound_to 10752
  153.3829  135.7069  153.6620 H   0  0  0  0  0  0  0  0  0  0  0  0  # atno 10765 bound_to 10752
  140.9585  134.0969  157.3992 H   0  0  0  0  0  0  0  0  0  0  0  0  # atno 11005 bound_to 11000
  145.1086  139.2772  143.5649 LP  0  0  0  0  0  0  0  0  0  0  0  0  # atno 17320 bound_to 7965
  146.3531  140.0675  142.8625 LP  0  0  0  0  0  0  0  0  0  0  0  0  # atno 17321 bound_to 7965
  140.3276  144.3354  150.5995 LP  0  0  0  0  0  0  0  0  0  0  0  0  # atno 17342 bound_to 10162
  140.5671  143.2185  151.7663 LP  0  0  0  0  0  0  0  0  0  0  0  0  # atno 17343 bound_to 10162
  156.8907  130.5212  149.5286 LP  0  0  0  0  0  0  0  0  0  0  0  0  # atno 17370 bound_to 10713
  156.0723  130.5753  150.9407 LP  0  0  0  0  0  0  0  0  0  0  0  0  # atno 17371 bound_to 10713
  139.8870  135.0086  156.6534 LP  0  0  0  0  0  0  0  0  0  0  0  0  # atno 17394 bound_to 11000
  140.7501  133.8904  155.8341 LP  0  0  0  0  0  0  0  0  0  0  0  0  # atno 17395 bound_to 11000

$$$$
