AV-unprocessed.smi:102|AV-procd|sdf|945|dock4
  -GOLD-   2262017463D 1   1.00000     0.00000
 Structure written by MMmdl.
 44 45  0  0  0  0  0  0  0  0  1 V2000
  149.9176  145.1586  160.1015 C   0  0  0  0  0  0  0  0  0  0  0  0
  151.3542  144.8256  159.7202 C   0  0  0  0  0  0  0  0  0  0  0  0
  152.1539  145.7051  159.4002 O   0  0  0  0  0  0  0  0  0  0  0  0
  151.6102  143.5104  159.7774 O   0  0  0  0  0  0  0  0  0  0  0  0
  152.9205  143.0385  159.5038 C   0  0  0  0  0  0  0  0  0  0  0  0
  152.9063  141.5198  159.2893 C   0  0  2  0  0  0  0  0  0  0  0  0
  151.5762  141.0210  159.3241 O   0  0  0  0  0  0  0  0  0  0  0  0
  151.6183  139.6699  159.6457 C   0  0  1  0  0  0  0  0  0  0  0  0
  151.6462  138.8735  158.3419 N   0  0  0  0  0  0  0  0  0  0  0  0
  151.5211  139.4690  157.0895 C   0  0  0  0  0  0  0  0  0  0  0  0
  151.4568  138.7692  155.9328 C   0  0  0  0  0  0  0  0  0  0  0  0
  151.3422  139.4260  154.7659 F   0  0  0  0  0  0  0  0  0  0  0  0
  151.4848  137.3116  155.9428 C   0  0  0  0  0  0  0  0  0  0  0  0
  151.4469  136.5897  154.9485 O   0  0  0  0  0  0  0  0  0  0  0  0
  151.5441  136.7491  157.2195 N   0  0  0  0  0  0  0  0  0  0  0  0
  151.5991  137.4603  158.4194 C   0  0  0  0  0  0  0  0  0  0  0  0
  151.6067  136.8455  159.4850 O   0  0  0  0  0  0  0  0  0  0  0  0
  152.8190  139.4738  160.5992 C   0  0  1  0  0  0  0  0  0  0  0  0
  153.4843  138.2227  160.4397 O   0  0  0  0  0  0  0  0  0  0  0  0
  153.8832  137.5242  161.5153 C   0  0  0  0  0  0  0  0  0  0  0  0
  154.5173  136.1926  161.1376 C   0  0  0  0  0  0  0  0  0  0  0  0
  153.7619  137.8706  162.6901 O   0  0  0  0  0  0  0  0  0  0  0  0
  153.6932  140.7082  160.3345 C   0  0  1  0  0  0  0  0  0  0  0  0
  154.9817  140.3887  159.8183 O   0  0  0  0  0  0  0  0  0  0  0  0
  155.9743  140.0157  160.6450 C   0  0  0  0  0  0  0  0  0  0  0  0
  157.2769  139.7512  159.9025 C   0  0  0  0  0  0  0  0  0  0  0  0
  155.8891  139.8780  161.8652 O   0  0  0  0  0  0  0  0  0  0  0  0
  151.5328  135.7413  157.2802 H   0  0  0  0  0  0  0  0  0  0  0  0
  149.5138  144.4074  160.7811 H   0  0  0  0  0  0  0  0  0  0  0  0
  149.2904  145.1934  159.2105 H   0  0  0  0  0  0  0  0  0  0  0  0
  149.8717  146.1295  160.5952 H   0  0  0  0  0  0  0  0  0  0  0  0
  153.3152  143.5374  158.6177 H   0  0  0  0  0  0  0  0  0  0  0  0
  153.5791  143.2845  160.3380 H   0  0  0  0  0  0  0  0  0  0  0  0
  153.2963  141.3123  158.2922 H   0  0  0  0  0  0  0  0  0  0  0  0
  150.7011  139.3769  160.1577 H   0  0  0  0  0  0  0  0  0  0  0  0
  151.4632  140.5409  157.0040 H   0  0  0  0  0  0  0  0  0  0  0  0
  152.4425  139.5635  161.6196 H   0  0  0  0  0  0  0  0  0  0  0  0
  155.2770  136.3369  160.3689 H   0  0  0  0  0  0  0  0  0  0  0  0
  153.7590  135.5099  160.7537 H   0  0  0  0  0  0  0  0  0  0  0  0
  154.9888  135.7334  162.0069 H   0  0  0  0  0  0  0  0  0  0  0  0
  153.7812  141.2820  161.2581 H   0  0  0  0  0  0  0  0  0  0  0  0
  157.5418  140.6090  159.2837 H   0  0  0  0  0  0  0  0  0  0  0  0
  157.1739  138.8772  159.2590 H   0  0  0  0  0  0  0  0  0  0  0  0
  158.0894  139.5694  160.6066 H   0  0  0  0  0  0  0  0  0  0  0  0
  1  2  1  0  0  0  0
  1 29  1  0  0  0  0
  1 30  1  0  0  0  0
  1 31  1  0  0  0  0
  2  3  2  0  0  0  0
  2  4  1  0  0  0  0
  4  5  1  0  0  0  0
  5  6  1  0  0  0  0
  5 32  1  0  0  0  0
  5 33  1  0  0  0  0
  6 23  1  0  0  0  0
  6  7  1  0  0  0  0
  6 34  1  0  0  0  0
  7  8  1  0  0  0  0
  8  9  1  0  0  0  0
  8 18  1  0  0  0  0
  8 35  1  0  0  0  0
  9 16  1  0  0  0  0
  9 10  1  0  0  0  0
 10 11  2  0  0  0  0
 10 36  1  0  0  0  0
 11 12  1  0  0  0  0
 11 13  1  0  0  0  0
 13 14  2  0  0  0  0
 13 15  1  0  0  0  0
 15 28  1  0  0  0  0
 15 16  1  0  0  0  0
 16 17  2  0  0  0  0
 18 19  1  0  0  0  0
 18 23  1  0  0  0  0
 18 37  1  0  0  0  0
 19 20  1  0  0  0  0
 20 21  1  0  0  0  0
 20 22  2  0  0  0  0
 21 38  1  0  0  0  0
 21 39  1  0  0  0  0
 21 40  1  0  0  0  0
 23 24  1  0  0  0  0
 23 41  1  0  0  0  0
 24 25  1  0  0  0  0
 25 26  1  0  0  0  0
 25 27  2  0  0  0  0
 26 42  1  0  0  0  0
 26 43  1  0  0  0  0
 26 44  1  0  0  0  0
M  END
> <s_m_source_file>
AV-unprocessed.smi

> <i_m_source_file_index>
102

> <i_lp_mmshare_version>
43012

> <i_f3d_flags>
0

> <s_epik_input>
W0NIM11DKD1PKU9bQ0gyXVtDQEBIXTFPW0NASF0oW0NAQEhdKE9DKD1PKVtDSDNdKVtDQEhdMU9DKD1PKVtDSDNdKW4yW2NIXWMoRiljKD1PKVtuSF1jMj1P

> <s_epik_cmdline>
J2VwaWtfcHl0aG9uJywgJy1waCcsICc3LjAnLCAnLXRuJywgJzgnLCAnLW1hJywgJzIwMCcsICctbWV0YWxfYmluZGluZycsICctaW1hZScsICc8aW5maWxlLm1hZT4nLCAnLW9tYWUnLCAnPG91dGZpbGUubWFlPic=

> <r_lp_tautomer_probability>
0.999537

> <r_epik_Ionization_Penalty>
0.058267

> <r_epik_Ionization_Penalty_Charging>
0.058267

> <r_epik_Ionization_Penalty_Neutral>
6.57791e-16

> <r_epik_State_Penalty>
0.0503774

> <r_epik_Charging_Adjusted_Penalty>
0.108644

> <i_epik_Tot_Q>
0

> <i_epik_Tot_abs_Q>
0

> <r_epik_Metal_State_Penalty>
2.6644

> <b_epik_Metal_Only>
0

> <s_epik_Chemistry_Notes>
This compound has an ester and may undergo hydrolysis at high or low pH. This compound contains an acetal/aminal-like group ( X-CH(R)-Y where X, Y are N, S, or O) that may be acid/base labile, releasing an aldehyde.

> <s_lp_Force_Field>
OPLS_2005

> <r_lp_Energy>
14.9607

> <b_lp_Chiralities_Consistent>
1

> <s_lp_Variant>
AV-unprocessed.smi:102-1

> <Gold.Version>
5.8.1

> <Gold.Id.Protein>
6NUR|6NUR_protein|mol2

> <Gold.PLP.Fitness>
39.9773

> <Gold.PLP.PLP>
-36.9031

> <Gold.PLP.part.hbond>
-5.0000

> <Gold.PLP.part.metal>
0.0000

> <Gold.PLP.part.buried>
-4.0586

> <Gold.PLP.part.nonpolar>
-29.3578

> <Gold.PLP.part.repulsive>
0.3802

> <Gold.PLP.ligand.clash>
0.0000

> <Gold.PLP.ligand.torsion>
1.6427

> <Gold.PLP.Chemscore.Hbond>
2.0000

> <Gold.PLP.Chemscore.CHOScore>
0.0000

> <Gold.PLP.Chemscore.Metal>
0.0000

> <Gold.Chemscore.Hbonds>
donor molecule, donor type, donor heavy atom, donor atom, acceptor molecule, acceptor atom, score
      P1  H  6896  6908       L1    17  1.00
      P1  H 10752 10763       L1    14  1.00

> <Gold.PLP.Chemscore.Internal.Correction>
0.3595

> <Gold.Rescore>
     Score         DG    S(hbond)    S(metal)    S(lipo)     H(rot)  DE(clash)    DE(int)     intcor
      5.11      -9.29       1.89        0.00      67.22       4.05       2.09       2.09       ----

> <Gold.Chemscore.Fitness>
5.1051

> <Gold.Chemscore.DG>
-9.2928

> <Gold.Chemscore.ZeroCoef>
-5.4800

> <Gold.Chemscore.Hbond>
1.8925

> <Gold.Chemscore.Metal>
0.0000

> <Gold.Chemscore.Lipo>
67.2212

> <Gold.Chemscore.Internal_Hbond>
0.0000

> <Gold.Chemscore.DEClash>
2.0948

> <Gold.Chemscore.DEInternal>
2.0929

> <Gold.Chemscore.Rot>
4.0520

> <Gold.Chemscore.Internal.Correction>
   9.000000E+99

> <Gold.Chemscore.Hbonds>
donor molecule, donor type, donor heavy atom, donor atom, acceptor molecule, acceptor atom, score
      P1  H  6896  6908       L1    17  1.00
      P1  H 10752 10763       L1    14  0.97

> <Gold.Chemscore.Hbond.Weighted>
-6.3211

> <Gold.Chemscore.Metal.Weighted>
-0.0000

> <Gold.Chemscore.Lipo.Weighted>
-7.8649

> <Gold.Chemscore.Internal_Hbond.Weighted>
0.0000

> <Gold.Chemscore.DEClash.Weighted>
2.0948

> <Gold.Chemscore.DEInternal.Weighted>
2.0929

> <Gold.Chemscore.Rot.Weighted>
10.3732

> <Gold.Chemscore.Internal.Correction.Weighted>
   9.000000E+99

> <Gold.Protein.RotatedTorsions>
[ 6907 6896 6895 6894 ] final -125.01 input  -60.11 | X-H torsion
[ 7974 7965 7964 7962 ] final  104.54 input  175.53 | X-H torsion
[ 8008 7997 7996 7995 ] final  136.10 input   59.86 | X-H torsion
[ 10167 10162 10161 10158 ] final  141.13 input  -65.29 | X-H torsion
[ 10718 10713 10712 10709 ] final  -40.94 input   66.30 | X-H torsion
[ 10763 10752 10751 10750 ] final   41.03 input  -60.55 | X-H torsion
[ 11005 11000 10999 10996 ] final  116.82 input  -57.11 | X-H torsion

> <Gold.Protein.ActiveResidues>
 VAL166  LYS551  ARG553  GLY616  TRP617  ASP618  TYR619  PRO620  LYS621  CYS622 
 ASP623  PHE694  ASN695  SER759  ASP760  ASP761  ALA762  ILE779  LEU786  VAL792 
 PHE793  MET794  SER795  GLU796  ALA797  LYS798  CYS799  TRP800  GLU811  SER814 

> <Gold.Protein.RotatedAtoms>
  150.8825  133.7353  159.2927 H   0  0  0  0  0  0  0  0  0  0  0  0  # atno 6907 bound_to 6896
  151.4929  135.1057  159.9818 H   0  0  0  0  0  0  0  0  0  0  0  0  # atno 6908 bound_to 6896
  152.4769  133.8113  159.7060 H   0  0  0  0  0  0  0  0  0  0  0  0  # atno 6909 bound_to 6896
  145.3314  139.2486  143.3659 H   0  0  0  0  0  0  0  0  0  0  0  0  # atno 7974 bound_to 7965
  156.3004  140.2454  156.3690 H   0  0  0  0  0  0  0  0  0  0  0  0  # atno 8008 bound_to 7997
  154.8806  140.0413  157.1799 H   0  0  0  0  0  0  0  0  0  0  0  0  # atno 8009 bound_to 7997
  154.8700  140.2933  155.5491 H   0  0  0  0  0  0  0  0  0  0  0  0  # atno 8010 bound_to 7997
  139.5029  144.6191  151.6095 H   0  0  0  0  0  0  0  0  0  0  0  0  # atno 10167 bound_to 10162
  156.2758  130.4211  149.8389 H   0  0  0  0  0  0  0  0  0  0  0  0  # atno 10718 bound_to 10713
  152.9919  135.6174  154.2721 H   0  0  0  0  0  0  0  0  0  0  0  0  # atno 10763 bound_to 10752
  154.2454  135.2787  155.2839 H   0  0  0  0  0  0  0  0  0  0  0  0  # atno 10764 bound_to 10752
  154.5334  135.5781  153.6835 H   0  0  0  0  0  0  0  0  0  0  0  0  # atno 10765 bound_to 10752
  139.9054  134.9603  156.7256 H   0  0  0  0  0  0  0  0  0  0  0  0  # atno 11005 bound_to 11000
  146.3044  140.3892  142.8692 LP  0  0  0  0  0  0  0  0  0  0  0  0  # atno 17320 bound_to 7965
  144.8861  140.7464  143.5956 LP  0  0  0  0  0  0  0  0  0  0  0  0  # atno 17321 bound_to 7965
  140.5887  143.9818  150.6311 LP  0  0  0  0  0  0  0  0  0  0  0  0  # atno 17342 bound_to 10162
  140.2991  143.3272  152.0989 LP  0  0  0  0  0  0  0  0  0  0  0  0  # atno 17343 bound_to 10162
  156.5854  130.8484  151.3394 LP  0  0  0  0  0  0  0  0  0  0  0  0  # atno 17370 bound_to 10713
  157.7299  130.9677  150.1807 LP  0  0  0  0  0  0  0  0  0  0  0  0  # atno 17371 bound_to 10713
  140.6966  133.9343  155.7998 LP  0  0  0  0  0  0  0  0  0  0  0  0  # atno 17394 bound_to 11000
  141.0403  134.0631  157.3910 LP  0  0  0  0  0  0  0  0  0  0  0  0  # atno 17395 bound_to 11000

$$$$
