AV-unprocessed.smi:160|AV-procd|sdf|1363|dock1
  -GOLD-   2262019 73D 1   1.00000     0.00000
 Structure written by MMmdl.
 28 29  0  0  0  0  0  0  0  0  2 V2000
  149.0788  135.4531  158.6351 N   0  5  0  0  0  0  0  0  0  0  0  0
  148.9512  136.7663  158.3441 C   0  0  0  0  0  0  0  0  0  0  0  0
  148.6081  137.6546  159.1235 O   0  0  0  0  0  0  0  0  0  0  0  0
  149.2702  137.1240  156.9118 C   0  0  0  0  0  0  0  0  0  0  0  0
  149.5348  136.1475  155.9916 N   0  0  0  0  0  0  0  0  0  0  0  0
  149.7429  136.9100  154.9269 C   0  0  0  0  0  0  0  0  0  0  0  0
  149.6493  138.2228  155.1658 N   0  0  0  0  0  0  0  0  0  0  0  0
  149.7458  139.3963  154.2430 C   0  0  2  0  0  0  0  0  0  0  0  0
  150.6830  140.2912  154.7691 O   0  0  0  0  0  0  0  0  0  0  0  0
  150.0410  141.4167  155.3645 C   0  0  2  0  0  0  0  0  0  0  0  0
  149.7347  141.1380  156.8547 C   0  0  0  0  0  0  0  0  0  0  0  0
  149.1005  142.2595  157.4311 O   0  0  0  0  0  0  0  0  0  0  0  0
  148.8108  141.5797  154.4608 C   0  0  2  0  0  0  0  0  0  0  0  0
  147.7617  142.3007  155.0766 O   0  0  0  0  0  0  0  0  0  0  0  0
  148.4025  140.1460  154.1460 C   0  0  1  0  0  0  0  0  0  0  0  0
  147.8564  140.0791  152.8442 O   0  0  0  0  0  0  0  0  0  0  0  0
  149.3039  138.3839  156.4660 N   0  0  0  0  0  0  0  0  0  0  0  0
  150.1014  138.9735  153.3021 H   0  0  0  0  0  0  0  0  0  0  0  0
  150.6802  142.2972  155.2852 H   0  0  0  0  0  0  0  0  0  0  0  0
  149.1144  142.0956  153.5480 H   0  0  0  0  0  0  0  0  0  0  0  0
  147.6965  139.7677  154.8875 H   0  0  0  0  0  0  0  0  0  0  0  0
  148.2298  134.9127  158.8392 H   0  0  0  0  0  0  0  0  0  0  0  0
  149.9712  136.5021  153.9531 H   0  0  0  0  0  0  0  0  0  0  0  0
  149.0374  140.3062  156.9522 H   0  0  0  0  0  0  0  0  0  0  0  0
  150.6226  140.8680  157.4240 H   0  0  0  0  0  0  0  0  0  0  0  0
  149.0712  142.9510  156.7876 H   0  0  0  0  0  0  0  0  0  0  0  0
  148.1215  143.0960  155.4391 H   0  0  0  0  0  0  0  0  0  0  0  0
  148.5651  139.9497  152.2317 H   0  0  0  0  0  0  0  0  0  0  0  0
  1  2  1  0  0  0  0
  1 22  1  0  0  0  0
  2  3  2  0  0  0  0
  2  4  1  0  0  0  0
  4 17  2  0  0  0  0
  4  5  1  0  0  0  0
  5  6  2  0  0  0  0
  6  7  1  0  0  0  0
  6 23  1  0  0  0  0
  7  8  1  0  0  0  0
  7 17  1  0  0  0  0
  8 18  1  0  0  0  0
  8 15  1  0  0  0  0
  8  9  1  0  0  0  0
  9 10  1  0  0  0  0
 10 19  1  0  0  0  0
 10 11  1  0  0  0  0
 10 13  1  0  0  0  0
 11 12  1  0  0  0  0
 11 24  1  0  0  0  0
 11 25  1  0  0  0  0
 12 26  1  0  0  0  0
 13 20  1  0  0  0  0
 13 14  1  0  0  0  0
 13 15  1  0  0  0  0
 14 27  1  0  0  0  0
 15 21  1  0  0  0  0
 15 16  1  0  0  0  0
 16 28  1  0  0  0  0
M  CHG  1   1  -1
M  END
> <s_m_source_file>
AV-unprocessed.smi

> <i_m_source_file_index>
160

> <i_lp_mmshare_version>
43012

> <i_f3d_flags>
0

> <s_epik_input>
W05IMl1DKD1PKWMxbltjSF1uKG4xKVtDQEBIXTJPW0NASF0oW0NIMl1bT0hdKVtDQEBIXShbT0hdKVtDQEhdMltPSF0=

> <s_epik_cmdline>
J2VwaWtfcHl0aG9uJywgJy1waCcsICc3LjAnLCAnLXRuJywgJzgnLCAnLW1hJywgJzIwMCcsICctbWV0YWxfYmluZGluZycsICctaW1hZScsICc8aW5maWxlLm1hZT4nLCAnLW9tYWUnLCAnPG91dGZpbGUubWFlPic=

> <r_lp_tautomer_probability>
1

> <r_epik_Ionization_Penalty>
6.6993

> <r_epik_Ionization_Penalty_Charging>
6.6993

> <r_epik_Ionization_Penalty_Neutral>
6.01698e-06

> <r_epik_State_Penalty>
6.69929

> <r_epik_Charging_Adjusted_Penalty>
13.3986

> <i_epik_Tot_Q>
-1

> <i_epik_Tot_abs_Q>
1

> <r_epik_Metal_State_Penalty>
2.62798

> <b_epik_Metal_Only>
1

> <s_epik_Chemistry_Notes>
This compound contains an acetal/aminal-like group ( X-CH(R)-Y where X, Y are N, S, or O) that may be acid/base labile, releasing an aldehyde.

> <s_lp_Force_Field>
OPLS_2005

> <r_lp_Energy>
38.9008

> <b_lp_Chiralities_Consistent>
1

> <s_lp_Variant>
AV-unprocessed.smi:160-21

> <Gold.Version>
5.8.1

> <Gold.Id.Protein>
6NUR|6NUR_protein|mol2

> <Gold.PLP.Fitness>
44.7367

> <Gold.PLP.PLP>
-23.7527

> <Gold.PLP.part.hbond>
-6.3962

> <Gold.PLP.part.metal>
0.0000

> <Gold.PLP.part.buried>
-2.5173

> <Gold.PLP.part.nonpolar>
-14.1095

> <Gold.PLP.part.repulsive>
0.1168

> <Gold.PLP.ligand.clash>
0.0000

> <Gold.PLP.ligand.torsion>
0.0735

> <Gold.PLP.Chemscore.Hbond>
6.0000

> <Gold.PLP.Chemscore.CHOScore>
1.0241

> <Gold.PLP.Chemscore.Metal>
0.0000

> <Gold.Chemscore.Hbonds>
donor molecule, donor type, donor heavy atom, donor atom, acceptor molecule, acceptor atom, score
      L1  H    12    26       P1  8028  0.83
      L1  H    14    27       P1  8028  1.00
      L1  H    16    28       P1  7957  0.89
      P1  H  6896  6908       L1     1  1.98
      P1  H  7989  7998       L1     9  1.00
      L1  C     6    23       P1  7948  1.00

> <Gold.PLP.Chemscore.Internal.Correction>
0.0588

> <Gold.Rescore>
     Score         DG    S(hbond)    S(metal)    S(lipo)     H(rot)  DE(clash)    DE(int)     intcor
     11.25     -12.71       4.30        0.00      27.45       4.04       0.05       1.41       ----

> <Gold.Chemscore.Fitness>
11.2521

> <Gold.Chemscore.DG>
-12.7119

> <Gold.Chemscore.ZeroCoef>
-5.4800

> <Gold.Chemscore.Hbond>
4.3005

> <Gold.Chemscore.Metal>
0.0000

> <Gold.Chemscore.Lipo>
27.4477

> <Gold.Chemscore.Internal_Hbond>
0.0000

> <Gold.Chemscore.DEClash>
0.0456

> <Gold.Chemscore.DEInternal>
1.4142

> <Gold.Chemscore.Rot>
4.0403

> <Gold.Chemscore.Internal.Correction>
   9.000000E+99

> <Gold.Chemscore.Hbonds>
donor molecule, donor type, donor heavy atom, donor atom, acceptor molecule, acceptor atom, score
      L1  H    12    26       P1  8028  0.78
      L1  H    14    27       P1  8028  0.91
      L1  H    16    28       P1  7957  0.87
      P1  H  6896  6908       L1     1  0.69
      P1  H  7989  7998       L1     9  0.39

> <Gold.Chemscore.Hbond.Weighted>
-14.3636

> <Gold.Chemscore.Metal.Weighted>
-0.0000

> <Gold.Chemscore.Lipo.Weighted>
-3.2114

> <Gold.Chemscore.Internal_Hbond.Weighted>
0.0000

> <Gold.Chemscore.DEClash.Weighted>
0.0456

> <Gold.Chemscore.DEInternal.Weighted>
1.4142

> <Gold.Chemscore.Rot.Weighted>
10.3431

> <Gold.Chemscore.Internal.Correction.Weighted>
   9.000000E+99

> <Gold.Protein.RotatedTorsions>
[ 6907 6896 6895 6894 ] final  171.01 input  -60.11 | X-H torsion
[ 7974 7965 7964 7962 ] final -163.72 input  175.53 | X-H torsion
[ 8008 7997 7996 7995 ] final   48.93 input   59.86 | X-H torsion
[ 10167 10162 10161 10158 ] final  -84.54 input  -65.29 | X-H torsion
[ 10718 10713 10712 10709 ] final   33.19 input   66.30 | X-H torsion
[ 10763 10752 10751 10750 ] final  -34.43 input  -60.55 | X-H torsion
[ 11005 11000 10999 10996 ] final -128.43 input  -57.11 | X-H torsion

> <Gold.Protein.ActiveResidues>
 VAL166  LYS551  ARG553  GLY616  TRP617  ASP618  TYR619  PRO620  LYS621  CYS622 
 ASP623  PHE694  ASN695  SER759  ASP760  ASP761  ALA762  ILE779  LEU786  VAL792 
 PHE793  MET794  SER795  GLU796  ALA797  LYS798  CYS799  TRP800  GLU811  SER814 

> <Gold.Protein.RotatedAtoms>
  151.8070  133.3377  159.3543 H   0  0  0  0  0  0  0  0  0  0  0  0  # atno 6907 bound_to 6896
  150.7339  134.5700  159.5895 H   0  0  0  0  0  0  0  0  0  0  0  0  # atno 6908 bound_to 6896
  152.3102  134.7507  160.0389 H   0  0  0  0  0  0  0  0  0  0  0  0  # atno 6909 bound_to 6896
  144.7317  140.3065  143.6195 H   0  0  0  0  0  0  0  0  0  0  0  0  # atno 7974 bound_to 7965
  155.3938  140.3434  155.4253 H   0  0  0  0  0  0  0  0  0  0  0  0  # atno 8008 bound_to 7997
  156.1542  140.1580  156.8752 H   0  0  0  0  0  0  0  0  0  0  0  0  # atno 8009 bound_to 7997
  154.5080  140.0797  156.7914 H   0  0  0  0  0  0  0  0  0  0  0  0  # atno 8010 bound_to 7997
  140.4122  143.2618  151.9002 H   0  0  0  0  0  0  0  0  0  0  0  0  # atno 10167 bound_to 10162
  157.2947  130.7320  149.6631 H   0  0  0  0  0  0  0  0  0  0  0  0  # atno 10718 bound_to 10713
  153.8465  135.6853  153.4797 H   0  0  0  0  0  0  0  0  0  0  0  0  # atno 10763 bound_to 10752
  153.1422  135.4652  154.9511 H   0  0  0  0  0  0  0  0  0  0  0  0  # atno 10764 bound_to 10752
  154.7821  135.3272  154.7913 H   0  0  0  0  0  0  0  0  0  0  0  0  # atno 10765 bound_to 10752
  140.9517  134.1057  157.4056 H   0  0  0  0  0  0  0  0  0  0  0  0  # atno 11005 bound_to 11000
  145.7708  139.1856  143.2214 LP  0  0  0  0  0  0  0  0  0  0  0  0  # atno 17320 bound_to 7965
  146.0913  140.7653  142.9594 LP  0  0  0  0  0  0  0  0  0  0  0  0  # atno 17321 bound_to 7965
  139.4782  144.5524  151.8365 LP  0  0  0  0  0  0  0  0  0  0  0  0  # atno 17342 bound_to 10162
  140.4625  144.1702  150.5908 LP  0  0  0  0  0  0  0  0  0  0  0  0  # atno 17343 bound_to 10162
  155.9668  130.4298  150.4849 LP  0  0  0  0  0  0  0  0  0  0  0  0  # atno 17370 bound_to 10713
  157.2818  131.0608  151.2192 LP  0  0  0  0  0  0  0  0  0  0  0  0  # atno 17371 bound_to 10713
  139.8849  135.0067  156.6402 LP  0  0  0  0  0  0  0  0  0  0  0  0  # atno 17394 bound_to 11000
  140.7594  133.8830  155.8406 LP  0  0  0  0  0  0  0  0  0  0  0  0  # atno 17395 bound_to 11000

$$$$
