AV-unprocessed.smi:2710|AV-procd|sdf|10468|dock3
  -GOLD-   2272014503D 1   1.00000     0.00000
 Structure written by MMmdl.
 53 54  0  0  0  0  0  0  0  0  2 V2000
  149.2099  133.2751  153.6787 C   0  0  0  0  0  0  0  0  0  0  0  0
  148.2004  133.0608  152.5410 C   0  0  0  0  0  0  0  0  0  0  0  0
  147.0610  134.0169  152.5783 N   0  3  2  0  0  0  0  0  0  0  0  0
  146.4052  134.0535  153.9130 C   0  0  0  0  0  0  0  0  0  0  0  0
  145.3784  135.1940  154.0045 C   0  0  0  0  0  0  0  0  0  0  0  0
  144.3283  135.0871  152.8899 C   0  0  1  0  0  0  0  0  0  0  0  0
  143.4111  136.2213  152.9584 N   0  0  0  0  0  0  0  0  0  0  0  0
  142.1397  136.1583  153.3807 C   0  0  0  0  0  0  0  0  0  0  0  0
  141.6045  135.1167  153.7581 O   0  0  0  0  0  0  0  0  0  0  0  0
  141.5552  137.3678  153.3411 N   0  0  0  0  0  0  0  0  0  0  0  0
  140.2285  137.7303  153.7012 C   0  0  0  0  0  0  0  0  0  0  0  0
  139.9884  139.0358  154.1747 C   0  0  0  0  0  0  0  0  0  0  0  0
  138.7551  139.4553  154.5264 N   0  0  0  0  0  0  0  0  0  0  0  0
  137.7504  138.5739  154.4392 C   0  0  0  0  0  0  0  0  0  0  0  0
  136.3289  139.0998  154.7056 C   0  0  0  0  0  0  0  0  0  0  0  0
  135.2730  137.9954  154.4648 C   0  0  0  0  0  0  0  0  0  0  0  0
  136.0422  140.2981  153.7820 C   0  0  0  0  0  0  0  0  0  0  0  0
  136.1633  139.5338  156.1810 C   0  0  0  0  0  0  0  0  0  0  0  0
  137.8602  137.3296  153.9557 N   0  0  0  0  0  0  0  0  0  0  0  0
  139.0887  136.8962  153.6010 C   0  0  0  0  0  0  0  0  0  0  0  0
  145.0391  135.0348  151.5241 C   0  0  0  0  0  0  0  0  0  0  0  0
  146.0840  133.9013  151.4504 C   0  0  2  0  0  0  0  0  0  0  0  0
  145.4247  132.5094  151.3394 C   0  0  0  0  0  0  0  0  0  0  0  0
  149.9510  132.4752  153.6870 H   0  0  0  0  0  0  0  0  0  0  0  0
  148.7161  133.2767  154.6509 H   0  0  0  0  0  0  0  0  0  0  0  0
  149.7547  134.2128  153.5712 H   0  0  0  0  0  0  0  0  0  0  0  0
  148.6997  133.0905  151.5725 H   0  0  0  0  0  0  0  0  0  0  0  0
  147.8034  132.0497  152.6403 H   0  0  0  0  0  0  0  0  0  0  0  0
  145.9297  133.0950  154.1237 H   0  0  0  0  0  0  0  0  0  0  0  0
  147.1600  134.1996  154.6867 H   0  0  0  0  0  0  0  0  0  0  0  0
  144.8916  135.1733  154.9804 H   0  0  0  0  0  0  0  0  0  0  0  0
  145.8956  136.1523  153.9374 H   0  0  0  0  0  0  0  0  0  0  0  0
  143.7594  134.1680  153.0413 H   0  0  0  0  0  0  0  0  0  0  0  0
  143.7723  137.1200  152.6732 H   0  0  0  0  0  0  0  0  0  0  0  0
  142.1434  138.1333  153.0458 H   0  0  0  0  0  0  0  0  0  0  0  0
  140.7901  139.7538  154.2679 H   0  0  0  0  0  0  0  0  0  0  0  0
  134.2683  138.3491  154.6992 H   0  0  0  0  0  0  0  0  0  0  0  0
  135.4651  137.1199  155.0864 H   0  0  0  0  0  0  0  0  0  0  0  0
  135.2551  137.6655  153.4254 H   0  0  0  0  0  0  0  0  0  0  0  0
  136.1139  140.0145  152.7313 H   0  0  0  0  0  0  0  0  0  0  0  0
  136.7522  141.1083  153.9528 H   0  0  0  0  0  0  0  0  0  0  0  0
  135.0412  140.6977  153.9479 H   0  0  0  0  0  0  0  0  0  0  0  0
  135.1437  139.8619  156.3863 H   0  0  0  0  0  0  0  0  0  0  0  0
  136.8186  140.3668  156.4381 H   0  0  0  0  0  0  0  0  0  0  0  0
  136.3868  138.7132  156.8636 H   0  0  0  0  0  0  0  0  0  0  0  0
  139.1283  135.8874  153.2222 H   0  0  0  0  0  0  0  0  0  0  0  0
  144.3103  134.9205  150.7205 H   0  0  0  0  0  0  0  0  0  0  0  0
  145.5379  135.9884  151.3423 H   0  0  0  0  0  0  0  0  0  0  0  0
  146.6308  134.0655  150.5226 H   0  0  0  0  0  0  0  0  0  0  0  0
  144.7060  132.4897  150.5198 H   0  0  0  0  0  0  0  0  0  0  0  0
  144.8879  132.2291  152.2449 H   0  0  0  0  0  0  0  0  0  0  0  0
  146.1565  131.7296  151.1305 H   0  0  0  0  0  0  0  0  0  0  0  0
  147.4819  134.9287  152.4706 H   0  0  0  0  0  0  0  0  0  0  0  0
  1  2  1  0  0  0  0
  1 24  1  0  0  0  0
  1 25  1  0  0  0  0
  1 26  1  0  0  0  0
  2  3  1  0  0  0  0
  2 27  1  0  0  0  0
  2 28  1  0  0  0  0
  3 22  1  0  0  0  0
  3  4  1  0  0  0  0
  3 53  1  0  0  0  0
  4  5  1  0  0  0  0
  4 29  1  0  0  0  0
  4 30  1  0  0  0  0
  5  6  1  0  0  0  0
  5 31  1  0  0  0  0
  5 32  1  0  0  0  0
  6  7  1  0  0  0  0
  6 21  1  0  0  0  0
  6 33  1  0  0  0  0
  7  8  1  0  0  0  0
  7 34  1  0  0  0  0
  8  9  2  0  0  0  0
  8 10  1  0  0  0  0
 10 11  1  0  0  0  0
 10 35  1  0  0  0  0
 11 20  1  0  0  0  0
 11 12  2  0  0  0  0
 12 13  1  0  0  0  0
 12 36  1  0  0  0  0
 13 14  2  0  0  0  0
 14 15  1  0  0  0  0
 14 19  1  0  0  0  0
 15 16  1  0  0  0  0
 15 17  1  0  0  0  0
 15 18  1  0  0  0  0
 16 37  1  0  0  0  0
 16 38  1  0  0  0  0
 16 39  1  0  0  0  0
 17 40  1  0  0  0  0
 17 41  1  0  0  0  0
 17 42  1  0  0  0  0
 18 43  1  0  0  0  0
 18 44  1  0  0  0  0
 18 45  1  0  0  0  0
 19 20  2  0  0  0  0
 20 46  1  0  0  0  0
 21 22  1  0  0  0  0
 21 47  1  0  0  0  0
 21 48  1  0  0  0  0
 22 23  1  0  0  0  0
 22 49  1  0  0  0  0
 23 50  1  0  0  0  0
 23 51  1  0  0  0  0
 23 52  1  0  0  0  0
M  CHG  1   3   1
M  END
> <s_m_source_file>
AV-unprocessed.smi

> <i_m_source_file_index>
2710

> <i_lp_mmshare_version>
43012

> <i_f3d_flags>
0

> <s_epik_input>
W0NIM11bQ0gyXU4xW0NIMl1bQ0gyXVtDQEhdKFtDSDJdW0NASF0xW0NIM10pW05IXUMoPU8pW05IXWMyW2NIXW5jKEMoW0NIM10pKFtDSDNdKVtDSDNdKW5bY0hdMg==

> <s_epik_cmdline>
J2VwaWtfcHl0aG9uJywgJy1waCcsICc3LjAnLCAnLXRuJywgJzgnLCAnLW1hJywgJzIwMCcsICctbWV0YWxfYmluZGluZycsICctaW1hZScsICc8aW5maWxlLm1hZT4nLCAnLW9tYWUnLCAnPG91dGZpbGUubWFlPic=

> <r_lp_tautomer_probability>
1

> <r_epik_Ionization_Penalty>
0.00396003

> <r_epik_Ionization_Penalty_Charging>
0.0039379

> <r_epik_Ionization_Penalty_Neutral>
2.21316e-05

> <r_epik_State_Penalty>
0.00281651

> <r_epik_Charging_Adjusted_Penalty>
0.00675441

> <i_epik_Tot_Q>
1

> <i_epik_Tot_abs_Q>
1

> <r_epik_Metal_State_Penalty>
-0

> <b_epik_Metal_Only>
0

> <s_lp_Force_Field>
OPLS_2005

> <r_lp_Energy>
21.0502

> <b_lp_Chiralities_Consistent>
1

> <s_lp_Variant>
AV-unprocessed.smi:2710-5

> <Gold.Version>
5.8.1

> <Gold.Id.Protein>
6NUR|6NUR_protein|mol2

> <Gold.PLP.Fitness>
40.2320

> <Gold.PLP.PLP>
-32.1044

> <Gold.PLP.part.hbond>
-1.0034

> <Gold.PLP.part.metal>
0.0000

> <Gold.PLP.part.buried>
-6.0820

> <Gold.PLP.part.nonpolar>
-25.9656

> <Gold.PLP.part.repulsive>
0.3210

> <Gold.PLP.ligand.clash>
0.0000

> <Gold.PLP.ligand.torsion>
0.4130

> <Gold.PLP.Chemscore.Hbond>
2.0000

> <Gold.PLP.Chemscore.CHOScore>
0.9247

> <Gold.PLP.Chemscore.Metal>
0.0000

> <Gold.Chemscore.Hbonds>
donor molecule, donor type, donor heavy atom, donor atom, acceptor molecule, acceptor atom, score
      L1  H     3    53       P1  7948  2.00
      L1  C    20    46       P1 10187  0.85

> <Gold.PLP.Chemscore.Internal.Correction>
0.1795

> <Gold.Rescore>
     Score         DG    S(hbond)    S(metal)    S(lipo)     H(rot)  DE(clash)    DE(int)     intcor
     14.23     -14.67       0.95        0.00      80.18       1.31       0.05       0.39       ----

> <Gold.Chemscore.Fitness>
14.2256

> <Gold.Chemscore.DG>
-14.6707

> <Gold.Chemscore.ZeroCoef>
-5.4800

> <Gold.Chemscore.Hbond>
0.9458

> <Gold.Chemscore.Metal>
0.0000

> <Gold.Chemscore.Lipo>
80.1771

> <Gold.Chemscore.Internal_Hbond>
0.0000

> <Gold.Chemscore.DEClash>
0.0538

> <Gold.Chemscore.DEInternal>
0.3913

> <Gold.Chemscore.Rot>
1.3081

> <Gold.Chemscore.Internal.Correction>
   9.000000E+99

> <Gold.Chemscore.Hbonds>
donor molecule, donor type, donor heavy atom, donor atom, acceptor molecule, acceptor atom, score
      L1  H     3    53       P1  7948  0.89

> <Gold.Chemscore.Hbond.Weighted>
-3.1588

> <Gold.Chemscore.Metal.Weighted>
-0.0000

> <Gold.Chemscore.Lipo.Weighted>
-9.3807

> <Gold.Chemscore.Internal_Hbond.Weighted>
0.0000

> <Gold.Chemscore.DEClash.Weighted>
0.0538

> <Gold.Chemscore.DEInternal.Weighted>
0.3913

> <Gold.Chemscore.Rot.Weighted>
3.3488

> <Gold.Chemscore.Internal.Correction.Weighted>
   9.000000E+99

> <Gold.Protein.RotatedTorsions>
[ 6907 6896 6895 6894 ] final  -90.15 input  -60.11 | X-H torsion
[ 7974 7965 7964 7962 ] final -109.41 input  175.53 | X-H torsion
[ 8008 7997 7996 7995 ] final  -91.63 input   59.86 | X-H torsion
[ 10167 10162 10161 10158 ] final  114.10 input  -65.29 | X-H torsion
[ 10718 10713 10712 10709 ] final  175.21 input   66.30 | X-H torsion
[ 10763 10752 10751 10750 ] final  -44.41 input  -60.55 | X-H torsion
[ 11005 11000 10999 10996 ] final  -78.31 input  -57.11 | X-H torsion

> <Gold.Protein.ActiveResidues>
 VAL166  LYS551  ARG553  GLY616  TRP617  ASP618  TYR619  PRO620  LYS621  CYS622 
 ASP623  PHE694  ASN695  SER759  ASP760  ASP761  ALA762  ILE779  LEU786  VAL792 
 PHE793  MET794  SER795  GLU796  ALA797  LYS798  CYS799  TRP800  GLU811  SER814 

> <Gold.Protein.RotatedAtoms>
  150.6879  134.2476  159.4497 H   0  0  0  0  0  0  0  0  0  0  0  0  # atno 6907 bound_to 6896
  152.0416  134.9705  160.0583 H   0  0  0  0  0  0  0  0  0  0  0  0  # atno 6908 bound_to 6896
  152.1205  133.4316  159.4710 H   0  0  0  0  0  0  0  0  0  0  0  0  # atno 6909 bound_to 6896
  145.1808  140.8970  143.3481 H   0  0  0  0  0  0  0  0  0  0  0  0  # atno 7974 bound_to 7965
  154.7131  140.0517  157.0568 H   0  0  0  0  0  0  0  0  0  0  0  0  # atno 8008 bound_to 7997
  155.0528  140.3181  155.4667 H   0  0  0  0  0  0  0  0  0  0  0  0  # atno 8009 bound_to 7997
  156.2795  140.2112  156.5654 H   0  0  0  0  0  0  0  0  0  0  0  0  # atno 8010 bound_to 7997
  139.6413  144.7124  151.2232 H   0  0  0  0  0  0  0  0  0  0  0  0  # atno 10167 bound_to 10162
  156.9382  130.9993  151.2974 H   0  0  0  0  0  0  0  0  0  0  0  0  # atno 10718 bound_to 10713
  154.0115  135.6681  153.4765 H   0  0  0  0  0  0  0  0  0  0  0  0  # atno 10763 bound_to 10752
  153.0618  135.5023  154.8108 H   0  0  0  0  0  0  0  0  0  0  0  0  # atno 10764 bound_to 10752
  154.6992  135.3075  154.9330 H   0  0  0  0  0  0  0  0  0  0  0  0  # atno 10765 bound_to 10752
  141.1664  133.7058  156.7952 H   0  0  0  0  0  0  0  0  0  0  0  0  # atno 11005 bound_to 11000
  145.0138  139.3486  143.6107 LP  0  0  0  0  0  0  0  0  0  0  0  0  # atno 17320 bound_to 7965
  146.3453  139.9411  142.8741 LP  0  0  0  0  0  0  0  0  0  0  0  0  # atno 17321 bound_to 7965
  140.7492  143.6307  150.8425 LP  0  0  0  0  0  0  0  0  0  0  0  0  # atno 17342 bound_to 10162
  139.9945  143.5811  152.2898 LP  0  0  0  0  0  0  0  0  0  0  0  0  # atno 17343 bound_to 10162
  157.5802  130.8371  149.8512 LP  0  0  0  0  0  0  0  0  0  0  0  0  # atno 17370 bound_to 10713
  156.0416  130.3737  150.1421 LP  0  0  0  0  0  0  0  0  0  0  0  0  # atno 17371 bound_to 10713
  140.2296  134.8696  157.3463 LP  0  0  0  0  0  0  0  0  0  0  0  0  # atno 17394 bound_to 11000
  140.1904  134.4378  155.7719 LP  0  0  0  0  0  0  0  0  0  0  0  0  # atno 17395 bound_to 11000

$$$$
