AV-unprocessed.smi:3170|AV-procd|sdf|12108|dock5
  -GOLD-   2272017543D 1   1.00000     0.00000
 Structure written by MMmdl.
 36 37  0  0  0  0  0  0  0  0  2 V2000
  144.4871  136.7324  152.1134 O   0  0  0  0  0  0  0  0  0  0  0  0
  145.6886  136.5010  151.9762 C   0  0  0  0  0  0  0  0  0  0  0  0
  146.6617  137.2990  152.4370 N   0  0  0  0  0  0  0  0  0  0  0  0
  146.4389  138.5418  153.1661 C   0  0  0  0  0  0  0  0  0  0  0  0
  147.7628  139.1664  153.6371 C   0  0  0  0  0  0  0  0  0  0  0  0
  147.5955  140.5729  154.0044 N   0  0  0  0  0  0  0  0  0  0  0  0
  146.4405  141.3107  153.9706 C   0  0  0  0  0  0  0  0  0  0  0  0
  146.7705  142.5717  154.3967 C   0  0  0  0  0  0  0  0  0  0  0  0
  148.1120  142.5498  154.6711 N   0  3  0  0  0  0  0  0  0  0  0  0
  148.6120  141.3332  154.4310 C   0  0  0  0  0  0  0  0  0  0  0  0
  146.1801  135.4259  151.3452 N   0  0  0  0  0  0  0  0  0  0  0  0
  145.3732  134.3776  150.7299 C   0  0  0  0  0  0  0  0  0  0  0  0
  145.4282  133.0604  151.5271 C   0  0  1  0  0  0  0  0  0  0  0  0
  144.9968  131.8293  150.7546 C   0  0  0  0  0  0  0  0  0  0  0  0
  145.6027  130.7076  151.5924 C   0  0  0  0  0  0  0  0  0  0  0  0
  146.7942  131.2463  152.1585 O   0  0  0  0  0  0  0  0  0  0  0  0
  146.8368  132.6568  151.9613 C   0  0  0  0  0  0  0  0  0  0  0  0
  147.6203  137.0252  152.2778 H   0  0  0  0  0  0  0  0  0  0  0  0
  145.8843  139.2431  152.5402 H   0  0  0  0  0  0  0  0  0  0  0  0
  145.8035  138.3234  154.0247 H   0  0  0  0  0  0  0  0  0  0  0  0
  148.1524  138.6358  154.5068 H   0  0  0  0  0  0  0  0  0  0  0  0
  148.5251  139.1094  152.8584 H   0  0  0  0  0  0  0  0  0  0  0  0
  145.4948  140.8949  153.6538 H   0  0  0  0  0  0  0  0  0  0  0  0
  146.1675  143.4593  154.5213 H   0  0  0  0  0  0  0  0  0  0  0  0
  149.6353  141.0259  154.5559 H   0  0  0  0  0  0  0  0  0  0  0  0
  147.1826  135.3237  151.2838 H   0  0  0  0  0  0  0  0  0  0  0  0
  144.3455  134.7365  150.6672 H   0  0  0  0  0  0  0  0  0  0  0  0
  145.7030  134.2108  149.7030 H   0  0  0  0  0  0  0  0  0  0  0  0
  144.8069  133.1454  152.4203 H   0  0  0  0  0  0  0  0  0  0  0  0
  143.9149  131.7424  150.6511 H   0  0  0  0  0  0  0  0  0  0  0  0
  145.4378  131.8305  149.7566 H   0  0  0  0  0  0  0  0  0  0  0  0
  144.9278  130.4324  152.4037 H   0  0  0  0  0  0  0  0  0  0  0  0
  145.8088  129.8128  151.0047 H   0  0  0  0  0  0  0  0  0  0  0  0
  147.5615  132.8696  151.1741 H   0  0  0  0  0  0  0  0  0  0  0  0
  147.1586  133.1753  152.8645 H   0  0  0  0  0  0  0  0  0  0  0  0
  148.6504  143.3387  155.0064 H   0  0  0  0  0  0  0  0  0  0  0  0
  1  2  2  0  0  0  0
  2  3  1  0  0  0  0
  2 11  1  0  0  0  0
  3  4  1  0  0  0  0
  3 18  1  0  0  0  0
  4  5  1  0  0  0  0
  4 19  1  0  0  0  0
  4 20  1  0  0  0  0
  5  6  1  0  0  0  0
  5 21  1  0  0  0  0
  5 22  1  0  0  0  0
  6 10  1  0  0  0  0
  6  7  1  0  0  0  0
  7  8  2  0  0  0  0
  7 23  1  0  0  0  0
  8  9  1  0  0  0  0
  8 24  1  0  0  0  0
  9 10  2  0  0  0  0
  9 36  1  0  0  0  0
 10 25  1  0  0  0  0
 11 12  1  0  0  0  0
 11 26  1  0  0  0  0
 12 13  1  0  0  0  0
 12 27  1  0  0  0  0
 12 28  1  0  0  0  0
 13 17  1  0  0  0  0
 13 14  1  0  0  0  0
 13 29  1  0  0  0  0
 14 15  1  0  0  0  0
 14 30  1  0  0  0  0
 14 31  1  0  0  0  0
 15 16  1  0  0  0  0
 15 32  1  0  0  0  0
 15 33  1  0  0  0  0
 16 17  1  0  0  0  0
 17 34  1  0  0  0  0
 17 35  1  0  0  0  0
M  CHG  1   9   1
M  END
> <s_m_source_file>
AV-unprocessed.smi

> <i_m_source_file_index>
3170

> <i_lp_mmshare_version>
43012

> <i_f3d_flags>
0

> <s_epik_input>
W0NIMl0xT1tDSDJdW0NIMl1bQ0BIXTFbQ0gyXVtOSF1DKD1PKVtOSF1bQ0gyXVtDSDJdbjJbY0hdW2NIXW5bY0hdMg==

> <s_epik_cmdline>
J2VwaWtfcHl0aG9uJywgJy1waCcsICc3LjAnLCAnLXRuJywgJzgnLCAnLW1hJywgJzIwMCcsICctbWV0YWxfYmluZGluZycsICctaW1hZScsICc8aW5maWxlLm1hZT4nLCAnLW9tYWUnLCAnPG91dGZpbGUubWFlPic=

> <r_lp_tautomer_probability>
1

> <r_epik_Ionization_Penalty>
0.255699

> <r_epik_Ionization_Penalty_Charging>
0

> <r_epik_Ionization_Penalty_Neutral>
0.255699

> <r_epik_State_Penalty>
0.247169

> <r_epik_Charging_Adjusted_Penalty>
0.247169

> <i_epik_Tot_Q>
1

> <i_epik_Tot_abs_Q>
1

> <r_epik_Metal_State_Penalty>
0.536793

> <b_epik_Metal_Only>
0

> <s_lp_Force_Field>
OPLS_2005

> <r_lp_Energy>
18.8209

> <b_lp_Chiralities_Consistent>
1

> <s_lp_Variant>
AV-unprocessed.smi:3170-2

> <Gold.Version>
5.8.1

> <Gold.Id.Protein>
6NUR|6NUR_protein|mol2

> <Gold.PLP.Fitness>
45.1563

> <Gold.PLP.PLP>
-31.1097

> <Gold.PLP.part.hbond>
-2.8492

> <Gold.PLP.part.metal>
0.0000

> <Gold.PLP.part.buried>
-4.4123

> <Gold.PLP.part.nonpolar>
-25.8055

> <Gold.PLP.part.repulsive>
2.1632

> <Gold.PLP.ligand.clash>
0.0000

> <Gold.PLP.ligand.torsion>
0.2695

> <Gold.PLP.Chemscore.Hbond>
3.8564

> <Gold.PLP.Chemscore.CHOScore>
1.0000

> <Gold.PLP.Chemscore.Metal>
0.0000

> <Gold.Chemscore.Hbonds>
donor molecule, donor type, donor heavy atom, donor atom, acceptor molecule, acceptor atom, score
      L1  H     3    18       P1  7948  1.00
      L1  H     9    36       P1  8028  1.98
      L1  H    11    26       P1  7948  0.86
      L1  C     7    23       P1 10175  1.00

> <Gold.PLP.Chemscore.Internal.Correction>
0.0163

> <Gold.Rescore>
     Score         DG    S(hbond)    S(metal)    S(lipo)     H(rot)  DE(clash)    DE(int)     intcor
     14.39     -15.17       2.72        0.00      56.29       2.33       0.52       0.27       ----

> <Gold.Chemscore.Fitness>
14.3887

> <Gold.Chemscore.DG>
-15.1736

> <Gold.Chemscore.ZeroCoef>
-5.4800

> <Gold.Chemscore.Hbond>
2.7155

> <Gold.Chemscore.Metal>
0.0000

> <Gold.Chemscore.Lipo>
56.2872

> <Gold.Chemscore.Internal_Hbond>
0.0000

> <Gold.Chemscore.DEClash>
0.5159

> <Gold.Chemscore.DEInternal>
0.2690

> <Gold.Chemscore.Rot>
2.3288

> <Gold.Chemscore.Internal.Correction>
   9.000000E+99

> <Gold.Chemscore.Hbonds>
donor molecule, donor type, donor heavy atom, donor atom, acceptor molecule, acceptor atom, score
      L1  H     3    18       P1  7948  0.98
      L1  H     9    36       P1  8028  0.91
      L1  H    11    26       P1  7948  0.68

> <Gold.Chemscore.Hbond.Weighted>
-9.0697

> <Gold.Chemscore.Metal.Weighted>
-0.0000

> <Gold.Chemscore.Lipo.Weighted>
-6.5856

> <Gold.Chemscore.Internal_Hbond.Weighted>
0.0000

> <Gold.Chemscore.DEClash.Weighted>
0.5159

> <Gold.Chemscore.DEInternal.Weighted>
0.2690

> <Gold.Chemscore.Rot.Weighted>
5.9617

> <Gold.Chemscore.Internal.Correction.Weighted>
   9.000000E+99

> <Gold.Protein.RotatedTorsions>
[ 6907 6896 6895 6894 ] final  -27.74 input  -60.11 | X-H torsion
[ 7974 7965 7964 7962 ] final  104.94 input  175.53 | X-H torsion
[ 8008 7997 7996 7995 ] final -162.12 input   59.86 | X-H torsion
[ 10167 10162 10161 10158 ] final   12.10 input  -65.29 | X-H torsion
[ 10718 10713 10712 10709 ] final  165.76 input   66.30 | X-H torsion
[ 10763 10752 10751 10750 ] final -163.27 input  -60.55 | X-H torsion
[ 11005 11000 10999 10996 ] final  -11.92 input  -57.11 | X-H torsion

> <Gold.Protein.ActiveResidues>
 VAL166  LYS551  ARG553  GLY616  TRP617  ASP618  TYR619  PRO620  LYS621  CYS622 
 ASP623  PHE694  ASN695  SER759  ASP760  ASP761  ALA762  ILE779  LEU786  VAL792 
 PHE793  MET794  SER795  GLU796  ALA797  LYS798  CYS799  TRP800  GLU811  SER814 

> <Gold.Protein.RotatedAtoms>
  151.1427  135.0188  159.8632 H   0  0  0  0  0  0  0  0  0  0  0  0  # atno 6907 bound_to 6896
  152.5452  134.1480  159.8517 H   0  0  0  0  0  0  0  0  0  0  0  0  # atno 6908 bound_to 6896
  151.1557  133.4832  159.2627 H   0  0  0  0  0  0  0  0  0  0  0  0  # atno 6909 bound_to 6896
  145.3261  139.2499  143.3685 H   0  0  0  0  0  0  0  0  0  0  0  0  # atno 7974 bound_to 7965
  155.8022  140.0893  157.1951 H   0  0  0  0  0  0  0  0  0  0  0  0  # atno 8008 bound_to 7997
  154.3981  140.1470  156.3347 H   0  0  0  0  0  0  0  0  0  0  0  0  # atno 8009 bound_to 7997
  155.8451  140.3437  155.5659 H   0  0  0  0  0  0  0  0  0  0  0  0  # atno 8010 bound_to 7997
  140.6090  143.8448  150.7044 H   0  0  0  0  0  0  0  0  0  0  0  0  # atno 10167 bound_to 10162
  157.0755  131.0378  151.2595 H   0  0  0  0  0  0  0  0  0  0  0  0  # atno 10718 bound_to 10713
  154.7138  135.3011  154.9156 H   0  0  0  0  0  0  0  0  0  0  0  0  # atno 10763 bound_to 10752
  154.0049  135.6702  153.4765 H   0  0  0  0  0  0  0  0  0  0  0  0  # atno 10764 bound_to 10752
  153.0776  135.5026  154.8352 H   0  0  0  0  0  0  0  0  0  0  0  0  # atno 10765 bound_to 10752
  140.7603  133.8520  155.9119 H   0  0  0  0  0  0  0  0  0  0  0  0  # atno 11005 bound_to 11000
  146.3063  140.3829  142.8686 LP  0  0  0  0  0  0  0  0  0  0  0  0  # atno 17320 bound_to 7965
  144.8901  140.7512  143.5932 LP  0  0  0  0  0  0  0  0  0  0  0  0  # atno 17321 bound_to 7965
  140.2012  143.3958  152.1790 LP  0  0  0  0  0  0  0  0  0  0  0  0  # atno 17342 bound_to 10162
  139.5346  144.7196  151.4936 LP  0  0  0  0  0  0  0  0  0  0  0  0  # atno 17343 bound_to 10162
  157.4843  130.7784  149.7445 LP  0  0  0  0  0  0  0  0  0  0  0  0  # atno 17370 bound_to 10713
  155.9938  130.3922  150.2884 LP  0  0  0  0  0  0  0  0  0  0  0  0  # atno 17371 bound_to 10713
  140.9669  134.1582  157.4608 LP  0  0  0  0  0  0  0  0  0  0  0  0  # atno 17394 bound_to 11000
  139.8772  134.9965  156.5797 LP  0  0  0  0  0  0  0  0  0  0  0  0  # atno 17395 bound_to 11000

$$$$
