AV-unprocessed.smi:1605|AV-procd|sdf|6454|dock9
  -GOLD-   22720 7103D 1   1.00000     0.00000
 Structure written by MMmdl.
 51 53  0  0  0  0  0  0  0  0  2 V2000
  146.8966  132.6193  156.2364 C   0  0  0  0  0  0  0  0  0  0  0  0
  148.1693  133.1761  155.9457 O   0  0  0  0  0  0  0  0  0  0  0  0
  148.3424  133.5673  154.5885 C   0  0  2  0  0  0  0  0  0  0  0  0
  149.7597  134.1397  154.4367 C   0  0  0  0  0  0  0  0  0  0  0  0
  149.9202  135.4695  155.1938 C   0  0  0  0  0  0  0  0  0  0  0  0
  148.9052  136.4611  154.7556 N   0  3  2  0  0  0  0  0  0  0  0  0
  149.1367  137.8070  155.3400 C   0  0  0  0  0  0  0  0  0  0  0  0
  149.8154  138.8047  154.3696 C   0  0  1  0  0  0  0  0  0  0  0  0
  148.9517  138.9687  153.2651 O   0  0  0  0  0  0  0  0  0  0  0  0
  150.0858  140.2084  154.9560 C   0  0  0  0  0  0  0  0  0  0  0  0
  151.0960  140.2003  155.9984 N   0  0  0  0  0  0  0  0  0  0  0  0
  152.0758  139.2918  156.1677 C   0  0  0  0  0  0  0  0  0  0  0  0
  152.8796  139.4529  157.2143 N   0  0  0  0  0  0  0  0  0  0  0  0
  152.3732  140.6089  157.7818 C   0  0  0  0  0  0  0  0  0  0  0  0
  152.7722  141.3139  158.9379 C   0  0  0  0  0  0  0  0  0  0  0  0
  152.0884  142.4808  159.3467 C   0  0  0  0  0  0  0  0  0  0  0  0
  152.5469  143.2038  160.6008 C   0  0  0  0  0  0  0  0  0  0  0  0
  150.9893  142.9621  158.5908 C   0  0  0  0  0  0  0  0  0  0  0  0
  150.2362  144.2110  159.0135 C   0  0  0  0  0  0  0  0  0  0  0  0
  150.5797  142.2717  157.4315 C   0  0  0  0  0  0  0  0  0  0  0  0
  151.2635  141.1078  157.0393 C   0  0  0  0  0  0  0  0  0  0  0  0
  147.5225  135.9504  154.9450 C   0  0  0  0  0  0  0  0  0  0  0  0
  147.3130  134.6357  154.1743 C   0  0  0  0  0  0  0  0  0  0  0  0
  146.8607  132.3296  157.2865 H   0  0  0  0  0  0  0  0  0  0  0  0
  146.7112  131.7261  155.6384 H   0  0  0  0  0  0  0  0  0  0  0  0
  146.0899  133.3309  156.0626 H   0  0  0  0  0  0  0  0  0  0  0  0
  148.2540  132.6927  153.9417 H   0  0  0  0  0  0  0  0  0  0  0  0
  150.4958  133.4165  154.7888 H   0  0  0  0  0  0  0  0  0  0  0  0
  149.9713  134.3001  153.3793 H   0  0  0  0  0  0  0  0  0  0  0  0
  149.8353  135.3092  156.2697 H   0  0  0  0  0  0  0  0  0  0  0  0
  150.9215  135.8607  155.0102 H   0  0  0  0  0  0  0  0  0  0  0  0
  148.1802  138.2022  155.6868 H   0  0  0  0  0  0  0  0  0  0  0  0
  149.7658  137.7150  156.2268 H   0  0  0  0  0  0  0  0  0  0  0  0
  150.7414  138.3900  153.9734 H   0  0  0  0  0  0  0  0  0  0  0  0
  149.4552  139.2847  152.5300 H   0  0  0  0  0  0  0  0  0  0  0  0
  150.4276  140.8835  154.1700 H   0  0  0  0  0  0  0  0  0  0  0  0
  149.1677  140.6410  155.3561 H   0  0  0  0  0  0  0  0  0  0  0  0
  152.1948  138.4557  155.4939 H   0  0  0  0  0  0  0  0  0  0  0  0
  153.6098  140.9477  159.5134 H   0  0  0  0  0  0  0  0  0  0  0  0
  152.9095  144.2017  160.3534 H   0  0  0  0  0  0  0  0  0  0  0  0
  153.3554  142.6669  161.0973 H   0  0  0  0  0  0  0  0  0  0  0  0
  151.7254  143.2992  161.3110 H   0  0  0  0  0  0  0  0  0  0  0  0
  149.4576  144.4685  158.2949 H   0  0  0  0  0  0  0  0  0  0  0  0
  150.9146  145.0610  159.0893 H   0  0  0  0  0  0  0  0  0  0  0  0
  149.7609  144.0588  159.9827 H   0  0  0  0  0  0  0  0  0  0  0  0
  149.7397  142.6251  156.8519 H   0  0  0  0  0  0  0  0  0  0  0  0
  147.3277  135.8019  156.0080 H   0  0  0  0  0  0  0  0  0  0  0  0
  146.7946  136.6785  154.5905 H   0  0  0  0  0  0  0  0  0  0  0  0
  147.4106  134.8299  153.1055 H   0  0  0  0  0  0  0  0  0  0  0  0
  146.2948  134.2760  154.3182 H   0  0  0  0  0  0  0  0  0  0  0  0
  149.0395  136.5674  153.7599 H   0  0  0  0  0  0  0  0  0  0  0  0
  1  2  1  0  0  0  0
  1 24  1  0  0  0  0
  1 25  1  0  0  0  0
  1 26  1  0  0  0  0
  2  3  1  0  0  0  0
  3 23  1  0  0  0  0
  3  4  1  0  0  0  0
  3 27  1  0  0  0  0
  4  5  1  0  0  0  0
  4 28  1  0  0  0  0
  4 29  1  0  0  0  0
  5  6  1  0  0  0  0
  5 30  1  0  0  0  0
  5 31  1  0  0  0  0
  6  7  1  0  0  0  0
  6 22  1  0  0  0  0
  6 51  1  0  0  0  0
  7  8  1  0  0  0  0
  7 32  1  0  0  0  0
  7 33  1  0  0  0  0
  8  9  1  0  0  0  0
  8 10  1  0  0  0  0
  8 34  1  0  0  0  0
  9 35  1  0  0  0  0
 10 11  1  0  0  0  0
 10 36  1  0  0  0  0
 10 37  1  0  0  0  0
 11 21  1  0  0  0  0
 11 12  1  0  0  0  0
 12 13  2  0  0  0  0
 12 38  1  0  0  0  0
 13 14  1  0  0  0  0
 14 21  2  0  0  0  0
 14 15  1  0  0  0  0
 15 16  2  0  0  0  0
 15 39  1  0  0  0  0
 16 17  1  0  0  0  0
 16 18  1  0  0  0  0
 17 40  1  0  0  0  0
 17 41  1  0  0  0  0
 17 42  1  0  0  0  0
 18 19  1  0  0  0  0
 18 20  2  0  0  0  0
 19 43  1  0  0  0  0
 19 44  1  0  0  0  0
 19 45  1  0  0  0  0
 20 21  1  0  0  0  0
 20 46  1  0  0  0  0
 22 23  1  0  0  0  0
 22 47  1  0  0  0  0
 22 48  1  0  0  0  0
 23 49  1  0  0  0  0
 23 50  1  0  0  0  0
M  CHG  1   6   1
M  END
> <s_m_source_file>
AV-unprocessed.smi

> <i_m_source_file_index>
1605

> <i_lp_mmshare_version>
43012

> <i_f3d_flags>
0

> <s_epik_input>
W0NIM11PW0NIXTFbQ0gyXVtDSDJdTihbQ0gyXVtDSDJdMSlbQ0gyXVtDQEhdKFtPSF0pW0NIMl1uKFtjSF1uMiljKGMyMylbY0hdYyhbQ0gzXSljKFtjSF0zKVtDSDNd

> <s_epik_cmdline>
J2VwaWtfcHl0aG9uJywgJy1waCcsICc3LjAnLCAnLXRuJywgJzgnLCAnLW1hJywgJzIwMCcsICctbWV0YWxfYmluZGluZycsICctaW1hZScsICc8aW5maWxlLm1hZT4nLCAnLW9tYWUnLCAnPG91dGZpbGUubWFlPic=

> <r_epik_Ionization_Penalty>
0.110943

> <r_epik_Ionization_Penalty_Charging>
0.0229283

> <r_epik_Ionization_Penalty_Neutral>
0.0880146

> <r_epik_State_Penalty>
0.0947554

> <r_epik_Charging_Adjusted_Penalty>
0.117684

> <i_epik_Tot_Q>
1

> <i_epik_Tot_abs_Q>
1

> <r_epik_Metal_State_Penalty>
0.0192456

> <b_epik_Metal_Only>
0

> <s_lp_Force_Field>
OPLS_2005

> <r_lp_Energy>
21.431

> <b_lp_Chiralities_Consistent>
1

> <s_lp_Variant>
AV-unprocessed.smi:1605-4

> <Gold.Version>
5.8.1

> <Gold.Id.Protein>
6NUR|6NUR_protein|mol2

> <Gold.PLP.Fitness>
49.8050

> <Gold.PLP.PLP>
-39.7225

> <Gold.PLP.part.hbond>
-3.6413

> <Gold.PLP.part.metal>
0.0000

> <Gold.PLP.part.buried>
-3.6367

> <Gold.PLP.part.nonpolar>
-32.0587

> <Gold.PLP.part.repulsive>
0.0000

> <Gold.PLP.ligand.clash>
0.0000

> <Gold.PLP.ligand.torsion>
1.0111

> <Gold.PLP.Chemscore.Hbond>
4.0000

> <Gold.PLP.Chemscore.CHOScore>
0.0000

> <Gold.PLP.Chemscore.Metal>
0.0000

> <Gold.Chemscore.Hbonds>
donor molecule, donor type, donor heavy atom, donor atom, acceptor molecule, acceptor atom, score
      L1  H     6    51       P1  7948  2.00
      L1  H     9    35       P1  7957  1.00
      P1  H  7997  8008       L1    13  1.00

> <Gold.PLP.Chemscore.Internal.Correction>
0.1048

> <Gold.Rescore>
     Score         DG    S(hbond)    S(metal)    S(lipo)     H(rot)  DE(clash)    DE(int)     intcor
     19.87     -20.95       2.67        0.00     104.40       2.22       0.11       0.97       ----

> <Gold.Chemscore.Fitness>
19.8656

> <Gold.Chemscore.DG>
-20.9505

> <Gold.Chemscore.ZeroCoef>
-5.4800

> <Gold.Chemscore.Hbond>
2.6739

> <Gold.Chemscore.Metal>
0.0000

> <Gold.Chemscore.Lipo>
104.4024

> <Gold.Chemscore.Internal_Hbond>
0.0000

> <Gold.Chemscore.DEClash>
0.1139

> <Gold.Chemscore.DEInternal>
0.9710

> <Gold.Chemscore.Rot>
2.2169

> <Gold.Chemscore.Internal.Correction>
   9.000000E+99

> <Gold.Chemscore.Hbonds>
donor molecule, donor type, donor heavy atom, donor atom, acceptor molecule, acceptor atom, score
      L1  H     6    51       P1  7948  0.99
      L1  H     9    35       P1  7957  0.93
      P1  H  7997  8008       L1    13  0.09

> <Gold.Chemscore.Hbond.Weighted>
-8.9307

> <Gold.Chemscore.Metal.Weighted>
-0.0000

> <Gold.Chemscore.Lipo.Weighted>
-12.2151

> <Gold.Chemscore.Internal_Hbond.Weighted>
0.0000

> <Gold.Chemscore.DEClash.Weighted>
0.1139

> <Gold.Chemscore.DEInternal.Weighted>
0.9710

> <Gold.Chemscore.Rot.Weighted>
5.6753

> <Gold.Chemscore.Internal.Correction.Weighted>
   9.000000E+99

> <Gold.Protein.RotatedTorsions>
[ 6907 6896 6895 6894 ] final  112.58 input  -60.11 | X-H torsion
[ 7974 7965 7964 7962 ] final   50.18 input  175.53 | X-H torsion
[ 8008 7997 7996 7995 ] final  -47.44 input   59.86 | X-H torsion
[ 10167 10162 10161 10158 ] final  -56.47 input  -65.29 | X-H torsion
[ 10718 10713 10712 10709 ] final -165.56 input   66.30 | X-H torsion
[ 10763 10752 10751 10750 ] final  -51.16 input  -60.55 | X-H torsion
[ 11005 11000 10999 10996 ] final  -27.02 input  -57.11 | X-H torsion

> <Gold.Protein.ActiveResidues>
 VAL166  LYS551  ARG553  GLY616  TRP617  ASP618  TYR619  PRO620  LYS621  CYS622 
 ASP623  PHE694  ASN695  SER759  ASP760  ASP761  ALA762  ILE779  LEU786  VAL792 
 PHE793  MET794  SER795  GLU796  ALA797  LYS798  CYS799  TRP800  GLU811  SER814 

> <Gold.Protein.RotatedAtoms>
  152.4908  133.8495  159.7194 H   0  0  0  0  0  0  0  0  0  0  0  0  # atno 6907 bound_to 6896
  150.9036  133.7077  159.2879 H   0  0  0  0  0  0  0  0  0  0  0  0  # atno 6908 bound_to 6896
  151.4510  135.1034  159.9750 H   0  0  0  0  0  0  0  0  0  0  0  0  # atno 6909 bound_to 6896
  146.0037  139.4467  142.9999 H   0  0  0  0  0  0  0  0  0  0  0  0  # atno 7974 bound_to 7965
  154.4017  140.1346  156.4175 H   0  0  0  0  0  0  0  0  0  0  0  0  # atno 8008 bound_to 7997
  155.7675  140.3484  155.5209 H   0  0  0  0  0  0  0  0  0  0  0  0  # atno 8009 bound_to 7997
  155.8799  140.0985  157.1482 H   0  0  0  0  0  0  0  0  0  0  0  0  # atno 8010 bound_to 7997
  140.6315  143.2461  151.5229 H   0  0  0  0  0  0  0  0  0  0  0  0  # atno 10167 bound_to 10162
  156.6552  130.9023  151.3020 H   0  0  0  0  0  0  0  0  0  0  0  0  # atno 10718 bound_to 10713
  154.1221  135.6533  153.4905 H   0  0  0  0  0  0  0  0  0  0  0  0  # atno 10763 bound_to 10752
  153.0222  135.5272  154.7087 H   0  0  0  0  0  0  0  0  0  0  0  0  # atno 10764 bound_to 10752
  154.6297  135.2974  155.0201 H   0  0  0  0  0  0  0  0  0  0  0  0  # atno 10765 bound_to 10752
  140.9082  133.7478  156.0634 H   0  0  0  0  0  0  0  0  0  0  0  0  # atno 11005 bound_to 11000
  145.7448  140.9994  143.1281 LP  0  0  0  0  0  0  0  0  0  0  0  0  # atno 17320 bound_to 7965
  144.6928  139.9143  143.7465 LP  0  0  0  0  0  0  0  0  0  0  0  0  # atno 17321 bound_to 7965
  139.5529  144.2350  152.1561 LP  0  0  0  0  0  0  0  0  0  0  0  0  # atno 17342 bound_to 10162
  140.1595  144.5039  150.6640 LP  0  0  0  0  0  0  0  0  0  0  0  0  # atno 17343 bound_to 10162
  157.7128  130.9460  150.1148 LP  0  0  0  0  0  0  0  0  0  0  0  0  # atno 17370 bound_to 10713
  156.2053  130.3663  149.8737 LP  0  0  0  0  0  0  0  0  0  0  0  0  # atno 17371 bound_to 10713
  140.8144  134.3362  157.5402 LP  0  0  0  0  0  0  0  0  0  0  0  0  # atno 17394 bound_to 11000
  139.8753  134.9273  156.3421 LP  0  0  0  0  0  0  0  0  0  0  0  0  # atno 17395 bound_to 11000

$$$$
