AV-unprocessed.smi:1487|AV-procd|sdf|6015|dock1
  -GOLD-   22720 6113D 1   1.00000     0.00000
 Structure written by MMmdl.
 49 51  0  0  0  0  0  0  0  0  3 V2000
  151.3088  145.5778  159.9849 C   0  0  0  0  0  0  0  0  0  0  0  0
  151.9172  144.1896  160.0910 C   0  0  0  0  0  0  0  0  0  0  0  0
  152.4672  143.7868  161.3288 C   0  0  0  0  0  0  0  0  0  0  0  0
  153.0141  142.5108  161.3948 C   0  0  0  0  0  0  0  0  0  0  0  0
  153.6203  141.8313  162.4532 N   0  3  0  0  0  0  0  0  0  0  0  0
  154.0049  140.5930  162.0379 C   0  0  0  0  0  0  0  0  0  0  0  0
  153.6493  140.4688  160.7300 N   0  0  0  0  0  0  0  0  0  0  0  0
  153.8485  139.3383  159.8117 C   0  0  0  0  0  0  0  0  0  0  0  0
  152.7109  138.2988  159.8712 C   0  0  2  0  0  0  0  0  0  0  0  0
  152.9094  137.5337  161.0429 O   0  0  0  0  0  0  0  0  0  0  0  0
  152.6709  137.3560  158.6467 C   0  0  0  0  0  0  0  0  0  0  0  0
  151.8075  137.8552  157.5448 N   0  3  1  0  0  0  0  0  0  0  0  0
  152.1425  139.2376  157.1061 C   0  0  0  0  0  0  0  0  0  0  0  0
  151.1415  139.7448  156.0539 C   0  0  0  0  0  0  0  0  0  0  0  0
  151.0793  138.7958  154.8507 C   0  0  0  0  0  0  0  0  0  0  0  0
  150.7618  137.3719  155.3291 C   0  0  1  0  0  0  0  0  0  0  0  0
  150.8060  136.4854  154.2320 O   0  0  0  0  0  0  0  0  0  0  0  0
  151.7727  136.9130  156.3956 C   0  0  0  0  0  0  0  0  0  0  0  0
  153.0312  141.6444  160.2839 C   0  0  0  0  0  0  0  0  0  0  0  0
  152.4950  142.0280  159.0561 C   0  0  0  0  0  0  0  0  0  0  0  0
  151.9309  143.3208  158.9695 C   0  0  0  0  0  0  0  0  0  0  0  0
  151.3349  143.7637  157.6439 C   0  0  0  0  0  0  0  0  0  0  0  0
  151.3610  146.1107  160.9348 H   0  0  0  0  0  0  0  0  0  0  0  0
  150.2593  145.5157  159.6960 H   0  0  0  0  0  0  0  0  0  0  0  0
  151.8389  146.1720  159.2401 H   0  0  0  0  0  0  0  0  0  0  0  0
  152.4620  144.4437  162.1865 H   0  0  0  0  0  0  0  0  0  0  0  0
  154.5061  139.8464  162.6374 H   0  0  0  0  0  0  0  0  0  0  0  0
  153.9884  139.7146  158.7983 H   0  0  0  0  0  0  0  0  0  0  0  0
  154.7927  138.8683  160.0908 H   0  0  0  0  0  0  0  0  0  0  0  0
  151.7687  138.8360  159.9741 H   0  0  0  0  0  0  0  0  0  0  0  0
  153.4769  138.0092  161.6303 H   0  0  0  0  0  0  0  0  0  0  0  0
  153.6735  137.1877  158.2523 H   0  0  0  0  0  0  0  0  0  0  0  0
  152.3067  136.3827  158.9799 H   0  0  0  0  0  0  0  0  0  0  0  0
  152.1314  139.9213  157.9535 H   0  0  0  0  0  0  0  0  0  0  0  0
  153.1547  139.2565  156.6991 H   0  0  0  0  0  0  0  0  0  0  0  0
  150.1511  139.8342  156.5024 H   0  0  0  0  0  0  0  0  0  0  0  0
  151.4226  140.7451  155.7234 H   0  0  0  0  0  0  0  0  0  0  0  0
  150.3246  139.1378  154.1412 H   0  0  0  0  0  0  0  0  0  0  0  0
  152.0351  138.8111  154.3242 H   0  0  0  0  0  0  0  0  0  0  0  0
  149.7543  137.3429  155.7468 H   0  0  0  0  0  0  0  0  0  0  0  0
  150.2057  136.7928  153.5696 H   0  0  0  0  0  0  0  0  0  0  0  0
  152.7724  136.8328  155.9642 H   0  0  0  0  0  0  0  0  0  0  0  0
  151.4972  135.9169  156.7455 H   0  0  0  0  0  0  0  0  0  0  0  0
  152.5037  141.3718  158.1987 H   0  0  0  0  0  0  0  0  0  0  0  0
  151.4328  142.9888  156.8828 H   0  0  0  0  0  0  0  0  0  0  0  0
  151.8396  144.6571  157.2756 H   0  0  0  0  0  0  0  0  0  0  0  0
  150.2737  143.9866  157.7571 H   0  0  0  0  0  0  0  0  0  0  0  0
  150.8667  137.8804  157.9106 H   0  0  0  0  0  0  0  0  0  0  0  0
  153.7676  142.1868  163.3895 H   0  0  0  0  0  0  0  0  0  0  0  0
  1  2  1  0  0  0  0
  1 23  1  0  0  0  0
  1 24  1  0  0  0  0
  1 25  1  0  0  0  0
  2 21  1  0  0  0  0
  2  3  2  0  0  0  0
  3  4  1  0  0  0  0
  3 26  1  0  0  0  0
  4 19  2  0  0  0  0
  4  5  1  0  0  0  0
  5  6  2  0  0  0  0
  5 49  1  0  0  0  0
  6  7  1  0  0  0  0
  6 27  1  0  0  0  0
  7  8  1  0  0  0  0
  7 19  1  0  0  0  0
  8  9  1  0  0  0  0
  8 28  1  0  0  0  0
  8 29  1  0  0  0  0
  9 10  1  0  0  0  0
  9 11  1  0  0  0  0
  9 30  1  0  0  0  0
 10 31  1  0  0  0  0
 11 12  1  0  0  0  0
 11 32  1  0  0  0  0
 11 33  1  0  0  0  0
 12 18  1  0  0  0  0
 12 13  1  0  0  0  0
 12 48  1  0  0  0  0
 13 14  1  0  0  0  0
 13 34  1  0  0  0  0
 13 35  1  0  0  0  0
 14 15  1  0  0  0  0
 14 36  1  0  0  0  0
 14 37  1  0  0  0  0
 15 16  1  0  0  0  0
 15 38  1  0  0  0  0
 15 39  1  0  0  0  0
 16 17  1  0  0  0  0
 16 18  1  0  0  0  0
 16 40  1  0  0  0  0
 17 41  1  0  0  0  0
 18 42  1  0  0  0  0
 18 43  1  0  0  0  0
 19 20  1  0  0  0  0
 20 21  2  0  0  0  0
 20 44  1  0  0  0  0
 21 22  1  0  0  0  0
 22 45  1  0  0  0  0
 22 46  1  0  0  0  0
 22 47  1  0  0  0  0
M  CHG  1   5   1
M  CHG  1  12   1
M  END
> <s_m_source_file>
AV-unprocessed.smi

> <i_m_source_file_index>
1487

> <i_lp_mmshare_version>
43012

> <i_f3d_flags>
0

> <s_epik_input>
W0NIM11jKFtjSF0xKWMoW0NIM10pW2NIXWMoYzEyKW4oW2NIXW4yKVtDSDJdW0NASF0oW09IXSlbQ0gyXU4zW0NIMl1bQ0gyXVtDSDJdW0NAQEhdKFtPSF0pW0NIMl0z

> <s_epik_cmdline>
J2VwaWtfcHl0aG9uJywgJy1waCcsICc3LjAnLCAnLXRuJywgJzgnLCAnLW1hJywgJzIwMCcsICctbWV0YWxfYmluZGluZycsICctaW1hZScsICc8aW5maWxlLm1hZT4nLCAnLW9tYWUnLCAnPG91dGZpbGUubWFlPic=

> <r_epik_Ionization_Penalty>
1.1857

> <r_epik_Ionization_Penalty_Charging>
1.1857

> <r_epik_Ionization_Penalty_Neutral>
1.75578e-06

> <r_epik_State_Penalty>
1.26953

> <r_epik_Charging_Adjusted_Penalty>
2.45524

> <i_epik_Tot_Q>
2

> <i_epik_Tot_abs_Q>
2

> <r_epik_Metal_State_Penalty>
5.28243

> <b_epik_Metal_Only>
0

> <s_lp_Force_Field>
OPLS_2005

> <r_lp_Energy>
33.096

> <b_lp_Chiralities_Consistent>
1

> <s_lp_Variant>
AV-unprocessed.smi:1487-9

> <Gold.Version>
5.8.1

> <Gold.Id.Protein>
6NUR|6NUR_protein|mol2

> <Gold.PLP.Fitness>
50.5308

> <Gold.PLP.PLP>
-49.0276

> <Gold.PLP.part.hbond>
-3.2713

> <Gold.PLP.part.metal>
0.0000

> <Gold.PLP.part.buried>
-4.0539

> <Gold.PLP.part.nonpolar>
-41.4527

> <Gold.PLP.part.repulsive>
0.1163

> <Gold.PLP.ligand.clash>
0.0000

> <Gold.PLP.ligand.torsion>
0.9063

> <Gold.PLP.Chemscore.Hbond>
1.0627

> <Gold.PLP.Chemscore.CHOScore>
0.0000

> <Gold.PLP.Chemscore.Metal>
0.0000

> <Gold.Chemscore.Hbonds>
donor molecule, donor type, donor heavy atom, donor atom, acceptor molecule, acceptor atom, score
      L1  H    17    41       P1  7948  0.48
      P1  H 10752 10764       L1    17  0.32

> <Gold.PLP.Chemscore.Internal.Correction>
0.1277

> <Gold.Rescore>
     Score         DG    S(hbond)    S(metal)    S(lipo)     H(rot)  DE(clash)    DE(int)     intcor
     17.56     -18.66       1.11        0.00     140.98       2.74       0.05       1.05       ----

> <Gold.Chemscore.Fitness>
17.5570

> <Gold.Chemscore.DG>
-18.6559

> <Gold.Chemscore.ZeroCoef>
-5.4800

> <Gold.Chemscore.Hbond>
1.1053

> <Gold.Chemscore.Metal>
0.0000

> <Gold.Chemscore.Lipo>
140.9799

> <Gold.Chemscore.Internal_Hbond>
0.0000

> <Gold.Chemscore.DEClash>
0.0488

> <Gold.Chemscore.DEInternal>
1.0501

> <Gold.Chemscore.Rot>
2.7384

> <Gold.Chemscore.Internal.Correction>
   9.000000E+99

> <Gold.Chemscore.Hbonds>
donor molecule, donor type, donor heavy atom, donor atom, acceptor molecule, acceptor atom, score
      L1  H    17    41       P1  7948  0.06
      P1  H 10752 10764       L1    17  0.18

> <Gold.Chemscore.Hbond.Weighted>
-3.6916

> <Gold.Chemscore.Metal.Weighted>
-0.0000

> <Gold.Chemscore.Lipo.Weighted>
-16.4946

> <Gold.Chemscore.Internal_Hbond.Weighted>
0.0000

> <Gold.Chemscore.DEClash.Weighted>
0.0488

> <Gold.Chemscore.DEInternal.Weighted>
1.0501

> <Gold.Chemscore.Rot.Weighted>
7.0103

> <Gold.Chemscore.Internal.Correction.Weighted>
   9.000000E+99

> <Gold.Protein.RotatedTorsions>
[ 6907 6896 6895 6894 ] final  135.66 input  -60.11 | X-H torsion
[ 7974 7965 7964 7962 ] final -146.02 input  175.53 | X-H torsion
[ 8008 7997 7996 7995 ] final  -59.45 input   59.86 | X-H torsion
[ 10167 10162 10161 10158 ] final   40.92 input  -65.29 | X-H torsion
[ 10718 10713 10712 10709 ] final  -42.15 input   66.30 | X-H torsion
[ 10763 10752 10751 10750 ] final  -85.26 input  -60.55 | X-H torsion
[ 11005 11000 10999 10996 ] final  -25.44 input  -57.11 | X-H torsion

> <Gold.Protein.ActiveResidues>
 VAL166  LYS551  ARG553  GLY616  TRP617  ASP618  TYR619  PRO620  LYS621  CYS622 
 ASP623  PHE694  ASN695  SER759  ASP760  ASP761  ALA762  ILE779  LEU786  VAL792 
 PHE793  MET794  SER795  GLU796  ALA797  LYS798  CYS799  TRP800  GLU811  SER814 

> <Gold.Protein.RotatedAtoms>
  152.2979  133.5626  159.5599 H   0  0  0  0  0  0  0  0  0  0  0  0  # atno 6907 bound_to 6896
  150.7264  134.0334  159.3750 H   0  0  0  0  0  0  0  0  0  0  0  0  # atno 6908 bound_to 6896
  151.8235  135.0644  160.0479 H   0  0  0  0  0  0  0  0  0  0  0  0  # atno 6909 bound_to 6896
  144.8188  140.5509  143.5593 H   0  0  0  0  0  0  0  0  0  0  0  0  # atno 7974 bound_to 7965
  154.4353  140.1061  156.6117 H   0  0  0  0  0  0  0  0  0  0  0  0  # atno 8008 bound_to 7997
  155.5802  140.3490  155.4519 H   0  0  0  0  0  0  0  0  0  0  0  0  # atno 8009 bound_to 7997
  156.0324  140.1263  157.0233 H   0  0  0  0  0  0  0  0  0  0  0  0  # atno 8010 bound_to 7997
  140.3695  144.2124  150.6134 H   0  0  0  0  0  0  0  0  0  0  0  0  # atno 10167 bound_to 10162
  156.2627  130.4198  149.8524 H   0  0  0  0  0  0  0  0  0  0  0  0  # atno 10718 bound_to 10713
  154.6091  135.5491  153.7454 H   0  0  0  0  0  0  0  0  0  0  0  0  # atno 10763 bound_to 10752
  153.0187  135.6385  154.1604 H   0  0  0  0  0  0  0  0  0  0  0  0  # atno 10764 bound_to 10752
  154.1543  135.2901  155.3107 H   0  0  0  0  0  0  0  0  0  0  0  0  # atno 10765 bound_to 10752
  140.8938  133.7570  156.0455 H   0  0  0  0  0  0  0  0  0  0  0  0  # atno 11005 bound_to 11000
  145.5153  139.1478  143.3582 LP  0  0  0  0  0  0  0  0  0  0  0  0  # atno 17320 bound_to 7965
  146.2492  140.5294  142.8900 LP  0  0  0  0  0  0  0  0  0  0  0  0  # atno 17321 bound_to 7965
  140.5048  143.2307  151.8625 LP  0  0  0  0  0  0  0  0  0  0  0  0  # atno 17342 bound_to 10162
  139.4805  144.5018  151.9050 LP  0  0  0  0  0  0  0  0  0  0  0  0  # atno 17343 bound_to 10162
  156.6033  130.8556  151.3437 LP  0  0  0  0  0  0  0  0  0  0  0  0  # atno 17370 bound_to 10713
  157.7256  130.9618  150.1623 LP  0  0  0  0  0  0  0  0  0  0  0  0  # atno 17371 bound_to 10713
  140.8314  134.3173  157.5347 LP  0  0  0  0  0  0  0  0  0  0  0  0  # atno 17394 bound_to 11000
  139.8733  134.9365  156.3663 LP  0  0  0  0  0  0  0  0  0  0  0  0  # atno 17395 bound_to 11000

$$$$
