AV-unprocessed.smi:65|AV-procd|sdf|616|dock7
  -GOLD-   2262016513D 1   1.00000     0.00000
 Structure written by MMmdl.
 26 27  0  0  0  0  0  0  0  0  2 V2000
  142.2906  134.6726  155.0283 N   0  0  0  0  0  0  0  0  0  0  0  0
  142.8968  135.0232  153.8467 C   0  0  0  0  0  0  0  0  0  0  0  0
  143.0077  136.3213  153.5503 N   0  0  0  0  0  0  0  0  0  0  0  0
  143.6028  136.6724  152.3944 C   0  0  0  0  0  0  0  0  0  0  0  0
  144.1018  135.7090  151.5021 C   0  0  0  0  0  0  0  0  0  0  0  0
  143.9520  134.3518  151.8663 C   0  0  0  0  0  0  0  0  0  0  0  0
  144.4168  133.2967  151.0587 N   0  0  0  0  0  0  0  0  0  0  0  0
  144.3810  131.9154  151.5219 C   0  0  0  0  0  0  0  0  0  0  0  0
  145.5339  131.2072  150.7992 C   0  0  0  0  0  0  0  0  0  0  0  0
  145.7909  132.0891  149.5761 C   0  0  2  0  0  0  0  0  0  0  0  0
  147.1107  131.9728  149.0897 O   0  0  0  0  0  0  0  0  0  0  0  0
  145.4932  133.4929  150.1004 C   0  0  0  0  0  0  0  0  0  0  0  0
  143.3490  134.0472  153.0471 N   0  3  0  0  0  0  0  0  0  0  0  0
  142.1913  133.7001  155.2823 H   0  0  0  0  0  0  0  0  0  0  0  0
  141.9481  135.3800  155.6624 H   0  0  0  0  0  0  0  0  0  0  0  0
  143.6827  137.7282  152.1817 H   0  0  0  0  0  0  0  0  0  0  0  0
  144.5830  136.0124  150.5840 H   0  0  0  0  0  0  0  0  0  0  0  0
  144.4945  131.8369  152.6037 H   0  0  0  0  0  0  0  0  0  0  0  0
  143.4224  131.4762  151.2446 H   0  0  0  0  0  0  0  0  0  0  0  0
  146.4126  131.2012  151.4464 H   0  0  0  0  0  0  0  0  0  0  0  0
  145.3022  130.1735  150.5401 H   0  0  0  0  0  0  0  0  0  0  0  0
  145.0857  131.8337  148.7839 H   0  0  0  0  0  0  0  0  0  0  0  0
  147.6310  131.5141  149.7321 H   0  0  0  0  0  0  0  0  0  0  0  0
  145.2053  134.1721  149.2971 H   0  0  0  0  0  0  0  0  0  0  0  0
  146.3602  133.9107  150.6146 H   0  0  0  0  0  0  0  0  0  0  0  0
  143.2418  133.0696  153.3168 H   0  0  0  0  0  0  0  0  0  0  0  0
  1  2  1  0  0  0  0
  1 14  1  0  0  0  0
  1 15  1  0  0  0  0
  2 13  1  0  0  0  0
  2  3  2  0  0  0  0
  3  4  1  0  0  0  0
  4  5  2  0  0  0  0
  4 16  1  0  0  0  0
  5  6  1  0  0  0  0
  5 17  1  0  0  0  0
  6  7  1  0  0  0  0
  6 13  2  0  0  0  0
  7 12  1  0  0  0  0
  7  8  1  0  0  0  0
  8  9  1  0  0  0  0
  8 18  1  0  0  0  0
  8 19  1  0  0  0  0
  9 10  1  0  0  0  0
  9 20  1  0  0  0  0
  9 21  1  0  0  0  0
 10 11  1  0  0  0  0
 10 12  1  0  0  0  0
 10 22  1  0  0  0  0
 11 23  1  0  0  0  0
 12 24  1  0  0  0  0
 12 25  1  0  0  0  0
 13 26  1  0  0  0  0
M  CHG  1  13   1
M  END
> <s_m_source_file>
AV-unprocessed.smi

> <i_m_source_file_index>
65

> <i_lp_mmshare_version>
43012

> <i_f3d_flags>
0

> <s_epik_input>
W05IMl1jMW5bY0hdW2NIXWMobjEpTjJbQ0gyXVtDSDJdW0NAQEhdKFtPSF0pW0NIMl0y

> <s_epik_cmdline>
J2VwaWtfcHl0aG9uJywgJy1waCcsICc3LjAnLCAnLXRuJywgJzgnLCAnLW1hJywgJzIwMCcsICctbWV0YWxfYmluZGluZycsICctaW1hZScsICc8aW5maWxlLm1hZT4nLCAnLW9tYWUnLCAnPG91dGZpbGUubWFlPic=

> <r_lp_tautomer_probability>
0.424989

> <r_epik_Ionization_Penalty>
0.57487

> <r_epik_Ionization_Penalty_Charging>
0.574865

> <r_epik_Ionization_Penalty_Neutral>
4.40886e-06

> <r_epik_State_Penalty>
0.845539

> <r_epik_Charging_Adjusted_Penalty>
1.4204

> <i_epik_Tot_Q>
1

> <i_epik_Tot_abs_Q>
1

> <r_epik_Metal_State_Penalty>
1.14248

> <b_epik_Metal_Only>
0

> <s_lp_Force_Field>
OPLS_2005

> <r_lp_Energy>
20.8145

> <b_lp_Chiralities_Consistent>
1

> <s_lp_Variant>
AV-unprocessed.smi:65-6

> <Gold.Version>
5.8.1

> <Gold.Id.Protein>
6NUR|6NUR_protein|mol2

> <Gold.PLP.Fitness>
42.2843

> <Gold.PLP.PLP>
-23.9506

> <Gold.PLP.part.hbond>
-4.7941

> <Gold.PLP.part.metal>
0.0000

> <Gold.PLP.part.buried>
-0.1166

> <Gold.PLP.part.nonpolar>
-18.3089

> <Gold.PLP.part.repulsive>
0.1290

> <Gold.PLP.ligand.clash>
0.0000

> <Gold.PLP.ligand.torsion>
0.1369

> <Gold.PLP.Chemscore.Hbond>
4.7595

> <Gold.PLP.Chemscore.CHOScore>
1.3727

> <Gold.PLP.Chemscore.Metal>
0.0000

> <Gold.Chemscore.Hbonds>
donor molecule, donor type, donor heavy atom, donor atom, acceptor molecule, acceptor atom, score
      L1  H     1    14       P1 10957  1.84
      L1  H    11    23       P1 10747  1.00
      L1  H    13    26       P1 10957  1.84
      L1  C     4    16       P1 10171  0.84
      L1  C     4    16       P1 10175  0.54

> <Gold.PLP.Chemscore.Internal.Correction>
0.2110

> <Gold.Rescore>
     Score         DG    S(hbond)    S(metal)    S(lipo)     H(rot)  DE(clash)    DE(int)     intcor
     16.31     -16.57       2.55        0.00      43.80       1.00       0.13       0.12       ----

> <Gold.Chemscore.Fitness>
16.3127

> <Gold.Chemscore.DG>
-16.5662

> <Gold.Chemscore.ZeroCoef>
-5.4800

> <Gold.Chemscore.Hbond>
2.5515

> <Gold.Chemscore.Metal>
0.0000

> <Gold.Chemscore.Lipo>
43.7965

> <Gold.Chemscore.Internal_Hbond>
0.0000

> <Gold.Chemscore.DEClash>
0.1321

> <Gold.Chemscore.DEInternal>
0.1214

> <Gold.Chemscore.Rot>
1.0000

> <Gold.Chemscore.Internal.Correction>
   9.000000E+99

> <Gold.Chemscore.Hbonds>
donor molecule, donor type, donor heavy atom, donor atom, acceptor molecule, acceptor atom, score
      L1  H     1    14       P1 10957  0.85
      L1  H    11    23       P1 10747  0.93
      L1  H    13    26       P1 10957  0.69

> <Gold.Chemscore.Hbond.Weighted>
-8.5220

> <Gold.Chemscore.Metal.Weighted>
-0.0000

> <Gold.Chemscore.Lipo.Weighted>
-5.1242

> <Gold.Chemscore.Internal_Hbond.Weighted>
0.0000

> <Gold.Chemscore.DEClash.Weighted>
0.1321

> <Gold.Chemscore.DEInternal.Weighted>
0.1214

> <Gold.Chemscore.Rot.Weighted>
2.5600

> <Gold.Chemscore.Internal.Correction.Weighted>
   9.000000E+99

> <Gold.Protein.RotatedTorsions>
[ 6907 6896 6895 6894 ] final  143.00 input  -60.11 | X-H torsion
[ 7974 7965 7964 7962 ] final  -23.43 input  175.53 | X-H torsion
[ 8008 7997 7996 7995 ] final  -23.87 input   59.86 | X-H torsion
[ 10167 10162 10161 10158 ] final  160.40 input  -65.29 | X-H torsion
[ 10718 10713 10712 10709 ] final -148.26 input   66.30 | X-H torsion
[ 10763 10752 10751 10750 ] final  -26.42 input  -60.55 | X-H torsion
[ 11005 11000 10999 10996 ] final -175.45 input  -57.11 | X-H torsion

> <Gold.Protein.ActiveResidues>
 VAL166  LYS551  ARG553  GLY616  TRP617  ASP618  TYR619  PRO620  LYS621  CYS622 
 ASP623  PHE694  ASN695  SER759  ASP760  ASP761  ALA762  ILE779  LEU786  VAL792 
 PHE793  MET794  SER795  GLU796  ALA797  LYS798  CYS799  TRP800  GLU811  SER814 

> <Gold.Protein.RotatedAtoms>
  152.2118  133.4916  159.5113 H   0  0  0  0  0  0  0  0  0  0  0  0  # atno 6907 bound_to 6896
  150.6992  134.1457  159.4131 H   0  0  0  0  0  0  0  0  0  0  0  0  # atno 6908 bound_to 6896
  151.9377  135.0227  160.0584 H   0  0  0  0  0  0  0  0  0  0  0  0  # atno 6909 bound_to 6896
  146.1617  140.4614  142.8569 H   0  0  0  0  0  0  0  0  0  0  0  0  # atno 7974 bound_to 7965
  154.4561  140.1969  156.0377 H   0  0  0  0  0  0  0  0  0  0  0  0  # atno 8008 bound_to 7997
  156.0748  140.3279  155.7592 H   0  0  0  0  0  0  0  0  0  0  0  0  # atno 8009 bound_to 7997
  155.5206  140.0569  157.2898 H   0  0  0  0  0  0  0  0  0  0  0  0  # atno 8010 bound_to 7997
  139.4839  144.4637  151.8670 H   0  0  0  0  0  0  0  0  0  0  0  0  # atno 10167 bound_to 10162
  156.4180  130.8014  151.2236 H   0  0  0  0  0  0  0  0  0  0  0  0  # atno 10718 bound_to 10713
  153.7156  135.6948  153.5026 H   0  0  0  0  0  0  0  0  0  0  0  0  # atno 10763 bound_to 10752
  153.2241  135.4360  155.0521 H   0  0  0  0  0  0  0  0  0  0  0  0  # atno 10764 bound_to 10752
  154.8301  135.3468  154.6691 H   0  0  0  0  0  0  0  0  0  0  0  0  # atno 10765 bound_to 10752
  140.4632  134.6235  157.4851 H   0  0  0  0  0  0  0  0  0  0  0  0  # atno 11005 bound_to 11000
  144.8036  140.6258  143.6462 LP  0  0  0  0  0  0  0  0  0  0  0  0  # atno 17320 bound_to 7965
  145.4572  139.1517  143.3886 LP  0  0  0  0  0  0  0  0  0  0  0  0  # atno 17321 bound_to 7965
  140.4101  144.2380  150.5889 LP  0  0  0  0  0  0  0  0  0  0  0  0  # atno 17342 bound_to 10162
  140.4974  143.2328  151.8729 LP  0  0  0  0  0  0  0  0  0  0  0  0  # atno 17343 bound_to 10162
  157.7508  131.0237  150.3845 LP  0  0  0  0  0  0  0  0  0  0  0  0  # atno 17370 bound_to 10713
  156.4156  130.3943  149.6860 LP  0  0  0  0  0  0  0  0  0  0  0  0  # atno 17371 bound_to 10713
  139.9932  134.6952  155.9654 LP  0  0  0  0  0  0  0  0  0  0  0  0  # atno 17394 bound_to 11000
  141.1612  133.6539  156.4324 LP  0  0  0  0  0  0  0  0  0  0  0  0  # atno 17395 bound_to 11000

$$$$
