AV-unprocessed.smi:2642|AV-procd|sdf|10275|dock1
  -GOLD-   2272014283D 1   1.00000     0.00000
 Structure written by MMmdl.
 31 32  0  0  0  0  0  0  0  0  2 V2000
  145.9332  136.4928  153.4852 O   0  0  0  0  0  0  0  0  0  0  0  0
  145.5327  137.6429  153.3070 C   0  0  0  0  0  0  0  0  0  0  0  0
  146.3481  138.6956  153.1548 N   0  0  0  0  0  0  0  0  0  0  0  0
  147.8043  138.6395  153.1824 C   0  0  0  0  0  0  0  0  0  0  0  0
  148.3267  138.3310  154.5969 C   0  0  0  0  0  0  0  0  0  0  0  0
  149.7840  138.1742  154.6046 N   0  0  0  0  0  0  0  0  0  0  0  0
  150.6506  139.1853  154.4918 C   0  0  0  0  0  0  0  0  0  0  0  0
  150.4026  140.3839  154.3594 O   0  0  0  0  0  0  0  0  0  0  0  0
  152.0424  138.6010  154.5622 C   0  0  0  0  0  0  0  0  0  0  0  0
  151.7777  137.1902  154.7331 N   0  5  0  0  0  0  0  0  0  0  0  0
  150.4369  137.0057  154.7551 C   0  0  0  0  0  0  0  0  0  0  0  0
  149.8440  135.9364  154.8962 O   0  0  0  0  0  0  0  0  0  0  0  0
  144.2431  138.0191  153.2593 N   0  0  0  0  0  0  0  0  0  0  0  0
  143.0785  137.2111  153.3654 C   0  0  0  0  0  0  0  0  0  0  0  0
  143.0865  135.7950  153.3696 C   0  0  0  0  0  0  0  0  0  0  0  0
  141.8599  135.1090  153.4606 C   0  0  0  0  0  0  0  0  0  0  0  0
  140.6720  135.8613  153.5379 C   0  0  0  0  0  0  0  0  0  0  0  0
  140.6486  137.2106  153.5214 N   0  0  0  0  0  0  0  0  0  0  0  0
  141.8281  137.8614  153.4323 C   0  0  0  0  0  0  0  0  0  0  0  0
  145.9326  139.6057  153.0207 H   0  0  0  0  0  0  0  0  0  0  0  0
  148.1702  137.9015  152.4663 H   0  0  0  0  0  0  0  0  0  0  0  0
  148.1795  139.6073  152.8485 H   0  0  0  0  0  0  0  0  0  0  0  0
  148.0401  139.1291  155.2838 H   0  0  0  0  0  0  0  0  0  0  0  0
  147.8519  137.4274  154.9834 H   0  0  0  0  0  0  0  0  0  0  0  0
  152.5874  138.8290  153.6456 H   0  0  0  0  0  0  0  0  0  0  0  0
  152.5879  139.0406  155.3976 H   0  0  0  0  0  0  0  0  0  0  0  0
  144.0749  139.0122  153.1910 H   0  0  0  0  0  0  0  0  0  0  0  0
  143.9984  135.2239  153.2911 H   0  0  0  0  0  0  0  0  0  0  0  0
  141.8307  134.0294  153.4667 H   0  0  0  0  0  0  0  0  0  0  0  0
  139.7149  135.3660  153.6089 H   0  0  0  0  0  0  0  0  0  0  0  0
  141.7708  138.9402  153.4186 H   0  0  0  0  0  0  0  0  0  0  0  0
  1  2  2  0  0  0  0
  2  3  1  0  0  0  0
  2 13  1  0  0  0  0
  3  4  1  0  0  0  0
  3 20  1  0  0  0  0
  4  5  1  0  0  0  0
  4 21  1  0  0  0  0
  4 22  1  0  0  0  0
  5  6  1  0  0  0  0
  5 23  1  0  0  0  0
  5 24  1  0  0  0  0
  6 11  1  0  0  0  0
  6  7  1  0  0  0  0
  7  8  2  0  0  0  0
  7  9  1  0  0  0  0
  9 10  1  0  0  0  0
  9 25  1  0  0  0  0
  9 26  1  0  0  0  0
 10 11  1  0  0  0  0
 11 12  2  0  0  0  0
 13 14  1  0  0  0  0
 13 27  1  0  0  0  0
 14 19  1  0  0  0  0
 14 15  2  0  0  0  0
 15 16  1  0  0  0  0
 15 28  1  0  0  0  0
 16 17  2  0  0  0  0
 16 29  1  0  0  0  0
 17 18  1  0  0  0  0
 17 30  1  0  0  0  0
 18 19  2  0  0  0  0
 19 31  1  0  0  0  0
M  CHG  1  10  -1
M  END
> <s_m_source_file>
AV-unprocessed.smi

> <i_m_source_file_index>
2642

> <i_lp_mmshare_version>
43012

> <i_f3d_flags>
0

> <s_epik_input>
W2NIXTFuW2NIXVtjSF1bY0hdYzFbTkhdQyg9TylbTkhdW0NIMl1bQ0gyXU4yQyg9TylbQ0gyXVtOSF1DMj1P

> <s_epik_cmdline>
J2VwaWtfcHl0aG9uJywgJy1waCcsICc3LjAnLCAnLXRuJywgJzgnLCAnLW1hJywgJzIwMCcsICctbWV0YWxfYmluZGluZycsICctaW1hZScsICc8aW5maWxlLm1hZT4nLCAnLW9tYWUnLCAnPG91dGZpbGUubWFlPic=

> <r_lp_tautomer_probability>
1

> <r_epik_Ionization_Penalty>
5.82623

> <r_epik_Ionization_Penalty_Charging>
5.82164

> <r_epik_Ionization_Penalty_Neutral>
0.00459419

> <r_epik_State_Penalty>
5.8249

> <r_epik_Charging_Adjusted_Penalty>
11.6465

> <i_epik_Tot_Q>
-1

> <i_epik_Tot_abs_Q>
1

> <r_epik_Metal_State_Penalty>
1.79397

> <b_epik_Metal_Only>
1

> <s_lp_Force_Field>
OPLS_2005

> <r_lp_Energy>
16.7854

> <b_lp_Chiralities_Consistent>
1

> <s_lp_Variant>
AV-unprocessed.smi:2642-2

> <Gold.Version>
5.8.1

> <Gold.Id.Protein>
6NUR|6NUR_protein|mol2

> <Gold.PLP.Fitness>
42.1020

> <Gold.PLP.PLP>
-27.6530

> <Gold.PLP.part.hbond>
-3.1772

> <Gold.PLP.part.metal>
0.0000

> <Gold.PLP.part.buried>
-2.1124

> <Gold.PLP.part.nonpolar>
-22.5872

> <Gold.PLP.part.repulsive>
0.6430

> <Gold.PLP.ligand.clash>
0.0000

> <Gold.PLP.ligand.torsion>
0.2117

> <Gold.PLP.Chemscore.Hbond>
4.0000

> <Gold.PLP.Chemscore.CHOScore>
0.9536

> <Gold.PLP.Chemscore.Metal>
0.0000

> <Gold.Chemscore.Hbonds>
donor molecule, donor type, donor heavy atom, donor atom, acceptor molecule, acceptor atom, score
      L1  H    13    27       P1 10175  1.00
      P1  H  7989  7998       L1     8  1.00
      P1  H 10752 10764       L1    10  1.98
      L1  C    17    30       P1 10187  0.02
      L1  C    19    31       P1 10175  0.86

> <Gold.PLP.Chemscore.Internal.Correction>
0.0117

> <Gold.Rescore>
     Score         DG    S(hbond)    S(metal)    S(lipo)     H(rot)  DE(clash)    DE(int)     intcor
     13.23     -15.10       2.87        0.00      41.71       1.90       0.49       1.38       ----

> <Gold.Chemscore.Fitness>
13.2277

> <Gold.Chemscore.DG>
-15.0960

> <Gold.Chemscore.ZeroCoef>
-5.4800

> <Gold.Chemscore.Hbond>
2.8720

> <Gold.Chemscore.Metal>
0.0000

> <Gold.Chemscore.Lipo>
41.7072

> <Gold.Chemscore.Internal_Hbond>
0.0000

> <Gold.Chemscore.DEClash>
0.4901

> <Gold.Chemscore.DEInternal>
1.3782

> <Gold.Chemscore.Rot>
1.8969

> <Gold.Chemscore.Internal.Correction>
   9.000000E+99

> <Gold.Chemscore.Hbonds>
donor molecule, donor type, donor heavy atom, donor atom, acceptor molecule, acceptor atom, score
      L1  H     3    20       P1 10175  0.02
      L1  H    13    27       P1 10175  0.99
      P1  H  7989  7998       L1     8  0.32
      P1  H 10752 10764       L1    10  0.90

> <Gold.Chemscore.Hbond.Weighted>
-9.5924

> <Gold.Chemscore.Metal.Weighted>
-0.0000

> <Gold.Chemscore.Lipo.Weighted>
-4.8797

> <Gold.Chemscore.Internal_Hbond.Weighted>
0.0000

> <Gold.Chemscore.DEClash.Weighted>
0.4901

> <Gold.Chemscore.DEInternal.Weighted>
1.3782

> <Gold.Chemscore.Rot.Weighted>
4.8561

> <Gold.Chemscore.Internal.Correction.Weighted>
   9.000000E+99

> <Gold.Protein.RotatedTorsions>
[ 6907 6896 6895 6894 ] final   68.36 input  -60.11 | X-H torsion
[ 7974 7965 7964 7962 ] final  103.10 input  175.53 | X-H torsion
[ 8008 7997 7996 7995 ] final    9.25 input   59.86 | X-H torsion
[ 10167 10162 10161 10158 ] final   45.29 input  -65.29 | X-H torsion
[ 10718 10713 10712 10709 ] final  109.01 input   66.30 | X-H torsion
[ 10763 10752 10751 10750 ] final  -60.34 input  -60.55 | X-H torsion
[ 11005 11000 10999 10996 ] final   37.89 input  -57.11 | X-H torsion

> <Gold.Protein.ActiveResidues>
 VAL166  LYS551  ARG553  GLY616  TRP617  ASP618  TYR619  PRO620  LYS621  CYS622 
 ASP623  PHE694  ASN695  SER759  ASP760  ASP761  ALA762  ILE779  LEU786  VAL792 
 PHE793  MET794  SER795  GLU796  ALA797  LYS798  CYS799  TRP800  GLU811  SER814 

> <Gold.Protein.RotatedAtoms>
  152.4615  134.5173  159.9771 H   0  0  0  0  0  0  0  0  0  0  0  0  # atno 6907 bound_to 6896
  151.5220  133.3459  159.2911 H   0  0  0  0  0  0  0  0  0  0  0  0  # atno 6908 bound_to 6896
  150.8580  134.7954  159.7123 H   0  0  0  0  0  0  0  0  0  0  0  0  # atno 6909 bound_to 6896
  145.3504  139.2441  143.3561 H   0  0  0  0  0  0  0  0  0  0  0  0  # atno 7974 bound_to 7965
  154.7775  140.2813  155.6089 H   0  0  0  0  0  0  0  0  0  0  0  0  # atno 8008 bound_to 7997
  156.2944  140.2629  156.2521 H   0  0  0  0  0  0  0  0  0  0  0  0  # atno 8009 bound_to 7997
  154.9824  140.0374  157.2273 H   0  0  0  0  0  0  0  0  0  0  0  0  # atno 8010 bound_to 7997
  140.3257  144.2651  150.6175 H   0  0  0  0  0  0  0  0  0  0  0  0  # atno 10167 bound_to 10162
  157.6561  131.0905  150.6390 H   0  0  0  0  0  0  0  0  0  0  0  0  # atno 10718 bound_to 10713
  154.2677  135.6296  153.5298 H   0  0  0  0  0  0  0  0  0  0  0  0  # atno 10763 bound_to 10752
  152.9885  135.5603  154.5634 H   0  0  0  0  0  0  0  0  0  0  0  0  # atno 10764 bound_to 10752
  154.5197  135.2882  155.1248 H   0  0  0  0  0  0  0  0  0  0  0  0  # atno 10765 bound_to 10752
  140.2181  134.3674  155.8018 H   0  0  0  0  0  0  0  0  0  0  0  0  # atno 11005 bound_to 11000
  146.2970  140.4119  142.8718 LP  0  0  0  0  0  0  0  0  0  0  0  0  # atno 17320 bound_to 7965
  144.8722  140.7288  143.6039 LP  0  0  0  0  0  0  0  0  0  0  0  0  # atno 17321 bound_to 7965
  140.5443  143.2217  151.8032 LP  0  0  0  0  0  0  0  0  0  0  0  0  # atno 17342 bound_to 10162
  139.4866  144.4559  151.9599 LP  0  0  0  0  0  0  0  0  0  0  0  0  # atno 17343 bound_to 10162
  156.6697  130.4536  149.5661 LP  0  0  0  0  0  0  0  0  0  0  0  0  # atno 17370 bound_to 10713
  156.2007  130.6618  151.1164 LP  0  0  0  0  0  0  0  0  0  0  0  0  # atno 17371 bound_to 10713
  141.2224  133.7178  156.8529 LP  0  0  0  0  0  0  0  0  0  0  0  0  # atno 17394 bound_to 11000
  140.1879  134.8986  157.3026 LP  0  0  0  0  0  0  0  0  0  0  0  0  # atno 17395 bound_to 11000

$$$$
