AV-unprocessed.smi:1888|AV-procd|sdf|7657|dock10
  -GOLD-   22720 9393D 1   1.00000     0.00000
 Structure written by MMmdl.
 44 46  0  0  0  0  0  0  0  0  1 V2000
  147.5006  141.6520  154.0009 C   0  0  0  0  0  0  0  0  0  0  0  0
  147.5070  141.2682  155.4823 C   0  0  0  0  0  0  0  0  0  0  0  0
  148.8502  141.1494  155.9192 O   0  0  0  0  0  0  0  0  0  0  0  0
  149.3971  142.3843  156.3482 C   0  0  0  0  0  0  0  0  0  0  0  0
  150.9277  142.2861  156.3107 C   0  0  0  0  0  0  0  0  0  0  0  0
  151.4027  141.0205  156.8581 N   0  0  0  0  0  0  0  0  0  0  0  0
  152.0010  140.7951  158.0570 C   0  0  0  0  0  0  0  0  0  0  0  0
  152.2526  141.8455  158.9660 N   0  0  0  0  0  0  0  0  0  0  0  0
  151.5341  142.9874  158.8995 N   0  0  0  0  0  0  0  0  0  0  0  0
  152.0192  143.7531  159.8624 C   0  0  0  0  0  0  0  0  0  0  0  0
  151.4350  145.1168  160.0843 C   0  0  0  0  0  0  0  0  0  0  0  0
  153.0778  143.1193  160.5713 C   0  0  0  0  0  0  0  0  0  0  0  0
  153.2053  141.8999  159.9675 C   0  0  0  0  0  0  0  0  0  0  0  0
  154.1449  140.7749  160.2555 C   0  0  0  0  0  0  0  0  0  0  0  0
  152.3110  139.5182  158.3007 N   0  0  0  0  0  0  0  0  0  0  0  0
  151.8831  138.8761  157.1477 C   0  0  0  0  0  0  0  0  0  0  0  0
  151.3379  139.7576  156.2717 C   0  0  0  0  0  0  0  0  0  0  0  0
  150.8045  139.3463  154.9680 C   0  0  0  0  0  0  0  0  0  0  0  0
  150.3094  140.1302  154.1611 O   0  0  0  0  0  0  0  0  0  0  0  0
  150.9180  138.0139  154.7462 N   0  0  0  0  0  0  0  0  0  0  0  0
  151.4561  137.0730  155.5821 C   0  0  0  0  0  0  0  0  0  0  0  0
  151.4902  135.8940  155.2306 O   0  0  0  0  0  0  0  0  0  0  0  0
  151.9415  137.4998  156.7937 N   0  0  0  0  0  0  0  0  0  0  0  0
  152.5405  136.5747  157.7578 C   0  0  0  0  0  0  0  0  0  0  0  0
  150.5672  137.6765  153.8616 H   0  0  0  0  0  0  0  0  0  0  0  0
  146.4811  141.7576  153.6297 H   0  0  0  0  0  0  0  0  0  0  0  0
  147.9993  140.8924  153.3987 H   0  0  0  0  0  0  0  0  0  0  0  0
  148.0155  142.5995  153.8400 H   0  0  0  0  0  0  0  0  0  0  0  0
  146.9872  142.0294  156.0664 H   0  0  0  0  0  0  0  0  0  0  0  0
  146.9789  140.3241  155.6241 H   0  0  0  0  0  0  0  0  0  0  0  0
  149.0524  143.1906  155.6991 H   0  0  0  0  0  0  0  0  0  0  0  0
  149.0566  142.6104  157.3594 H   0  0  0  0  0  0  0  0  0  0  0  0
  151.2868  142.3948  155.2872 H   0  0  0  0  0  0  0  0  0  0  0  0
  151.3779  143.1057  156.8703 H   0  0  0  0  0  0  0  0  0  0  0  0
  151.9729  145.6544  160.8653 H   0  0  0  0  0  0  0  0  0  0  0  0
  150.3897  145.0501  160.3866 H   0  0  0  0  0  0  0  0  0  0  0  0
  151.4824  145.7178  159.1757 H   0  0  0  0  0  0  0  0  0  0  0  0
  153.6568  143.5029  161.3982 H   0  0  0  0  0  0  0  0  0  0  0  0
  154.7294  140.9750  161.1537 H   0  0  0  0  0  0  0  0  0  0  0  0
  154.8401  140.6292  159.4283 H   0  0  0  0  0  0  0  0  0  0  0  0
  153.6006  139.8428  160.4095 H   0  0  0  0  0  0  0  0  0  0  0  0
  152.4897  135.5268  157.4599 H   0  0  0  0  0  0  0  0  0  0  0  0
  152.0365  136.6614  158.7211 H   0  0  0  0  0  0  0  0  0  0  0  0
  153.5917  136.8237  157.9059 H   0  0  0  0  0  0  0  0  0  0  0  0
  1  2  1  0  0  0  0
  1 26  1  0  0  0  0
  1 27  1  0  0  0  0
  1 28  1  0  0  0  0
  2  3  1  0  0  0  0
  2 29  1  0  0  0  0
  2 30  1  0  0  0  0
  3  4  1  0  0  0  0
  4  5  1  0  0  0  0
  4 31  1  0  0  0  0
  4 32  1  0  0  0  0
  5  6  1  0  0  0  0
  5 33  1  0  0  0  0
  5 34  1  0  0  0  0
  6 17  1  0  0  0  0
  6  7  1  0  0  0  0
  7  8  1  0  0  0  0
  7 15  2  0  0  0  0
  8 13  1  0  0  0  0
  8  9  1  0  0  0  0
  9 10  2  0  0  0  0
 10 11  1  0  0  0  0
 10 12  1  0  0  0  0
 11 35  1  0  0  0  0
 11 36  1  0  0  0  0
 11 37  1  0  0  0  0
 12 13  2  0  0  0  0
 12 38  1  0  0  0  0
 13 14  1  0  0  0  0
 14 39  1  0  0  0  0
 14 40  1  0  0  0  0
 14 41  1  0  0  0  0
 15 16  1  0  0  0  0
 16 23  1  0  0  0  0
 16 17  2  0  0  0  0
 17 18  1  0  0  0  0
 18 19  2  0  0  0  0
 18 20  1  0  0  0  0
 20 25  1  0  0  0  0
 20 21  1  0  0  0  0
 21 22  2  0  0  0  0
 21 23  1  0  0  0  0
 23 24  1  0  0  0  0
 24 42  1  0  0  0  0
 24 43  1  0  0  0  0
 24 44  1  0  0  0  0
M  END
> <s_m_source_file>
AV-unprocessed.smi

> <i_m_source_file_index>
1888

> <i_lp_mmshare_version>
43012

> <i_f3d_flags>
0

> <s_epik_input>
W0NIM11uMWMoPU8pW25IXWMoPU8pYyhjMTIpbihbQ0gyXVtDSDJdT1tDSDJdW0NIM10pYyhuMiktbjNuYyhbQ0gzXSlbY0hdYzNbQ0gzXQ==

> <s_epik_cmdline>
J2VwaWtfcHl0aG9uJywgJy1waCcsICc3LjAnLCAnLXRuJywgJzgnLCAnLW1hJywgJzIwMCcsICctbWV0YWxfYmluZGluZycsICctaW1hZScsICc8aW5maWxlLm1hZT4nLCAnLW9tYWUnLCAnPG91dGZpbGUubWFlPic=

> <r_lp_tautomer_probability>
1

> <r_epik_Ionization_Penalty>
0.00155345

> <r_epik_Ionization_Penalty_Charging>
0.000715499

> <r_epik_Ionization_Penalty_Neutral>
0.000837951

> <r_epik_State_Penalty>
-0

> <r_epik_Charging_Adjusted_Penalty>
0.000715499

> <i_epik_Tot_Q>
0

> <i_epik_Tot_abs_Q>
0

> <r_epik_Metal_State_Penalty>
0.258535

> <b_epik_Metal_Only>
0

> <s_lp_Force_Field>
OPLS_2005

> <r_lp_Energy>
26.5558

> <b_lp_Chiralities_Consistent>
1

> <s_lp_Variant>
AV-unprocessed.smi:1888-1

> <Gold.Version>
5.8.1

> <Gold.Id.Protein>
6NUR|6NUR_protein|mol2

> <Gold.PLP.Fitness>
44.3533

> <Gold.PLP.PLP>
-39.4130

> <Gold.PLP.part.hbond>
-1.9576

> <Gold.PLP.part.metal>
0.0000

> <Gold.PLP.part.buried>
-2.3140

> <Gold.PLP.part.nonpolar>
-35.1918

> <Gold.PLP.part.repulsive>
1.0781

> <Gold.PLP.ligand.clash>
0.0072

> <Gold.PLP.ligand.torsion>
0.7265

> <Gold.PLP.Chemscore.Hbond>
2.0000

> <Gold.PLP.Chemscore.CHOScore>
0.0000

> <Gold.PLP.Chemscore.Metal>
0.0000

> <Gold.Chemscore.Hbonds>
donor molecule, donor type, donor heavy atom, donor atom, acceptor molecule, acceptor atom, score
      P1  H  7989  7998       L1    19  1.00
      P1  H 10752 10764       L1    22  1.00

> <Gold.PLP.Chemscore.Internal.Correction>
0.4004

> <Gold.Rescore>
     Score         DG    S(hbond)    S(metal)    S(lipo)     H(rot)  DE(clash)    DE(int)     intcor
      9.10     -17.69       1.88        0.00      87.81       1.70       1.58       7.01       ----

> <Gold.Chemscore.Fitness>
9.0988

> <Gold.Chemscore.DG>
-17.6914

> <Gold.Chemscore.ZeroCoef>
-5.4800

> <Gold.Chemscore.Hbond>
1.8793

> <Gold.Chemscore.Metal>
0.0000

> <Gold.Chemscore.Lipo>
87.8148

> <Gold.Chemscore.Internal_Hbond>
0.0000

> <Gold.Chemscore.DEClash>
1.5778

> <Gold.Chemscore.DEInternal>
7.0148

> <Gold.Chemscore.Rot>
1.6953

> <Gold.Chemscore.Internal.Correction>
   9.000000E+99

> <Gold.Chemscore.Hbonds>
donor molecule, donor type, donor heavy atom, donor atom, acceptor molecule, acceptor atom, score
      P1  H  7989  7998       L1    19  0.43
      P1  H 10752 10764       L1    22  0.69

> <Gold.Chemscore.Hbond.Weighted>
-6.2770

> <Gold.Chemscore.Metal.Weighted>
-0.0000

> <Gold.Chemscore.Lipo.Weighted>
-10.2743

> <Gold.Chemscore.Internal_Hbond.Weighted>
0.0000

> <Gold.Chemscore.DEClash.Weighted>
1.5778

> <Gold.Chemscore.DEInternal.Weighted>
7.0148

> <Gold.Chemscore.Rot.Weighted>
4.3399

> <Gold.Chemscore.Internal.Correction.Weighted>
   9.000000E+99

> <Gold.Protein.RotatedTorsions>
[ 6907 6896 6895 6894 ] final -155.58 input  -60.11 | X-H torsion
[ 7974 7965 7964 7962 ] final    9.44 input  175.53 | X-H torsion
[ 8008 7997 7996 7995 ] final  154.15 input   59.86 | X-H torsion
[ 10167 10162 10161 10158 ] final  -89.61 input  -65.29 | X-H torsion
[ 10718 10713 10712 10709 ] final   58.27 input   66.30 | X-H torsion
[ 10763 10752 10751 10750 ] final  -55.67 input  -60.55 | X-H torsion
[ 11005 11000 10999 10996 ] final   43.58 input  -57.11 | X-H torsion

> <Gold.Protein.ActiveResidues>
 VAL166  LYS551  ARG553  GLY616  TRP617  ASP618  TYR619  PRO620  LYS621  CYS622 
 ASP623  PHE694  ASN695  SER759  ASP760  ASP761  ALA762  ILE779  LEU786  VAL792 
 PHE793  MET794  SER795  GLU796  ALA797  LYS798  CYS799  TRP800  GLU811  SER814 

> <Gold.Protein.RotatedAtoms>
  151.2747  133.4238  159.2623 H   0  0  0  0  0  0  0  0  0  0  0  0  # atno 6907 bound_to 6896
  151.0414  134.9610  159.8173 H   0  0  0  0  0  0  0  0  0  0  0  0  # atno 6908 bound_to 6896
  152.5365  134.2705  159.9022 H   0  0  0  0  0  0  0  0  0  0  0  0  # atno 6909 bound_to 6896
  146.2403  139.9784  142.8439 H   0  0  0  0  0  0  0  0  0  0  0  0  # atno 7974 bound_to 7965
  156.2546  140.1974  156.6602 H   0  0  0  0  0  0  0  0  0  0  0  0  # atno 8008 bound_to 7997
  154.6470  140.0576  156.9937 H   0  0  0  0  0  0  0  0  0  0  0  0  # atno 8009 bound_to 7997
  155.1475  140.3248  155.4441 H   0  0  0  0  0  0  0  0  0  0  0  0  # atno 8010 bound_to 7997
  140.3631  143.2832  151.9591 H   0  0  0  0  0  0  0  0  0  0  0  0  # atno 10167 bound_to 10162
  157.5583  130.8816  149.9070 H   0  0  0  0  0  0  0  0  0  0  0  0  # atno 10718 bound_to 10713
  154.1945  135.6421  153.5069 H   0  0  0  0  0  0  0  0  0  0  0  0  # atno 10763 bound_to 10752
  153.0027  135.5436  154.6380 H   0  0  0  0  0  0  0  0  0  0  0  0  # atno 10764 bound_to 10752
  154.5777  135.2922  155.0737 H   0  0  0  0  0  0  0  0  0  0  0  0  # atno 10765 bound_to 10752
  140.1631  134.4316  155.8304 H   0  0  0  0  0  0  0  0  0  0  0  0  # atno 11005 bound_to 11000
  145.1615  140.9675  143.4374 LP  0  0  0  0  0  0  0  0  0  0  0  0  # atno 17320 bound_to 7965
  145.0111  139.3509  143.6119 LP  0  0  0  0  0  0  0  0  0  0  0  0  # atno 17321 bound_to 7965
  139.4812  144.5975  151.7665 LP  0  0  0  0  0  0  0  0  0  0  0  0  # atno 17342 bound_to 10162
  140.5107  144.1029  150.5994 LP  0  0  0  0  0  0  0  0  0  0  0  0  # atno 17343 bound_to 10162
  156.0638  130.3695  150.0922 LP  0  0  0  0  0  0  0  0  0  0  0  0  # atno 17370 bound_to 10713
  156.9089  130.9645  151.3566 LP  0  0  0  0  0  0  0  0  0  0  0  0  # atno 17371 bound_to 10713
  141.2211  133.6922  156.7630 LP  0  0  0  0  0  0  0  0  0  0  0  0  # atno 17394 bound_to 11000
  140.2465  134.8573  157.3626 LP  0  0  0  0  0  0  0  0  0  0  0  0  # atno 17395 bound_to 11000

$$$$
