AV-unprocessed.smi:2520|AV-procd|sdf|9910|dock6
  -GOLD-   2272013543D 1   1.00000     0.00000
 Structure written by MMmdl.
 41 44  0  0  0  0  0  0  0  0  1 V2000
  150.0247  140.9470  157.9680 O   0  0  0  0  0  0  0  0  0  0  0  0
  149.7209  141.9890  157.3895 C   0  0  0  0  0  0  0  0  0  0  0  0
  150.0805  143.1918  157.8854 N   0  0  0  0  0  0  0  0  0  0  0  0
  150.8139  143.5447  159.0557 C   0  0  0  0  0  0  0  0  0  0  0  0
  151.2220  144.8945  159.1132 C   0  0  0  0  0  0  0  0  0  0  0  0
  151.9424  145.3290  160.2389 C   0  0  0  0  0  0  0  0  0  0  0  0
  152.2063  144.3791  161.2401 C   0  0  0  0  0  0  0  0  0  0  0  0
  151.7932  143.0968  161.1480 N   0  0  0  0  0  0  0  0  0  0  0  0
  151.1074  142.6923  160.0738 N   0  0  0  0  0  0  0  0  0  0  0  0
  149.0202  142.0049  156.2448 N   0  0  0  0  0  0  0  0  0  0  0  0
  148.5709  140.8193  155.5258 C   0  0  1  0  0  0  0  0  0  0  0  0
  148.4813  141.0546  154.0091 C   0  0  2  0  0  0  0  0  0  0  0  0
  147.1435  141.0139  153.3228 C   0  0  0  0  0  0  0  0  0  0  0  0
  147.0633  139.5706  152.8173 C   0  0  0  0  0  0  0  0  0  0  0  0
  147.9788  138.8493  153.6388 O   0  0  0  0  0  0  0  0  0  0  0  0
  149.1174  139.6822  153.8443 C   0  0  2  0  0  0  0  0  0  0  0  0
  149.6736  139.7622  155.2816 C   0  0  0  0  0  0  0  0  0  0  0  0
  149.6578  138.4821  156.1127 C   0  0  0  0  0  0  0  0  0  0  0  0
  151.0139  137.7933  155.9200 C   0  0  0  0  0  0  0  0  0  0  0  0
  151.9517  138.8643  155.3541 C   0  0  0  0  0  0  0  0  0  0  0  0
  151.1475  140.1639  155.3895 C   0  0  0  0  0  0  0  0  0  0  0  0
  149.7309  143.9801  157.3603 H   0  0  0  0  0  0  0  0  0  0  0  0
  150.9907  145.5834  158.3138 H   0  0  0  0  0  0  0  0  0  0  0  0
  152.2795  146.3508  160.3317 H   0  0  0  0  0  0  0  0  0  0  0  0
  152.7557  144.6504  162.1292 H   0  0  0  0  0  0  0  0  0  0  0  0
  148.8057  142.9014  155.8316 H   0  0  0  0  0  0  0  0  0  0  0  0
  147.6558  140.3749  155.9243 H   0  0  0  0  0  0  0  0  0  0  0  0
  149.1477  141.8486  153.6660 H   0  0  0  0  0  0  0  0  0  0  0  0
  146.3381  141.2245  154.0272 H   0  0  0  0  0  0  0  0  0  0  0  0
  147.0697  141.7302  152.5041 H   0  0  0  0  0  0  0  0  0  0  0  0
  146.0564  139.1579  152.8798 H   0  0  0  0  0  0  0  0  0  0  0  0
  147.3947  139.5091  151.7799 H   0  0  0  0  0  0  0  0  0  0  0  0
  149.8543  139.6237  153.0417 H   0  0  0  0  0  0  0  0  0  0  0  0
  149.5260  138.7304  157.1667 H   0  0  0  0  0  0  0  0  0  0  0  0
  148.8352  137.8181  155.8466 H   0  0  0  0  0  0  0  0  0  0  0  0
  151.3846  137.3911  156.8633 H   0  0  0  0  0  0  0  0  0  0  0  0
  150.9280  136.9622  155.2191 H   0  0  0  0  0  0  0  0  0  0  0  0
  152.8818  138.9436  155.9177 H   0  0  0  0  0  0  0  0  0  0  0  0
  152.2102  138.6175  154.3236 H   0  0  0  0  0  0  0  0  0  0  0  0
  151.4569  140.8487  154.5990 H   0  0  0  0  0  0  0  0  0  0  0  0
  151.3409  140.6666  156.3378 H   0  0  0  0  0  0  0  0  0  0  0  0
  1  2  2  0  0  0  0
  2  3  1  0  0  0  0
  2 10  1  0  0  0  0
  3  4  1  0  0  0  0
  3 22  1  0  0  0  0
  4  9  1  0  0  0  0
  4  5  2  0  0  0  0
  5  6  1  0  0  0  0
  5 23  1  0  0  0  0
  6  7  2  0  0  0  0
  6 24  1  0  0  0  0
  7  8  1  0  0  0  0
  7 25  1  0  0  0  0
  8  9  2  0  0  0  0
 10 11  1  0  0  0  0
 10 26  1  0  0  0  0
 11 17  1  0  0  0  0
 11 12  1  0  0  0  0
 11 27  1  0  0  0  0
 12 16  1  0  0  0  0
 12 13  1  0  0  0  0
 12 28  1  0  0  0  0
 13 14  1  0  0  0  0
 13 29  1  0  0  0  0
 13 30  1  0  0  0  0
 14 15  1  0  0  0  0
 14 31  1  0  0  0  0
 14 32  1  0  0  0  0
 15 16  1  0  0  0  0
 16 17  1  0  0  0  0
 16 33  1  0  0  0  0
 17 21  1  0  0  0  0
 17 18  1  0  0  0  0
 18 19  1  0  0  0  0
 18 34  1  0  0  0  0
 18 35  1  0  0  0  0
 19 20  1  0  0  0  0
 19 36  1  0  0  0  0
 19 37  1  0  0  0  0
 20 21  1  0  0  0  0
 20 38  1  0  0  0  0
 20 39  1  0  0  0  0
 21 40  1  0  0  0  0
 21 41  1  0  0  0  0
M  END
> <s_m_source_file>
AV-unprocessed.smi

> <i_m_source_file_index>
2520

> <i_lp_mmshare_version>
43012

> <i_f3d_flags>
0

> <s_epik_input>
bjFuW2NIXVtjSF1bY0hdYzFbTkhdQyg9TylbTkhdW0NAQEhdMltDQEBIXShbQ0gyXVtDSDJdTzMpW0NASF0zQzI0W0NIMl1bQ0gyXVtDSDJdW0NIMl00

> <s_epik_cmdline>
J2VwaWtfcHl0aG9uJywgJy1waCcsICc3LjAnLCAnLXRuJywgJzgnLCAnLW1hJywgJzIwMCcsICctbWV0YWxfYmluZGluZycsICctaW1hZScsICc8aW5maWxlLm1hZT4nLCAnLW9tYWUnLCAnPG91dGZpbGUubWFlPic=

> <r_lp_tautomer_probability>
1

> <r_epik_Ionization_Penalty>
0.00552561

> <r_epik_Ionization_Penalty_Charging>
0

> <r_epik_Ionization_Penalty_Neutral>
0.00552561

> <r_epik_State_Penalty>
-0

> <r_epik_Charging_Adjusted_Penalty>
0

> <i_epik_Tot_Q>
0

> <i_epik_Tot_abs_Q>
0

> <r_epik_Metal_State_Penalty>
-0

> <b_epik_Metal_Only>
0

> <s_lp_Force_Field>
OPLS_2005

> <r_lp_Energy>
61.147

> <b_lp_Chiralities_Consistent>
1

> <s_lp_Variant>
AV-unprocessed.smi:2520-4

> <Gold.Version>
5.8.1

> <Gold.Id.Protein>
6NUR|6NUR_protein|mol2

> <Gold.PLP.Fitness>
43.0404

> <Gold.PLP.PLP>
-37.3965

> <Gold.PLP.part.hbond>
-3.5422

> <Gold.PLP.part.metal>
0.0000

> <Gold.PLP.part.buried>
-1.4899

> <Gold.PLP.part.nonpolar>
-32.7525

> <Gold.PLP.part.repulsive>
0.4471

> <Gold.PLP.ligand.clash>
0.0000

> <Gold.PLP.ligand.torsion>
0.2710

> <Gold.PLP.Chemscore.Hbond>
2.0000

> <Gold.PLP.Chemscore.CHOScore>
0.0000

> <Gold.PLP.Chemscore.Metal>
0.0000

> <Gold.Chemscore.Hbonds>
donor molecule, donor type, donor heavy atom, donor atom, acceptor molecule, acceptor atom, score
      L1  H     3    22       P1  8028  1.00
      L1  H    10    26       P1  8028  1.00

> <Gold.PLP.Chemscore.Internal.Correction>
0.1859

> <Gold.Rescore>
     Score         DG    S(hbond)    S(metal)    S(lipo)     H(rot)  DE(clash)    DE(int)     intcor
     17.40     -18.93       1.66        0.00      89.32       1.00       0.17       1.36       ----

> <Gold.Chemscore.Fitness>
17.4047

> <Gold.Chemscore.DG>
-18.9277

> <Gold.Chemscore.ZeroCoef>
-5.4800

> <Gold.Chemscore.Hbond>
1.6638

> <Gold.Chemscore.Metal>
0.0000

> <Gold.Chemscore.Lipo>
89.3208

> <Gold.Chemscore.Internal_Hbond>
0.0000

> <Gold.Chemscore.DEClash>
0.1680

> <Gold.Chemscore.DEInternal>
1.3551

> <Gold.Chemscore.Rot>
1.0000

> <Gold.Chemscore.Internal.Correction>
   9.000000E+99

> <Gold.Chemscore.Hbonds>
donor molecule, donor type, donor heavy atom, donor atom, acceptor molecule, acceptor atom, score
      L1  H     3    22       P1  8028  0.50
      L1  H    10    26       P1  8028  0.99

> <Gold.Chemscore.Hbond.Weighted>
-5.5572

> <Gold.Chemscore.Metal.Weighted>
-0.0000

> <Gold.Chemscore.Lipo.Weighted>
-10.4505

> <Gold.Chemscore.Internal_Hbond.Weighted>
0.0000

> <Gold.Chemscore.DEClash.Weighted>
0.1680

> <Gold.Chemscore.DEInternal.Weighted>
1.3551

> <Gold.Chemscore.Rot.Weighted>
2.5600

> <Gold.Chemscore.Internal.Correction.Weighted>
   9.000000E+99

> <Gold.Protein.RotatedTorsions>
[ 6907 6896 6895 6894 ] final   49.70 input  -60.11 | X-H torsion
[ 7974 7965 7964 7962 ] final  -56.80 input  175.53 | X-H torsion
[ 8008 7997 7996 7995 ] final  -12.14 input   59.86 | X-H torsion
[ 10167 10162 10161 10158 ] final  -20.69 input  -65.29 | X-H torsion
[ 10718 10713 10712 10709 ] final  104.53 input   66.30 | X-H torsion
[ 10763 10752 10751 10750 ] final   31.80 input  -60.55 | X-H torsion
[ 11005 11000 10999 10996 ] final   69.25 input  -57.11 | X-H torsion

> <Gold.Protein.ActiveResidues>
 VAL166  LYS551  ARG553  GLY616  TRP617  ASP618  TYR619  PRO620  LYS621  CYS622 
 ASP623  PHE694  ASN695  SER759  ASP760  ASP761  ALA762  ILE779  LEU786  VAL792 
 PHE793  MET794  SER795  GLU796  ALA797  LYS798  CYS799  TRP800  GLU811  SER814 

> <Gold.Protein.RotatedAtoms>
  152.2937  134.7692  160.0372 H   0  0  0  0  0  0  0  0  0  0  0  0  # atno 6907 bound_to 6896
  151.8229  133.3392  159.3598 H   0  0  0  0  0  0  0  0  0  0  0  0  # atno 6908 bound_to 6896
  150.7242  134.5486  159.5827 H   0  0  0  0  0  0  0  0  0  0  0  0  # atno 6909 bound_to 6896
  145.8585  140.8302  142.9949 H   0  0  0  0  0  0  0  0  0  0  0  0  # atno 7974 bound_to 7965
  154.5403  140.2284  155.8652 H   0  0  0  0  0  0  0  0  0  0  0  0  # atno 8008 bound_to 7997
  156.1852  140.3090  155.9187 H   0  0  0  0  0  0  0  0  0  0  0  0  # atno 8009 bound_to 7997
  155.3271  140.0443  157.3032 H   0  0  0  0  0  0  0  0  0  0  0  0  # atno 8010 bound_to 7997
  140.7278  143.4698  151.0262 H   0  0  0  0  0  0  0  0  0  0  0  0  # atno 10167 bound_to 10162
  157.6737  131.0806  150.5720 H   0  0  0  0  0  0  0  0  0  0  0  0  # atno 10718 bound_to 10713
  153.0296  135.6430  154.1255 H   0  0  0  0  0  0  0  0  0  0  0  0  # atno 10763 bound_to 10752
  154.0979  135.2861  155.3259 H   0  0  0  0  0  0  0  0  0  0  0  0  # atno 10764 bound_to 10752
  154.6419  135.5456  153.7863 H   0  0  0  0  0  0  0  0  0  0  0  0  # atno 10765 bound_to 10752
  139.9664  134.6973  156.0536 H   0  0  0  0  0  0  0  0  0  0  0  0  # atno 11005 bound_to 11000
  144.6727  140.1060  143.7458 LP  0  0  0  0  0  0  0  0  0  0  0  0  # atno 17320 bound_to 7965
  145.9275  139.2585  143.1344 LP  0  0  0  0  0  0  0  0  0  0  0  0  # atno 17321 bound_to 7965
  139.8389  143.7590  152.3180 LP  0  0  0  0  0  0  0  0  0  0  0  0  # atno 17342 bound_to 10162
  139.7732  144.7469  151.0194 LP  0  0  0  0  0  0  0  0  0  0  0  0  # atno 17343 bound_to 10162
  156.6021  130.4357  149.5893 LP  0  0  0  0  0  0  0  0  0  0  0  0  # atno 17370 bound_to 10713
  156.2497  130.6900  151.1634 LP  0  0  0  0  0  0  0  0  0  0  0  0  # atno 17371 bound_to 10713
  141.1344  133.6578  156.3553 LP  0  0  0  0  0  0  0  0  0  0  0  0  # atno 17394 bound_to 11000
  140.5386  134.6142  157.5373 LP  0  0  0  0  0  0  0  0  0  0  0  0  # atno 17395 bound_to 11000

$$$$
