AV-unprocessed.smi:3209|AV-procd|sdf|12268|dock10
  -GOLD-   2272018103D 1   1.00000     0.00000
 Structure written by MMmdl.
 37 39  0  0  0  0  0  0  0  0  2 V2000
  152.3960  143.8287  161.4909 C   0  0  0  0  0  0  0  0  0  0  0  0
  152.0057  143.6769  160.0609 C   0  0  0  0  0  0  0  0  0  0  0  0
  151.7467  142.4983  159.4885 N   0  0  0  0  0  0  0  0  0  0  0  0
  151.4046  142.6191  158.1381 C   0  0  0  0  0  0  0  0  0  0  0  0
  151.0830  141.3937  157.3382 C   0  0  0  0  0  0  0  0  0  0  0  0
  150.6277  141.7353  155.9130 C   0  0  0  0  0  0  0  0  0  0  0  0
  149.1772  142.0101  155.8710 N   0  3  0  0  0  0  0  0  0  0  0  0
  148.5205  141.6585  154.5930 C   0  0  2  0  0  0  0  0  0  0  0  0
  147.0306  142.0583  154.5153 C   0  0  0  0  0  0  0  0  0  0  0  0
  146.3493  140.7423  154.0919 C   0  0  2  0  0  0  0  0  0  0  0  0
  146.2964  139.7965  155.3045 C   0  0  0  0  0  0  0  0  0  0  0  0
  147.7691  139.3786  155.4679 C   0  0  0  0  0  0  0  0  0  0  0  0
  148.4755  140.1386  154.3236 C   0  0  1  0  0  0  0  0  0  0  0  0
  147.4168  140.0783  153.2269 C   0  0  0  0  0  0  0  0  0  0  0  0
  151.4100  143.9175  157.6924 C   0  0  0  0  0  0  0  0  0  0  0  0
  151.8459  145.0360  158.9551 S   0  0  0  0  0  0  0  0  0  0  0  0
  151.9675  143.0251  162.0904 H   0  0  0  0  0  0  0  0  0  0  0  0
  152.0367  144.7818  161.8792 H   0  0  0  0  0  0  0  0  0  0  0  0
  153.4816  143.7980  161.5857 H   0  0  0  0  0  0  0  0  0  0  0  0
  151.9563  140.7412  157.2956 H   0  0  0  0  0  0  0  0  0  0  0  0
  150.3038  140.8180  157.8397 H   0  0  0  0  0  0  0  0  0  0  0  0
  151.1762  142.6046  155.5481 H   0  0  0  0  0  0  0  0  0  0  0  0
  150.8534  140.9064  155.2409 H   0  0  0  0  0  0  0  0  0  0  0  0
  148.7401  141.4705  156.6047 H   0  0  0  0  0  0  0  0  0  0  0  0
  149.0700  142.1373  153.7804 H   0  0  0  0  0  0  0  0  0  0  0  0
  146.6324  142.4327  155.4596 H   0  0  0  0  0  0  0  0  0  0  0  0
  146.8842  142.8344  153.7630 H   0  0  0  0  0  0  0  0  0  0  0  0
  145.3830  140.8843  153.6070 H   0  0  0  0  0  0  0  0  0  0  0  0
  145.8982  140.2831  156.1958 H   0  0  0  0  0  0  0  0  0  0  0  0
  145.6728  138.9269  155.0924 H   0  0  0  0  0  0  0  0  0  0  0  0
  148.1653  139.6217  156.4537 H   0  0  0  0  0  0  0  0  0  0  0  0
  147.8724  138.3013  155.3322 H   0  0  0  0  0  0  0  0  0  0  0  0
  149.4419  139.7148  154.0479 H   0  0  0  0  0  0  0  0  0  0  0  0
  147.1594  139.0606  152.9274 H   0  0  0  0  0  0  0  0  0  0  0  0
  147.6750  140.6571  152.3381 H   0  0  0  0  0  0  0  0  0  0  0  0
  151.1847  144.2846  156.7021 H   0  0  0  0  0  0  0  0  0  0  0  0
  149.0203  142.9906  156.0556 H   0  0  0  0  0  0  0  0  0  0  0  0
  1  2  1  0  0  0  0
  1 17  1  0  0  0  0
  1 18  1  0  0  0  0
  1 19  1  0  0  0  0
  2 16  1  0  0  0  0
  2  3  2  0  0  0  0
  3  4  1  0  0  0  0
  4  5  1  0  0  0  0
  4 15  2  0  0  0  0
  5  6  1  0  0  0  0
  5 20  1  0  0  0  0
  5 21  1  0  0  0  0
  6  7  1  0  0  0  0
  6 22  1  0  0  0  0
  6 23  1  0  0  0  0
  7  8  1  0  0  0  0
  7 24  1  0  0  0  0
  7 37  1  0  0  0  0
  8 13  1  0  0  0  0
  8  9  1  0  0  0  0
  8 25  1  0  0  0  0
  9 10  1  0  0  0  0
  9 26  1  0  0  0  0
  9 27  1  0  0  0  0
 10 14  1  0  0  0  0
 10 11  1  0  0  0  0
 10 28  1  0  0  0  0
 11 12  1  0  0  0  0
 11 29  1  0  0  0  0
 11 30  1  0  0  0  0
 12 13  1  0  0  0  0
 12 31  1  0  0  0  0
 12 32  1  0  0  0  0
 13 14  1  0  0  0  0
 13 33  1  0  0  0  0
 14 34  1  0  0  0  0
 14 35  1  0  0  0  0
 15 16  1  0  0  0  0
 15 36  1  0  0  0  0
M  CHG  1   7   1
M  END
> <s_m_source_file>
AV-unprocessed.smi

> <i_m_source_file_index>
3209

> <i_lp_mmshare_version>
43012

> <i_f3d_flags>
0

> <s_epik_input>
W0NIM11jMW5jKFtjSF1zMSlbQ0gyXVtDSDJdW05IXVtDQEhdKFtDSDJdW0NASF0yMylbQ0BIXShbQ0gyXTMpW0NIMl1bQ0gyXTI=

> <s_epik_cmdline>
J2VwaWtfcHl0aG9uJywgJy1waCcsICc3LjAnLCAnLXRuJywgJzgnLCAnLW1hJywgJzIwMCcsICctbWV0YWxfYmluZGluZycsICctaW1hZScsICc8aW5maWxlLm1hZT4nLCAnLW9tYWUnLCAnPG91dGZpbGUubWFlPic=

> <r_lp_tautomer_probability>
1

> <r_epik_Ionization_Penalty>
0.000342479

> <r_epik_Ionization_Penalty_Charging>
0.000317129

> <r_epik_Ionization_Penalty_Neutral>
2.535e-05

> <r_epik_State_Penalty>
-0

> <r_epik_Charging_Adjusted_Penalty>
0.000317129

> <i_epik_Tot_Q>
1

> <i_epik_Tot_abs_Q>
1

> <r_epik_Metal_State_Penalty>
-0

> <b_epik_Metal_Only>
0

> <s_lp_Force_Field>
OPLS_2005

> <r_lp_Energy>
49.3093

> <b_lp_Chiralities_Consistent>
1

> <s_lp_Variant>
AV-unprocessed.smi:3209-1

> <Gold.Version>
5.8.1

> <Gold.Id.Protein>
6NUR|6NUR_protein|mol2

> <Gold.PLP.Fitness>
42.6566

> <Gold.PLP.PLP>
-34.6058

> <Gold.PLP.part.hbond>
-1.0000

> <Gold.PLP.part.metal>
0.0000

> <Gold.PLP.part.buried>
-2.3781

> <Gold.PLP.part.nonpolar>
-32.1410

> <Gold.PLP.part.repulsive>
0.1038

> <Gold.PLP.ligand.clash>
0.0000

> <Gold.PLP.ligand.torsion>
0.3807

> <Gold.PLP.Chemscore.Hbond>
2.0000

> <Gold.PLP.Chemscore.CHOScore>
0.9324

> <Gold.PLP.Chemscore.Metal>
0.0000

> <Gold.Chemscore.Hbonds>
donor molecule, donor type, donor heavy atom, donor atom, acceptor molecule, acceptor atom, score
      L1  H     7    37       P1  8028  2.00
      L1  C    15    36       P1  8028  0.97

> <Gold.PLP.Chemscore.Internal.Correction>
0.0151

> <Gold.Rescore>
     Score         DG    S(hbond)    S(metal)    S(lipo)     H(rot)  DE(clash)    DE(int)     intcor
     17.49     -18.29       0.99        0.00     109.78       1.31       0.37       0.42       ----

> <Gold.Chemscore.Fitness>
17.4928

> <Gold.Chemscore.DG>
-18.2876

> <Gold.Chemscore.ZeroCoef>
-5.4800

> <Gold.Chemscore.Hbond>
0.9937

> <Gold.Chemscore.Metal>
0.0000

> <Gold.Chemscore.Lipo>
109.7808

> <Gold.Chemscore.Internal_Hbond>
0.0000

> <Gold.Chemscore.DEClash>
0.3729

> <Gold.Chemscore.DEInternal>
0.4220

> <Gold.Chemscore.Rot>
1.3108

> <Gold.Chemscore.Internal.Correction>
   9.000000E+99

> <Gold.Chemscore.Hbonds>
donor molecule, donor type, donor heavy atom, donor atom, acceptor molecule, acceptor atom, score
      L1  H     7    37       P1  8028  0.99

> <Gold.Chemscore.Hbond.Weighted>
-3.3190

> <Gold.Chemscore.Metal.Weighted>
-0.0000

> <Gold.Chemscore.Lipo.Weighted>
-12.8444

> <Gold.Chemscore.Internal_Hbond.Weighted>
0.0000

> <Gold.Chemscore.DEClash.Weighted>
0.3729

> <Gold.Chemscore.DEInternal.Weighted>
0.4220

> <Gold.Chemscore.Rot.Weighted>
3.3558

> <Gold.Chemscore.Internal.Correction.Weighted>
   9.000000E+99

> <Gold.Protein.RotatedTorsions>
[ 6907 6896 6895 6894 ] final   97.10 input  -60.11 | X-H torsion
[ 7974 7965 7964 7962 ] final -164.28 input  175.53 | X-H torsion
[ 8008 7997 7996 7995 ] final  148.46 input   59.86 | X-H torsion
[ 10167 10162 10161 10158 ] final  102.88 input  -65.29 | X-H torsion
[ 10718 10713 10712 10709 ] final  -95.79 input   66.30 | X-H torsion
[ 10763 10752 10751 10750 ] final  -37.26 input  -60.55 | X-H torsion
[ 11005 11000 10999 10996 ] final -112.41 input  -57.11 | X-H torsion

> <Gold.Protein.ActiveResidues>
 VAL166  LYS551  ARG553  GLY616  TRP617  ASP618  TYR619  PRO620  LYS621  CYS622 
 ASP623  PHE694  ASN695  SER759  ASP760  ASP761  ALA762  ILE779  LEU786  VAL792 
 PHE793  MET794  SER795  GLU796  ALA797  LYS798  CYS799  TRP800  GLU811  SER814 

> <Gold.Protein.RotatedAtoms>
  152.5427  134.0785  159.8224 H   0  0  0  0  0  0  0  0  0  0  0  0  # atno 6907 bound_to 6896
  151.0890  133.5323  159.2623 H   0  0  0  0  0  0  0  0  0  0  0  0  # atno 6908 bound_to 6896
  151.2122  135.0494  159.8970 H   0  0  0  0  0  0  0  0  0  0  0  0  # atno 6909 bound_to 6896
  144.7301  140.2984  143.6208 H   0  0  0  0  0  0  0  0  0  0  0  0  # atno 7974 bound_to 7965
  156.2790  140.2128  156.5701 H   0  0  0  0  0  0  0  0  0  0  0  0  # atno 8008 bound_to 7997
  154.7142  140.0509  157.0602 H   0  0  0  0  0  0  0  0  0  0  0  0  # atno 8009 bound_to 7997
  155.0564  140.3162  155.4678 H   0  0  0  0  0  0  0  0  0  0  0  0  # atno 8010 bound_to 7997
  139.7312  144.7035  151.0720 H   0  0  0  0  0  0  0  0  0  0  0  0  # atno 10167 bound_to 10162
  156.0050  130.5124  150.6129 H   0  0  0  0  0  0  0  0  0  0  0  0  # atno 10718 bound_to 10713
  153.8933  135.6810  153.4759 H   0  0  0  0  0  0  0  0  0  0  0  0  # atno 10763 bound_to 10752
  153.1169  135.4757  154.9128 H   0  0  0  0  0  0  0  0  0  0  0  0  # atno 10764 bound_to 10752
  154.7612  135.3211  154.8329 H   0  0  0  0  0  0  0  0  0  0  0  0  # atno 10765 bound_to 10752
  141.0677  133.9432  157.2547 H   0  0  0  0  0  0  0  0  0  0  0  0  # atno 11005 bound_to 11000
  145.7785  139.1882  143.2171 LP  0  0  0  0  0  0  0  0  0  0  0  0  # atno 17320 bound_to 7965
  146.0853  140.7717  142.9621 LP  0  0  0  0  0  0  0  0  0  0  0  0  # atno 17321 bound_to 7965
  140.7771  143.5041  150.9734 LP  0  0  0  0  0  0  0  0  0  0  0  0  # atno 17342 bound_to 10162
  139.8729  143.7169  152.3164 LP  0  0  0  0  0  0  0  0  0  0  0  0  # atno 17343 bound_to 10162
  157.3959  131.0802  151.1352 LP  0  0  0  0  0  0  0  0  0  0  0  0  # atno 17370 bound_to 10713
  157.2030  130.6403  149.5745 LP  0  0  0  0  0  0  0  0  0  0  0  0  # atno 17371 bound_to 10713
  139.9492  135.0178  156.8944 LP  0  0  0  0  0  0  0  0  0  0  0  0  # atno 17394 bound_to 11000
  140.5739  134.0417  155.7440 LP  0  0  0  0  0  0  0  0  0  0  0  0  # atno 17395 bound_to 11000

$$$$
