AV-unprocessed.smi:114|AV-procd|sdf|1116|dock8
  -GOLD-   2262018233D 1   1.00000     0.00000
 Structure written by MMmdl.
 32 34  0  0  0  0  0  0  0  0  1 V2000
  150.6784  132.7839  155.3062 N   0  0  0  0  0  0  0  0  0  0  0  0
  149.7938  133.7905  155.2795 C   0  0  0  0  0  0  0  0  0  0  0  0
  148.5046  133.5092  154.9765 N   0  0  0  0  0  0  0  0  0  0  0  0
  147.5897  134.4863  154.9369 C   0  0  0  0  0  0  0  0  0  0  0  0
  146.3264  134.1143  154.6242 F   0  0  0  0  0  0  0  0  0  0  0  0
  147.7831  135.7894  155.1701 N   0  0  0  0  0  0  0  0  0  0  0  0
  149.0817  136.0734  155.4774 C   0  0  0  0  0  0  0  0  0  0  0  0
  150.1444  135.1353  155.5516 C   0  0  0  0  0  0  0  0  0  0  0  0
  151.3252  135.7848  155.8857 N   0  0  0  0  0  0  0  0  0  0  0  0
  150.9735  137.0384  155.9999 C   0  0  0  0  0  0  0  0  0  0  0  0
  149.6386  137.2992  155.7664 N   0  0  0  0  0  0  0  0  0  0  0  0
  148.8993  138.6024  155.8087 C   0  0  1  0  0  0  0  0  0  0  0  0
  149.7130  139.5504  156.4333 O   0  0  0  0  0  0  0  0  0  0  0  0
  150.2778  140.4203  155.4580 C   0  0  2  0  0  0  0  0  0  0  0  0
  150.7064  141.7377  156.1214 C   0  0  0  0  0  0  0  0  0  0  0  0
  149.6400  142.2600  156.8847 O   0  0  0  0  0  0  0  0  0  0  0  0
  149.1101  140.5695  154.4832 C   0  0  1  0  0  0  0  0  0  0  0  0
  149.4967  141.1056  153.2314 O   0  0  0  0  0  0  0  0  0  0  0  0
  148.5682  139.1448  154.3972 C   0  0  1  0  0  0  0  0  0  0  0  0
  149.1647  138.4048  153.3414 O   0  0  0  0  0  0  0  0  0  0  0  0
  148.0194  138.4020  156.4215 H   0  0  0  0  0  0  0  0  0  0  0  0
  151.1185  139.9348  154.9581 H   0  0  0  0  0  0  0  0  0  0  0  0
  148.3485  141.2151  154.9235 H   0  0  0  0  0  0  0  0  0  0  0  0
  147.4875  139.1414  154.2516 H   0  0  0  0  0  0  0  0  0  0  0  0
  151.6455  132.9723  155.5286 H   0  0  0  0  0  0  0  0  0  0  0  0
  150.3779  131.8413  155.1037 H   0  0  0  0  0  0  0  0  0  0  0  0
  151.6868  137.8071  156.2590 H   0  0  0  0  0  0  0  0  0  0  0  0
  151.5401  141.5622  156.8017 H   0  0  0  0  0  0  0  0  0  0  0  0
  151.0386  142.4667  155.3818 H   0  0  0  0  0  0  0  0  0  0  0  0
  149.3628  143.0752  156.4955 H   0  0  0  0  0  0  0  0  0  0  0  0
  149.2572  140.4903  152.5553 H   0  0  0  0  0  0  0  0  0  0  0  0
  149.3613  139.0000  152.6339 H   0  0  0  0  0  0  0  0  0  0  0  0
  1  2  1  0  0  0  0
  1 25  1  0  0  0  0
  1 26  1  0  0  0  0
  2  8  1  0  0  0  0
  2  3  2  0  0  0  0
  3  4  1  0  0  0  0
  4  5  1  0  0  0  0
  4  6  2  0  0  0  0
  6  7  1  0  0  0  0
  7 11  1  0  0  0  0
  7  8  2  0  0  0  0
  8  9  1  0  0  0  0
  9 10  2  0  0  0  0
 10 11  1  0  0  0  0
 10 27  1  0  0  0  0
 11 12  1  0  0  0  0
 12 21  1  0  0  0  0
 12 19  1  0  0  0  0
 12 13  1  0  0  0  0
 13 14  1  0  0  0  0
 14 22  1  0  0  0  0
 14 15  1  0  0  0  0
 14 17  1  0  0  0  0
 15 16  1  0  0  0  0
 15 28  1  0  0  0  0
 15 29  1  0  0  0  0
 16 30  1  0  0  0  0
 17 23  1  0  0  0  0
 17 18  1  0  0  0  0
 17 19  1  0  0  0  0
 18 31  1  0  0  0  0
 19 24  1  0  0  0  0
 19 20  1  0  0  0  0
 20 32  1  0  0  0  0
M  END
> <s_m_source_file>
AV-unprocessed.smi

> <i_m_source_file_index>
114

> <i_lp_mmshare_version>
43012

> <i_f3d_flags>
0

> <s_epik_input>
RmMobjEpbmMoW05IMl0pYyhjMTIpbltjSF1uMltDQEBIXTNPW0NASF0oW0NIMl1bT0hdKVtDQEBIXShbT0hdKVtDQEBIXTNbT0hd

> <s_epik_cmdline>
J2VwaWtfcHl0aG9uJywgJy1waCcsICc3LjAnLCAnLXRuJywgJzgnLCAnLW1hJywgJzIwMCcsICctbWV0YWxfYmluZGluZycsICctaW1hZScsICc8aW5maWxlLm1hZT4nLCAnLW9tYWUnLCAnPG91dGZpbGUubWFlPic=

> <r_lp_tautomer_probability>
1

> <r_epik_Ionization_Penalty>
1.13199e-05

> <r_epik_Ionization_Penalty_Charging>
0

> <r_epik_Ionization_Penalty_Neutral>
1.13199e-05

> <r_epik_State_Penalty>
-0

> <r_epik_Charging_Adjusted_Penalty>
0

> <i_epik_Tot_Q>
0

> <i_epik_Tot_abs_Q>
0

> <r_epik_Metal_State_Penalty>
-0

> <b_epik_Metal_Only>
0

> <s_epik_Chemistry_Notes>
This compound contains an acetal/aminal-like group ( X-CH(R)-Y where X, Y are N, S, or O) that may be acid/base labile, releasing an aldehyde.

> <s_lp_Force_Field>
OPLS_2005

> <r_lp_Energy>
42.7446

> <b_lp_Chiralities_Consistent>
1

> <s_lp_Variant>
AV-unprocessed.smi:114-10

> <Gold.Version>
5.8.1

> <Gold.Id.Protein>
6NUR|6NUR_protein|mol2

> <Gold.PLP.Fitness>
38.9187

> <Gold.PLP.PLP>
-24.8966

> <Gold.PLP.part.hbond>
-6.2992

> <Gold.PLP.part.metal>
0.0000

> <Gold.PLP.part.buried>
-4.4504

> <Gold.PLP.part.nonpolar>
-14.4405

> <Gold.PLP.part.repulsive>
0.2238

> <Gold.PLP.ligand.clash>
0.0000

> <Gold.PLP.ligand.torsion>
0.3716

> <Gold.PLP.Chemscore.Hbond>
4.8971

> <Gold.PLP.Chemscore.CHOScore>
0.0000

> <Gold.PLP.Chemscore.Metal>
0.0000

> <Gold.Chemscore.Hbonds>
donor molecule, donor type, donor heavy atom, donor atom, acceptor molecule, acceptor atom, score
      L1  H    16    30       P1  8028  1.00
      L1  H    18    31       P1  7957  0.80
      L1  H    20    32       P1  7957  1.00
      P1  H  7989  7998       L1    18  0.09
      P1  H  8011  8017       L1    18  1.00
      P1  H 10752 10765       L1     9  1.00

> <Gold.PLP.Chemscore.Internal.Correction>
0.0739

> <Gold.Rescore>
     Score         DG    S(hbond)    S(metal)    S(lipo)     H(rot)  DE(clash)    DE(int)     intcor
     12.69     -13.26       4.28        0.00      32.45       4.03       0.06       0.51       ----

> <Gold.Chemscore.Fitness>
12.6864

> <Gold.Chemscore.DG>
-13.2588

> <Gold.Chemscore.ZeroCoef>
-5.4800

> <Gold.Chemscore.Hbond>
4.2794

> <Gold.Chemscore.Metal>
0.0000

> <Gold.Chemscore.Lipo>
32.4501

> <Gold.Chemscore.Internal_Hbond>
0.0000

> <Gold.Chemscore.DEClash>
0.0639

> <Gold.Chemscore.DEInternal>
0.5085

> <Gold.Chemscore.Rot>
4.0277

> <Gold.Chemscore.Internal.Correction>
   9.000000E+99

> <Gold.Chemscore.Hbonds>
donor molecule, donor type, donor heavy atom, donor atom, acceptor molecule, acceptor atom, score
      L1  H    16    30       P1  8028  1.00
      L1  H    18    31       P1  7957  0.75
      L1  H    20    32       P1  7957  0.97
      P1  H  7989  7998       L1    18  0.01
      P1  H  8011  8017       L1    18  0.25
      P1  H 10752 10765       L1     9  0.85

> <Gold.Chemscore.Hbond.Weighted>
-14.2931

> <Gold.Chemscore.Metal.Weighted>
-0.0000

> <Gold.Chemscore.Lipo.Weighted>
-3.7967

> <Gold.Chemscore.Internal_Hbond.Weighted>
0.0000

> <Gold.Chemscore.DEClash.Weighted>
0.0639

> <Gold.Chemscore.DEInternal.Weighted>
0.5085

> <Gold.Chemscore.Rot.Weighted>
10.3110

> <Gold.Chemscore.Internal.Correction.Weighted>
   9.000000E+99

> <Gold.Protein.RotatedTorsions>
[ 6907 6896 6895 6894 ] final  -57.67 input  -60.11 | X-H torsion
[ 7974 7965 7964 7962 ] final   93.93 input  175.53 | X-H torsion
[ 8008 7997 7996 7995 ] final  155.36 input   59.86 | X-H torsion
[ 10167 10162 10161 10158 ] final  -91.94 input  -65.29 | X-H torsion
[ 10718 10713 10712 10709 ] final   82.81 input   66.30 | X-H torsion
[ 10763 10752 10751 10750 ] final -161.54 input  -60.55 | X-H torsion
[ 11005 11000 10999 10996 ] final    3.42 input  -57.11 | X-H torsion

> <Gold.Protein.ActiveResidues>
 VAL166  LYS551  ARG553  GLY616  TRP617  ASP618  TYR619  PRO620  LYS621  CYS622 
 ASP623  PHE694  ASN695  SER759  ASP760  ASP761  ALA762  ILE779  LEU786  VAL792 
 PHE793  MET794  SER795  GLU796  ALA797  LYS798  CYS799  TRP800  GLU811  SER814 

> <Gold.Protein.RotatedAtoms>
  150.8067  134.7197  159.6650 H   0  0  0  0  0  0  0  0  0  0  0  0  # atno 6907 bound_to 6896
  152.4187  134.5992  160.0005 H   0  0  0  0  0  0  0  0  0  0  0  0  # atno 6908 bound_to 6896
  151.6214  133.3302  159.3125 H   0  0  0  0  0  0  0  0  0  0  0  0  # atno 6909 bound_to 6896
  145.4723  139.2281  143.2928 H   0  0  0  0  0  0  0  0  0  0  0  0  # atno 7974 bound_to 7965
  156.2482  140.1941  156.6789 H   0  0  0  0  0  0  0  0  0  0  0  0  # atno 8008 bound_to 7997
  154.6337  140.0592  156.9788 H   0  0  0  0  0  0  0  0  0  0  0  0  # atno 8009 bound_to 7997
  155.1671  140.3265  155.4402 H   0  0  0  0  0  0  0  0  0  0  0  0  # atno 8010 bound_to 7997
  140.3398  143.2948  151.9848 H   0  0  0  0  0  0  0  0  0  0  0  0  # atno 10167 bound_to 10162
  157.6865  131.0064  150.2430 H   0  0  0  0  0  0  0  0  0  0  0  0  # atno 10718 bound_to 10713
  154.7294  135.3043  154.8916 H   0  0  0  0  0  0  0  0  0  0  0  0  # atno 10763 bound_to 10752
  153.9763  135.6735  153.4752 H   0  0  0  0  0  0  0  0  0  0  0  0  # atno 10764 bound_to 10752
  153.0905  135.4962  154.8600 H   0  0  0  0  0  0  0  0  0  0  0  0  # atno 10765 bound_to 10752
  140.5933  133.9904  155.8098 H   0  0  0  0  0  0  0  0  0  0  0  0  # atno 11005 bound_to 11000
  146.2389  140.5503  142.8942 LP  0  0  0  0  0  0  0  0  0  0  0  0  # atno 17320 bound_to 7965
  144.7938  140.6082  143.6524 LP  0  0  0  0  0  0  0  0  0  0  0  0  # atno 17321 bound_to 7965
  139.4842  144.6166  151.7335 LP  0  0  0  0  0  0  0  0  0  0  0  0  # atno 17342 bound_to 10162
  140.5319  144.0717  150.6057 LP  0  0  0  0  0  0  0  0  0  0  0  0  # atno 17343 bound_to 10162
  156.3041  130.3762  149.7723 LP  0  0  0  0  0  0  0  0  0  0  0  0  # atno 17370 bound_to 10713
  156.5344  130.8272  151.3248 LP  0  0  0  0  0  0  0  0  0  0  0  0  # atno 17371 bound_to 10713
  141.0920  133.9901  157.3221 LP  0  0  0  0  0  0  0  0  0  0  0  0  # atno 17394 bound_to 11000
  139.9264  135.0201  156.8250 LP  0  0  0  0  0  0  0  0  0  0  0  0  # atno 17395 bound_to 11000

$$$$
