AV-unprocessed.smi:1817|AV-procd|sdf|7372|dock4
  -GOLD-   22720 9 33D 1   1.00000     0.00000
 Structure written by MMmdl.
 42 43  0  0  0  0  0  0  0  0  1 V2000
  153.0566  142.8622  160.6637 C   0  0  0  0  0  0  0  0  0  0  0  0
  152.0599  143.0526  159.5114 C   0  0  0  0  0  0  0  0  0  0  0  0
  152.2138  142.1141  158.4014 N   0  0  0  0  0  0  0  0  0  0  0  0
  151.0742  142.1927  157.4910 C   0  0  0  0  0  0  0  0  0  0  0  0
  151.2234  141.2243  156.3035 C   0  0  0  0  0  0  0  0  0  0  0  0
  151.3466  139.8271  156.7411 N   0  0  0  0  0  0  0  0  0  0  0  0
  151.4776  138.8859  155.6076 C   0  0  2  0  0  0  0  0  0  0  0  0
  152.6342  139.2390  154.6452 C   0  0  0  0  0  0  0  0  0  0  0  0
  150.1791  138.7175  154.7756 C   0  0  0  0  0  0  0  0  0  0  0  0
  150.0168  137.3578  154.2644 N   0  0  0  0  0  0  0  0  0  0  0  0
  150.3832  136.2344  154.8975 C   0  0  0  0  0  0  0  0  0  0  0  0
  150.8949  136.2199  156.0168 O   0  0  0  0  0  0  0  0  0  0  0  0
  150.1227  135.1504  154.1490 N   0  0  0  0  0  0  0  0  0  0  0  0
  150.3657  133.7911  154.4688 C   0  0  0  0  0  0  0  0  0  0  0  0
  151.0524  133.5210  155.5854 N   0  0  0  0  0  0  0  0  0  0  0  0
  151.2189  132.1547  155.7765 N   0  0  0  0  0  0  0  0  0  0  0  0
  150.6507  131.4471  154.7953 C   0  0  0  0  0  0  0  0  0  0  0  0
  149.8552  132.3786  153.5392 S   0  0  0  0  0  0  0  0  0  0  0  0
  152.4853  139.7563  157.6674 C   0  0  0  0  0  0  0  0  0  0  0  0
  152.3336  140.7276  158.8526 C   0  0  0  0  0  0  0  0  0  0  0  0
  152.9468  143.6594  161.3989 H   0  0  0  0  0  0  0  0  0  0  0  0
  154.0850  142.8862  160.3021 H   0  0  0  0  0  0  0  0  0  0  0  0
  152.9024  141.9184  161.1858 H   0  0  0  0  0  0  0  0  0  0  0  0
  151.0413  143.0057  159.8997 H   0  0  0  0  0  0  0  0  0  0  0  0
  152.1896  144.0675  159.1333 H   0  0  0  0  0  0  0  0  0  0  0  0
  150.1498  141.9725  158.0277 H   0  0  0  0  0  0  0  0  0  0  0  0
  150.9774  143.2101  157.1103 H   0  0  0  0  0  0  0  0  0  0  0  0
  150.3456  141.3495  155.6716 H   0  0  0  0  0  0  0  0  0  0  0  0
  152.0888  141.5071  155.7020 H   0  0  0  0  0  0  0  0  0  0  0  0
  151.7088  137.9005  156.0153 H   0  0  0  0  0  0  0  0  0  0  0  0
  152.6217  138.6016  153.7606 H   0  0  0  0  0  0  0  0  0  0  0  0
  153.6099  139.0948  155.1082 H   0  0  0  0  0  0  0  0  0  0  0  0
  152.5721  140.2734  154.3061 H   0  0  0  0  0  0  0  0  0  0  0  0
  149.3120  139.0152  155.3676 H   0  0  0  0  0  0  0  0  0  0  0  0
  150.1724  139.4009  153.9272 H   0  0  0  0  0  0  0  0  0  0  0  0
  149.6129  137.2710  153.3432 H   0  0  0  0  0  0  0  0  0  0  0  0
  149.7037  135.3150  153.2455 H   0  0  0  0  0  0  0  0  0  0  0  0
  150.7006  130.3685  154.8116 H   0  0  0  0  0  0  0  0  0  0  0  0
  152.5801  138.7536  158.0806 H   0  0  0  0  0  0  0  0  0  0  0  0
  153.4144  139.9665  157.1352 H   0  0  0  0  0  0  0  0  0  0  0  0
  153.2008  140.6171  159.5025 H   0  0  0  0  0  0  0  0  0  0  0  0
  151.4608  140.4491  159.4455 H   0  0  0  0  0  0  0  0  0  0  0  0
  1  2  1  0  0  0  0
  1 21  1  0  0  0  0
  1 22  1  0  0  0  0
  1 23  1  0  0  0  0
  2  3  1  0  0  0  0
  2 24  1  0  0  0  0
  2 25  1  0  0  0  0
  3 20  1  0  0  0  0
  3  4  1  0  0  0  0
  4  5  1  0  0  0  0
  4 26  1  0  0  0  0
  4 27  1  0  0  0  0
  5  6  1  0  0  0  0
  5 28  1  0  0  0  0
  5 29  1  0  0  0  0
  6  7  1  0  0  0  0
  6 19  1  0  0  0  0
  7  8  1  0  0  0  0
  7  9  1  0  0  0  0
  7 30  1  0  0  0  0
  8 31  1  0  0  0  0
  8 32  1  0  0  0  0
  8 33  1  0  0  0  0
  9 10  1  0  0  0  0
  9 34  1  0  0  0  0
  9 35  1  0  0  0  0
 10 11  1  0  0  0  0
 10 36  1  0  0  0  0
 11 12  2  0  0  0  0
 11 13  1  0  0  0  0
 13 14  1  0  0  0  0
 13 37  1  0  0  0  0
 14 18  1  0  0  0  0
 14 15  2  0  0  0  0
 15 16  1  0  0  0  0
 16 17  2  0  0  0  0
 17 18  1  0  0  0  0
 17 38  1  0  0  0  0
 19 20  1  0  0  0  0
 19 39  1  0  0  0  0
 19 40  1  0  0  0  0
 20 41  1  0  0  0  0
 20 42  1  0  0  0  0
M  END
> <s_m_source_file>
AV-unprocessed.smi

> <i_m_source_file_index>
1817

> <i_lp_mmshare_version>
43012

> <i_f3d_flags>
0

> <s_epik_input>
W0NIM11bQ0gyXU4xW0NIMl1bQ0gyXU4oW0NIMl1bQ0gyXTEpW0NASF0oW0NIM10pW0NIMl1bTkhdQyg9TylbTkhdYzJubltjSF1zMg==

> <s_epik_cmdline>
J2VwaWtfcHl0aG9uJywgJy1waCcsICc3LjAnLCAnLXRuJywgJzgnLCAnLW1hJywgJzIwMCcsICctbWV0YWxfYmluZGluZycsICctaW1hZScsICc8aW5maWxlLm1hZT4nLCAnLW9tYWUnLCAnPG91dGZpbGUubWFlPic=

> <r_lp_tautomer_probability>
1

> <r_epik_Ionization_Penalty>
2.44129

> <r_epik_Ionization_Penalty_Charging>
0

> <r_epik_Ionization_Penalty_Neutral>
2.44129

> <r_epik_State_Penalty>
1.7682

> <r_epik_Charging_Adjusted_Penalty>
1.7682

> <i_epik_Tot_Q>
0

> <i_epik_Tot_abs_Q>
0

> <r_epik_Metal_State_Penalty>
2.10306

> <b_epik_Metal_Only>
0

> <s_lp_Force_Field>
OPLS_2005

> <r_lp_Energy>
42.0041

> <b_lp_Chiralities_Consistent>
1

> <s_lp_Variant>
AV-unprocessed.smi:1817-5

> <Gold.Version>
5.8.1

> <Gold.Id.Protein>
6NUR|6NUR_protein|mol2

> <Gold.PLP.Fitness>
40.1527

> <Gold.PLP.PLP>
-35.5582

> <Gold.PLP.part.hbond>
-2.0170

> <Gold.PLP.part.metal>
0.0000

> <Gold.PLP.part.buried>
-4.6191

> <Gold.PLP.part.nonpolar>
-29.0182

> <Gold.PLP.part.repulsive>
0.0871

> <Gold.PLP.ligand.clash>
0.0000

> <Gold.PLP.ligand.torsion>
0.7301

> <Gold.PLP.Chemscore.Hbond>
2.0000

> <Gold.PLP.Chemscore.CHOScore>
0.0000

> <Gold.PLP.Chemscore.Metal>
0.0000

> <Gold.Chemscore.Hbonds>
donor molecule, donor type, donor heavy atom, donor atom, acceptor molecule, acceptor atom, score
      L1  H    10    36       P1  7948  1.00
      L1  H    13    37       P1  7948  0.30

> <Gold.PLP.Chemscore.Internal.Correction>
0.0548

> <Gold.Rescore>
     Score         DG    S(hbond)    S(metal)    S(lipo)     H(rot)  DE(clash)    DE(int)     intcor
     12.82     -15.54       1.82        0.00      74.95       1.87       0.02       2.70       ----

> <Gold.Chemscore.Fitness>
12.8211

> <Gold.Chemscore.DG>
-15.5434

> <Gold.Chemscore.ZeroCoef>
-5.4800

> <Gold.Chemscore.Hbond>
1.8232

> <Gold.Chemscore.Metal>
0.0000

> <Gold.Chemscore.Lipo>
74.9538

> <Gold.Chemscore.Internal_Hbond>
0.0000

> <Gold.Chemscore.DEClash>
0.0219

> <Gold.Chemscore.DEInternal>
2.7003

> <Gold.Chemscore.Rot>
1.8733

> <Gold.Chemscore.Internal.Correction>
   9.000000E+99

> <Gold.Chemscore.Hbonds>
donor molecule, donor type, donor heavy atom, donor atom, acceptor molecule, acceptor atom, score
      L1  H    10    36       P1  7948  0.75

> <Gold.Chemscore.Hbond.Weighted>
-6.0895

> <Gold.Chemscore.Metal.Weighted>
-0.0000

> <Gold.Chemscore.Lipo.Weighted>
-8.7696

> <Gold.Chemscore.Internal_Hbond.Weighted>
0.0000

> <Gold.Chemscore.DEClash.Weighted>
0.0219

> <Gold.Chemscore.DEInternal.Weighted>
2.7003

> <Gold.Chemscore.Rot.Weighted>
4.7957

> <Gold.Chemscore.Internal.Correction.Weighted>
   9.000000E+99

> <Gold.Protein.RotatedTorsions>
[ 6907 6896 6895 6894 ] final -176.83 input  -60.11 | X-H torsion
[ 7974 7965 7964 7962 ] final   76.31 input  175.53 | X-H torsion
[ 8008 7997 7996 7995 ] final  -85.30 input   59.86 | X-H torsion
[ 10167 10162 10161 10158 ] final    4.75 input  -65.29 | X-H torsion
[ 10718 10713 10712 10709 ] final -141.38 input   66.30 | X-H torsion
[ 10763 10752 10751 10750 ] final -122.26 input  -60.55 | X-H torsion
[ 11005 11000 10999 10996 ] final  -20.48 input  -57.11 | X-H torsion

> <Gold.Protein.ActiveResidues>
 VAL166  LYS551  ARG553  GLY616  TRP617  ASP618  TYR619  PRO620  LYS621  CYS622 
 ASP623  PHE694  ASN695  SER759  ASP760  ASP761  ALA762  ILE779  LEU786  VAL792 
 PHE793  MET794  SER795  GLU796  ALA797  LYS798  CYS799  TRP800  GLU811  SER814 

> <Gold.Protein.RotatedAtoms>
  151.6112  133.3347  159.3067 H   0  0  0  0  0  0  0  0  0  0  0  0  # atno 6907 bound_to 6896
  150.8155  134.7338  159.6738 H   0  0  0  0  0  0  0  0  0  0  0  0  # atno 6908 bound_to 6896
  152.4251  134.5888  160.0020 H   0  0  0  0  0  0  0  0  0  0  0  0  # atno 6909 bound_to 6896
  145.7044  139.2593  143.1686 H   0  0  0  0  0  0  0  0  0  0  0  0  # atno 7974 bound_to 7965
  154.6392  140.0593  156.9825 H   0  0  0  0  0  0  0  0  0  0  0  0  # atno 8008 bound_to 7997
  155.1544  140.3277  155.4406 H   0  0  0  0  0  0  0  0  0  0  0  0  # atno 8009 bound_to 7997
  156.2522  140.1942  156.6654 H   0  0  0  0  0  0  0  0  0  0  0  0  # atno 8010 bound_to 7997
  140.6518  143.7526  150.7588 H   0  0  0  0  0  0  0  0  0  0  0  0  # atno 10167 bound_to 10162
  156.3333  130.7598  151.1720 H   0  0  0  0  0  0  0  0  0  0  0  0  # atno 10718 bound_to 10713
  154.8686  135.4139  154.2753 H   0  0  0  0  0  0  0  0  0  0  0  0  # atno 10763 bound_to 10752
  153.3656  135.7005  153.6683 H   0  0  0  0  0  0  0  0  0  0  0  0  # atno 10764 bound_to 10752
  153.5566  135.3618  155.2754 H   0  0  0  0  0  0  0  0  0  0  0  0  # atno 10765 bound_to 10752
  140.8468  133.7886  155.9921 H   0  0  0  0  0  0  0  0  0  0  0  0  # atno 11005 bound_to 11000
  146.0768  140.7808  142.9661 LP  0  0  0  0  0  0  0  0  0  0  0  0  # atno 17320 bound_to 7965
  144.6959  140.3428  143.7196 LP  0  0  0  0  0  0  0  0  0  0  0  0  # atno 17321 bound_to 7965
  140.1178  143.4640  152.2331 LP  0  0  0  0  0  0  0  0  0  0  0  0  # atno 17342 bound_to 10162
  139.5734  144.7475  151.3829 LP  0  0  0  0  0  0  0  0  0  0  0  0  # atno 17343 bound_to 10162
  157.7434  131.0475  150.4947 LP  0  0  0  0  0  0  0  0  0  0  0  0  # atno 17370 bound_to 10713
  156.5116  130.4141  149.6298 LP  0  0  0  0  0  0  0  0  0  0  0  0  # atno 17371 bound_to 10713
  140.8834  134.2583  157.5132 LP  0  0  0  0  0  0  0  0  0  0  0  0  # atno 17394 bound_to 11000
  139.8703  134.9626  156.4435 LP  0  0  0  0  0  0  0  0  0  0  0  0  # atno 17395 bound_to 11000

$$$$
