AV-unprocessed.smi:3128|AV-procd|sdf|11920|dock7
  -GOLD-   2272017303D 1   1.00000     0.00000
 Structure written by MMmdl.
 39 39  0  0  0  0  0  0  0  0  1 V2000
  152.7157  144.7169  157.9956 C   0  0  0  0  0  0  0  0  0  0  0  0
  151.7465  144.2221  159.0844 C   0  0  0  0  0  0  0  0  0  0  0  0
  151.7638  145.2073  160.2695 C   0  0  0  0  0  0  0  0  0  0  0  0
  152.0465  142.7650  159.5254 C   0  0  2  0  0  0  0  0  0  0  0  0
  153.4437  142.5943  160.1545 C   0  0  0  0  0  0  0  0  0  0  0  0
  151.9334  141.8598  158.3831 N   0  0  0  0  0  0  0  0  0  0  0  0
  152.1536  140.5362  158.4114 C   0  0  0  0  0  0  0  0  0  0  0  0
  152.4520  139.9189  159.4333 O   0  0  0  0  0  0  0  0  0  0  0  0
  152.0466  139.7938  157.0762 C   0  0  0  0  0  0  0  0  0  0  0  0
  151.4736  140.6242  156.0083 N   0  0  0  0  0  0  0  0  0  0  0  0
  151.1763  139.8791  154.7885 C   0  0  0  0  0  0  0  0  0  0  0  0
  149.7912  139.2232  154.8991 C   0  0  0  0  0  0  0  0  0  0  0  0
  148.7390  140.1181  154.4502 N   0  0  0  0  0  0  0  0  0  0  0  0
  148.5787  141.4601  154.7237 C   0  0  0  0  0  0  0  0  0  0  0  0
  147.4309  141.8662  154.1056 C   0  0  0  0  0  0  0  0  0  0  0  0
  146.9531  140.6857  153.4706 C   0  0  0  0  0  0  0  0  0  0  0  0
  147.7385  139.6412  153.6776 N   0  0  0  0  0  0  0  0  0  0  0  0
  153.7516  144.6580  158.3311 H   0  0  0  0  0  0  0  0  0  0  0  0
  152.5119  145.7553  157.7321 H   0  0  0  0  0  0  0  0  0  0  0  0
  152.6266  144.1371  157.0775 H   0  0  0  0  0  0  0  0  0  0  0  0
  150.7416  144.2462  158.6606 H   0  0  0  0  0  0  0  0  0  0  0  0
  152.7313  145.2018  160.7726 H   0  0  0  0  0  0  0  0  0  0  0  0
  151.0012  144.9688  161.0108 H   0  0  0  0  0  0  0  0  0  0  0  0
  151.5713  146.2270  159.9348 H   0  0  0  0  0  0  0  0  0  0  0  0
  151.2995  142.4803  160.2688 H   0  0  0  0  0  0  0  0  0  0  0  0
  153.5416  143.1563  161.0824 H   0  0  0  0  0  0  0  0  0  0  0  0
  154.2289  142.9266  159.4747 H   0  0  0  0  0  0  0  0  0  0  0  0
  153.6422  141.5502  160.3995 H   0  0  0  0  0  0  0  0  0  0  0  0
  151.6978  142.2787  157.4953 H   0  0  0  0  0  0  0  0  0  0  0  0
  153.0525  139.4960  156.7790 H   0  0  0  0  0  0  0  0  0  0  0  0
  151.4709  138.8730  157.1847 H   0  0  0  0  0  0  0  0  0  0  0  0
  152.0631  141.4127  155.7840 H   0  0  0  0  0  0  0  0  0  0  0  0
  151.2032  140.5707  153.9461 H   0  0  0  0  0  0  0  0  0  0  0  0
  151.9163  139.1064  154.5816 H   0  0  0  0  0  0  0  0  0  0  0  0
  149.7461  138.2996  154.3204 H   0  0  0  0  0  0  0  0  0  0  0  0
  149.5908  138.9521  155.9365 H   0  0  0  0  0  0  0  0  0  0  0  0
  149.2830  142.0054  155.3345 H   0  0  0  0  0  0  0  0  0  0  0  0
  146.9966  142.8548  154.1100 H   0  0  0  0  0  0  0  0  0  0  0  0
  146.0643  140.5574  152.8707 H   0  0  0  0  0  0  0  0  0  0  0  0
  1  2  1  0  0  0  0
  1 18  1  0  0  0  0
  1 19  1  0  0  0  0
  1 20  1  0  0  0  0
  2  3  1  0  0  0  0
  2  4  1  0  0  0  0
  2 21  1  0  0  0  0
  3 22  1  0  0  0  0
  3 23  1  0  0  0  0
  3 24  1  0  0  0  0
  4  5  1  0  0  0  0
  4  6  1  0  0  0  0
  4 25  1  0  0  0  0
  5 26  1  0  0  0  0
  5 27  1  0  0  0  0
  5 28  1  0  0  0  0
  6  7  1  0  0  0  0
  6 29  1  0  0  0  0
  7  8  2  0  0  0  0
  7  9  1  0  0  0  0
  9 10  1  0  0  0  0
  9 30  1  0  0  0  0
  9 31  1  0  0  0  0
 10 11  1  0  0  0  0
 10 32  1  0  0  0  0
 11 12  1  0  0  0  0
 11 33  1  0  0  0  0
 11 34  1  0  0  0  0
 12 13  1  0  0  0  0
 12 35  1  0  0  0  0
 12 36  1  0  0  0  0
 13 17  1  0  0  0  0
 13 14  1  0  0  0  0
 14 15  2  0  0  0  0
 14 37  1  0  0  0  0
 15 16  1  0  0  0  0
 15 38  1  0  0  0  0
 16 17  2  0  0  0  0
 16 39  1  0  0  0  0
M  END
> <s_m_source_file>
AV-unprocessed.smi

> <i_m_source_file_index>
3128

> <i_lp_mmshare_version>
43012

> <i_f3d_flags>
0

> <s_epik_input>
W0NIM11bQ0hdKFtDSDNdKVtDQEhdKFtDSDNdKVtOSF1DKD1PKVtDSDJdW05IXVtDSDJdW0NIMl1uMVtjSF1bY0hdW2NIXW4x

> <s_epik_cmdline>
J2VwaWtfcHl0aG9uJywgJy1waCcsICc3LjAnLCAnLXRuJywgJzgnLCAnLW1hJywgJzIwMCcsICctbWV0YWxfYmluZGluZycsICctaW1hZScsICc8aW5maWxlLm1hZT4nLCAnLW9tYWUnLCAnPG91dGZpbGUubWFlPic=

> <r_lp_tautomer_probability>
1

> <r_epik_Ionization_Penalty>
0.724947

> <r_epik_Ionization_Penalty_Charging>
0

> <r_epik_Ionization_Penalty_Neutral>
0.724947

> <r_epik_State_Penalty>
0.747959

> <r_epik_Charging_Adjusted_Penalty>
0.747959

> <i_epik_Tot_Q>
0

> <i_epik_Tot_abs_Q>
0

> <r_epik_Metal_State_Penalty>
0.746178

> <b_epik_Metal_Only>
0

> <s_lp_Force_Field>
OPLS_2005

> <r_lp_Energy>
7.88811

> <b_lp_Chiralities_Consistent>
1

> <s_lp_Variant>
AV-unprocessed.smi:3128-3

> <Gold.Version>
5.8.1

> <Gold.Id.Protein>
6NUR|6NUR_protein|mol2

> <Gold.PLP.Fitness>
42.6332

> <Gold.PLP.PLP>
-39.6314

> <Gold.PLP.part.hbond>
-0.1095

> <Gold.PLP.part.metal>
0.0000

> <Gold.PLP.part.buried>
-2.4928

> <Gold.PLP.part.nonpolar>
-37.8974

> <Gold.PLP.part.repulsive>
1.0320

> <Gold.PLP.ligand.clash>
0.0000

> <Gold.PLP.ligand.torsion>
0.6609

> <Gold.PLP.Chemscore.Hbond>
0.0000

> <Gold.PLP.Chemscore.CHOScore>
1.4072

> <Gold.PLP.Chemscore.Metal>
0.0000

> <Gold.Chemscore.Hbonds>
donor molecule, donor type, donor heavy atom, donor atom, acceptor molecule, acceptor atom, score
      L1  C    14    37       P1  8028  0.32
      L1  C    16    39       P1 10175  1.00

> <Gold.PLP.Chemscore.Internal.Correction>
0.1019

> <Gold.Rescore>
     Score         DG    S(hbond)    S(metal)    S(lipo)     H(rot)  DE(clash)    DE(int)     intcor
      9.50     -12.23       0.00        0.00     104.75       2.15       0.75       1.98       ----

> <Gold.Chemscore.Fitness>
9.5018

> <Gold.Chemscore.DG>
-12.2345

> <Gold.Chemscore.ZeroCoef>
-5.4800

> <Gold.Chemscore.Hbond>
0.0000

> <Gold.Chemscore.Metal>
0.0000

> <Gold.Chemscore.Lipo>
104.7478

> <Gold.Chemscore.Internal_Hbond>
0.0000

> <Gold.Chemscore.DEClash>
0.7547

> <Gold.Chemscore.DEInternal>
1.9780

> <Gold.Chemscore.Rot>
2.1488

> <Gold.Chemscore.Internal.Correction>
   9.000000E+99

> <Gold.Chemscore.Hbond.Weighted>
-0.0000

> <Gold.Chemscore.Metal.Weighted>
-0.0000

> <Gold.Chemscore.Lipo.Weighted>
-12.2555

> <Gold.Chemscore.Internal_Hbond.Weighted>
0.0000

> <Gold.Chemscore.DEClash.Weighted>
0.7547

> <Gold.Chemscore.DEInternal.Weighted>
1.9780

> <Gold.Chemscore.Rot.Weighted>
5.5010

> <Gold.Chemscore.Internal.Correction.Weighted>
   9.000000E+99

> <Gold.Protein.RotatedTorsions>
[ 6907 6896 6895 6894 ] final   75.85 input  -60.11 | X-H torsion
[ 7974 7965 7964 7962 ] final  142.25 input  175.53 | X-H torsion
[ 8008 7997 7996 7995 ] final   54.50 input   59.86 | X-H torsion
[ 10167 10162 10161 10158 ] final  -78.27 input  -65.29 | X-H torsion
[ 10718 10713 10712 10709 ] final   43.18 input   66.30 | X-H torsion
[ 10763 10752 10751 10750 ] final -166.08 input  -60.55 | X-H torsion
[ 11005 11000 10999 10996 ] final  -51.71 input  -57.11 | X-H torsion

> <Gold.Protein.ActiveResidues>
 VAL166  LYS551  ARG553  GLY616  TRP617  ASP618  TYR619  PRO620  LYS621  CYS622 
 ASP623  PHE694  ASN695  SER759  ASP760  ASP761  ALA762  ILE779  LEU786  VAL792 
 PHE793  MET794  SER795  GLU796  ALA797  LYS798  CYS799  TRP800  GLU811  SER814 

> <Gold.Protein.RotatedAtoms>
  152.5045  134.4058  159.9431 H   0  0  0  0  0  0  0  0  0  0  0  0  # atno 6907 bound_to 6896
  151.4024  133.3747  159.2741 H   0  0  0  0  0  0  0  0  0  0  0  0  # atno 6908 bound_to 6896
  150.9352  134.8786  159.7636 H   0  0  0  0  0  0  0  0  0  0  0  0  # atno 6909 bound_to 6896
  144.9025  139.5404  143.5747 H   0  0  0  0  0  0  0  0  0  0  0  0  # atno 7974 bound_to 7965
  155.4857  140.3470  155.4347 H   0  0  0  0  0  0  0  0  0  0  0  0  # atno 8008 bound_to 7997
  156.1010  140.1435  156.9496 H   0  0  0  0  0  0  0  0  0  0  0  0  # atno 8009 bound_to 7997
  154.4693  140.0906  156.7082 H   0  0  0  0  0  0  0  0  0  0  0  0  # atno 8010 bound_to 7997
  140.4697  143.2430  151.8224 H   0  0  0  0  0  0  0  0  0  0  0  0  # atno 10167 bound_to 10162
  157.4131  130.7926  149.7448 H   0  0  0  0  0  0  0  0  0  0  0  0  # atno 10718 bound_to 10713
  154.6869  135.2964  154.9535 H   0  0  0  0  0  0  0  0  0  0  0  0  # atno 10763 bound_to 10752
  154.0511  135.6644  153.4804 H   0  0  0  0  0  0  0  0  0  0  0  0  # atno 10764 bound_to 10752
  153.0585  135.5130  154.7941 H   0  0  0  0  0  0  0  0  0  0  0  0  # atno 10765 bound_to 10752
  141.0886  133.6637  156.3917 H   0  0  0  0  0  0  0  0  0  0  0  0  # atno 11005 bound_to 11000
  146.3116  139.7766  142.9015 LP  0  0  0  0  0  0  0  0  0  0  0  0  # atno 17320 bound_to 7965
  145.3593  141.0322  143.3294 LP  0  0  0  0  0  0  0  0  0  0  0  0  # atno 17321 bound_to 7965
  139.4817  144.4907  151.9188 LP  0  0  0  0  0  0  0  0  0  0  0  0  # atno 17342 bound_to 10162
  140.3993  144.2514  150.5894 LP  0  0  0  0  0  0  0  0  0  0  0  0  # atno 17343 bound_to 10162
  155.9857  130.3981  150.3250 LP  0  0  0  0  0  0  0  0  0  0  0  0  # atno 17370 bound_to 10713
  157.1390  131.0291  151.2936 LP  0  0  0  0  0  0  0  0  0  0  0  0  # atno 17371 bound_to 10713
  140.5306  134.6216  157.5348 LP  0  0  0  0  0  0  0  0  0  0  0  0  # atno 17394 bound_to 11000
  139.9707  134.7297  156.0046 LP  0  0  0  0  0  0  0  0  0  0  0  0  # atno 17395 bound_to 11000

$$$$
