AV-unprocessed.smi:1883|AV-procd|sdf|7642|dock9
  -GOLD-   22720 9373D 1   1.00000     0.00000
 Structure written by MMmdl.
 35 37  0  0  0  0  0  0  0  0  1 V2000
  151.9541  138.6419  155.7510 C   0  0  0  0  0  0  0  0  0  0  0  0
  150.7238  139.2082  155.1161 C   0  0  0  0  0  0  0  0  0  0  0  0
  149.9143  138.4715  154.3544 N   0  0  0  0  0  0  0  0  0  0  0  0
  148.9362  139.3763  153.9886 C   0  0  0  0  0  0  0  0  0  0  0  0
  147.7888  139.2124  153.1798 C   0  0  0  0  0  0  0  0  0  0  0  0
  146.9225  140.2995  152.9412 C   0  0  0  0  0  0  0  0  0  0  0  0
  147.1895  141.5633  153.5072 C   0  0  0  0  0  0  0  0  0  0  0  0
  148.3261  141.7476  154.3179 C   0  0  0  0  0  0  0  0  0  0  0  0
  149.1877  140.6593  154.5520 C   0  0  0  0  0  0  0  0  0  0  0  0
  150.3626  140.5048  155.2807 N   0  0  0  0  0  0  0  0  0  0  0  0
  151.0355  141.5417  156.0512 C   0  0  0  0  0  0  0  0  0  0  0  0
  150.2702  141.9170  157.3356 C   0  0  2  0  0  0  0  0  0  0  0  0
  149.1715  142.7502  157.0163 O   0  0  0  0  0  0  0  0  0  0  0  0
  151.1997  142.5471  158.3639 C   0  0  0  0  0  0  0  0  0  0  0  0
  151.1448  143.9357  158.6215 C   0  0  0  0  0  0  0  0  0  0  0  0
  152.0108  144.5201  159.5657 C   0  0  0  0  0  0  0  0  0  0  0  0
  151.9502  145.8511  159.8068 F   0  0  0  0  0  0  0  0  0  0  0  0
  152.9406  143.7212  160.2573 C   0  0  0  0  0  0  0  0  0  0  0  0
  153.0071  142.3387  160.0003 C   0  0  0  0  0  0  0  0  0  0  0  0
  152.1425  141.7521  159.0551 C   0  0  0  0  0  0  0  0  0  0  0  0
  152.2278  140.4218  158.8126 F   0  0  0  0  0  0  0  0  0  0  0  0
  152.1111  137.6121  155.4290 H   0  0  0  0  0  0  0  0  0  0  0  0
  151.8556  138.6519  156.8365 H   0  0  0  0  0  0  0  0  0  0  0  0
  152.8310  139.2247  155.4696 H   0  0  0  0  0  0  0  0  0  0  0  0
  147.5756  138.2486  152.7420 H   0  0  0  0  0  0  0  0  0  0  0  0
  146.0490  140.1632  152.3208 H   0  0  0  0  0  0  0  0  0  0  0  0
  146.5210  142.3906  153.3190 H   0  0  0  0  0  0  0  0  0  0  0  0
  148.5342  142.7138  154.7533 H   0  0  0  0  0  0  0  0  0  0  0  0
  152.0291  141.1723  156.3079 H   0  0  0  0  0  0  0  0  0  0  0  0
  151.1928  142.4213  155.4264 H   0  0  0  0  0  0  0  0  0  0  0  0
  149.8434  141.0111  157.7670 H   0  0  0  0  0  0  0  0  0  0  0  0
  149.4709  143.4316  156.4341 H   0  0  0  0  0  0  0  0  0  0  0  0
  150.4397  144.5603  158.0925 H   0  0  0  0  0  0  0  0  0  0  0  0
  153.6047  144.1692  160.9818 H   0  0  0  0  0  0  0  0  0  0  0  0
  153.7245  141.7270  160.5275 H   0  0  0  0  0  0  0  0  0  0  0  0
  1  2  1  0  0  0  0
  1 22  1  0  0  0  0
  1 23  1  0  0  0  0
  1 24  1  0  0  0  0
  2 10  1  0  0  0  0
  2  3  2  0  0  0  0
  3  4  1  0  0  0  0
  4  9  2  0  0  0  0
  4  5  1  0  0  0  0
  5  6  2  0  0  0  0
  5 25  1  0  0  0  0
  6  7  1  0  0  0  0
  6 26  1  0  0  0  0
  7  8  2  0  0  0  0
  7 27  1  0  0  0  0
  8  9  1  0  0  0  0
  8 28  1  0  0  0  0
  9 10  1  0  0  0  0
 10 11  1  0  0  0  0
 11 12  1  0  0  0  0
 11 29  1  0  0  0  0
 11 30  1  0  0  0  0
 12 13  1  0  0  0  0
 12 14  1  0  0  0  0
 12 31  1  0  0  0  0
 13 32  1  0  0  0  0
 14 20  1  0  0  0  0
 14 15  2  0  0  0  0
 15 16  1  0  0  0  0
 15 33  1  0  0  0  0
 16 17  1  0  0  0  0
 16 18  2  0  0  0  0
 18 19  1  0  0  0  0
 18 34  1  0  0  0  0
 19 20  2  0  0  0  0
 19 35  1  0  0  0  0
 20 21  1  0  0  0  0
M  END
> <s_m_source_file>
AV-unprocessed.smi

> <i_m_source_file_index>
1883

> <i_lp_mmshare_version>
43012

> <i_f3d_flags>
0

> <s_epik_input>
W2NIXTFbY0hdW2NIXVtjSF1jKGMxMiluKGMobjIpW0NIM10pW0NIMl1bQ0BIXShbT0hdKWMzW2NIXWMoRilbY0hdW2NIXWMzRg==

> <s_epik_cmdline>
J2VwaWtfcHl0aG9uJywgJy1waCcsICc3LjAnLCAnLXRuJywgJzgnLCAnLW1hJywgJzIwMCcsICctbWV0YWxfYmluZGluZycsICctaW1hZScsICc8aW5maWxlLm1hZT4nLCAnLW9tYWUnLCAnPG91dGZpbGUubWFlPic=

> <r_epik_Ionization_Penalty>
0.129664

> <r_epik_Ionization_Penalty_Charging>
0

> <r_epik_Ionization_Penalty_Neutral>
0.129664

> <r_epik_State_Penalty>
0.119073

> <r_epik_Charging_Adjusted_Penalty>
0.119073

> <i_epik_Tot_Q>
0

> <i_epik_Tot_abs_Q>
0

> <r_epik_Metal_State_Penalty>
0.000131867

> <b_epik_Metal_Only>
0

> <s_lp_Force_Field>
OPLS_2005

> <r_lp_Energy>
11.5832

> <b_lp_Chiralities_Consistent>
1

> <s_lp_Variant>
AV-unprocessed.smi:1883-1

> <Gold.Version>
5.8.1

> <Gold.Id.Protein>
6NUR|6NUR_protein|mol2

> <Gold.PLP.Fitness>
51.6164

> <Gold.PLP.PLP>
-49.9611

> <Gold.PLP.part.hbond>
-1.0000

> <Gold.PLP.part.metal>
0.0000

> <Gold.PLP.part.buried>
-2.4030

> <Gold.PLP.part.nonpolar>
-46.8040

> <Gold.PLP.part.repulsive>
0.2221

> <Gold.PLP.ligand.clash>
0.0000

> <Gold.PLP.ligand.torsion>
0.6843

> <Gold.PLP.Chemscore.Hbond>
1.0000

> <Gold.PLP.Chemscore.CHOScore>
0.0000

> <Gold.PLP.Chemscore.Metal>
0.0000

> <Gold.Chemscore.Hbonds>
donor molecule, donor type, donor heavy atom, donor atom, acceptor molecule, acceptor atom, score
      L1  H    13    32       P1  8028  0.78

> <Gold.PLP.Chemscore.Internal.Correction>
0.0238

> <Gold.Rescore>
     Score         DG    S(hbond)    S(metal)    S(lipo)     H(rot)  DE(clash)    DE(int)     intcor
     17.74     -18.86       0.96        0.00     128.17       1.88       0.40       0.73       ----

> <Gold.Chemscore.Fitness>
17.7390

> <Gold.Chemscore.DG>
-18.8629

> <Gold.Chemscore.ZeroCoef>
-5.4800

> <Gold.Chemscore.Hbond>
0.9610

> <Gold.Chemscore.Metal>
0.0000

> <Gold.Chemscore.Lipo>
128.1695

> <Gold.Chemscore.Internal_Hbond>
0.0000

> <Gold.Chemscore.DEClash>
0.3982

> <Gold.Chemscore.DEInternal>
0.7256

> <Gold.Chemscore.Rot>
1.8839

> <Gold.Chemscore.Internal.Correction>
   9.000000E+99

> <Gold.Chemscore.Hbonds>
donor molecule, donor type, donor heavy atom, donor atom, acceptor molecule, acceptor atom, score
      L1  H    13    32       P1  8028  0.77

> <Gold.Chemscore.Hbond.Weighted>
-3.2098

> <Gold.Chemscore.Metal.Weighted>
-0.0000

> <Gold.Chemscore.Lipo.Weighted>
-14.9958

> <Gold.Chemscore.Internal_Hbond.Weighted>
0.0000

> <Gold.Chemscore.DEClash.Weighted>
0.3982

> <Gold.Chemscore.DEInternal.Weighted>
0.7256

> <Gold.Chemscore.Rot.Weighted>
4.8227

> <Gold.Chemscore.Internal.Correction.Weighted>
   9.000000E+99

> <Gold.Protein.RotatedTorsions>
[ 6907 6896 6895 6894 ] final   33.61 input  -60.11 | X-H torsion
[ 7974 7965 7964 7962 ] final   65.32 input  175.53 | X-H torsion
[ 8008 7997 7996 7995 ] final  -75.19 input   59.86 | X-H torsion
[ 10167 10162 10161 10158 ] final  165.61 input  -65.29 | X-H torsion
[ 10718 10713 10712 10709 ] final  102.71 input   66.30 | X-H torsion
[ 10763 10752 10751 10750 ] final   63.53 input  -60.55 | X-H torsion
[ 11005 11000 10999 10996 ] final   95.43 input  -57.11 | X-H torsion

> <Gold.Protein.ActiveResidues>
 VAL166  LYS551  ARG553  GLY616  TRP617  ASP618  TYR619  PRO620  LYS621  CYS622 
 ASP623  PHE694  ASN695  SER759  ASP760  ASP761  ALA762  ILE779  LEU786  VAL792 
 PHE793  MET794  SER795  GLU796  ALA797  LYS798  CYS799  TRP800  GLU811  SER814 

> <Gold.Protein.RotatedAtoms>
  152.0909  134.9408  160.0571 H   0  0  0  0  0  0  0  0  0  0  0  0  # atno 6907 bound_to 6896
  152.0660  133.4079  159.4446 H   0  0  0  0  0  0  0  0  0  0  0  0  # atno 6908 bound_to 6896
  150.6837  134.3066  159.4772 H   0  0  0  0  0  0  0  0  0  0  0  0  # atno 6909 bound_to 6896
  145.8399  139.3189  143.0937 H   0  0  0  0  0  0  0  0  0  0  0  0  # atno 7974 bound_to 7965
  154.5395  140.0748  156.8485 H   0  0  0  0  0  0  0  0  0  0  0  0  # atno 8008 bound_to 7997
  155.3210  140.3396  155.4223 H   0  0  0  0  0  0  0  0  0  0  0  0  # atno 8009 bound_to 7997
  156.1860  140.1669  156.8170 H   0  0  0  0  0  0  0  0  0  0  0  0  # atno 8010 bound_to 7997
  139.4909  144.4113  151.9295 H   0  0  0  0  0  0  0  0  0  0  0  0  # atno 10167 bound_to 10162
  157.6794  131.0760  150.5444 H   0  0  0  0  0  0  0  0  0  0  0  0  # atno 10718 bound_to 10713
  153.0021  135.5425  154.6367 H   0  0  0  0  0  0  0  0  0  0  0  0  # atno 10763 bound_to 10752
  154.5632  135.2835  155.0901 H   0  0  0  0  0  0  0  0  0  0  0  0  # atno 10764 bound_to 10752
  154.2096  135.6470  153.5164 H   0  0  0  0  0  0  0  0  0  0  0  0  # atno 10765 bound_to 10752
  139.8789  134.8898  156.4010 H   0  0  0  0  0  0  0  0  0  0  0  0  # atno 11005 bound_to 11000
  145.9477  140.8932  143.0275 LP  0  0  0  0  0  0  0  0  0  0  0  0  # atno 17320 bound_to 7965
  144.6734  140.1636  143.7420 LP  0  0  0  0  0  0  0  0  0  0  0  0  # atno 17321 bound_to 7965
  140.3555  144.3037  150.5942 LP  0  0  0  0  0  0  0  0  0  0  0  0  # atno 17342 bound_to 10162
  140.5448  143.2217  151.8025 LP  0  0  0  0  0  0  0  0  0  0  0  0  # atno 17343 bound_to 10162
  156.5751  130.4290  149.6002 LP  0  0  0  0  0  0  0  0  0  0  0  0  # atno 17370 bound_to 10713
  156.2708  130.7016  151.1813 LP  0  0  0  0  0  0  0  0  0  0  0  0  # atno 17371 bound_to 10713
  140.9267  133.7607  155.9973 LP  0  0  0  0  0  0  0  0  0  0  0  0  # atno 17394 bound_to 11000
  140.8377  134.3103  157.5325 LP  0  0  0  0  0  0  0  0  0  0  0  0  # atno 17395 bound_to 11000

$$$$
