AV-unprocessed.smi:53|AV-procd|sdf|525|dock1
  -GOLD-   2262016403D 1   1.00000     0.00000
 Structure written by MMmdl.
 30 31  0  0  0  0  0  0  0  0  1 V2000
  152.8813  141.2532  159.1848 N   0  0  0  0  0  0  0  0  0  0  0  0
  152.1872  141.1184  158.0459 C   0  0  0  0  0  0  0  0  0  0  0  0
  151.1110  142.0318  157.7336 C   0  0  0  0  0  0  0  0  0  0  0  0
  150.4612  141.8327  156.5656 C   0  0  0  0  0  0  0  0  0  0  0  0
  150.8095  140.8119  155.6917 N   0  0  0  0  0  0  0  0  0  0  0  0
  150.0590  140.5922  154.3987 C   0  0  2  0  0  0  0  0  0  0  0  0
  149.1587  141.6427  154.2121 O   0  0  0  0  0  0  0  0  0  0  0  0
  147.9286  141.1303  153.7161 C   0  0  2  0  0  0  0  0  0  0  0  0
  146.7699  142.1108  153.9697 C   0  0  0  0  0  0  0  0  0  0  0  0
  146.8138  142.5823  155.2998 O   0  0  0  0  0  0  0  0  0  0  0  0
  147.8112  139.7689  154.4147 C   0  0  2  0  0  0  0  0  0  0  0  0
  147.2936  139.9078  155.7261 O   0  0  0  0  0  0  0  0  0  0  0  0
  149.2540  139.2806  154.4609 C   0  0  1  0  0  0  0  0  0  0  0  0
  149.5255  138.4586  153.3434 O   0  0  0  0  0  0  0  0  0  0  0  0
  151.8513  139.9186  156.0364 C   0  0  0  0  0  0  0  0  0  0  0  0
  152.1615  138.9733  155.3120 O   0  0  0  0  0  0  0  0  0  0  0  0
  152.5006  140.1376  157.2216 N   0  0  0  0  0  0  0  0  0  0  0  0
  150.7977  140.6282  153.5950 H   0  0  0  0  0  0  0  0  0  0  0  0
  148.0395  140.9504  152.6446 H   0  0  0  0  0  0  0  0  0  0  0  0
  147.1565  139.0885  153.8682 H   0  0  0  0  0  0  0  0  0  0  0  0
  149.4753  138.7171  155.3691 H   0  0  0  0  0  0  0  0  0  0  0  0
  153.6300  140.6115  159.4019 H   0  0  0  0  0  0  0  0  0  0  0  0
  152.6516  141.9988  159.8261 H   0  0  0  0  0  0  0  0  0  0  0  0
  150.8136  142.8444  158.3810 H   0  0  0  0  0  0  0  0  0  0  0  0
  149.6464  142.4998  156.3248 H   0  0  0  0  0  0  0  0  0  0  0  0
  146.8625  142.9783  153.3157 H   0  0  0  0  0  0  0  0  0  0  0  0
  145.8041  141.6480  153.7639 H   0  0  0  0  0  0  0  0  0  0  0  0
  147.6118  143.0743  155.4192 H   0  0  0  0  0  0  0  0  0  0  0  0
  147.9268  139.5633  156.3369 H   0  0  0  0  0  0  0  0  0  0  0  0
  149.4681  138.9892  152.5629 H   0  0  0  0  0  0  0  0  0  0  0  0
  1  2  1  0  0  0  0
  1 22  1  0  0  0  0
  1 23  1  0  0  0  0
  2 17  2  0  0  0  0
  2  3  1  0  0  0  0
  3  4  2  0  0  0  0
  3 24  1  0  0  0  0
  4  5  1  0  0  0  0
  4 25  1  0  0  0  0
  5  6  1  0  0  0  0
  5 15  1  0  0  0  0
  6 18  1  0  0  0  0
  6 13  1  0  0  0  0
  6  7  1  0  0  0  0
  7  8  1  0  0  0  0
  8 19  1  0  0  0  0
  8  9  1  0  0  0  0
  8 11  1  0  0  0  0
  9 10  1  0  0  0  0
  9 26  1  0  0  0  0
  9 27  1  0  0  0  0
 10 28  1  0  0  0  0
 11 20  1  0  0  0  0
 11 12  1  0  0  0  0
 11 13  1  0  0  0  0
 12 29  1  0  0  0  0
 13 21  1  0  0  0  0
 13 14  1  0  0  0  0
 14 30  1  0  0  0  0
 15 16  2  0  0  0  0
 15 17  1  0  0  0  0
M  END
> <s_m_source_file>
AV-unprocessed.smi

> <i_m_source_file_index>
53

> <i_lp_mmshare_version>
43012

> <i_f3d_flags>
0

> <s_epik_input>
W05IMl1jMVtjSF1bY0hdbihjKD1PKW4xKVtDQEBIXTJPW0NASF0oW0NIMl1bT0hdKVtDQEBIXShbT0hdKVtDQEBIXTJbT0hd

> <s_epik_cmdline>
J2VwaWtfcHl0aG9uJywgJy1waCcsICc3LjAnLCAnLXRuJywgJzgnLCAnLW1hJywgJzIwMCcsICctbWV0YWxfYmluZGluZycsICctaW1hZScsICc8aW5maWxlLm1hZT4nLCAnLW9tYWUnLCAnPG91dGZpbGUubWFlPic=

> <r_lp_tautomer_probability>
0.99996

> <r_epik_Ionization_Penalty>
0.00069087

> <r_epik_Ionization_Penalty_Charging>
2.61959e-08

> <r_epik_Ionization_Penalty_Neutral>
0.000690844

> <r_epik_State_Penalty>
1.15523e-05

> <r_epik_Charging_Adjusted_Penalty>
1.15785e-05

> <i_epik_Tot_Q>
0

> <i_epik_Tot_abs_Q>
0

> <r_epik_Metal_State_Penalty>
-0

> <b_epik_Metal_Only>
0

> <s_epik_Chemistry_Notes>
This compound contains an acetal/aminal-like group ( X-CH(R)-Y where X, Y are N, S, or O) that may be acid/base labile, releasing an aldehyde.

> <s_lp_Force_Field>
OPLS_2005

> <r_lp_Energy>
30.3986

> <b_lp_Chiralities_Consistent>
1

> <s_lp_Variant>
AV-unprocessed.smi:53-13

> <Gold.Version>
5.8.1

> <Gold.Id.Protein>
6NUR|6NUR_protein|mol2

> <Gold.PLP.Fitness>
42.3800

> <Gold.PLP.PLP>
-29.6055

> <Gold.PLP.part.hbond>
-5.5900

> <Gold.PLP.part.metal>
0.0000

> <Gold.PLP.part.buried>
-1.0680

> <Gold.PLP.part.nonpolar>
-22.4029

> <Gold.PLP.part.repulsive>
0.2827

> <Gold.PLP.ligand.clash>
0.0000

> <Gold.PLP.ligand.torsion>
0.1691

> <Gold.PLP.Chemscore.Hbond>
3.3669

> <Gold.PLP.Chemscore.CHOScore>
1.0000

> <Gold.PLP.Chemscore.Metal>
0.0000

> <Gold.Chemscore.Hbonds>
donor molecule, donor type, donor heavy atom, donor atom, acceptor molecule, acceptor atom, score
      L1  H    10    28       P1  8028  0.93
      L1  H    14    30       P1  7957  1.00
      P1  H  7997  8009       L1    17  1.00
      P1  H  8011  8017       L1     7  0.32
      L1  C     4    25       P1  8028  1.00

> <Gold.PLP.Chemscore.Internal.Correction>
0.0120

> <Gold.Rescore>
     Score         DG    S(hbond)    S(metal)    S(lipo)     H(rot)  DE(clash)    DE(int)     intcor
      5.44      -7.86       2.18        0.00      39.25       3.71       1.86       0.56       ----

> <Gold.Chemscore.Fitness>
5.4439

> <Gold.Chemscore.DG>
-7.8649

> <Gold.Chemscore.ZeroCoef>
-5.4800

> <Gold.Chemscore.Hbond>
2.1822

> <Gold.Chemscore.Metal>
0.0000

> <Gold.Chemscore.Lipo>
39.2545

> <Gold.Chemscore.Internal_Hbond>
0.0000

> <Gold.Chemscore.DEClash>
1.8561

> <Gold.Chemscore.DEInternal>
0.5650

> <Gold.Chemscore.Rot>
3.7095

> <Gold.Chemscore.Internal.Correction>
   9.000000E+99

> <Gold.Chemscore.Hbonds>
donor molecule, donor type, donor heavy atom, donor atom, acceptor molecule, acceptor atom, score
      L1  H    10    28       P1  8028  0.35
      L1  H    14    30       P1  7957  0.93
      P1  H  7997  8009       L1    17  0.40
      P1  H  8011  8017       L1     7  0.01

> <Gold.Chemscore.Hbond.Weighted>
-7.2885

> <Gold.Chemscore.Metal.Weighted>
-0.0000

> <Gold.Chemscore.Lipo.Weighted>
-4.5928

> <Gold.Chemscore.Internal_Hbond.Weighted>
0.0000

> <Gold.Chemscore.DEClash.Weighted>
1.8561

> <Gold.Chemscore.DEInternal.Weighted>
0.5650

> <Gold.Chemscore.Rot.Weighted>
9.4964

> <Gold.Chemscore.Internal.Correction.Weighted>
   9.000000E+99

> <Gold.Protein.RotatedTorsions>
[ 6907 6896 6895 6894 ] final  124.31 input  -60.11 | X-H torsion
[ 7974 7965 7964 7962 ] final    9.97 input  175.53 | X-H torsion
[ 8008 7997 7996 7995 ] final  172.56 input   59.86 | X-H torsion
[ 10167 10162 10161 10158 ] final -101.57 input  -65.29 | X-H torsion
[ 10718 10713 10712 10709 ] final  125.45 input   66.30 | X-H torsion
[ 10763 10752 10751 10750 ] final  -88.10 input  -60.55 | X-H torsion
[ 11005 11000 10999 10996 ] final  165.96 input  -57.11 | X-H torsion

> <Gold.Protein.ActiveResidues>
 VAL166  LYS551  ARG553  GLY616  TRP617  ASP618  TYR619  PRO620  LYS621  CYS622 
 ASP623  PHE694  ASN695  SER759  ASP760  ASP761  ALA762  ILE779  LEU786  VAL792 
 PHE793  MET794  SER795  GLU796  ALA797  LYS798  CYS799  TRP800  GLU811  SER814 

> <Gold.Protein.RotatedAtoms>
  152.4089  133.6932  159.6380 H   0  0  0  0  0  0  0  0  0  0  0  0  # atno 6907 bound_to 6896
  150.7971  133.8660  159.3254 H   0  0  0  0  0  0  0  0  0  0  0  0  # atno 6908 bound_to 6896
  151.6407  135.1015  160.0192 H   0  0  0  0  0  0  0  0  0  0  0  0  # atno 6909 bound_to 6896
  146.2395  139.9704  142.8448 H   0  0  0  0  0  0  0  0  0  0  0  0  # atno 7974 bound_to 7965
  156.1162  140.1483  156.9269 H   0  0  0  0  0  0  0  0  0  0  0  0  # atno 8008 bound_to 7997
  154.4802  140.0882  156.7402 H   0  0  0  0  0  0  0  0  0  0  0  0  # atno 8009 bound_to 7997
  155.4509  140.3434  155.4303 H   0  0  0  0  0  0  0  0  0  0  0  0  # atno 8010 bound_to 7997
  140.2399  143.3546  152.0811 H   0  0  0  0  0  0  0  0  0  0  0  0  # atno 10167 bound_to 10162
  157.5502  131.1094  150.8714 H   0  0  0  0  0  0  0  0  0  0  0  0  # atno 10718 bound_to 10713
  154.6408  135.5389  153.7787 H   0  0  0  0  0  0  0  0  0  0  0  0  # atno 10763 bound_to 10752
  153.0333  135.6459  154.1162 H   0  0  0  0  0  0  0  0  0  0  0  0  # atno 10764 bound_to 10752
  154.1086  135.2928  155.3215 H   0  0  0  0  0  0  0  0  0  0  0  0  # atno 10765 bound_to 10752
  140.2615  134.7898  157.3594 H   0  0  0  0  0  0  0  0  0  0  0  0  # atno 11005 bound_to 11000
  145.1686  140.9709  143.4335 LP  0  0  0  0  0  0  0  0  0  0  0  0  # atno 17320 bound_to 7965
  145.0049  139.3563  143.6149 LP  0  0  0  0  0  0  0  0  0  0  0  0  # atno 17321 bound_to 7965
  139.5081  144.6843  151.5927 LP  0  0  0  0  0  0  0  0  0  0  0  0  # atno 17342 bound_to 10162
  140.6121  143.9416  150.6461 LP  0  0  0  0  0  0  0  0  0  0  0  0  # atno 17343 bound_to 10162
  156.9242  130.5326  149.5279 LP  0  0  0  0  0  0  0  0  0  0  0  0  # atno 17370 bound_to 10713
  156.0570  130.5630  150.9113 LP  0  0  0  0  0  0  0  0  0  0  0  0  # atno 17371 bound_to 10713
  140.1460  134.4911  155.7996 LP  0  0  0  0  0  0  0  0  0  0  0  0  # atno 17394 bound_to 11000
  141.2189  133.6843  156.7294 LP  0  0  0  0  0  0  0  0  0  0  0  0  # atno 17395 bound_to 11000

$$$$
