AV-unprocessed.smi:951|AV-procd|sdf|4251|dock5
  -GOLD-   22720 2153D 1   1.00000     0.00000
 Structure written by MMmdl.
 51 53  0  0  0  0  0  0  0  0  1 V2000
  147.4302  139.4645  158.3000 O   0  0  0  0  0  0  0  0  0  0  0  0
  148.1340  139.6110  157.3011 C   0  0  0  0  0  0  0  0  0  0  0  0
  148.7612  138.5848  156.7032 N   0  0  0  0  0  0  0  0  0  0  0  0
  148.7071  137.1999  157.1447 C   0  0  0  0  0  0  0  0  0  0  0  0
  149.5144  137.0227  158.4380 C   0  0  0  0  0  0  0  0  0  0  0  0
  149.0060  135.8676  159.2793 C   0  0  0  0  0  0  0  0  0  0  0  0
  149.0411  134.5455  158.7861 C   0  0  0  0  0  0  0  0  0  0  0  0
  148.5640  133.5089  159.6115 C   0  0  0  0  0  0  0  0  0  0  0  0
  148.0733  133.8321  160.8912 C   0  0  0  0  0  0  0  0  0  0  0  0
  148.0822  135.1836  161.2909 C   0  0  0  0  0  0  0  0  0  0  0  0
  148.5368  136.1851  160.5071 N   0  0  0  0  0  0  0  0  0  0  0  0
  148.3230  141.0278  156.7105 C   0  0  2  0  0  0  0  0  0  0  0  0
  148.0372  141.0269  155.2012 C   0  0  0  0  0  0  0  0  0  0  0  0
  149.3944  140.7714  154.5658 C   0  0  0  0  0  0  0  0  0  0  0  0
  150.3783  141.4592  155.5132 C   0  0  0  0  0  0  0  0  0  0  0  0
  149.7019  141.5389  156.8123 N   0  0  0  0  0  0  0  0  0  0  0  0
  150.2376  142.0286  157.9565 C   0  0  0  0  0  0  0  0  0  0  0  0
  149.5733  142.1063  158.9901 O   0  0  0  0  0  0  0  0  0  0  0  0
  151.7191  142.4746  157.9676 C   0  0  0  0  0  0  0  0  0  0  0  0
  152.5471  141.6569  158.9872 C   0  0  0  0  0  0  0  0  0  0  0  0
  152.3021  142.0872  160.4438 C   0  0  0  0  0  0  0  0  0  0  0  0
  152.5914  143.5840  160.6265 C   0  0  0  0  0  0  0  0  0  0  0  0
  151.7384  144.4347  159.6743 C   0  0  0  0  0  0  0  0  0  0  0  0
  151.9118  143.9951  158.2052 C   0  0  0  0  0  0  0  0  0  0  0  0
  149.3241  138.7837  155.8889 H   0  0  0  0  0  0  0  0  0  0  0  0
  147.6682  136.9095  157.3099 H   0  0  0  0  0  0  0  0  0  0  0  0
  149.1039  136.5566  156.3578 H   0  0  0  0  0  0  0  0  0  0  0  0
  150.5660  136.8515  158.2023 H   0  0  0  0  0  0  0  0  0  0  0  0
  149.4788  137.9395  159.0284 H   0  0  0  0  0  0  0  0  0  0  0  0
  149.4264  134.3290  157.8005 H   0  0  0  0  0  0  0  0  0  0  0  0
  148.5753  132.4844  159.2700 H   0  0  0  0  0  0  0  0  0  0  0  0
  147.6999  133.0634  161.5513 H   0  0  0  0  0  0  0  0  0  0  0  0
  147.7145  135.4679  162.2659 H   0  0  0  0  0  0  0  0  0  0  0  0
  147.6259  141.7018  157.2119 H   0  0  0  0  0  0  0  0  0  0  0  0
  147.2867  140.2982  154.8907 H   0  0  0  0  0  0  0  0  0  0  0  0
  147.6751  142.0110  154.9006 H   0  0  0  0  0  0  0  0  0  0  0  0
  149.5921  139.6988  154.5458 H   0  0  0  0  0  0  0  0  0  0  0  0
  149.4620  141.1419  153.5426 H   0  0  0  0  0  0  0  0  0  0  0  0
  151.3186  140.9099  155.5688 H   0  0  0  0  0  0  0  0  0  0  0  0
  150.5897  142.4684  155.1573 H   0  0  0  0  0  0  0  0  0  0  0  0
  152.1306  142.2844  156.9774 H   0  0  0  0  0  0  0  0  0  0  0  0
  152.3357  140.5917  158.8865 H   0  0  0  0  0  0  0  0  0  0  0  0
  153.6070  141.7709  158.7561 H   0  0  0  0  0  0  0  0  0  0  0  0
  151.2731  141.8699  160.7330 H   0  0  0  0  0  0  0  0  0  0  0  0
  152.9368  141.5045  161.1117 H   0  0  0  0  0  0  0  0  0  0  0  0
  152.3999  143.8773  161.6591 H   0  0  0  0  0  0  0  0  0  0  0  0
  153.6489  143.7769  160.4411 H   0  0  0  0  0  0  0  0  0  0  0  0
  150.6924  144.3738  159.9721 H   0  0  0  0  0  0  0  0  0  0  0  0
  152.0139  145.4848  159.7755 H   0  0  0  0  0  0  0  0  0  0  0  0
  152.9162  144.2695  157.8806 H   0  0  0  0  0  0  0  0  0  0  0  0
  151.2327  144.5654  157.5698 H   0  0  0  0  0  0  0  0  0  0  0  0
  1  2  2  0  0  0  0
  2  3  1  0  0  0  0
  2 12  1  0  0  0  0
  3  4  1  0  0  0  0
  3 25  1  0  0  0  0
  4  5  1  0  0  0  0
  4 26  1  0  0  0  0
  4 27  1  0  0  0  0
  5  6  1  0  0  0  0
  5 28  1  0  0  0  0
  5 29  1  0  0  0  0
  6 11  1  0  0  0  0
  6  7  2  0  0  0  0
  7  8  1  0  0  0  0
  7 30  1  0  0  0  0
  8  9  2  0  0  0  0
  8 31  1  0  0  0  0
  9 10  1  0  0  0  0
  9 32  1  0  0  0  0
 10 11  2  0  0  0  0
 10 33  1  0  0  0  0
 12 16  1  0  0  0  0
 12 13  1  0  0  0  0
 12 34  1  0  0  0  0
 13 14  1  0  0  0  0
 13 35  1  0  0  0  0
 13 36  1  0  0  0  0
 14 15  1  0  0  0  0
 14 37  1  0  0  0  0
 14 38  1  0  0  0  0
 15 16  1  0  0  0  0
 15 39  1  0  0  0  0
 15 40  1  0  0  0  0
 16 17  1  0  0  0  0
 17 18  2  0  0  0  0
 17 19  1  0  0  0  0
 19 24  1  0  0  0  0
 19 20  1  0  0  0  0
 19 41  1  0  0  0  0
 20 21  1  0  0  0  0
 20 42  1  0  0  0  0
 20 43  1  0  0  0  0
 21 22  1  0  0  0  0
 21 44  1  0  0  0  0
 21 45  1  0  0  0  0
 22 23  1  0  0  0  0
 22 46  1  0  0  0  0
 22 47  1  0  0  0  0
 23 24  1  0  0  0  0
 23 48  1  0  0  0  0
 23 49  1  0  0  0  0
 24 50  1  0  0  0  0
 24 51  1  0  0  0  0
M  END
> <s_m_source_file>
AV-unprocessed.smi

> <i_m_source_file_index>
951

> <i_lp_mmshare_version>
43012

> <i_f3d_flags>
0

> <s_epik_input>
bjFbY0hdW2NIXVtjSF1bY0hdYzFbQ0gyXVtDSDJdW05IXUMoPU8pW0NAQEhdMltDSDJdW0NIMl1bQ0gyXU4yQyg9TylbQ0hdM1tDSDJdW0NIMl1bQ0gyXVtDSDJdW0NIMl0z

> <s_epik_cmdline>
J2VwaWtfcHl0aG9uJywgJy1waCcsICc3LjAnLCAnLXRuJywgJzgnLCAnLW1hJywgJzIwMCcsICctbWV0YWxfYmluZGluZycsICctaW1hZScsICc8aW5maWxlLm1hZT4nLCAnLW9tYWUnLCAnPG91dGZpbGUubWFlPic=

> <r_epik_Ionization_Penalty>
0.0265505

> <r_epik_Ionization_Penalty_Charging>
0

> <r_epik_Ionization_Penalty_Neutral>
0.0265505

> <r_epik_State_Penalty>
0.02168

> <r_epik_Charging_Adjusted_Penalty>
0.02168

> <i_epik_Tot_Q>
0

> <i_epik_Tot_abs_Q>
0

> <r_epik_Metal_State_Penalty>
0.020746

> <b_epik_Metal_Only>
0

> <s_lp_Force_Field>
OPLS_2005

> <r_lp_Energy>
18.972

> <b_lp_Chiralities_Consistent>
1

> <s_lp_Variant>
AV-unprocessed.smi:951-1

> <Gold.Version>
5.8.1

> <Gold.Id.Protein>
6NUR|6NUR_protein|mol2

> <Gold.PLP.Fitness>
53.3471

> <Gold.PLP.PLP>
-48.6105

> <Gold.PLP.part.hbond>
-3.8602

> <Gold.PLP.part.metal>
0.0000

> <Gold.PLP.part.buried>
-5.7730

> <Gold.PLP.part.nonpolar>
-39.9202

> <Gold.PLP.part.repulsive>
0.1527

> <Gold.PLP.ligand.clash>
0.0000

> <Gold.PLP.ligand.torsion>
0.3756

> <Gold.PLP.Chemscore.Hbond>
1.8000

> <Gold.PLP.Chemscore.CHOScore>
0.0000

> <Gold.PLP.Chemscore.Metal>
0.0000

> <Gold.PLP.Chemscore.Internal.Correction>
0.0878

> <Gold.Rescore>
     Score         DG    S(hbond)    S(metal)    S(lipo)     H(rot)  DE(clash)    DE(int)     intcor
     20.58     -21.02       1.42        0.00     126.21       1.55       0.02       0.42       ----

> <Gold.Chemscore.Fitness>
20.5768

> <Gold.Chemscore.DG>
-21.0182

> <Gold.Chemscore.ZeroCoef>
-5.4800

> <Gold.Chemscore.Hbond>
1.4196

> <Gold.Chemscore.Metal>
0.0000

> <Gold.Chemscore.Lipo>
126.2084

> <Gold.Chemscore.Internal_Hbond>
0.0000

> <Gold.Chemscore.DEClash>
0.0188

> <Gold.Chemscore.DEInternal>
0.4227

> <Gold.Chemscore.Rot>
1.5506

> <Gold.Chemscore.Internal.Correction>
   9.000000E+99

> <Gold.Chemscore.Hbond.Weighted>
-4.7413

> <Gold.Chemscore.Metal.Weighted>
-0.0000

> <Gold.Chemscore.Lipo.Weighted>
-14.7664

> <Gold.Chemscore.Internal_Hbond.Weighted>
0.0000

> <Gold.Chemscore.DEClash.Weighted>
0.0188

> <Gold.Chemscore.DEInternal.Weighted>
0.4227

> <Gold.Chemscore.Rot.Weighted>
3.9695

> <Gold.Chemscore.Internal.Correction.Weighted>
   9.000000E+99

> <Gold.Protein.RotatedTorsions>
[ 6907 6896 6895 6894 ] final  144.45 input  -60.11 | X-H torsion
[ 7974 7965 7964 7962 ] final -129.80 input  175.53 | X-H torsion
[ 8008 7997 7996 7995 ] final  -36.00 input   59.86 | X-H torsion
[ 10167 10162 10161 10158 ] final  -11.34 input  -65.29 | X-H torsion
[ 10718 10713 10712 10709 ] final -109.65 input   66.30 | X-H torsion
[ 10763 10752 10751 10750 ] final  -16.04 input  -60.55 | X-H torsion
[ 11005 11000 10999 10996 ] final  -43.27 input  -57.11 | X-H torsion

> <Gold.Protein.ActiveResidues>
 VAL166  LYS551  ARG553  GLY616  TRP617  ASP618  TYR619  PRO620  LYS621  CYS622 
 ASP623  PHE694  ASN695  SER759  ASP760  ASP761  ALA762  ILE779  LEU786  VAL792 
 PHE793  MET794  SER795  GLU796  ALA797  LYS798  CYS799  TRP800  GLU811  SER814 

> <Gold.Protein.RotatedAtoms>
  152.1935  133.4789  159.5019 H   0  0  0  0  0  0  0  0  0  0  0  0  # atno 6907 bound_to 6896
  150.6955  134.1683  159.4211 H   0  0  0  0  0  0  0  0  0  0  0  0  # atno 6908 bound_to 6896
  151.9598  135.0129  160.0597 H   0  0  0  0  0  0  0  0  0  0  0  0  # atno 6909 bound_to 6896
  144.9537  140.7372  143.4772 H   0  0  0  0  0  0  0  0  0  0  0  0  # atno 7974 bound_to 7965
  154.4082  140.1642  156.2303 H   0  0  0  0  0  0  0  0  0  0  0  0  # atno 8008 bound_to 7997
  155.9288  140.3416  155.6209 H   0  0  0  0  0  0  0  0  0  0  0  0  # atno 8009 bound_to 7997
  155.7132  140.0759  157.2353 H   0  0  0  0  0  0  0  0  0  0  0  0  # atno 8010 bound_to 7997
  140.7136  143.5650  150.9154 H   0  0  0  0  0  0  0  0  0  0  0  0  # atno 10167 bound_to 10162
  156.0548  130.5774  150.8128 H   0  0  0  0  0  0  0  0  0  0  0  0  # atno 10718 bound_to 10713
  153.5525  135.7011  153.5584 H   0  0  0  0  0  0  0  0  0  0  0  0  # atno 10763 bound_to 10752
  153.3502  135.3997  155.1640 H   0  0  0  0  0  0  0  0  0  0  0  0  # atno 10764 bound_to 10752
  154.8659  135.3763  154.5037 H   0  0  0  0  0  0  0  0  0  0  0  0  # atno 10765 bound_to 10752
  141.0372  133.6795  156.2710 H   0  0  0  0  0  0  0  0  0  0  0  0  # atno 11005 bound_to 11000
  145.2805  139.1920  143.4793 LP  0  0  0  0  0  0  0  0  0  0  0  0  # atno 17320 bound_to 7965
  146.3330  140.2767  142.8608 LP  0  0  0  0  0  0  0  0  0  0  0  0  # atno 17321 bound_to 7965
  139.9376  143.6420  152.3061 LP  0  0  0  0  0  0  0  0  0  0  0  0  # atno 17342 bound_to 10162
  139.6893  144.7648  151.1468 LP  0  0  0  0  0  0  0  0  0  0  0  0  # atno 17343 bound_to 10162
  157.5508  131.0944  150.9698 LP  0  0  0  0  0  0  0  0  0  0  0  0  # atno 17370 bound_to 10713
  156.9958  130.5581  149.5307 LP  0  0  0  0  0  0  0  0  0  0  0  0  # atno 17371 bound_to 10713
  140.6300  134.5274  157.5558 LP  0  0  0  0  0  0  0  0  0  0  0  0  # atno 17394 bound_to 11000
  139.9249  134.8075  156.1097 LP  0  0  0  0  0  0  0  0  0  0  0  0  # atno 17395 bound_to 11000

$$$$
