AV-unprocessed.smi:2563|AV-procd|sdf|10056|dock3
  -GOLD-   2272014 93D 1   1.00000     0.00000
 Structure written by MMmdl.
 35 36  0  0  0  0  0  0  0  0  2 V2000
  145.9166  143.1390  154.5863 C   0  0  0  0  0  0  0  0  0  0  0  0
  146.6352  141.9996  155.3205 C   0  0  0  0  0  0  0  0  0  0  0  0
  147.5559  141.2749  154.4471 N   0  0  0  0  0  0  0  0  0  0  0  0
  147.0940  140.8704  153.1185 C   0  0  0  0  0  0  0  0  0  0  0  0
  147.0098  139.3411  152.9650 C   0  0  2  0  0  0  0  0  0  0  0  0
  146.5475  138.9352  151.5521 C   0  0  0  0  0  0  0  0  0  0  0  0
  146.4122  137.4678  151.4639 N   0  3  0  0  0  0  0  0  0  0  0  0
  145.5151  136.9407  152.5105 C   0  0  0  0  0  0  0  0  0  0  0  0
  145.9838  137.4169  153.8958 C   0  0  0  0  0  0  0  0  0  0  0  0
  146.0641  138.8382  153.9065 O   0  0  0  0  0  0  0  0  0  0  0  0
  148.8696  140.9617  154.8737 C   0  0  0  0  0  0  0  0  0  0  0  0
  149.3713  141.3844  156.1292 C   0  0  0  0  0  0  0  0  0  0  0  0
  150.6846  141.0221  156.4747 C   0  0  0  0  0  0  0  0  0  0  0  0
  151.4124  140.2615  155.5441 C   0  0  0  0  0  0  0  0  0  0  0  0
  150.8947  139.8819  154.3563 N   0  0  0  0  0  0  0  0  0  0  0  0
  149.6456  140.2298  154.0312 N   0  0  0  0  0  0  0  0  0  0  0  0
  145.2250  143.6521  155.2546 H   0  0  0  0  0  0  0  0  0  0  0  0
  145.3412  142.7628  153.7399 H   0  0  0  0  0  0  0  0  0  0  0  0
  146.6222  143.8790  154.2083 H   0  0  0  0  0  0  0  0  0  0  0  0
  147.1481  142.3702  156.2077 H   0  0  0  0  0  0  0  0  0  0  0  0
  145.8880  141.2994  155.6946 H   0  0  0  0  0  0  0  0  0  0  0  0
  146.1151  141.3119  152.9280 H   0  0  0  0  0  0  0  0  0  0  0  0
  147.7534  141.2915  152.3585 H   0  0  0  0  0  0  0  0  0  0  0  0
  147.9888  138.9000  153.1602 H   0  0  0  0  0  0  0  0  0  0  0  0
  145.5890  139.3997  151.3152 H   0  0  0  0  0  0  0  0  0  0  0  0
  147.2633  139.2723  150.8017 H   0  0  0  0  0  0  0  0  0  0  0  0
  146.0533  137.2165  150.5537 H   0  0  0  0  0  0  0  0  0  0  0  0
  144.4986  137.2859  152.3178 H   0  0  0  0  0  0  0  0  0  0  0  0
  145.5005  135.8516  152.4622 H   0  0  0  0  0  0  0  0  0  0  0  0
  145.2782  137.0964  154.6623 H   0  0  0  0  0  0  0  0  0  0  0  0
  146.9519  136.9841  154.1522 H   0  0  0  0  0  0  0  0  0  0  0  0
  148.7901  141.9753  156.8201 H   0  0  0  0  0  0  0  0  0  0  0  0
  151.1186  141.3176  157.4182 H   0  0  0  0  0  0  0  0  0  0  0  0
  152.4260  139.9532  155.7537 H   0  0  0  0  0  0  0  0  0  0  0  0
  147.3257  137.0532  151.5835 H   0  0  0  0  0  0  0  0  0  0  0  0
  1  2  1  0  0  0  0
  1 17  1  0  0  0  0
  1 18  1  0  0  0  0
  1 19  1  0  0  0  0
  2  3  1  0  0  0  0
  2 20  1  0  0  0  0
  2 21  1  0  0  0  0
  3  4  1  0  0  0  0
  3 11  1  0  0  0  0
  4  5  1  0  0  0  0
  4 22  1  0  0  0  0
  4 23  1  0  0  0  0
  5 10  1  0  0  0  0
  5  6  1  0  0  0  0
  5 24  1  0  0  0  0
  6  7  1  0  0  0  0
  6 25  1  0  0  0  0
  6 26  1  0  0  0  0
  7  8  1  0  0  0  0
  7 27  1  0  0  0  0
  7 35  1  0  0  0  0
  8  9  1  0  0  0  0
  8 28  1  0  0  0  0
  8 29  1  0  0  0  0
  9 10  1  0  0  0  0
  9 30  1  0  0  0  0
  9 31  1  0  0  0  0
 11 16  1  0  0  0  0
 11 12  2  0  0  0  0
 12 13  1  0  0  0  0
 12 32  1  0  0  0  0
 13 14  2  0  0  0  0
 13 33  1  0  0  0  0
 14 15  1  0  0  0  0
 14 34  1  0  0  0  0
 15 16  2  0  0  0  0
M  CHG  1   7   1
M  END
> <s_m_source_file>
AV-unprocessed.smi

> <i_m_source_file_index>
2563

> <i_lp_mmshare_version>
43012

> <i_f3d_flags>
0

> <s_epik_input>
bjFuW2NIXVtjSF1bY0hdYzFOKFtDSDJdW0NIM10pW0NIMl1bQ0BASF0yW0NIMl1bTkhdW0NIMl1bQ0gyXU8y

> <s_epik_cmdline>
J2VwaWtfcHl0aG9uJywgJy1waCcsICc3LjAnLCAnLXRuJywgJzgnLCAnLW1hJywgJzIwMCcsICctbWV0YWxfYmluZGluZycsICctaW1hZScsICc8aW5maWxlLm1hZT4nLCAnLW9tYWUnLCAnPG91dGZpbGUubWFlPic=

> <r_lp_tautomer_probability>
1

> <r_epik_Ionization_Penalty>
0.0472862

> <r_epik_Ionization_Penalty_Charging>
0.0127794

> <r_epik_Ionization_Penalty_Neutral>
0.0345068

> <r_epik_State_Penalty>
0.0614045

> <r_epik_Charging_Adjusted_Penalty>
0.0741839

> <i_epik_Tot_Q>
1

> <i_epik_Tot_abs_Q>
1

> <r_epik_Metal_State_Penalty>
0.0547208

> <b_epik_Metal_Only>
0

> <s_lp_Force_Field>
OPLS_2005

> <r_lp_Energy>
24.8207

> <b_lp_Chiralities_Consistent>
1

> <s_lp_Variant>
AV-unprocessed.smi:2563-1

> <Gold.Version>
5.8.1

> <Gold.Id.Protein>
6NUR|6NUR_protein|mol2

> <Gold.PLP.Fitness>
38.7279

> <Gold.PLP.PLP>
-30.5467

> <Gold.PLP.part.hbond>
-3.1543

> <Gold.PLP.part.metal>
0.0000

> <Gold.PLP.part.buried>
-2.7704

> <Gold.PLP.part.nonpolar>
-26.7295

> <Gold.PLP.part.repulsive>
1.9234

> <Gold.PLP.ligand.clash>
0.0000

> <Gold.PLP.ligand.torsion>
0.1957

> <Gold.PLP.Chemscore.Hbond>
2.8500

> <Gold.PLP.Chemscore.CHOScore>
0.0000

> <Gold.PLP.Chemscore.Metal>
0.0000

> <Gold.Chemscore.Hbonds>
donor molecule, donor type, donor heavy atom, donor atom, acceptor molecule, acceptor atom, score
      L1  H     7    35       P1  7948  2.00
      P1  H  7989  7998       L1    15  0.75

> <Gold.PLP.Chemscore.Internal.Correction>
0.0227

> <Gold.Rescore>
     Score         DG    S(hbond)    S(metal)    S(lipo)     H(rot)  DE(clash)    DE(int)     intcor
     10.86     -12.54       1.02        0.00      61.88       1.40       0.42       1.25       ----

> <Gold.Chemscore.Fitness>
10.8649

> <Gold.Chemscore.DG>
-12.5421

> <Gold.Chemscore.ZeroCoef>
-5.4800

> <Gold.Chemscore.Hbond>
1.0223

> <Gold.Chemscore.Metal>
0.0000

> <Gold.Chemscore.Lipo>
61.8812

> <Gold.Chemscore.Internal_Hbond>
0.0000

> <Gold.Chemscore.DEClash>
0.4240

> <Gold.Chemscore.DEInternal>
1.2532

> <Gold.Chemscore.Rot>
1.4033

> <Gold.Chemscore.Internal.Correction>
   9.000000E+99

> <Gold.Chemscore.Hbonds>
donor molecule, donor type, donor heavy atom, donor atom, acceptor molecule, acceptor atom, score
      L1  H     7    35       P1  7948  1.00
      P1  H  7989  7998       L1    15  0.03

> <Gold.Chemscore.Hbond.Weighted>
-3.4145

> <Gold.Chemscore.Metal.Weighted>
-0.0000

> <Gold.Chemscore.Lipo.Weighted>
-7.2401

> <Gold.Chemscore.Internal_Hbond.Weighted>
0.0000

> <Gold.Chemscore.DEClash.Weighted>
0.4240

> <Gold.Chemscore.DEInternal.Weighted>
1.2532

> <Gold.Chemscore.Rot.Weighted>
3.5924

> <Gold.Chemscore.Internal.Correction.Weighted>
   9.000000E+99

> <Gold.Protein.RotatedTorsions>
[ 6907 6896 6895 6894 ] final   23.67 input  -60.11 | X-H torsion
[ 7974 7965 7964 7962 ] final  -62.20 input  175.53 | X-H torsion
[ 8008 7997 7996 7995 ] final   22.89 input   59.86 | X-H torsion
[ 10167 10162 10161 10158 ] final  115.89 input  -65.29 | X-H torsion
[ 10718 10713 10712 10709 ] final  179.82 input   66.30 | X-H torsion
[ 10763 10752 10751 10750 ] final  -86.86 input  -60.55 | X-H torsion
[ 11005 11000 10999 10996 ] final  160.56 input  -57.11 | X-H torsion

> <Gold.Protein.ActiveResidues>
 VAL166  LYS551  ARG553  GLY616  TRP617  ASP618  TYR619  PRO620  LYS621  CYS622 
 ASP623  PHE694  ASN695  SER759  ASP760  ASP761  ALA762  ILE779  LEU786  VAL792 
 PHE793  MET794  SER795  GLU796  ALA797  LYS798  CYS799  TRP800  GLU811  SER814 

> <Gold.Protein.RotatedAtoms>
  151.9458  135.0192  160.0538 H   0  0  0  0  0  0  0  0  0  0  0  0  # atno 6907 bound_to 6896
  152.1996  133.4827  159.5060 H   0  0  0  0  0  0  0  0  0  0  0  0  # atno 6908 bound_to 6896
  150.6952  134.1524  159.4188 H   0  0  0  0  0  0  0  0  0  0  0  0  # atno 6909 bound_to 6896
  145.7941  140.8692  143.0265 H   0  0  0  0  0  0  0  0  0  0  0  0  # atno 7974 bound_to 7965
  154.9726  140.3092  155.4981 H   0  0  0  0  0  0  0  0  0  0  0  0  # atno 8008 bound_to 7997
  156.2964  140.2281  156.4759 H   0  0  0  0  0  0  0  0  0  0  0  0  # atno 8009 bound_to 7997
  154.7862  140.0442  157.1154 H   0  0  0  0  0  0  0  0  0  0  0  0  # atno 8010 bound_to 7997
  139.6285  144.7112  151.2482 H   0  0  0  0  0  0  0  0  0  0  0  0  # atno 10167 bound_to 10162
  156.8701  130.9781  151.3074 H   0  0  0  0  0  0  0  0  0  0  0  0  # atno 10718 bound_to 10713
  154.6272  135.5434  153.7640 H   0  0  0  0  0  0  0  0  0  0  0  0  # atno 10763 bound_to 10752
  153.0267  135.6427  154.1354 H   0  0  0  0  0  0  0  0  0  0  0  0  # atno 10764 bound_to 10752
  154.1286  135.2915  155.3171 H   0  0  0  0  0  0  0  0  0  0  0  0  # atno 10765 bound_to 10752
  140.2072  134.8294  157.3082 H   0  0  0  0  0  0  0  0  0  0  0  0  # atno 11005 bound_to 11000
  144.6777  140.0166  143.7484 LP  0  0  0  0  0  0  0  0  0  0  0  0  # atno 17320 bound_to 7965
  145.9946  139.3042  143.0964 LP  0  0  0  0  0  0  0  0  0  0  0  0  # atno 17321 bound_to 7965
  140.7425  143.6523  150.8237 LP  0  0  0  0  0  0  0  0  0  0  0  0  # atno 17342 bound_to 10162
  140.0144  143.5608  152.2826 LP  0  0  0  0  0  0  0  0  0  0  0  0  # atno 17343 bound_to 10162
  157.6200  130.8648  149.9093 LP  0  0  0  0  0  0  0  0  0  0  0  0  # atno 17370 bound_to 10713
  156.0731  130.3682  150.0734 LP  0  0  0  0  0  0  0  0  0  0  0  0  # atno 17371 bound_to 10713
  140.1990  134.4278  155.7673 LP  0  0  0  0  0  0  0  0  0  0  0  0  # atno 17394 bound_to 11000
  141.2227  133.7063  156.8152 LP  0  0  0  0  0  0  0  0  0  0  0  0  # atno 17395 bound_to 11000

$$$$
