AV-unprocessed.smi:211|AV-procd|sdf|1615|dock7
  -GOLD-   2262019543D 1   1.00000     0.00000
 Structure written by MMmdl.
 59 62  0  0  0  0  0  0  0  0  1 V2000
  153.2818  142.9214  162.9183 C   0  0  0  0  0  0  0  0  0  0  0  0
  152.3830  143.3196  161.7527 C   0  0  0  0  0  0  0  0  0  0  0  0
  151.1780  143.4918  161.9329 O   0  0  0  0  0  0  0  0  0  0  0  0
  152.9868  143.4615  160.5630 N   0  0  0  0  0  0  0  0  0  0  0  0
  152.3315  143.8459  159.3133 C   0  0  2  0  0  0  0  0  0  0  0  0
  151.3728  145.0167  159.6016 C   0  0  0  0  0  0  0  0  0  0  0  0
  151.6302  142.6151  158.6792 C   0  0  0  0  0  0  0  0  0  0  0  0
  152.4566  141.3175  158.8476 C   0  0  0  0  0  0  0  0  0  0  0  0
  151.7635  140.1086  158.2000 C   0  0  0  0  0  0  0  0  0  0  0  0
  151.4626  140.3696  156.7948 N   0  0  0  0  0  0  0  0  0  0  0  0
  151.1598  139.2607  156.0722 C   0  0  0  0  0  0  0  0  0  0  0  0
  151.4155  139.2291  154.7365 N   0  0  0  0  0  0  0  0  0  0  0  0
  151.1007  138.1505  154.0135 C   0  0  0  0  0  0  0  0  0  0  0  0
  150.5379  137.0106  154.4180 N   0  0  0  0  0  0  0  0  0  0  0  0
  150.2909  137.0291  155.7589 C   0  0  0  0  0  0  0  0  0  0  0  0
  150.5641  138.1044  156.6513 C   0  0  0  0  0  0  0  0  0  0  0  0
  150.1703  137.7601  157.9392 N   0  0  0  0  0  0  0  0  0  0  0  0
  149.6771  136.5585  157.8120 C   0  0  0  0  0  0  0  0  0  0  0  0
  149.7351  136.0318  156.5413 N   0  0  0  0  0  0  0  0  0  0  0  0
  149.2318  134.7594  156.1144 C   0  0  0  0  0  0  0  0  0  0  0  0
  150.1169  133.7658  155.3566 C   0  0  0  0  0  0  0  0  0  0  0  0
  148.8749  133.2611  154.5869 C   0  0  0  0  0  0  0  0  0  0  0  0
  149.1239  132.9732  153.0959 C   0  0  0  0  0  0  0  0  0  0  0  0
  147.9745  132.4567  152.4571 O   0  0  0  0  0  0  0  0  0  0  0  0
  148.1921  132.0380  155.2355 C   0  0  0  0  0  0  0  0  0  0  0  0
  148.9556  130.8583  155.0897 O   0  0  0  0  0  0  0  0  0  0  0  0
  148.2749  134.6452  154.9263 C   0  0  0  0  0  0  0  0  0  0  0  0
  150.6633  141.5714  156.5584 C   0  0  0  0  0  0  0  0  0  0  0  0
  151.3328  142.8104  157.1752 C   0  0  0  0  0  0  0  0  0  0  0  0
  153.8632  142.0333  162.6680 H   0  0  0  0  0  0  0  0  0  0  0  0
  152.6898  142.7014  163.8073 H   0  0  0  0  0  0  0  0  0  0  0  0
  153.9717  143.7310  163.1583 H   0  0  0  0  0  0  0  0  0  0  0  0
  153.9820  143.2961  160.5184 H   0  0  0  0  0  0  0  0  0  0  0  0
  153.0906  144.1942  158.6101 H   0  0  0  0  0  0  0  0  0  0  0  0
  150.9487  145.4296  158.6873 H   0  0  0  0  0  0  0  0  0  0  0  0
  151.8914  145.8353  160.1018 H   0  0  0  0  0  0  0  0  0  0  0  0
  150.5491  144.7059  160.2452 H   0  0  0  0  0  0  0  0  0  0  0  0
  150.6773  142.4706  159.1913 H   0  0  0  0  0  0  0  0  0  0  0  0
  153.4432  141.4500  158.4012 H   0  0  0  0  0  0  0  0  0  0  0  0
  152.6239  141.0952  159.9015 H   0  0  0  0  0  0  0  0  0  0  0  0
  152.3968  139.2298  158.3156 H   0  0  0  0  0  0  0  0  0  0  0  0
  150.8313  139.8911  158.7230 H   0  0  0  0  0  0  0  0  0  0  0  0
  151.3325  138.2091  152.9602 H   0  0  0  0  0  0  0  0  0  0  0  0
  149.2604  136.0191  158.6500 H   0  0  0  0  0  0  0  0  0  0  0  0
  148.7990  134.2948  157.0020 H   0  0  0  0  0  0  0  0  0  0  0  0
  150.8458  134.2655  154.7156 H   0  0  0  0  0  0  0  0  0  0  0  0
  150.6019  133.0209  155.9883 H   0  0  0  0  0  0  0  0  0  0  0  0
  149.4055  133.8845  152.5679 H   0  0  0  0  0  0  0  0  0  0  0  0
  149.9492  132.2737  152.9591 H   0  0  0  0  0  0  0  0  0  0  0  0
  148.1745  132.3178  151.5444 H   0  0  0  0  0  0  0  0  0  0  0  0
  148.0096  132.2067  156.2972 H   0  0  0  0  0  0  0  0  0  0  0  0
  147.2151  131.8498  154.7897 H   0  0  0  0  0  0  0  0  0  0  0  0
  149.8717  131.0888  155.1040 H   0  0  0  0  0  0  0  0  0  0  0  0
  147.2189  134.6399  155.1982 H   0  0  0  0  0  0  0  0  0  0  0  0
  148.4739  135.3937  154.1568 H   0  0  0  0  0  0  0  0  0  0  0  0
  150.5333  141.7279  155.4866 H   0  0  0  0  0  0  0  0  0  0  0  0
  149.6697  141.4346  156.9878 H   0  0  0  0  0  0  0  0  0  0  0  0
  150.6781  143.6666  157.0168 H   0  0  0  0  0  0  0  0  0  0  0  0
  152.2599  143.0254  156.6422 H   0  0  0  0  0  0  0  0  0  0  0  0
  1  2  1  0  0  0  0
  1 30  1  0  0  0  0
  1 31  1  0  0  0  0
  1 32  1  0  0  0  0
  2  3  2  0  0  0  0
  2  4  1  0  0  0  0
  4  5  1  0  0  0  0
  4 33  1  0  0  0  0
  5  6  1  0  0  0  0
  5  7  1  0  0  0  0
  5 34  1  0  0  0  0
  6 35  1  0  0  0  0
  6 36  1  0  0  0  0
  6 37  1  0  0  0  0
  7 29  1  0  0  0  0
  7  8  1  0  0  0  0
  7 38  1  0  0  0  0
  8  9  1  0  0  0  0
  8 39  1  0  0  0  0
  8 40  1  0  0  0  0
  9 10  1  0  0  0  0
  9 41  1  0  0  0  0
  9 42  1  0  0  0  0
 10 11  1  0  0  0  0
 10 28  1  0  0  0  0
 11 16  1  0  0  0  0
 11 12  2  0  0  0  0
 12 13  1  0  0  0  0
 13 14  2  0  0  0  0
 13 43  1  0  0  0  0
 14 15  1  0  0  0  0
 15 19  1  0  0  0  0
 15 16  2  0  0  0  0
 16 17  1  0  0  0  0
 17 18  2  0  0  0  0
 18 19  1  0  0  0  0
 18 44  1  0  0  0  0
 19 20  1  0  0  0  0
 20 27  1  0  0  0  0
 20 21  1  0  0  0  0
 20 45  1  0  0  0  0
 21 22  1  0  0  0  0
 21 46  1  0  0  0  0
 21 47  1  0  0  0  0
 22 23  1  0  0  0  0
 22 25  1  0  0  0  0
 22 27  1  0  0  0  0
 23 24  1  0  0  0  0
 23 48  1  0  0  0  0
 23 49  1  0  0  0  0
 24 50  1  0  0  0  0
 25 26  1  0  0  0  0
 25 51  1  0  0  0  0
 25 52  1  0  0  0  0
 26 53  1  0  0  0  0
 27 54  1  0  0  0  0
 27 55  1  0  0  0  0
 28 29  1  0  0  0  0
 28 56  1  0  0  0  0
 28 57  1  0  0  0  0
 29 58  1  0  0  0  0
 29 59  1  0  0  0  0
M  END
> <s_m_source_file>
AV-unprocessed.smi

> <i_m_source_file_index>
211

> <i_lp_mmshare_version>
43012

> <i_f3d_flags>
0

> <s_epik_input>
W0NIM11DKD1PKVtOSF1bQ0BIXShbQ0gzXSlbQ0hdMVtDSDJdW0NIMl1OKFtDSDJdW0NIMl0xKWMobltjSF1uMiljKGMyMyluW2NIXW4zW0NIXShbQ0gyXTQpW0NIMl1DNChbQ0gyXVtPSF0pW0NIMl1bT0hd

> <s_epik_cmdline>
J2VwaWtfcHl0aG9uJywgJy1waCcsICc3LjAnLCAnLXRuJywgJzgnLCAnLW1hJywgJzIwMCcsICctbWV0YWxfYmluZGluZycsICctaW1hZScsICc8aW5maWxlLm1hZT4nLCAnLW9tYWUnLCAnPG91dGZpbGUubWFlPic=

> <r_lp_tautomer_probability>
1

> <r_epik_Ionization_Penalty>
0.00335435

> <r_epik_Ionization_Penalty_Charging>
0

> <r_epik_Ionization_Penalty_Neutral>
0.00335435

> <r_epik_State_Penalty>
0.00231338

> <r_epik_Charging_Adjusted_Penalty>
0.00231338

> <i_epik_Tot_Q>
0

> <i_epik_Tot_abs_Q>
0

> <r_epik_Metal_State_Penalty>
-0

> <b_epik_Metal_Only>
0

> <s_lp_Force_Field>
OPLS_2005

> <r_lp_Energy>
41.9303

> <b_lp_Chiralities_Consistent>
1

> <s_lp_Variant>
AV-unprocessed.smi:211-1

> <Gold.Version>
5.8.1

> <Gold.Id.Protein>
6NUR|6NUR_protein|mol2

> <Gold.PLP.Fitness>
50.5541

> <Gold.PLP.PLP>
-44.1153

> <Gold.PLP.part.hbond>
-3.0000

> <Gold.PLP.part.metal>
0.0000

> <Gold.PLP.part.buried>
-9.8065

> <Gold.PLP.part.nonpolar>
-34.9000

> <Gold.PLP.part.repulsive>
3.7779

> <Gold.PLP.ligand.clash>
0.0000

> <Gold.PLP.ligand.torsion>
1.4459

> <Gold.PLP.Chemscore.Hbond>
2.2937

> <Gold.PLP.Chemscore.CHOScore>
0.5145

> <Gold.PLP.Chemscore.Metal>
0.0000

> <Gold.Chemscore.Hbonds>
donor molecule, donor type, donor heavy atom, donor atom, acceptor molecule, acceptor atom, score
      L1  H    24    50       P1 10747  0.69
      P1  H  6933  6945       L1     3  0.46
      P1  H  7989  7998       L1    12  0.93
      L1  C    13    43       P1  7949  0.53

> <Gold.PLP.Chemscore.Internal.Correction>
0.9059

> <Gold.Rescore>
     Score         DG    S(hbond)    S(metal)    S(lipo)     H(rot)  DE(clash)    DE(int)     intcor
      8.11     -13.80       1.86        0.00     103.70       3.92       1.50       4.19       ----

> <Gold.Chemscore.Fitness>
8.1102

> <Gold.Chemscore.DG>
-13.7985

> <Gold.Chemscore.ZeroCoef>
-5.4800

> <Gold.Chemscore.Hbond>
1.8592

> <Gold.Chemscore.Metal>
0.0000

> <Gold.Chemscore.Lipo>
103.6961

> <Gold.Chemscore.Internal_Hbond>
0.0000

> <Gold.Chemscore.DEClash>
1.4986

> <Gold.Chemscore.DEInternal>
4.1897

> <Gold.Chemscore.Rot>
3.9155

> <Gold.Chemscore.Internal.Correction>
   9.000000E+99

> <Gold.Chemscore.Hbonds>
donor molecule, donor type, donor heavy atom, donor atom, acceptor molecule, acceptor atom, score
      L1  H    24    50       P1 10747  0.67
      P1  H  6933  6945       L1     3  0.40
      P1  H  7989  7998       L1    12  0.66

> <Gold.Chemscore.Hbond.Weighted>
-6.2096

> <Gold.Chemscore.Metal.Weighted>
-0.0000

> <Gold.Chemscore.Lipo.Weighted>
-12.1324

> <Gold.Chemscore.Internal_Hbond.Weighted>
0.0000

> <Gold.Chemscore.DEClash.Weighted>
1.4986

> <Gold.Chemscore.DEInternal.Weighted>
4.1897

> <Gold.Chemscore.Rot.Weighted>
10.0236

> <Gold.Chemscore.Internal.Correction.Weighted>
   9.000000E+99

> <Gold.Protein.RotatedTorsions>
[ 6907 6896 6895 6894 ] final   57.86 input  -60.11 | X-H torsion
[ 7974 7965 7964 7962 ] final  150.38 input  175.53 | X-H torsion
[ 8008 7997 7996 7995 ] final   77.26 input   59.86 | X-H torsion
[ 10167 10162 10161 10158 ] final  102.56 input  -65.29 | X-H torsion
[ 10718 10713 10712 10709 ] final    7.00 input   66.30 | X-H torsion
[ 10763 10752 10751 10750 ] final  -60.17 input  -60.55 | X-H torsion
[ 11005 11000 10999 10996 ] final  -57.72 input  -57.11 | X-H torsion

> <Gold.Protein.ActiveResidues>
 VAL166  LYS551  ARG553  GLY616  TRP617  ASP618  TYR619  PRO620  LYS621  CYS622 
 ASP623  PHE694  ASN695  SER759  ASP760  ASP761  ALA762  ILE779  LEU786  VAL792 
 PHE793  MET794  SER795  GLU796  ALA797  LYS798  CYS799  TRP800  GLU811  SER814 

> <Gold.Protein.RotatedAtoms>
  152.3771  134.6647  160.0155 H   0  0  0  0  0  0  0  0  0  0  0  0  # atno 6907 bound_to 6896
  151.6922  133.3305  159.3253 H   0  0  0  0  0  0  0  0  0  0  0  0  # atno 6908 bound_to 6896
  150.7718  134.6624  159.6391 H   0  0  0  0  0  0  0  0  0  0  0  0  # atno 6909 bound_to 6896
  144.8368  139.6401  143.6034 H   0  0  0  0  0  0  0  0  0  0  0  0  # atno 7974 bound_to 7965
  155.8390  140.3463  155.5620 H   0  0  0  0  0  0  0  0  0  0  0  0  # atno 8008 bound_to 7997
  155.8161  140.0906  157.1896 H   0  0  0  0  0  0  0  0  0  0  0  0  # atno 8009 bound_to 7997
  154.4005  140.1439  156.3431 H   0  0  0  0  0  0  0  0  0  0  0  0  # atno 8010 bound_to 7997
  139.7339  144.7029  151.0679 H   0  0  0  0  0  0  0  0  0  0  0  0  # atno 10167 bound_to 10162
  156.9304  130.5824  149.5649 H   0  0  0  0  0  0  0  0  0  0  0  0  # atno 10718 bound_to 10713
  154.2651  135.6301  153.5289 H   0  0  0  0  0  0  0  0  0  0  0  0  # atno 10763 bound_to 10752
  152.9889  135.5597  154.5661 H   0  0  0  0  0  0  0  0  0  0  0  0  # atno 10764 bound_to 10752
  154.5219  135.2883  155.1230 H   0  0  0  0  0  0  0  0  0  0  0  0  # atno 10765 bound_to 10752
  141.1177  133.6611  156.4812 H   0  0  0  0  0  0  0  0  0  0  0  0  # atno 11005 bound_to 11000
  146.2666  139.6534  142.9325 LP  0  0  0  0  0  0  0  0  0  0  0  0  # atno 17320 bound_to 7965
  145.4778  141.0437  143.2663 LP  0  0  0  0  0  0  0  0  0  0  0  0  # atno 17321 bound_to 7965
  140.7776  143.5008  150.9774 LP  0  0  0  0  0  0  0  0  0  0  0  0  # atno 17342 bound_to 10162
  139.8696  143.7209  152.3167 LP  0  0  0  0  0  0  0  0  0  0  0  0  # atno 17343 bound_to 10162
  156.0449  130.5527  150.8858 LP  0  0  0  0  0  0  0  0  0  0  0  0  # atno 17370 bound_to 10713
  157.5850  131.0945  150.9210 LP  0  0  0  0  0  0  0  0  0  0  0  0  # atno 17371 bound_to 10713
  140.4599  134.6850  157.5080 LP  0  0  0  0  0  0  0  0  0  0  0  0  # atno 17394 bound_to 11000
  140.0110  134.6690  155.9381 LP  0  0  0  0  0  0  0  0  0  0  0  0  # atno 17395 bound_to 11000

$$$$
