AV-unprocessed.smi:1374|AV-procd|sdf|5587|dock4
  -GOLD-   22720 5183D 1   1.00000     0.00000
 Structure written by MMmdl.
 43 44  0  0  0  0  0  0  0  0  1 V2000
  145.8731  129.0092  151.8989 C   0  0  0  0  0  0  0  0  0  0  0  0
  147.3271  129.2156  152.3367 C   0  0  0  0  0  0  0  0  0  0  0  0
  147.4881  130.3933  153.3069 C   0  0  0  0  0  0  0  0  0  0  0  0
  148.9576  130.8119  153.4811 C   0  0  0  0  0  0  0  0  0  0  0  0
  149.1343  131.7865  154.5390 N   0  0  0  0  0  0  0  0  0  0  0  0
  149.0395  133.1674  154.3417 C   0  0  0  0  0  0  0  0  0  0  0  0
  148.7818  133.6233  153.0570 N   0  0  0  0  0  0  0  0  0  0  0  0
  149.2460  134.0548  155.3611 C   0  0  0  0  0  0  0  0  0  0  0  0
  149.1371  135.4481  155.1628 N   0  0  0  0  0  0  0  0  0  0  0  0
  147.7759  135.9834  155.0419 C   0  0  0  0  0  0  0  0  0  0  0  0
  150.1917  136.3152  155.1348 C   0  0  0  0  0  0  0  0  0  0  0  0
  151.3489  135.8986  155.0449 O   0  0  0  0  0  0  0  0  0  0  0  0
  149.8877  137.7449  155.2587 C   0  0  0  0  0  0  0  0  0  0  0  0
  150.4926  138.6133  154.4159 C   0  0  0  0  0  0  0  0  0  0  0  0
  150.3302  139.9751  154.4736 O   0  0  0  0  0  0  0  0  0  0  0  0
  149.6730  140.4482  155.6434 C   0  0  0  0  0  0  0  0  0  0  0  0
  148.5163  139.5135  156.0229 C   0  0  0  0  0  0  0  0  0  0  0  0
  149.0071  138.1935  156.2181 O   0  0  0  0  0  0  0  0  0  0  0  0
  149.5363  133.5733  156.7205 C   0  0  0  0  0  0  0  0  0  0  0  0
  149.6906  134.2792  157.7163 O   0  0  0  0  0  0  0  0  0  0  0  0
  149.6431  132.1907  156.8426 N   0  0  0  0  0  0  0  0  0  0  0  0
  149.4758  131.2724  155.8129 C   0  0  0  0  0  0  0  0  0  0  0  0
  149.6273  130.0723  156.0443 O   0  0  0  0  0  0  0  0  0  0  0  0
  149.8654  131.8237  157.7563 H   0  0  0  0  0  0  0  0  0  0  0  0
  145.7902  128.1678  151.2108 H   0  0  0  0  0  0  0  0  0  0  0  0
  145.4853  129.8930  151.3916 H   0  0  0  0  0  0  0  0  0  0  0  0
  145.2295  128.8037  152.7546 H   0  0  0  0  0  0  0  0  0  0  0  0
  147.6935  128.3019  152.8062 H   0  0  0  0  0  0  0  0  0  0  0  0
  147.9479  129.3807  151.4554 H   0  0  0  0  0  0  0  0  0  0  0  0
  146.9050  131.2413  152.9454 H   0  0  0  0  0  0  0  0  0  0  0  0
  147.0693  130.1231  154.2773 H   0  0  0  0  0  0  0  0  0  0  0  0
  149.5911  129.9596  153.7252 H   0  0  0  0  0  0  0  0  0  0  0  0
  149.3809  131.2236  152.5630 H   0  0  0  0  0  0  0  0  0  0  0  0
  148.6646  132.9867  152.2816 H   0  0  0  0  0  0  0  0  0  0  0  0
  148.6222  134.6010  152.8613 H   0  0  0  0  0  0  0  0  0  0  0  0
  147.6498  136.5091  154.0943 H   0  0  0  0  0  0  0  0  0  0  0  0
  147.5595  136.6800  155.8532 H   0  0  0  0  0  0  0  0  0  0  0  0
  147.0215  135.1965  155.0851 H   0  0  0  0  0  0  0  0  0  0  0  0
  151.1866  138.3304  153.6373 H   0  0  0  0  0  0  0  0  0  0  0  0
  150.3945  140.5102  156.4592 H   0  0  0  0  0  0  0  0  0  0  0  0
  149.3047  141.4579  155.4622 H   0  0  0  0  0  0  0  0  0  0  0  0
  148.0311  139.8520  156.9385 H   0  0  0  0  0  0  0  0  0  0  0  0
  147.7563  139.5034  155.2403 H   0  0  0  0  0  0  0  0  0  0  0  0
  1  2  1  0  0  0  0
  1 25  1  0  0  0  0
  1 26  1  0  0  0  0
  1 27  1  0  0  0  0
  2  3  1  0  0  0  0
  2 28  1  0  0  0  0
  2 29  1  0  0  0  0
  3  4  1  0  0  0  0
  3 30  1  0  0  0  0
  3 31  1  0  0  0  0
  4  5  1  0  0  0  0
  4 32  1  0  0  0  0
  4 33  1  0  0  0  0
  5 22  1  0  0  0  0
  5  6  1  0  0  0  0
  6  7  1  0  0  0  0
  6  8  2  0  0  0  0
  7 34  1  0  0  0  0
  7 35  1  0  0  0  0
  8  9  1  0  0  0  0
  8 19  1  0  0  0  0
  9 10  1  0  0  0  0
  9 11  1  0  0  0  0
 10 36  1  0  0  0  0
 10 37  1  0  0  0  0
 10 38  1  0  0  0  0
 11 12  2  0  0  0  0
 11 13  1  0  0  0  0
 13 18  1  0  0  0  0
 13 14  2  0  0  0  0
 14 15  1  0  0  0  0
 14 39  1  0  0  0  0
 15 16  1  0  0  0  0
 16 17  1  0  0  0  0
 16 40  1  0  0  0  0
 16 41  1  0  0  0  0
 17 18  1  0  0  0  0
 17 42  1  0  0  0  0
 17 43  1  0  0  0  0
 19 20  2  0  0  0  0
 19 21  1  0  0  0  0
 21 24  1  0  0  0  0
 21 22  1  0  0  0  0
 22 23  2  0  0  0  0
M  END
> <s_m_source_file>
AV-unprocessed.smi

> <i_m_source_file_index>
1374

> <i_lp_mmshare_version>
43012

> <i_f3d_flags>
0

> <s_epik_input>
W0NIM11bQ0gyXVtDSDJdW0NIMl1uMWMoW05IMl0pYyhjKD1PKVtuSF1jMT1PKU4oW0NIM10pQyg9TylDMj1bQ0hdT1tDSDJdW0NIMl1PMg==

> <s_epik_cmdline>
J2VwaWtfcHl0aG9uJywgJy1waCcsICc3LjAnLCAnLXRuJywgJzgnLCAnLW1hJywgJzIwMCcsICctbWV0YWxfYmluZGluZycsICctaW1hZScsICc8aW5maWxlLm1hZT4nLCAnLW9tYWUnLCAnPG91dGZpbGUubWFlPic=

> <r_lp_tautomer_probability>
1

> <r_epik_Ionization_Penalty>
3.28524e-05

> <r_epik_Ionization_Penalty_Charging>
2.39265e-05

> <r_epik_Ionization_Penalty_Neutral>
8.92594e-06

> <r_epik_State_Penalty>
-0

> <r_epik_Charging_Adjusted_Penalty>
2.39265e-05

> <i_epik_Tot_Q>
0

> <i_epik_Tot_abs_Q>
0

> <r_epik_Metal_State_Penalty>
0.0232519

> <b_epik_Metal_Only>
0

> <s_epik_Chemistry_Notes>
This compound has an imine and may undergo hydrolysis.

> <s_lp_Force_Field>
OPLS_2005

> <r_lp_Energy>
27.3757

> <b_lp_Chiralities_Consistent>
1

> <s_lp_Variant>
AV-unprocessed.smi:1374-1

> <Gold.Version>
5.8.1

> <Gold.Id.Protein>
6NUR|6NUR_protein|mol2

> <Gold.PLP.Fitness>
39.6905

> <Gold.PLP.PLP>
-29.7160

> <Gold.PLP.part.hbond>
-4.0000

> <Gold.PLP.part.metal>
0.0000

> <Gold.PLP.part.buried>
-3.1218

> <Gold.PLP.part.nonpolar>
-23.2805

> <Gold.PLP.part.repulsive>
0.3095

> <Gold.PLP.ligand.clash>
0.0000

> <Gold.PLP.ligand.torsion>
2.6866

> <Gold.PLP.Chemscore.Hbond>
3.9840

> <Gold.PLP.Chemscore.CHOScore>
0.0000

> <Gold.PLP.Chemscore.Metal>
0.0000

> <Gold.Chemscore.Hbonds>
donor molecule, donor type, donor heavy atom, donor atom, acceptor molecule, acceptor atom, score
      L1  H     7    35       P1  7948  0.85
      P1  H  6896  6908       L1    20  0.99
      P1  H  7989  7998       L1    15  1.00
      P1  H 10752 10764       L1    12  1.00

> <Gold.PLP.Chemscore.Internal.Correction>
3.3957

> <Gold.Rescore>
     Score         DG    S(hbond)    S(metal)    S(lipo)     H(rot)  DE(clash)    DE(int)     intcor
     15.12     -19.23       3.41        0.00      52.67       1.49       0.06       4.05       ----

> <Gold.Chemscore.Fitness>
15.1242

> <Gold.Chemscore.DG>
-19.2310

> <Gold.Chemscore.ZeroCoef>
-5.4800

> <Gold.Chemscore.Hbond>
3.4121

> <Gold.Chemscore.Metal>
0.0000

> <Gold.Chemscore.Lipo>
52.6731

> <Gold.Chemscore.Internal_Hbond>
0.0000

> <Gold.Chemscore.DEClash>
0.0601

> <Gold.Chemscore.DEInternal>
4.0466

> <Gold.Chemscore.Rot>
1.4875

> <Gold.Chemscore.Internal.Correction>
   9.000000E+99

> <Gold.Chemscore.Hbonds>
donor molecule, donor type, donor heavy atom, donor atom, acceptor molecule, acceptor atom, score
      L1  H     7    35       P1  7948  0.14
      P1  H  6896  6908       L1    20  0.94
      P1  H  7989  7998       L1    15  0.82
      P1  H 10752 10764       L1    12  1.00

> <Gold.Chemscore.Hbond.Weighted>
-11.3963

> <Gold.Chemscore.Metal.Weighted>
-0.0000

> <Gold.Chemscore.Lipo.Weighted>
-6.1627

> <Gold.Chemscore.Internal_Hbond.Weighted>
0.0000

> <Gold.Chemscore.DEClash.Weighted>
0.0601

> <Gold.Chemscore.DEInternal.Weighted>
4.0466

> <Gold.Chemscore.Rot.Weighted>
3.8081

> <Gold.Chemscore.Internal.Correction.Weighted>
   9.000000E+99

> <Gold.Protein.RotatedTorsions>
[ 6907 6896 6895 6894 ] final  123.10 input  -60.11 | X-H torsion
[ 7974 7965 7964 7962 ] final -109.45 input  175.53 | X-H torsion
[ 8008 7997 7996 7995 ] final  -20.87 input   59.86 | X-H torsion
[ 10167 10162 10161 10158 ] final  162.82 input  -65.29 | X-H torsion
[ 10718 10713 10712 10709 ] final  -30.29 input   66.30 | X-H torsion
[ 10763 10752 10751 10750 ] final  -53.39 input  -60.55 | X-H torsion
[ 11005 11000 10999 10996 ] final   26.80 input  -57.11 | X-H torsion

> <Gold.Protein.ActiveResidues>
 VAL166  LYS551  ARG553  GLY616  TRP617  ASP618  TYR619  PRO620  LYS621  CYS622 
 ASP623  PHE694  ASN695  SER759  ASP760  ASP761  ALA762  ILE779  LEU786  VAL792 
 PHE793  MET794  SER795  GLU796  ALA797  LYS798  CYS799  TRP800  GLU811  SER814 

> <Gold.Protein.RotatedAtoms>
  152.4189  133.7084  159.6464 H   0  0  0  0  0  0  0  0  0  0  0  0  # atno 6907 bound_to 6896
  150.8066  133.8489  159.3208 H   0  0  0  0  0  0  0  0  0  0  0  0  # atno 6908 bound_to 6896
  151.6211  135.1034  160.0153 H   0  0  0  0  0  0  0  0  0  0  0  0  # atno 6909 bound_to 6896
  145.1804  140.8968  143.3483 H   0  0  0  0  0  0  0  0  0  0  0  0  # atno 7974 bound_to 7965
  154.4742  140.2050  155.9920 H   0  0  0  0  0  0  0  0  0  0  0  0  # atno 8008 bound_to 7997
  156.1061  140.3236  155.7978 H   0  0  0  0  0  0  0  0  0  0  0  0  # atno 8009 bound_to 7997
  155.4715  140.0531  157.2969 H   0  0  0  0  0  0  0  0  0  0  0  0  # atno 8010 bound_to 7997
  139.4865  144.4400  151.8964 H   0  0  0  0  0  0  0  0  0  0  0  0  # atno 10167 bound_to 10162
  156.4017  130.4391  149.7318 H   0  0  0  0  0  0  0  0  0  0  0  0  # atno 10718 bound_to 10713
  154.1581  135.6479  153.4979 H   0  0  0  0  0  0  0  0  0  0  0  0  # atno 10763 bound_to 10752
  153.0118  135.5354  154.6739 H   0  0  0  0  0  0  0  0  0  0  0  0  # atno 10764 bound_to 10752
  154.6045  135.2947  155.0471 H   0  0  0  0  0  0  0  0  0  0  0  0  # atno 10765 bound_to 10752
  140.3332  134.2415  155.7699 H   0  0  0  0  0  0  0  0  0  0  0  0  # atno 11005 bound_to 11000
  145.0142  139.3482  143.6105 LP  0  0  0  0  0  0  0  0  0  0  0  0  # atno 17320 bound_to 7965
  146.3454  139.9417  142.8740 LP  0  0  0  0  0  0  0  0  0  0  0  0  # atno 17321 bound_to 7965
  140.3851  144.2687  150.5905 LP  0  0  0  0  0  0  0  0  0  0  0  0  # atno 17342 bound_to 10162
  140.5198  143.2269  151.8407 LP  0  0  0  0  0  0  0  0  0  0  0  0  # atno 17343 bound_to 10162
  156.4331  130.7825  151.2845 LP  0  0  0  0  0  0  0  0  0  0  0  0  # atno 17370 bound_to 10713
  157.7504  131.0148  150.3478 LP  0  0  0  0  0  0  0  0  0  0  0  0  # atno 17371 bound_to 10713
  141.2058  133.7850  157.0212 LP  0  0  0  0  0  0  0  0  0  0  0  0  # atno 17394 bound_to 11000
  140.0843  134.9630  157.1675 LP  0  0  0  0  0  0  0  0  0  0  0  0  # atno 17395 bound_to 11000

$$$$
