AV-unprocessed.smi:3348|AV-procd|sdf|12916|dock5
  -GOLD-   2272019333D 1   1.00000     0.00000
 Structure written by MMmdl.
 47 48  0  0  0  0  0  0  0  0  2 V2000
  144.8429  135.7444  150.5302 C   0  0  0  0  0  0  0  0  0  0  0  0
  145.5583  135.3512  151.8328 C   0  0  1  0  0  0  0  0  0  0  0  0
  146.3800  134.0605  151.6370 C   0  0  0  0  0  0  0  0  0  0  0  0
  145.5530  132.8979  151.3587 N   0  0  0  0  0  0  0  0  0  0  0  0
  145.8960  131.5644  151.4402 C   0  0  0  0  0  0  0  0  0  0  0  0
  144.7998  130.8388  151.0713 C   0  0  0  0  0  0  0  0  0  0  0  0
  143.8256  131.8294  150.7652 C   0  0  0  0  0  0  0  0  0  0  0  0
  144.2810  133.0603  150.9339 N   0  0  0  0  0  0  0  0  0  0  0  0
  146.4342  136.4461  152.3087 N   0  3  0  0  0  0  0  0  0  0  0  0
  145.7977  137.7774  152.3829 C   0  0  0  0  0  0  0  0  0  0  0  0
  146.8499  138.8729  152.5789 C   0  0  0  0  0  0  0  0  0  0  0  0
  147.5495  138.6153  153.7875 O   0  0  0  0  0  0  0  0  0  0  0  0
  148.7506  139.3610  153.9497 C   0  0  2  0  0  0  0  0  0  0  0  0
  149.7973  138.5184  154.7108 C   0  0  0  0  0  0  0  0  0  0  0  0
  151.0599  139.3345  155.0242 C   0  0  0  0  0  0  0  0  0  0  0  0
  150.7130  140.6090  155.8054 C   0  0  0  0  0  0  0  0  0  0  0  0
  149.6795  141.4550  155.0470 C   0  0  0  0  0  0  0  0  0  0  0  0
  148.4033  140.6498  154.7295 C   0  0  1  0  0  0  0  0  0  0  0  0
  147.3880  141.5208  153.9711 C   0  0  0  0  0  0  0  0  0  0  0  0
  144.2204  134.9268  150.1660 H   0  0  0  0  0  0  0  0  0  0  0  0
  145.5570  135.9919  149.7441 H   0  0  0  0  0  0  0  0  0  0  0  0
  144.1901  136.6057  150.6715 H   0  0  0  0  0  0  0  0  0  0  0  0
  144.8002  135.1596  152.5938 H   0  0  0  0  0  0  0  0  0  0  0  0
  147.0785  134.1809  150.8076 H   0  0  0  0  0  0  0  0  0  0  0  0
  146.9819  133.8544  152.5234 H   0  0  0  0  0  0  0  0  0  0  0  0
  146.8797  131.2452  151.7524 H   0  0  0  0  0  0  0  0  0  0  0  0
  144.7089  129.7639  151.0222 H   0  0  0  0  0  0  0  0  0  0  0  0
  142.8092  131.6918  150.4265 H   0  0  0  0  0  0  0  0  0  0  0  0
  146.7344  136.2079  153.2433 H   0  0  0  0  0  0  0  0  0  0  0  0
  145.2150  137.9756  151.4831 H   0  0  0  0  0  0  0  0  0  0  0  0
  145.1051  137.7891  153.2254 H   0  0  0  0  0  0  0  0  0  0  0  0
  147.5398  138.8669  151.7352 H   0  0  0  0  0  0  0  0  0  0  0  0
  146.3725  139.8538  152.6053 H   0  0  0  0  0  0  0  0  0  0  0  0
  149.1493  139.6462  152.9741 H   0  0  0  0  0  0  0  0  0  0  0  0
  149.3638  138.1501  155.6415 H   0  0  0  0  0  0  0  0  0  0  0  0
  150.0798  137.6390  154.1331 H   0  0  0  0  0  0  0  0  0  0  0  0
  151.7636  138.7279  155.5951 H   0  0  0  0  0  0  0  0  0  0  0  0
  151.5636  139.6009  154.0941 H   0  0  0  0  0  0  0  0  0  0  0  0
  150.3193  140.3422  156.7870 H   0  0  0  0  0  0  0  0  0  0  0  0
  151.6160  141.1942  155.9825 H   0  0  0  0  0  0  0  0  0  0  0  0
  149.4281  142.3361  155.6387 H   0  0  0  0  0  0  0  0  0  0  0  0
  150.1233  141.8232  154.1208 H   0  0  0  0  0  0  0  0  0  0  0  0
  147.9479  140.3600  155.6778 H   0  0  0  0  0  0  0  0  0  0  0  0
  147.7776  141.8305  153.0010 H   0  0  0  0  0  0  0  0  0  0  0  0
  147.1474  142.4221  154.5356 H   0  0  0  0  0  0  0  0  0  0  0  0
  146.4534  140.9861  153.8001 H   0  0  0  0  0  0  0  0  0  0  0  0
  147.2494  136.4994  151.7145 H   0  0  0  0  0  0  0  0  0  0  0  0
  1  2  1  0  0  0  0
  1 20  1  0  0  0  0
  1 21  1  0  0  0  0
  1 22  1  0  0  0  0
  2  3  1  0  0  0  0
  2  9  1  0  0  0  0
  2 23  1  0  0  0  0
  3  4  1  0  0  0  0
  3 24  1  0  0  0  0
  3 25  1  0  0  0  0
  4  8  1  0  0  0  0
  4  5  1  0  0  0  0
  5  6  2  0  0  0  0
  5 26  1  0  0  0  0
  6  7  1  0  0  0  0
  6 27  1  0  0  0  0
  7  8  2  0  0  0  0
  7 28  1  0  0  0  0
  9 10  1  0  0  0  0
  9 29  1  0  0  0  0
  9 47  1  0  0  0  0
 10 11  1  0  0  0  0
 10 30  1  0  0  0  0
 10 31  1  0  0  0  0
 11 12  1  0  0  0  0
 11 32  1  0  0  0  0
 11 33  1  0  0  0  0
 12 13  1  0  0  0  0
 13 18  1  0  0  0  0
 13 14  1  0  0  0  0
 13 34  1  0  0  0  0
 14 15  1  0  0  0  0
 14 35  1  0  0  0  0
 14 36  1  0  0  0  0
 15 16  1  0  0  0  0
 15 37  1  0  0  0  0
 15 38  1  0  0  0  0
 16 17  1  0  0  0  0
 16 39  1  0  0  0  0
 16 40  1  0  0  0  0
 17 18  1  0  0  0  0
 17 41  1  0  0  0  0
 17 42  1  0  0  0  0
 18 19  1  0  0  0  0
 18 43  1  0  0  0  0
 19 44  1  0  0  0  0
 19 45  1  0  0  0  0
 19 46  1  0  0  0  0
M  CHG  1   9   1
M  END
> <s_m_source_file>
AV-unprocessed.smi

> <i_m_source_file_index>
3348

> <i_lp_mmshare_version>
43012

> <i_f3d_flags>
0

> <s_epik_input>
bjFbY0hdW2NIXVtjSF1uMVtDSDJdW0NAQEhdKFtDSDNdKVtOSF1bQ0gyXVtDSDJdT1tDQEBIXTJbQ0gyXVtDSDJdW0NIMl1bQ0gyXVtDQEhdMltDSDNd

> <s_epik_cmdline>
J2VwaWtfcHl0aG9uJywgJy1waCcsICc3LjAnLCAnLXRuJywgJzgnLCAnLW1hJywgJzIwMCcsICctbWV0YWxfYmluZGluZycsICctaW1hZScsICc8aW5maWxlLm1hZT4nLCAnLW9tYWUnLCAnPG91dGZpbGUubWFlPic=

> <r_lp_tautomer_probability>
1

> <r_epik_Ionization_Penalty>
0.00925088

> <r_epik_Ionization_Penalty_Charging>
0.00924645

> <r_epik_Ionization_Penalty_Neutral>
4.42413e-06

> <r_epik_State_Penalty>
0.0070118

> <r_epik_Charging_Adjusted_Penalty>
0.0162583

> <i_epik_Tot_Q>
1

> <i_epik_Tot_abs_Q>
1

> <r_epik_Metal_State_Penalty>
0.00701222

> <b_epik_Metal_Only>
0

> <s_lp_Force_Field>
OPLS_2005

> <r_lp_Energy>
16.0091

> <b_lp_Chiralities_Consistent>
1

> <s_lp_Variant>
AV-unprocessed.smi:3348-2

> <Gold.Version>
5.8.1

> <Gold.Id.Protein>
6NUR|6NUR_protein|mol2

> <Gold.PLP.Fitness>
47.7197

> <Gold.PLP.PLP>
-38.8992

> <Gold.PLP.part.hbond>
-0.9189

> <Gold.PLP.part.metal>
0.0000

> <Gold.PLP.part.buried>
-1.4914

> <Gold.PLP.part.nonpolar>
-37.7180

> <Gold.PLP.part.repulsive>
0.3790

> <Gold.PLP.ligand.clash>
0.0000

> <Gold.PLP.ligand.torsion>
0.8177

> <Gold.PLP.Chemscore.Hbond>
1.5040

> <Gold.PLP.Chemscore.CHOScore>
1.9330

> <Gold.PLP.Chemscore.Metal>
0.0000

> <Gold.Chemscore.Hbonds>
donor molecule, donor type, donor heavy atom, donor atom, acceptor molecule, acceptor atom, score
      L1  H     9    47       P1  7948  1.57
      L1  C     5    26       P1 10747  0.81
      L1  C     7    28       P1 10952  0.96

> <Gold.PLP.Chemscore.Internal.Correction>
0.1450

> <Gold.Rescore>
     Score         DG    S(hbond)    S(metal)    S(lipo)     H(rot)  DE(clash)    DE(int)     intcor
     13.65     -16.09       0.95        0.00     103.18       1.82       0.11       2.33       ----

> <Gold.Chemscore.Fitness>
13.6491

> <Gold.Chemscore.DG>
-16.0912

> <Gold.Chemscore.ZeroCoef>
-5.4800

> <Gold.Chemscore.Hbond>
0.9546

> <Gold.Chemscore.Metal>
0.0000

> <Gold.Chemscore.Lipo>
103.1847

> <Gold.Chemscore.Internal_Hbond>
0.0000

> <Gold.Chemscore.DEClash>
0.1128

> <Gold.Chemscore.DEInternal>
2.3293

> <Gold.Chemscore.Rot>
1.8163

> <Gold.Chemscore.Internal.Correction>
   9.000000E+99

> <Gold.Chemscore.Hbonds>
donor molecule, donor type, donor heavy atom, donor atom, acceptor molecule, acceptor atom, score
      L1  H     9    47       P1  7948  0.78

> <Gold.Chemscore.Hbond.Weighted>
-3.1883

> <Gold.Chemscore.Metal.Weighted>
-0.0000

> <Gold.Chemscore.Lipo.Weighted>
-12.0726

> <Gold.Chemscore.Internal_Hbond.Weighted>
0.0000

> <Gold.Chemscore.DEClash.Weighted>
0.1128

> <Gold.Chemscore.DEInternal.Weighted>
2.3293

> <Gold.Chemscore.Rot.Weighted>
4.6497

> <Gold.Chemscore.Internal.Correction.Weighted>
   9.000000E+99

> <Gold.Protein.RotatedTorsions>
[ 6907 6896 6895 6894 ] final -137.71 input  -60.11 | X-H torsion
[ 7974 7965 7964 7962 ] final  -46.70 input  175.53 | X-H torsion
[ 8008 7997 7996 7995 ] final  118.36 input   59.86 | X-H torsion
[ 10167 10162 10161 10158 ] final  125.60 input  -65.29 | X-H torsion
[ 10718 10713 10712 10709 ] final  -56.12 input   66.30 | X-H torsion
[ 10763 10752 10751 10750 ] final -166.01 input  -60.55 | X-H torsion
[ 11005 11000 10999 10996 ] final   76.44 input  -57.11 | X-H torsion

> <Gold.Protein.ActiveResidues>
 VAL166  LYS551  ARG553  GLY616  TRP617  ASP618  TYR619  PRO620  LYS621  CYS622 
 ASP623  PHE694  ASN695  SER759  ASP760  ASP761  ALA762  ILE779  LEU786  VAL792 
 PHE793  MET794  SER795  GLU796  ALA797  LYS798  CYS799  TRP800  GLU811  SER814 

> <Gold.Protein.RotatedAtoms>
  151.0258  133.5835  159.2665 H   0  0  0  0  0  0  0  0  0  0  0  0  # atno 6907 bound_to 6896
  151.2934  135.0747  159.9222 H   0  0  0  0  0  0  0  0  0  0  0  0  # atno 6908 bound_to 6896
  152.5334  133.9952  159.7923 H   0  0  0  0  0  0  0  0  0  0  0  0  # atno 6909 bound_to 6896
  145.9692  140.7400  142.9418 H   0  0  0  0  0  0  0  0  0  0  0  0  # atno 7974 bound_to 7965
  156.2542  140.2876  156.0822 H   0  0  0  0  0  0  0  0  0  0  0  0  # atno 8008 bound_to 7997
  155.1554  140.0398  157.2848 H   0  0  0  0  0  0  0  0  0  0  0  0  # atno 8009 bound_to 7997
  154.6431  140.2527  155.7306 H   0  0  0  0  0  0  0  0  0  0  0  0  # atno 8010 bound_to 7997
  139.5677  144.6921  151.3865 H   0  0  0  0  0  0  0  0  0  0  0  0  # atno 10167 bound_to 10162
  156.1314  130.4159  150.0263 H   0  0  0  0  0  0  0  0  0  0  0  0  # atno 10718 bound_to 10713
  154.6875  135.2965  154.9527 H   0  0  0  0  0  0  0  0  0  0  0  0  # atno 10763 bound_to 10752
  154.0501  135.6645  153.4803 H   0  0  0  0  0  0  0  0  0  0  0  0  # atno 10764 bound_to 10752
  153.0589  135.5128  154.7950 H   0  0  0  0  0  0  0  0  0  0  0  0  # atno 10765 bound_to 10752
  139.9298  134.7601  156.1396 H   0  0  0  0  0  0  0  0  0  0  0  0  # atno 11005 bound_to 11000
  144.6833  140.2721  143.7304 LP  0  0  0  0  0  0  0  0  0  0  0  0  # atno 17320 bound_to 7965
  145.7930  139.1934  143.2092 LP  0  0  0  0  0  0  0  0  0  0  0  0  # atno 17321 bound_to 7965
  140.6961  143.7746  150.7328 LP  0  0  0  0  0  0  0  0  0  0  0  0  # atno 17342 bound_to 10162
  140.1243  143.4584  152.2294 LP  0  0  0  0  0  0  0  0  0  0  0  0  # atno 17343 bound_to 10162
  156.8174  130.9346  151.3642 LP  0  0  0  0  0  0  0  0  0  0  0  0  # atno 17370 bound_to 10713
  157.6491  130.8869  149.9597 LP  0  0  0  0  0  0  0  0  0  0  0  0  # atno 17371 bound_to 10713
  141.0879  133.6726  156.2477 LP  0  0  0  0  0  0  0  0  0  0  0  0  # atno 17394 bound_to 11000
  140.6234  134.5338  157.5550 LP  0  0  0  0  0  0  0  0  0  0  0  0  # atno 17395 bound_to 11000

$$$$
