AV-unprocessed.smi:1506|AV-procd|sdf|6076|dock3
  -GOLD-   22720 6193D 1   1.00000     0.00000
 Structure written by MMmdl.
 39 41  0  0  0  0  0  0  0  0  1 V2000
  152.8336  143.2369  162.1365 C   0  0  0  0  0  0  0  0  0  0  0  0
  152.4655  143.2188  160.6671 C   0  0  0  0  0  0  0  0  0  0  0  0
  152.0869  144.4080  160.0132 C   0  0  0  0  0  0  0  0  0  0  0  0
  151.7469  144.3807  158.6480 C   0  0  0  0  0  0  0  0  0  0  0  0
  151.7815  143.1680  157.9329 C   0  0  0  0  0  0  0  0  0  0  0  0
  152.1563  141.9639  158.5810 C   0  0  0  0  0  0  0  0  0  0  0  0
  152.2118  140.7341  157.9613 O   0  0  0  0  0  0  0  0  0  0  0  0
  151.8746  140.6563  156.5815 C   0  0  0  0  0  0  0  0  0  0  0  0
  151.9374  139.1953  156.1053 C   0  0  2  0  0  0  0  0  0  0  0  0
  153.2669  138.7270  156.2202 O   0  0  0  0  0  0  0  0  0  0  0  0
  151.3812  138.9776  154.6840 C   0  0  0  0  0  0  0  0  0  0  0  0
  149.9377  138.8213  154.6751 N   0  0  0  0  0  0  0  0  0  0  0  0
  149.2444  137.6797  154.8487 C   0  0  0  0  0  0  0  0  0  0  0  0
  147.9177  137.7585  154.7976 N   0  0  0  0  0  0  0  0  0  0  0  0
  147.7267  139.1100  154.5648 C   0  0  0  0  0  0  0  0  0  0  0  0
  146.5359  139.8540  154.4032 C   0  0  0  0  0  0  0  0  0  0  0  0
  146.5881  141.2439  154.1681 C   0  0  0  0  0  0  0  0  0  0  0  0
  147.8284  141.9101  154.0909 C   0  0  0  0  0  0  0  0  0  0  0  0
  149.0282  141.1902  154.2485 C   0  0  0  0  0  0  0  0  0  0  0  0
  148.9718  139.8037  154.4836 C   0  0  0  0  0  0  0  0  0  0  0  0
  152.4967  142.0059  159.9489 C   0  0  0  0  0  0  0  0  0  0  0  0
  153.0304  144.2521  162.4825 H   0  0  0  0  0  0  0  0  0  0  0  0
  153.7287  142.6401  162.3135 H   0  0  0  0  0  0  0  0  0  0  0  0
  152.0205  142.8228  162.7332 H   0  0  0  0  0  0  0  0  0  0  0  0
  152.0558  145.3427  160.5537 H   0  0  0  0  0  0  0  0  0  0  0  0
  151.4579  145.2928  158.1469 H   0  0  0  0  0  0  0  0  0  0  0  0
  151.5149  143.1885  156.8875 H   0  0  0  0  0  0  0  0  0  0  0  0
  150.8817  141.0685  156.3928 H   0  0  0  0  0  0  0  0  0  0  0  0
  152.5930  141.2459  156.0099 H   0  0  0  0  0  0  0  0  0  0  0  0
  151.3478  138.5963  156.8006 H   0  0  0  0  0  0  0  0  0  0  0  0
  153.2430  137.8056  156.4291 H   0  0  0  0  0  0  0  0  0  0  0  0
  151.6397  139.8238  154.0461 H   0  0  0  0  0  0  0  0  0  0  0  0
  151.8254  138.0942  154.2238 H   0  0  0  0  0  0  0  0  0  0  0  0
  149.7427  136.7364  155.0187 H   0  0  0  0  0  0  0  0  0  0  0  0
  145.5800  139.3545  154.4594 H   0  0  0  0  0  0  0  0  0  0  0  0
  145.6715  141.8019  154.0453 H   0  0  0  0  0  0  0  0  0  0  0  0
  147.8585  142.9746  153.9094 H   0  0  0  0  0  0  0  0  0  0  0  0
  149.9803  141.6965  154.1871 H   0  0  0  0  0  0  0  0  0  0  0  0
  152.7837  141.0941  160.4522 H   0  0  0  0  0  0  0  0  0  0  0  0
  1  2  1  0  0  0  0
  1 22  1  0  0  0  0
  1 23  1  0  0  0  0
  1 24  1  0  0  0  0
  2 21  1  0  0  0  0
  2  3  2  0  0  0  0
  3  4  1  0  0  0  0
  3 25  1  0  0  0  0
  4  5  2  0  0  0  0
  4 26  1  0  0  0  0
  5  6  1  0  0  0  0
  5 27  1  0  0  0  0
  6  7  1  0  0  0  0
  6 21  2  0  0  0  0
  7  8  1  0  0  0  0
  8  9  1  0  0  0  0
  8 28  1  0  0  0  0
  8 29  1  0  0  0  0
  9 10  1  0  0  0  0
  9 11  1  0  0  0  0
  9 30  1  0  0  0  0
 10 31  1  0  0  0  0
 11 12  1  0  0  0  0
 11 32  1  0  0  0  0
 11 33  1  0  0  0  0
 12 20  1  0  0  0  0
 12 13  1  0  0  0  0
 13 14  2  0  0  0  0
 13 34  1  0  0  0  0
 14 15  1  0  0  0  0
 15 20  2  0  0  0  0
 15 16  1  0  0  0  0
 16 17  2  0  0  0  0
 16 35  1  0  0  0  0
 17 18  1  0  0  0  0
 17 36  1  0  0  0  0
 18 19  2  0  0  0  0
 18 37  1  0  0  0  0
 19 20  1  0  0  0  0
 19 38  1  0  0  0  0
 21 39  1  0  0  0  0
M  END
> <s_m_source_file>
AV-unprocessed.smi

> <i_m_source_file_index>
1506

> <i_lp_mmshare_version>
43012

> <i_f3d_flags>
0

> <s_epik_input>
W0NIM11jMVtjSF1bY0hdW2NIXWMoW2NIXTEpT1tDSDJdW0NASF0oW09IXSlbQ0gyXW4oW2NIXW4yKWMoYzIzKVtjSF1bY0hdW2NIXVtjSF0z

> <s_epik_cmdline>
J2VwaWtfcHl0aG9uJywgJy1waCcsICc3LjAnLCAnLXRuJywgJzgnLCAnLW1hJywgJzIwMCcsICctbWV0YWxfYmluZGluZycsICctaW1hZScsICc8aW5maWxlLm1hZT4nLCAnLW9tYWUnLCAnPG91dGZpbGUubWFlPic=

> <r_lp_tautomer_probability>
1

> <r_epik_Ionization_Penalty>
0.0608485

> <r_epik_Ionization_Penalty_Charging>
0

> <r_epik_Ionization_Penalty_Neutral>
0.0608485

> <r_epik_State_Penalty>
0.0527778

> <r_epik_Charging_Adjusted_Penalty>
0.0527778

> <i_epik_Tot_Q>
0

> <i_epik_Tot_abs_Q>
0

> <r_epik_Metal_State_Penalty>
5.51973e-05

> <b_epik_Metal_Only>
0

> <s_lp_Force_Field>
OPLS_2005

> <r_lp_Energy>
16.3702

> <b_lp_Chiralities_Consistent>
1

> <s_lp_Variant>
AV-unprocessed.smi:1506-1

> <Gold.Version>
5.8.1

> <Gold.Id.Protein>
6NUR|6NUR_protein|mol2

> <Gold.PLP.Fitness>
49.8200

> <Gold.PLP.PLP>
-48.0995

> <Gold.PLP.part.hbond>
-1.0000

> <Gold.PLP.part.metal>
0.0000

> <Gold.PLP.part.buried>
-4.8250

> <Gold.PLP.part.nonpolar>
-42.1125

> <Gold.PLP.part.repulsive>
0.0995

> <Gold.PLP.ligand.clash>
0.0000

> <Gold.PLP.ligand.torsion>
0.6851

> <Gold.PLP.Chemscore.Hbond>
1.0000

> <Gold.PLP.Chemscore.CHOScore>
0.0000

> <Gold.PLP.Chemscore.Metal>
0.0000

> <Gold.Chemscore.Hbonds>
donor molecule, donor type, donor heavy atom, donor atom, acceptor molecule, acceptor atom, score
      P1  H  7997  8008       L1    10  1.00

> <Gold.PLP.Chemscore.Internal.Correction>
0.0906

> <Gold.Rescore>
     Score         DG    S(hbond)    S(metal)    S(lipo)     H(rot)  DE(clash)    DE(int)     intcor
     17.76     -18.42       0.81        0.00     135.51       2.19       0.03       0.63       ----

> <Gold.Chemscore.Fitness>
17.7584

> <Gold.Chemscore.DG>
-18.4240

> <Gold.Chemscore.ZeroCoef>
-5.4800

> <Gold.Chemscore.Hbond>
0.8052

> <Gold.Chemscore.Metal>
0.0000

> <Gold.Chemscore.Lipo>
135.5149

> <Gold.Chemscore.Internal_Hbond>
0.0000

> <Gold.Chemscore.DEClash>
0.0341

> <Gold.Chemscore.DEInternal>
0.6315

> <Gold.Chemscore.Rot>
2.1877

> <Gold.Chemscore.Internal.Correction>
   9.000000E+99

> <Gold.Chemscore.Hbonds>
donor molecule, donor type, donor heavy atom, donor atom, acceptor molecule, acceptor atom, score
      P1  H  7997  8008       L1    10  0.66

> <Gold.Chemscore.Hbond.Weighted>
-2.6893

> <Gold.Chemscore.Metal.Weighted>
-0.0000

> <Gold.Chemscore.Lipo.Weighted>
-15.8552

> <Gold.Chemscore.Internal_Hbond.Weighted>
0.0000

> <Gold.Chemscore.DEClash.Weighted>
0.0341

> <Gold.Chemscore.DEInternal.Weighted>
0.6315

> <Gold.Chemscore.Rot.Weighted>
5.6005

> <Gold.Chemscore.Internal.Correction.Weighted>
   9.000000E+99

> <Gold.Protein.RotatedTorsions>
[ 6907 6896 6895 6894 ] final -145.98 input  -60.11 | X-H torsion
[ 7974 7965 7964 7962 ] final  -29.18 input  175.53 | X-H torsion
[ 8008 7997 7996 7995 ] final  -40.11 input   59.86 | X-H torsion
[ 10167 10162 10161 10158 ] final -150.98 input  -65.29 | X-H torsion
[ 10718 10713 10712 10709 ] final  -15.13 input   66.30 | X-H torsion
[ 10763 10752 10751 10750 ] final  111.86 input  -60.55 | X-H torsion
[ 11005 11000 10999 10996 ] final  166.69 input  -57.11 | X-H torsion

> <Gold.Protein.ActiveResidues>
 VAL166  LYS551  ARG553  GLY616  TRP617  ASP618  TYR619  PRO620  LYS621  CYS622 
 ASP623  PHE694  ASN695  SER759  ASP760  ASP761  ALA762  ILE779  LEU786  VAL792 
 PHE793  MET794  SER795  GLU796  ALA797  LYS798  CYS799  TRP800  GLU811  SER814 

> <Gold.Protein.RotatedAtoms>
  151.1353  133.5008  159.2597 H   0  0  0  0  0  0  0  0  0  0  0  0  # atno 6907 bound_to 6896
  151.1713  135.0319  159.8763 H   0  0  0  0  0  0  0  0  0  0  0  0  # atno 6908 bound_to 6896
  152.5461  134.1216  159.8454 H   0  0  0  0  0  0  0  0  0  0  0  0  # atno 6909 bound_to 6896
  146.1235  140.5379  142.8725 H   0  0  0  0  0  0  0  0  0  0  0  0  # atno 7974 bound_to 7965
  154.4015  140.1534  156.2974 H   0  0  0  0  0  0  0  0  0  0  0  0  # atno 8008 bound_to 7997
  155.8731  140.3448  155.5813 H   0  0  0  0  0  0  0  0  0  0  0  0  # atno 8009 bound_to 7997
  155.7751  140.0836  157.2078 H   0  0  0  0  0  0  0  0  0  0  0  0  # atno 8010 bound_to 7997
  139.7307  143.8813  152.2534 H   0  0  0  0  0  0  0  0  0  0  0  0  # atno 10167 bound_to 10162
  156.6062  130.4837  149.6220 H   0  0  0  0  0  0  0  0  0  0  0  0  # atno 10718 bound_to 10713
  153.4695  135.3704  155.2383 H   0  0  0  0  0  0  0  0  0  0  0  0  # atno 10763 bound_to 10752
  154.8757  135.3928  154.3829 H   0  0  0  0  0  0  0  0  0  0  0  0  # atno 10764 bound_to 10752
  153.4415  135.7084  153.6230 H   0  0  0  0  0  0  0  0  0  0  0  0  # atno 10765 bound_to 10752
  140.2691  134.7841  157.3659 H   0  0  0  0  0  0  0  0  0  0  0  0  # atno 11005 bound_to 11000
  144.7620  140.5443  143.6729 LP  0  0  0  0  0  0  0  0  0  0  0  0  # atno 17320 bound_to 7965
  145.5415  139.1475  143.3444 LP  0  0  0  0  0  0  0  0  0  0  0  0  # atno 17321 bound_to 7965
  139.8735  144.7056  150.8960 LP  0  0  0  0  0  0  0  0  0  0  0  0  # atno 17342 bound_to 10162
  140.7770  143.3719  151.1634 LP  0  0  0  0  0  0  0  0  0  0  0  0  # atno 17343 bound_to 10162
  156.2428  130.6861  151.1572 LP  0  0  0  0  0  0  0  0  0  0  0  0  # atno 17370 bound_to 10713
  157.7266  131.0645  150.5900 LP  0  0  0  0  0  0  0  0  0  0  0  0  # atno 17371 bound_to 10713
  140.1391  134.4996  155.8046 LP  0  0  0  0  0  0  0  0  0  0  0  0  # atno 17394 bound_to 11000
  141.2180  133.6818  156.7177 LP  0  0  0  0  0  0  0  0  0  0  0  0  # atno 17395 bound_to 11000

$$$$
