AV-unprocessed.smi:2823|AV-procd|sdf|10885|dock9
  -GOLD-   2272015323D 1   1.00000     0.00000
 Structure written by MMmdl.
 41 42  0  0  0  0  0  0  0  0  2 V2000
  145.2477  134.0493  162.6284 C   0  0  0  0  0  0  0  0  0  0  0  0
  146.0764  135.1224  162.0095 C   0  0  0  0  0  0  0  0  0  0  0  0
  145.5367  136.2635  161.6075 N   0  0  0  0  0  0  0  0  0  0  0  0
  146.6353  136.9743  161.1045 O   0  0  0  0  0  0  0  0  0  0  0  0
  147.7209  136.1719  161.2565 C   0  0  0  0  0  0  0  0  0  0  0  0
  148.9442  136.5708  160.8710 N   0  5  0  0  0  0  0  0  0  0  0  0
  149.2899  136.5143  159.5652 C   0  0  0  0  0  0  0  0  0  0  0  0
  149.3336  135.4995  158.8668 O   0  0  0  0  0  0  0  0  0  0  0  0
  149.5974  137.7084  159.0373 N   0  0  0  0  0  0  0  0  0  0  0  0
  149.9871  137.9819  157.6525 C   0  0  0  0  0  0  0  0  0  0  0  0
  150.6864  139.3663  157.4792 C   0  0  0  0  0  0  0  0  0  0  0  0
  151.4786  139.4738  156.1321 C   0  0  0  0  0  0  0  0  0  0  0  0
  151.0985  140.3022  155.3004 O   0  0  0  0  0  0  0  0  0  0  0  0
  152.5449  138.6763  155.8495 N   0  0  0  0  0  0  0  0  0  0  0  0
  153.1642  138.7466  154.5222 C   0  0  0  0  0  0  0  0  0  0  0  0
  153.1979  137.6970  156.7243 C   0  0  0  0  0  0  0  0  0  0  0  0
  149.5949  140.4693  157.5787 C   0  0  0  0  0  0  0  0  0  0  0  0
  150.2882  141.7600  158.0277 C   0  0  0  0  0  0  0  0  0  0  0  0
  151.5558  141.3099  158.7563 C   0  0  0  0  0  0  0  0  0  0  0  0
  151.5719  139.7767  158.6825 C   0  0  0  0  0  0  0  0  0  0  0  0
  147.4191  135.0056  161.8289 N   0  0  0  0  0  0  0  0  0  0  0  0
  144.2295  134.0755  162.2383 H   0  0  0  0  0  0  0  0  0  0  0  0
  145.2097  134.1820  163.7096 H   0  0  0  0  0  0  0  0  0  0  0  0
  145.6722  133.0682  162.4136 H   0  0  0  0  0  0  0  0  0  0  0  0
  149.5436  138.5058  159.6539 H   0  0  0  0  0  0  0  0  0  0  0  0
  150.6801  137.1901  157.3666 H   0  0  0  0  0  0  0  0  0  0  0  0
  149.1418  137.8438  156.9833 H   0  0  0  0  0  0  0  0  0  0  0  0
  153.5980  139.7329  154.3511 H   0  0  0  0  0  0  0  0  0  0  0  0
  152.4255  138.5558  153.7418 H   0  0  0  0  0  0  0  0  0  0  0  0
  153.9598  138.0113  154.3942 H   0  0  0  0  0  0  0  0  0  0  0  0
  152.9080  137.7324  157.7686 H   0  0  0  0  0  0  0  0  0  0  0  0
  154.2782  137.8439  156.7064 H   0  0  0  0  0  0  0  0  0  0  0  0
  152.9983  136.6876  156.3645 H   0  0  0  0  0  0  0  0  0  0  0  0
  149.0229  140.6095  156.6602 H   0  0  0  0  0  0  0  0  0  0  0  0
  148.8647  140.1973  158.3425 H   0  0  0  0  0  0  0  0  0  0  0  0
  150.5519  142.3716  157.1643 H   0  0  0  0  0  0  0  0  0  0  0  0
  149.6394  142.3601  158.6663 H   0  0  0  0  0  0  0  0  0  0  0  0
  152.4331  141.7213  158.2554 H   0  0  0  0  0  0  0  0  0  0  0  0
  151.5778  141.6572  159.7897 H   0  0  0  0  0  0  0  0  0  0  0  0
  151.1489  139.3709  159.6025 H   0  0  0  0  0  0  0  0  0  0  0  0
  152.6013  139.4285  158.6343 H   0  0  0  0  0  0  0  0  0  0  0  0
  1  2  1  0  0  0  0
  1 22  1  0  0  0  0
  1 23  1  0  0  0  0
  1 24  1  0  0  0  0
  2 21  1  0  0  0  0
  2  3  2  0  0  0  0
  3  4  1  0  0  0  0
  4  5  1  0  0  0  0
  5  6  1  0  0  0  0
  5 21  2  0  0  0  0
  6  7  1  0  0  0  0
  7  8  2  0  0  0  0
  7  9  1  0  0  0  0
  9 10  1  0  0  0  0
  9 25  1  0  0  0  0
 10 11  1  0  0  0  0
 10 26  1  0  0  0  0
 10 27  1  0  0  0  0
 11 20  1  0  0  0  0
 11 12  1  0  0  0  0
 11 17  1  0  0  0  0
 12 13  2  0  0  0  0
 12 14  1  0  0  0  0
 14 15  1  0  0  0  0
 14 16  1  0  0  0  0
 15 28  1  0  0  0  0
 15 29  1  0  0  0  0
 15 30  1  0  0  0  0
 16 31  1  0  0  0  0
 16 32  1  0  0  0  0
 16 33  1  0  0  0  0
 17 18  1  0  0  0  0
 17 34  1  0  0  0  0
 17 35  1  0  0  0  0
 18 19  1  0  0  0  0
 18 36  1  0  0  0  0
 18 37  1  0  0  0  0
 19 20  1  0  0  0  0
 19 38  1  0  0  0  0
 19 39  1  0  0  0  0
 20 40  1  0  0  0  0
 20 41  1  0  0  0  0
M  CHG  1   6  -1
M  END
> <s_m_source_file>
AV-unprocessed.smi

> <i_m_source_file_index>
2823

> <i_lp_mmshare_version>
43012

> <i_f3d_flags>
0

> <s_epik_input>
W0NIM11jMW5vYyhuMSlbTkhdQyg9TylbTkhdW0NIMl1DMihDKD1PKU4oW0NIM10pW0NIM10pW0NIMl1bQ0gyXVtDSDJdW0NIMl0y

> <s_epik_cmdline>
J2VwaWtfcHl0aG9uJywgJy1waCcsICc3LjAnLCAnLXRuJywgJzgnLCAnLW1hJywgJzIwMCcsICctbWV0YWxfYmluZGluZycsICctaW1hZScsICc8aW5maWxlLm1hZT4nLCAnLW9tYWUnLCAnPG91dGZpbGUubWFlPic=

> <r_lp_tautomer_probability>
1

> <r_epik_Ionization_Penalty>
6.03325

> <r_epik_Ionization_Penalty_Charging>
6.03318

> <r_epik_Ionization_Penalty_Neutral>
6.91426e-05

> <r_epik_State_Penalty>
6.03316

> <r_epik_Charging_Adjusted_Penalty>
12.0663

> <i_epik_Tot_Q>
-1

> <i_epik_Tot_abs_Q>
1

> <r_epik_Metal_State_Penalty>
1.98358

> <b_epik_Metal_Only>
1

> <s_lp_Force_Field>
OPLS_2005

> <r_lp_Energy>
29.6758

> <b_lp_Chiralities_Consistent>
1

> <s_lp_Variant>
AV-unprocessed.smi:2823-2

> <Gold.Version>
5.8.1

> <Gold.Id.Protein>
6NUR|6NUR_protein|mol2

> <Gold.PLP.Fitness>
43.1241

> <Gold.PLP.PLP>
-31.4266

> <Gold.PLP.part.hbond>
-4.0000

> <Gold.PLP.part.metal>
0.0000

> <Gold.PLP.part.buried>
-6.9825

> <Gold.PLP.part.nonpolar>
-22.5321

> <Gold.PLP.part.repulsive>
0.2695

> <Gold.PLP.ligand.clash>
0.0000

> <Gold.PLP.ligand.torsion>
1.7532

> <Gold.PLP.Chemscore.Hbond>
5.0000

> <Gold.PLP.Chemscore.CHOScore>
0.0000

> <Gold.PLP.Chemscore.Metal>
0.0000

> <Gold.Chemscore.Hbonds>
donor molecule, donor type, donor heavy atom, donor atom, acceptor molecule, acceptor atom, score
      P1  H  6896  6908       L1     8  1.00
      P1  H  6931  6943       L1     6  1.85
      P1  H  6934  6947       L1     4  0.76
      P1  H  7989  7998       L1    13  1.00

> <Gold.PLP.Chemscore.Internal.Correction>
0.2039

> <Gold.Rescore>
     Score         DG    S(hbond)    S(metal)    S(lipo)     H(rot)  DE(clash)    DE(int)     intcor
     15.20     -17.04       3.14        0.00      46.69       1.71       0.00       1.84       ----

> <Gold.Chemscore.Fitness>
15.1981

> <Gold.Chemscore.DG>
-17.0413

> <Gold.Chemscore.ZeroCoef>
-5.4800

> <Gold.Chemscore.Hbond>
3.1403

> <Gold.Chemscore.Metal>
0.0000

> <Gold.Chemscore.Lipo>
46.6902

> <Gold.Chemscore.Internal_Hbond>
0.0000

> <Gold.Chemscore.DEClash>
0.0021

> <Gold.Chemscore.DEInternal>
1.8410

> <Gold.Chemscore.Rot>
1.7149

> <Gold.Chemscore.Internal.Correction>
   9.000000E+99

> <Gold.Chemscore.Hbonds>
donor molecule, donor type, donor heavy atom, donor atom, acceptor molecule, acceptor atom, score
      P1  H  6896  6908       L1     8  0.69
      P1  H  6931  6943       L1     6  0.20
      P1  H  6934  6947       L1     4  0.63
      P1  H  7989  7998       L1    13  0.95

> <Gold.Chemscore.Hbond.Weighted>
-10.4887

> <Gold.Chemscore.Metal.Weighted>
-0.0000

> <Gold.Chemscore.Lipo.Weighted>
-5.4627

> <Gold.Chemscore.Internal_Hbond.Weighted>
0.0000

> <Gold.Chemscore.DEClash.Weighted>
0.0021

> <Gold.Chemscore.DEInternal.Weighted>
1.8410

> <Gold.Chemscore.Rot.Weighted>
4.3901

> <Gold.Chemscore.Internal.Correction.Weighted>
   9.000000E+99

> <Gold.Protein.RotatedTorsions>
[ 6907 6896 6895 6894 ] final  157.27 input  -60.11 | X-H torsion
[ 7974 7965 7964 7962 ] final  -61.62 input  175.53 | X-H torsion
[ 8008 7997 7996 7995 ] final  -85.64 input   59.86 | X-H torsion
[ 10167 10162 10161 10158 ] final -140.03 input  -65.29 | X-H torsion
[ 10718 10713 10712 10709 ] final -143.34 input   66.30 | X-H torsion
[ 10763 10752 10751 10750 ] final  164.31 input  -60.55 | X-H torsion
[ 11005 11000 10999 10996 ] final -138.65 input  -57.11 | X-H torsion

> <Gold.Protein.ActiveResidues>
 VAL166  LYS551  ARG553  GLY616  TRP617  ASP618  TYR619  PRO620  LYS621  CYS622 
 ASP623  PHE694  ASN695  SER759  ASP760  ASP761  ALA762  ILE779  LEU786  VAL792 
 PHE793  MET794  SER795  GLU796  ALA797  LYS798  CYS799  TRP800  GLU811  SER814 

> <Gold.Protein.RotatedAtoms>
  152.0175  133.3885  159.4244 H   0  0  0  0  0  0  0  0  0  0  0  0  # atno 6907 bound_to 6896
  150.6893  134.3663  159.4981 H   0  0  0  0  0  0  0  0  0  0  0  0  # atno 6908 bound_to 6896
  152.1432  134.9046  160.0603 H   0  0  0  0  0  0  0  0  0  0  0  0  # atno 6909 bound_to 6896
  145.8012  140.8654  143.0230 H   0  0  0  0  0  0  0  0  0  0  0  0  # atno 7974 bound_to 7965
  154.6430  140.0589  156.9867 H   0  0  0  0  0  0  0  0  0  0  0  0  # atno 8008 bound_to 7997
  155.1488  140.3272  155.4417 H   0  0  0  0  0  0  0  0  0  0  0  0  # atno 8009 bound_to 7997
  156.2540  140.1951  156.6601 H   0  0  0  0  0  0  0  0  0  0  0  0  # atno 8010 bound_to 7997
  139.8321  143.7433  152.2665 H   0  0  0  0  0  0  0  0  0  0  0  0  # atno 10167 bound_to 10162
  156.3568  130.7717  151.1879 H   0  0  0  0  0  0  0  0  0  0  0  0  # atno 10718 bound_to 10713
  154.3069  135.2758  155.2584 H   0  0  0  0  0  0  0  0  0  0  0  0  # atno 10763 bound_to 10752
  154.4996  135.5811  153.6525 H   0  0  0  0  0  0  0  0  0  0  0  0  # atno 10764 bound_to 10752
  152.9893  135.6154  154.3244 H   0  0  0  0  0  0  0  0  0  0  0  0  # atno 10765 bound_to 10752
  140.8596  134.2186  157.4715 H   0  0  0  0  0  0  0  0  0  0  0  0  # atno 11005 bound_to 11000
  144.6768  140.0262  143.7483 LP  0  0  0  0  0  0  0  0  0  0  0  0  # atno 17320 bound_to 7965
  145.9876  139.2989  143.1004 LP  0  0  0  0  0  0  0  0  0  0  0  0  # atno 17321 bound_to 7965
  139.7644  144.7496  151.0317 LP  0  0  0  0  0  0  0  0  0  0  0  0  # atno 17342 bound_to 10162
  140.7806  143.4715  151.0140 LP  0  0  0  0  0  0  0  0  0  0  0  0  # atno 17343 bound_to 10162
  157.7468  131.0411  150.4632 LP  0  0  0  0  0  0  0  0  0  0  0  0  # atno 17370 bound_to 10713
  156.4837  130.4079  149.6447 LP  0  0  0  0  0  0  0  0  0  0  0  0  # atno 17371 bound_to 10713
  139.8706  134.9723  156.4767 LP  0  0  0  0  0  0  0  0  0  0  0  0  # atno 17394 bound_to 11000
  140.8698  133.7997  155.9353 LP  0  0  0  0  0  0  0  0  0  0  0  0  # atno 17395 bound_to 11000

$$$$
