AV-unprocessed.smi:36|AV-procd|sdf|295|dock6
  -GOLD-   2262016 93D 1   1.00000     0.00000
 Structure written by MMmdl.
 63 66  0  0  0  0  0  0  0  0  2 V2000
  145.1668  133.1959  162.9995 C   0  0  0  0  0  0  0  0  0  0  0  0
  146.2352  133.4652  161.9270 C   0  0  0  0  0  0  0  0  0  0  0  0
  147.2648  134.4737  162.4645 C   0  0  0  0  0  0  0  0  0  0  0  0
  146.9375  132.1515  161.5460 C   0  0  0  0  0  0  0  0  0  0  0  0
  145.3957  134.2072  160.3800 Si  0  0  0  0  0  0  0  0  0  0  0  0
  144.1151  132.9998  159.6581 C   0  0  0  0  0  0  0  0  0  0  0  0
  144.5551  135.8633  160.7803 C   0  0  0  0  0  0  0  0  0  0  0  0
  146.6022  134.5007  159.2284 O   0  0  0  0  0  0  0  0  0  0  0  0
  147.2611  133.4894  158.4935 C   0  0  0  0  0  0  0  0  0  0  0  0
  148.5767  134.0487  157.9355 C   0  0  2  0  0  0  0  0  0  0  0  0
  148.2995  134.9731  156.8880 O   0  0  0  0  0  0  0  0  0  0  0  0
  149.3433  134.9759  155.9597 C   0  0  1  0  0  0  0  0  0  0  0  0
  149.9969  136.3184  155.9946 N   0  0  0  0  0  0  0  0  0  0  0  0
  150.0816  137.2412  155.0142 C   0  0  0  0  0  0  0  0  0  0  0  0
  150.7298  138.3713  155.2909 N   0  0  0  0  0  0  0  0  0  0  0  0
  151.1170  138.1582  156.6063 C   0  0  0  0  0  0  0  0  0  0  0  0
  151.8536  138.9494  157.5308 C   0  0  0  0  0  0  0  0  0  0  0  0
  152.3319  140.1667  157.2298 N   0  5  0  0  0  0  0  0  0  0  0  0
  151.4782  141.2104  157.0754 C   0  0  0  0  0  0  0  0  0  0  0  0
  150.6229  141.3649  156.2011 O   0  0  0  0  0  0  0  0  0  0  0  0
  151.6944  142.3108  158.0802 C   0  0  0  0  0  0  0  0  0  0  0  0
  151.1470  143.5925  157.8429 C   0  0  0  0  0  0  0  0  0  0  0  0
  151.3176  144.6297  158.7805 C   0  0  0  0  0  0  0  0  0  0  0  0
  152.0303  144.3939  159.9707 C   0  0  0  0  0  0  0  0  0  0  0  0
  152.5680  143.1185  160.2249 C   0  0  0  0  0  0  0  0  0  0  0  0
  152.3973  142.0805  159.2881 C   0  0  0  0  0  0  0  0  0  0  0  0
  152.0466  138.4275  158.7693 N   0  0  0  0  0  0  0  0  0  0  0  0
  151.5675  137.2158  159.0753 C   0  0  0  0  0  0  0  0  0  0  0  0
  150.8728  136.3681  158.3099 N   0  0  0  0  0  0  0  0  0  0  0  0
  150.6664  136.8858  157.0641 C   0  0  0  0  0  0  0  0  0  0  0  0
  150.3335  133.8859  156.3811 C   0  0  0  0  0  0  0  0  0  0  0  0
  149.4602  133.0056  157.2515 C   0  0  1  0  0  0  0  0  0  0  0  0
  150.2380  132.2697  158.1738 O   0  0  0  0  0  0  0  0  0  0  0  0
  145.6103  132.7835  163.9064 H   0  0  0  0  0  0  0  0  0  0  0  0
  144.4196  132.4842  162.6479 H   0  0  0  0  0  0  0  0  0  0  0  0
  144.6440  134.1119  163.2760 H   0  0  0  0  0  0  0  0  0  0  0  0
  146.7933  135.4243  162.7170 H   0  0  0  0  0  0  0  0  0  0  0  0
  148.0432  134.6795  161.7296 H   0  0  0  0  0  0  0  0  0  0  0  0
  147.7547  134.1002  163.3641 H   0  0  0  0  0  0  0  0  0  0  0  0
  147.4324  131.7028  162.4079 H   0  0  0  0  0  0  0  0  0  0  0  0
  147.6961  132.3136  160.7798 H   0  0  0  0  0  0  0  0  0  0  0  0
  146.2282  131.4205  161.1572 H   0  0  0  0  0  0  0  0  0  0  0  0
  143.3022  132.8149  160.3601 H   0  0  0  0  0  0  0  0  0  0  0  0
  144.5601  132.0345  159.4187 H   0  0  0  0  0  0  0  0  0  0  0  0
  143.6685  133.3869  158.7426 H   0  0  0  0  0  0  0  0  0  0  0  0
  143.7754  135.7461  161.5323 H   0  0  0  0  0  0  0  0  0  0  0  0
  144.0904  136.2985  159.8959 H   0  0  0  0  0  0  0  0  0  0  0  0
  145.2691  136.5925  161.1623 H   0  0  0  0  0  0  0  0  0  0  0  0
  147.4547  132.6383  159.1472 H   0  0  0  0  0  0  0  0  0  0  0  0
  146.6147  133.1349  157.6906 H   0  0  0  0  0  0  0  0  0  0  0  0
  149.1465  134.5616  158.7116 H   0  0  0  0  0  0  0  0  0  0  0  0
  148.9529  134.8561  154.9487 H   0  0  0  0  0  0  0  0  0  0  0  0
  149.6440  137.0742  154.0411 H   0  0  0  0  0  0  0  0  0  0  0  0
  150.5962  143.7901  156.9348 H   0  0  0  0  0  0  0  0  0  0  0  0
  150.8998  145.6062  158.5857 H   0  0  0  0  0  0  0  0  0  0  0  0
  152.1607  145.1891  160.6896 H   0  0  0  0  0  0  0  0  0  0  0  0
  153.1093  142.9338  161.1408 H   0  0  0  0  0  0  0  0  0  0  0  0
  152.8092  141.1061  159.5080 H   0  0  0  0  0  0  0  0  0  0  0  0
  151.7703  136.8763  160.0801 H   0  0  0  0  0  0  0  0  0  0  0  0
  150.7518  133.3741  155.5141 H   0  0  0  0  0  0  0  0  0  0  0  0
  151.1466  134.3250  156.9626 H   0  0  0  0  0  0  0  0  0  0  0  0
  148.8627  132.3333  156.6339 H   0  0  0  0  0  0  0  0  0  0  0  0
  150.3804  131.4030  157.8245 H   0  0  0  0  0  0  0  0  0  0  0  0
  1  2  1  0  0  0  0
  1 34  1  0  0  0  0
  1 35  1  0  0  0  0
  1 36  1  0  0  0  0
  2  3  1  0  0  0  0
  2  4  1  0  0  0  0
  2  5  1  0  0  0  0
  3 37  1  0  0  0  0
  3 38  1  0  0  0  0
  3 39  1  0  0  0  0
  4 40  1  0  0  0  0
  4 41  1  0  0  0  0
  4 42  1  0  0  0  0
  5  6  1  0  0  0  0
  5  7  1  0  0  0  0
  5  8  1  0  0  0  0
  6 43  1  0  0  0  0
  6 44  1  0  0  0  0
  6 45  1  0  0  0  0
  7 46  1  0  0  0  0
  7 47  1  0  0  0  0
  7 48  1  0  0  0  0
  8  9  1  0  0  0  0
  9 10  1  0  0  0  0
  9 49  1  0  0  0  0
  9 50  1  0  0  0  0
 10 32  1  0  0  0  0
 10 11  1  0  0  0  0
 10 51  1  0  0  0  0
 11 12  1  0  0  0  0
 12 13  1  0  0  0  0
 12 31  1  0  0  0  0
 12 52  1  0  0  0  0
 13 30  1  0  0  0  0
 13 14  1  0  0  0  0
 14 15  2  0  0  0  0
 14 53  1  0  0  0  0
 15 16  1  0  0  0  0
 16 30  2  0  0  0  0
 16 17  1  0  0  0  0
 17 18  1  0  0  0  0
 17 27  2  0  0  0  0
 18 19  1  0  0  0  0
 19 20  2  0  0  0  0
 19 21  1  0  0  0  0
 21 26  1  0  0  0  0
 21 22  2  0  0  0  0
 22 23  1  0  0  0  0
 22 54  1  0  0  0  0
 23 24  2  0  0  0  0
 23 55  1  0  0  0  0
 24 25  1  0  0  0  0
 24 56  1  0  0  0  0
 25 26  2  0  0  0  0
 25 57  1  0  0  0  0
 26 58  1  0  0  0  0
 27 28  1  0  0  0  0
 28 29  2  0  0  0  0
 28 59  1  0  0  0  0
 29 30  1  0  0  0  0
 31 32  1  0  0  0  0
 31 60  1  0  0  0  0
 31 61  1  0  0  0  0
 32 33  1  0  0  0  0
 32 62  1  0  0  0  0
 33 63  1  0  0  0  0
M  CHG  1  18  -1
M  END
> <s_m_source_file>
AV-unprocessed.smi

> <i_m_source_file_index>
36

> <i_lp_mmshare_version>
43012

> <i_f3d_flags>
0

> <s_epik_input>
W0NIM11DKFtDSDNdKShbQ0gzXSlbU2ldKFtDSDNdKShbQ0gzXSlPW0NIMl1bQ0BASF0xT1tDQEhdKFtDSDJdW0NASF0xW09IXSluKFtjSF1uMiljKGMyMyluW2NIXW5jM1tOSF1DKD1PKWM0W2NIXVtjSF1bY0hdW2NIXVtjSF00

> <s_epik_cmdline>
J2VwaWtfcHl0aG9uJywgJy1waCcsICc3LjAnLCAnLXRuJywgJzgnLCAnLW1hJywgJzIwMCcsICctbWV0YWxfYmluZGluZycsICctaW1hZScsICc8aW5maWxlLm1hZT4nLCAnLW9tYWUnLCAnPG91dGZpbGUubWFlPic=

> <r_lp_tautomer_probability>
1

> <r_epik_Ionization_Penalty>
4.75685

> <r_epik_Ionization_Penalty_Charging>
3.55822

> <r_epik_Ionization_Penalty_Neutral>
1.19863

> <r_epik_State_Penalty>
3.564

> <r_epik_Charging_Adjusted_Penalty>
7.12222

> <i_epik_Tot_Q>
-1

> <i_epik_Tot_abs_Q>
1

> <r_epik_Metal_State_Penalty>
0.523258

> <b_epik_Metal_Only>
1

> <s_epik_Chemistry_Notes>
This compound contains an acetal/aminal-like group ( X-CH(R)-Y where X, Y are N, S, or O) that may be acid/base labile, releasing an aldehyde.

> <s_lp_Force_Field>
OPLS_2005

> <r_lp_Energy>
36.9476

> <b_lp_Chiralities_Consistent>
1

> <s_lp_Variant>
AV-unprocessed.smi:36-17

> <Gold.Version>
5.8.1

> <Gold.Id.Protein>
6NUR|6NUR_protein|mol2

> <Gold.PLP.Fitness>
55.3506

> <Gold.PLP.PLP>
-45.2708

> <Gold.PLP.part.hbond>
-3.0000

> <Gold.PLP.part.metal>
0.0000

> <Gold.PLP.part.buried>
-6.6506

> <Gold.PLP.part.nonpolar>
-35.6655

> <Gold.PLP.part.repulsive>
0.1254

> <Gold.PLP.ligand.clash>
0.0000

> <Gold.PLP.ligand.torsion>
1.7004

> <Gold.PLP.Chemscore.Hbond>
3.3854

> <Gold.PLP.Chemscore.CHOScore>
1.0000

> <Gold.PLP.Chemscore.Metal>
0.0000

> <Gold.Chemscore.Hbonds>
donor molecule, donor type, donor heavy atom, donor atom, acceptor molecule, acceptor atom, score
      P1  H  6896  6907       L1    33  1.00
      P1  H  6896  6908       L1    29  0.26
      P1  H  7997  8008       L1    18  1.53
      L1  C    14    53       P1  7948  1.00

> <Gold.PLP.Chemscore.Internal.Correction>
0.3245

> <Gold.Rescore>
     Score         DG    S(hbond)    S(metal)    S(lipo)     H(rot)  DE(clash)    DE(int)     intcor
     16.07     -17.90       1.72        0.00     115.63       2.67       0.06       1.77       ----

> <Gold.Chemscore.Fitness>
16.0688

> <Gold.Chemscore.DG>
-17.9037

> <Gold.Chemscore.ZeroCoef>
-5.4800

> <Gold.Chemscore.Hbond>
1.7156

> <Gold.Chemscore.Metal>
0.0000

> <Gold.Chemscore.Lipo>
115.6349

> <Gold.Chemscore.Internal_Hbond>
0.0000

> <Gold.Chemscore.DEClash>
0.0641

> <Gold.Chemscore.DEInternal>
1.7707

> <Gold.Chemscore.Rot>
2.6702

> <Gold.Chemscore.Internal.Correction>
   9.000000E+99

> <Gold.Chemscore.Hbonds>
donor molecule, donor type, donor heavy atom, donor atom, acceptor molecule, acceptor atom, score
      P1  H  6896  6907       L1    33  0.74
      P1  H  6896  6908       L1    29  0.01
      P1  H  7997  8008       L1    18  0.61

> <Gold.Chemscore.Hbond.Weighted>
-5.7301

> <Gold.Chemscore.Metal.Weighted>
-0.0000

> <Gold.Chemscore.Lipo.Weighted>
-13.5293

> <Gold.Chemscore.Internal_Hbond.Weighted>
0.0000

> <Gold.Chemscore.DEClash.Weighted>
0.0641

> <Gold.Chemscore.DEInternal.Weighted>
1.7707

> <Gold.Chemscore.Rot.Weighted>
6.8358

> <Gold.Chemscore.Internal.Correction.Weighted>
   9.000000E+99

> <Gold.Protein.RotatedTorsions>
[ 6907 6896 6895 6894 ] final -153.02 input  -60.11 | X-H torsion
[ 7974 7965 7964 7962 ] final   21.64 input  175.53 | X-H torsion
[ 8008 7997 7996 7995 ] final  -61.84 input   59.86 | X-H torsion
[ 10167 10162 10161 10158 ] final  -68.21 input  -65.29 | X-H torsion
[ 10718 10713 10712 10709 ] final  112.64 input   66.30 | X-H torsion
[ 10763 10752 10751 10750 ] final   49.92 input  -60.55 | X-H torsion
[ 11005 11000 10999 10996 ] final -100.14 input  -57.11 | X-H torsion

> <Gold.Protein.ActiveResidues>
 VAL166  LYS551  ARG553  GLY616  TRP617  ASP618  TYR619  PRO620  LYS621  CYS622 
 ASP623  PHE694  ASN695  SER759  ASP760  ASP761  ALA762  ILE779  LEU786  VAL792 
 PHE793  MET794  SER795  GLU796  ALA797  LYS798  CYS799  TRP800  GLU811  SER814 

> <Gold.Protein.RotatedAtoms>
  151.2363  133.4423  159.2605 H   0  0  0  0  0  0  0  0  0  0  0  0  # atno 6907 bound_to 6896
  151.0747  134.9820  159.8336 H   0  0  0  0  0  0  0  0  0  0  0  0  # atno 6908 bound_to 6896
  152.5417  134.2307  159.8876 H   0  0  0  0  0  0  0  0  0  0  0  0  # atno 6909 bound_to 6896
  146.2063  139.7998  142.8723 H   0  0  0  0  0  0  0  0  0  0  0  0  # atno 7974 bound_to 7965
  154.4468  140.1009  156.6494 H   0  0  0  0  0  0  0  0  0  0  0  0  # atno 8008 bound_to 7997
  155.5414  140.3483  155.4429 H   0  0  0  0  0  0  0  0  0  0  0  0  # atno 8009 bound_to 7997
  156.0594  140.1323  156.9948 H   0  0  0  0  0  0  0  0  0  0  0  0  # atno 8010 bound_to 7997
  140.5524  143.2312  151.6885 H   0  0  0  0  0  0  0  0  0  0  0  0  # atno 10167 bound_to 10162
  157.6382  131.0971  150.6925 H   0  0  0  0  0  0  0  0  0  0  0  0  # atno 10718 bound_to 10713
  152.9785  135.5896  154.4168 H   0  0  0  0  0  0  0  0  0  0  0  0  # atno 10763 bound_to 10752
  154.3797  135.2767  155.2220 H   0  0  0  0  0  0  0  0  0  0  0  0  # atno 10764 bound_to 10752
  154.4140  135.6075  153.6024 H   0  0  0  0  0  0  0  0  0  0  0  0  # atno 10765 bound_to 10752
  141.1282  133.8376  157.1064 H   0  0  0  0  0  0  0  0  0  0  0  0  # atno 11005 bound_to 11000
  145.3308  141.0266  143.3447 LP  0  0  0  0  0  0  0  0  0  0  0  0  # atno 17320 bound_to 7965
  144.8800  139.4917  143.6727 LP  0  0  0  0  0  0  0  0  0  0  0  0  # atno 17321 bound_to 7965
  139.5033  144.3796  152.0389 LP  0  0  0  0  0  0  0  0  0  0  0  0  # atno 17342 bound_to 10162
  140.2914  144.3749  150.6087 LP  0  0  0  0  0  0  0  0  0  0  0  0  # atno 17343 bound_to 10162
  156.7253  130.4693  149.5513 LP  0  0  0  0  0  0  0  0  0  0  0  0  # atno 17370 bound_to 10713
  156.1638  130.6392  151.0753 LP  0  0  0  0  0  0  0  0  0  0  0  0  # atno 17371 bound_to 10713
  140.0302  134.9905  157.0765 LP  0  0  0  0  0  0  0  0  0  0  0  0  # atno 17394 bound_to 11000
  140.4298  134.1793  155.7167 LP  0  0  0  0  0  0  0  0  0  0  0  0  # atno 17395 bound_to 11000

$$$$
