AV-unprocessed.smi:1381|AV-procd|sdf|5613|dock3
  -GOLD-   22720 5223D 1   1.00000     0.00000
 Structure written by MMmdl.
 42 43  0  0  0  0  0  0  0  0  3 V2000
  149.1567  140.8239  154.2644 C   0  0  0  0  0  0  0  0  0  0  0  0
  150.0394  139.6423  154.4784 C   0  0  0  0  0  0  0  0  0  0  0  0
  149.8048  138.2965  154.4792 C   0  0  0  0  0  0  0  0  0  0  0  0
  151.0855  137.7437  154.7535 C   0  0  0  0  0  0  0  0  0  0  0  0
  151.3777  136.4371  154.8446 N   0  5  0  0  0  0  0  0  0  0  0  0
  150.4333  135.5534  155.2393 C   0  0  0  0  0  0  0  0  0  0  0  0
  150.1444  135.2598  156.4018 O   0  0  0  0  0  0  0  0  0  0  0  0
  149.7817  134.9711  154.2225 N   0  0  0  0  0  0  0  0  0  0  0  0
  148.7190  133.9814  154.3500 C   0  0  0  0  0  0  0  0  0  0  0  0
  149.0332  132.7121  153.5362 C   0  0  0  0  0  0  0  0  0  0  0  0
  147.8508  132.2181  152.7890 N   0  3  1  0  0  0  0  0  0  0  0  0
  146.9049  131.4731  153.6531 C   0  0  0  0  0  0  0  0  0  0  0  0
  145.7212  130.9187  152.8359 C   0  0  2  0  0  0  0  0  0  0  0  0
  146.0916  129.7118  151.9552 C   0  0  0  0  0  0  0  0  0  0  0  0
  145.1047  131.9653  152.0858 O   0  0  0  0  0  0  0  0  0  0  0  0
  145.9840  132.6800  151.2208 C   0  0  1  0  0  0  0  0  0  0  0  0
  145.1658  133.7582  150.5022 C   0  0  0  0  0  0  0  0  0  0  0  0
  147.1359  133.2826  152.0446 C   0  0  0  0  0  0  0  0  0  0  0  0
  152.0179  138.6713  154.8910 N   0  0  0  0  0  0  0  0  0  0  0  0
  151.3541  139.8921  154.7217 O   0  0  0  0  0  0  0  0  0  0  0  0
  148.9508  140.9632  153.2031 H   0  0  0  0  0  0  0  0  0  0  0  0
  149.6223  141.7349  154.6413 H   0  0  0  0  0  0  0  0  0  0  0  0
  148.2051  140.6941  154.7801 H   0  0  0  0  0  0  0  0  0  0  0  0
  148.8671  137.7876  154.3140 H   0  0  0  0  0  0  0  0  0  0  0  0
  150.0480  135.2417  153.2869 H   0  0  0  0  0  0  0  0  0  0  0  0
  148.5648  133.7554  155.4054 H   0  0  0  0  0  0  0  0  0  0  0  0
  147.7933  134.4324  153.9919 H   0  0  0  0  0  0  0  0  0  0  0  0
  149.8294  132.9540  152.8305 H   0  0  0  0  0  0  0  0  0  0  0  0
  149.4208  131.9173  154.1757 H   0  0  0  0  0  0  0  0  0  0  0  0
  147.4202  130.6563  154.1603 H   0  0  0  0  0  0  0  0  0  0  0  0
  146.5331  132.1427  154.4305 H   0  0  0  0  0  0  0  0  0  0  0  0
  144.9669  130.5706  153.5422 H   0  0  0  0  0  0  0  0  0  0  0  0
  146.4349  128.8779  152.5681 H   0  0  0  0  0  0  0  0  0  0  0  0
  146.8881  129.9422  151.2483 H   0  0  0  0  0  0  0  0  0  0  0  0
  145.2279  129.3670  151.3863 H   0  0  0  0  0  0  0  0  0  0  0  0
  146.3880  132.0053  150.4655 H   0  0  0  0  0  0  0  0  0  0  0  0
  145.7898  134.3328  149.8172 H   0  0  0  0  0  0  0  0  0  0  0  0
  144.7188  134.4546  151.2122 H   0  0  0  0  0  0  0  0  0  0  0  0
  144.3588  133.3121  149.9206 H   0  0  0  0  0  0  0  0  0  0  0  0
  146.7515  134.0237  152.7476 H   0  0  0  0  0  0  0  0  0  0  0  0
  147.8198  133.8051  151.3764 H   0  0  0  0  0  0  0  0  0  0  0  0
  148.1965  131.5566  152.1086 H   0  0  0  0  0  0  0  0  0  0  0  0
  1  2  1  0  0  0  0
  1 21  1  0  0  0  0
  1 22  1  0  0  0  0
  1 23  1  0  0  0  0
  2 20  1  0  0  0  0
  2  3  2  0  0  0  0
  3  4  1  0  0  0  0
  3 24  1  0  0  0  0
  4  5  1  0  0  0  0
  4 19  2  0  0  0  0
  5  6  1  0  0  0  0
  6  7  2  0  0  0  0
  6  8  1  0  0  0  0
  8  9  1  0  0  0  0
  8 25  1  0  0  0  0
  9 10  1  0  0  0  0
  9 26  1  0  0  0  0
  9 27  1  0  0  0  0
 10 11  1  0  0  0  0
 10 28  1  0  0  0  0
 10 29  1  0  0  0  0
 11 18  1  0  0  0  0
 11 12  1  0  0  0  0
 11 42  1  0  0  0  0
 12 13  1  0  0  0  0
 12 30  1  0  0  0  0
 12 31  1  0  0  0  0
 13 14  1  0  0  0  0
 13 15  1  0  0  0  0
 13 32  1  0  0  0  0
 14 33  1  0  0  0  0
 14 34  1  0  0  0  0
 14 35  1  0  0  0  0
 15 16  1  0  0  0  0
 16 17  1  0  0  0  0
 16 18  1  0  0  0  0
 16 36  1  0  0  0  0
 17 37  1  0  0  0  0
 17 38  1  0  0  0  0
 17 39  1  0  0  0  0
 18 40  1  0  0  0  0
 18 41  1  0  0  0  0
 19 20  1  0  0  0  0
M  CHG  1   5  -1
M  CHG  1  11   1
M  END
> <s_m_source_file>
AV-unprocessed.smi

> <i_m_source_file_index>
1381

> <i_lp_mmshare_version>
43012

> <i_f3d_flags>
0

> <s_epik_input>
W0NIM11jMVtjSF1jKG5vMSlbTkhdQyg9TylbTkhdW0NIMl1bQ0gyXU4yW0NIMl1bQ0BASF0oW0NIM10pT1tDQEBIXShbQ0gzXSlbQ0gyXTI=

> <s_epik_cmdline>
J2VwaWtfcHl0aG9uJywgJy1waCcsICc3LjAnLCAnLXRuJywgJzgnLCAnLW1hJywgJzIwMCcsICctbWV0YWxfYmluZGluZycsICctaW1hZScsICc8aW5maWxlLm1hZT4nLCAnLW9tYWUnLCAnPG91dGZpbGUubWFlPic=

> <r_epik_Ionization_Penalty>
6.73511

> <r_epik_Ionization_Penalty_Charging>
6.73502

> <r_epik_Ionization_Penalty_Neutral>
9.26583e-05

> <r_epik_State_Penalty>
6.93549

> <r_epik_Charging_Adjusted_Penalty>
13.6705

> <i_epik_Tot_Q>
0

> <i_epik_Tot_abs_Q>
2

> <r_epik_Metal_State_Penalty>
2.87211

> <b_epik_Metal_Only>
1

> <s_lp_Force_Field>
OPLS_2005

> <r_lp_Energy>
5.71057

> <b_lp_Chiralities_Consistent>
1

> <s_lp_Variant>
AV-unprocessed.smi:1381-12

> <Gold.Version>
5.8.1

> <Gold.Id.Protein>
6NUR|6NUR_protein|mol2

> <Gold.PLP.Fitness>
46.4582

> <Gold.PLP.PLP>
-37.0859

> <Gold.PLP.part.hbond>
-4.9807

> <Gold.PLP.part.metal>
0.0000

> <Gold.PLP.part.buried>
-4.1199

> <Gold.PLP.part.nonpolar>
-27.8974

> <Gold.PLP.part.repulsive>
0.4975

> <Gold.PLP.ligand.clash>
0.0000

> <Gold.PLP.ligand.torsion>
1.3571

> <Gold.PLP.Chemscore.Hbond>
4.0000

> <Gold.PLP.Chemscore.CHOScore>
0.0000

> <Gold.PLP.Chemscore.Metal>
0.0000

> <Gold.Chemscore.Hbonds>
donor molecule, donor type, donor heavy atom, donor atom, acceptor molecule, acceptor atom, score
      L1  H    11    42       P1 10747  0.83
      P1  H  7989  7998       L1    20  0.95
      P1  H 10752 10763       L1     5  2.00

> <Gold.PLP.Chemscore.Internal.Correction>
0.0865

> <Gold.Rescore>
     Score         DG    S(hbond)    S(metal)    S(lipo)     H(rot)  DE(clash)    DE(int)     intcor
     18.72     -20.02       2.89        0.00      76.25       1.58       0.06       1.24       ----

> <Gold.Chemscore.Fitness>
18.7207

> <Gold.Chemscore.DG>
-20.0194

> <Gold.Chemscore.ZeroCoef>
-5.4800

> <Gold.Chemscore.Hbond>
2.8926

> <Gold.Chemscore.Metal>
0.0000

> <Gold.Chemscore.Lipo>
76.2485

> <Gold.Chemscore.Internal_Hbond>
0.0000

> <Gold.Chemscore.DEClash>
0.0572

> <Gold.Chemscore.DEInternal>
1.2414

> <Gold.Chemscore.Rot>
1.5792

> <Gold.Chemscore.Internal.Correction>
   9.000000E+99

> <Gold.Chemscore.Hbonds>
donor molecule, donor type, donor heavy atom, donor atom, acceptor molecule, acceptor atom, score
      L1  H    11    42       P1 10747  0.80
      P1  H  7989  7998       L1    20  0.21
      P1  H 10752 10763       L1     5  0.85

> <Gold.Chemscore.Hbond.Weighted>
-9.6611

> <Gold.Chemscore.Metal.Weighted>
-0.0000

> <Gold.Chemscore.Lipo.Weighted>
-8.9211

> <Gold.Chemscore.Internal_Hbond.Weighted>
0.0000

> <Gold.Chemscore.DEClash.Weighted>
0.0572

> <Gold.Chemscore.DEInternal.Weighted>
1.2414

> <Gold.Chemscore.Rot.Weighted>
4.0428

> <Gold.Chemscore.Internal.Correction.Weighted>
   9.000000E+99

> <Gold.Protein.RotatedTorsions>
[ 6907 6896 6895 6894 ] final  -83.20 input  -60.11 | X-H torsion
[ 7974 7965 7964 7962 ] final   15.01 input  175.53 | X-H torsion
[ 8008 7997 7996 7995 ] final  -30.73 input   59.86 | X-H torsion
[ 10167 10162 10161 10158 ] final -178.83 input  -65.29 | X-H torsion
[ 10718 10713 10712 10709 ] final  162.55 input   66.30 | X-H torsion
[ 10763 10752 10751 10750 ] final   45.02 input  -60.55 | X-H torsion
[ 11005 11000 10999 10996 ] final   19.92 input  -57.11 | X-H torsion

> <Gold.Protein.ActiveResidues>
 VAL166  LYS551  ARG553  GLY616  TRP617  ASP618  TYR619  PRO620  LYS621  CYS622 
 ASP623  PHE694  ASN695  SER759  ASP760  ASP761  ALA762  ILE779  LEU786  VAL792 
 PHE793  MET794  SER795  GLU796  ALA797  LYS798  CYS799  TRP800  GLU811  SER814 

> <Gold.Protein.RotatedAtoms>
  150.6888  134.3549  159.4924 H   0  0  0  0  0  0  0  0  0  0  0  0  # atno 6907 bound_to 6896
  152.1385  134.9078  160.0564 H   0  0  0  0  0  0  0  0  0  0  0  0  # atno 6908 bound_to 6896
  152.0220  133.3868  159.4299 H   0  0  0  0  0  0  0  0  0  0  0  0  # atno 6909 bound_to 6896
  146.2290  139.8957  142.8547 H   0  0  0  0  0  0  0  0  0  0  0  0  # atno 7974 bound_to 7965
  154.4239  140.1783  156.1454 H   0  0  0  0  0  0  0  0  0  0  0  0  # atno 8008 bound_to 7997
  155.9958  140.3364  155.6772 H   0  0  0  0  0  0  0  0  0  0  0  0  # atno 8009 bound_to 7997
  155.6311  140.0670  157.2639 H   0  0  0  0  0  0  0  0  0  0  0  0  # atno 8010 bound_to 7997
  139.5414  144.2353  152.0902 H   0  0  0  0  0  0  0  0  0  0  0  0  # atno 10167 bound_to 10162
  157.1210  131.0492  151.2415 H   0  0  0  0  0  0  0  0  0  0  0  0  # atno 10718 bound_to 10713
  152.9831  135.6052  154.3369 H   0  0  0  0  0  0  0  0  0  0  0  0  # atno 10763 bound_to 10752
  154.3069  135.2772  155.2586 H   0  0  0  0  0  0  0  0  0  0  0  0  # atno 10764 bound_to 10752
  154.4814  135.5916  153.6448 H   0  0  0  0  0  0  0  0  0  0  0  0  # atno 10765 bound_to 10752
  140.4084  134.1645  155.7666 H   0  0  0  0  0  0  0  0  0  0  0  0  # atno 11005 bound_to 11000
  145.2373  140.9996  143.3956 LP  0  0  0  0  0  0  0  0  0  0  0  0  # atno 17320 bound_to 7965
  144.9480  139.4114  143.6416 LP  0  0  0  0  0  0  0  0  0  0  0  0  # atno 17321 bound_to 7965
  140.1832  144.4824  150.6517 LP  0  0  0  0  0  0  0  0  0  0  0  0  # atno 17342 bound_to 10162
  140.6645  143.2263  151.5776 LP  0  0  0  0  0  0  0  0  0  0  0  0  # atno 17343 bound_to 10162
  157.4476  130.7580  149.7123 LP  0  0  0  0  0  0  0  0  0  0  0  0  # atno 17370 bound_to 10713
  155.9828  130.4006  150.3394 LP  0  0  0  0  0  0  0  0  0  0  0  0  # atno 17371 bound_to 10713
  141.1830  133.8372  157.1188 LP  0  0  0  0  0  0  0  0  0  0  0  0  # atno 17394 bound_to 11000
  140.0285  134.9912  157.0734 LP  0  0  0  0  0  0  0  0  0  0  0  0  # atno 17395 bound_to 11000

$$$$
