AV-unprocessed.smi:2146|AV-procd|sdf|8739|dock8
  -GOLD-   2272011513D 1   1.00000     0.00000
 Structure written by MMmdl.
 44 45  0  0  0  0  0  0  0  0  1 V2000
  145.3054  140.1858  154.8138 C   0  0  0  0  0  0  0  0  0  0  0  0
  146.2268  139.8294  156.0093 C   0  0  1  0  0  0  0  0  0  0  0  0
  145.8252  138.4355  156.5724 C   0  0  0  0  0  0  0  0  0  0  0  0
  146.7054  137.9725  157.6429 N   0  0  0  0  0  0  0  0  0  0  0  0
  146.8266  136.7029  158.0607 C   0  0  0  0  0  0  0  0  0  0  0  0
  146.2127  135.7632  157.5537 O   0  0  0  0  0  0  0  0  0  0  0  0
  147.7892  136.4730  159.2341 C   0  0  0  0  0  0  0  0  0  0  0  0
  147.1458  135.8059  160.3776 N   0  0  0  0  0  0  0  0  0  0  0  0
  146.4499  134.6130  160.1012 C   0  0  0  0  0  0  0  0  0  0  0  0
  145.8229  133.8922  161.0499 C   0  0  0  0  0  0  0  0  0  0  0  0
  145.1407  132.5723  160.7262 C   0  0  0  0  0  0  0  0  0  0  0  0
  144.8646  132.4792  159.4253 F   0  0  0  0  0  0  0  0  0  0  0  0
  145.9383  131.5574  161.0558 F   0  0  0  0  0  0  0  0  0  0  0  0
  144.0013  132.4418  161.4068 F   0  0  0  0  0  0  0  0  0  0  0  0
  145.9185  134.3923  162.4074 C   0  0  0  0  0  0  0  0  0  0  0  0
  146.5922  135.5243  162.6913 C   0  0  0  0  0  0  0  0  0  0  0  0
  147.2582  136.3041  161.6453 C   0  0  0  0  0  0  0  0  0  0  0  0
  147.8796  137.3371  161.8947 O   0  0  0  0  0  0  0  0  0  0  0  0
  147.6666  139.9250  155.6696 N   0  0  0  0  0  0  0  0  0  0  0  0
  148.1459  138.7675  154.9044 C   0  0  0  0  0  0  0  0  0  0  0  0
  149.6334  138.8736  154.5262 C   0  0  0  0  0  0  0  0  0  0  0  0
  149.8568  140.0691  153.7923 O   0  0  0  0  0  0  0  0  0  0  0  0
  149.4824  141.2232  154.5312 C   0  0  0  0  0  0  0  0  0  0  0  0
  147.9934  141.1369  154.9089 C   0  0  0  0  0  0  0  0  0  0  0  0
  144.2488  140.1118  155.0671 H   0  0  0  0  0  0  0  0  0  0  0  0
  145.4871  139.5251  153.9656 H   0  0  0  0  0  0  0  0  0  0  0  0
  145.4360  141.2127  154.4765 H   0  0  0  0  0  0  0  0  0  0  0  0
  146.0190  140.5586  156.7942 H   0  0  0  0  0  0  0  0  0  0  0  0
  144.7812  138.4464  156.8899 H   0  0  0  0  0  0  0  0  0  0  0  0
  145.9025  137.6669  155.8056 H   0  0  0  0  0  0  0  0  0  0  0  0
  147.2527  138.6779  158.1147 H   0  0  0  0  0  0  0  0  0  0  0  0
  148.6492  135.9074  158.8723 H   0  0  0  0  0  0  0  0  0  0  0  0
  148.1964  137.4329  159.5575 H   0  0  0  0  0  0  0  0  0  0  0  0
  146.4725  134.3129  159.0632 H   0  0  0  0  0  0  0  0  0  0  0  0
  145.4403  133.8520  163.2110 H   0  0  0  0  0  0  0  0  0  0  0  0
  146.6433  135.8671  163.7144 H   0  0  0  0  0  0  0  0  0  0  0  0
  148.0325  137.8512  155.4805 H   0  0  0  0  0  0  0  0  0  0  0  0
  147.5494  138.6496  153.9985 H   0  0  0  0  0  0  0  0  0  0  0  0
  150.2608  138.8617  155.4189 H   0  0  0  0  0  0  0  0  0  0  0  0
  149.9306  138.0210  153.9154 H   0  0  0  0  0  0  0  0  0  0  0  0
  150.1035  141.3110  155.4240 H   0  0  0  0  0  0  0  0  0  0  0  0
  149.6680  142.1094  153.9243 H   0  0  0  0  0  0  0  0  0  0  0  0
  147.3868  141.1804  154.0032 H   0  0  0  0  0  0  0  0  0  0  0  0
  147.7645  142.0289  155.4886 H   0  0  0  0  0  0  0  0  0  0  0  0
  1  2  1  0  0  0  0
  1 25  1  0  0  0  0
  1 26  1  0  0  0  0
  1 27  1  0  0  0  0
  2  3  1  0  0  0  0
  2 19  1  0  0  0  0
  2 28  1  0  0  0  0
  3  4  1  0  0  0  0
  3 29  1  0  0  0  0
  3 30  1  0  0  0  0
  4  5  1  0  0  0  0
  4 31  1  0  0  0  0
  5  6  2  0  0  0  0
  5  7  1  0  0  0  0
  7  8  1  0  0  0  0
  7 32  1  0  0  0  0
  7 33  1  0  0  0  0
  8 17  1  0  0  0  0
  8  9  1  0  0  0  0
  9 10  2  0  0  0  0
  9 34  1  0  0  0  0
 10 11  1  0  0  0  0
 10 15  1  0  0  0  0
 11 12  1  0  0  0  0
 11 13  1  0  0  0  0
 11 14  1  0  0  0  0
 15 16  2  0  0  0  0
 15 35  1  0  0  0  0
 16 17  1  0  0  0  0
 16 36  1  0  0  0  0
 17 18  2  0  0  0  0
 19 24  1  0  0  0  0
 19 20  1  0  0  0  0
 20 21  1  0  0  0  0
 20 37  1  0  0  0  0
 20 38  1  0  0  0  0
 21 22  1  0  0  0  0
 21 39  1  0  0  0  0
 21 40  1  0  0  0  0
 22 23  1  0  0  0  0
 23 24  1  0  0  0  0
 23 41  1  0  0  0  0
 23 42  1  0  0  0  0
 24 43  1  0  0  0  0
 24 44  1  0  0  0  0
M  END
> <s_m_source_file>
AV-unprocessed.smi

> <i_m_source_file_index>
2146

> <i_lp_mmshare_version>
43012

> <i_f3d_flags>
0

> <s_epik_input>
W0NIMl0xW0NIMl1PW0NIMl1bQ0gyXU4xW0NASF0oW0NIM10pW0NIMl1bTkhdQyg9TylbQ0gyXW4yW2NIXWMoQyhGKShGKUYpW2NIXVtjSF1jMj1P

> <s_epik_cmdline>
J2VwaWtfcHl0aG9uJywgJy1waCcsICc3LjAnLCAnLXRuJywgJzgnLCAnLW1hJywgJzIwMCcsICctbWV0YWxfYmluZGluZycsICctaW1hZScsICc8aW5maWxlLm1hZT4nLCAnLW9tYWUnLCAnPG91dGZpbGUubWFlPic=

> <r_lp_tautomer_probability>
1

> <r_epik_Ionization_Penalty>
0.237382

> <r_epik_Ionization_Penalty_Charging>
1.80451e-08

> <r_epik_Ionization_Penalty_Neutral>
0.237382

> <r_epik_State_Penalty>
0.228245

> <r_epik_Charging_Adjusted_Penalty>
0.228245

> <i_epik_Tot_Q>
0

> <i_epik_Tot_abs_Q>
0

> <r_epik_Metal_State_Penalty>
0.22822

> <b_epik_Metal_Only>
0

> <s_lp_Force_Field>
OPLS_2005

> <r_lp_Energy>
40.9895

> <b_lp_Chiralities_Consistent>
1

> <s_lp_Variant>
AV-unprocessed.smi:2146-2

> <Gold.Version>
5.8.1

> <Gold.Id.Protein>
6NUR|6NUR_protein|mol2

> <Gold.PLP.Fitness>
41.7354

> <Gold.PLP.PLP>
-36.7934

> <Gold.PLP.part.hbond>
-2.7788

> <Gold.PLP.part.metal>
0.0000

> <Gold.PLP.part.buried>
-4.0799

> <Gold.PLP.part.nonpolar>
-30.1480

> <Gold.PLP.part.repulsive>
0.7973

> <Gold.PLP.ligand.clash>
0.2606

> <Gold.PLP.ligand.torsion>
1.2407

> <Gold.PLP.Chemscore.Hbond>
2.5280

> <Gold.PLP.Chemscore.CHOScore>
0.0000

> <Gold.PLP.Chemscore.Metal>
0.0000

> <Gold.Chemscore.Hbonds>
donor molecule, donor type, donor heavy atom, donor atom, acceptor molecule, acceptor atom, score
      P1  H  6931  6943       L1    18  0.84
      P1  H  6934  6947       L1    18  0.52
      P1  H  7989  7998       L1    22  0.35

> <Gold.PLP.Chemscore.Internal.Correction>
0.1000

> <Gold.Rescore>
     Score         DG    S(hbond)    S(metal)    S(lipo)     H(rot)  DE(clash)    DE(int)     intcor
     13.76     -16.09       2.50        0.00      65.26       2.10       0.00       2.33       ----

> <Gold.Chemscore.Fitness>
13.7586

> <Gold.Chemscore.DG>
-16.0856

> <Gold.Chemscore.ZeroCoef>
-5.4800

> <Gold.Chemscore.Hbond>
2.5019

> <Gold.Chemscore.Metal>
0.0000

> <Gold.Chemscore.Lipo>
65.2588

> <Gold.Chemscore.Internal_Hbond>
0.0000

> <Gold.Chemscore.DEClash>
0.0009

> <Gold.Chemscore.DEInternal>
2.3262

> <Gold.Chemscore.Rot>
2.1039

> <Gold.Chemscore.Internal.Correction>
   9.000000E+99

> <Gold.Chemscore.Hbonds>
donor molecule, donor type, donor heavy atom, donor atom, acceptor molecule, acceptor atom, score
      P1  H  6931  6943       L1    18  0.78
      P1  H  6934  6947       L1    18  0.45
      P1  H  7989  7998       L1    22  0.01

> <Gold.Chemscore.Hbond.Weighted>
-8.3563

> <Gold.Chemscore.Metal.Weighted>
-0.0000

> <Gold.Chemscore.Lipo.Weighted>
-7.6353

> <Gold.Chemscore.Internal_Hbond.Weighted>
0.0000

> <Gold.Chemscore.DEClash.Weighted>
0.0009

> <Gold.Chemscore.DEInternal.Weighted>
2.3262

> <Gold.Chemscore.Rot.Weighted>
5.3860

> <Gold.Chemscore.Internal.Correction.Weighted>
   9.000000E+99

> <Gold.Protein.RotatedTorsions>
[ 6907 6896 6895 6894 ] final  119.85 input  -60.11 | X-H torsion
[ 7974 7965 7964 7962 ] final   26.48 input  175.53 | X-H torsion
[ 8008 7997 7996 7995 ] final  145.40 input   59.86 | X-H torsion
[ 10167 10162 10161 10158 ] final -130.53 input  -65.29 | X-H torsion
[ 10718 10713 10712 10709 ] final   88.23 input   66.30 | X-H torsion
[ 10763 10752 10751 10750 ] final  -76.19 input  -60.55 | X-H torsion
[ 11005 11000 10999 10996 ] final  -19.89 input  -57.11 | X-H torsion

> <Gold.Protein.ActiveResidues>
 VAL166  LYS551  ARG553  GLY616  TRP617  ASP618  TYR619  PRO620  LYS621  CYS622 
 ASP623  PHE694  ASN695  SER759  ASP760  ASP761  ALA762  ILE779  LEU786  VAL792 
 PHE793  MET794  SER795  GLU796  ALA797  LYS798  CYS799  TRP800  GLU811  SER814 

> <Gold.Protein.RotatedAtoms>
  152.4441  133.7503  159.6690 H   0  0  0  0  0  0  0  0  0  0  0  0  # atno 6907 bound_to 6896
  150.8337  133.8037  159.3094 H   0  0  0  0  0  0  0  0  0  0  0  0  # atno 6908 bound_to 6896
  151.5683  135.1066  160.0041 H   0  0  0  0  0  0  0  0  0  0  0  0  # atno 6909 bound_to 6896
  146.1835  139.7322  142.8883 H   0  0  0  0  0  0  0  0  0  0  0  0  # atno 7974 bound_to 7965
  156.2884  140.2210  156.5210 H   0  0  0  0  0  0  0  0  0  0  0  0  # atno 8008 bound_to 7997
  154.7529  140.0479  157.0930 H   0  0  0  0  0  0  0  0  0  0  0  0  # atno 8009 bound_to 7997
  155.0087  140.3110  155.4841 H   0  0  0  0  0  0  0  0  0  0  0  0  # atno 8010 bound_to 7997
  139.9284  143.6301  152.2536 H   0  0  0  0  0  0  0  0  0  0  0  0  # atno 10167 bound_to 10162
  157.6947  131.0286  150.3242 H   0  0  0  0  0  0  0  0  0  0  0  0  # atno 10718 bound_to 10713
  154.4966  135.5806  153.6499 H   0  0  0  0  0  0  0  0  0  0  0  0  # atno 10763 bound_to 10752
  152.9871  135.6125  154.3057 H   0  0  0  0  0  0  0  0  0  0  0  0  # atno 10764 bound_to 10752
  154.2961  135.2847  155.2612 H   0  0  0  0  0  0  0  0  0  0  0  0  # atno 10765 bound_to 10752
  140.8411  133.7926  155.9861 H   0  0  0  0  0  0  0  0  0  0  0  0  # atno 11005 bound_to 11000
  145.4007  141.0385  143.3072 LP  0  0  0  0  0  0  0  0  0  0  0  0  # atno 17320 bound_to 7965
  144.8356  139.5556  143.6924 LP  0  0  0  0  0  0  0  0  0  0  0  0  # atno 17321 bound_to 7965
  139.6803  144.7656  151.1621 LP  0  0  0  0  0  0  0  0  0  0  0  0  # atno 17342 bound_to 10162
  140.7644  143.5735  150.8971 LP  0  0  0  0  0  0  0  0  0  0  0  0  # atno 17343 bound_to 10162
  156.3725  130.3866  149.7164 LP  0  0  0  0  0  0  0  0  0  0  0  0  # atno 17370 bound_to 10713
  156.4574  130.7935  151.2956 LP  0  0  0  0  0  0  0  0  0  0  0  0  # atno 17371 bound_to 10713
  140.8894  134.2513  157.5102 LP  0  0  0  0  0  0  0  0  0  0  0  0  # atno 17394 bound_to 11000
  139.8703  134.9654  156.4528 LP  0  0  0  0  0  0  0  0  0  0  0  0  # atno 17395 bound_to 11000

$$$$
