AV-unprocessed.smi:2400|AV-procd|sdf|9501|dock4
  -GOLD-   2272013133D 1   1.00000     0.00000
 Structure written by MMmdl.
 44 45  0  0  0  0  0  0  0  0  1 V2000
  147.3482  141.9125  154.1505 C   0  0  0  0  0  0  0  0  0  0  0  0
  147.5176  140.7197  154.8970 O   0  0  0  0  0  0  0  0  0  0  0  0
  148.7462  140.1739  154.7712 C   0  0  0  0  0  0  0  0  0  0  0  0
  149.1669  138.9698  154.2779 C   0  0  0  0  0  0  0  0  0  0  0  0
  148.4141  137.8961  153.7381 N   0  0  0  0  0  0  0  0  0  0  0  0
  147.2261  137.4432  154.1684 C   0  0  0  0  0  0  0  0  0  0  0  0
  146.5810  137.9291  155.0971 O   0  0  0  0  0  0  0  0  0  0  0  0
  146.8108  136.3980  153.4393 N   0  0  0  0  0  0  0  0  0  0  0  0
  145.5485  135.6826  153.6285 C   0  0  2  0  0  0  0  0  0  0  0  0
  145.8148  134.1936  153.9286 C   0  0  0  0  0  0  0  0  0  0  0  0
  145.1078  133.3950  152.8351 C   0  0  0  0  0  0  0  0  0  0  0  0
  143.9952  134.3196  152.3511 C   0  0  0  0  0  0  0  0  0  0  0  0
  144.5991  135.7345  152.3918 C   0  0  0  0  0  0  0  0  0  0  0  0
  143.4983  136.7964  152.5737 C   0  0  0  0  0  0  0  0  0  0  0  0
  145.3364  136.0096  151.0584 C   0  0  0  0  0  0  0  0  0  0  0  0
  150.5760  138.9635  154.4728 C   0  0  0  0  0  0  0  0  0  0  0  0
  151.5766  137.8912  154.1498 C   0  0  0  0  0  0  0  0  0  0  0  0
  150.9913  140.1077  155.0050 N   0  0  0  0  0  0  0  0  0  0  0  0
  149.8738  140.8543  155.1805 N   0  0  0  0  0  0  0  0  0  0  0  0
  149.9791  142.1759  155.7636 C   0  0  0  0  0  0  0  0  0  0  0  0
  146.3319  142.2834  154.2804 H   0  0  0  0  0  0  0  0  0  0  0  0
  147.5081  141.7339  153.0864 H   0  0  0  0  0  0  0  0  0  0  0  0
  148.0341  142.6940  154.4786 H   0  0  0  0  0  0  0  0  0  0  0  0
  148.7818  137.4787  152.8958 H   0  0  0  0  0  0  0  0  0  0  0  0
  147.4061  136.0742  152.6913 H   0  0  0  0  0  0  0  0  0  0  0  0
  145.0349  136.0908  154.5015 H   0  0  0  0  0  0  0  0  0  0  0  0
  146.8765  133.9465  153.9720 H   0  0  0  0  0  0  0  0  0  0  0  0
  145.3904  133.9386  154.9006 H   0  0  0  0  0  0  0  0  0  0  0  0
  145.8012  133.1895  152.0190 H   0  0  0  0  0  0  0  0  0  0  0  0
  144.7295  132.4381  153.1955 H   0  0  0  0  0  0  0  0  0  0  0  0
  143.6214  134.0391  151.3655 H   0  0  0  0  0  0  0  0  0  0  0  0
  143.1554  134.2496  153.0443 H   0  0  0  0  0  0  0  0  0  0  0  0
  142.7938  136.7822  151.7415 H   0  0  0  0  0  0  0  0  0  0  0  0
  143.9234  137.7989  152.6291 H   0  0  0  0  0  0  0  0  0  0  0  0
  142.9279  136.6317  153.4884 H   0  0  0  0  0  0  0  0  0  0  0  0
  144.6576  135.9232  150.2091 H   0  0  0  0  0  0  0  0  0  0  0  0
  146.1547  135.3084  150.8929 H   0  0  0  0  0  0  0  0  0  0  0  0
  145.7533  137.0169  151.0280 H   0  0  0  0  0  0  0  0  0  0  0  0
  151.0986  137.0198  153.7024 H   0  0  0  0  0  0  0  0  0  0  0  0
  152.0970  137.5578  155.0476 H   0  0  0  0  0  0  0  0  0  0  0  0
  152.3252  138.2539  153.4452 H   0  0  0  0  0  0  0  0  0  0  0  0
  149.1370  142.7919  155.4470 H   0  0  0  0  0  0  0  0  0  0  0  0
  150.9043  142.6562  155.4433 H   0  0  0  0  0  0  0  0  0  0  0  0
  149.9735  142.0967  156.8507 H   0  0  0  0  0  0  0  0  0  0  0  0
  1  2  1  0  0  0  0
  1 21  1  0  0  0  0
  1 22  1  0  0  0  0
  1 23  1  0  0  0  0
  2  3  1  0  0  0  0
  3 19  1  0  0  0  0
  3  4  2  0  0  0  0
  4  5  1  0  0  0  0
  4 16  1  0  0  0  0
  5  6  1  0  0  0  0
  5 24  1  0  0  0  0
  6  7  2  0  0  0  0
  6  8  1  0  0  0  0
  8  9  1  0  0  0  0
  8 25  1  0  0  0  0
  9 13  1  0  0  0  0
  9 10  1  0  0  0  0
  9 26  1  0  0  0  0
 10 11  1  0  0  0  0
 10 27  1  0  0  0  0
 10 28  1  0  0  0  0
 11 12  1  0  0  0  0
 11 29  1  0  0  0  0
 11 30  1  0  0  0  0
 12 13  1  0  0  0  0
 12 31  1  0  0  0  0
 12 32  1  0  0  0  0
 13 14  1  0  0  0  0
 13 15  1  0  0  0  0
 14 33  1  0  0  0  0
 14 34  1  0  0  0  0
 14 35  1  0  0  0  0
 15 36  1  0  0  0  0
 15 37  1  0  0  0  0
 15 38  1  0  0  0  0
 16 17  1  0  0  0  0
 16 18  2  0  0  0  0
 17 39  1  0  0  0  0
 17 40  1  0  0  0  0
 17 41  1  0  0  0  0
 18 19  1  0  0  0  0
 19 20  1  0  0  0  0
 20 42  1  0  0  0  0
 20 43  1  0  0  0  0
 20 44  1  0  0  0  0
M  END
> <s_m_source_file>
AV-unprocessed.smi

> <i_m_source_file_index>
2400

> <i_lp_mmshare_version>
43012

> <i_f3d_flags>
0

> <s_epik_input>
W0NIM11uMW5jKFtDSDNdKWMoYzFPW0NIM10pW05IXUMoPU8pW05IXVtDQEBIXShDMihbQ0gzXSlbQ0gzXSlbQ0gyXVtDSDJdW0NIMl0y

> <s_epik_cmdline>
J2VwaWtfcHl0aG9uJywgJy1waCcsICc3LjAnLCAnLXRuJywgJzgnLCAnLW1hJywgJzIwMCcsICctbWV0YWxfYmluZGluZycsICctaW1hZScsICc8aW5maWxlLm1hZT4nLCAnLW9tYWUnLCAnPG91dGZpbGUubWFlPic=

> <r_lp_tautomer_probability>
1

> <r_epik_Ionization_Penalty>
0.000423583

> <r_epik_Ionization_Penalty_Charging>
0

> <r_epik_Ionization_Penalty_Neutral>
0.000423583

> <r_epik_State_Penalty>
-0

> <r_epik_Charging_Adjusted_Penalty>
0

> <i_epik_Tot_Q>
0

> <i_epik_Tot_abs_Q>
0

> <r_epik_Metal_State_Penalty>
-0

> <b_epik_Metal_Only>
0

> <s_lp_Force_Field>
OPLS_2005

> <r_lp_Energy>
29.9339

> <b_lp_Chiralities_Consistent>
1

> <s_lp_Variant>
AV-unprocessed.smi:2400-1

> <Gold.Version>
5.8.1

> <Gold.Id.Protein>
6NUR|6NUR_protein|mol2

> <Gold.PLP.Fitness>
38.1181

> <Gold.PLP.PLP>
-30.0200

> <Gold.PLP.part.hbond>
-3.0000

> <Gold.PLP.part.metal>
0.0000

> <Gold.PLP.part.buried>
-0.5970

> <Gold.PLP.part.nonpolar>
-26.5516

> <Gold.PLP.part.repulsive>
0.2107

> <Gold.PLP.ligand.clash>
0.0000

> <Gold.PLP.ligand.torsion>
0.3210

> <Gold.PLP.Chemscore.Hbond>
2.9100

> <Gold.PLP.Chemscore.CHOScore>
0.0000

> <Gold.PLP.Chemscore.Metal>
0.0000

> <Gold.Chemscore.Hbonds>
donor molecule, donor type, donor heavy atom, donor atom, acceptor molecule, acceptor atom, score
      L1  H     5    24       P1  7948  1.00
      L1  H     8    25       P1  7948  0.96
      P1  H  7989  7998       L1    18  0.90

> <Gold.PLP.Chemscore.Internal.Correction>
0.0101

> <Gold.Rescore>
     Score         DG    S(hbond)    S(metal)    S(lipo)     H(rot)  DE(clash)    DE(int)     intcor
     13.78     -16.09       1.93        0.00      62.13       1.21       0.85       1.46       ----

> <Gold.Chemscore.Fitness>
13.7811

> <Gold.Chemscore.DG>
-16.0868

> <Gold.Chemscore.ZeroCoef>
-5.4800

> <Gold.Chemscore.Hbond>
1.9281

> <Gold.Chemscore.Metal>
0.0000

> <Gold.Chemscore.Lipo>
62.1303

> <Gold.Chemscore.Internal_Hbond>
0.0000

> <Gold.Chemscore.DEClash>
0.8503

> <Gold.Chemscore.DEInternal>
1.4554

> <Gold.Chemscore.Rot>
1.2119

> <Gold.Chemscore.Internal.Correction>
   9.000000E+99

> <Gold.Chemscore.Hbonds>
donor molecule, donor type, donor heavy atom, donor atom, acceptor molecule, acceptor atom, score
      L1  H     5    24       P1  7948  0.97
      L1  H     8    25       P1  7948  0.92
      P1  H  7989  7998       L1    18  0.05

> <Gold.Chemscore.Hbond.Weighted>
-6.4399

> <Gold.Chemscore.Metal.Weighted>
-0.0000

> <Gold.Chemscore.Lipo.Weighted>
-7.2692

> <Gold.Chemscore.Internal_Hbond.Weighted>
0.0000

> <Gold.Chemscore.DEClash.Weighted>
0.8503

> <Gold.Chemscore.DEInternal.Weighted>
1.4554

> <Gold.Chemscore.Rot.Weighted>
3.1024

> <Gold.Chemscore.Internal.Correction.Weighted>
   9.000000E+99

> <Gold.Protein.RotatedTorsions>
[ 6907 6896 6895 6894 ] final -143.40 input  -60.11 | X-H torsion
[ 7974 7965 7964 7962 ] final  127.68 input  175.53 | X-H torsion
[ 8008 7997 7996 7995 ] final -126.21 input   59.86 | X-H torsion
[ 10167 10162 10161 10158 ] final   -6.62 input  -65.29 | X-H torsion
[ 10718 10713 10712 10709 ] final  115.14 input   66.30 | X-H torsion
[ 10763 10752 10751 10750 ] final  160.00 input  -60.55 | X-H torsion
[ 11005 11000 10999 10996 ] final   -3.37 input  -57.11 | X-H torsion

> <Gold.Protein.ActiveResidues>
 VAL166  LYS551  ARG553  GLY616  TRP617  ASP618  TYR619  PRO620  LYS621  CYS622 
 ASP623  PHE694  ASN695  SER759  ASP760  ASP761  ALA762  ILE779  LEU786  VAL792 
 PHE793  MET794  SER795  GLU796  ALA797  LYS798  CYS799  TRP800  GLU811  SER814 

> <Gold.Protein.RotatedAtoms>
  151.0999  133.5251  159.2610 H   0  0  0  0  0  0  0  0  0  0  0  0  # atno 6907 bound_to 6896
  151.2086  135.0471  159.8912 H   0  0  0  0  0  0  0  0  0  0  0  0  # atno 6908 bound_to 6896
  152.5442  134.0818  159.8292 H   0  0  0  0  0  0  0  0  0  0  0  0  # atno 6909 bound_to 6896
  145.0479  139.3908  143.5069 H   0  0  0  0  0  0  0  0  0  0  0  0  # atno 7974 bound_to 7965
  155.2260  140.0423  157.2955 H   0  0  0  0  0  0  0  0  0  0  0  0  # atno 8008 bound_to 7997
  154.5919  140.2429  155.7880 H   0  0  0  0  0  0  0  0  0  0  0  0  # atno 8009 bound_to 7997
  156.2265  140.2953  156.0088 H   0  0  0  0  0  0  0  0  0  0  0  0  # atno 8010 bound_to 7997
  140.7003  143.6173  150.8646 H   0  0  0  0  0  0  0  0  0  0  0  0  # atno 10167 bound_to 10162
  157.6240  131.1008  150.7287 H   0  0  0  0  0  0  0  0  0  0  0  0  # atno 10718 bound_to 10713
  154.2406  135.2775  155.2855 H   0  0  0  0  0  0  0  0  0  0  0  0  # atno 10763 bound_to 10752
  154.5548  135.5664  153.6957 H   0  0  0  0  0  0  0  0  0  0  0  0  # atno 10764 bound_to 10752
  153.0000  135.6283  154.2550 H   0  0  0  0  0  0  0  0  0  0  0  0  # atno 10765 bound_to 10752
  140.6685  133.9257  155.8480 H   0  0  0  0  0  0  0  0  0  0  0  0  # atno 11005 bound_to 11000
  146.3515  140.0114  142.8667 LP  0  0  0  0  0  0  0  0  0  0  0  0  # atno 17320 bound_to 7965
  145.1564  140.9650  143.4402 LP  0  0  0  0  0  0  0  0  0  0  0  0  # atno 17321 bound_to 7965
  139.9895  143.5863  152.2915 LP  0  0  0  0  0  0  0  0  0  0  0  0  # atno 17342 bound_to 10162
  139.6513  144.7661  151.2143 LP  0  0  0  0  0  0  0  0  0  0  0  0  # atno 17343 bound_to 10162
  156.7639  130.4807  149.5431 LP  0  0  0  0  0  0  0  0  0  0  0  0  # atno 17370 bound_to 10713
  156.1401  130.6238  151.0455 LP  0  0  0  0  0  0  0  0  0  0  0  0  # atno 17371 bound_to 10713
  141.0410  134.0621  157.3902 LP  0  0  0  0  0  0  0  0  0  0  0  0  # atno 17394 bound_to 11000
  139.8989  135.0156  156.7171 LP  0  0  0  0  0  0  0  0  0  0  0  0  # atno 17395 bound_to 11000

$$$$
