AV-unprocessed.smi:2202|AV-procd|sdf|8929|dock3
  -GOLD-   2272012143D 1   1.00000     0.00000
 Structure written by MMmdl.
 42 44  0  0  0  0  0  0  0  0  1 V2000
  151.8872  136.5481  156.0556 O   0  0  0  0  0  0  0  0  0  0  0  0
  151.1551  136.7231  155.0802 C   0  0  0  0  0  0  0  0  0  0  0  0
  151.3118  137.9601  154.1835 C   0  0  0  0  0  0  0  0  0  0  0  0
  151.0609  139.2266  154.8870 N   0  0  0  0  0  0  0  0  0  0  0  0
  151.9391  139.8146  155.7097 C   0  0  0  0  0  0  0  0  0  0  0  0
  153.0528  139.3797  156.0051 O   0  0  0  0  0  0  0  0  0  0  0  0
  151.3991  141.1404  156.2508 C   0  0  2  0  0  0  0  0  0  0  0  0
  151.4098  141.1717  157.8019 C   0  0  0  0  0  0  0  0  0  0  0  0
  150.2041  140.4846  158.4091 C   0  0  0  0  0  0  0  0  0  0  0  0
  148.9978  140.5639  157.8321 C   0  0  0  0  0  0  0  0  0  0  0  0
  148.7920  141.3437  156.5499 C   0  0  0  0  0  0  0  0  0  0  0  0
  149.9991  141.2336  155.5811 C   0  0  2  0  0  0  0  0  0  0  0  0
  149.9410  139.9485  154.7523 C   0  0  0  0  0  0  0  0  0  0  0  0
  148.9736  139.6531  154.0500 O   0  0  0  0  0  0  0  0  0  0  0  0
  150.1794  135.8695  154.7355 N   0  0  0  0  0  0  0  0  0  0  0  0
  149.8556  134.6419  155.4532 C   0  0  0  0  0  0  0  0  0  0  0  0
  149.5014  133.4990  154.4868 C   0  0  0  0  0  0  0  0  0  0  0  0
  150.1854  132.1982  154.8614 C   0  0  0  0  0  0  0  0  0  0  0  0
  149.8281  130.9868  154.2314 C   0  0  0  0  0  0  0  0  0  0  0  0
  150.5004  129.8092  154.6127 C   0  0  0  0  0  0  0  0  0  0  0  0
  151.4991  129.8883  155.6025 C   0  0  0  0  0  0  0  0  0  0  0  0
  151.7827  131.1470  156.1694 C   0  0  0  0  0  0  0  0  0  0  0  0
  151.1449  132.2818  155.8105 N   0  0  0  0  0  0  0  0  0  0  0  0
  152.3172  137.9625  153.7586 H   0  0  0  0  0  0  0  0  0  0  0  0
  150.6340  137.8620  153.3339 H   0  0  0  0  0  0  0  0  0  0  0  0
  152.0466  141.9329  155.8730 H   0  0  0  0  0  0  0  0  0  0  0  0
  152.3153  140.7088  158.1967 H   0  0  0  0  0  0  0  0  0  0  0  0
  151.4211  142.2036  158.1539 H   0  0  0  0  0  0  0  0  0  0  0  0
  150.3342  139.9722  159.3511 H   0  0  0  0  0  0  0  0  0  0  0  0
  148.1314  140.1173  158.2976 H   0  0  0  0  0  0  0  0  0  0  0  0
  147.8738  140.9996  156.0721 H   0  0  0  0  0  0  0  0  0  0  0  0
  148.6207  142.3874  156.8150 H   0  0  0  0  0  0  0  0  0  0  0  0
  149.9742  142.0711  154.8825 H   0  0  0  0  0  0  0  0  0  0  0  0
  149.6228  136.0848  153.9208 H   0  0  0  0  0  0  0  0  0  0  0  0
  150.7187  134.3622  156.0581 H   0  0  0  0  0  0  0  0  0  0  0  0
  149.0349  134.8241  156.1495 H   0  0  0  0  0  0  0  0  0  0  0  0
  148.4229  133.3337  154.4743 H   0  0  0  0  0  0  0  0  0  0  0  0
  149.7803  133.7721  153.4682 H   0  0  0  0  0  0  0  0  0  0  0  0
  149.0587  130.9587  153.4739 H   0  0  0  0  0  0  0  0  0  0  0  0
  150.2547  128.8627  154.1543 H   0  0  0  0  0  0  0  0  0  0  0  0
  152.0351  129.0061  155.9200 H   0  0  0  0  0  0  0  0  0  0  0  0
  152.5422  131.2454  156.9308 H   0  0  0  0  0  0  0  0  0  0  0  0
  1  2  2  0  0  0  0
  2  3  1  0  0  0  0
  2 15  1  0  0  0  0
  3  4  1  0  0  0  0
  3 24  1  0  0  0  0
  3 25  1  0  0  0  0
  4 13  1  0  0  0  0
  4  5  1  0  0  0  0
  5  6  2  0  0  0  0
  5  7  1  0  0  0  0
  7 12  1  0  0  0  0
  7  8  1  0  0  0  0
  7 26  1  0  0  0  0
  8  9  1  0  0  0  0
  8 27  1  0  0  0  0
  8 28  1  0  0  0  0
  9 10  2  0  0  0  0
  9 29  1  0  0  0  0
 10 11  1  0  0  0  0
 10 30  1  0  0  0  0
 11 12  1  0  0  0  0
 11 31  1  0  0  0  0
 11 32  1  0  0  0  0
 12 13  1  0  0  0  0
 12 33  1  0  0  0  0
 13 14  2  0  0  0  0
 15 16  1  0  0  0  0
 15 34  1  0  0  0  0
 16 17  1  0  0  0  0
 16 35  1  0  0  0  0
 16 36  1  0  0  0  0
 17 18  1  0  0  0  0
 17 37  1  0  0  0  0
 17 38  1  0  0  0  0
 18 23  1  0  0  0  0
 18 19  2  0  0  0  0
 19 20  1  0  0  0  0
 19 39  1  0  0  0  0
 20 21  2  0  0  0  0
 20 40  1  0  0  0  0
 21 22  1  0  0  0  0
 21 41  1  0  0  0  0
 22 23  2  0  0  0  0
 22 42  1  0  0  0  0
M  END
> <s_m_source_file>
AV-unprocessed.smi

> <i_m_source_file_index>
2202

> <i_lp_mmshare_version>
43012

> <i_f3d_flags>
0

> <s_epik_input>
W0NIMl0xW0NIXT1bQ0hdW0NIMl1bQ0BIXShbQ0BIXTEyKUMoPU8pTihDMj1PKVtDSDJdQyg9TylbTkhdW0NIMl1bQ0gyXWMzW2NIXVtjSF1bY0hdW2NIXW4z

> <s_epik_cmdline>
J2VwaWtfcHl0aG9uJywgJy1waCcsICc3LjAnLCAnLXRuJywgJzgnLCAnLW1hJywgJzIwMCcsICctbWV0YWxfYmluZGluZycsICctaW1hZScsICc8aW5maWxlLm1hZT4nLCAnLW9tYWUnLCAnPG91dGZpbGUubWFlPic=

> <r_lp_tautomer_probability>
1

> <r_epik_Ionization_Penalty>
0.0244696

> <r_epik_Ionization_Penalty_Charging>
0

> <r_epik_Ionization_Penalty_Neutral>
0.0244696

> <r_epik_State_Penalty>
0.0198648

> <r_epik_Charging_Adjusted_Penalty>
0.0198648

> <i_epik_Tot_Q>
0

> <i_epik_Tot_abs_Q>
0

> <r_epik_Metal_State_Penalty>
0.0190699

> <b_epik_Metal_Only>
0

> <s_lp_Force_Field>
OPLS_2005

> <r_lp_Energy>
13.8656

> <b_lp_Chiralities_Consistent>
1

> <s_lp_Variant>
AV-unprocessed.smi:2202-1

> <Gold.Version>
5.8.1

> <Gold.Id.Protein>
6NUR|6NUR_protein|mol2

> <Gold.PLP.Fitness>
50.1305

> <Gold.PLP.PLP>
-42.6843

> <Gold.PLP.part.hbond>
-3.0000

> <Gold.PLP.part.metal>
0.0000

> <Gold.PLP.part.buried>
-5.1575

> <Gold.PLP.part.nonpolar>
-34.6270

> <Gold.PLP.part.repulsive>
0.6979

> <Gold.PLP.ligand.clash>
0.0000

> <Gold.PLP.ligand.torsion>
0.8017

> <Gold.PLP.Chemscore.Hbond>
3.0000

> <Gold.PLP.Chemscore.CHOScore>
0.0000

> <Gold.PLP.Chemscore.Metal>
0.0000

> <Gold.Chemscore.Hbonds>
donor molecule, donor type, donor heavy atom, donor atom, acceptor molecule, acceptor atom, score
      L1  H    15    34       P1  7948  0.73
      P1  H  7997  8010       L1     6  1.00
      P1  H 10752 10764       L1     1  0.75

> <Gold.PLP.Chemscore.Internal.Correction>
0.0496

> <Gold.Rescore>
     Score         DG    S(hbond)    S(metal)    S(lipo)     H(rot)  DE(clash)    DE(int)     intcor
     17.24     -18.07       2.52        0.00      76.19       1.85       0.06       0.77       ----

> <Gold.Chemscore.Fitness>
17.2416

> <Gold.Chemscore.DG>
-18.0722

> <Gold.Chemscore.ZeroCoef>
-5.4800

> <Gold.Chemscore.Hbond>
2.5222

> <Gold.Chemscore.Metal>
0.0000

> <Gold.Chemscore.Lipo>
76.1912

> <Gold.Chemscore.Internal_Hbond>
0.0000

> <Gold.Chemscore.DEClash>
0.0590

> <Gold.Chemscore.DEInternal>
0.7716

> <Gold.Chemscore.Rot>
1.8540

> <Gold.Chemscore.Internal.Correction>
   9.000000E+99

> <Gold.Chemscore.Hbonds>
donor molecule, donor type, donor heavy atom, donor atom, acceptor molecule, acceptor atom, score
      L1  H    15    34       P1  7948  0.36
      P1  H  7997  8010       L1     6  0.94
      P1  H 10752 10764       L1     1  0.09

> <Gold.Chemscore.Hbond.Weighted>
-8.4241

> <Gold.Chemscore.Metal.Weighted>
-0.0000

> <Gold.Chemscore.Lipo.Weighted>
-8.9144

> <Gold.Chemscore.Internal_Hbond.Weighted>
0.0000

> <Gold.Chemscore.DEClash.Weighted>
0.0590

> <Gold.Chemscore.DEInternal.Weighted>
0.7716

> <Gold.Chemscore.Rot.Weighted>
4.7462

> <Gold.Chemscore.Internal.Correction.Weighted>
   9.000000E+99

> <Gold.Protein.RotatedTorsions>
[ 6907 6896 6895 6894 ] final  167.19 input  -60.11 | X-H torsion
[ 7974 7965 7964 7962 ] final   91.86 input  175.53 | X-H torsion
[ 8008 7997 7996 7995 ] final   99.15 input   59.86 | X-H torsion
[ 10167 10162 10161 10158 ] final -133.51 input  -65.29 | X-H torsion
[ 10718 10713 10712 10709 ] final  -35.11 input   66.30 | X-H torsion
[ 10763 10752 10751 10750 ] final  -26.43 input  -60.55 | X-H torsion
[ 11005 11000 10999 10996 ] final  116.24 input  -57.11 | X-H torsion

> <Gold.Protein.ActiveResidues>
 VAL166  LYS551  ARG553  GLY616  TRP617  ASP618  TYR619  PRO620  LYS621  CYS622 
 ASP623  PHE694  ASN695  SER759  ASP760  ASP761  ALA762  ILE779  LEU786  VAL792 
 PHE793  MET794  SER795  GLU796  ALA797  LYS798  CYS799  TRP800  GLU811  SER814 

> <Gold.Protein.RotatedAtoms>
  151.8671  133.3468  159.3722 H   0  0  0  0  0  0  0  0  0  0  0  0  # atno 6907 bound_to 6896
  150.7163  134.5149  159.5634 H   0  0  0  0  0  0  0  0  0  0  0  0  # atno 6908 bound_to 6896
  152.2674  134.7970  160.0471 H   0  0  0  0  0  0  0  0  0  0  0  0  # atno 6909 bound_to 6896
  145.5000  139.2276  143.2782 H   0  0  0  0  0  0  0  0  0  0  0  0  # atno 7974 bound_to 7965
  156.1076  140.3233  155.8028 H   0  0  0  0  0  0  0  0  0  0  0  0  # atno 8008 bound_to 7997
  155.4728  140.0548  157.2994 H   0  0  0  0  0  0  0  0  0  0  0  0  # atno 8009 bound_to 7997
  154.4738  140.2023  155.9942 H   0  0  0  0  0  0  0  0  0  0  0  0  # atno 8010 bound_to 7997
  139.8976  143.6647  152.2601 H   0  0  0  0  0  0  0  0  0  0  0  0  # atno 10167 bound_to 10162
  156.3426  130.4296  149.7774 H   0  0  0  0  0  0  0  0  0  0  0  0  # atno 10718 bound_to 10713
  153.7158  135.6948  153.5025 H   0  0  0  0  0  0  0  0  0  0  0  0  # atno 10763 bound_to 10752
  153.2239  135.4360  155.0519 H   0  0  0  0  0  0  0  0  0  0  0  0  # atno 10764 bound_to 10752
  154.8300  135.3467  154.6693 H   0  0  0  0  0  0  0  0  0  0  0  0  # atno 10765 bound_to 10752
  139.9035  134.9595  156.7168 H   0  0  0  0  0  0  0  0  0  0  0  0  # atno 11005 bound_to 11000
  146.2231  140.5800  142.9008 LP  0  0  0  0  0  0  0  0  0  0  0  0  # atno 17320 bound_to 7965
  144.7785  140.5791  143.6621 LP  0  0  0  0  0  0  0  0  0  0  0  0  # atno 17321 bound_to 7965
  139.7054  144.7629  151.1202 LP  0  0  0  0  0  0  0  0  0  0  0  0  # atno 17342 bound_to 10162
  140.7714  143.5401  150.9322 LP  0  0  0  0  0  0  0  0  0  0  0  0  # atno 17343 bound_to 10162
  156.5005  130.8126  151.3130 LP  0  0  0  0  0  0  0  0  0  0  0  0  # atno 17370 bound_to 10713
  157.7449  130.9946  150.2714 LP  0  0  0  0  0  0  0  0  0  0  0  0  # atno 17371 bound_to 10713
  140.7032  133.9288  155.8037 LP  0  0  0  0  0  0  0  0  0  0  0  0  # atno 17394 bound_to 11000
  141.0356  134.0695  157.3963 LP  0  0  0  0  0  0  0  0  0  0  0  0  # atno 17395 bound_to 11000

$$$$
