AV-unprocessed.smi:2275|AV-procd|sdf|9170|dock6
  -GOLD-   2272012383D 1   1.00000     0.00000
 Structure written by MMmdl.
 38 39  0  0  0  0  0  0  0  0  1 V2000
  153.5160  143.5040  159.9327 C   0  0  0  0  0  0  0  0  0  0  0  0
  152.8633  142.2163  159.4621 C   0  0  0  0  0  0  0  0  0  0  0  0
  151.7202  142.3725  158.6727 N   0  0  0  0  0  0  0  0  0  0  0  0
  151.0934  141.3309  158.2324 C   0  0  0  0  0  0  0  0  0  0  0  0
  151.5307  140.0288  158.5244 N   0  0  0  0  0  0  0  0  0  0  0  0
  150.7249  138.9302  157.9661 C   0  0  0  0  0  0  0  0  0  0  0  0
  150.2625  137.9324  159.0514 C   0  0  2  0  0  0  0  0  0  0  0  0
  150.8841  136.6761  158.8671 O   0  0  0  0  0  0  0  0  0  0  0  0
  148.7406  137.7073  159.0528 C   0  0  0  0  0  0  0  0  0  0  0  0
  148.2337  137.8116  160.3782 O   0  0  0  0  0  0  0  0  0  0  0  0
  147.9032  136.6517  161.0454 C   0  0  0  0  0  0  0  0  0  0  0  0
  147.4833  136.7829  162.3854 C   0  0  0  0  0  0  0  0  0  0  0  0
  147.1255  135.6515  163.1436 C   0  0  0  0  0  0  0  0  0  0  0  0
  147.1842  134.3702  162.5651 C   0  0  0  0  0  0  0  0  0  0  0  0
  147.6025  134.2240  161.2294 C   0  0  0  0  0  0  0  0  0  0  0  0
  147.9610  135.3560  160.4716 C   0  0  0  0  0  0  0  0  0  0  0  0
  152.6450  139.7869  159.2739 C   0  0  0  0  0  0  0  0  0  0  0  0
  153.0320  138.6398  159.5054 O   0  0  0  0  0  0  0  0  0  0  0  0
  153.3426  140.9817  159.7762 C   0  0  0  0  0  0  0  0  0  0  0  0
  154.5808  140.7504  160.6333 C   0  0  0  0  0  0  0  0  0  0  0  0
  153.5151  143.5563  161.0218 H   0  0  0  0  0  0  0  0  0  0  0  0
  152.9858  144.3793  159.5552 H   0  0  0  0  0  0  0  0  0  0  0  0
  154.5463  143.5614  159.5808 H   0  0  0  0  0  0  0  0  0  0  0  0
  150.1989  141.3984  157.6106 H   0  0  0  0  0  0  0  0  0  0  0  0
  149.8484  139.3611  157.4783 H   0  0  0  0  0  0  0  0  0  0  0  0
  151.2467  138.4057  157.1626 H   0  0  0  0  0  0  0  0  0  0  0  0
  150.5449  138.2914  160.0419 H   0  0  0  0  0  0  0  0  0  0  0  0
  151.8165  136.8091  158.7929 H   0  0  0  0  0  0  0  0  0  0  0  0
  148.2502  138.4185  158.3855 H   0  0  0  0  0  0  0  0  0  0  0  0
  148.5366  136.7044  158.6745 H   0  0  0  0  0  0  0  0  0  0  0  0
  147.4343  137.7629  162.8369 H   0  0  0  0  0  0  0  0  0  0  0  0
  146.8058  135.7675  164.1686 H   0  0  0  0  0  0  0  0  0  0  0  0
  146.9094  133.5016  163.1453 H   0  0  0  0  0  0  0  0  0  0  0  0
  147.6486  133.2411  160.7839 H   0  0  0  0  0  0  0  0  0  0  0  0
  148.2776  135.2030  159.4510 H   0  0  0  0  0  0  0  0  0  0  0  0
  155.3372  140.2098  160.0636 H   0  0  0  0  0  0  0  0  0  0  0  0
  154.3261  140.1534  161.5096 H   0  0  0  0  0  0  0  0  0  0  0  0
  155.0356  141.6733  160.9889 H   0  0  0  0  0  0  0  0  0  0  0  0
  1  2  1  0  0  0  0
  1 21  1  0  0  0  0
  1 22  1  0  0  0  0
  1 23  1  0  0  0  0
  2 19  2  0  0  0  0
  2  3  1  0  0  0  0
  3  4  2  0  0  0  0
  4  5  1  0  0  0  0
  4 24  1  0  0  0  0
  5  6  1  0  0  0  0
  5 17  1  0  0  0  0
  6  7  1  0  0  0  0
  6 25  1  0  0  0  0
  6 26  1  0  0  0  0
  7  8  1  0  0  0  0
  7  9  1  0  0  0  0
  7 27  1  0  0  0  0
  8 28  1  0  0  0  0
  9 10  1  0  0  0  0
  9 29  1  0  0  0  0
  9 30  1  0  0  0  0
 10 11  1  0  0  0  0
 11 16  1  0  0  0  0
 11 12  2  0  0  0  0
 12 13  1  0  0  0  0
 12 31  1  0  0  0  0
 13 14  2  0  0  0  0
 13 32  1  0  0  0  0
 14 15  1  0  0  0  0
 14 33  1  0  0  0  0
 15 16  2  0  0  0  0
 15 34  1  0  0  0  0
 16 35  1  0  0  0  0
 17 18  2  0  0  0  0
 17 19  1  0  0  0  0
 19 20  1  0  0  0  0
 20 36  1  0  0  0  0
 20 37  1  0  0  0  0
 20 38  1  0  0  0  0
M  END
> <s_m_source_file>
AV-unprocessed.smi

> <i_m_source_file_index>
2275

> <i_lp_mmshare_version>
43012

> <i_f3d_flags>
0

> <s_epik_input>
W0NIM11jMW5bY0hdbihjKD1PKWMxW0NIM10pW0NIMl1bQ0BIXShbT0hdKVtDSDJdT2MyW2NIXVtjSF1bY0hdW2NIXVtjSF0y

> <s_epik_cmdline>
J2VwaWtfcHl0aG9uJywgJy1waCcsICc3LjAnLCAnLXRuJywgJzgnLCAnLW1hJywgJzIwMCcsICctbWV0YWxfYmluZGluZycsICctaW1hZScsICc8aW5maWxlLm1hZT4nLCAnLW9tYWUnLCAnPG91dGZpbGUubWFlPic=

> <r_lp_tautomer_probability>
1

> <r_epik_Ionization_Penalty>
4.18311e-05

> <r_epik_Ionization_Penalty_Charging>
1.04093e-07

> <r_epik_Ionization_Penalty_Neutral>
4.1727e-05

> <r_epik_State_Penalty>
-0

> <r_epik_Charging_Adjusted_Penalty>
1.04093e-07

> <i_epik_Tot_Q>
0

> <i_epik_Tot_abs_Q>
0

> <r_epik_Metal_State_Penalty>
-0

> <b_epik_Metal_Only>
0

> <s_lp_Force_Field>
OPLS_2005

> <r_lp_Energy>
24.2901

> <b_lp_Chiralities_Consistent>
1

> <s_lp_Variant>
AV-unprocessed.smi:2275-1

> <Gold.Version>
5.8.1

> <Gold.Id.Protein>
6NUR|6NUR_protein|mol2

> <Gold.PLP.Fitness>
45.1850

> <Gold.PLP.PLP>
-42.1729

> <Gold.PLP.part.hbond>
-3.0000

> <Gold.PLP.part.metal>
0.0000

> <Gold.PLP.part.buried>
-5.5956

> <Gold.PLP.part.nonpolar>
-35.2025

> <Gold.PLP.part.repulsive>
0.0094

> <Gold.PLP.ligand.clash>
0.0000

> <Gold.PLP.ligand.torsion>
1.7465

> <Gold.PLP.Chemscore.Hbond>
2.1428

> <Gold.PLP.Chemscore.CHOScore>
0.0000

> <Gold.PLP.Chemscore.Metal>
0.0000

> <Gold.Chemscore.Hbonds>
donor molecule, donor type, donor heavy atom, donor atom, acceptor molecule, acceptor atom, score
      P1  H  6896  6908       L1     8  0.69
      P1  H  6931  6943       L1    10  0.12
      P1  H  6934  6947       L1    10  0.45

> <Gold.PLP.Chemscore.Internal.Correction>
0.0767

> <Gold.Rescore>
     Score         DG    S(hbond)    S(metal)    S(lipo)     H(rot)  DE(clash)    DE(int)     intcor
     12.17     -15.03       1.21        0.00      99.18       2.38       0.01       2.85       ----

> <Gold.Chemscore.Fitness>
12.1699

> <Gold.Chemscore.DG>
-15.0251

> <Gold.Chemscore.ZeroCoef>
-5.4800

> <Gold.Chemscore.Hbond>
1.2098

> <Gold.Chemscore.Metal>
0.0000

> <Gold.Chemscore.Lipo>
99.1779

> <Gold.Chemscore.Internal_Hbond>
0.0000

> <Gold.Chemscore.DEClash>
0.0067

> <Gold.Chemscore.DEInternal>
2.8484

> <Gold.Chemscore.Rot>
2.3826

> <Gold.Chemscore.Internal.Correction>
   9.000000E+99

> <Gold.Chemscore.Hbonds>
donor molecule, donor type, donor heavy atom, donor atom, acceptor molecule, acceptor atom, score
      P1  H  6896  6908       L1     8  0.19
      P1  H  6934  6947       L1    10  0.31

> <Gold.Chemscore.Hbond.Weighted>
-4.0408

> <Gold.Chemscore.Metal.Weighted>
-0.0000

> <Gold.Chemscore.Lipo.Weighted>
-11.6038

> <Gold.Chemscore.Internal_Hbond.Weighted>
0.0000

> <Gold.Chemscore.DEClash.Weighted>
0.0067

> <Gold.Chemscore.DEInternal.Weighted>
2.8484

> <Gold.Chemscore.Rot.Weighted>
6.0996

> <Gold.Chemscore.Internal.Correction.Weighted>
   9.000000E+99

> <Gold.Protein.RotatedTorsions>
[ 6907 6896 6895 6894 ] final -174.29 input  -60.11 | X-H torsion
[ 7974 7965 7964 7962 ] final  144.32 input  175.53 | X-H torsion
[ 8008 7997 7996 7995 ] final  116.48 input   59.86 | X-H torsion
[ 10167 10162 10161 10158 ] final   13.10 input  -65.29 | X-H torsion
[ 10718 10713 10712 10709 ] final -164.23 input   66.30 | X-H torsion
[ 10763 10752 10751 10750 ] final  122.66 input  -60.55 | X-H torsion
[ 11005 11000 10999 10996 ] final  -93.31 input  -57.11 | X-H torsion

> <Gold.Protein.ActiveResidues>
 VAL166  LYS551  ARG553  GLY616  TRP617  ASP618  TYR619  PRO620  LYS621  CYS622 
 ASP623  PHE694  ASN695  SER759  ASP760  ASP761  ALA762  ILE779  LEU786  VAL792 
 PHE793  MET794  SER795  GLU796  ALA797  LYS798  CYS799  TRP800  GLU811  SER814 

> <Gold.Protein.RotatedAtoms>
  151.5699  133.3391  159.2987 H   0  0  0  0  0  0  0  0  0  0  0  0  # atno 6907 bound_to 6896
  150.8373  134.7655  159.6915 H   0  0  0  0  0  0  0  0  0  0  0  0  # atno 6908 bound_to 6896
  152.4447  134.5525  159.9922 H   0  0  0  0  0  0  0  0  0  0  0  0  # atno 6909 bound_to 6896
  144.8845  139.5649  143.5827 H   0  0  0  0  0  0  0  0  0  0  0  0  # atno 7974 bound_to 7965
  156.2441  140.2916  156.0529 H   0  0  0  0  0  0  0  0  0  0  0  0  # atno 8008 bound_to 7997
  155.1861  140.0405  157.2908 H   0  0  0  0  0  0  0  0  0  0  0  0  # atno 8009 bound_to 7997
  154.6227  140.2480  155.7537 H   0  0  0  0  0  0  0  0  0  0  0  0  # atno 8010 bound_to 7997
  140.6025  143.8576  150.6979 H   0  0  0  0  0  0  0  0  0  0  0  0  # atno 10167 bound_to 10162
  156.6361  130.8949  151.2987 H   0  0  0  0  0  0  0  0  0  0  0  0  # atno 10718 bound_to 10713
  153.6333  135.3392  155.3048 H   0  0  0  0  0  0  0  0  0  0  0  0  # atno 10763 bound_to 10752
  154.8575  135.4301  154.2082 H   0  0  0  0  0  0  0  0  0  0  0  0  # atno 10764 bound_to 10752
  153.2983  135.7022  153.7300 H   0  0  0  0  0  0  0  0  0  0  0  0  # atno 10765 bound_to 10752
  141.1500  133.7879  157.0142 H   0  0  0  0  0  0  0  0  0  0  0  0  # atno 11005 bound_to 11000
  146.3016  139.7444  142.9087 LP  0  0  0  0  0  0  0  0  0  0  0  0  # atno 17320 bound_to 7965
  145.3893  141.0370  143.3133 LP  0  0  0  0  0  0  0  0  0  0  0  0  # atno 17321 bound_to 7965
  140.2125  143.3872  152.1707 LP  0  0  0  0  0  0  0  0  0  0  0  0  # atno 17342 bound_to 10162
  139.5301  144.7149  151.5087 LP  0  0  0  0  0  0  0  0  0  0  0  0  # atno 17343 bound_to 10162
  157.7185  130.9528  150.1347 LP  0  0  0  0  0  0  0  0  0  0  0  0  # atno 17370 bound_to 10713
  156.2196  130.3673  149.8572 LP  0  0  0  0  0  0  0  0  0  0  0  0  # atno 17371 bound_to 10713
  140.0858  134.9621  157.1697 LP  0  0  0  0  0  0  0  0  0  0  0  0  # atno 17394 bound_to 11000
  140.3514  134.2595  155.7198 LP  0  0  0  0  0  0  0  0  0  0  0  0  # atno 17395 bound_to 11000

$$$$
