AV-unprocessed.smi:196|AV-procd|sdf|1533|dock3
  -GOLD-   2262019383D 1   1.00000     0.00000
 Structure written by MMmdl.
 47 50  0  0  0  0  0  0  0  0  1 V2000
  151.6489  130.0087  156.0580 C   0  0  0  0  0  0  0  0  0  0  0  0
  150.3086  130.7245  156.2926 C   0  0  1  0  0  0  0  0  0  0  0  0
  149.4911  129.9806  157.1956 O   0  0  0  0  0  0  0  0  0  0  0  0
  149.1354  130.7859  158.3103 C   0  0  0  0  0  0  0  0  0  0  0  0
  149.1833  132.2116  157.7763 C   0  0  0  0  0  0  0  0  0  0  0  0
  150.3803  132.1710  156.8367 C   0  0  1  0  0  0  0  0  0  0  0  0
  151.5567  132.3656  157.6062 O   0  0  0  0  0  0  0  0  0  0  0  0
  150.3408  133.2412  155.7204 C   0  0  0  0  0  0  0  0  0  0  0  0
  149.2257  133.0760  154.8011 N   0  0  0  0  0  0  0  0  0  0  0  0
  149.2575  132.4654  153.5670 C   0  0  0  0  0  0  0  0  0  0  0  0
  148.1194  132.4394  152.9282 N   0  0  0  0  0  0  0  0  0  0  0  0
  147.2388  133.0871  153.7849 C   0  0  0  0  0  0  0  0  0  0  0  0
  145.8575  133.4066  153.7229 C   0  0  0  0  0  0  0  0  0  0  0  0
  145.0885  133.0653  152.6627 N   0  0  0  0  0  0  0  0  0  0  0  0
  145.6383  132.0126  151.8112 C   0  0  0  0  0  0  0  0  0  0  0  0
  145.8425  132.6521  150.4422 C   0  0  1  0  0  0  0  0  0  0  0  0
  145.7928  131.7673  149.4468 F   0  0  0  0  0  0  0  0  0  0  0  0
  144.7076  133.6631  150.3848 C   0  0  0  0  0  0  0  0  0  0  0  0
  144.6420  134.1920  151.8274 C   0  0  1  0  0  0  0  0  0  0  0  0
  143.2380  134.7211  152.1731 C   0  0  0  0  0  0  0  0  0  0  0  0
  142.2038  133.8747  152.1452 N   0  0  0  0  0  0  0  0  0  0  0  0
  143.0915  135.9038  152.4734 O   0  0  0  0  0  0  0  0  0  0  0  0
  145.3112  134.0764  154.7724 N   0  0  0  0  0  0  0  0  0  0  0  0
  146.0713  134.4071  155.8210 C   0  0  0  0  0  0  0  0  0  0  0  0
  147.3702  134.1696  156.0188 N   0  0  0  0  0  0  0  0  0  0  0  0
  147.9186  133.5007  154.9640 C   0  0  0  0  0  0  0  0  0  0  0  0
  146.8074  133.1589  150.3948 H   0  0  0  0  0  0  0  0  0  0  0  0
  145.3392  135.0277  151.9185 H   0  0  0  0  0  0  0  0  0  0  0  0
  152.2806  130.5744  155.3728 H   0  0  0  0  0  0  0  0  0  0  0  0
  151.4876  129.0225  155.6226 H   0  0  0  0  0  0  0  0  0  0  0  0
  152.1990  129.8676  156.9887 H   0  0  0  0  0  0  0  0  0  0  0  0
  149.7618  130.7314  155.3488 H   0  0  0  0  0  0  0  0  0  0  0  0
  148.1556  130.5152  158.7038 H   0  0  0  0  0  0  0  0  0  0  0  0
  149.8727  130.6455  159.1021 H   0  0  0  0  0  0  0  0  0  0  0  0
  148.2701  132.4130  157.2145 H   0  0  0  0  0  0  0  0  0  0  0  0
  149.2654  132.9618  158.5640 H   0  0  0  0  0  0  0  0  0  0  0  0
  152.1774  132.8555  157.0886 H   0  0  0  0  0  0  0  0  0  0  0  0
  150.2886  134.2404  156.1548 H   0  0  0  0  0  0  0  0  0  0  0  0
  151.2617  133.2114  155.1364 H   0  0  0  0  0  0  0  0  0  0  0  0
  150.1573  132.0324  153.1543 H   0  0  0  0  0  0  0  0  0  0  0  0
  146.5603  131.5676  152.1902 H   0  0  0  0  0  0  0  0  0  0  0  0
  144.8970  131.2147  151.7515 H   0  0  0  0  0  0  0  0  0  0  0  0
  144.8872  134.4520  149.6539 H   0  0  0  0  0  0  0  0  0  0  0  0
  143.7791  133.1574  150.1124 H   0  0  0  0  0  0  0  0  0  0  0  0
  141.2760  134.2073  152.3662 H   0  0  0  0  0  0  0  0  0  0  0  0
  142.3535  132.9067  151.9000 H   0  0  0  0  0  0  0  0  0  0  0  0
  145.5669  134.9373  156.6155 H   0  0  0  0  0  0  0  0  0  0  0  0
  1  2  1  0  0  0  0
  1 29  1  0  0  0  0
  1 30  1  0  0  0  0
  1 31  1  0  0  0  0
  2  6  1  0  0  0  0
  2  3  1  0  0  0  0
  2 32  1  0  0  0  0
  3  4  1  0  0  0  0
  4  5  1  0  0  0  0
  4 33  1  0  0  0  0
  4 34  1  0  0  0  0
  5  6  1  0  0  0  0
  5 35  1  0  0  0  0
  5 36  1  0  0  0  0
  6  7  1  0  0  0  0
  6  8  1  0  0  0  0
  7 37  1  0  0  0  0
  8  9  1  0  0  0  0
  8 38  1  0  0  0  0
  8 39  1  0  0  0  0
  9 26  1  0  0  0  0
  9 10  1  0  0  0  0
 10 11  2  0  0  0  0
 10 40  1  0  0  0  0
 11 12  1  0  0  0  0
 12 26  2  0  0  0  0
 12 13  1  0  0  0  0
 13 14  1  0  0  0  0
 13 23  2  0  0  0  0
 14 19  1  0  0  0  0
 14 15  1  0  0  0  0
 15 16  1  0  0  0  0
 15 41  1  0  0  0  0
 15 42  1  0  0  0  0
 16 27  1  0  0  0  0
 16 17  1  0  0  0  0
 16 18  1  0  0  0  0
 18 19  1  0  0  0  0
 18 43  1  0  0  0  0
 18 44  1  0  0  0  0
 19 28  1  0  0  0  0
 19 20  1  0  0  0  0
 20 21  1  0  0  0  0
 20 22  2  0  0  0  0
 21 45  1  0  0  0  0
 21 46  1  0  0  0  0
 23 24  1  0  0  0  0
 24 25  2  0  0  0  0
 24 47  1  0  0  0  0
 25 26  1  0  0  0  0
M  END
> <s_m_source_file>
AV-unprocessed.smi

> <i_m_source_file_index>
196

> <i_lp_mmshare_version>
43012

> <i_f3d_flags>
0

> <s_epik_input>
W0NIMl0xW0NIMl1PW0NAQEhdKFtDSDNdKVtDQEBdMShbT0hdKVtDSDJdbihbY0hdbjIpYyhjMjMpbltjSF1uYzNONFtDSDJdW0NASF0oRilbQ0gyXVtDQEhdNEMoPU8pW05IMl0=

> <s_epik_cmdline>
J2VwaWtfcHl0aG9uJywgJy1waCcsICc3LjAnLCAnLXRuJywgJzgnLCAnLW1hJywgJzIwMCcsICctbWV0YWxfYmluZGluZycsICctaW1hZScsICc8aW5maWxlLm1hZT4nLCAnLW9tYWUnLCAnPG91dGZpbGUubWFlPic=

> <r_lp_tautomer_probability>
1

> <r_epik_Ionization_Penalty>
0.000857933

> <r_epik_Ionization_Penalty_Charging>
0

> <r_epik_Ionization_Penalty_Neutral>
0.000857933

> <r_epik_State_Penalty>
0.000462053

> <r_epik_Charging_Adjusted_Penalty>
0.000462053

> <i_epik_Tot_Q>
0

> <i_epik_Tot_abs_Q>
0

> <r_epik_Metal_State_Penalty>
-0

> <b_epik_Metal_Only>
0

> <s_lp_Force_Field>
OPLS_2005

> <r_lp_Energy>
45.9197

> <b_lp_Chiralities_Consistent>
1

> <s_lp_Variant>
AV-unprocessed.smi:196-6

> <Gold.Version>
5.8.1

> <Gold.Id.Protein>
6NUR|6NUR_protein|mol2

> <Gold.PLP.Fitness>
35.6684

> <Gold.PLP.PLP>
-33.9963

> <Gold.PLP.part.hbond>
-2.6583

> <Gold.PLP.part.metal>
0.0000

> <Gold.PLP.part.buried>
-6.6313

> <Gold.PLP.part.nonpolar>
-25.3711

> <Gold.PLP.part.repulsive>
0.6446

> <Gold.PLP.ligand.clash>
0.0000

> <Gold.PLP.ligand.torsion>
0.6974

> <Gold.PLP.Chemscore.Hbond>
0.9920

> <Gold.PLP.Chemscore.CHOScore>
0.0000

> <Gold.PLP.Chemscore.Metal>
0.0000

> <Gold.Chemscore.Hbonds>
donor molecule, donor type, donor heavy atom, donor atom, acceptor molecule, acceptor atom, score
      P1  H  6896  6907       L1     7  1.00

> <Gold.PLP.Chemscore.Internal.Correction>
0.0909

> <Gold.Rescore>
     Score         DG    S(hbond)    S(metal)    S(lipo)     H(rot)  DE(clash)    DE(int)     intcor
      4.87      -7.21       0.87        0.00      56.41       3.04       0.01       2.33       ----

> <Gold.Chemscore.Fitness>
4.8712

> <Gold.Chemscore.DG>
-7.2103

> <Gold.Chemscore.ZeroCoef>
-5.4800

> <Gold.Chemscore.Hbond>
0.8729

> <Gold.Chemscore.Metal>
0.0000

> <Gold.Chemscore.Lipo>
56.4145

> <Gold.Chemscore.Internal_Hbond>
0.0000

> <Gold.Chemscore.DEClash>
0.0101

> <Gold.Chemscore.DEInternal>
2.3290

> <Gold.Chemscore.Rot>
3.0413

> <Gold.Chemscore.Internal.Correction>
   9.000000E+99

> <Gold.Chemscore.Hbonds>
donor molecule, donor type, donor heavy atom, donor atom, acceptor molecule, acceptor atom, score
      P1  H  6896  6907       L1     7  0.39

> <Gold.Chemscore.Hbond.Weighted>
-2.9154

> <Gold.Chemscore.Metal.Weighted>
-0.0000

> <Gold.Chemscore.Lipo.Weighted>
-6.6005

> <Gold.Chemscore.Internal_Hbond.Weighted>
0.0000

> <Gold.Chemscore.DEClash.Weighted>
0.0101

> <Gold.Chemscore.DEInternal.Weighted>
2.3290

> <Gold.Chemscore.Rot.Weighted>
7.7856

> <Gold.Chemscore.Internal.Correction.Weighted>
   9.000000E+99

> <Gold.Protein.RotatedTorsions>
[ 6907 6896 6895 6894 ] final -169.98 input  -60.11 | X-H torsion
[ 7974 7965 7964 7962 ] final   47.29 input  175.53 | X-H torsion
[ 8008 7997 7996 7995 ] final   22.61 input   59.86 | X-H torsion
[ 10167 10162 10161 10158 ] final -167.12 input  -65.29 | X-H torsion
[ 10718 10713 10712 10709 ] final  -31.06 input   66.30 | X-H torsion
[ 10763 10752 10751 10750 ] final  -10.75 input  -60.55 | X-H torsion
[ 11005 11000 10999 10996 ] final -144.84 input  -57.11 | X-H torsion

> <Gold.Protein.ActiveResidues>
 VAL166  LYS551  ARG553  GLY616  TRP617  ASP618  TYR619  PRO620  LYS621  CYS622 
 ASP623  PHE694  ASN695  SER759  ASP760  ASP761  ALA762  ILE779  LEU786  VAL792 
 PHE793  MET794  SER795  GLU796  ALA797  LYS798  CYS799  TRP800  GLU811  SER814 

> <Gold.Protein.RotatedAtoms>
  151.5003  133.3506  159.2867 H   0  0  0  0  0  0  0  0  0  0  0  0  # atno 6907 bound_to 6896
  150.8777  134.8165  159.7213 H   0  0  0  0  0  0  0  0  0  0  0  0  # atno 6908 bound_to 6896
  152.4742  134.4896  159.9743 H   0  0  0  0  0  0  0  0  0  0  0  0  # atno 6909 bound_to 6896
  146.0311  139.4765  142.9837 H   0  0  0  0  0  0  0  0  0  0  0  0  # atno 7974 bound_to 7965
  154.9684  140.3087  155.4999 H   0  0  0  0  0  0  0  0  0  0  0  0  # atno 8008 bound_to 7997
  156.2969  140.2288  156.4713 H   0  0  0  0  0  0  0  0  0  0  0  0  # atno 8009 bound_to 7997
  154.7900  140.0440  157.1182 H   0  0  0  0  0  0  0  0  0  0  0  0  # atno 8010 bound_to 7997
  139.6070  144.0893  152.1803 H   0  0  0  0  0  0  0  0  0  0  0  0  # atno 10167 bound_to 10162
  156.3920  130.4374  149.7387 H   0  0  0  0  0  0  0  0  0  0  0  0  # atno 10718 bound_to 10713
  153.4738  135.7017  153.5978 H   0  0  0  0  0  0  0  0  0  0  0  0  # atno 10763 bound_to 10752
  153.4220  135.3823  155.2117 H   0  0  0  0  0  0  0  0  0  0  0  0  # atno 10764 bound_to 10752
  154.8724  135.3930  154.4179 H   0  0  0  0  0  0  0  0  0  0  0  0  # atno 10765 bound_to 10752
  140.7983  134.2886  157.4988 H   0  0  0  0  0  0  0  0  0  0  0  0  # atno 11005 bound_to 11000
  145.7038  141.0127  143.1490 LP  0  0  0  0  0  0  0  0  0  0  0  0  # atno 17320 bound_to 7965
  144.7031  139.8676  143.7438 LP  0  0  0  0  0  0  0  0  0  0  0  0  # atno 17321 bound_to 7965
  140.0502  144.5938  150.7342 LP  0  0  0  0  0  0  0  0  0  0  0  0  # atno 17342 bound_to 10162
  140.7292  143.2670  151.4013 LP  0  0  0  0  0  0  0  0  0  0  0  0  # atno 17343 bound_to 10162
  156.4437  130.7873  151.2894 LP  0  0  0  0  0  0  0  0  0  0  0  0  # atno 17370 bound_to 10713
  157.7499  131.0117  150.3355 LP  0  0  0  0  0  0  0  0  0  0  0  0  # atno 17371 bound_to 10713
  139.8724  134.9415  156.3798 LP  0  0  0  0  0  0  0  0  0  0  0  0  # atno 17394 bound_to 11000
  140.9320  133.7573  156.0036 LP  0  0  0  0  0  0  0  0  0  0  0  0  # atno 17395 bound_to 11000

$$$$
