AV-unprocessed.smi:560|AV-procd|sdf|2931|dock1
  -GOLD-   2262023423D 1   1.00000     0.00000
 Structure written by MMmdl.
 42 43  0  0  0  0  0  0  0  0  2 V2000
  151.5492  138.6278  159.1443 C   0  0  0  0  0  0  0  0  0  0  0  0
  152.3720  139.5089  158.1822 C   0  0  1  0  0  0  0  0  0  0  0  0
  152.3558  138.9897  156.7351 C   0  0  0  0  0  0  0  0  0  0  0  0
  153.1150  139.4597  155.8870 O   0  0  0  0  0  0  0  0  0  0  0  0
  151.4734  138.0141  156.4653 N   0  0  0  0  0  0  0  0  0  0  0  0
  151.3056  137.3582  155.1693 C   0  0  2  0  0  0  0  0  0  0  0  0
  151.1424  138.3775  154.0242 C   0  0  0  0  0  0  0  0  0  0  0  0
  149.7890  139.1053  154.0918 C   0  0  0  0  0  0  0  0  0  0  0  0
  148.6609  138.1361  154.0905 N   0  3  2  0  0  0  0  0  0  0  0  0
  147.3298  138.7914  154.0101 C   0  0  0  0  0  0  0  0  0  0  0  0
  146.5455  138.4021  152.7527 C   0  0  0  0  0  0  0  0  0  0  0  0
  147.0948  138.7177  151.5777 N   0  0  0  0  0  0  0  0  0  0  0  0
  145.4557  137.8389  152.8364 O   0  0  0  0  0  0  0  0  0  0  0  0
  148.7573  137.1844  155.2269 C   0  0  0  0  0  0  0  0  0  0  0  0
  150.0908  136.4143  155.2000 C   0  0  0  0  0  0  0  0  0  0  0  0
  151.9557  140.9063  158.2258 N   0  0  0  0  0  0  0  0  0  0  0  0
  152.0733  141.7947  159.2756 C   0  0  0  0  0  0  0  0  0  0  0  0
  151.5860  142.9980  158.8526 C   0  0  0  0  0  0  0  0  0  0  0  0
  151.1956  142.7501  157.5075 C   0  0  0  0  0  0  0  0  0  0  0  0
  151.4255  141.5026  157.1327 N   0  0  0  0  0  0  0  0  0  0  0  0
  151.9129  137.5997  159.1440 H   0  0  0  0  0  0  0  0  0  0  0  0
  150.4920  138.6033  158.8763 H   0  0  0  0  0  0  0  0  0  0  0  0
  151.6209  138.9984  160.1671 H   0  0  0  0  0  0  0  0  0  0  0  0
  153.4079  139.4724  158.5232 H   0  0  0  0  0  0  0  0  0  0  0  0
  150.8957  137.6822  157.2237 H   0  0  0  0  0  0  0  0  0  0  0  0
  152.1969  136.7564  154.9815 H   0  0  0  0  0  0  0  0  0  0  0  0
  151.9574  139.1019  154.0318 H   0  0  0  0  0  0  0  0  0  0  0  0
  151.2159  137.8553  153.0693 H   0  0  0  0  0  0  0  0  0  0  0  0
  149.7381  139.7265  154.9874 H   0  0  0  0  0  0  0  0  0  0  0  0
  149.7065  139.7799  153.2392 H   0  0  0  0  0  0  0  0  0  0  0  0
  146.7198  138.4899  154.8626 H   0  0  0  0  0  0  0  0  0  0  0  0
  147.4421  139.8752  154.0723 H   0  0  0  0  0  0  0  0  0  0  0  0
  146.6248  138.4818  150.7155 H   0  0  0  0  0  0  0  0  0  0  0  0
  147.9872  139.1910  151.5539 H   0  0  0  0  0  0  0  0  0  0  0  0
  148.6483  137.7270  156.1674 H   0  0  0  0  0  0  0  0  0  0  0  0
  147.9349  136.4700  155.1781 H   0  0  0  0  0  0  0  0  0  0  0  0
  150.1134  135.7765  154.3150 H   0  0  0  0  0  0  0  0  0  0  0  0
  150.1545  135.7430  156.0574 H   0  0  0  0  0  0  0  0  0  0  0  0
  152.4898  141.5004  160.2275 H   0  0  0  0  0  0  0  0  0  0  0  0
  151.5212  143.9165  159.4166 H   0  0  0  0  0  0  0  0  0  0  0  0
  150.7598  143.4353  156.7956 H   0  0  0  0  0  0  0  0  0  0  0  0
  148.7495  137.5832  153.2493 H   0  0  0  0  0  0  0  0  0  0  0  0
  1  2  1  0  0  0  0
  1 21  1  0  0  0  0
  1 22  1  0  0  0  0
  1 23  1  0  0  0  0
  2  3  1  0  0  0  0
  2 16  1  0  0  0  0
  2 24  1  0  0  0  0
  3  4  2  0  0  0  0
  3  5  1  0  0  0  0
  5  6  1  0  0  0  0
  5 25  1  0  0  0  0
  6 15  1  0  0  0  0
  6  7  1  0  0  0  0
  6 26  1  0  0  0  0
  7  8  1  0  0  0  0
  7 27  1  0  0  0  0
  7 28  1  0  0  0  0
  8  9  1  0  0  0  0
  8 29  1  0  0  0  0
  8 30  1  0  0  0  0
  9 10  1  0  0  0  0
  9 14  1  0  0  0  0
  9 42  1  0  0  0  0
 10 11  1  0  0  0  0
 10 31  1  0  0  0  0
 10 32  1  0  0  0  0
 11 12  1  0  0  0  0
 11 13  2  0  0  0  0
 12 33  1  0  0  0  0
 12 34  1  0  0  0  0
 14 15  1  0  0  0  0
 14 35  1  0  0  0  0
 14 36  1  0  0  0  0
 15 37  1  0  0  0  0
 15 38  1  0  0  0  0
 16 20  1  0  0  0  0
 16 17  1  0  0  0  0
 17 18  2  0  0  0  0
 17 39  1  0  0  0  0
 18 19  1  0  0  0  0
 18 40  1  0  0  0  0
 19 20  2  0  0  0  0
 19 41  1  0  0  0  0
M  CHG  1   9   1
M  END
> <s_m_source_file>
AV-unprocessed.smi

> <i_m_source_file_index>
560

> <i_lp_mmshare_version>
43012

> <i_f3d_flags>
0

> <s_epik_input>
bjFbY0hdW2NIXVtjSF1uMVtDQEhdKFtDSDNdKUMoPU8pW05IXVtDSF0yW0NIMl1bQ0gyXU4oW0NIMl1bQ0gyXTIpW0NIMl1DKD1PKVtOSDJd

> <s_epik_cmdline>
J2VwaWtfcHl0aG9uJywgJy1waCcsICc3LjAnLCAnLXRuJywgJzgnLCAnLW1hJywgJzIwMCcsICctbWV0YWxfYmluZGluZycsICctaW1hZScsICc8aW5maWxlLm1hZT4nLCAnLW9tYWUnLCAnPG91dGZpbGUubWFlPic=

> <r_lp_tautomer_probability>
1

> <r_epik_Ionization_Penalty>
1.02943

> <r_epik_Ionization_Penalty_Charging>
1.02936

> <r_epik_Ionization_Penalty_Neutral>
7.4537e-05

> <r_epik_State_Penalty>
1.08036

> <r_epik_Charging_Adjusted_Penalty>
2.10972

> <i_epik_Tot_Q>
1

> <i_epik_Tot_abs_Q>
1

> <r_epik_Metal_State_Penalty>
1.09347

> <b_epik_Metal_Only>
0

> <s_lp_Force_Field>
OPLS_2005

> <r_lp_Energy>
15.8217

> <b_lp_Chiralities_Consistent>
1

> <s_lp_Variant>
AV-unprocessed.smi:560-6

> <Gold.Version>
5.8.1

> <Gold.Id.Protein>
6NUR|6NUR_protein|mol2

> <Gold.PLP.Fitness>
42.9436

> <Gold.PLP.PLP>
-29.9814

> <Gold.PLP.part.hbond>
-3.6943

> <Gold.PLP.part.metal>
0.0000

> <Gold.PLP.part.buried>
-5.6176

> <Gold.PLP.part.nonpolar>
-21.5623

> <Gold.PLP.part.repulsive>
0.7944

> <Gold.PLP.ligand.clash>
0.0224

> <Gold.PLP.ligand.torsion>
1.0880

> <Gold.PLP.Chemscore.Hbond>
4.0000

> <Gold.PLP.Chemscore.CHOScore>
1.0000

> <Gold.PLP.Chemscore.Metal>
0.0000

> <Gold.Chemscore.Hbonds>
donor molecule, donor type, donor heavy atom, donor atom, acceptor molecule, acceptor atom, score
      L1  H     9    42       P1  7948  2.00
      L1  H    12    34       P1  7957  1.00
      P1  H  7997  8008       L1     4  0.94
      L1  C    19    41       P1  8028  1.00

> <Gold.PLP.Chemscore.Internal.Correction>
0.1605

> <Gold.Rescore>
     Score         DG    S(hbond)    S(metal)    S(lipo)     H(rot)  DE(clash)    DE(int)     intcor
     13.47     -17.05       2.89        0.00      71.57       2.52       0.11       3.47       ----

> <Gold.Chemscore.Fitness>
13.4707

> <Gold.Chemscore.DG>
-17.0533

> <Gold.Chemscore.ZeroCoef>
-5.4800

> <Gold.Chemscore.Hbond>
2.8927

> <Gold.Chemscore.Metal>
0.0000

> <Gold.Chemscore.Lipo>
71.5720

> <Gold.Chemscore.Internal_Hbond>
0.0000

> <Gold.Chemscore.DEClash>
0.1095

> <Gold.Chemscore.DEInternal>
3.4730

> <Gold.Chemscore.Rot>
2.5243

> <Gold.Chemscore.Internal.Correction>
   9.000000E+99

> <Gold.Chemscore.Hbonds>
donor molecule, donor type, donor heavy atom, donor atom, acceptor molecule, acceptor atom, score
      L1  H     9    42       P1  7948  0.99
      L1  H    12    34       P1  7957  0.93
      P1  H  7997  8008       L1     4  0.76

> <Gold.Chemscore.Hbond.Weighted>
-9.6615

> <Gold.Chemscore.Metal.Weighted>
-0.0000

> <Gold.Chemscore.Lipo.Weighted>
-8.3739

> <Gold.Chemscore.Internal_Hbond.Weighted>
0.0000

> <Gold.Chemscore.DEClash.Weighted>
0.1095

> <Gold.Chemscore.DEInternal.Weighted>
3.4730

> <Gold.Chemscore.Rot.Weighted>
6.4622

> <Gold.Chemscore.Internal.Correction.Weighted>
   9.000000E+99

> <Gold.Protein.RotatedTorsions>
[ 6907 6896 6895 6894 ] final  -28.85 input  -60.11 | X-H torsion
[ 7974 7965 7964 7962 ] final   39.76 input  175.53 | X-H torsion
[ 8008 7997 7996 7995 ] final  -52.31 input   59.86 | X-H torsion
[ 10167 10162 10161 10158 ] final   21.76 input  -65.29 | X-H torsion
[ 10718 10713 10712 10709 ] final  129.46 input   66.30 | X-H torsion
[ 10763 10752 10751 10750 ] final   15.67 input  -60.55 | X-H torsion
[ 11005 11000 10999 10996 ] final  125.44 input  -57.11 | X-H torsion

> <Gold.Protein.ActiveResidues>
 VAL166  LYS551  ARG553  GLY616  TRP617  ASP618  TYR619  PRO620  LYS621  CYS622 
 ASP623  PHE694  ASN695  SER759  ASP760  ASP761  ALA762  ILE779  LEU786  VAL792 
 PHE793  MET794  SER795  GLU796  ALA797  LYS798  CYS799  TRP800  GLU811  SER814 

> <Gold.Protein.RotatedAtoms>
  151.1273  135.0111  159.8565 H   0  0  0  0  0  0  0  0  0  0  0  0  # atno 6907 bound_to 6896
  152.5450  134.1652  159.8584 H   0  0  0  0  0  0  0  0  0  0  0  0  # atno 6908 bound_to 6896
  151.1715  133.4736  159.2627 H   0  0  0  0  0  0  0  0  0  0  0  0  # atno 6909 bound_to 6896
  146.0959  139.5613  142.9446 H   0  0  0  0  0  0  0  0  0  0  0  0  # atno 7974 bound_to 7965
  154.4103  140.1227  156.4971 H   0  0  0  0  0  0  0  0  0  0  0  0  # atno 8008 bound_to 7997
  155.6932  140.3495  155.4883 H   0  0  0  0  0  0  0  0  0  0  0  0  # atno 8009 bound_to 7997
  155.9450  140.1094  157.1014 H   0  0  0  0  0  0  0  0  0  0  0  0  # atno 8010 bound_to 7997
  140.5402  143.9691  150.6514 H   0  0  0  0  0  0  0  0  0  0  0  0  # atno 10167 bound_to 10162
  157.5152  131.1097  150.9235 H   0  0  0  0  0  0  0  0  0  0  0  0  # atno 10718 bound_to 10713
  153.1503  135.6777  153.8892 H   0  0  0  0  0  0  0  0  0  0  0  0  # atno 10763 bound_to 10752
  153.8320  135.3116  155.3420 H   0  0  0  0  0  0  0  0  0  0  0  0  # atno 10764 bound_to 10752
  154.7857  135.4863  154.0027 H   0  0  0  0  0  0  0  0  0  0  0  0  # atno 10765 bound_to 10752
  139.9407  134.9636  156.8559 H   0  0  0  0  0  0  0  0  0  0  0  0  # atno 11005 bound_to 11000
  145.5949  141.0364  143.2050 LP  0  0  0  0  0  0  0  0  0  0  0  0  # atno 17320 bound_to 7965
  144.7395  139.7490  143.7316 LP  0  0  0  0  0  0  0  0  0  0  0  0  # atno 17321 bound_to 7965
  140.3089  143.3211  152.0898 LP  0  0  0  0  0  0  0  0  0  0  0  0  # atno 17342 bound_to 10162
  139.4986  144.6649  151.6380 LP  0  0  0  0  0  0  0  0  0  0  0  0  # atno 17343 bound_to 10162
  156.9863  130.5546  149.5300 LP  0  0  0  0  0  0  0  0  0  0  0  0  # atno 17370 bound_to 10713
  156.0315  130.5406  150.8547 LP  0  0  0  0  0  0  0  0  0  0  0  0  # atno 17371 bound_to 10713
  140.5960  134.0216  155.7518 LP  0  0  0  0  0  0  0  0  0  0  0  0  # atno 17394 bound_to 11000
  141.1039  133.9724  157.3030 LP  0  0  0  0  0  0  0  0  0  0  0  0  # atno 17395 bound_to 11000

$$$$
