AV-unprocessed.smi:2673|AV-procd|sdf|10356|dock8
  -GOLD-   2272014383D 1   1.00000     0.00000
 Structure written by MMmdl.
 32 33  0  0  0  0  0  0  0  0  1 V2000
  142.7877  140.0782  156.6923 O   0  0  0  0  0  0  0  0  0  0  0  0
  143.0142  140.2364  155.4936 C   0  0  0  0  0  0  0  0  0  0  0  0
  142.4278  139.5445  154.5008 N   0  0  0  0  0  0  0  0  0  0  0  0
  141.4366  138.5320  154.5974 C   0  0  0  0  0  0  0  0  0  0  0  0
  141.2229  137.8007  155.7026 N   0  0  0  0  0  0  0  0  0  0  0  0
  140.1933  136.8849  155.5284 N   0  0  0  0  0  0  0  0  0  0  0  0
  139.6720  136.9611  154.3007 C   0  0  0  0  0  0  0  0  0  0  0  0
  140.3888  138.1586  153.2363 S   0  0  0  0  0  0  0  0  0  0  0  0
  143.8896  141.1276  154.9991 N   0  0  0  0  0  0  0  0  0  0  0  0
  144.7351  142.1042  155.7081 C   0  0  0  0  0  0  0  0  0  0  0  0
  143.8423  143.0961  156.5089 C   0  0  0  0  0  0  0  0  0  0  0  0
  143.2473  142.4716  157.5262 F   0  0  0  0  0  0  0  0  0  0  0  0
  144.5838  144.0873  157.0069 F   0  0  0  0  0  0  0  0  0  0  0  0
  142.8860  143.6303  155.7500 F   0  0  0  0  0  0  0  0  0  0  0  0
  145.7732  141.4153  156.6408 C   0  0  0  0  0  0  0  0  0  0  0  0
  146.7670  140.5184  155.8802 C   0  0  0  0  0  0  0  0  0  0  0  0
  147.5074  141.3123  154.7946 C   0  0  0  0  0  0  0  0  0  0  0  0
  146.5203  142.0033  153.8433 C   0  0  0  0  0  0  0  0  0  0  0  0
  145.5192  142.8834  154.6172 C   0  0  0  0  0  0  0  0  0  0  0  0
  142.7166  139.7771  153.5621 H   0  0  0  0  0  0  0  0  0  0  0  0
  138.8595  136.3077  154.0200 H   0  0  0  0  0  0  0  0  0  0  0  0
  143.9773  141.1496  153.9940 H   0  0  0  0  0  0  0  0  0  0  0  0
  146.3405  142.1817  157.1700 H   0  0  0  0  0  0  0  0  0  0  0  0
  145.2826  140.8369  157.4227 H   0  0  0  0  0  0  0  0  0  0  0  0
  147.4869  140.0913  156.5788 H   0  0  0  0  0  0  0  0  0  0  0  0
  146.2422  139.6753  155.4297 H   0  0  0  0  0  0  0  0  0  0  0  0
  148.1461  142.0618  155.2635 H   0  0  0  0  0  0  0  0  0  0  0  0
  148.1677  140.6510  154.2328 H   0  0  0  0  0  0  0  0  0  0  0  0
  147.0688  142.6142  153.1258 H   0  0  0  0  0  0  0  0  0  0  0  0
  145.9875  141.2527  153.2583 H   0  0  0  0  0  0  0  0  0  0  0  0
  144.8272  143.3474  153.9133 H   0  0  0  0  0  0  0  0  0  0  0  0
  146.0711  143.7047  155.0756 H   0  0  0  0  0  0  0  0  0  0  0  0
  1  2  2  0  0  0  0
  2  3  1  0  0  0  0
  2  9  1  0  0  0  0
  3  4  1  0  0  0  0
  3 20  1  0  0  0  0
  4  8  1  0  0  0  0
  4  5  2  0  0  0  0
  5  6  1  0  0  0  0
  6  7  2  0  0  0  0
  7  8  1  0  0  0  0
  7 21  1  0  0  0  0
  9 10  1  0  0  0  0
  9 22  1  0  0  0  0
 10 19  1  0  0  0  0
 10 11  1  0  0  0  0
 10 15  1  0  0  0  0
 11 12  1  0  0  0  0
 11 13  1  0  0  0  0
 11 14  1  0  0  0  0
 15 16  1  0  0  0  0
 15 23  1  0  0  0  0
 15 24  1  0  0  0  0
 16 17  1  0  0  0  0
 16 25  1  0  0  0  0
 16 26  1  0  0  0  0
 17 18  1  0  0  0  0
 17 27  1  0  0  0  0
 17 28  1  0  0  0  0
 18 19  1  0  0  0  0
 18 29  1  0  0  0  0
 18 30  1  0  0  0  0
 19 31  1  0  0  0  0
 19 32  1  0  0  0  0
M  END
> <s_m_source_file>
AV-unprocessed.smi

> <i_m_source_file_index>
2673

> <i_lp_mmshare_version>
43012

> <i_f3d_flags>
0

> <s_epik_input>
czFbY0hdbm5jMVtOSF1DKD1PKVtOSF1DMihDKEYpKEYpRilbQ0gyXVtDSDJdW0NIMl1bQ0gyXVtDSDJdMg==

> <s_epik_cmdline>
J2VwaWtfcHl0aG9uJywgJy1waCcsICc3LjAnLCAnLXRuJywgJzgnLCAnLW1hJywgJzIwMCcsICctbWV0YWxfYmluZGluZycsICctaW1hZScsICc8aW5maWxlLm1hZT4nLCAnLW9tYWUnLCAnPG91dGZpbGUubWFlPic=

> <r_lp_tautomer_probability>
1

> <r_epik_Ionization_Penalty>
1.40881

> <r_epik_Ionization_Penalty_Charging>
0

> <r_epik_Ionization_Penalty_Neutral>
1.40881

> <r_epik_State_Penalty>
1.51827

> <r_epik_Charging_Adjusted_Penalty>
1.51827

> <i_epik_Tot_Q>
0

> <i_epik_Tot_abs_Q>
0

> <r_epik_Metal_State_Penalty>
1.5692

> <b_epik_Metal_Only>
0

> <s_lp_Force_Field>
OPLS_2005

> <r_lp_Energy>
12.8136

> <b_lp_Chiralities_Consistent>
1

> <s_lp_Variant>
AV-unprocessed.smi:2673-2

> <Gold.Version>
5.8.1

> <Gold.Id.Protein>
6NUR|6NUR_protein|mol2

> <Gold.PLP.Fitness>
29.4149

> <Gold.PLP.PLP>
-21.3138

> <Gold.PLP.part.hbond>
-2.9002

> <Gold.PLP.part.metal>
0.0000

> <Gold.PLP.part.buried>
-3.2272

> <Gold.PLP.part.nonpolar>
-15.7280

> <Gold.PLP.part.repulsive>
0.0490

> <Gold.PLP.ligand.clash>
0.0000

> <Gold.PLP.ligand.torsion>
0.2039

> <Gold.PLP.Chemscore.Hbond>
2.8268

> <Gold.PLP.Chemscore.CHOScore>
0.0000

> <Gold.PLP.Chemscore.Metal>
0.0000

> <Gold.Chemscore.Hbonds>
donor molecule, donor type, donor heavy atom, donor atom, acceptor molecule, acceptor atom, score
      L1  H     3    20       P1 10175  1.00
      L1  H     9    22       P1 10175  1.00
      P1  H 11000 11005       L1     6  0.63

> <Gold.PLP.Chemscore.Internal.Correction>
0.0284

> <Gold.Rescore>
     Score         DG    S(hbond)    S(metal)    S(lipo)     H(rot)  DE(clash)    DE(int)     intcor
     13.84     -16.23       2.80        0.00      33.72       1.00       0.00       2.40       ----

> <Gold.Chemscore.Fitness>
13.8375

> <Gold.Chemscore.DG>
-16.2334

> <Gold.Chemscore.ZeroCoef>
-5.4800

> <Gold.Chemscore.Hbond>
2.8047

> <Gold.Chemscore.Metal>
0.0000

> <Gold.Chemscore.Lipo>
33.7242

> <Gold.Chemscore.Internal_Hbond>
0.0000

> <Gold.Chemscore.DEClash>
0.0000

> <Gold.Chemscore.DEInternal>
2.3959

> <Gold.Chemscore.Rot>
1.0000

> <Gold.Chemscore.Internal.Correction>
   9.000000E+99

> <Gold.Chemscore.Hbonds>
donor molecule, donor type, donor heavy atom, donor atom, acceptor molecule, acceptor atom, score
      L1  H     3    20       P1 10175  0.93
      L1  H     9    22       P1 10175  0.53
      P1  H 11000 11005       L1     6  0.37

> <Gold.Chemscore.Hbond.Weighted>
-9.3677

> <Gold.Chemscore.Metal.Weighted>
-0.0000

> <Gold.Chemscore.Lipo.Weighted>
-3.9457

> <Gold.Chemscore.Internal_Hbond.Weighted>
0.0000

> <Gold.Chemscore.DEClash.Weighted>
0.0000

> <Gold.Chemscore.DEInternal.Weighted>
2.3959

> <Gold.Chemscore.Rot.Weighted>
2.5600

> <Gold.Chemscore.Internal.Correction.Weighted>
   9.000000E+99

> <Gold.Protein.RotatedTorsions>
[ 6907 6896 6895 6894 ] final  -32.01 input  -60.11 | X-H torsion
[ 7974 7965 7964 7962 ] final -165.44 input  175.53 | X-H torsion
[ 8008 7997 7996 7995 ] final  -47.54 input   59.86 | X-H torsion
[ 10167 10162 10161 10158 ] final  178.58 input  -65.29 | X-H torsion
[ 10718 10713 10712 10709 ] final -122.80 input   66.30 | X-H torsion
[ 10763 10752 10751 10750 ] final   -1.22 input  -60.55 | X-H torsion
[ 11005 11000 10999 10996 ] final   82.25 input  -57.11 | X-H torsion

> <Gold.Protein.ActiveResidues>
 VAL166  LYS551  ARG553  GLY616  TRP617  ASP618  TYR619  PRO620  LYS621  CYS622 
 ASP623  PHE694  ASN695  SER759  ASP760  ASP761  ALA762  ILE779  LEU786  VAL792 
 PHE793  MET794  SER795  GLU796  ALA797  LYS798  CYS799  TRP800  GLU811  SER814 

> <Gold.Protein.RotatedAtoms>
  151.0845  134.9878  159.8371 H   0  0  0  0  0  0  0  0  0  0  0  0  # atno 6907 bound_to 6896
  152.5423  134.2141  159.8772 H   0  0  0  0  0  0  0  0  0  0  0  0  # atno 6908 bound_to 6896
  151.2174  133.4478  159.2633 H   0  0  0  0  0  0  0  0  0  0  0  0  # atno 6909 bound_to 6896
  144.7270  140.2814  143.6235 H   0  0  0  0  0  0  0  0  0  0  0  0  # atno 7974 bound_to 7965
  154.4018  140.1344  156.4192 H   0  0  0  0  0  0  0  0  0  0  0  0  # atno 8008 bound_to 7997
  155.7659  140.3485  155.5201 H   0  0  0  0  0  0  0  0  0  0  0  0  # atno 8009 bound_to 7997
  155.8814  140.0988  157.1473 H   0  0  0  0  0  0  0  0  0  0  0  0  # atno 8010 bound_to 7997
  139.5300  144.2663  152.0665 H   0  0  0  0  0  0  0  0  0  0  0  0  # atno 10167 bound_to 10162
  156.1449  130.6492  150.9827 H   0  0  0  0  0  0  0  0  0  0  0  0  # atno 10718 bound_to 10713
  153.3421  135.6981  153.6858 H   0  0  0  0  0  0  0  0  0  0  0  0  # atno 10763 bound_to 10752
  153.5619  135.3533  155.2803 H   0  0  0  0  0  0  0  0  0  0  0  0  # atno 10764 bound_to 10752
  154.8638  135.4251  154.2636 H   0  0  0  0  0  0  0  0  0  0  0  0  # atno 10765 bound_to 10752
  139.9070  134.8057  156.2150 H   0  0  0  0  0  0  0  0  0  0  0  0  # atno 11005 bound_to 11000
  145.7946  139.1940  143.2083 LP  0  0  0  0  0  0  0  0  0  0  0  0  # atno 17320 bound_to 7965
  146.0727  140.7851  142.9680 LP  0  0  0  0  0  0  0  0  0  0  0  0  # atno 17321 bound_to 7965
  140.2125  144.4548  150.6379 LP  0  0  0  0  0  0  0  0  0  0  0  0  # atno 17342 bound_to 10162
  140.6471  143.2216  151.6161 LP  0  0  0  0  0  0  0  0  0  0  0  0  # atno 17343 bound_to 10162
  157.6608  131.0881  150.7843 LP  0  0  0  0  0  0  0  0  0  0  0  0  # atno 17370 bound_to 10713
  156.7916  130.4892  149.5384 LP  0  0  0  0  0  0  0  0  0  0  0  0  # atno 17371 bound_to 10713
  141.0442  133.6922  156.1652 LP  0  0  0  0  0  0  0  0  0  0  0  0  # atno 17394 bound_to 11000
  140.6910  134.4666  157.5588 LP  0  0  0  0  0  0  0  0  0  0  0  0  # atno 17395 bound_to 11000

$$$$
