AV-unprocessed.smi:50|AV-procd|sdf|495|dock5
  -GOLD-   2262016363D 1   1.00000     0.00000
 Structure written by MMmdl.
 43 44  0  0  0  0  0  0  0  0  3 V2000
  144.1719  132.1467  149.4915 C   0  0  0  0  0  0  0  0  0  0  0  0
  145.1685  132.9750  150.3245 C   0  0  0  0  0  0  0  0  0  0  0  0
  145.6798  132.1194  151.5001 C   0  0  0  0  0  0  0  0  0  0  0  0
  144.5482  134.3307  150.7629 C   0  0  2  0  0  0  0  0  0  0  0  0
  144.0060  135.0652  149.6032 N   0  3  0  0  0  0  0  0  0  0  0  0
  145.5397  135.2775  151.4664 C   0  0  0  0  0  0  0  0  0  0  0  0
  145.8454  136.3995  151.0573 O   0  0  0  0  0  0  0  0  0  0  0  0
  146.0240  134.7002  152.5823 O   0  0  0  0  0  0  0  0  0  0  0  0
  147.1614  135.2344  153.2473 C   0  0  0  0  0  0  0  0  0  0  0  0
  147.0501  134.9942  154.7576 C   0  0  0  0  0  0  0  0  0  0  0  0
  147.9916  135.8103  155.4419 O   0  0  0  0  0  0  0  0  0  0  0  0
  148.9882  135.1146  156.1206 C   0  0  0  0  0  0  0  0  0  0  0  0
  150.2767  135.6056  155.6631 N   0  0  0  0  0  0  0  0  0  0  0  0
  151.4768  135.0414  155.9009 C   0  0  0  0  0  0  0  0  0  0  0  0
  152.5201  135.6616  155.3521 N   0  0  0  0  0  0  0  0  0  0  0  0
  151.9145  136.7351  154.7110 C   0  0  0  0  0  0  0  0  0  0  0  0
  152.4731  137.8134  153.8607 C   0  0  0  0  0  0  0  0  0  0  0  0
  153.6863  137.8533  153.6674 O   0  0  0  0  0  0  0  0  0  0  0  0
  151.5557  138.6735  153.3257 N   0  5  0  0  0  0  0  0  0  0  0  0
  150.1932  138.5342  153.6237 C   0  0  0  0  0  0  0  0  0  0  0  0
  149.4138  139.5022  153.0297 N   0  0  0  0  0  0  0  0  0  0  0  0
  149.6341  137.6165  154.3735 N   0  0  0  0  0  0  0  0  0  0  0  0
  150.5570  136.7240  154.8849 C   0  0  0  0  0  0  0  0  0  0  0  0
  143.7151  134.1341  151.4390 H   0  0  0  0  0  0  0  0  0  0  0  0
  143.2682  131.9289  150.0620 H   0  0  0  0  0  0  0  0  0  0  0  0
  144.6083  131.1944  149.1882 H   0  0  0  0  0  0  0  0  0  0  0  0
  143.8732  132.6630  148.5791 H   0  0  0  0  0  0  0  0  0  0  0  0
  146.0271  133.1858  149.6848 H   0  0  0  0  0  0  0  0  0  0  0  0
  144.8911  131.9438  152.2327 H   0  0  0  0  0  0  0  0  0  0  0  0
  146.5181  132.5906  152.0131 H   0  0  0  0  0  0  0  0  0  0  0  0
  146.0327  131.1469  151.1550 H   0  0  0  0  0  0  0  0  0  0  0  0
  144.4258  134.7061  148.7569 H   0  0  0  0  0  0  0  0  0  0  0  0
  144.2246  136.0470  149.6932 H   0  0  0  0  0  0  0  0  0  0  0  0
  148.0309  134.6983  152.8672 H   0  0  0  0  0  0  0  0  0  0  0  0
  147.3238  136.2890  153.0201 H   0  0  0  0  0  0  0  0  0  0  0  0
  146.0207  135.1533  155.0772 H   0  0  0  0  0  0  0  0  0  0  0  0
  147.2876  133.9555  154.9879 H   0  0  0  0  0  0  0  0  0  0  0  0
  148.9151  135.2006  157.2064 H   0  0  0  0  0  0  0  0  0  0  0  0
  148.9131  134.0601  155.8538 H   0  0  0  0  0  0  0  0  0  0  0  0
  151.5869  134.1391  156.4843 H   0  0  0  0  0  0  0  0  0  0  0  0
  149.7844  140.2344  152.4420 H   0  0  0  0  0  0  0  0  0  0  0  0
  148.4082  139.5302  153.1154 H   0  0  0  0  0  0  0  0  0  0  0  0
  143.0052  134.9387  149.5603 H   0  0  0  0  0  0  0  0  0  0  0  0
  1  2  1  0  0  0  0
  1 25  1  0  0  0  0
  1 26  1  0  0  0  0
  1 27  1  0  0  0  0
  2  3  1  0  0  0  0
  2  4  1  0  0  0  0
  2 28  1  0  0  0  0
  3 29  1  0  0  0  0
  3 30  1  0  0  0  0
  3 31  1  0  0  0  0
  4 24  1  0  0  0  0
  4  5  1  0  0  0  0
  4  6  1  0  0  0  0
  5 32  1  0  0  0  0
  5 33  1  0  0  0  0
  5 43  1  0  0  0  0
  6  7  2  0  0  0  0
  6  8  1  0  0  0  0
  8  9  1  0  0  0  0
  9 10  1  0  0  0  0
  9 34  1  0  0  0  0
  9 35  1  0  0  0  0
 10 11  1  0  0  0  0
 10 36  1  0  0  0  0
 10 37  1  0  0  0  0
 11 12  1  0  0  0  0
 12 13  1  0  0  0  0
 12 38  1  0  0  0  0
 12 39  1  0  0  0  0
 13 23  1  0  0  0  0
 13 14  1  0  0  0  0
 14 15  2  0  0  0  0
 14 40  1  0  0  0  0
 15 16  1  0  0  0  0
 16 23  2  0  0  0  0
 16 17  1  0  0  0  0
 17 18  2  0  0  0  0
 17 19  1  0  0  0  0
 19 20  1  0  0  0  0
 20 21  1  0  0  0  0
 20 22  2  0  0  0  0
 21 41  1  0  0  0  0
 21 42  1  0  0  0  0
 22 23  1  0  0  0  0
M  CHG  1   5   1
M  CHG  1  19  -1
M  END
> <s_m_source_file>
AV-unprocessed.smi

> <i_m_source_file_index>
50

> <i_lp_mmshare_version>
43012

> <i_f3d_flags>
0

> <s_epik_input>
W0NIM11bQ0hdKFtDSDNdKVtDQEhdKFtOSDJdKUMoPU8pT1tDSDJdW0NIMl1PW0NIMl1uKFtjSF1uMSljKGMxMiluYyhbTkgyXSlbbkhdYzI9Tw==

> <s_epik_cmdline>
J2VwaWtfcHl0aG9uJywgJy1waCcsICc3LjAnLCAnLXRuJywgJzgnLCAnLW1hJywgJzIwMCcsICctbWV0YWxfYmluZGluZycsICctaW1hZScsICc8aW5maWxlLm1hZT4nLCAnLW9tYWUnLCAnPG91dGZpbGUubWFlPic=

> <r_lp_tautomer_probability>
0.99994

> <r_epik_Ionization_Penalty>
3.77459

> <r_epik_Ionization_Penalty_Charging>
0.215994

> <r_epik_Ionization_Penalty_Neutral>
3.5586

> <r_epik_State_Penalty>
3.75449

> <r_epik_Charging_Adjusted_Penalty>
3.97048

> <i_epik_Tot_Q>
0

> <i_epik_Tot_abs_Q>
2

> <r_epik_Metal_State_Penalty>
0.723824

> <b_epik_Metal_Only>
1

> <s_epik_Chemistry_Notes>
This compound has an ester and may undergo hydrolysis at high or low pH. This compound contains an acetal/aminal-like group ( X-CH(R)-Y where X, Y are N, S, or O) that may be acid/base labile, releasing an aldehyde.

> <s_lp_Force_Field>
OPLS_2005

> <r_lp_Energy>
6.41072

> <b_lp_Chiralities_Consistent>
1

> <s_lp_Variant>
AV-unprocessed.smi:50-5

> <Gold.Version>
5.8.1

> <Gold.Id.Protein>
6NUR|6NUR_protein|mol2

> <Gold.PLP.Fitness>
41.3142

> <Gold.PLP.PLP>
-27.7506

> <Gold.PLP.part.hbond>
-5.3175

> <Gold.PLP.part.metal>
0.0000

> <Gold.PLP.part.buried>
-2.8594

> <Gold.PLP.part.nonpolar>
-21.7908

> <Gold.PLP.part.repulsive>
1.2317

> <Gold.PLP.ligand.clash>
0.0000

> <Gold.PLP.ligand.torsion>
1.3245

> <Gold.PLP.Chemscore.Hbond>
5.2953

> <Gold.PLP.Chemscore.CHOScore>
0.0000

> <Gold.PLP.Chemscore.Metal>
0.0000

> <Gold.Chemscore.Hbonds>
donor molecule, donor type, donor heavy atom, donor atom, acceptor molecule, acceptor atom, score
      L1  H     5    32       P1  7921  0.83
      L1  H     5    43       P1 10186  1.92
      L1  H    21    41       P1  7957  0.13
      P1  H  7989  7998       L1    19  0.35
      P1  H 10752 10763       L1    18  0.13

> <Gold.PLP.Chemscore.Internal.Correction>
0.3268

> <Gold.Rescore>
     Score         DG    S(hbond)    S(metal)    S(lipo)     H(rot)  DE(clash)    DE(int)     intcor
      4.69     -10.49       3.61        0.00      45.61       4.83       1.52       4.29       ----

> <Gold.Chemscore.Fitness>
4.6857

> <Gold.Chemscore.DG>
-10.4933

> <Gold.Chemscore.ZeroCoef>
-5.4800

> <Gold.Chemscore.Hbond>
3.6061

> <Gold.Chemscore.Metal>
0.0000

> <Gold.Chemscore.Lipo>
45.6125

> <Gold.Chemscore.Internal_Hbond>
0.0000

> <Gold.Chemscore.DEClash>
1.5202

> <Gold.Chemscore.DEInternal>
4.2874

> <Gold.Chemscore.Rot>
4.8312

> <Gold.Chemscore.Internal.Correction>
   9.000000E+99

> <Gold.Chemscore.Hbonds>
donor molecule, donor type, donor heavy atom, donor atom, acceptor molecule, acceptor atom, score
      L1  H     5    32       P1  7921  0.76
      L1  H     5    43       P1 10186  0.68
      L1  H    21    41       P1  7957  0.13
      P1  H  7989  7998       L1    19  0.07

> <Gold.Chemscore.Hbond.Weighted>
-12.0445

> <Gold.Chemscore.Metal.Weighted>
-0.0000

> <Gold.Chemscore.Lipo.Weighted>
-5.3367

> <Gold.Chemscore.Internal_Hbond.Weighted>
0.0000

> <Gold.Chemscore.DEClash.Weighted>
1.5202

> <Gold.Chemscore.DEInternal.Weighted>
4.2874

> <Gold.Chemscore.Rot.Weighted>
12.3678

> <Gold.Chemscore.Internal.Correction.Weighted>
   9.000000E+99

> <Gold.Protein.RotatedTorsions>
[ 6907 6896 6895 6894 ] final   -6.89 input  -60.11 | X-H torsion
[ 7974 7965 7964 7962 ] final   14.31 input  175.53 | X-H torsion
[ 8008 7997 7996 7995 ] final -176.66 input   59.86 | X-H torsion
[ 10167 10162 10161 10158 ] final   46.57 input  -65.29 | X-H torsion
[ 10718 10713 10712 10709 ] final  -68.93 input   66.30 | X-H torsion
[ 10763 10752 10751 10750 ] final  -24.03 input  -60.55 | X-H torsion
[ 11005 11000 10999 10996 ] final   97.73 input  -57.11 | X-H torsion

> <Gold.Protein.ActiveResidues>
 VAL166  LYS551  ARG553  GLY616  TRP617  ASP618  TYR619  PRO620  LYS621  CYS622 
 ASP623  PHE694  ASN695  SER759  ASP760  ASP761  ALA762  ILE779  LEU786  VAL792 
 PHE793  MET794  SER795  GLU796  ALA797  LYS798  CYS799  TRP800  GLU811  SER814 

> <Gold.Protein.RotatedAtoms>
  151.4583  135.1036  159.9717 H   0  0  0  0  0  0  0  0  0  0  0  0  # atno 6907 bound_to 6896
  152.4862  133.8376  159.7146 H   0  0  0  0  0  0  0  0  0  0  0  0  # atno 6908 bound_to 6896
  150.8974  133.7103  159.2915 H   0  0  0  0  0  0  0  0  0  0  0  0  # atno 6909 bound_to 6896
  146.2308  139.9059  142.8532 H   0  0  0  0  0  0  0  0  0  0  0  0  # atno 7974 bound_to 7965
  155.9976  140.1214  157.0579 H   0  0  0  0  0  0  0  0  0  0  0  0  # atno 8008 bound_to 7997
  154.4231  140.1113  156.5720 H   0  0  0  0  0  0  0  0  0  0  0  0  # atno 8009 bound_to 7997
  155.6257  140.3472  155.4668 H   0  0  0  0  0  0  0  0  0  0  0  0  # atno 8010 bound_to 7997
  140.3126  144.2802  150.6197 H   0  0  0  0  0  0  0  0  0  0  0  0  # atno 10167 bound_to 10162
  156.0481  130.4303  150.2072 H   0  0  0  0  0  0  0  0  0  0  0  0  # atno 10718 bound_to 10713
  153.6773  135.6968  153.5128 H   0  0  0  0  0  0  0  0  0  0  0  0  # atno 10763 bound_to 10752
  153.2512  135.4274  155.0798 H   0  0  0  0  0  0  0  0  0  0  0  0  # atno 10764 bound_to 10752
  154.8410  135.3532  154.6317 H   0  0  0  0  0  0  0  0  0  0  0  0  # atno 10765 bound_to 10752
  139.8775  134.9015  156.4351 H   0  0  0  0  0  0  0  0  0  0  0  0  # atno 11005 bound_to 11000
  145.2277  140.9960  143.4009 LP  0  0  0  0  0  0  0  0  0  0  0  0  # atno 17320 bound_to 7965
  144.9557  139.4034  143.6381 LP  0  0  0  0  0  0  0  0  0  0  0  0  # atno 17321 bound_to 7965
  140.5555  143.2200  151.7855 LP  0  0  0  0  0  0  0  0  0  0  0  0  # atno 17342 bound_to 10162
  139.4890  144.4420  151.9754 LP  0  0  0  0  0  0  0  0  0  0  0  0  # atno 17343 bound_to 10162
  157.0159  130.9965  151.3353 LP  0  0  0  0  0  0  0  0  0  0  0  0  # atno 17370 bound_to 10713
  157.5378  130.8100  149.7992 LP  0  0  0  0  0  0  0  0  0  0  0  0  # atno 17371 bound_to 10713
  140.9039  133.7760  155.9712 LP  0  0  0  0  0  0  0  0  0  0  0  0  # atno 17394 bound_to 11000
  140.8621  134.2828  157.5230 LP  0  0  0  0  0  0  0  0  0  0  0  0  # atno 17395 bound_to 11000

$$$$
