AV-unprocessed.smi:2235|AV-procd|sdf|9044|dock7
  -GOLD-   2272012253D 1   1.00000     0.00000
 Structure written by MMmdl.
 36 37  0  0  0  0  0  0  0  0  1 V2000
  150.6979  140.7416  156.9047 O   0  0  0  0  0  0  0  0  0  0  0  0
  150.2977  141.8466  156.5386 C   0  0  0  0  0  0  0  0  0  0  0  0
  149.7360  142.0278  155.1281 C   0  0  0  0  0  0  0  0  0  0  0  0
  149.2998  140.7600  154.5712 N   0  0  0  0  0  0  0  0  0  0  0  0
  148.0438  140.4074  154.1240 C   0  0  0  0  0  0  0  0  0  0  0  0
  148.1098  139.1139  153.6887 C   0  0  0  0  0  0  0  0  0  0  0  0
  147.0175  138.2592  153.1078 C   0  0  0  0  0  0  0  0  0  0  0  0
  146.5030  138.8257  151.7775 C   0  0  0  0  0  0  0  0  0  0  0  0
  146.4585  137.8037  150.8051 O   0  0  0  0  0  0  0  0  0  0  0  0
  149.4700  138.7585  153.9144 C   0  0  0  0  0  0  0  0  0  0  0  0
  150.1791  139.7433  154.4417 N   0  0  0  0  0  0  0  0  0  0  0  0
  150.3242  142.9392  157.3172 N   0  0  0  0  0  0  0  0  0  0  0  0
  150.8189  142.9792  158.6903 C   0  0  0  0  0  0  0  0  0  0  0  0
  150.2010  144.1648  159.4528 C   0  0  0  0  0  0  0  0  0  0  0  0
  151.3211  145.1939  159.6047 C   0  0  0  0  0  0  0  0  0  0  0  0
  152.5881  144.3506  159.7044 C   0  0  0  0  0  0  0  0  0  0  0  0
  152.3475  143.1867  158.7411 C   0  0  0  0  0  0  0  0  0  0  0  0
  148.9012  142.7305  155.1431 H   0  0  0  0  0  0  0  0  0  0  0  0
  150.4995  142.4522  154.4747 H   0  0  0  0  0  0  0  0  0  0  0  0
  147.2155  141.1002  154.1520 H   0  0  0  0  0  0  0  0  0  0  0  0
  147.3749  137.2407  152.9515 H   0  0  0  0  0  0  0  0  0  0  0  0
  146.1855  138.1770  153.8085 H   0  0  0  0  0  0  0  0  0  0  0  0
  145.5033  139.2445  151.8975 H   0  0  0  0  0  0  0  0  0  0  0  0
  147.1527  139.6259  151.4215 H   0  0  0  0  0  0  0  0  0  0  0  0
  145.5782  137.7499  150.4656 H   0  0  0  0  0  0  0  0  0  0  0  0
  149.9601  137.8177  153.7116 H   0  0  0  0  0  0  0  0  0  0  0  0
  149.9708  143.8037  156.9325 H   0  0  0  0  0  0  0  0  0  0  0  0
  150.5455  142.0530  159.1995 H   0  0  0  0  0  0  0  0  0  0  0  0
  149.3200  144.5841  158.9649 H   0  0  0  0  0  0  0  0  0  0  0  0
  149.8882  143.8301  160.4429 H   0  0  0  0  0  0  0  0  0  0  0  0
  151.3668  145.8230  158.7147 H   0  0  0  0  0  0  0  0  0  0  0  0
  151.1793  145.8449  160.4679 H   0  0  0  0  0  0  0  0  0  0  0  0
  153.4892  144.9149  159.4634 H   0  0  0  0  0  0  0  0  0  0  0  0
  152.6951  143.9699  160.7211 H   0  0  0  0  0  0  0  0  0  0  0  0
  152.8728  142.2845  159.0560 H   0  0  0  0  0  0  0  0  0  0  0  0
  152.7340  143.4549  157.7565 H   0  0  0  0  0  0  0  0  0  0  0  0
  1  2  2  0  0  0  0
  2  3  1  0  0  0  0
  2 12  1  0  0  0  0
  3  4  1  0  0  0  0
  3 18  1  0  0  0  0
  3 19  1  0  0  0  0
  4 11  1  0  0  0  0
  4  5  1  0  0  0  0
  5  6  2  0  0  0  0
  5 20  1  0  0  0  0
  6  7  1  0  0  0  0
  6 10  1  0  0  0  0
  7  8  1  0  0  0  0
  7 21  1  0  0  0  0
  7 22  1  0  0  0  0
  8  9  1  0  0  0  0
  8 23  1  0  0  0  0
  8 24  1  0  0  0  0
  9 25  1  0  0  0  0
 10 11  2  0  0  0  0
 10 26  1  0  0  0  0
 12 13  1  0  0  0  0
 12 27  1  0  0  0  0
 13 17  1  0  0  0  0
 13 14  1  0  0  0  0
 13 28  1  0  0  0  0
 14 15  1  0  0  0  0
 14 29  1  0  0  0  0
 14 30  1  0  0  0  0
 15 16  1  0  0  0  0
 15 31  1  0  0  0  0
 15 32  1  0  0  0  0
 16 17  1  0  0  0  0
 16 33  1  0  0  0  0
 16 34  1  0  0  0  0
 17 35  1  0  0  0  0
 17 36  1  0  0  0  0
M  END
> <s_m_source_file>
AV-unprocessed.smi

> <i_m_source_file_index>
2235

> <i_lp_mmshare_version>
43012

> <i_f3d_flags>
0

> <s_epik_input>
W0NIMl0xW0NIMl1bQ0gyXVtDSDJdW0NIXTFbTkhdQyg9TylbQ0gyXW4yW2NIXWMoW2NIXW4yKVtDSDJdW0NIMl1bT0hd

> <s_epik_cmdline>
J2VwaWtfcHl0aG9uJywgJy1waCcsICc3LjAnLCAnLXRuJywgJzgnLCAnLW1hJywgJzIwMCcsICctbWV0YWxfYmluZGluZycsICctaW1hZScsICc8aW5maWxlLm1hZT4nLCAnLW9tYWUnLCAnPG91dGZpbGUubWFlPic=

> <r_lp_tautomer_probability>
1

> <r_epik_Ionization_Penalty>
3.35381e-05

> <r_epik_Ionization_Penalty_Charging>
0

> <r_epik_Ionization_Penalty_Neutral>
3.35381e-05

> <r_epik_State_Penalty>
-0

> <r_epik_Charging_Adjusted_Penalty>
0

> <i_epik_Tot_Q>
0

> <i_epik_Tot_abs_Q>
0

> <r_epik_Metal_State_Penalty>
-0

> <b_epik_Metal_Only>
0

> <s_lp_Force_Field>
OPLS_2005

> <r_lp_Energy>
18.0157

> <b_lp_Chiralities_Consistent>
1

> <s_lp_Variant>
AV-unprocessed.smi:2235-1

> <Gold.Version>
5.8.1

> <Gold.Id.Protein>
6NUR|6NUR_protein|mol2

> <Gold.PLP.Fitness>
46.6883

> <Gold.PLP.PLP>
-35.1817

> <Gold.PLP.part.hbond>
-4.8589

> <Gold.PLP.part.metal>
0.0000

> <Gold.PLP.part.buried>
1.0367

> <Gold.PLP.part.nonpolar>
-32.7872

> <Gold.PLP.part.repulsive>
0.1470

> <Gold.PLP.ligand.clash>
0.0000

> <Gold.PLP.ligand.torsion>
1.0007

> <Gold.PLP.Chemscore.Hbond>
3.8921

> <Gold.PLP.Chemscore.CHOScore>
0.5964

> <Gold.PLP.Chemscore.Metal>
0.0000

> <Gold.Chemscore.Hbonds>
donor molecule, donor type, donor heavy atom, donor atom, acceptor molecule, acceptor atom, score
      L1  H     9    25       P1 10171  1.00
      L1  H    12    27       P1  8028  1.00
      P1  H  7954  7966       L1     9  1.00
      P1  H  7989  7998       L1    11  0.69
      L1  C    10    26       P1  7948  0.66

> <Gold.PLP.Chemscore.Internal.Correction>
0.0423

> <Gold.Rescore>
     Score         DG    S(hbond)    S(metal)    S(lipo)     H(rot)  DE(clash)    DE(int)     intcor
     15.49     -18.13       2.40        0.00      93.49       2.46       0.21       2.43       ----

> <Gold.Chemscore.Fitness>
15.4939

> <Gold.Chemscore.DG>
-18.1331

> <Gold.Chemscore.ZeroCoef>
-5.4800

> <Gold.Chemscore.Hbond>
2.3975

> <Gold.Chemscore.Metal>
0.0000

> <Gold.Chemscore.Lipo>
93.4890

> <Gold.Chemscore.Internal_Hbond>
0.0000

> <Gold.Chemscore.DEClash>
0.2136

> <Gold.Chemscore.DEInternal>
2.4257

> <Gold.Chemscore.Rot>
2.4581

> <Gold.Chemscore.Internal.Correction>
   9.000000E+99

> <Gold.Chemscore.Hbonds>
donor molecule, donor type, donor heavy atom, donor atom, acceptor molecule, acceptor atom, score
      L1  H     9    25       P1 10171  0.92
      L1  H    12    27       P1  8028  0.94
      P1  H  7954  7966       L1     9  0.54
      P1  H  7989  7998       L1    11  0.08

> <Gold.Chemscore.Hbond.Weighted>
-8.0077

> <Gold.Chemscore.Metal.Weighted>
-0.0000

> <Gold.Chemscore.Lipo.Weighted>
-10.9382

> <Gold.Chemscore.Internal_Hbond.Weighted>
0.0000

> <Gold.Chemscore.DEClash.Weighted>
0.2136

> <Gold.Chemscore.DEInternal.Weighted>
2.4257

> <Gold.Chemscore.Rot.Weighted>
6.2928

> <Gold.Chemscore.Internal.Correction.Weighted>
   9.000000E+99

> <Gold.Protein.RotatedTorsions>
[ 6907 6896 6895 6894 ] final  173.22 input  -60.11 | X-H torsion
[ 7974 7965 7964 7962 ] final -134.96 input  175.53 | X-H torsion
[ 8008 7997 7996 7995 ] final   48.98 input   59.86 | X-H torsion
[ 10167 10162 10161 10158 ] final    5.62 input  -65.29 | X-H torsion
[ 10718 10713 10712 10709 ] final   30.75 input   66.30 | X-H torsion
[ 10763 10752 10751 10750 ] final -157.41 input  -60.55 | X-H torsion
[ 11005 11000 10999 10996 ] final  -74.52 input  -57.11 | X-H torsion

> <Gold.Protein.ActiveResidues>
 VAL166  LYS551  ARG553  GLY616  TRP617  ASP618  TYR619  PRO620  LYS621  CYS622 
 ASP623  PHE694  ASN695  SER759  ASP760  ASP761  ALA762  ILE779  LEU786  VAL792 
 PHE793  MET794  SER795  GLU796  ALA797  LYS798  CYS799  TRP800  GLU811  SER814 

> <Gold.Protein.RotatedAtoms>
  151.7718  133.3342  159.3446 H   0  0  0  0  0  0  0  0  0  0  0  0  # atno 6907 bound_to 6896
  150.7459  134.6012  159.6047 H   0  0  0  0  0  0  0  0  0  0  0  0  # atno 6908 bound_to 6896
  152.3336  134.7229  160.0334 H   0  0  0  0  0  0  0  0  0  0  0  0  # atno 6909 bound_to 6896
  144.9056  140.6829  143.5057 H   0  0  0  0  0  0  0  0  0  0  0  0  # atno 7974 bound_to 7965
  155.3946  140.3435  155.4253 H   0  0  0  0  0  0  0  0  0  0  0  0  # atno 8008 bound_to 7997
  156.1538  140.1579  156.8759 H   0  0  0  0  0  0  0  0  0  0  0  0  # atno 8009 bound_to 7997
  154.5076  140.0798  156.7907 H   0  0  0  0  0  0  0  0  0  0  0  0  # atno 8010 bound_to 7997
  140.6472  143.7632  150.7518 H   0  0  0  0  0  0  0  0  0  0  0  0  # atno 10167 bound_to 10162
  157.2636  130.7173  149.6467 H   0  0  0  0  0  0  0  0  0  0  0  0  # atno 10718 bound_to 10713
  154.7638  135.3125  154.8327 H   0  0  0  0  0  0  0  0  0  0  0  0  # atno 10763 bound_to 10752
  153.9080  135.6809  153.4756 H   0  0  0  0  0  0  0  0  0  0  0  0  # atno 10764 bound_to 10752
  153.1241  135.4809  154.9176 H   0  0  0  0  0  0  0  0  0  0  0  0  # atno 10765 bound_to 10752
  141.1636  133.6914  156.7377 H   0  0  0  0  0  0  0  0  0  0  0  0  # atno 11005 bound_to 11000
  145.3541  139.1698  143.4418 LP  0  0  0  0  0  0  0  0  0  0  0  0  # atno 17320 bound_to 7965
  146.3132  140.3596  142.8663 LP  0  0  0  0  0  0  0  0  0  0  0  0  # atno 17321 bound_to 7965
  140.1276  143.4555  152.2274 LP  0  0  0  0  0  0  0  0  0  0  0  0  # atno 17342 bound_to 10162
  139.5684  144.7448  151.3959 LP  0  0  0  0  0  0  0  0  0  0  0  0  # atno 17343 bound_to 10162
  155.9664  130.4389  150.5238 LP  0  0  0  0  0  0  0  0  0  0  0  0  # atno 17370 bound_to 10713
  157.3148  131.0670  151.1975 LP  0  0  0  0  0  0  0  0  0  0  0  0  # atno 17371 bound_to 10713
  140.2698  134.8401  157.3836 LP  0  0  0  0  0  0  0  0  0  0  0  0  # atno 17394 bound_to 11000
  140.1532  134.4822  155.7946 LP  0  0  0  0  0  0  0  0  0  0  0  0  # atno 17395 bound_to 11000

$$$$
