AV-unprocessed.smi:368|AV-procd|sdf|2434|dock1
  -GOLD-   2262022373D 1   1.00000     0.00000
 Structure written by MMmdl.
 37 38  0  0  0  0  0  0  0  0  1 V2000
  151.3984  140.6501  156.1401 O   0  0  0  0  0  0  0  0  0  0  0  0
  150.5901  141.5553  155.9285 C   0  0  0  0  0  0  0  0  0  0  0  0
  149.4817  141.3959  154.8776 C   0  0  0  0  0  0  0  0  0  0  0  0
  148.1251  141.3910  155.4494 N   0  0  0  0  0  0  0  0  0  0  0  0
  147.2146  142.3457  154.9663 C   0  0  0  0  0  0  0  0  0  0  0  0
  145.9618  142.4039  155.4402 C   0  0  0  0  0  0  0  0  0  0  0  0
  145.6103  141.4246  156.4769 C   0  0  0  0  0  0  0  0  0  0  0  0
  146.4393  140.5563  156.9231 N   0  0  0  0  0  0  0  0  0  0  0  0
  147.7560  140.5009  156.4276 C   0  0  0  0  0  0  0  0  0  0  0  0
  148.5610  139.6748  156.8582 O   0  0  0  0  0  0  0  0  0  0  0  0
  150.6021  142.7225  156.5905 N   0  0  0  0  0  0  0  0  0  0  0  0
  151.5564  143.1032  157.6292 C   0  0  0  0  0  0  0  0  0  0  0  0
  151.4364  142.1068  158.8012 C   0  0  0  0  0  0  0  0  0  0  0  0
  152.6073  142.1944  159.7950 C   0  0  0  0  0  0  0  0  0  0  0  0
  152.4466  143.2282  160.9232 C   0  0  0  0  0  0  0  0  0  0  0  0
  151.8193  144.5780  160.5342 C   0  0  0  0  0  0  0  0  0  0  0  0
  152.2131  145.1130  159.1481 C   0  0  0  0  0  0  0  0  0  0  0  0
  151.3125  144.5750  158.0229 C   0  0  0  0  0  0  0  0  0  0  0  0
  149.5841  142.2031  154.1509 H   0  0  0  0  0  0  0  0  0  0  0  0
  149.6518  140.4780  154.3119 H   0  0  0  0  0  0  0  0  0  0  0  0
  147.5968  143.0139  154.2083 H   0  0  0  0  0  0  0  0  0  0  0  0
  145.2146  143.1127  155.1152 H   0  0  0  0  0  0  0  0  0  0  0  0
  144.5839  141.4851  156.8480 H   0  0  0  0  0  0  0  0  0  0  0  0
  149.8979  143.4055  156.3513 H   0  0  0  0  0  0  0  0  0  0  0  0
  152.5644  143.0150  157.2192 H   0  0  0  0  0  0  0  0  0  0  0  0
  150.4807  142.2156  159.3157 H   0  0  0  0  0  0  0  0  0  0  0  0
  151.4370  141.0970  158.3876 H   0  0  0  0  0  0  0  0  0  0  0  0
  152.7500  141.2173  160.2581 H   0  0  0  0  0  0  0  0  0  0  0  0
  153.5322  142.3876  159.2503 H   0  0  0  0  0  0  0  0  0  0  0  0
  151.8479  142.7937  161.7245 H   0  0  0  0  0  0  0  0  0  0  0  0
  153.4305  143.4058  161.3592 H   0  0  0  0  0  0  0  0  0  0  0  0
  150.7329  144.5076  160.5993 H   0  0  0  0  0  0  0  0  0  0  0  0
  152.1034  145.3097  161.2914 H   0  0  0  0  0  0  0  0  0  0  0  0
  152.1024  146.1976  159.1651 H   0  0  0  0  0  0  0  0  0  0  0  0
  153.2663  144.9253  158.9360 H   0  0  0  0  0  0  0  0  0  0  0  0
  151.4697  145.1975  157.1409 H   0  0  0  0  0  0  0  0  0  0  0  0
  150.2659  144.7179  158.2964 H   0  0  0  0  0  0  0  0  0  0  0  0
  1  2  2  0  0  0  0
  2  3  1  0  0  0  0
  2 11  1  0  0  0  0
  3  4  1  0  0  0  0
  3 19  1  0  0  0  0
  3 20  1  0  0  0  0
  4  9  1  0  0  0  0
  4  5  1  0  0  0  0
  5  6  2  0  0  0  0
  5 21  1  0  0  0  0
  6  7  1  0  0  0  0
  6 22  1  0  0  0  0
  7  8  2  0  0  0  0
  7 23  1  0  0  0  0
  8  9  1  0  0  0  0
  9 10  2  0  0  0  0
 11 12  1  0  0  0  0
 11 24  1  0  0  0  0
 12 18  1  0  0  0  0
 12 13  1  0  0  0  0
 12 25  1  0  0  0  0
 13 14  1  0  0  0  0
 13 26  1  0  0  0  0
 13 27  1  0  0  0  0
 14 15  1  0  0  0  0
 14 28  1  0  0  0  0
 14 29  1  0  0  0  0
 15 16  1  0  0  0  0
 15 30  1  0  0  0  0
 15 31  1  0  0  0  0
 16 17  1  0  0  0  0
 16 32  1  0  0  0  0
 16 33  1  0  0  0  0
 17 18  1  0  0  0  0
 17 34  1  0  0  0  0
 17 35  1  0  0  0  0
 18 36  1  0  0  0  0
 18 37  1  0  0  0  0
M  END
> <s_m_source_file>
AV-unprocessed.smi

> <i_m_source_file_index>
368

> <i_lp_mmshare_version>
43012

> <i_f3d_flags>
0

> <s_epik_input>
W0NIMl0xW0NIMl1bQ0gyXVtDSDJdW0NIMl1bQ0gyXVtDSF0xW05IXUMoPU8pW0NIMl1uMltjSF1bY0hdW2NIXW5jMj1P

> <s_epik_cmdline>
J2VwaWtfcHl0aG9uJywgJy1waCcsICc3LjAnLCAnLXRuJywgJzgnLCAnLW1hJywgJzIwMCcsICctbWV0YWxfYmluZGluZycsICctaW1hZScsICc8aW5maWxlLm1hZT4nLCAnLW9tYWUnLCAnPG91dGZpbGUubWFlPic=

> <r_lp_tautomer_probability>
1

> <r_epik_Ionization_Penalty>
7.18069e-06

> <r_epik_Ionization_Penalty_Charging>
1.77491e-08

> <r_epik_Ionization_Penalty_Neutral>
7.16294e-06

> <r_epik_State_Penalty>
-0

> <r_epik_Charging_Adjusted_Penalty>
1.77491e-08

> <i_epik_Tot_Q>
0

> <i_epik_Tot_abs_Q>
0

> <r_epik_Metal_State_Penalty>
-0

> <b_epik_Metal_Only>
0

> <s_lp_Force_Field>
OPLS_2005

> <r_lp_Energy>
17.0449

> <b_lp_Chiralities_Consistent>
1

> <s_lp_Variant>
AV-unprocessed.smi:368-1

> <Gold.Version>
5.8.1

> <Gold.Id.Protein>
6NUR|6NUR_protein|mol2

> <Gold.PLP.Fitness>
42.5118

> <Gold.PLP.PLP>
-38.2954

> <Gold.PLP.part.hbond>
-1.0000

> <Gold.PLP.part.metal>
0.0000

> <Gold.PLP.part.buried>
-4.0595

> <Gold.PLP.part.nonpolar>
-33.0349

> <Gold.PLP.part.repulsive>
0.0719

> <Gold.PLP.ligand.clash>
0.0000

> <Gold.PLP.ligand.torsion>
0.0565

> <Gold.PLP.Chemscore.Hbond>
1.0000

> <Gold.PLP.Chemscore.CHOScore>
0.4376

> <Gold.PLP.Chemscore.Metal>
0.0000

> <Gold.Chemscore.Hbonds>
donor molecule, donor type, donor heavy atom, donor atom, acceptor molecule, acceptor atom, score
      L1  H    11    24       P1  8028  1.00
      L1  C     5    21       P1  8028  0.43

> <Gold.PLP.Chemscore.Internal.Correction>
0.0167

> <Gold.Rescore>
     Score         DG    S(hbond)    S(metal)    S(lipo)     H(rot)  DE(clash)    DE(int)     intcor
     15.56     -16.59       1.00        0.00      99.27       1.50       0.09       0.94       ----

> <Gold.Chemscore.Fitness>
15.5588

> <Gold.Chemscore.DG>
-16.5943

> <Gold.Chemscore.ZeroCoef>
-5.4800

> <Gold.Chemscore.Hbond>
0.9981

> <Gold.Chemscore.Metal>
0.0000

> <Gold.Chemscore.Lipo>
99.2720

> <Gold.Chemscore.Internal_Hbond>
0.0000

> <Gold.Chemscore.DEClash>
0.0912

> <Gold.Chemscore.DEInternal>
0.9444

> <Gold.Chemscore.Rot>
1.4977

> <Gold.Chemscore.Internal.Correction>
   9.000000E+99

> <Gold.Chemscore.Hbonds>
donor molecule, donor type, donor heavy atom, donor atom, acceptor molecule, acceptor atom, score
      L1  H    11    24       P1  8028  1.00

> <Gold.Chemscore.Hbond.Weighted>
-3.3336

> <Gold.Chemscore.Metal.Weighted>
-0.0000

> <Gold.Chemscore.Lipo.Weighted>
-11.6148

> <Gold.Chemscore.Internal_Hbond.Weighted>
0.0000

> <Gold.Chemscore.DEClash.Weighted>
0.0912

> <Gold.Chemscore.DEInternal.Weighted>
0.9444

> <Gold.Chemscore.Rot.Weighted>
3.8341

> <Gold.Chemscore.Internal.Correction.Weighted>
   9.000000E+99

> <Gold.Protein.RotatedTorsions>
[ 6907 6896 6895 6894 ] final  -41.11 input  -60.11 | X-H torsion
[ 7974 7965 7964 7962 ] final  121.18 input  175.53 | X-H torsion
[ 8008 7997 7996 7995 ] final  -36.90 input   59.86 | X-H torsion
[ 10167 10162 10161 10158 ] final -110.22 input  -65.29 | X-H torsion
[ 10718 10713 10712 10709 ] final   47.64 input   66.30 | X-H torsion
[ 10763 10752 10751 10750 ] final  -55.86 input  -60.55 | X-H torsion
[ 11005 11000 10999 10996 ] final -103.08 input  -57.11 | X-H torsion

> <Gold.Protein.ActiveResidues>
 VAL166  LYS551  ARG553  GLY616  TRP617  ASP618  TYR619  PRO620  LYS621  CYS622 
 ASP623  PHE694  ASN695  SER759  ASP760  ASP761  ALA762  ILE779  LEU786  VAL792 
 PHE793  MET794  SER795  GLU796  ALA797  LYS798  CYS799  TRP800  GLU811  SER814 

> <Gold.Protein.RotatedAtoms>
  150.9705  134.9079  159.7784 H   0  0  0  0  0  0  0  0  0  0  0  0  # atno 6907 bound_to 6896
  152.5188  134.3547  159.9273 H   0  0  0  0  0  0  0  0  0  0  0  0  # atno 6908 bound_to 6896
  151.3557  133.3868  159.2719 H   0  0  0  0  0  0  0  0  0  0  0  0  # atno 6909 bound_to 6896
  145.1224  139.3380  143.4707 H   0  0  0  0  0  0  0  0  0  0  0  0  # atno 7974 bound_to 7965
  154.4064  140.1618  156.2449 H   0  0  0  0  0  0  0  0  0  0  0  0  # atno 8008 bound_to 7997
  155.9169  140.3424  155.6119 H   0  0  0  0  0  0  0  0  0  0  0  0  # atno 8009 bound_to 7997
  155.7269  140.0775  157.2297 H   0  0  0  0  0  0  0  0  0  0  0  0  # atno 8010 bound_to 7997
  140.1468  143.4232  152.1523 H   0  0  0  0  0  0  0  0  0  0  0  0  # atno 10167 bound_to 10162
  157.4605  130.8193  149.7881 H   0  0  0  0  0  0  0  0  0  0  0  0  # atno 10718 bound_to 10713
  154.1974  135.6417  153.5077 H   0  0  0  0  0  0  0  0  0  0  0  0  # atno 10763 bound_to 10752
  153.0020  135.5443  154.6351 H   0  0  0  0  0  0  0  0  0  0  0  0  # atno 10764 bound_to 10752
  154.5755  135.2920  155.0758 H   0  0  0  0  0  0  0  0  0  0  0  0  # atno 10765 bound_to 10752
  141.1161  133.8610  157.1440 H   0  0  0  0  0  0  0  0  0  0  0  0  # atno 11005 bound_to 11000
  146.3520  140.1189  142.8601 LP  0  0  0  0  0  0  0  0  0  0  0  0  # atno 17320 bound_to 7965
  145.0725  140.9165  143.4873 LP  0  0  0  0  0  0  0  0  0  0  0  0  # atno 17321 bound_to 7965
  139.5445  144.7286  151.4628 LP  0  0  0  0  0  0  0  0  0  0  0  0  # atno 17342 bound_to 10162
  140.6727  143.8259  150.7019 LP  0  0  0  0  0  0  0  0  0  0  0  0  # atno 17343 bound_to 10162
  156.0026  130.3872  150.2547 LP  0  0  0  0  0  0  0  0  0  0  0  0  # atno 17370 bound_to 10713
  157.0724  131.0120  151.3185 LP  0  0  0  0  0  0  0  0  0  0  0  0  # atno 17371 bound_to 10713
  140.0085  134.9998  157.0345 LP  0  0  0  0  0  0  0  0  0  0  0  0  # atno 17394 bound_to 11000
  140.4640  134.1455  155.7194 LP  0  0  0  0  0  0  0  0  0  0  0  0  # atno 17395 bound_to 11000

$$$$
