AV-unprocessed.smi:2364|AV-procd|sdf|9418|dock3
  -GOLD-   2272013 53D 1   1.00000     0.00000
 Structure written by MMmdl.
 46 47  0  0  0  0  0  0  0  0  1 V2000
  138.7039  137.2609  153.4688 C   0  0  0  0  0  0  0  0  0  0  0  0
  139.0897  138.7108  153.1249 C   0  0  0  0  0  0  0  0  0  0  0  0
  140.2931  139.3032  153.9129 C   0  0  2  0  0  0  0  0  0  0  0  0
  140.2424  138.8063  155.3746 C   0  0  0  0  0  0  0  0  0  0  0  0
  140.1921  140.8526  153.8912 C   0  0  0  0  0  0  0  0  0  0  0  0
  141.3678  141.4754  154.3721 O   0  0  0  0  0  0  0  0  0  0  0  0
  141.5733  138.8601  153.3398 N   0  0  0  0  0  0  0  0  0  0  0  0
  142.0325  137.6060  153.1879 C   0  0  0  0  0  0  0  0  0  0  0  0
  141.4171  136.5994  153.5404 O   0  0  0  0  0  0  0  0  0  0  0  0
  143.2445  137.6064  152.6059 N   0  0  0  0  0  0  0  0  0  0  0  0
  144.0677  136.4942  152.2895 C   0  0  0  0  0  0  0  0  0  0  0  0
  145.3137  136.7118  151.7814 N   0  0  0  0  0  0  0  0  0  0  0  0
  145.7100  135.4525  151.6512 C   0  0  0  0  0  0  0  0  0  0  0  0
  144.7912  134.5433  152.0031 N   0  0  0  0  0  0  0  0  0  0  0  0
  144.8718  133.0818  152.0907 C   0  0  0  0  0  0  0  0  0  0  0  0
  146.2819  132.5486  151.7443 C   0  0  0  0  0  0  0  0  0  0  0  0
  146.6282  132.7558  150.2578 C   0  0  0  0  0  0  0  0  0  0  0  0
  145.5799  132.0939  149.3483 C   0  0  0  0  0  0  0  0  0  0  0  0
  144.1567  132.5686  149.6862 C   0  0  0  0  0  0  0  0  0  0  0  0
  143.8438  132.3642  151.1804 C   0  0  0  0  0  0  0  0  0  0  0  0
  143.7134  135.2212  152.4727 N   0  0  0  0  0  0  0  0  0  0  0  0
  137.8715  136.9326  152.8464 H   0  0  0  0  0  0  0  0  0  0  0  0
  138.3890  137.1589  154.5068 H   0  0  0  0  0  0  0  0  0  0  0  0
  139.5281  136.5689  153.2964 H   0  0  0  0  0  0  0  0  0  0  0  0
  139.2908  138.7601  152.0546 H   0  0  0  0  0  0  0  0  0  0  0  0
  138.2161  139.3460  153.2768 H   0  0  0  0  0  0  0  0  0  0  0  0
  139.3078  139.0917  155.8584 H   0  0  0  0  0  0  0  0  0  0  0  0
  141.0568  139.2189  155.9708 H   0  0  0  0  0  0  0  0  0  0  0  0
  140.3282  137.7220  155.4395 H   0  0  0  0  0  0  0  0  0  0  0  0
  139.9880  141.2273  152.8883 H   0  0  0  0  0  0  0  0  0  0  0  0
  139.3593  141.1823  154.5132 H   0  0  0  0  0  0  0  0  0  0  0  0
  141.8431  141.8274  153.6351 H   0  0  0  0  0  0  0  0  0  0  0  0
  142.1714  139.6015  153.0059 H   0  0  0  0  0  0  0  0  0  0  0  0
  143.6253  138.5086  152.3624 H   0  0  0  0  0  0  0  0  0  0  0  0
  146.6945  135.1956  151.2905 H   0  0  0  0  0  0  0  0  0  0  0  0
  144.6516  132.8230  153.1270 H   0  0  0  0  0  0  0  0  0  0  0  0
  147.0399  133.0102  152.3767 H   0  0  0  0  0  0  0  0  0  0  0  0
  146.3248  131.4825  151.9716 H   0  0  0  0  0  0  0  0  0  0  0  0
  146.6889  133.8207  150.0317 H   0  0  0  0  0  0  0  0  0  0  0  0
  147.6141  132.3415  150.0462 H   0  0  0  0  0  0  0  0  0  0  0  0
  145.8055  132.3070  148.3032 H   0  0  0  0  0  0  0  0  0  0  0  0
  145.6363  131.0106  149.4611 H   0  0  0  0  0  0  0  0  0  0  0  0
  144.0480  133.6211  149.4223 H   0  0  0  0  0  0  0  0  0  0  0  0
  143.4324  132.0250  149.0790 H   0  0  0  0  0  0  0  0  0  0  0  0
  143.8566  131.2962  151.4017 H   0  0  0  0  0  0  0  0  0  0  0  0
  142.8273  132.6925  151.3995 H   0  0  0  0  0  0  0  0  0  0  0  0
  1  2  1  0  0  0  0
  1 22  1  0  0  0  0
  1 23  1  0  0  0  0
  1 24  1  0  0  0  0
  2  3  1  0  0  0  0
  2 25  1  0  0  0  0
  2 26  1  0  0  0  0
  3  4  1  0  0  0  0
  3  5  1  0  0  0  0
  3  7  1  0  0  0  0
  4 27  1  0  0  0  0
  4 28  1  0  0  0  0
  4 29  1  0  0  0  0
  5  6  1  0  0  0  0
  5 30  1  0  0  0  0
  5 31  1  0  0  0  0
  6 32  1  0  0  0  0
  7  8  1  0  0  0  0
  7 33  1  0  0  0  0
  8  9  2  0  0  0  0
  8 10  1  0  0  0  0
 10 11  1  0  0  0  0
 10 34  1  0  0  0  0
 11 21  2  0  0  0  0
 11 12  1  0  0  0  0
 12 13  2  0  0  0  0
 13 14  1  0  0  0  0
 13 35  1  0  0  0  0
 14 15  1  0  0  0  0
 14 21  1  0  0  0  0
 15 20  1  0  0  0  0
 15 16  1  0  0  0  0
 15 36  1  0  0  0  0
 16 17  1  0  0  0  0
 16 37  1  0  0  0  0
 16 38  1  0  0  0  0
 17 18  1  0  0  0  0
 17 39  1  0  0  0  0
 17 40  1  0  0  0  0
 18 19  1  0  0  0  0
 18 41  1  0  0  0  0
 18 42  1  0  0  0  0
 19 20  1  0  0  0  0
 19 43  1  0  0  0  0
 19 44  1  0  0  0  0
 20 45  1  0  0  0  0
 20 46  1  0  0  0  0
M  END
> <s_m_source_file>
AV-unprocessed.smi

> <i_m_source_file_index>
2364

> <i_lp_mmshare_version>
43012

> <i_f3d_flags>
0

> <s_epik_input>
W0NIM11bQ0gyXVtDQEBdKFtDSDNdKShbQ0gyXVtPSF0pW05IXUMoPU8pW05IXWMxbltjSF1uKG4xKVtDSF0yW0NIMl1bQ0gyXVtDSDJdW0NIMl1bQ0gyXTI=

> <s_epik_cmdline>
J2VwaWtfcHl0aG9uJywgJy1waCcsICc3LjAnLCAnLXRuJywgJzgnLCAnLW1hJywgJzIwMCcsICctbWV0YWxfYmluZGluZycsICctaW1hZScsICc8aW5maWxlLm1hZT4nLCAnLW9tYWUnLCAnPG91dGZpbGUubWFlPic=

> <r_lp_tautomer_probability>
1

> <r_epik_Ionization_Penalty>
9.31261e-05

> <r_epik_Ionization_Penalty_Charging>
0

> <r_epik_Ionization_Penalty_Neutral>
9.31261e-05

> <r_epik_State_Penalty>
-0

> <r_epik_Charging_Adjusted_Penalty>
0

> <i_epik_Tot_Q>
0

> <i_epik_Tot_abs_Q>
0

> <r_epik_Metal_State_Penalty>
-0

> <b_epik_Metal_Only>
0

> <s_lp_Force_Field>
OPLS_2005

> <r_lp_Energy>
24.8913

> <b_lp_Chiralities_Consistent>
1

> <s_lp_Variant>
AV-unprocessed.smi:2364-2

> <Gold.Version>
5.8.1

> <Gold.Id.Protein>
6NUR|6NUR_protein|mol2

> <Gold.PLP.Fitness>
50.5526

> <Gold.PLP.PLP>
-39.4956

> <Gold.PLP.part.hbond>
-5.3712

> <Gold.PLP.part.metal>
0.0000

> <Gold.PLP.part.buried>
-2.9979

> <Gold.PLP.part.nonpolar>
-30.7444

> <Gold.PLP.part.repulsive>
0.9866

> <Gold.PLP.ligand.clash>
0.0000

> <Gold.PLP.ligand.torsion>
0.5200

> <Gold.PLP.Chemscore.Hbond>
3.0000

> <Gold.PLP.Chemscore.CHOScore>
0.9978

> <Gold.PLP.Chemscore.Metal>
0.0000

> <Gold.Chemscore.Hbonds>
donor molecule, donor type, donor heavy atom, donor atom, acceptor molecule, acceptor atom, score
      L1  H     6    32       P1 10174  1.00
      L1  H     7    33       P1 10175  1.00
      L1  H    10    34       P1 10175  1.00
      L1  C    13    35       P1  7948  1.00

> <Gold.PLP.Chemscore.Internal.Correction>
0.1035

> <Gold.Rescore>
     Score         DG    S(hbond)    S(metal)    S(lipo)     H(rot)  DE(clash)    DE(int)     intcor
     14.35     -17.64       2.66        0.00      79.14       2.34       0.07       3.22       ----

> <Gold.Chemscore.Fitness>
14.3479

> <Gold.Chemscore.DG>
-17.6388

> <Gold.Chemscore.ZeroCoef>
-5.4800

> <Gold.Chemscore.Hbond>
2.6581

> <Gold.Chemscore.Metal>
0.0000

> <Gold.Chemscore.Lipo>
79.1391

> <Gold.Chemscore.Internal_Hbond>
0.0000

> <Gold.Chemscore.DEClash>
0.0703

> <Gold.Chemscore.DEInternal>
3.2206

> <Gold.Chemscore.Rot>
2.3354

> <Gold.Chemscore.Internal.Correction>
   9.000000E+99

> <Gold.Chemscore.Hbonds>
donor molecule, donor type, donor heavy atom, donor atom, acceptor molecule, acceptor atom, score
      L1  H     6    32       P1 10174  0.30
      L1  H     7    33       P1 10175  0.82
      L1  H    10    34       P1 10175  0.96

> <Gold.Chemscore.Hbond.Weighted>
-8.8782

> <Gold.Chemscore.Metal.Weighted>
-0.0000

> <Gold.Chemscore.Lipo.Weighted>
-9.2593

> <Gold.Chemscore.Internal_Hbond.Weighted>
0.0000

> <Gold.Chemscore.DEClash.Weighted>
0.0703

> <Gold.Chemscore.DEInternal.Weighted>
3.2206

> <Gold.Chemscore.Rot.Weighted>
5.9787

> <Gold.Chemscore.Internal.Correction.Weighted>
   9.000000E+99

> <Gold.Protein.RotatedTorsions>
[ 6907 6896 6895 6894 ] final  -56.59 input  -60.11 | X-H torsion
[ 7974 7965 7964 7962 ] final  174.51 input  175.53 | X-H torsion
[ 8008 7997 7996 7995 ] final  -27.20 input   59.86 | X-H torsion
[ 10167 10162 10161 10158 ] final  146.34 input  -65.29 | X-H torsion
[ 10718 10713 10712 10709 ] final  -96.75 input   66.30 | X-H torsion
[ 10763 10752 10751 10750 ] final -179.90 input  -60.55 | X-H torsion
[ 11005 11000 10999 10996 ] final   71.27 input  -57.11 | X-H torsion

> <Gold.Protein.ActiveResidues>
 VAL166  LYS551  ARG553  GLY616  TRP617  ASP618  TYR619  PRO620  LYS621  CYS622 
 ASP623  PHE694  ASN695  SER759  ASP760  ASP761  ALA762  ILE779  LEU786  VAL792 
 PHE793  MET794  SER795  GLU796  ALA797  LYS798  CYS799  TRP800  GLU811  SER814 

> <Gold.Protein.RotatedAtoms>
  150.8155  134.7334  159.6725 H   0  0  0  0  0  0  0  0  0  0  0  0  # atno 6907 bound_to 6896
  152.4273  134.5840  159.9965 H   0  0  0  0  0  0  0  0  0  0  0  0  # atno 6908 bound_to 6896
  151.6038  133.3316  159.3089 H   0  0  0  0  0  0  0  0  0  0  0  0  # atno 6909 bound_to 6896
  144.7220  139.9807  143.6438 H   0  0  0  0  0  0  0  0  0  0  0  0  # atno 7974 bound_to 7965
  154.4389  140.1879  156.0894 H   0  0  0  0  0  0  0  0  0  0  0  0  # atno 8008 bound_to 7997
  156.0377  140.3323  155.7183 H   0  0  0  0  0  0  0  0  0  0  0  0  # atno 8009 bound_to 7997
  155.5745  140.0616  157.2789 H   0  0  0  0  0  0  0  0  0  0  0  0  # atno 8010 bound_to 7997
  139.4909  144.5836  151.6823 H   0  0  0  0  0  0  0  0  0  0  0  0  # atno 10167 bound_to 10162
  156.0069  130.5165  150.6272 H   0  0  0  0  0  0  0  0  0  0  0  0  # atno 10718 bound_to 10713
  154.5291  135.2798  155.1196 H   0  0  0  0  0  0  0  0  0  0  0  0  # atno 10763 bound_to 10752
  154.2723  135.6301  153.5318 H   0  0  0  0  0  0  0  0  0  0  0  0  # atno 10764 bound_to 10752
  152.9953  135.5631  154.5800 H   0  0  0  0  0  0  0  0  0  0  0  0  # atno 10765 bound_to 10752
  139.9552  134.7156  156.0769 H   0  0  0  0  0  0  0  0  0  0  0  0  # atno 11005 bound_to 11000
  146.0490  139.3492  143.0651 LP  0  0  0  0  0  0  0  0  0  0  0  0  # atno 17320 bound_to 7965
  145.8239  140.9665  143.0884 LP  0  0  0  0  0  0  0  0  0  0  0  0  # atno 17321 bound_to 7965
  140.5447  144.0522  150.6102 LP  0  0  0  0  0  0  0  0  0  0  0  0  # atno 17342 bound_to 10162
  140.3556  143.2937  152.0440 LP  0  0  0  0  0  0  0  0  0  0  0  0  # atno 17343 bound_to 10162
  157.4077  131.0819  151.1250 LP  0  0  0  0  0  0  0  0  0  0  0  0  # atno 17370 bound_to 10713
  157.1891  130.6344  149.5698 LP  0  0  0  0  0  0  0  0  0  0  0  0  # atno 17371 bound_to 10713
  141.1223  133.6609  156.3245 LP  0  0  0  0  0  0  0  0  0  0  0  0  # atno 17394 bound_to 11000
  140.5625  134.5920  157.5437 LP  0  0  0  0  0  0  0  0  0  0  0  0  # atno 17395 bound_to 11000

$$$$
