AV-unprocessed.smi:1509|AV-procd|sdf|6093|dock10
  -GOLD-   22720 6223D 1   1.00000     0.00000
 Structure written by MMmdl.
 42 43  0  0  0  0  0  0  0  0  2 V2000
  143.9920  132.6416  149.9578 C   0  0  0  0  0  0  0  0  0  0  0  0
  144.4166  132.1413  151.3456 C   0  0  1  0  0  0  0  0  0  0  0  0
  145.5343  131.0897  151.2453 C   0  0  0  0  0  0  0  0  0  0  0  0
  145.9602  130.6304  152.6454 C   0  0  0  0  0  0  0  0  0  0  0  0
  146.3636  131.8291  153.5187 C   0  0  0  0  0  0  0  0  0  0  0  0
  145.2624  132.8229  153.6025 N   0  3  1  0  0  0  0  0  0  0  0  0
  145.5688  133.9256  154.5485 C   0  0  0  0  0  0  0  0  0  0  0  0
  146.8042  134.7356  154.1202 C   0  0  0  0  0  0  0  0  0  0  0  0
  146.9387  136.0512  154.9047 C   0  0  0  0  0  0  0  0  0  0  0  0
  147.9210  136.9413  154.2975 N   0  0  0  0  0  0  0  0  0  0  0  0
  148.5763  137.9196  154.9435 C   0  0  0  0  0  0  0  0  0  0  0  0
  148.3915  138.1849  156.1310 O   0  0  0  0  0  0  0  0  0  0  0  0
  149.5835  138.7342  154.1280 C   0  0  0  0  0  0  0  0  0  0  0  0
  150.9217  138.6458  154.6836 N   0  0  0  0  0  0  0  0  0  0  0  0
  151.6854  137.5882  154.9654 C   0  0  0  0  0  0  0  0  0  0  0  0
  152.8525  137.9498  155.4757 N   0  0  0  0  0  0  0  0  0  0  0  0
  152.7729  139.3326  155.4941 N   0  0  0  0  0  0  0  0  0  0  0  0
  151.6297  139.7515  155.0246 N   0  0  0  0  0  0  0  0  0  0  0  0
  144.8593  133.3060  152.2542 C   0  0  0  0  0  0  0  0  0  0  0  0
  144.8188  133.1313  149.4421 H   0  0  0  0  0  0  0  0  0  0  0  0
  143.1745  133.3593  150.0313 H   0  0  0  0  0  0  0  0  0  0  0  0
  143.6505  131.8176  149.3307 H   0  0  0  0  0  0  0  0  0  0  0  0
  143.5469  131.6680  151.8040 H   0  0  0  0  0  0  0  0  0  0  0  0
  145.1974  130.2332  150.6602 H   0  0  0  0  0  0  0  0  0  0  0  0
  146.3939  131.5079  150.7197 H   0  0  0  0  0  0  0  0  0  0  0  0
  145.1396  130.0905  153.1200 H   0  0  0  0  0  0  0  0  0  0  0  0
  146.7906  129.9275  152.5704 H   0  0  0  0  0  0  0  0  0  0  0  0
  146.6158  131.4713  154.5177 H   0  0  0  0  0  0  0  0  0  0  0  0
  147.2584  132.3069  153.1164 H   0  0  0  0  0  0  0  0  0  0  0  0
  144.7203  134.6102  154.5903 H   0  0  0  0  0  0  0  0  0  0  0  0
  145.6924  133.5284  155.5572 H   0  0  0  0  0  0  0  0  0  0  0  0
  147.7120  134.1489  154.2588 H   0  0  0  0  0  0  0  0  0  0  0  0
  146.7363  134.9513  153.0529 H   0  0  0  0  0  0  0  0  0  0  0  0
  145.9737  136.5560  154.9780 H   0  0  0  0  0  0  0  0  0  0  0  0
  147.2572  135.8434  155.9264 H   0  0  0  0  0  0  0  0  0  0  0  0
  148.1316  136.7913  153.3212 H   0  0  0  0  0  0  0  0  0  0  0  0
  149.6017  138.3714  153.0996 H   0  0  0  0  0  0  0  0  0  0  0  0
  149.2821  139.7825  154.0949 H   0  0  0  0  0  0  0  0  0  0  0  0
  151.3871  136.5628  154.8028 H   0  0  0  0  0  0  0  0  0  0  0  0
  145.6923  133.8440  151.7982 H   0  0  0  0  0  0  0  0  0  0  0  0
  144.0390  134.0177  152.3432 H   0  0  0  0  0  0  0  0  0  0  0  0
  144.4705  132.3280  153.9880 H   0  0  0  0  0  0  0  0  0  0  0  0
  1  2  1  0  0  0  0
  1 20  1  0  0  0  0
  1 21  1  0  0  0  0
  1 22  1  0  0  0  0
  2 19  1  0  0  0  0
  2  3  1  0  0  0  0
  2 23  1  0  0  0  0
  3  4  1  0  0  0  0
  3 24  1  0  0  0  0
  3 25  1  0  0  0  0
  4  5  1  0  0  0  0
  4 26  1  0  0  0  0
  4 27  1  0  0  0  0
  5  6  1  0  0  0  0
  5 28  1  0  0  0  0
  5 29  1  0  0  0  0
  6  7  1  0  0  0  0
  6 19  1  0  0  0  0
  6 42  1  0  0  0  0
  7  8  1  0  0  0  0
  7 30  1  0  0  0  0
  7 31  1  0  0  0  0
  8  9  1  0  0  0  0
  8 32  1  0  0  0  0
  8 33  1  0  0  0  0
  9 10  1  0  0  0  0
  9 34  1  0  0  0  0
  9 35  1  0  0  0  0
 10 11  1  0  0  0  0
 10 36  1  0  0  0  0
 11 12  2  0  0  0  0
 11 13  1  0  0  0  0
 13 14  1  0  0  0  0
 13 37  1  0  0  0  0
 13 38  1  0  0  0  0
 14 18  1  0  0  0  0
 14 15  1  0  0  0  0
 15 16  2  0  0  0  0
 15 39  1  0  0  0  0
 16 17  1  0  0  0  0
 17 18  2  0  0  0  0
 19 40  1  0  0  0  0
 19 41  1  0  0  0  0
M  CHG  1   6   1
M  END
> <s_m_source_file>
AV-unprocessed.smi

> <i_m_source_file_index>
1509

> <i_lp_mmshare_version>
43012

> <i_f3d_flags>
0

> <s_epik_input>
W0NIM11bQ0BASF0xW0NIMl1bQ0gyXVtDSDJdTihbQ0gyXTEpW0NIMl1bQ0gyXVtDSDJdW05IXUMoPU8pW0NIMl1uMltjSF1ubm4y

> <s_epik_cmdline>
J2VwaWtfcHl0aG9uJywgJy1waCcsICc3LjAnLCAnLXRuJywgJzgnLCAnLW1hJywgJzIwMCcsICctbWV0YWxfYmluZGluZycsICctaW1hZScsICc8aW5maWxlLm1hZT4nLCAnLW9tYWUnLCAnPG91dGZpbGUubWFlPic=

> <r_lp_tautomer_probability>
1

> <r_epik_Ionization_Penalty>
0.00044216

> <r_epik_Ionization_Penalty_Charging>
0.000440775

> <r_epik_Ionization_Penalty_Neutral>
1.38512e-06

> <r_epik_State_Penalty>
0.000271914

> <r_epik_Charging_Adjusted_Penalty>
0.000712689

> <i_epik_Tot_Q>
1

> <i_epik_Tot_abs_Q>
1

> <r_epik_Metal_State_Penalty>
-0

> <b_epik_Metal_Only>
0

> <s_lp_Force_Field>
OPLS_2005

> <r_lp_Energy>
20.7135

> <b_lp_Chiralities_Consistent>
1

> <s_lp_Variant>
AV-unprocessed.smi:1509-4

> <Gold.Version>
5.8.1

> <Gold.Id.Protein>
6NUR|6NUR_protein|mol2

> <Gold.PLP.Fitness>
44.5422

> <Gold.PLP.PLP>
-30.0533

> <Gold.PLP.part.hbond>
-5.0000

> <Gold.PLP.part.metal>
0.0000

> <Gold.PLP.part.buried>
-5.8899

> <Gold.PLP.part.nonpolar>
-20.4384

> <Gold.PLP.part.repulsive>
0.0726

> <Gold.PLP.ligand.clash>
0.0000

> <Gold.PLP.ligand.torsion>
0.2775

> <Gold.PLP.Chemscore.Hbond>
5.0000

> <Gold.PLP.Chemscore.CHOScore>
0.0000

> <Gold.PLP.Chemscore.Metal>
0.0000

> <Gold.Chemscore.Hbonds>
donor molecule, donor type, donor heavy atom, donor atom, acceptor molecule, acceptor atom, score
      L1  H     6    42       P1 10957  1.98
      L1  H    10    36       P1  7948  1.00
      P1  H  7989  7998       L1    18  1.00
      P1  H  7997  8008       L1    17  1.00

> <Gold.PLP.Chemscore.Internal.Correction>
0.0438

> <Gold.Rescore>
     Score         DG    S(hbond)    S(metal)    S(lipo)     H(rot)  DE(clash)    DE(int)     intcor
     15.44     -15.82       3.59        0.00      50.77       2.97       0.02       0.36       ----

> <Gold.Chemscore.Fitness>
15.4369

> <Gold.Chemscore.DG>
-15.8170

> <Gold.Chemscore.ZeroCoef>
-5.4800

> <Gold.Chemscore.Hbond>
3.5913

> <Gold.Chemscore.Metal>
0.0000

> <Gold.Chemscore.Lipo>
50.7684

> <Gold.Chemscore.Internal_Hbond>
0.0000

> <Gold.Chemscore.DEClash>
0.0164

> <Gold.Chemscore.DEInternal>
0.3636

> <Gold.Chemscore.Rot>
2.9680

> <Gold.Chemscore.Internal.Correction>
   9.000000E+99

> <Gold.Chemscore.Hbonds>
donor molecule, donor type, donor heavy atom, donor atom, acceptor molecule, acceptor atom, score
      L1  H     6    42       P1 10957  0.32
      L1  H    10    36       P1  7948  1.00
      P1  H  7989  7998       L1    18  0.57
      P1  H  7997  8008       L1    17  0.78

> <Gold.Chemscore.Hbond.Weighted>
-11.9950

> <Gold.Chemscore.Metal.Weighted>
-0.0000

> <Gold.Chemscore.Lipo.Weighted>
-5.9399

> <Gold.Chemscore.Internal_Hbond.Weighted>
0.0000

> <Gold.Chemscore.DEClash.Weighted>
0.0164

> <Gold.Chemscore.DEInternal.Weighted>
0.3636

> <Gold.Chemscore.Rot.Weighted>
7.5980

> <Gold.Chemscore.Internal.Correction.Weighted>
   9.000000E+99

> <Gold.Protein.RotatedTorsions>
[ 6907 6896 6895 6894 ] final  -84.51 input  -60.11 | X-H torsion
[ 7974 7965 7964 7962 ] final  -13.00 input  175.53 | X-H torsion
[ 8008 7997 7996 7995 ] final   -7.09 input   59.86 | X-H torsion
[ 10167 10162 10161 10158 ] final  -22.19 input  -65.29 | X-H torsion
[ 10718 10713 10712 10709 ] final   85.18 input   66.30 | X-H torsion
[ 10763 10752 10751 10750 ] final   17.68 input  -60.55 | X-H torsion
[ 11005 11000 10999 10996 ] final  -92.10 input  -57.11 | X-H torsion

> <Gold.Protein.ActiveResidues>
 VAL166  LYS551  ARG553  GLY616  TRP617  ASP618  TYR619  PRO620  LYS621  CYS622 
 ASP623  PHE694  ASN695  SER759  ASP760  ASP761  ALA762  ILE779  LEU786  VAL792 
 PHE793  MET794  SER795  GLU796  ALA797  LYS798  CYS799  TRP800  GLU811  SER814 

> <Gold.Protein.RotatedAtoms>
  150.6876  134.3347  159.4841 H   0  0  0  0  0  0  0  0  0  0  0  0  # atno 6907 bound_to 6896
  152.1207  134.9204  160.0572 H   0  0  0  0  0  0  0  0  0  0  0  0  # atno 6908 bound_to 6896
  152.0412  133.3943  159.4374 H   0  0  0  0  0  0  0  0  0  0  0  0  # atno 6909 bound_to 6896
  146.2131  140.3140  142.8385 H   0  0  0  0  0  0  0  0  0  0  0  0  # atno 7974 bound_to 7965
  154.5873  140.2416  155.7970 H   0  0  0  0  0  0  0  0  0  0  0  0  # atno 8008 bound_to 7997
  156.2222  140.2994  155.9935 H   0  0  0  0  0  0  0  0  0  0  0  0  # atno 8009 bound_to 7997
  155.2436  140.0408  157.2968 H   0  0  0  0  0  0  0  0  0  0  0  0  # atno 8010 bound_to 7997
  140.7285  143.4557  151.0451 H   0  0  0  0  0  0  0  0  0  0  0  0  # atno 10167 bound_to 10162
  157.6910  131.0164  150.2784 H   0  0  0  0  0  0  0  0  0  0  0  0  # atno 10718 bound_to 10713
  153.1316  135.6741  153.9168 H   0  0  0  0  0  0  0  0  0  0  0  0  # atno 10763 bound_to 10752
  153.8653  135.3076  155.3441 H   0  0  0  0  0  0  0  0  0  0  0  0  # atno 10764 bound_to 10752
  154.7712  135.4938  153.9735 H   0  0  0  0  0  0  0  0  0  0  0  0  # atno 10765 bound_to 10752
  141.1530  133.7798  156.9972 H   0  0  0  0  0  0  0  0  0  0  0  0  # atno 11005 bound_to 11000
  144.8968  140.7593  143.5892 LP  0  0  0  0  0  0  0  0  0  0  0  0  # atno 17320 bound_to 7965
  145.3064  139.1833  143.4662 LP  0  0  0  0  0  0  0  0  0  0  0  0  # atno 17321 bound_to 7965
  139.8237  143.7785  152.3178 LP  0  0  0  0  0  0  0  0  0  0  0  0  # atno 17342 bound_to 10162
  139.7876  144.7422  151.0000 LP  0  0  0  0  0  0  0  0  0  0  0  0  # atno 17343 bound_to 10162
  156.3335  130.3804  149.7470 LP  0  0  0  0  0  0  0  0  0  0  0  0  # atno 17370 bound_to 10713
  156.5002  130.8125  151.3129 LP  0  0  0  0  0  0  0  0  0  0  0  0  # atno 17371 bound_to 10713
  140.0964  134.9562  157.1855 LP  0  0  0  0  0  0  0  0  0  0  0  0  # atno 17394 bound_to 11000
  140.3377  134.2739  155.7217 LP  0  0  0  0  0  0  0  0  0  0  0  0  # atno 17395 bound_to 11000

$$$$
