AV-unprocessed.smi:45|AV-procd|sdf|413|dock5
  -GOLD-   2262016283D 1   1.00000     0.00000
 Structure written by MMmdl.
 59 62  0  0  0  0  0  0  0  0  2 V2000
  151.7924  140.8200  158.2135 C   0  0  0  0  0  0  0  0  0  0  0  0
  151.2164  140.6666  156.9248 O   0  0  0  0  0  0  0  0  0  0  0  0
  151.0470  139.3883  156.4348 C   0  0  0  0  0  0  0  0  0  0  0  0
  151.6457  138.2388  157.0091 C   0  0  0  0  0  0  0  0  0  0  0  0
  151.4076  136.9618  156.4670 C   0  0  0  0  0  0  0  0  0  0  0  0
  150.5720  136.8084  155.3438 C   0  0  0  0  0  0  0  0  0  0  0  0
  150.2966  135.4123  154.7996 C   0  0  0  0  0  0  0  0  0  0  0  0
  149.5609  134.5177  155.6875 N   0  0  0  0  0  0  0  0  0  0  0  0
  149.1469  133.2675  155.1946 C   0  0  0  0  0  0  0  0  0  0  0  0
  148.3508  133.2540  154.0984 N   0  0  0  0  0  0  0  0  0  0  0  0
  148.0149  132.0660  153.5927 C   0  0  0  0  0  0  0  0  0  0  0  0
  147.2785  132.0973  152.4211 N   0  0  0  0  0  0  0  0  0  0  0  0
  147.0912  133.3779  151.7485 C   0  0  0  0  0  0  0  0  0  0  0  0
  145.7461  133.3026  151.0134 C   0  0  0  0  0  0  0  0  0  0  0  0
  145.3711  131.8241  151.0680 C   0  0  0  0  0  0  0  0  0  0  0  0
  146.0136  131.3746  152.3796 C   0  0  1  0  0  0  0  0  0  0  0  0
  146.1897  129.8500  152.5117 C   0  0  0  0  0  0  0  0  0  0  0  0
  147.1820  129.3898  151.6199 O   0  0  0  0  0  0  0  0  0  0  0  0
  148.3684  130.8696  154.0711 N   0  0  0  0  0  0  0  0  0  0  0  0
  149.1548  130.8629  155.1688 C   0  0  0  0  0  0  0  0  0  0  0  0
  149.5956  132.0564  155.7859 C   0  0  0  0  0  0  0  0  0  0  0  0
  150.4952  132.0246  156.9906 C   0  0  0  0  0  0  0  0  0  0  0  0
  150.7149  133.0844  157.5873 O   0  0  0  0  0  0  0  0  0  0  0  0
  150.9888  130.7751  157.2137 N   0  5  0  0  0  0  0  0  0  0  0  0
  152.3339  130.5108  157.7263 C   0  0  0  0  0  0  0  0  0  0  0  0
  153.3169  130.1703  156.6106 C   0  0  0  0  0  0  0  0  0  0  0  0
  152.9335  129.2380  155.7299 N   0  0  0  0  0  0  0  0  0  0  0  0
  153.7850  128.9604  154.7191 C   0  0  0  0  0  0  0  0  0  0  0  0
  155.0253  129.6170  154.5920 C   0  0  0  0  0  0  0  0  0  0  0  0
  155.3259  130.5753  155.5803 C   0  0  0  0  0  0  0  0  0  0  0  0
  154.4714  130.8485  156.5897 N   0  0  0  0  0  0  0  0  0  0  0  0
  149.9961  137.9517  154.7497 C   0  0  0  0  0  0  0  0  0  0  0  0
  150.2251  139.2288  155.2971 C   0  0  0  0  0  0  0  0  0  0  0  0
  149.4759  140.6037  154.5691 Cl  0  0  0  0  0  0  0  0  0  0  0  0
  145.4015  131.7316  153.2099 H   0  0  0  0  0  0  0  0  0  0  0  0
  151.8223  141.8789  158.4695 H   0  0  0  0  0  0  0  0  0  0  0  0
  152.8165  140.4455  158.2394 H   0  0  0  0  0  0  0  0  0  0  0  0
  151.2013  140.3131  158.9775 H   0  0  0  0  0  0  0  0  0  0  0  0
  152.2837  138.3073  157.8767 H   0  0  0  0  0  0  0  0  0  0  0  0
  151.8584  136.0955  156.9283 H   0  0  0  0  0  0  0  0  0  0  0  0
  149.7258  135.5153  153.8768 H   0  0  0  0  0  0  0  0  0  0  0  0
  151.2381  134.9336  154.5273 H   0  0  0  0  0  0  0  0  0  0  0  0
  149.8652  134.5171  156.6512 H   0  0  0  0  0  0  0  0  0  0  0  0
  147.1144  134.2170  152.4449 H   0  0  0  0  0  0  0  0  0  0  0  0
  147.9063  133.5153  151.0376 H   0  0  0  0  0  0  0  0  0  0  0  0
  145.0023  133.8898  151.5535 H   0  0  0  0  0  0  0  0  0  0  0  0
  145.8001  133.6859  149.9942 H   0  0  0  0  0  0  0  0  0  0  0  0
  144.2937  131.6585  151.0426 H   0  0  0  0  0  0  0  0  0  0  0  0
  145.8172  131.2954  150.2242 H   0  0  0  0  0  0  0  0  0  0  0  0
  146.4615  129.5740  153.5308 H   0  0  0  0  0  0  0  0  0  0  0  0
  145.2609  129.3318  152.2723 H   0  0  0  0  0  0  0  0  0  0  0  0
  147.7059  130.1284  151.3493 H   0  0  0  0  0  0  0  0  0  0  0  0
  149.4393  129.8924  155.5489 H   0  0  0  0  0  0  0  0  0  0  0  0
  152.7270  131.3536  158.2980 H   0  0  0  0  0  0  0  0  0  0  0  0
  152.3235  129.6803  158.4334 H   0  0  0  0  0  0  0  0  0  0  0  0
  153.4736  128.2119  154.0057 H   0  0  0  0  0  0  0  0  0  0  0  0
  155.7067  129.3981  153.7839 H   0  0  0  0  0  0  0  0  0  0  0  0
  156.2553  131.1249  155.5611 H   0  0  0  0  0  0  0  0  0  0  0  0
  149.3575  137.8529  153.8833 H   0  0  0  0  0  0  0  0  0  0  0  0
  1  2  1  0  0  0  0
  1 36  1  0  0  0  0
  1 37  1  0  0  0  0
  1 38  1  0  0  0  0
  2  3  1  0  0  0  0
  3 33  1  0  0  0  0
  3  4  2  0  0  0  0
  4  5  1  0  0  0  0
  4 39  1  0  0  0  0
  5  6  2  0  0  0  0
  5 40  1  0  0  0  0
  6  7  1  0  0  0  0
  6 32  1  0  0  0  0
  7  8  1  0  0  0  0
  7 41  1  0  0  0  0
  7 42  1  0  0  0  0
  8  9  1  0  0  0  0
  8 43  1  0  0  0  0
  9 21  1  0  0  0  0
  9 10  2  0  0  0  0
 10 11  1  0  0  0  0
 11 12  1  0  0  0  0
 11 19  2  0  0  0  0
 12 16  1  0  0  0  0
 12 13  1  0  0  0  0
 13 14  1  0  0  0  0
 13 44  1  0  0  0  0
 13 45  1  0  0  0  0
 14 15  1  0  0  0  0
 14 46  1  0  0  0  0
 14 47  1  0  0  0  0
 15 16  1  0  0  0  0
 15 48  1  0  0  0  0
 15 49  1  0  0  0  0
 16 35  1  0  0  0  0
 16 17  1  0  0  0  0
 17 18  1  0  0  0  0
 17 50  1  0  0  0  0
 17 51  1  0  0  0  0
 18 52  1  0  0  0  0
 19 20  1  0  0  0  0
 20 21  2  0  0  0  0
 20 53  1  0  0  0  0
 21 22  1  0  0  0  0
 22 23  2  0  0  0  0
 22 24  1  0  0  0  0
 24 25  1  0  0  0  0
 25 26  1  0  0  0  0
 25 54  1  0  0  0  0
 25 55  1  0  0  0  0
 26 31  1  0  0  0  0
 26 27  2  0  0  0  0
 27 28  1  0  0  0  0
 28 29  2  0  0  0  0
 28 56  1  0  0  0  0
 29 30  1  0  0  0  0
 29 57  1  0  0  0  0
 30 31  2  0  0  0  0
 30 58  1  0  0  0  0
 32 33  2  0  0  0  0
 32 59  1  0  0  0  0
 33 34  1  0  0  0  0
M  CHG  1  24  -1
M  END
> <s_m_source_file>
AV-unprocessed.smi

> <i_m_source_file_index>
45

> <i_lp_mmshare_version>
43012

> <i_f3d_flags>
0

> <s_epik_input>
W0NIM11PYzFbY0hdW2NIXWMoW2NIXWMxQ2wpW0NIMl1bTkhdYzJuYyhOM1tDSDJdW0NIMl1bQ0gyXVtDQEhdM1tDSDJdW09IXSluW2NIXWMyQyg9TylbTkhdW0NIMl1jNG5bY0hdW2NIXVtjSF1uNA==

> <s_epik_cmdline>
J2VwaWtfcHl0aG9uJywgJy1waCcsICc3LjAnLCAnLXRuJywgJzgnLCAnLW1hJywgJzIwMCcsICctbWV0YWxfYmluZGluZycsICctaW1hZScsICc8aW5maWxlLm1hZT4nLCAnLW9tYWUnLCAnPG91dGZpbGUubWFlPic=

> <r_lp_tautomer_probability>
1

> <r_epik_Ionization_Penalty>
7.35269

> <r_epik_Ionization_Penalty_Charging>
6.82087

> <r_epik_Ionization_Penalty_Neutral>
0.53182

> <r_epik_State_Penalty>
6.85781

> <r_epik_Charging_Adjusted_Penalty>
13.6787

> <i_epik_Tot_Q>
-1

> <i_epik_Tot_abs_Q>
1

> <r_epik_Metal_State_Penalty>
2.8146

> <b_epik_Metal_Only>
1

> <s_epik_Chemistry_Notes>
This compound contains an electron-poor aromatic ring that is susceptible to covalent hydrolysis at low pH, typically resulting in measured values for nitrogen ring protonation that are around two units higher than predicted values.

> <s_lp_Force_Field>
OPLS_2005

> <r_lp_Energy>
41.892

> <b_lp_Chiralities_Consistent>
1

> <s_lp_Variant>
AV-unprocessed.smi:45-7

> <Gold.Version>
5.8.1

> <Gold.Id.Protein>
6NUR|6NUR_protein|mol2

> <Gold.PLP.Fitness>
54.4539

> <Gold.PLP.PLP>
-47.9418

> <Gold.PLP.part.hbond>
-2.0000

> <Gold.PLP.part.metal>
0.0000

> <Gold.PLP.part.buried>
-8.1242

> <Gold.PLP.part.nonpolar>
-40.8886

> <Gold.PLP.part.repulsive>
1.4523

> <Gold.PLP.ligand.clash>
0.0622

> <Gold.PLP.ligand.torsion>
0.8864

> <Gold.PLP.Chemscore.Hbond>
1.9360

> <Gold.PLP.Chemscore.CHOScore>
0.5391

> <Gold.PLP.Chemscore.Metal>
0.0000

> <Gold.Chemscore.Hbonds>
donor molecule, donor type, donor heavy atom, donor atom, acceptor molecule, acceptor atom, score
      L1  H    18    52       P1 10747  0.98
      P1  H  6896  6908       L1    23  1.00
      L1  C    28    56       P1 10737  0.52

> <Gold.PLP.Chemscore.Internal.Correction>
0.9218

> <Gold.Rescore>
     Score         DG    S(hbond)    S(metal)    S(lipo)     H(rot)  DE(clash)    DE(int)     intcor
     12.94     -17.17       1.93        0.00     118.23       3.36       0.35       3.88       ----

> <Gold.Chemscore.Fitness>
12.9424

> <Gold.Chemscore.DG>
-17.1702

> <Gold.Chemscore.ZeroCoef>
-5.4800

> <Gold.Chemscore.Hbond>
1.9306

> <Gold.Chemscore.Metal>
0.0000

> <Gold.Chemscore.Lipo>
118.2333

> <Gold.Chemscore.Internal_Hbond>
0.0000

> <Gold.Chemscore.DEClash>
0.3456

> <Gold.Chemscore.DEInternal>
3.8822

> <Gold.Chemscore.Rot>
3.3560

> <Gold.Chemscore.Internal.Correction>
   9.000000E+99

> <Gold.Chemscore.Hbonds>
donor molecule, donor type, donor heavy atom, donor atom, acceptor molecule, acceptor atom, score
      L1  H    18    52       P1 10747  0.93
      P1  H  6896  6908       L1    23  0.95

> <Gold.Chemscore.Hbond.Weighted>
-6.4481

> <Gold.Chemscore.Metal.Weighted>
-0.0000

> <Gold.Chemscore.Lipo.Weighted>
-13.8333

> <Gold.Chemscore.Internal_Hbond.Weighted>
0.0000

> <Gold.Chemscore.DEClash.Weighted>
0.3456

> <Gold.Chemscore.DEInternal.Weighted>
3.8822

> <Gold.Chemscore.Rot.Weighted>
8.5912

> <Gold.Chemscore.Internal.Correction.Weighted>
   9.000000E+99

> <Gold.Protein.RotatedTorsions>
[ 6907 6896 6895 6894 ] final   87.33 input  -60.11 | X-H torsion
[ 7974 7965 7964 7962 ] final   81.21 input  175.53 | X-H torsion
[ 8008 7997 7996 7995 ] final    3.16 input   59.86 | X-H torsion
[ 10167 10162 10161 10158 ] final -134.78 input  -65.29 | X-H torsion
[ 10718 10713 10712 10709 ] final  -18.46 input   66.30 | X-H torsion
[ 10763 10752 10751 10750 ] final -165.96 input  -60.55 | X-H torsion
[ 11005 11000 10999 10996 ] final  -50.20 input  -57.11 | X-H torsion

> <Gold.Protein.ActiveResidues>
 VAL166  LYS551  ARG553  GLY616  TRP617  ASP618  TYR619  PRO620  LYS621  CYS622 
 ASP623  PHE694  ASN695  SER759  ASP760  ASP761  ALA762  ILE779  LEU786  VAL792 
 PHE793  MET794  SER795  GLU796  ALA797  LYS798  CYS799  TRP800  GLU811  SER814 

> <Gold.Protein.RotatedAtoms>
  152.5409  134.2292  159.8818 H   0  0  0  0  0  0  0  0  0  0  0  0  # atno 6907 bound_to 6896
  151.2265  133.4467  159.2610 H   0  0  0  0  0  0  0  0  0  0  0  0  # atno 6908 bound_to 6896
  151.0756  134.9839  159.8386 H   0  0  0  0  0  0  0  0  0  0  0  0  # atno 6909 bound_to 6896
  145.6411  139.2425  143.2030 H   0  0  0  0  0  0  0  0  0  0  0  0  # atno 7974 bound_to 7965
  154.7003  140.2672  155.6726 H   0  0  0  0  0  0  0  0  0  0  0  0  # atno 8008 bound_to 7997
  156.2763  140.2773  156.1535 H   0  0  0  0  0  0  0  0  0  0  0  0  # atno 8009 bound_to 7997
  155.0773  140.0372  157.2618 H   0  0  0  0  0  0  0  0  0  0  0  0  # atno 8010 bound_to 7997
  139.8846  143.6797  152.2622 H   0  0  0  0  0  0  0  0  0  0  0  0  # atno 10167 bound_to 10162
  156.5592  130.4721  149.6415 H   0  0  0  0  0  0  0  0  0  0  0  0  # atno 10718 bound_to 10713
  154.6881  135.2966  154.9519 H   0  0  0  0  0  0  0  0  0  0  0  0  # atno 10763 bound_to 10752
  154.0492  135.6647  153.4802 H   0  0  0  0  0  0  0  0  0  0  0  0  # atno 10764 bound_to 10752
  153.0593  135.5125  154.7958 H   0  0  0  0  0  0  0  0  0  0  0  0  # atno 10765 bound_to 10752
  141.0802  133.6655  156.3696 H   0  0  0  0  0  0  0  0  0  0  0  0  # atno 11005 bound_to 11000
  146.1280  140.7223  142.9426 LP  0  0  0  0  0  0  0  0  0  0  0  0  # atno 17320 bound_to 7965
  144.7157  140.4201  143.7046 LP  0  0  0  0  0  0  0  0  0  0  0  0  # atno 17321 bound_to 7965
  139.7165  144.7611  151.1026 LP  0  0  0  0  0  0  0  0  0  0  0  0  # atno 17342 bound_to 10162
  140.7738  143.5263  150.9476 LP  0  0  0  0  0  0  0  0  0  0  0  0  # atno 17343 bound_to 10162
  156.2814  130.7073  151.1898 LP  0  0  0  0  0  0  0  0  0  0  0  0  # atno 17370 bound_to 10713
  157.7372  131.0554  150.5370 LP  0  0  0  0  0  0  0  0  0  0  0  0  # atno 17371 bound_to 10713
  140.5484  134.6051  157.5400 LP  0  0  0  0  0  0  0  0  0  0  0  0  # atno 17394 bound_to 11000
  139.9616  134.7443  156.0225 LP  0  0  0  0  0  0  0  0  0  0  0  0  # atno 17395 bound_to 11000

$$$$
