AV-unprocessed.smi:114|AV-procd|sdf|1119|dock6
  -GOLD-   2262018243D 1   1.00000     0.00000
 Structure written by MMmdl.
 32 34  0  0  0  0  0  0  0  0  1 V2000
  151.0809  143.9173  159.8763 N   0  0  0  0  0  0  0  0  0  0  0  0
  151.6498  142.8458  159.3065 C   0  0  0  0  0  0  0  0  0  0  0  0
  152.8629  142.4457  159.7539 N   0  0  0  0  0  0  0  0  0  0  0  0
  153.4682  141.3832  159.2088 C   0  0  0  0  0  0  0  0  0  0  0  0
  154.6799  141.0554  159.7154 F   0  0  0  0  0  0  0  0  0  0  0  0
  153.0098  140.6074  158.2201 N   0  0  0  0  0  0  0  0  0  0  0  0
  151.7833  141.0043  157.7716 C   0  0  0  0  0  0  0  0  0  0  0  0
  151.0428  142.1145  158.2566 C   0  0  0  0  0  0  0  0  0  0  0  0
  149.8515  142.2313  157.5541 N   0  0  0  0  0  0  0  0  0  0  0  0
  149.8949  141.2463  156.6971 C   0  0  0  0  0  0  0  0  0  0  0  0
  151.0098  140.4367  156.7807 N   0  0  0  0  0  0  0  0  0  0  0  0
  151.3822  139.2516  155.9418 C   0  0  2  0  0  0  0  0  0  0  0  0
  151.2727  139.6114  154.5944 O   0  0  0  0  0  0  0  0  0  0  0  0
  150.1188  139.0266  153.9930 C   0  0  2  0  0  0  0  0  0  0  0  0
  148.9024  139.9703  154.1332 C   0  0  0  0  0  0  0  0  0  0  0  0
  149.1685  141.1950  153.4835 O   0  0  0  0  0  0  0  0  0  0  0  0
  150.0096  137.7012  154.7586 C   0  0  2  0  0  0  0  0  0  0  0  0
  148.7126  137.1391  154.7171 O   0  0  0  0  0  0  0  0  0  0  0  0
  150.4157  138.0748  156.1774 C   0  0  1  0  0  0  0  0  0  0  0  0
  151.0622  136.9777  156.7904 O   0  0  0  0  0  0  0  0  0  0  0  0
  152.4215  139.0477  156.2035 H   0  0  0  0  0  0  0  0  0  0  0  0
  150.3056  138.8308  152.9361 H   0  0  0  0  0  0  0  0  0  0  0  0
  150.7232  136.9930  154.3335 H   0  0  0  0  0  0  0  0  0  0  0  0
  149.5531  138.4016  156.7609 H   0  0  0  0  0  0  0  0  0  0  0  0
  150.1768  144.2352  159.5571 H   0  0  0  0  0  0  0  0  0  0  0  0
  151.5558  144.4040  160.6230 H   0  0  0  0  0  0  0  0  0  0  0  0
  149.1018  141.0817  155.9819 H   0  0  0  0  0  0  0  0  0  0  0  0
  148.0288  139.5448  153.6396 H   0  0  0  0  0  0  0  0  0  0  0  0
  148.6218  140.1416  155.1712 H   0  0  0  0  0  0  0  0  0  0  0  0
  149.3182  141.0217  152.5667 H   0  0  0  0  0  0  0  0  0  0  0  0
  148.5726  136.7782  153.8547 H   0  0  0  0  0  0  0  0  0  0  0  0
  151.4614  136.4520  156.1135 H   0  0  0  0  0  0  0  0  0  0  0  0
  1  2  1  0  0  0  0
  1 25  1  0  0  0  0
  1 26  1  0  0  0  0
  2  8  1  0  0  0  0
  2  3  2  0  0  0  0
  3  4  1  0  0  0  0
  4  5  1  0  0  0  0
  4  6  2  0  0  0  0
  6  7  1  0  0  0  0
  7 11  1  0  0  0  0
  7  8  2  0  0  0  0
  8  9  1  0  0  0  0
  9 10  2  0  0  0  0
 10 11  1  0  0  0  0
 10 27  1  0  0  0  0
 11 12  1  0  0  0  0
 12 21  1  0  0  0  0
 12 19  1  0  0  0  0
 12 13  1  0  0  0  0
 13 14  1  0  0  0  0
 14 22  1  0  0  0  0
 14 15  1  0  0  0  0
 14 17  1  0  0  0  0
 15 16  1  0  0  0  0
 15 28  1  0  0  0  0
 15 29  1  0  0  0  0
 16 30  1  0  0  0  0
 17 23  1  0  0  0  0
 17 18  1  0  0  0  0
 17 19  1  0  0  0  0
 18 31  1  0  0  0  0
 19 24  1  0  0  0  0
 19 20  1  0  0  0  0
 20 32  1  0  0  0  0
M  END
> <s_m_source_file>
AV-unprocessed.smi

> <i_m_source_file_index>
114

> <i_lp_mmshare_version>
43012

> <i_f3d_flags>
0

> <s_epik_input>
RmMobjEpbmMoW05IMl0pYyhjMTIpbltjSF1uMltDQEBIXTNPW0NASF0oW0NIMl1bT0hdKVtDQEBIXShbT0hdKVtDQEBIXTNbT0hd

> <s_epik_cmdline>
J2VwaWtfcHl0aG9uJywgJy1waCcsICc3LjAnLCAnLXRuJywgJzgnLCAnLW1hJywgJzIwMCcsICctbWV0YWxfYmluZGluZycsICctaW1hZScsICc8aW5maWxlLm1hZT4nLCAnLW9tYWUnLCAnPG91dGZpbGUubWFlPic=

> <r_lp_tautomer_probability>
1

> <r_epik_Ionization_Penalty>
1.13199e-05

> <r_epik_Ionization_Penalty_Charging>
0

> <r_epik_Ionization_Penalty_Neutral>
1.13199e-05

> <r_epik_State_Penalty>
-0

> <r_epik_Charging_Adjusted_Penalty>
0

> <i_epik_Tot_Q>
0

> <i_epik_Tot_abs_Q>
0

> <r_epik_Metal_State_Penalty>
-0

> <b_epik_Metal_Only>
0

> <s_epik_Chemistry_Notes>
This compound contains an acetal/aminal-like group ( X-CH(R)-Y where X, Y are N, S, or O) that may be acid/base labile, releasing an aldehyde.

> <s_lp_Force_Field>
OPLS_2005

> <r_lp_Energy>
35.5551

> <b_lp_Chiralities_Consistent>
1

> <s_lp_Variant>
AV-unprocessed.smi:114-13

> <Gold.Version>
5.8.1

> <Gold.Id.Protein>
6NUR|6NUR_protein|mol2

> <Gold.PLP.Fitness>
40.3121

> <Gold.PLP.PLP>
-29.5099

> <Gold.PLP.part.hbond>
-6.0000

> <Gold.PLP.part.metal>
0.0000

> <Gold.PLP.part.buried>
-2.3667

> <Gold.PLP.part.nonpolar>
-21.2063

> <Gold.PLP.part.repulsive>
0.3020

> <Gold.PLP.ligand.clash>
0.0000

> <Gold.PLP.ligand.torsion>
0.0977

> <Gold.PLP.Chemscore.Hbond>
3.6543

> <Gold.PLP.Chemscore.CHOScore>
0.0000

> <Gold.PLP.Chemscore.Metal>
0.0000

> <Gold.Chemscore.Hbonds>
donor molecule, donor type, donor heavy atom, donor atom, acceptor molecule, acceptor atom, score
      L1  H    16    30       P1  7957  1.00
      L1  H    18    31       P1  7948  0.84
      P1  H  7989  7998       L1    13  1.00
      P1  H  7997  8010       L1     6  0.72

> <Gold.PLP.Chemscore.Internal.Correction>
0.0348

> <Gold.Rescore>
     Score         DG    S(hbond)    S(metal)    S(lipo)     H(rot)  DE(clash)    DE(int)     intcor
      8.09      -9.42       3.19        0.00      30.60       4.03       0.24       1.09       ----

> <Gold.Chemscore.Fitness>
8.0882

> <Gold.Chemscore.DG>
-9.4205

> <Gold.Chemscore.ZeroCoef>
-5.4800

> <Gold.Chemscore.Hbond>
3.1949

> <Gold.Chemscore.Metal>
0.0000

> <Gold.Chemscore.Lipo>
30.6028

> <Gold.Chemscore.Internal_Hbond>
0.0000

> <Gold.Chemscore.DEClash>
0.2400

> <Gold.Chemscore.DEInternal>
1.0924

> <Gold.Chemscore.Rot>
4.0277

> <Gold.Chemscore.Internal.Correction>
   9.000000E+99

> <Gold.Chemscore.Hbonds>
donor molecule, donor type, donor heavy atom, donor atom, acceptor molecule, acceptor atom, score
      L1  H    16    30       P1  7957  0.99
      L1  H    18    31       P1  7948  0.82
      P1  H  7989  7998       L1    13  0.35
      P1  H  7997  8010       L1     6  0.54

> <Gold.Chemscore.Hbond.Weighted>
-10.6710

> <Gold.Chemscore.Metal.Weighted>
-0.0000

> <Gold.Chemscore.Lipo.Weighted>
-3.5805

> <Gold.Chemscore.Internal_Hbond.Weighted>
0.0000

> <Gold.Chemscore.DEClash.Weighted>
0.2400

> <Gold.Chemscore.DEInternal.Weighted>
1.0924

> <Gold.Chemscore.Rot.Weighted>
10.3110

> <Gold.Chemscore.Internal.Correction.Weighted>
   9.000000E+99

> <Gold.Protein.RotatedTorsions>
[ 6907 6896 6895 6894 ] final -162.40 input  -60.11 | X-H torsion
[ 7974 7965 7964 7962 ] final  -43.04 input  175.53 | X-H torsion
[ 8008 7997 7996 7995 ] final   40.35 input   59.86 | X-H torsion
[ 10167 10162 10161 10158 ] final  -43.49 input  -65.29 | X-H torsion
[ 10718 10713 10712 10709 ] final  143.22 input   66.30 | X-H torsion
[ 10763 10752 10751 10750 ] final  130.75 input  -60.55 | X-H torsion
[ 11005 11000 10999 10996 ] final   25.91 input  -57.11 | X-H torsion

> <Gold.Protein.ActiveResidues>
 VAL166  LYS551  ARG553  GLY616  TRP617  ASP618  TYR619  PRO620  LYS621  CYS622 
 ASP623  PHE694  ASN695  SER759  ASP760  ASP761  ALA762  ILE779  LEU786  VAL792 
 PHE793  MET794  SER795  GLU796  ALA797  LYS798  CYS799  TRP800  GLU811  SER814 

> <Gold.Protein.RotatedAtoms>
  151.3797  133.3825  159.2708 H   0  0  0  0  0  0  0  0  0  0  0  0  # atno 6907 bound_to 6896
  150.9587  134.8979  159.7727 H   0  0  0  0  0  0  0  0  0  0  0  0  # atno 6908 bound_to 6896
  152.5141  134.3756  159.9385 H   0  0  0  0  0  0  0  0  0  0  0  0  # atno 6909 bound_to 6896
  146.0058  140.7022  142.9248 H   0  0  0  0  0  0  0  0  0  0  0  0  # atno 7974 bound_to 7965
  155.2517  140.3353  155.4281 H   0  0  0  0  0  0  0  0  0  0  0  0  # atno 8008 bound_to 7997
  156.2213  140.1810  156.7514 H   0  0  0  0  0  0  0  0  0  0  0  0  # atno 8009 bound_to 7997
  154.5829  140.0650  156.9115 H   0  0  0  0  0  0  0  0  0  0  0  0  # atno 8010 bound_to 7997
  140.6932  143.2980  151.3359 H   0  0  0  0  0  0  0  0  0  0  0  0  # atno 10167 bound_to 10162
  157.3715  131.0979  151.0824 H   0  0  0  0  0  0  0  0  0  0  0  0  # atno 10718 bound_to 10713
  153.7631  135.3193  155.3340 H   0  0  0  0  0  0  0  0  0  0  0  0  # atno 10763 bound_to 10752
  154.8223  135.4594  154.0818 H   0  0  0  0  0  0  0  0  0  0  0  0  # atno 10764 bound_to 10752
  153.2055  135.6928  153.8262 H   0  0  0  0  0  0  0  0  0  0  0  0  # atno 10765 bound_to 10752
  140.3427  134.2315  155.7688 H   0  0  0  0  0  0  0  0  0  0  0  0  # atno 11005 bound_to 11000
  144.6935  140.3312  143.7215 LP  0  0  0  0  0  0  0  0  0  0  0  0  # atno 17320 bound_to 7965
  145.7418  139.1766  143.2371 LP  0  0  0  0  0  0  0  0  0  0  0  0  # atno 17321 bound_to 7965
  139.6357  144.0635  152.2513 LP  0  0  0  0  0  0  0  0  0  0  0  0  # atno 17342 bound_to 10162
  140.0124  144.6214  150.7636 LP  0  0  0  0  0  0  0  0  0  0  0  0  # atno 17343 bound_to 10162
  157.1926  130.6359  149.5710 LP  0  0  0  0  0  0  0  0  0  0  0  0  # atno 17370 bound_to 10713
  155.9756  130.4717  150.6474 LP  0  0  0  0  0  0  0  0  0  0  0  0  # atno 17371 bound_to 10713
  141.2034  133.7913  157.0341 LP  0  0  0  0  0  0  0  0  0  0  0  0  # atno 17394 bound_to 11000
  140.0768  134.9671  157.1558 LP  0  0  0  0  0  0  0  0  0  0  0  0  # atno 17395 bound_to 11000

$$$$
