AV-unprocessed.smi:738|AV-procd|sdf|3541|dock3
  -GOLD-   22720 0533D 1   1.00000     0.00000
 Structure written by MMmdl.
 35 37  0  0  0  0  0  0  0  0  1 V2000
  141.0429  139.3256  153.2308 N   0  0  0  0  0  0  0  0  0  0  0  0
  140.7838  138.0246  153.3935 C   0  0  0  0  0  0  0  0  0  0  0  0
  139.6934  137.6139  153.7856 O   0  0  0  0  0  0  0  0  0  0  0  0
  141.9243  137.0831  153.1347 C   0  0  0  0  0  0  0  0  0  0  0  0
  141.7313  135.6862  153.1997 C   0  0  0  0  0  0  0  0  0  0  0  0
  142.7081  134.7867  152.9584 N   0  0  0  0  0  0  0  0  0  0  0  0
  143.9420  135.2384  152.6284 C   0  0  0  0  0  0  0  0  0  0  0  0
  144.9440  134.2863  152.3650 N   0  0  0  0  0  0  0  0  0  0  0  0
  145.9881  134.3080  153.3788 C   0  0  0  0  0  0  0  0  0  0  0  0
  146.8684  133.0602  153.2349 C   0  0  0  0  0  0  0  0  0  0  0  0
  147.4389  133.0183  151.9303 O   0  0  0  0  0  0  0  0  0  0  0  0
  146.4938  133.0826  150.8600 C   0  0  1  0  0  0  0  0  0  0  0  0
  145.6732  131.8047  150.6222 C   0  0  0  0  0  0  0  0  0  0  0  0
  144.3394  132.2773  150.0212 C   0  0  0  0  0  0  0  0  0  0  0  0
  144.3973  133.8117  149.9736 C   0  0  0  0  0  0  0  0  0  0  0  0
  145.4680  134.2207  150.9975 C   0  0  1  0  0  0  0  0  0  0  0  0
  144.2342  136.6198  152.5225 C   0  0  0  0  0  0  0  0  0  0  0  0
  145.8151  137.1858  152.1075 Cl  0  0  0  0  0  0  0  0  0  0  0  0
  143.2083  137.5507  152.7768 C   0  0  0  0  0  0  0  0  0  0  0  0
  140.3136  140.0045  153.3956 H   0  0  0  0  0  0  0  0  0  0  0  0
  141.9641  139.6274  152.9488 H   0  0  0  0  0  0  0  0  0  0  0  0
  140.7679  135.2704  153.4570 H   0  0  0  0  0  0  0  0  0  0  0  0
  146.5901  135.2103  153.2619 H   0  0  0  0  0  0  0  0  0  0  0  0
  145.5523  134.3394  154.3783 H   0  0  0  0  0  0  0  0  0  0  0  0
  147.6755  133.0858  153.9669 H   0  0  0  0  0  0  0  0  0  0  0  0
  146.2939  132.1561  153.4366 H   0  0  0  0  0  0  0  0  0  0  0  0
  147.0692  133.2661  149.9515 H   0  0  0  0  0  0  0  0  0  0  0  0
  146.1982  131.1129  149.9627 H   0  0  0  0  0  0  0  0  0  0  0  0
  145.4774  131.2734  151.5527 H   0  0  0  0  0  0  0  0  0  0  0  0
  144.1682  131.8570  149.0297 H   0  0  0  0  0  0  0  0  0  0  0  0
  143.5152  131.9537  150.6583 H   0  0  0  0  0  0  0  0  0  0  0  0
  144.7283  134.1205  148.9811 H   0  0  0  0  0  0  0  0  0  0  0  0
  143.4231  134.2733  150.1376 H   0  0  0  0  0  0  0  0  0  0  0  0
  145.9234  135.1773  150.7373 H   0  0  0  0  0  0  0  0  0  0  0  0
  143.4148  138.6081  152.6947 H   0  0  0  0  0  0  0  0  0  0  0  0
  1  2  1  0  0  0  0
  1 20  1  0  0  0  0
  1 21  1  0  0  0  0
  2  3  2  0  0  0  0
  2  4  1  0  0  0  0
  4 19  1  0  0  0  0
  4  5  2  0  0  0  0
  5  6  1  0  0  0  0
  5 22  1  0  0  0  0
  6  7  2  0  0  0  0
  7  8  1  0  0  0  0
  7 17  1  0  0  0  0
  8 16  1  0  0  0  0
  8  9  1  0  0  0  0
  9 10  1  0  0  0  0
  9 23  1  0  0  0  0
  9 24  1  0  0  0  0
 10 11  1  0  0  0  0
 10 25  1  0  0  0  0
 10 26  1  0  0  0  0
 11 12  1  0  0  0  0
 12 16  1  0  0  0  0
 12 13  1  0  0  0  0
 12 27  1  0  0  0  0
 13 14  1  0  0  0  0
 13 28  1  0  0  0  0
 13 29  1  0  0  0  0
 14 15  1  0  0  0  0
 14 30  1  0  0  0  0
 14 31  1  0  0  0  0
 15 16  1  0  0  0  0
 15 32  1  0  0  0  0
 15 33  1  0  0  0  0
 16 34  1  0  0  0  0
 17 18  1  0  0  0  0
 17 19  2  0  0  0  0
 19 35  1  0  0  0  0
M  END
> <s_m_source_file>
AV-unprocessed.smi

> <i_m_source_file_index>
738

> <i_lp_mmshare_version>
43012

> <i_f3d_flags>
0

> <s_epik_input>
W05IMl1DKD1PKWMxW2NIXW5jKGMoQ2wpW2NIXTEpTihbQ0gyXVtDSDJdTzIpW0NASF0oW0NASF0yMylbQ0gyXVtDSDJdW0NIMl0z

> <s_epik_cmdline>
J2VwaWtfcHl0aG9uJywgJy1waCcsICc3LjAnLCAnLXRuJywgJzgnLCAnLW1hJywgJzIwMCcsICctbWV0YWxfYmluZGluZycsICctaW1hZScsICc8aW5maWxlLm1hZT4nLCAnLW9tYWUnLCAnPG91dGZpbGUubWFlPic=

> <r_lp_tautomer_probability>
1

> <r_epik_Ionization_Penalty>
6.75978e-06

> <r_epik_Ionization_Penalty_Charging>
0

> <r_epik_Ionization_Penalty_Neutral>
6.75978e-06

> <r_epik_State_Penalty>
-0

> <r_epik_Charging_Adjusted_Penalty>
0

> <i_epik_Tot_Q>
0

> <i_epik_Tot_abs_Q>
0

> <r_epik_Metal_State_Penalty>
-0

> <b_epik_Metal_Only>
0

> <s_lp_Force_Field>
OPLS_2005

> <r_lp_Energy>
43.0455

> <b_lp_Chiralities_Consistent>
1

> <s_lp_Variant>
AV-unprocessed.smi:738-4

> <Gold.Version>
5.8.1

> <Gold.Id.Protein>
6NUR|6NUR_protein|mol2

> <Gold.PLP.Fitness>
34.7184

> <Gold.PLP.PLP>
-31.7417

> <Gold.PLP.part.hbond>
-2.0000

> <Gold.PLP.part.metal>
0.0000

> <Gold.PLP.part.buried>
-3.9358

> <Gold.PLP.part.nonpolar>
-25.9946

> <Gold.PLP.part.repulsive>
0.7706

> <Gold.PLP.ligand.clash>
0.0000

> <Gold.PLP.ligand.torsion>
0.0989

> <Gold.PLP.Chemscore.Hbond>
1.0000

> <Gold.PLP.Chemscore.CHOScore>
0.0000

> <Gold.PLP.Chemscore.Metal>
0.0000

> <Gold.Chemscore.Hbonds>
donor molecule, donor type, donor heavy atom, donor atom, acceptor molecule, acceptor atom, score
      L1  H     1    21       P1 10175  1.00

> <Gold.PLP.Chemscore.Internal.Correction>
0.1746

> <Gold.Rescore>
     Score         DG    S(hbond)    S(metal)    S(lipo)     H(rot)  DE(clash)    DE(int)     intcor
     13.95     -14.60       0.95        0.00      72.60       1.00       0.57       0.09       ----

> <Gold.Chemscore.Fitness>
13.9482

> <Gold.Chemscore.DG>
-14.6030

> <Gold.Chemscore.ZeroCoef>
-5.4800

> <Gold.Chemscore.Hbond>
0.9549

> <Gold.Chemscore.Metal>
0.0000

> <Gold.Chemscore.Lipo>
72.5953

> <Gold.Chemscore.Internal_Hbond>
0.0000

> <Gold.Chemscore.DEClash>
0.5664

> <Gold.Chemscore.DEInternal>
0.0883

> <Gold.Chemscore.Rot>
1.0000

> <Gold.Chemscore.Internal.Correction>
   9.000000E+99

> <Gold.Chemscore.Hbonds>
donor molecule, donor type, donor heavy atom, donor atom, acceptor molecule, acceptor atom, score
      L1  H     1    21       P1 10175  0.60

> <Gold.Chemscore.Hbond.Weighted>
-3.1893

> <Gold.Chemscore.Metal.Weighted>
-0.0000

> <Gold.Chemscore.Lipo.Weighted>
-8.4937

> <Gold.Chemscore.Internal_Hbond.Weighted>
0.0000

> <Gold.Chemscore.DEClash.Weighted>
0.5664

> <Gold.Chemscore.DEInternal.Weighted>
0.0883

> <Gold.Chemscore.Rot.Weighted>
2.5600

> <Gold.Chemscore.Internal.Correction.Weighted>
   9.000000E+99

> <Gold.Protein.RotatedTorsions>
[ 6907 6896 6895 6894 ] final   52.41 input  -60.11 | X-H torsion
[ 7974 7965 7964 7962 ] final  -17.77 input  175.53 | X-H torsion
[ 8008 7997 7996 7995 ] final  -39.49 input   59.86 | X-H torsion
[ 10167 10162 10161 10158 ] final   16.91 input  -65.29 | X-H torsion
[ 10718 10713 10712 10709 ] final  -53.75 input   66.30 | X-H torsion
[ 10763 10752 10751 10750 ] final -175.90 input  -60.55 | X-H torsion
[ 11005 11000 10999 10996 ] final   24.92 input  -57.11 | X-H torsion

> <Gold.Protein.ActiveResidues>
 VAL166  LYS551  ARG553  GLY616  TRP617  ASP618  TYR619  PRO620  LYS621  CYS622 
 ASP623  PHE694  ASN695  SER759  ASP760  ASP761  ALA762  ILE779  LEU786  VAL792 
 PHE793  MET794  SER795  GLU796  ALA797  LYS798  CYS799  TRP800  GLU811  SER814 

> <Gold.Protein.RotatedAtoms>
  152.3229  134.7357  160.0308 H   0  0  0  0  0  0  0  0  0  0  0  0  # atno 6907 bound_to 6896
  151.7799  133.3343  159.3476 H   0  0  0  0  0  0  0  0  0  0  0  0  # atno 6908 bound_to 6896
  150.7380  134.5871  159.6013 H   0  0  0  0  0  0  0  0  0  0  0  0  # atno 6909 bound_to 6896
  146.1925  140.3827  142.8453 H   0  0  0  0  0  0  0  0  0  0  0  0  # atno 7974 bound_to 7965
  154.4022  140.1550  156.2871 H   0  0  0  0  0  0  0  0  0  0  0  0  # atno 8008 bound_to 7997
  155.8818  140.3443  155.5871 H   0  0  0  0  0  0  0  0  0  0  0  0  # atno 8009 bound_to 7997
  155.7658  140.0823  157.2123 H   0  0  0  0  0  0  0  0  0  0  0  0  # atno 8010 bound_to 7997
  140.5764  143.9065  150.6753 H   0  0  0  0  0  0  0  0  0  0  0  0  # atno 10167 bound_to 10162
  156.1509  130.4151  149.9947 H   0  0  0  0  0  0  0  0  0  0  0  0  # atno 10718 bound_to 10713
  154.5789  135.2834  155.0753 H   0  0  0  0  0  0  0  0  0  0  0  0  # atno 10763 bound_to 10752
  154.2097  135.6410  153.5115 H   0  0  0  0  0  0  0  0  0  0  0  0  # atno 10764 bound_to 10752
  153.0081  135.5488  154.6436 H   0  0  0  0  0  0  0  0  0  0  0  0  # atno 10765 bound_to 10752
  140.3535  134.2203  155.7678 H   0  0  0  0  0  0  0  0  0  0  0  0  # atno 11005 bound_to 11000
  144.8514  140.7006  143.6166 LP  0  0  0  0  0  0  0  0  0  0  0  0  # atno 17320 bound_to 7965
  145.3749  139.1650  143.4312 LP  0  0  0  0  0  0  0  0  0  0  0  0  # atno 17321 bound_to 7965
  140.2553  143.3563  152.1370 LP  0  0  0  0  0  0  0  0  0  0  0  0  # atno 17342 bound_to 10162
  139.5145  144.6948  151.5659 LP  0  0  0  0  0  0  0  0  0  0  0  0  # atno 17343 bound_to 10162
  156.7805  130.9219  151.3646 LP  0  0  0  0  0  0  0  0  0  0  0  0  # atno 17370 bound_to 10713
  157.6656  130.9004  149.9924 LP  0  0  0  0  0  0  0  0  0  0  0  0  # atno 17371 bound_to 10713
  141.2005  133.7985  157.0485 LP  0  0  0  0  0  0  0  0  0  0  0  0  # atno 17394 bound_to 11000
  140.0684  134.9716  157.1425 LP  0  0  0  0  0  0  0  0  0  0  0  0  # atno 17395 bound_to 11000

$$$$
