AV-unprocessed.smi:798|AV-procd|sdf|3771|dock2
  -GOLD-   22720 1203D 1   1.00000     0.00000
 Structure written by MMmdl.
 34 36  0  0  0  0  0  0  0  0  1 V2000
  145.7108  137.9111  154.6135 O   0  0  0  0  0  0  0  0  0  0  0  0
  146.5898  137.5018  153.8546 C   0  0  0  0  0  0  0  0  0  0  0  0
  146.4113  136.6027  152.8709 N   0  0  0  0  0  0  0  0  0  0  0  0
  145.2192  135.9215  152.5078 C   0  0  0  0  0  0  0  0  0  0  0  0
  144.1181  135.8870  153.2748 N   0  0  0  0  0  0  0  0  0  0  0  0
  143.0990  135.1479  152.6883 N   0  0  0  0  0  0  0  0  0  0  0  0
  143.4704  134.6556  151.5032 C   0  0  0  0  0  0  0  0  0  0  0  0
  145.1018  135.0471  150.9872 S   0  0  0  0  0  0  0  0  0  0  0  0
  147.8651  137.9100  153.9141 N   0  0  0  0  0  0  0  0  0  0  0  0
  148.3921  138.8708  154.8803 C   0  0  2  0  0  0  0  0  0  0  0  0
  147.5295  140.1520  154.8981 C   0  0  1  0  0  0  0  0  0  0  0  0
  147.8521  140.9464  156.1766 C   0  0  0  0  0  0  0  0  0  0  0  0
  149.2553  141.5055  155.8750 C   0  0  0  0  0  0  0  0  0  0  0  0
  149.5583  140.9439  154.4689 C   0  0  2  0  0  0  0  0  0  0  0  0
  148.1804  141.0189  153.8234 C   0  0  0  0  0  0  0  0  0  0  0  0
  149.7914  139.4124  154.4889 C   0  0  1  0  0  0  0  0  0  0  0  0
  150.9370  138.9090  155.3883 C   0  0  0  0  0  0  0  0  0  0  0  0
  152.1651  139.4761  154.9839 O   0  0  0  0  0  0  0  0  0  0  0  0
  147.2265  136.3701  152.3228 H   0  0  0  0  0  0  0  0  0  0  0  0
  142.7786  134.0567  150.9296 H   0  0  0  0  0  0  0  0  0  0  0  0
  148.5222  137.5247  153.2518 H   0  0  0  0  0  0  0  0  0  0  0  0
  148.3979  138.4108  155.8707 H   0  0  0  0  0  0  0  0  0  0  0  0
  146.4621  139.9721  154.7636 H   0  0  0  0  0  0  0  0  0  0  0  0
  147.1388  141.7588  156.3206 H   0  0  0  0  0  0  0  0  0  0  0  0
  147.8340  140.3242  157.0722 H   0  0  0  0  0  0  0  0  0  0  0  0
  149.2265  142.5957  155.8489 H   0  0  0  0  0  0  0  0  0  0  0  0
  149.9934  141.2231  156.6243 H   0  0  0  0  0  0  0  0  0  0  0  0
  150.3356  141.4946  153.9383 H   0  0  0  0  0  0  0  0  0  0  0  0
  148.1425  140.5774  152.8260 H   0  0  0  0  0  0  0  0  0  0  0  0
  147.7759  142.0317  153.7788 H   0  0  0  0  0  0  0  0  0  0  0  0
  150.0211  139.1052  153.4663 H   0  0  0  0  0  0  0  0  0  0  0  0
  150.7597  139.1297  156.4401 H   0  0  0  0  0  0  0  0  0  0  0  0
  151.0217  137.8251  155.3085 H   0  0  0  0  0  0  0  0  0  0  0  0
  152.8438  138.8267  155.0879 H   0  0  0  0  0  0  0  0  0  0  0  0
  1  2  2  0  0  0  0
  2  3  1  0  0  0  0
  2  9  1  0  0  0  0
  3  4  1  0  0  0  0
  3 19  1  0  0  0  0
  4  8  1  0  0  0  0
  4  5  2  0  0  0  0
  5  6  1  0  0  0  0
  6  7  2  0  0  0  0
  7  8  1  0  0  0  0
  7 20  1  0  0  0  0
  9 10  1  0  0  0  0
  9 21  1  0  0  0  0
 10 16  1  0  0  0  0
 10 11  1  0  0  0  0
 10 22  1  0  0  0  0
 11 15  1  0  0  0  0
 11 12  1  0  0  0  0
 11 23  1  0  0  0  0
 12 13  1  0  0  0  0
 12 24  1  0  0  0  0
 12 25  1  0  0  0  0
 13 14  1  0  0  0  0
 13 26  1  0  0  0  0
 13 27  1  0  0  0  0
 14 15  1  0  0  0  0
 14 16  1  0  0  0  0
 14 28  1  0  0  0  0
 15 29  1  0  0  0  0
 15 30  1  0  0  0  0
 16 17  1  0  0  0  0
 16 31  1  0  0  0  0
 17 18  1  0  0  0  0
 17 32  1  0  0  0  0
 17 33  1  0  0  0  0
 18 34  1  0  0  0  0
M  END
> <s_m_source_file>
AV-unprocessed.smi

> <i_m_source_file_index>
798

> <i_lp_mmshare_version>
43012

> <i_f3d_flags>
0

> <s_epik_input>
W0NIMl0xW0NIMl1bQ0BASF0oW0NIMl0yKVtDQEBIXShbQ0gyXVtPSF0pW0NAQEhdKFtDQEhdMTIpW05IXUMoPU8pW05IXWMzbm5bY0hdczM=

> <s_epik_cmdline>
J2VwaWtfcHl0aG9uJywgJy1waCcsICc3LjAnLCAnLXRuJywgJzgnLCAnLW1hJywgJzIwMCcsICctbWV0YWxfYmluZGluZycsICctaW1hZScsICc8aW5maWxlLm1hZT4nLCAnLW9tYWUnLCAnPG91dGZpbGUubWFlPic=

> <r_lp_tautomer_probability>
1

> <r_epik_Ionization_Penalty>
0.000329046

> <r_epik_Ionization_Penalty_Charging>
0

> <r_epik_Ionization_Penalty_Neutral>
0.000329046

> <r_epik_State_Penalty>
-0

> <r_epik_Charging_Adjusted_Penalty>
0

> <i_epik_Tot_Q>
0

> <i_epik_Tot_abs_Q>
0

> <r_epik_Metal_State_Penalty>
0.173433

> <b_epik_Metal_Only>
0

> <s_lp_Force_Field>
OPLS_2005

> <r_lp_Energy>
48.5099

> <b_lp_Chiralities_Consistent>
1

> <s_lp_Variant>
AV-unprocessed.smi:798-3

> <Gold.Version>
5.8.1

> <Gold.Id.Protein>
6NUR|6NUR_protein|mol2

> <Gold.PLP.Fitness>
34.7227

> <Gold.PLP.PLP>
-23.6610

> <Gold.PLP.part.hbond>
-3.0000

> <Gold.PLP.part.metal>
0.0000

> <Gold.PLP.part.buried>
-2.3858

> <Gold.PLP.part.nonpolar>
-18.9922

> <Gold.PLP.part.repulsive>
0.2733

> <Gold.PLP.ligand.clash>
0.0000

> <Gold.PLP.ligand.torsion>
0.1667

> <Gold.PLP.Chemscore.Hbond>
2.7920

> <Gold.PLP.Chemscore.CHOScore>
1.0000

> <Gold.PLP.Chemscore.Metal>
0.0000

> <Gold.Chemscore.Hbonds>
donor molecule, donor type, donor heavy atom, donor atom, acceptor molecule, acceptor atom, score
      L1  H     3    19       P1  7948  1.00
      L1  H     9    21       P1  7948  1.00
      P1  H  7989  7998       L1    18  0.73
      L1  C     7    20       P1 10186  1.00

> <Gold.PLP.Chemscore.Internal.Correction>
0.0191

> <Gold.Rescore>
     Score         DG    S(hbond)    S(metal)    S(lipo)     H(rot)  DE(clash)    DE(int)     intcor
     13.20     -15.80       2.71        0.00      53.43       1.94       0.09       2.51       ----

> <Gold.Chemscore.Fitness>
13.2006

> <Gold.Chemscore.DG>
-15.8003

> <Gold.Chemscore.ZeroCoef>
-5.4800

> <Gold.Chemscore.Hbond>
2.7085

> <Gold.Chemscore.Metal>
0.0000

> <Gold.Chemscore.Lipo>
53.4266

> <Gold.Chemscore.Internal_Hbond>
0.0000

> <Gold.Chemscore.DEClash>
0.0901

> <Gold.Chemscore.DEInternal>
2.5096

> <Gold.Chemscore.Rot>
1.9442

> <Gold.Chemscore.Internal.Correction>
   9.000000E+99

> <Gold.Chemscore.Hbonds>
donor molecule, donor type, donor heavy atom, donor atom, acceptor molecule, acceptor atom, score
      L1  H     3    19       P1  7948  1.00
      L1  H     9    21       P1  7948  0.95
      P1  H  7989  7998       L1    18  0.39

> <Gold.Chemscore.Hbond.Weighted>
-9.0465

> <Gold.Chemscore.Metal.Weighted>
-0.0000

> <Gold.Chemscore.Lipo.Weighted>
-6.2509

> <Gold.Chemscore.Internal_Hbond.Weighted>
0.0000

> <Gold.Chemscore.DEClash.Weighted>
0.0901

> <Gold.Chemscore.DEInternal.Weighted>
2.5096

> <Gold.Chemscore.Rot.Weighted>
4.9771

> <Gold.Chemscore.Internal.Correction.Weighted>
   9.000000E+99

> <Gold.Protein.RotatedTorsions>
[ 6907 6896 6895 6894 ] final  -12.75 input  -60.11 | X-H torsion
[ 7974 7965 7964 7962 ] final -129.60 input  175.53 | X-H torsion
[ 8008 7997 7996 7995 ] final  173.09 input   59.86 | X-H torsion
[ 10167 10162 10161 10158 ] final -102.19 input  -65.29 | X-H torsion
[ 10718 10713 10712 10709 ] final -178.08 input   66.30 | X-H torsion
[ 10763 10752 10751 10750 ] final  112.78 input  -60.55 | X-H torsion
[ 11005 11000 10999 10996 ] final  124.15 input  -57.11 | X-H torsion

> <Gold.Protein.ActiveResidues>
 VAL166  LYS551  ARG553  GLY616  TRP617  ASP618  TYR619  PRO620  LYS621  CYS622 
 ASP623  PHE694  ASN695  SER759  ASP760  ASP761  ALA762  ILE779  LEU786  VAL792 
 PHE793  MET794  SER795  GLU796  ALA797  LYS798  CYS799  TRP800  GLU811  SER814 

> <Gold.Protein.RotatedAtoms>
  151.3657  135.0913  159.9448 H   0  0  0  0  0  0  0  0  0  0  0  0  # atno 6907 bound_to 6896
  152.5149  133.9214  159.7547 H   0  0  0  0  0  0  0  0  0  0  0  0  # atno 6908 bound_to 6896
  150.9618  133.6383  159.2782 H   0  0  0  0  0  0  0  0  0  0  0  0  # atno 6909 bound_to 6896
  144.9556  140.7392  143.4760 H   0  0  0  0  0  0  0  0  0  0  0  0  # atno 7974 bound_to 7965
  156.1110  140.1469  156.9338 H   0  0  0  0  0  0  0  0  0  0  0  0  # atno 8008 bound_to 7997
  154.4767  140.0892  156.7322 H   0  0  0  0  0  0  0  0  0  0  0  0  # atno 8009 bound_to 7997
  155.4596  140.3438  155.4313 H   0  0  0  0  0  0  0  0  0  0  0  0  # atno 8010 bound_to 7997
  140.2333  143.3591  152.0867 H   0  0  0  0  0  0  0  0  0  0  0  0  # atno 10167 bound_to 10162
  156.8390  130.9679  151.3101 H   0  0  0  0  0  0  0  0  0  0  0  0  # atno 10718 bound_to 10713
  153.4829  135.3675  155.2451 H   0  0  0  0  0  0  0  0  0  0  0  0  # atno 10763 bound_to 10752
  154.8754  135.3958  154.3679 H   0  0  0  0  0  0  0  0  0  0  0  0  # atno 10764 bound_to 10752
  153.4286  135.7082  153.6311 H   0  0  0  0  0  0  0  0  0  0  0  0  # atno 10765 bound_to 10752
  139.9345  134.9640  156.8367 H   0  0  0  0  0  0  0  0  0  0  0  0  # atno 11005 bound_to 11000
  145.2777  139.1930  143.4808 LP  0  0  0  0  0  0  0  0  0  0  0  0  # atno 17320 bound_to 7965
  146.3336  140.2733  142.8607 LP  0  0  0  0  0  0  0  0  0  0  0  0  # atno 17321 bound_to 7965
  139.5102  144.6881  151.5834 LP  0  0  0  0  0  0  0  0  0  0  0  0  # atno 17342 bound_to 10162
  140.6169  143.9332  150.6495 LP  0  0  0  0  0  0  0  0  0  0  0  0  # atno 17343 bound_to 10162
  157.6366  130.8771  149.9370 LP  0  0  0  0  0  0  0  0  0  0  0  0  # atno 17370 bound_to 10713
  156.0891  130.3665  150.0429 LP  0  0  0  0  0  0  0  0  0  0  0  0  # atno 17371 bound_to 10713
  140.6111  134.0081  155.7577 LP  0  0  0  0  0  0  0  0  0  0  0  0  # atno 17394 bound_to 11000
  141.0952  133.9854  157.3171 LP  0  0  0  0  0  0  0  0  0  0  0  0  # atno 17395 bound_to 11000

$$$$
