AV-unprocessed.smi:703|AV-procd|sdf|3441|dock2
  -GOLD-   22720 0423D 1   1.00000     0.00000
 Structure written by MMmdl.
 37 38  0  0  0  0  0  0  0  0  3 V2000
  152.0822  138.7541  155.1183 C   0  0  0  0  0  0  0  0  0  0  0  0
  151.6565  137.6588  154.1312 C   0  0  0  0  0  0  0  0  0  0  0  0
  150.1853  137.4694  154.1014 N   0  3  2  0  0  0  0  0  0  0  0  0
  149.3965  138.6897  154.3964 C   0  0  0  0  0  0  0  0  0  0  0  0
  148.1495  138.2015  155.1406 C   0  0  2  0  0  0  0  0  0  0  0  0
  147.3810  139.3052  155.8964 C   0  0  0  0  0  0  0  0  0  0  0  0
  148.6669  136.9947  155.9484 C   0  0  2  0  0  0  0  0  0  0  0  0
  149.3555  137.4201  157.1616 N   0  5  0  0  0  0  0  0  0  0  0  0
  149.2852  136.5032  158.4983 S   0  0  0  0  0  0  0  0  0  0  0  0
  149.0241  135.0844  158.2058 O   0  0  0  0  0  0  0  0  0  0  0  0
  150.3843  136.8063  159.4284 O   0  0  0  0  0  0  0  0  0  0  0  0
  147.7528  137.1639  159.2890 C   0  0  0  0  0  0  0  0  0  0  0  0
  147.4767  136.4484  160.5834 C   0  0  0  0  0  0  0  0  0  0  0  0
  147.3306  135.0502  160.8040 C   0  0  0  0  0  0  0  0  0  0  0  0
  147.1016  134.9608  162.1463 C   0  0  0  0  0  0  0  0  0  0  0  0
  147.0929  136.1948  162.7100 O   0  0  0  0  0  0  0  0  0  0  0  0
  147.3283  137.1385  161.7037 N   0  0  0  0  0  0  0  0  0  0  0  0
  149.6936  136.3792  154.9841 C   0  0  0  0  0  0  0  0  0  0  0  0
  153.1604  138.9095  155.0781 H   0  0  0  0  0  0  0  0  0  0  0  0
  151.8284  138.4924  156.1457 H   0  0  0  0  0  0  0  0  0  0  0  0
  151.6014  139.7044  154.8843 H   0  0  0  0  0  0  0  0  0  0  0  0
  151.9925  137.9409  153.1326 H   0  0  0  0  0  0  0  0  0  0  0  0
  152.1476  136.7147  154.3729 H   0  0  0  0  0  0  0  0  0  0  0  0
  149.9726  139.3779  155.0212 H   0  0  0  0  0  0  0  0  0  0  0  0
  149.1437  139.2210  153.4783 H   0  0  0  0  0  0  0  0  0  0  0  0
  147.4661  137.8022  154.3893 H   0  0  0  0  0  0  0  0  0  0  0  0
  147.9945  139.8011  156.6504 H   0  0  0  0  0  0  0  0  0  0  0  0
  146.4929  138.9113  156.3931 H   0  0  0  0  0  0  0  0  0  0  0  0
  147.0439  140.0759  155.2033 H   0  0  0  0  0  0  0  0  0  0  0  0
  147.8642  136.2850  156.1523 H   0  0  0  0  0  0  0  0  0  0  0  0
  147.9019  138.2303  159.4592 H   0  0  0  0  0  0  0  0  0  0  0  0
  146.9253  137.0576  158.5885 H   0  0  0  0  0  0  0  0  0  0  0  0
  147.3959  134.2429  160.0901 H   0  0  0  0  0  0  0  0  0  0  0  0
  146.9322  134.1309  162.8163 H   0  0  0  0  0  0  0  0  0  0  0  0
  149.1993  135.6450  154.3469 H   0  0  0  0  0  0  0  0  0  0  0  0
  150.4972  135.8519  155.5022 H   0  0  0  0  0  0  0  0  0  0  0  0
  149.9449  137.1870  153.1623 H   0  0  0  0  0  0  0  0  0  0  0  0
  1  2  1  0  0  0  0
  1 19  1  0  0  0  0
  1 20  1  0  0  0  0
  1 21  1  0  0  0  0
  2  3  1  0  0  0  0
  2 22  1  0  0  0  0
  2 23  1  0  0  0  0
  3 18  1  0  0  0  0
  3  4  1  0  0  0  0
  3 37  1  0  0  0  0
  4  5  1  0  0  0  0
  4 24  1  0  0  0  0
  4 25  1  0  0  0  0
  5  6  1  0  0  0  0
  5  7  1  0  0  0  0
  5 26  1  0  0  0  0
  6 27  1  0  0  0  0
  6 28  1  0  0  0  0
  6 29  1  0  0  0  0
  7  8  1  0  0  0  0
  7 18  1  0  0  0  0
  7 30  1  0  0  0  0
  8  9  1  0  0  0  0
  9 10  2  0  0  0  0
  9 11  2  0  0  0  0
  9 12  1  0  0  0  0
 12 13  1  0  0  0  0
 12 31  1  0  0  0  0
 12 32  1  0  0  0  0
 13 17  2  0  0  0  0
 13 14  1  0  0  0  0
 14 15  2  0  0  0  0
 14 33  1  0  0  0  0
 15 16  1  0  0  0  0
 15 34  1  0  0  0  0
 16 17  1  0  0  0  0
 18 35  1  0  0  0  0
 18 36  1  0  0  0  0
M  CHG  1   3   1
M  CHG  1   8  -1
M  END
> <s_m_source_file>
AV-unprocessed.smi

> <i_m_source_file_index>
703

> <i_lp_mmshare_version>
43012

> <i_f3d_flags>
0

> <s_epik_input>
W0NIM11bQ0gyXU4xW0NIMl1bQ0BASF0oW0NIM10pW0NASF0oW0NIMl0xKVtOSF1TKD1PKSg9TylbQ0gyXWMyW2NIXVtjSF1vbjI=

> <s_epik_cmdline>
J2VwaWtfcHl0aG9uJywgJy1waCcsICc3LjAnLCAnLXRuJywgJzgnLCAnLW1hJywgJzIwMCcsICctbWV0YWxfYmluZGluZycsICctaW1hZScsICc8aW5maWxlLm1hZT4nLCAnLW9tYWUnLCAnPG91dGZpbGUubWFlPic=

> <r_epik_Ionization_Penalty>
3.62494

> <r_epik_Ionization_Penalty_Charging>
3.62494

> <r_epik_Ionization_Penalty_Neutral>
2.0321e-10

> <r_epik_State_Penalty>
3.62558

> <r_epik_Charging_Adjusted_Penalty>
7.25052

> <i_epik_Tot_Q>
0

> <i_epik_Tot_abs_Q>
2

> <r_epik_Metal_State_Penalty>
0.530836

> <b_epik_Metal_Only>
1

> <s_lp_Force_Field>
OPLS_2005

> <r_lp_Energy>
19.3254

> <b_lp_Chiralities_Consistent>
1

> <s_lp_Variant>
AV-unprocessed.smi:703-16

> <Gold.Version>
5.8.1

> <Gold.Id.Protein>
6NUR|6NUR_protein|mol2

> <Gold.PLP.Fitness>
40.5542

> <Gold.PLP.PLP>
-27.9815

> <Gold.PLP.part.hbond>
-5.4675

> <Gold.PLP.part.metal>
0.0000

> <Gold.PLP.part.buried>
-4.0433

> <Gold.PLP.part.nonpolar>
-18.7390

> <Gold.PLP.part.repulsive>
0.0530

> <Gold.PLP.ligand.clash>
0.0000

> <Gold.PLP.ligand.torsion>
1.2539

> <Gold.PLP.Chemscore.Hbond>
4.6791

> <Gold.PLP.Chemscore.CHOScore>
0.0000

> <Gold.PLP.Chemscore.Metal>
0.0000

> <Gold.Chemscore.Hbonds>
donor molecule, donor type, donor heavy atom, donor atom, acceptor molecule, acceptor atom, score
      L1  H     3    37       P1  7948  2.00
      P1  H  6896  6909       L1    11  0.92
      P1  H  6931  6943       L1    17  0.90
      P1  H  6934  6947       L1    17  0.86

> <Gold.PLP.Chemscore.Internal.Correction>
1.0432

> <Gold.Rescore>
     Score         DG    S(hbond)    S(metal)    S(lipo)     H(rot)  DE(clash)    DE(int)     intcor
     15.48     -16.63       2.68        0.00      54.64       1.63       0.20       0.95       ----

> <Gold.Chemscore.Fitness>
15.4825

> <Gold.Chemscore.DG>
-16.6303

> <Gold.Chemscore.ZeroCoef>
-5.4800

> <Gold.Chemscore.Hbond>
2.6767

> <Gold.Chemscore.Metal>
0.0000

> <Gold.Chemscore.Lipo>
54.6387

> <Gold.Chemscore.Internal_Hbond>
0.0000

> <Gold.Chemscore.DEClash>
0.1977

> <Gold.Chemscore.DEInternal>
0.9501

> <Gold.Chemscore.Rot>
1.6338

> <Gold.Chemscore.Internal.Correction>
   9.000000E+99

> <Gold.Chemscore.Hbonds>
donor molecule, donor type, donor heavy atom, donor atom, acceptor molecule, acceptor atom, score
      L1  H     3    37       P1  7948  0.25
      P1  H  6896  6908       L1    10  0.01
      P1  H  6896  6909       L1    11  0.71
      P1  H  6931  6943       L1    17  0.46
      P1  H  6934  6947       L1    17  0.20

> <Gold.Chemscore.Hbond.Weighted>
-8.9401

> <Gold.Chemscore.Metal.Weighted>
-0.0000

> <Gold.Chemscore.Lipo.Weighted>
-6.3927

> <Gold.Chemscore.Internal_Hbond.Weighted>
0.0000

> <Gold.Chemscore.DEClash.Weighted>
0.1977

> <Gold.Chemscore.DEInternal.Weighted>
0.9501

> <Gold.Chemscore.Rot.Weighted>
4.1825

> <Gold.Chemscore.Internal.Correction.Weighted>
   9.000000E+99

> <Gold.Protein.RotatedTorsions>
[ 6907 6896 6895 6894 ] final  115.02 input  -60.11 | X-H torsion
[ 7974 7965 7964 7962 ] final   75.16 input  175.53 | X-H torsion
[ 8008 7997 7996 7995 ] final  115.63 input   59.86 | X-H torsion
[ 10167 10162 10161 10158 ] final  -86.97 input  -65.29 | X-H torsion
[ 10718 10713 10712 10709 ] final    6.57 input   66.30 | X-H torsion
[ 10763 10752 10751 10750 ] final  118.08 input  -60.55 | X-H torsion
[ 11005 11000 10999 10996 ] final    8.10 input  -57.11 | X-H torsion

> <Gold.Protein.ActiveResidues>
 VAL166  LYS551  ARG553  GLY616  TRP617  ASP618  TYR619  PRO620  LYS621  CYS622 
 ASP623  PHE694  ASN695  SER759  ASP760  ASP761  ALA762  ILE779  LEU786  VAL792 
 PHE793  MET794  SER795  GLU796  ALA797  LYS798  CYS799  TRP800  GLU811  SER814 

> <Gold.Protein.RotatedAtoms>
  152.4767  133.8155  159.7025 H   0  0  0  0  0  0  0  0  0  0  0  0  # atno 6907 bound_to 6896
  150.8788  133.7391  159.2945 H   0  0  0  0  0  0  0  0  0  0  0  0  # atno 6908 bound_to 6896
  151.4902  135.1060  159.9853 H   0  0  0  0  0  0  0  0  0  0  0  0  # atno 6909 bound_to 6896
  145.7191  139.2642  143.1606 H   0  0  0  0  0  0  0  0  0  0  0  0  # atno 7974 bound_to 7965
  156.2393  140.2934  156.0399 H   0  0  0  0  0  0  0  0  0  0  0  0  # atno 8008 bound_to 7997
  155.1999  140.0409  157.2933 H   0  0  0  0  0  0  0  0  0  0  0  0  # atno 8009 bound_to 7997
  154.6137  140.2458  155.7643 H   0  0  0  0  0  0  0  0  0  0  0  0  # atno 8010 bound_to 7997
  140.3890  143.2713  151.9288 H   0  0  0  0  0  0  0  0  0  0  0  0  # atno 10167 bound_to 10162
  156.9241  130.5802  149.5648 H   0  0  0  0  0  0  0  0  0  0  0  0  # atno 10718 bound_to 10713
  153.5621  135.3519  155.2803 H   0  0  0  0  0  0  0  0  0  0  0  0  # atno 10763 bound_to 10752
  154.8693  135.4139  154.2819 H   0  0  0  0  0  0  0  0  0  0  0  0  # atno 10764 bound_to 10752
  153.3567  135.7058  153.6814 H   0  0  0  0  0  0  0  0  0  0  0  0  # atno 10765 bound_to 10752
  140.5408  134.0376  155.7903 H   0  0  0  0  0  0  0  0  0  0  0  0  # atno 11005 bound_to 11000
  146.0642  140.7939  142.9720 LP  0  0  0  0  0  0  0  0  0  0  0  0  # atno 17320 bound_to 7965
  144.6921  140.3243  143.7227 LP  0  0  0  0  0  0  0  0  0  0  0  0  # atno 17321 bound_to 7965
  139.4790  144.5745  151.8033 LP  0  0  0  0  0  0  0  0  0  0  0  0  # atno 17342 bound_to 10162
  140.4859  144.1381  150.5941 LP  0  0  0  0  0  0  0  0  0  0  0  0  # atno 17343 bound_to 10162
  156.0477  130.5551  150.8919 LP  0  0  0  0  0  0  0  0  0  0  0  0  # atno 17370 bound_to 10713
  157.5889  131.0945  150.9151 LP  0  0  0  0  0  0  0  0  0  0  0  0  # atno 17371 bound_to 10713
  141.1228  133.9432  157.2695 LP  0  0  0  0  0  0  0  0  0  0  0  0  # atno 17394 bound_to 11000
  139.9505  135.0176  156.8980 LP  0  0  0  0  0  0  0  0  0  0  0  0  # atno 17395 bound_to 11000

$$$$
