AV-unprocessed.smi:1864|AV-procd|sdf|7553|dock4
  -GOLD-   22720 9273D 1   1.00000     0.00000
 Structure written by MMmdl.
 33 34  0  0  0  0  0  0  0  0  2 V2000
  146.6521  135.8888  161.9684 C   0  0  0  0  0  0  0  0  0  0  0  0
  147.7755  135.9339  160.9896 C   0  0  0  0  0  0  0  0  0  0  0  0
  148.1032  134.8726  160.2633 N   0  0  0  0  0  0  0  0  0  0  0  0
  149.1871  135.3268  159.4982 O   0  0  0  0  0  0  0  0  0  0  0  0
  149.3795  136.6221  159.8552 C   0  0  0  0  0  0  0  0  0  0  0  0
  150.4968  137.3949  159.2214 C   0  0  0  0  0  0  0  0  0  0  0  0
  150.0251  138.4787  158.2330 C   0  0  0  0  0  0  0  0  0  0  0  0
  150.9765  138.5909  157.1266 N   0  5  0  0  0  0  0  0  0  0  0  0
  151.7829  139.6709  156.8949 C   0  0  0  0  0  0  0  0  0  0  0  0
  152.3583  139.9365  155.8322 O   0  0  0  0  0  0  0  0  0  0  0  0
  152.0233  140.6405  158.0062 C   0  0  0  0  0  0  0  0  0  0  0  0
  151.8899  141.9119  157.7890 N   0  0  0  0  0  0  0  0  0  0  0  0
  152.0711  142.8556  158.7790 N   0  0  0  0  0  0  0  0  0  0  0  0
  151.6042  144.1900  158.4046 C   0  0  0  0  0  0  0  0  0  0  0  0
  152.6473  142.6051  159.9823 C   0  0  0  0  0  0  0  0  0  0  0  0
  152.7889  143.4462  160.8700 O   0  0  0  0  0  0  0  0  0  0  0  0
  153.1707  141.1835  160.2041 C   0  0  0  0  0  0  0  0  0  0  0  0
  152.3834  140.1370  159.3925 C   0  0  0  0  0  0  0  0  0  0  0  0
  148.5251  137.0508  160.7852 N   0  0  0  0  0  0  0  0  0  0  0  0
  146.1948  134.8990  161.9938 H   0  0  0  0  0  0  0  0  0  0  0  0
  145.8867  136.6156  161.6959 H   0  0  0  0  0  0  0  0  0  0  0  0
  147.0158  136.1258  162.9685 H   0  0  0  0  0  0  0  0  0  0  0  0
  151.0912  137.8480  160.0158 H   0  0  0  0  0  0  0  0  0  0  0  0
  151.1526  136.6884  158.7110 H   0  0  0  0  0  0  0  0  0  0  0  0
  149.0247  138.2231  157.8808 H   0  0  0  0  0  0  0  0  0  0  0  0
  149.9225  139.4255  158.7645 H   0  0  0  0  0  0  0  0  0  0  0  0
  151.7646  144.9470  159.1731 H   0  0  0  0  0  0  0  0  0  0  0  0
  150.5353  144.1642  158.1892 H   0  0  0  0  0  0  0  0  0  0  0  0
  152.1184  144.5262  157.5035 H   0  0  0  0  0  0  0  0  0  0  0  0
  154.2185  141.1697  159.9017 H   0  0  0  0  0  0  0  0  0  0  0  0
  153.1456  140.9349  161.2657 H   0  0  0  0  0  0  0  0  0  0  0  0
  151.4706  139.8628  159.9223 H   0  0  0  0  0  0  0  0  0  0  0  0
  152.9892  139.2323  159.3333 H   0  0  0  0  0  0  0  0  0  0  0  0
  1  2  1  0  0  0  0
  1 20  1  0  0  0  0
  1 21  1  0  0  0  0
  1 22  1  0  0  0  0
  2 19  1  0  0  0  0
  2  3  2  0  0  0  0
  3  4  1  0  0  0  0
  4  5  1  0  0  0  0
  5  6  1  0  0  0  0
  5 19  2  0  0  0  0
  6  7  1  0  0  0  0
  6 23  1  0  0  0  0
  6 24  1  0  0  0  0
  7  8  1  0  0  0  0
  7 25  1  0  0  0  0
  7 26  1  0  0  0  0
  8  9  1  0  0  0  0
  9 10  2  0  0  0  0
  9 11  1  0  0  0  0
 11 18  1  0  0  0  0
 11 12  2  0  0  0  0
 12 13  1  0  0  0  0
 13 14  1  0  0  0  0
 13 15  1  0  0  0  0
 14 27  1  0  0  0  0
 14 28  1  0  0  0  0
 14 29  1  0  0  0  0
 15 16  2  0  0  0  0
 15 17  1  0  0  0  0
 17 18  1  0  0  0  0
 17 30  1  0  0  0  0
 17 31  1  0  0  0  0
 18 32  1  0  0  0  0
 18 33  1  0  0  0  0
M  CHG  1   8  -1
M  END
> <s_m_source_file>
AV-unprocessed.smi

> <i_m_source_file_index>
1864

> <i_lp_mmshare_version>
43012

> <i_f3d_flags>
0

> <s_epik_input>
W0NIM11jMW5vYyhuMSlbQ0gyXVtDSDJdW05IXUMoPU8pQzI9Tk4oW0NIM10pQyg9TylbQ0gyXVtDSDJdMg==

> <s_epik_cmdline>
J2VwaWtfcHl0aG9uJywgJy1waCcsICc3LjAnLCAnLXRuJywgJzgnLCAnLW1hJywgJzIwMCcsICctbWV0YWxfYmluZGluZycsICctaW1hZScsICc8aW5maWxlLm1hZT4nLCAnLW9tYWUnLCAnPG91dGZpbGUubWFlPic=

> <r_lp_tautomer_probability>
1

> <r_epik_Ionization_Penalty>
5.04632

> <r_epik_Ionization_Penalty_Charging>
5.04632

> <r_epik_Ionization_Penalty_Neutral>
3.43742e-09

> <r_epik_State_Penalty>
5.0462

> <r_epik_Charging_Adjusted_Penalty>
10.0925

> <i_epik_Tot_Q>
-1

> <i_epik_Tot_abs_Q>
1

> <r_epik_Metal_State_Penalty>
1.15274

> <b_epik_Metal_Only>
1

> <s_epik_Chemistry_Notes>
This compound has an imine and may undergo hydrolysis.

> <s_lp_Force_Field>
OPLS_2005

> <r_lp_Energy>
22.1734

> <b_lp_Chiralities_Consistent>
1

> <s_lp_Variant>
AV-unprocessed.smi:1864-2

> <Gold.Version>
5.8.1

> <Gold.Id.Protein>
6NUR|6NUR_protein|mol2

> <Gold.PLP.Fitness>
39.7153

> <Gold.PLP.PLP>
-32.4537

> <Gold.PLP.part.hbond>
-4.0000

> <Gold.PLP.part.metal>
0.0000

> <Gold.PLP.part.buried>
-1.9395

> <Gold.PLP.part.nonpolar>
-26.2351

> <Gold.PLP.part.repulsive>
0.0687

> <Gold.PLP.ligand.clash>
0.0000

> <Gold.PLP.ligand.torsion>
1.2831

> <Gold.PLP.Chemscore.Hbond>
3.2667

> <Gold.PLP.Chemscore.CHOScore>
0.0000

> <Gold.PLP.Chemscore.Metal>
0.0000

> <Gold.Chemscore.Hbonds>
donor molecule, donor type, donor heavy atom, donor atom, acceptor molecule, acceptor atom, score
      P1  H  6896  6907       L1     4  1.00
      P1  H  6931  6943       L1    19  0.91
      P1  H  6934  6947       L1    19  0.07
      P1  H  7997  8010       L1    10  0.99

> <Gold.PLP.Chemscore.Internal.Correction>
0.0276

> <Gold.Rescore>
     Score         DG    S(hbond)    S(metal)    S(lipo)     H(rot)  DE(clash)    DE(int)     intcor
     13.94     -16.17       2.80        0.00      50.24       1.77       0.69       1.53       ----

> <Gold.Chemscore.Fitness>
13.9403

> <Gold.Chemscore.DG>
-16.1651

> <Gold.Chemscore.ZeroCoef>
-5.4800

> <Gold.Chemscore.Hbond>
2.7984

> <Gold.Chemscore.Metal>
0.0000

> <Gold.Chemscore.Lipo>
50.2363

> <Gold.Chemscore.Internal_Hbond>
0.0000

> <Gold.Chemscore.DEClash>
0.6947

> <Gold.Chemscore.DEInternal>
1.5301

> <Gold.Chemscore.Rot>
1.7731

> <Gold.Chemscore.Internal.Correction>
   9.000000E+99

> <Gold.Chemscore.Hbonds>
donor molecule, donor type, donor heavy atom, donor atom, acceptor molecule, acceptor atom, score
      P1  H  6896  6907       L1     4  0.30
      P1  H  6931  6943       L1    19  0.84
      P1  H  6934  6947       L1    19  0.07
      P1  H  7997  8010       L1    10  0.65

> <Gold.Chemscore.Hbond.Weighted>
-9.3467

> <Gold.Chemscore.Metal.Weighted>
-0.0000

> <Gold.Chemscore.Lipo.Weighted>
-5.8776

> <Gold.Chemscore.Internal_Hbond.Weighted>
0.0000

> <Gold.Chemscore.DEClash.Weighted>
0.6947

> <Gold.Chemscore.DEInternal.Weighted>
1.5301

> <Gold.Chemscore.Rot.Weighted>
4.5393

> <Gold.Chemscore.Internal.Correction.Weighted>
   9.000000E+99

> <Gold.Protein.RotatedTorsions>
[ 6907 6896 6895 6894 ] final  -58.70 input  -60.11 | X-H torsion
[ 7974 7965 7964 7962 ] final  -53.98 input  175.53 | X-H torsion
[ 8008 7997 7996 7995 ] final   86.77 input   59.86 | X-H torsion
[ 10167 10162 10161 10158 ] final -147.85 input  -65.29 | X-H torsion
[ 10718 10713 10712 10709 ] final    4.53 input   66.30 | X-H torsion
[ 10763 10752 10751 10750 ] final  -86.78 input  -60.55 | X-H torsion
[ 11005 11000 10999 10996 ] final  143.38 input  -57.11 | X-H torsion

> <Gold.Protein.ActiveResidues>
 VAL166  LYS551  ARG553  GLY616  TRP617  ASP618  TYR619  PRO620  LYS621  CYS622 
 ASP623  PHE694  ASN695  SER759  ASP760  ASP761  ALA762  ILE779  LEU786  VAL792 
 PHE793  MET794  SER795  GLU796  ALA797  LYS798  CYS799  TRP800  GLU811  SER814 

> <Gold.Protein.RotatedAtoms>
  150.7987  134.7065  159.6579 H   0  0  0  0  0  0  0  0  0  0  0  0  # atno 6907 bound_to 6896
  152.4102  134.6135  160.0041 H   0  0  0  0  0  0  0  0  0  0  0  0  # atno 6908 bound_to 6896
  151.6380  133.3291  159.3160 H   0  0  0  0  0  0  0  0  0  0  0  0  # atno 6909 bound_to 6896
  145.8908  140.8072  142.9792 H   0  0  0  0  0  0  0  0  0  0  0  0  # atno 7974 bound_to 7965
  155.9669  140.3389  155.6541 H   0  0  0  0  0  0  0  0  0  0  0  0  # atno 8008 bound_to 7997
  155.6725  140.0728  157.2533 H   0  0  0  0  0  0  0  0  0  0  0  0  # atno 8009 bound_to 7997
  154.4157  140.1689  156.1882 H   0  0  0  0  0  0  0  0  0  0  0  0  # atno 8010 bound_to 7997
  139.7585  143.8412  152.2602 H   0  0  0  0  0  0  0  0  0  0  0  0  # atno 10167 bound_to 10162
  156.8940  130.5697  149.5649 H   0  0  0  0  0  0  0  0  0  0  0  0  # atno 10718 bound_to 10713
  154.6263  135.5437  153.7630 H   0  0  0  0  0  0  0  0  0  0  0  0  # atno 10763 bound_to 10752
  153.0262  135.6425  154.1367 H   0  0  0  0  0  0  0  0  0  0  0  0  # atno 10764 bound_to 10752
  154.1299  135.2915  155.3168 H   0  0  0  0  0  0  0  0  0  0  0  0  # atno 10765 bound_to 10752
  140.0549  134.9236  157.1083 H   0  0  0  0  0  0  0  0  0  0  0  0  # atno 11005 bound_to 11000
  144.6730  140.1526  143.7429 LP  0  0  0  0  0  0  0  0  0  0  0  0  # atno 17320 bound_to 7965
  145.8911  139.2376  143.1549 LP  0  0  0  0  0  0  0  0  0  0  0  0  # atno 17321 bound_to 7965
  139.8411  144.7209  150.9329 LP  0  0  0  0  0  0  0  0  0  0  0  0  # atno 17342 bound_to 10162
  140.7805  143.3982  151.1193 LP  0  0  0  0  0  0  0  0  0  0  0  0  # atno 17343 bound_to 10162
  156.0615  130.5667  150.9202 LP  0  0  0  0  0  0  0  0  0  0  0  0  # atno 17370 bound_to 10713
  157.6067  131.0938  150.8867 LP  0  0  0  0  0  0  0  0  0  0  0  0  # atno 17371 bound_to 10713
  140.3859  134.2236  155.7168 LP  0  0  0  0  0  0  0  0  0  0  0  0  # atno 17394 bound_to 11000
  141.1947  133.8121  157.0744 LP  0  0  0  0  0  0  0  0  0  0  0  0  # atno 17395 bound_to 11000

$$$$
