AV-unprocessed.smi:3250|AV-procd|sdf|12433|dock4
  -GOLD-   2272018323D 1   1.00000     0.00000
 Structure written by MMmdl.
 40 41  0  0  0  0  0  0  0  0  3 V2000
  147.8725  136.7983  155.3406 C   0  0  0  0  0  0  0  0  0  0  0  0
  147.3826  138.0477  154.5952 C   0  0  0  0  0  0  0  0  0  0  0  0
  148.4148  138.6125  153.6851 N   0  3  1  0  0  0  0  0  0  0  0  0
  147.8833  139.6395  152.7562 C   0  0  0  0  0  0  0  0  0  0  0  0
  147.6959  140.9903  153.4696 C   0  0  0  0  0  0  0  0  0  0  0  0
  148.9316  141.3975  154.0449 O   0  0  0  0  0  0  0  0  0  0  0  0
  149.4067  140.4850  155.0303 C   0  0  2  0  0  0  0  0  0  0  0  0
  150.7048  141.0560  155.6189 C   0  0  0  0  0  0  0  0  0  0  0  0
  150.4998  142.3785  156.1906 N   0  0  0  0  0  0  0  0  0  0  0  0
  151.0720  142.8034  157.3752 C   0  0  0  0  0  0  0  0  0  0  0  0
  150.7957  144.0502  157.7851 N   0  3  0  0  0  0  0  0  0  0  0  0
  151.3311  144.5134  158.9414 C   0  0  0  0  0  0  0  0  0  0  0  0
  152.1749  143.6936  159.7120 C   0  0  0  0  0  0  0  0  0  0  0  0
  152.4252  142.4004  159.2242 C   0  0  0  0  0  0  0  0  0  0  0  0
  153.2511  141.5541  159.9349 O   0  0  0  0  0  0  0  0  0  0  0  0
  153.6656  141.9513  161.2375 C   0  0  0  0  0  0  0  0  0  0  0  0
  151.8686  141.9744  158.0651 N   0  0  0  0  0  0  0  0  0  0  0  0
  149.6408  139.1126  154.3601 C   0  0  0  0  0  0  0  0  0  0  0  0
  147.0582  136.3511  155.9111 H   0  0  0  0  0  0  0  0  0  0  0  0
  148.6705  137.0268  156.0466 H   0  0  0  0  0  0  0  0  0  0  0  0
  148.2411  136.0429  154.6457 H   0  0  0  0  0  0  0  0  0  0  0  0
  146.5141  137.7564  154.0033 H   0  0  0  0  0  0  0  0  0  0  0  0
  147.0298  138.7978  155.3029 H   0  0  0  0  0  0  0  0  0  0  0  0
  148.5929  139.7612  151.9368 H   0  0  0  0  0  0  0  0  0  0  0  0
  146.9489  139.3057  152.3036 H   0  0  0  0  0  0  0  0  0  0  0  0
  147.3756  141.7485  152.7549 H   0  0  0  0  0  0  0  0  0  0  0  0
  146.9220  140.9318  154.2362 H   0  0  0  0  0  0  0  0  0  0  0  0
  148.6704  140.3881  155.8296 H   0  0  0  0  0  0  0  0  0  0  0  0
  151.0713  140.3984  156.4081 H   0  0  0  0  0  0  0  0  0  0  0  0
  151.4803  141.1011  154.8531 H   0  0  0  0  0  0  0  0  0  0  0  0
  149.8937  143.0237  155.7048 H   0  0  0  0  0  0  0  0  0  0  0  0
  151.0668  145.5253  159.2115 H   0  0  0  0  0  0  0  0  0  0  0  0
  152.6124  144.0433  160.6359 H   0  0  0  0  0  0  0  0  0  0  0  0
  154.2974  141.1741  161.6678 H   0  0  0  0  0  0  0  0  0  0  0  0
  152.8118  142.0881  161.9029 H   0  0  0  0  0  0  0  0  0  0  0  0
  154.2484  142.8730  161.2080 H   0  0  0  0  0  0  0  0  0  0  0  0
  150.0127  138.3874  155.0826 H   0  0  0  0  0  0  0  0  0  0  0  0
  150.4221  139.2097  153.6048 H   0  0  0  0  0  0  0  0  0  0  0  0
  148.7012  137.8379  153.1028 H   0  0  0  0  0  0  0  0  0  0  0  0
  150.1863  144.6592  157.2386 H   0  0  0  0  0  0  0  0  0  0  0  0
  1  2  1  0  0  0  0
  1 19  1  0  0  0  0
  1 20  1  0  0  0  0
  1 21  1  0  0  0  0
  2  3  1  0  0  0  0
  2 22  1  0  0  0  0
  2 23  1  0  0  0  0
  3 18  1  0  0  0  0
  3  4  1  0  0  0  0
  3 39  1  0  0  0  0
  4  5  1  0  0  0  0
  4 24  1  0  0  0  0
  4 25  1  0  0  0  0
  5  6  1  0  0  0  0
  5 26  1  0  0  0  0
  5 27  1  0  0  0  0
  6  7  1  0  0  0  0
  7  8  1  0  0  0  0
  7 18  1  0  0  0  0
  7 28  1  0  0  0  0
  8  9  1  0  0  0  0
  8 29  1  0  0  0  0
  8 30  1  0  0  0  0
  9 10  1  0  0  0  0
  9 31  1  0  0  0  0
 10 17  1  0  0  0  0
 10 11  2  0  0  0  0
 11 12  1  0  0  0  0
 11 40  1  0  0  0  0
 12 13  2  0  0  0  0
 12 32  1  0  0  0  0
 13 14  1  0  0  0  0
 13 33  1  0  0  0  0
 14 15  1  0  0  0  0
 14 17  2  0  0  0  0
 15 16  1  0  0  0  0
 16 34  1  0  0  0  0
 16 35  1  0  0  0  0
 16 36  1  0  0  0  0
 18 37  1  0  0  0  0
 18 38  1  0  0  0  0
M  CHG  1   3   1
M  CHG  1  11   1
M  END
> <s_m_source_file>
AV-unprocessed.smi

> <i_m_source_file_index>
3250

> <i_lp_mmshare_version>
43012

> <i_f3d_flags>
0

> <s_epik_input>
W0NIM11bQ0gyXU4xW0NIMl1bQ0gyXU9bQ0BIXShbQ0gyXTEpW0NIMl1bTkhdYzJuW2NIXVtjSF1jKG4yKU9bQ0gzXQ==

> <s_epik_cmdline>
J2VwaWtfcHl0aG9uJywgJy1waCcsICc3LjAnLCAnLXRuJywgJzgnLCAnLW1hJywgJzIwMCcsICctbWV0YWxfYmluZGluZycsICctaW1hZScsICc8aW5maWxlLm1hZT4nLCAnLW9tYWUnLCAnPG91dGZpbGUubWFlPic=

> <r_lp_tautomer_probability>
0.999985

> <r_epik_Ionization_Penalty>
2.24691

> <r_epik_Ionization_Penalty_Charging>
2.24686

> <r_epik_Ionization_Penalty_Neutral>
4.52111e-05

> <r_epik_State_Penalty>
2.24709

> <r_epik_Charging_Adjusted_Penalty>
4.49395

> <i_epik_Tot_Q>
2

> <i_epik_Tot_abs_Q>
2

> <r_epik_Metal_State_Penalty>
2.26327

> <b_epik_Metal_Only>
0

> <s_lp_Force_Field>
OPLS_2005

> <r_lp_Energy>
20.5595

> <b_lp_Chiralities_Consistent>
1

> <s_lp_Variant>
AV-unprocessed.smi:3250-9

> <Gold.Version>
5.8.1

> <Gold.Id.Protein>
6NUR|6NUR_protein|mol2

> <Gold.PLP.Fitness>
51.9817

> <Gold.PLP.PLP>
-33.5702

> <Gold.PLP.part.hbond>
-4.7395

> <Gold.PLP.part.metal>
0.0000

> <Gold.PLP.part.buried>
0.7695

> <Gold.PLP.part.nonpolar>
-29.6025

> <Gold.PLP.part.repulsive>
0.3443

> <Gold.PLP.ligand.clash>
0.0000

> <Gold.PLP.ligand.torsion>
0.2530

> <Gold.PLP.Chemscore.Hbond>
6.2994

> <Gold.PLP.Chemscore.CHOScore>
0.0000

> <Gold.PLP.Chemscore.Metal>
0.0000

> <Gold.Chemscore.Hbonds>
donor molecule, donor type, donor heavy atom, donor atom, acceptor molecule, acceptor atom, score
      L1  H     3    39       P1  7948  2.00
      L1  H     9    31       P1  8028  2.00
      L1  H    11    40       P1  8028  1.82
      P1  H  8011  8017       L1     6  0.44

> <Gold.PLP.Chemscore.Internal.Correction>
0.0192

> <Gold.Rescore>
     Score         DG    S(hbond)    S(metal)    S(lipo)     H(rot)  DE(clash)    DE(int)     intcor
     16.46     -18.38       2.57        0.00      75.09       1.75       1.65       0.26       ----

> <Gold.Chemscore.Fitness>
16.4629

> <Gold.Chemscore.DG>
-18.3771

> <Gold.Chemscore.ZeroCoef>
-5.4800

> <Gold.Chemscore.Hbond>
2.5747

> <Gold.Chemscore.Metal>
0.0000

> <Gold.Chemscore.Lipo>
75.0890

> <Gold.Chemscore.Internal_Hbond>
0.0000

> <Gold.Chemscore.DEClash>
1.6497

> <Gold.Chemscore.DEInternal>
0.2645

> <Gold.Chemscore.Rot>
1.7530

> <Gold.Chemscore.Internal.Correction>
   9.000000E+99

> <Gold.Chemscore.Hbonds>
donor molecule, donor type, donor heavy atom, donor atom, acceptor molecule, acceptor atom, score
      L1  H     3    39       P1  7948  0.93
      L1  H     9    31       P1  8028  0.93
      L1  H    11    40       P1  8028  0.30
      P1  H  8011  8017       L1     6  0.10

> <Gold.Chemscore.Hbond.Weighted>
-8.5993

> <Gold.Chemscore.Metal.Weighted>
-0.0000

> <Gold.Chemscore.Lipo.Weighted>
-8.7854

> <Gold.Chemscore.Internal_Hbond.Weighted>
0.0000

> <Gold.Chemscore.DEClash.Weighted>
1.6497

> <Gold.Chemscore.DEInternal.Weighted>
0.2645

> <Gold.Chemscore.Rot.Weighted>
4.4876

> <Gold.Chemscore.Internal.Correction.Weighted>
   9.000000E+99

> <Gold.Protein.RotatedTorsions>
[ 6907 6896 6895 6894 ] final  -55.43 input  -60.11 | X-H torsion
[ 7974 7965 7964 7962 ] final   15.14 input  175.53 | X-H torsion
[ 8008 7997 7996 7995 ] final  114.21 input   59.86 | X-H torsion
[ 10167 10162 10161 10158 ] final -170.34 input  -65.29 | X-H torsion
[ 10718 10713 10712 10709 ] final  132.37 input   66.30 | X-H torsion
[ 10763 10752 10751 10750 ] final   43.69 input  -60.55 | X-H torsion
[ 11005 11000 10999 10996 ] final -149.36 input  -57.11 | X-H torsion

> <Gold.Protein.ActiveResidues>
 VAL166  LYS551  ARG553  GLY616  TRP617  ASP618  TYR619  PRO620  LYS621  CYS622 
 ASP623  PHE694  ASN695  SER759  ASP760  ASP761  ALA762  ILE779  LEU786  VAL792 
 PHE793  MET794  SER795  GLU796  ALA797  LYS798  CYS799  TRP800  GLU811  SER814 

> <Gold.Protein.RotatedAtoms>
  150.8252  134.7480  159.6806 H   0  0  0  0  0  0  0  0  0  0  0  0  # atno 6907 bound_to 6896
  152.4364  134.5675  159.9921 H   0  0  0  0  0  0  0  0  0  0  0  0  # atno 6908 bound_to 6896
  151.5849  133.3336  159.3052 H   0  0  0  0  0  0  0  0  0  0  0  0  # atno 6909 bound_to 6896
  146.2286  139.8938  142.8550 H   0  0  0  0  0  0  0  0  0  0  0  0  # atno 7974 bound_to 7965
  156.2307  140.2964  156.0181 H   0  0  0  0  0  0  0  0  0  0  0  0  # atno 8008 bound_to 7997
  155.2233  140.0416  157.2968 H   0  0  0  0  0  0  0  0  0  0  0  0  # atno 8009 bound_to 7997
  154.5991  140.2422  155.7825 H   0  0  0  0  0  0  0  0  0  0  0  0  # atno 8010 bound_to 7997
  139.5868  144.1301  152.1585 H   0  0  0  0  0  0  0  0  0  0  0  0  # atno 10167 bound_to 10162
  157.4878  131.1089  150.9597 H   0  0  0  0  0  0  0  0  0  0  0  0  # atno 10718 bound_to 10713
  152.9855  135.6093  154.3152 H   0  0  0  0  0  0  0  0  0  0  0  0  # atno 10763 bound_to 10752
  154.2865  135.2776  155.2675 H   0  0  0  0  0  0  0  0  0  0  0  0  # atno 10764 bound_to 10752
  154.4990  135.5872  153.6573 H   0  0  0  0  0  0  0  0  0  0  0  0  # atno 10765 bound_to 10752
  140.7516  134.3400  157.5124 H   0  0  0  0  0  0  0  0  0  0  0  0  # atno 11005 bound_to 11000
  145.2391  141.0002  143.3946 LP  0  0  0  0  0  0  0  0  0  0  0  0  # atno 17320 bound_to 7965
  144.9467  139.4128  143.6422 LP  0  0  0  0  0  0  0  0  0  0  0  0  # atno 17321 bound_to 7965
  140.0867  144.5655  150.7084 LP  0  0  0  0  0  0  0  0  0  0  0  0  # atno 17342 bound_to 10162
  140.7138  143.2527  151.4498 LP  0  0  0  0  0  0  0  0  0  0  0  0  # atno 17343 bound_to 10162
  157.0309  130.5711  149.5343 LP  0  0  0  0  0  0  0  0  0  0  0  0  # atno 17370 bound_to 10713
  156.0156  130.5250  150.8124 LP  0  0  0  0  0  0  0  0  0  0  0  0  # atno 17371 bound_to 10713
  139.8786  134.9145  156.3109 LP  0  0  0  0  0  0  0  0  0  0  0  0  # atno 17394 bound_to 11000
  140.9746  133.7306  156.0583 LP  0  0  0  0  0  0  0  0  0  0  0  0  # atno 17395 bound_to 11000

$$$$
