AV-unprocessed.smi:1017|AV-procd|sdf|4438|dock5
  -GOLD-   22720 2393D 1   1.00000     0.00000
 Structure written by MMmdl.
 44 45  0  0  0  0  0  0  0  0  1 V2000
  152.3337  138.8066  154.2476 C   0  0  0  0  0  0  0  0  0  0  0  0
  151.5952  139.7739  154.9729 O   0  0  0  0  0  0  0  0  0  0  0  0
  152.2080  140.1133  156.2051 C   0  0  0  0  0  0  0  0  0  0  0  0
  151.1954  140.8822  157.0674 C   0  0  0  0  0  0  0  0  0  0  0  0
  151.8406  141.5202  158.2198 N   0  0  0  0  0  0  0  0  0  0  0  0
  152.9854  140.8740  158.6556 N   0  0  0  0  0  0  0  0  0  0  0  0
  153.6486  141.3318  159.6663 C   0  0  0  0  0  0  0  0  0  0  0  0
  154.8828  140.6297  160.1207 C   0  0  0  0  0  0  0  0  0  0  0  0
  155.7099  141.2069  160.8269 O   0  0  0  0  0  0  0  0  0  0  0  0
  155.0149  139.3511  159.7173 N   0  0  0  0  0  0  0  0  0  0  0  0
  156.0849  138.3780  159.9939 C   0  0  0  0  0  0  0  0  0  0  0  0
  156.0651  137.9727  161.4965 C   0  0  0  0  0  0  0  0  0  0  0  0
  154.9166  137.3667  161.8008 F   0  0  0  0  0  0  0  0  0  0  0  0
  157.0634  137.1280  161.7613 F   0  0  0  0  0  0  0  0  0  0  0  0
  156.1869  139.0290  162.2999 F   0  0  0  0  0  0  0  0  0  0  0  0
  155.9839  137.1241  159.0785 C   0  0  0  0  0  0  0  0  0  0  0  0
  156.1228  137.4577  157.5818 C   0  0  0  0  0  0  0  0  0  0  0  0
  157.4448  138.1850  157.2996 C   0  0  0  0  0  0  0  0  0  0  0  0
  157.5865  139.4369  158.1772 C   0  0  0  0  0  0  0  0  0  0  0  0
  157.4236  139.0962  159.6719 C   0  0  0  0  0  0  0  0  0  0  0  0
  153.2035  142.5319  160.3647 C   0  0  0  0  0  0  0  0  0  0  0  0
  152.0841  143.1490  159.9277 C   0  0  0  0  0  0  0  0  0  0  0  0
  151.3174  142.6487  158.7865 C   0  0  0  0  0  0  0  0  0  0  0  0
  150.2926  143.1917  158.3748 O   0  0  0  0  0  0  0  0  0  0  0  0
  151.8185  138.5776  153.3146 H   0  0  0  0  0  0  0  0  0  0  0  0
  152.4324  137.8794  154.8137 H   0  0  0  0  0  0  0  0  0  0  0  0
  153.3305  139.1745  154.0006 H   0  0  0  0  0  0  0  0  0  0  0  0
  152.5355  139.2072  156.7176 H   0  0  0  0  0  0  0  0  0  0  0  0
  153.0911  140.7289  156.0255 H   0  0  0  0  0  0  0  0  0  0  0  0
  150.6988  141.6362  156.4538 H   0  0  0  0  0  0  0  0  0  0  0  0
  150.4020  140.2110  157.4007 H   0  0  0  0  0  0  0  0  0  0  0  0
  154.2673  138.9973  159.1383 H   0  0  0  0  0  0  0  0  0  0  0  0
  156.7734  136.4214  159.3472 H   0  0  0  0  0  0  0  0  0  0  0  0
  155.0535  136.5834  159.2478 H   0  0  0  0  0  0  0  0  0  0  0  0
  156.0743  136.5409  156.9940 H   0  0  0  0  0  0  0  0  0  0  0  0
  155.2844  138.0739  157.2552 H   0  0  0  0  0  0  0  0  0  0  0  0
  158.2798  137.5095  157.4904 H   0  0  0  0  0  0  0  0  0  0  0  0
  157.5026  138.4589  156.2457 H   0  0  0  0  0  0  0  0  0  0  0  0
  158.5614  139.8949  158.0083 H   0  0  0  0  0  0  0  0  0  0  0  0
  156.8463  140.1799  157.8783 H   0  0  0  0  0  0  0  0  0  0  0  0
  157.5121  140.0096  160.2614 H   0  0  0  0  0  0  0  0  0  0  0  0
  158.2621  138.4666  159.9715 H   0  0  0  0  0  0  0  0  0  0  0  0
  153.7385  142.9369  161.2109 H   0  0  0  0  0  0  0  0  0  0  0  0
  151.7429  144.0394  160.4351 H   0  0  0  0  0  0  0  0  0  0  0  0
  1  2  1  0  0  0  0
  1 25  1  0  0  0  0
  1 26  1  0  0  0  0
  1 27  1  0  0  0  0
  2  3  1  0  0  0  0
  3  4  1  0  0  0  0
  3 28  1  0  0  0  0
  3 29  1  0  0  0  0
  4  5  1  0  0  0  0
  4 30  1  0  0  0  0
  4 31  1  0  0  0  0
  5 23  1  0  0  0  0
  5  6  1  0  0  0  0
  6  7  2  0  0  0  0
  7  8  1  0  0  0  0
  7 21  1  0  0  0  0
  8  9  2  0  0  0  0
  8 10  1  0  0  0  0
 10 11  1  0  0  0  0
 10 32  1  0  0  0  0
 11 20  1  0  0  0  0
 11 12  1  0  0  0  0
 11 16  1  0  0  0  0
 12 13  1  0  0  0  0
 12 14  1  0  0  0  0
 12 15  1  0  0  0  0
 16 17  1  0  0  0  0
 16 33  1  0  0  0  0
 16 34  1  0  0  0  0
 17 18  1  0  0  0  0
 17 35  1  0  0  0  0
 17 36  1  0  0  0  0
 18 19  1  0  0  0  0
 18 37  1  0  0  0  0
 18 38  1  0  0  0  0
 19 20  1  0  0  0  0
 19 39  1  0  0  0  0
 19 40  1  0  0  0  0
 20 41  1  0  0  0  0
 20 42  1  0  0  0  0
 21 22  2  0  0  0  0
 21 43  1  0  0  0  0
 22 23  1  0  0  0  0
 22 44  1  0  0  0  0
 23 24  2  0  0  0  0
M  END
> <s_m_source_file>
AV-unprocessed.smi

> <i_m_source_file_index>
1017

> <i_lp_mmshare_version>
43012

> <i_f3d_flags>
0

> <s_epik_input>
W0NIM11PW0NIMl1bQ0gyXW4xbmMoW2NIXVtjSF1jMT1PKUMoPU8pW05IXUMyKEMoRikoRilGKVtDSDJdW0NIMl1bQ0gyXVtDSDJdW0NIMl0y

> <s_epik_cmdline>
J2VwaWtfcHl0aG9uJywgJy1waCcsICc3LjAnLCAnLXRuJywgJzgnLCAnLW1hJywgJzIwMCcsICctbWV0YWxfYmluZGluZycsICctaW1hZScsICc8aW5maWxlLm1hZT4nLCAnLW9tYWUnLCAnPG91dGZpbGUubWFlPic=

> <r_lp_tautomer_probability>
1

> <r_epik_Ionization_Penalty>
9.29602e-06

> <r_epik_Ionization_Penalty_Charging>
4.97824e-09

> <r_epik_Ionization_Penalty_Neutral>
9.29104e-06

> <r_epik_State_Penalty>
-0

> <r_epik_Charging_Adjusted_Penalty>
4.97824e-09

> <i_epik_Tot_Q>
0

> <i_epik_Tot_abs_Q>
0

> <r_epik_Metal_State_Penalty>
0.00907788

> <b_epik_Metal_Only>
0

> <s_lp_Force_Field>
OPLS_2005

> <r_lp_Energy>
35.4859

> <b_lp_Chiralities_Consistent>
1

> <s_lp_Variant>
AV-unprocessed.smi:1017-1

> <Gold.Version>
5.8.1

> <Gold.Id.Protein>
6NUR|6NUR_protein|mol2

> <Gold.PLP.Fitness>
39.2794

> <Gold.PLP.PLP>
-37.6995

> <Gold.PLP.part.hbond>
-2.0000

> <Gold.PLP.part.metal>
0.0000

> <Gold.PLP.part.buried>
-5.4044

> <Gold.PLP.part.nonpolar>
-30.3974

> <Gold.PLP.part.repulsive>
0.2308

> <Gold.PLP.ligand.clash>
0.0000

> <Gold.PLP.ligand.torsion>
0.7738

> <Gold.PLP.Chemscore.Hbond>
1.0000

> <Gold.PLP.Chemscore.CHOScore>
0.0000

> <Gold.PLP.Chemscore.Metal>
0.0000

> <Gold.Chemscore.Hbonds>
donor molecule, donor type, donor heavy atom, donor atom, acceptor molecule, acceptor atom, score
      P1  H  7989  7998       L1     2  0.45

> <Gold.PLP.Chemscore.Internal.Correction>
0.1275

> <Gold.Rescore>
     Score         DG    S(hbond)    S(metal)    S(lipo)     H(rot)  DE(clash)    DE(int)     intcor
      6.55     -10.23       0.00        0.00      77.77       1.70       0.04       3.65       ----

> <Gold.Chemscore.Fitness>
6.5478

> <Gold.Chemscore.DG>
-10.2314

> <Gold.Chemscore.ZeroCoef>
-5.4800

> <Gold.Chemscore.Hbond>
0.0000

> <Gold.Chemscore.Metal>
0.0000

> <Gold.Chemscore.Lipo>
77.7671

> <Gold.Chemscore.Internal_Hbond>
0.0000

> <Gold.Chemscore.DEClash>
0.0354

> <Gold.Chemscore.DEInternal>
3.6482

> <Gold.Chemscore.Rot>
1.6982

> <Gold.Chemscore.Internal.Correction>
   9.000000E+99

> <Gold.Chemscore.Hbonds>
donor molecule, donor type, donor heavy atom, donor atom, acceptor molecule, acceptor atom, score
      P1  H  7989  7998       L1     2  0.02

> <Gold.Chemscore.Hbond.Weighted>
-0.0000

> <Gold.Chemscore.Metal.Weighted>
-0.0000

> <Gold.Chemscore.Lipo.Weighted>
-9.0987

> <Gold.Chemscore.Internal_Hbond.Weighted>
0.0000

> <Gold.Chemscore.DEClash.Weighted>
0.0354

> <Gold.Chemscore.DEInternal.Weighted>
3.6482

> <Gold.Chemscore.Rot.Weighted>
4.3474

> <Gold.Chemscore.Internal.Correction.Weighted>
   9.000000E+99

> <Gold.Protein.RotatedTorsions>
[ 6907 6896 6895 6894 ] final    0.60 input  -60.11 | X-H torsion
[ 7974 7965 7964 7962 ] final   49.12 input  175.53 | X-H torsion
[ 8008 7997 7996 7995 ] final    0.66 input   59.86 | X-H torsion
[ 10167 10162 10161 10158 ] final   23.41 input  -65.29 | X-H torsion
[ 10718 10713 10712 10709 ] final -151.77 input   66.30 | X-H torsion
[ 10763 10752 10751 10750 ] final  100.13 input  -60.55 | X-H torsion
[ 11005 11000 10999 10996 ] final  168.49 input  -57.11 | X-H torsion

> <Gold.Protein.ActiveResidues>
 VAL166  LYS551  ARG553  GLY616  TRP617  ASP618  TYR619  PRO620  LYS621  CYS622 
 ASP623  PHE694  ASN695  SER759  ASP760  ASP761  ALA762  ILE779  LEU786  VAL792 
 PHE793  MET794  SER795  GLU796  ALA797  LYS798  CYS799  TRP800  GLU811  SER814 

> <Gold.Protein.RotatedAtoms>
  151.5791  135.1059  160.0012 H   0  0  0  0  0  0  0  0  0  0  0  0  # atno 6907 bound_to 6896
  152.4363  133.7362  159.6626 H   0  0  0  0  0  0  0  0  0  0  0  0  # atno 6908 bound_to 6896
  150.8261  133.8099  159.3141 H   0  0  0  0  0  0  0  0  0  0  0  0  # atno 6909 bound_to 6896
  146.0139  139.4574  142.9939 H   0  0  0  0  0  0  0  0  0  0  0  0  # atno 7974 bound_to 7965
  154.6706  140.2611  155.7011 H   0  0  0  0  0  0  0  0  0  0  0  0  # atno 8008 bound_to 7997
  156.2657  140.2830  156.1136 H   0  0  0  0  0  0  0  0  0  0  0  0  # atno 8009 bound_to 7997
  155.1174  140.0376  157.2731 H   0  0  0  0  0  0  0  0  0  0  0  0  # atno 8010 bound_to 7997
  140.5271  143.9904  150.6446 H   0  0  0  0  0  0  0  0  0  0  0  0  # atno 10167 bound_to 10162
  156.4636  130.8225  151.2455 H   0  0  0  0  0  0  0  0  0  0  0  0  # atno 10718 bound_to 10713
  153.3100  135.4089  155.1328 H   0  0  0  0  0  0  0  0  0  0  0  0  # atno 10763 bound_to 10752
  154.8573  135.3562  154.5736 H   0  0  0  0  0  0  0  0  0  0  0  0  # atno 10764 bound_to 10752
  153.6164  135.7066  153.5385 H   0  0  0  0  0  0  0  0  0  0  0  0  # atno 10765 bound_to 10752
  140.2878  134.7698  157.3813 H   0  0  0  0  0  0  0  0  0  0  0  0  # atno 11005 bound_to 11000
  145.7299  141.0046  143.1357 LP  0  0  0  0  0  0  0  0  0  0  0  0  # atno 17320 bound_to 7965
  144.6963  139.8971  143.7456 LP  0  0  0  0  0  0  0  0  0  0  0  0  # atno 17321 bound_to 7965
  140.3269  143.3102  152.0727 LP  0  0  0  0  0  0  0  0  0  0  0  0  # atno 17342 bound_to 10162
  139.4942  144.6536  151.6622 LP  0  0  0  0  0  0  0  0  0  0  0  0  # atno 17343 bound_to 10162
  157.7496  131.0099  150.3285 LP  0  0  0  0  0  0  0  0  0  0  0  0  # atno 17370 bound_to 10713
  156.3691  130.3860  149.7190 LP  0  0  0  0  0  0  0  0  0  0  0  0  # atno 17371 bound_to 10713
  140.1223  134.5203  155.8173 LP  0  0  0  0  0  0  0  0  0  0  0  0  # atno 17394 bound_to 11000
  141.2151  133.6760  156.6889 LP  0  0  0  0  0  0  0  0  0  0  0  0  # atno 17395 bound_to 11000

$$$$
