AV-unprocessed.smi:3307|AV-procd|sdf|12707|dock2
  -GOLD-   2272019 43D 1   1.00000     0.00000
 Structure written by MMmdl.
 31 32  0  0  0  0  0  0  0  0  2 V2000
  147.8075  142.0834  154.2322 C   0  0  0  0  0  0  0  0  0  0  0  0
  149.0152  141.3488  154.7346 C   0  0  0  0  0  0  0  0  0  0  0  0
  149.6361  140.1926  154.1850 C   0  0  0  0  0  0  0  0  0  0  0  0
  150.6851  139.9415  155.0237 C   0  0  0  0  0  0  0  0  0  0  0  0
  151.7135  138.8594  154.9809 C   0  0  0  0  0  0  0  0  0  0  0  0
  150.6572  140.9175  156.0037 N   0  0  0  0  0  0  0  0  0  0  0  0
  151.5548  141.1126  157.1308 C   0  0  0  0  0  0  0  0  0  0  0  0
  151.2299  142.3903  157.9269 C   0  0  1  0  0  0  0  0  0  0  0  0
  152.1092  142.6352  159.1577 C   0  0  0  0  0  0  0  0  0  0  0  0
  151.9891  144.1401  159.3639 C   0  0  0  0  0  0  0  0  0  0  0  0
  151.9233  144.6871  157.9362 C   0  0  0  0  0  0  0  0  0  0  0  0
  151.3674  143.6048  157.0985 N   0  3  0  0  0  0  0  0  0  0  0  0
  149.6314  141.7771  155.8238 N   0  0  0  0  0  0  0  0  0  0  0  0
  147.3936  141.6021  153.3459 H   0  0  0  0  0  0  0  0  0  0  0  0
  148.0554  143.1110  153.9656 H   0  0  0  0  0  0  0  0  0  0  0  0
  147.0232  142.1140  154.9888 H   0  0  0  0  0  0  0  0  0  0  0  0
  149.3528  139.6314  153.3067 H   0  0  0  0  0  0  0  0  0  0  0  0
  151.5478  138.1998  154.1289 H   0  0  0  0  0  0  0  0  0  0  0  0
  151.6766  138.2513  155.8848 H   0  0  0  0  0  0  0  0  0  0  0  0
  152.7159  139.2767  154.8902 H   0  0  0  0  0  0  0  0  0  0  0  0
  151.4938  140.2376  157.7802 H   0  0  0  0  0  0  0  0  0  0  0  0
  152.5792  141.1472  156.7589 H   0  0  0  0  0  0  0  0  0  0  0  0
  150.1909  142.3538  158.2572 H   0  0  0  0  0  0  0  0  0  0  0  0
  151.7900  142.0610  160.0284 H   0  0  0  0  0  0  0  0  0  0  0  0
  153.1467  142.3741  158.9429 H   0  0  0  0  0  0  0  0  0  0  0  0
  151.0614  144.3666  159.8911 H   0  0  0  0  0  0  0  0  0  0  0  0
  152.8148  144.5577  159.9408 H   0  0  0  0  0  0  0  0  0  0  0  0
  151.3202  145.5927  157.8682 H   0  0  0  0  0  0  0  0  0  0  0  0
  152.9249  144.9211  157.5740 H   0  0  0  0  0  0  0  0  0  0  0  0
  152.0104  143.4237  156.3410 H   0  0  0  0  0  0  0  0  0  0  0  0
  150.4676  143.8692  156.7235 H   0  0  0  0  0  0  0  0  0  0  0  0
  1  2  1  0  0  0  0
  1 14  1  0  0  0  0
  1 15  1  0  0  0  0
  1 16  1  0  0  0  0
  2 13  2  0  0  0  0
  2  3  1  0  0  0  0
  3  4  2  0  0  0  0
  3 17  1  0  0  0  0
  4  5  1  0  0  0  0
  4  6  1  0  0  0  0
  5 18  1  0  0  0  0
  5 19  1  0  0  0  0
  5 20  1  0  0  0  0
  6  7  1  0  0  0  0
  6 13  1  0  0  0  0
  7  8  1  0  0  0  0
  7 21  1  0  0  0  0
  7 22  1  0  0  0  0
  8 12  1  0  0  0  0
  8  9  1  0  0  0  0
  8 23  1  0  0  0  0
  9 10  1  0  0  0  0
  9 24  1  0  0  0  0
  9 25  1  0  0  0  0
 10 11  1  0  0  0  0
 10 26  1  0  0  0  0
 10 27  1  0  0  0  0
 11 12  1  0  0  0  0
 11 28  1  0  0  0  0
 11 29  1  0  0  0  0
 12 30  1  0  0  0  0
 12 31  1  0  0  0  0
M  CHG  1  12   1
M  END
> <s_m_source_file>
AV-unprocessed.smi

> <i_m_source_file_index>
3307

> <i_lp_mmshare_version>
43012

> <i_f3d_flags>
0

> <s_epik_input>
W0NIM11jMVtjSF1jKFtDSDNdKW4objEpW0NIMl1bQ0BASF0yW0NIMl1bQ0gyXVtDSDJdW05IXTI=

> <s_epik_cmdline>
J2VwaWtfcHl0aG9uJywgJy1waCcsICc3LjAnLCAnLXRuJywgJzgnLCAnLW1hJywgJzIwMCcsICctbWV0YWxfYmluZGluZycsICctaW1hZScsICc8aW5maWxlLm1hZT4nLCAnLW9tYWUnLCAnPG91dGZpbGUubWFlPic=

> <r_lp_tautomer_probability>
1

> <r_epik_Ionization_Penalty>
0.000974324

> <r_epik_Ionization_Penalty_Charging>
0.000863359

> <r_epik_Ionization_Penalty_Neutral>
0.000110964

> <r_epik_State_Penalty>
-0

> <r_epik_Charging_Adjusted_Penalty>
0.000863359

> <i_epik_Tot_Q>
1

> <i_epik_Tot_abs_Q>
1

> <r_epik_Metal_State_Penalty>
-0

> <b_epik_Metal_Only>
0

> <s_lp_Force_Field>
OPLS_2005

> <r_lp_Energy>
22.7328

> <b_lp_Chiralities_Consistent>
1

> <s_lp_Variant>
AV-unprocessed.smi:3307-2

> <Gold.Version>
5.8.1

> <Gold.Id.Protein>
6NUR|6NUR_protein|mol2

> <Gold.PLP.Fitness>
39.4787

> <Gold.PLP.PLP>
-33.5157

> <Gold.PLP.part.hbond>
-1.0000

> <Gold.PLP.part.metal>
0.0000

> <Gold.PLP.part.buried>
-1.5435

> <Gold.PLP.part.nonpolar>
-30.3191

> <Gold.PLP.part.repulsive>
0.3383

> <Gold.PLP.ligand.clash>
0.0000

> <Gold.PLP.ligand.torsion>
0.0186

> <Gold.PLP.Chemscore.Hbond>
2.0000

> <Gold.PLP.Chemscore.CHOScore>
0.0000

> <Gold.PLP.Chemscore.Metal>
0.0000

> <Gold.Chemscore.Hbonds>
donor molecule, donor type, donor heavy atom, donor atom, acceptor molecule, acceptor atom, score
      L1  H    12    31       P1  8028  1.79

> <Gold.PLP.Chemscore.Internal.Correction>
0.0003

> <Gold.Rescore>
     Score         DG    S(hbond)    S(metal)    S(lipo)     H(rot)  DE(clash)    DE(int)     intcor
     13.72     -16.29       0.99        0.00      89.53       1.16       1.25       1.32       ----

> <Gold.Chemscore.Fitness>
13.7159

> <Gold.Chemscore.DG>
-16.2886

> <Gold.Chemscore.ZeroCoef>
-5.4800

> <Gold.Chemscore.Hbond>
0.9912

> <Gold.Chemscore.Metal>
0.0000

> <Gold.Chemscore.Lipo>
89.5271

> <Gold.Chemscore.Internal_Hbond>
0.0000

> <Gold.Chemscore.DEClash>
1.2481

> <Gold.Chemscore.DEInternal>
1.3245

> <Gold.Chemscore.Rot>
1.1628

> <Gold.Chemscore.Internal.Correction>
   9.000000E+99

> <Gold.Chemscore.Hbonds>
donor molecule, donor type, donor heavy atom, donor atom, acceptor molecule, acceptor atom, score
      L1  H    12    31       P1  8028  0.87

> <Gold.Chemscore.Hbond.Weighted>
-3.3107

> <Gold.Chemscore.Metal.Weighted>
-0.0000

> <Gold.Chemscore.Lipo.Weighted>
-10.4747

> <Gold.Chemscore.Internal_Hbond.Weighted>
0.0000

> <Gold.Chemscore.DEClash.Weighted>
1.2481

> <Gold.Chemscore.DEInternal.Weighted>
1.3245

> <Gold.Chemscore.Rot.Weighted>
2.9768

> <Gold.Chemscore.Internal.Correction.Weighted>
   9.000000E+99

> <Gold.Protein.RotatedTorsions>
[ 6907 6896 6895 6894 ] final  -30.67 input  -60.11 | X-H torsion
[ 7974 7965 7964 7962 ] final   39.61 input  175.53 | X-H torsion
[ 8008 7997 7996 7995 ] final   14.26 input   59.86 | X-H torsion
[ 10167 10162 10161 10158 ] final -144.59 input  -65.29 | X-H torsion
[ 10718 10713 10712 10709 ] final   -6.44 input   66.30 | X-H torsion
[ 10763 10752 10751 10750 ] final   -1.54 input  -60.55 | X-H torsion
[ 11005 11000 10999 10996 ] final  -37.32 input  -57.11 | X-H torsion

> <Gold.Protein.ActiveResidues>
 VAL166  LYS551  ARG553  GLY616  TRP617  ASP618  TYR619  PRO620  LYS621  CYS622 
 ASP623  PHE694  ASN695  SER759  ASP760  ASP761  ALA762  ILE779  LEU786  VAL792 
 PHE793  MET794  SER795  GLU796  ALA797  LYS798  CYS799  TRP800  GLU811  SER814 

> <Gold.Protein.RotatedAtoms>
  151.1025  134.9980  159.8455 H   0  0  0  0  0  0  0  0  0  0  0  0  # atno 6907 bound_to 6896
  152.5438  134.1933  159.8693 H   0  0  0  0  0  0  0  0  0  0  0  0  # atno 6908 bound_to 6896
  151.1977  133.4585  159.2629 H   0  0  0  0  0  0  0  0  0  0  0  0  # atno 6909 bound_to 6896
  146.0970  139.5630  142.9439 H   0  0  0  0  0  0  0  0  0  0  0  0  # atno 7974 bound_to 7965
  154.8460  140.2922  155.5629 H   0  0  0  0  0  0  0  0  0  0  0  0  # atno 8008 bound_to 7997
  156.3014  140.2505  156.3342 H   0  0  0  0  0  0  0  0  0  0  0  0  # atno 8009 bound_to 7997
  154.9073  140.0389  157.1916 H   0  0  0  0  0  0  0  0  0  0  0  0  # atno 8010 bound_to 7997
  139.7884  143.8000  152.2647 H   0  0  0  0  0  0  0  0  0  0  0  0  # atno 10167 bound_to 10162
  156.7319  130.5182  149.5843 H   0  0  0  0  0  0  0  0  0  0  0  0  # atno 10718 bound_to 10713
  153.3462  135.6983  153.6826 H   0  0  0  0  0  0  0  0  0  0  0  0  # atno 10763 bound_to 10752
  153.5571  135.3542  155.2784 H   0  0  0  0  0  0  0  0  0  0  0  0  # atno 10764 bound_to 10752
  154.8645  135.4240  154.2687 H   0  0  0  0  0  0  0  0  0  0  0  0  # atno 10765 bound_to 10752
  140.9943  133.6988  156.1906 H   0  0  0  0  0  0  0  0  0  0  0  0  # atno 11005 bound_to 11000
  145.5929  141.0367  143.2060 LP  0  0  0  0  0  0  0  0  0  0  0  0  # atno 17320 bound_to 7965
  144.7403  139.7468  143.7313 LP  0  0  0  0  0  0  0  0  0  0  0  0  # atno 17321 bound_to 7965
  139.8084  144.7346  150.9730 LP  0  0  0  0  0  0  0  0  0  0  0  0  # atno 17342 bound_to 10162
  140.7820  143.4275  151.0746 LP  0  0  0  0  0  0  0  0  0  0  0  0  # atno 17343 bound_to 10162
  156.1523  130.6318  151.0612 LP  0  0  0  0  0  0  0  0  0  0  0  0  # atno 17370 bound_to 10713
  157.6855  131.0826  150.7254 LP  0  0  0  0  0  0  0  0  0  0  0  0  # atno 17371 bound_to 10713
  140.6991  134.4584  157.5587 LP  0  0  0  0  0  0  0  0  0  0  0  0  # atno 17394 bound_to 11000
  139.9007  134.8563  156.1908 LP  0  0  0  0  0  0  0  0  0  0  0  0  # atno 17395 bound_to 11000

$$$$
