AV-unprocessed.smi:9|AV-procd|sdf|52|dock1
  -GOLD-   2262015173D 1   1.00000     0.00000
 Structure written by MMmdl.
 35 37  0  0  0  0  0  0  0  0  1 V2000
  145.2900  135.9700  150.6914 O   0  0  0  0  0  0  0  0  0  0  0  0
  145.5406  136.4280  151.8041 C   0  0  0  0  0  0  0  0  0  0  0  0
  145.2156  135.8057  152.9634 N   0  0  0  0  0  0  0  0  0  0  0  0
  145.5092  136.3383  154.2449 C   0  0  0  0  0  0  0  0  0  0  0  0
  145.0224  135.4127  155.3488 C   0  0  0  0  0  0  0  0  0  0  0  0
  145.6157  134.2204  155.2747 F   0  0  0  0  0  0  0  0  0  0  0  0
  145.2898  135.9351  156.5461 F   0  0  0  0  0  0  0  0  0  0  0  0
  143.7055  135.2259  155.2547 F   0  0  0  0  0  0  0  0  0  0  0  0
  146.1163  137.4722  154.4851 N   0  0  0  0  0  0  0  0  0  0  0  0
  146.4516  138.1248  153.3156 C   0  0  0  0  0  0  0  0  0  0  0  0
  146.2314  137.7227  152.0240 C   0  0  0  0  0  0  0  0  0  0  0  0
  146.7242  138.6507  151.1150 N   0  0  0  0  0  0  0  0  0  0  0  0
  147.2269  139.5900  151.9136 C   0  0  0  0  0  0  0  0  0  0  0  0
  147.0942  139.3558  153.2338 N   0  0  0  0  0  0  0  0  0  0  0  0
  147.5459  140.2072  154.3259 C   0  0  0  0  0  0  0  0  0  0  0  0
  149.0845  140.3828  154.4051 C   0  0  2  0  0  0  0  0  0  0  0  0
  149.4950  141.0546  153.2284 O   0  0  0  0  0  0  0  0  0  0  0  0
  149.8204  139.0277  154.5008 C   0  0  0  0  0  0  0  0  0  0  0  0
  151.3025  139.2086  154.8439 C   0  0  0  0  0  0  0  0  0  0  0  0
  151.4536  140.0982  156.0826 C   0  0  0  0  0  0  0  0  0  0  0  0
  150.8519  141.3593  155.8252 O   0  0  0  0  0  0  0  0  0  0  0  0
  149.4453  141.2939  155.6027 C   0  0  0  0  0  0  0  0  0  0  0  0
  144.7409  134.9164  152.9057 H   0  0  0  0  0  0  0  0  0  0  0  0
  147.7012  140.4802  151.5268 H   0  0  0  0  0  0  0  0  0  0  0  0
  147.0567  141.1777  154.2312 H   0  0  0  0  0  0  0  0  0  0  0  0
  147.1758  139.7760  155.2571 H   0  0  0  0  0  0  0  0  0  0  0  0
  149.3053  140.4994  152.4875 H   0  0  0  0  0  0  0  0  0  0  0  0
  149.3559  138.4228  155.2808 H   0  0  0  0  0  0  0  0  0  0  0  0
  149.7230  138.4613  153.5740 H   0  0  0  0  0  0  0  0  0  0  0  0
  151.7675  138.2378  155.0177 H   0  0  0  0  0  0  0  0  0  0  0  0
  151.8280  139.6602  154.0019 H   0  0  0  0  0  0  0  0  0  0  0  0
  151.0025  139.6336  156.9608 H   0  0  0  0  0  0  0  0  0  0  0  0
  152.5092  140.2510  156.3077 H   0  0  0  0  0  0  0  0  0  0  0  0
  149.0640  142.3043  155.4485 H   0  0  0  0  0  0  0  0  0  0  0  0
  148.9721  140.9231  156.5134 H   0  0  0  0  0  0  0  0  0  0  0  0
  1  2  2  0  0  0  0
  2 11  1  0  0  0  0
  2  3  1  0  0  0  0
  3 23  1  0  0  0  0
  3  4  1  0  0  0  0
  4  5  1  0  0  0  0
  4  9  2  0  0  0  0
  5  6  1  0  0  0  0
  5  7  1  0  0  0  0
  5  8  1  0  0  0  0
  9 10  1  0  0  0  0
 10 14  1  0  0  0  0
 10 11  2  0  0  0  0
 11 12  1  0  0  0  0
 12 13  2  0  0  0  0
 13 14  1  0  0  0  0
 13 24  1  0  0  0  0
 14 15  1  0  0  0  0
 15 16  1  0  0  0  0
 15 25  1  0  0  0  0
 15 26  1  0  0  0  0
 16 22  1  0  0  0  0
 16 17  1  0  0  0  0
 16 18  1  0  0  0  0
 17 27  1  0  0  0  0
 18 19  1  0  0  0  0
 18 28  1  0  0  0  0
 18 29  1  0  0  0  0
 19 20  1  0  0  0  0
 19 30  1  0  0  0  0
 19 31  1  0  0  0  0
 20 21  1  0  0  0  0
 20 32  1  0  0  0  0
 20 33  1  0  0  0  0
 21 22  1  0  0  0  0
 22 34  1  0  0  0  0
 22 35  1  0  0  0  0
M  END
> <s_m_source_file>
AV-unprocessed.smi

> <i_m_source_file_index>
9

> <i_lp_mmshare_version>
43012

> <i_f3d_flags>
0

> <s_epik_input>
RkMoRikoRiljKG4xKVtuSF1jKD1PKWMoYzEyKW5bY0hdbjJbQ0gyXVtDQEBdMyhbT0hdKVtDSDJdW0NIMl1bQ0gyXU9bQ0gyXTM=

> <s_epik_cmdline>
J2VwaWtfcHl0aG9uJywgJy1waCcsICc3LjAnLCAnLXRuJywgJzgnLCAnLW1hJywgJzIwMCcsICctbWV0YWxfYmluZGluZycsICctaW1hZScsICc8aW5maWxlLm1hZT4nLCAnLW9tYWUnLCAnPG91dGZpbGUubWFlPic=

> <r_lp_tautomer_probability>
0.85571

> <r_epik_Ionization_Penalty>
0.770127

> <r_epik_Ionization_Penalty_Charging>
0.770101

> <r_epik_Ionization_Penalty_Neutral>
2.64604e-05

> <r_epik_State_Penalty>
2.30539

> <r_epik_Charging_Adjusted_Penalty>
3.07549

> <i_epik_Tot_Q>
0

> <i_epik_Tot_abs_Q>
0

> <r_epik_Metal_State_Penalty>
2.4903

> <b_epik_Metal_Only>
0

> <s_lp_Force_Field>
OPLS_2005

> <r_lp_Energy>
27.1686

> <b_lp_Chiralities_Consistent>
1

> <s_lp_Variant>
AV-unprocessed.smi:9-4

> <Gold.Version>
5.8.1

> <Gold.Id.Protein>
6NUR|6NUR_protein|mol2

> <Gold.PLP.Fitness>
38.7986

> <Gold.PLP.PLP>
-29.7169

> <Gold.PLP.part.hbond>
-3.7270

> <Gold.PLP.part.metal>
0.0000

> <Gold.PLP.part.buried>
0.7257

> <Gold.PLP.part.nonpolar>
-27.6892

> <Gold.PLP.part.repulsive>
1.1570

> <Gold.PLP.ligand.clash>
0.0000

> <Gold.PLP.ligand.torsion>
0.0318

> <Gold.PLP.Chemscore.Hbond>
2.5818

> <Gold.PLP.Chemscore.CHOScore>
0.4621

> <Gold.PLP.Chemscore.Metal>
0.0000

> <Gold.Chemscore.Hbonds>
donor molecule, donor type, donor heavy atom, donor atom, acceptor molecule, acceptor atom, score
      L1  H    17    27       P1  7957  0.76
      P1  H  7954  7966       L1    12  0.98
      P1  H  7989  7998       L1    17  0.11
      P1  H  8011  8017       L1    17  0.75
      L1  C    13    24       P1  7957  0.45

> <Gold.PLP.Chemscore.Internal.Correction>
0.0133

> <Gold.Rescore>
     Score         DG    S(hbond)    S(metal)    S(lipo)     H(rot)  DE(clash)    DE(int)     intcor
      7.69     -10.86       1.69        0.00      44.45       2.14       2.04       1.13       ----

> <Gold.Chemscore.Fitness>
7.6929

> <Gold.Chemscore.DG>
-10.8649

> <Gold.Chemscore.ZeroCoef>
-5.4800

> <Gold.Chemscore.Hbond>
1.6933

> <Gold.Chemscore.Metal>
0.0000

> <Gold.Chemscore.Lipo>
44.4498

> <Gold.Chemscore.Internal_Hbond>
0.0000

> <Gold.Chemscore.DEClash>
2.0383

> <Gold.Chemscore.DEInternal>
1.1338

> <Gold.Chemscore.Rot>
2.1373

> <Gold.Chemscore.Internal.Correction>
   9.000000E+99

> <Gold.Chemscore.Hbonds>
donor molecule, donor type, donor heavy atom, donor atom, acceptor molecule, acceptor atom, score
      L1  H    17    27       P1  7957  0.71
      P1  H  7954  7966       L1    12  0.58
      P1  H  7989  7998       L1    17  0.01
      P1  H  8011  8017       L1    17  0.09

> <Gold.Chemscore.Hbond.Weighted>
-5.6557

> <Gold.Chemscore.Metal.Weighted>
-0.0000

> <Gold.Chemscore.Lipo.Weighted>
-5.2006

> <Gold.Chemscore.Internal_Hbond.Weighted>
0.0000

> <Gold.Chemscore.DEClash.Weighted>
2.0383

> <Gold.Chemscore.DEInternal.Weighted>
1.1338

> <Gold.Chemscore.Rot.Weighted>
5.4714

> <Gold.Chemscore.Internal.Correction.Weighted>
   9.000000E+99

> <Gold.Protein.RotatedTorsions>
[ 6907 6896 6895 6894 ] final -157.71 input  -60.11 | X-H torsion
[ 7974 7965 7964 7962 ] final    5.72 input  175.53 | X-H torsion
[ 8008 7997 7996 7995 ] final  -52.54 input   59.86 | X-H torsion
[ 10167 10162 10161 10158 ] final  -92.02 input  -65.29 | X-H torsion
[ 10718 10713 10712 10709 ] final   92.49 input   66.30 | X-H torsion
[ 10763 10752 10751 10750 ] final  -87.21 input  -60.55 | X-H torsion
[ 11005 11000 10999 10996 ] final  -98.48 input  -57.11 | X-H torsion

> <Gold.Protein.ActiveResidues>
 VAL166  LYS551  ARG553  GLY616  TRP617  ASP618  TYR619  PRO620  LYS621  CYS622 
 ASP623  PHE694  ASN695  SER759  ASP760  ASP761  ALA762  ILE779  LEU786  VAL792 
 PHE793  MET794  SER795  GLU796  ALA797  LYS798  CYS799  TRP800  GLU811  SER814 

> <Gold.Protein.RotatedAtoms>
  151.3070  133.4097  159.2643 H   0  0  0  0  0  0  0  0  0  0  0  0  # atno 6907 bound_to 6896
  151.0147  134.9424  159.8037 H   0  0  0  0  0  0  0  0  0  0  0  0  # atno 6908 bound_to 6896
  152.5309  134.3034  159.9139 H   0  0  0  0  0  0  0  0  0  0  0  0  # atno 6909 bound_to 6896
  146.2439  140.0341  142.8387 H   0  0  0  0  0  0  0  0  0  0  0  0  # atno 7974 bound_to 7965
  154.4109  140.1221  156.5008 H   0  0  0  0  0  0  0  0  0  0  0  0  # atno 8008 bound_to 7997
  155.6896  140.3495  155.4869 H   0  0  0  0  0  0  0  0  0  0  0  0  # atno 8009 bound_to 7997
  155.9480  140.1099  157.0990 H   0  0  0  0  0  0  0  0  0  0  0  0  # atno 8010 bound_to 7997
  140.3390  143.2952  151.9857 H   0  0  0  0  0  0  0  0  0  0  0  0  # atno 10167 bound_to 10162
  157.6958  131.0445  150.3890 H   0  0  0  0  0  0  0  0  0  0  0  0  # atno 10718 bound_to 10713
  154.6310  135.5421  153.7681 H   0  0  0  0  0  0  0  0  0  0  0  0  # atno 10763 bound_to 10752
  153.0285  135.6436  154.1300 H   0  0  0  0  0  0  0  0  0  0  0  0  # atno 10764 bound_to 10752
  154.1230  135.2919  155.3184 H   0  0  0  0  0  0  0  0  0  0  0  0  # atno 10765 bound_to 10752
  141.1343  133.8248  157.0845 H   0  0  0  0  0  0  0  0  0  0  0  0  # atno 11005 bound_to 11000
  145.1128  140.9415  143.4646 LP  0  0  0  0  0  0  0  0  0  0  0  0  # atno 17320 bound_to 7965
  145.0559  139.3144  143.5905 LP  0  0  0  0  0  0  0  0  0  0  0  0  # atno 17321 bound_to 7965
  139.4843  144.6172  151.7323 LP  0  0  0  0  0  0  0  0  0  0  0  0  # atno 17342 bound_to 10162
  140.5327  144.0705  150.6059 LP  0  0  0  0  0  0  0  0  0  0  0  0  # atno 17343 bound_to 10162
  156.4296  130.3969  149.6769 LP  0  0  0  0  0  0  0  0  0  0  0  0  # atno 17370 bound_to 10713
  156.3992  130.7666  151.2672 LP  0  0  0  0  0  0  0  0  0  0  0  0  # atno 17371 bound_to 10713
  140.0431  134.9844  157.0998 LP  0  0  0  0  0  0  0  0  0  0  0  0  # atno 17394 bound_to 11000
  140.4105  134.1986  155.7163 LP  0  0  0  0  0  0  0  0  0  0  0  0  # atno 17395 bound_to 11000

$$$$
