AV-unprocessed.smi:283|AV-procd|sdf|2149|dock4
  -GOLD-   2262021483D 1   1.00000     0.00000
 Structure written by MMmdl.
 48 51  0  0  0  0  0  0  0  0  1 V2000
  151.3386  140.2503  156.0986 C   0  0  0  0  0  0  0  0  0  0  0  0
  150.3844  141.1909  156.8463 C   0  0  2  0  0  0  0  0  0  0  0  0
  149.5884  141.9588  155.8905 N   0  0  0  0  0  0  0  0  0  0  0  0
  148.5568  141.3821  155.2338 C   0  0  0  0  0  0  0  0  0  0  0  0
  147.8963  142.0426  154.2473 N   0  0  0  0  0  0  0  0  0  0  0  0
  146.8795  141.4518  153.6138 C   0  0  0  0  0  0  0  0  0  0  0  0
  146.3712  140.2338  153.8087 N   0  0  0  0  0  0  0  0  0  0  0  0
  147.0262  139.5660  154.8031 C   0  0  0  0  0  0  0  0  0  0  0  0
  148.1229  140.0706  155.5569 C   0  0  0  0  0  0  0  0  0  0  0  0
  148.5422  139.1191  156.4767 N   0  0  0  0  0  0  0  0  0  0  0  0
  147.7348  138.1124  156.2774 C   0  0  0  0  0  0  0  0  0  0  0  0
  146.7891  138.2955  155.2926 N   0  0  0  0  0  0  0  0  0  0  0  0
  145.7314  137.3241  154.8626 C   0  0  2  0  0  0  0  0  0  0  0  0
  145.7341  136.2427  155.7430 O   0  0  0  0  0  0  0  0  0  0  0  0
  145.5719  135.0293  155.0169 C   0  0  2  0  0  0  0  0  0  0  0  0
  146.0957  133.8274  155.8230 C   0  0  0  0  0  0  0  0  0  0  0  0
  145.8945  132.6308  155.1011 O   0  0  0  0  0  0  0  0  0  0  0  0
  146.2908  135.3021  153.6872 C   0  0  2  0  0  0  0  0  0  0  0  0
  147.6836  135.0557  153.7854 O   0  0  0  0  0  0  0  0  0  0  0  0
  145.9670  136.7728  153.4403 C   0  0  2  0  0  0  0  0  0  0  0  0
  146.9450  137.4506  152.6679 O   0  0  0  0  0  0  0  0  0  0  0  0
  151.1562  142.0537  157.8471 C   0  0  0  0  0  0  0  0  0  0  0  0
  151.1012  143.4629  157.7406 C   0  0  0  0  0  0  0  0  0  0  0  0
  151.8001  144.2798  158.6487 C   0  0  0  0  0  0  0  0  0  0  0  0
  152.5670  143.6952  159.6725 C   0  0  0  0  0  0  0  0  0  0  0  0
  152.6372  142.2941  159.7821 C   0  0  0  0  0  0  0  0  0  0  0  0
  151.9401  141.4709  158.8748 C   0  0  0  0  0  0  0  0  0  0  0  0
  152.0740  139.7562  159.0520 Cl  0  0  0  0  0  0  0  0  0  0  0  0
  144.7995  137.8840  154.9490 H   0  0  0  0  0  0  0  0  0  0  0  0
  144.5089  134.9017  154.8024 H   0  0  0  0  0  0  0  0  0  0  0  0
  145.9007  134.6696  152.8892 H   0  0  0  0  0  0  0  0  0  0  0  0
  145.0136  136.8370  152.9139 H   0  0  0  0  0  0  0  0  0  0  0  0
  151.8854  139.6142  156.7952 H   0  0  0  0  0  0  0  0  0  0  0  0
  152.0695  140.8079  155.5118 H   0  0  0  0  0  0  0  0  0  0  0  0
  150.7925  139.5970  155.4174 H   0  0  0  0  0  0  0  0  0  0  0  0
  149.6791  140.5616  157.3875 H   0  0  0  0  0  0  0  0  0  0  0  0
  149.7252  142.9590  155.9138 H   0  0  0  0  0  0  0  0  0  0  0  0
  146.4047  142.0390  152.8418 H   0  0  0  0  0  0  0  0  0  0  0  0
  147.8018  137.2014  156.8539 H   0  0  0  0  0  0  0  0  0  0  0  0
  147.1685  133.9265  155.9922 H   0  0  0  0  0  0  0  0  0  0  0  0
  145.6154  133.7642  156.8001 H   0  0  0  0  0  0  0  0  0  0  0  0
  146.5093  131.9838  155.4113 H   0  0  0  0  0  0  0  0  0  0  0  0
  148.1430  135.6985  153.2672 H   0  0  0  0  0  0  0  0  0  0  0  0
  147.5167  136.8079  152.2772 H   0  0  0  0  0  0  0  0  0  0  0  0
  150.5183  143.9266  156.9581 H   0  0  0  0  0  0  0  0  0  0  0  0
  151.7477  145.3548  158.5589 H   0  0  0  0  0  0  0  0  0  0  0  0
  153.1034  144.3202  160.3711 H   0  0  0  0  0  0  0  0  0  0  0  0
  153.2309  141.8489  160.5668 H   0  0  0  0  0  0  0  0  0  0  0  0
  1  2  1  0  0  0  0
  1 33  1  0  0  0  0
  1 34  1  0  0  0  0
  1 35  1  0  0  0  0
  2  3  1  0  0  0  0
  2 22  1  0  0  0  0
  2 36  1  0  0  0  0
  3  4  1  0  0  0  0
  3 37  1  0  0  0  0
  4  9  1  0  0  0  0
  4  5  2  0  0  0  0
  5  6  1  0  0  0  0
  6  7  2  0  0  0  0
  6 38  1  0  0  0  0
  7  8  1  0  0  0  0
  8 12  1  0  0  0  0
  8  9  2  0  0  0  0
  9 10  1  0  0  0  0
 10 11  2  0  0  0  0
 11 12  1  0  0  0  0
 11 39  1  0  0  0  0
 12 13  1  0  0  0  0
 13 29  1  0  0  0  0
 13 20  1  0  0  0  0
 13 14  1  0  0  0  0
 14 15  1  0  0  0  0
 15 30  1  0  0  0  0
 15 16  1  0  0  0  0
 15 18  1  0  0  0  0
 16 17  1  0  0  0  0
 16 40  1  0  0  0  0
 16 41  1  0  0  0  0
 17 42  1  0  0  0  0
 18 31  1  0  0  0  0
 18 19  1  0  0  0  0
 18 20  1  0  0  0  0
 19 43  1  0  0  0  0
 20 32  1  0  0  0  0
 20 21  1  0  0  0  0
 21 44  1  0  0  0  0
 22 27  1  0  0  0  0
 22 23  2  0  0  0  0
 23 24  1  0  0  0  0
 23 45  1  0  0  0  0
 24 25  2  0  0  0  0
 24 46  1  0  0  0  0
 25 26  1  0  0  0  0
 25 47  1  0  0  0  0
 26 27  2  0  0  0  0
 26 48  1  0  0  0  0
 27 28  1  0  0  0  0
M  END
> <s_m_source_file>
AV-unprocessed.smi

> <i_m_source_file_index>
283

> <i_lp_mmshare_version>
43012

> <i_f3d_flags>
0

> <s_epik_input>
Q2xjMVtjSF1bY0hdW2NIXVtjSF1jMVtDQEhdKFtDSDNdKVtOSF1jKG5bY0hdbjIpYyhjMjMpbltjSF1uM1tDQEBIXTRPW0NASF0oW0NIMl1bT0hdKVtDQEBIXShbT0hdKVtDQEhdNFtPSF0=

> <s_epik_cmdline>
J2VwaWtfcHl0aG9uJywgJy1waCcsICc3LjAnLCAnLXRuJywgJzgnLCAnLW1hJywgJzIwMCcsICctbWV0YWxfYmluZGluZycsICctaW1hZScsICc8aW5maWxlLm1hZT4nLCAnLW9tYWUnLCAnPG91dGZpbGUubWFlPic=

> <r_lp_tautomer_probability>
1

> <r_epik_Ionization_Penalty>
0.000266407

> <r_epik_Ionization_Penalty_Charging>
0

> <r_epik_Ionization_Penalty_Neutral>
0.000266407

> <r_epik_State_Penalty>
-0

> <r_epik_Charging_Adjusted_Penalty>
0

> <i_epik_Tot_Q>
0

> <i_epik_Tot_abs_Q>
0

> <r_epik_Metal_State_Penalty>
-0

> <b_epik_Metal_Only>
0

> <s_epik_Chemistry_Notes>
This compound contains an acetal/aminal-like group ( X-CH(R)-Y where X, Y are N, S, or O) that may be acid/base labile, releasing an aldehyde.

> <s_lp_Force_Field>
OPLS_2005

> <r_lp_Energy>
56.6736

> <b_lp_Chiralities_Consistent>
1

> <s_lp_Variant>
AV-unprocessed.smi:283-25

> <Gold.Version>
5.8.1

> <Gold.Id.Protein>
6NUR|6NUR_protein|mol2

> <Gold.PLP.Fitness>
46.3092

> <Gold.PLP.PLP>
-38.7211

> <Gold.PLP.part.hbond>
-4.6236

> <Gold.PLP.part.metal>
0.0000

> <Gold.PLP.part.buried>
-7.3588

> <Gold.PLP.part.nonpolar>
-29.7975

> <Gold.PLP.part.repulsive>
1.3971

> <Gold.PLP.ligand.clash>
0.0000

> <Gold.PLP.ligand.torsion>
0.4025

> <Gold.PLP.Chemscore.Hbond>
2.7558

> <Gold.PLP.Chemscore.CHOScore>
0.0000

> <Gold.PLP.Chemscore.Metal>
0.0000

> <Gold.Chemscore.Hbonds>
donor molecule, donor type, donor heavy atom, donor atom, acceptor molecule, acceptor atom, score
      L1  H     3    37       P1  8028  0.91
      L1  H    19    43       P1  7948  1.00
      L1  H    21    44       P1  7948  1.00

> <Gold.PLP.Chemscore.Internal.Correction>
0.1258

> <Gold.Rescore>
     Score         DG    S(hbond)    S(metal)    S(lipo)     H(rot)  DE(clash)    DE(int)     intcor
     12.31     -15.29       2.72        0.00      95.75       4.10       0.17       2.81       ----

> <Gold.Chemscore.Fitness>
12.3134

> <Gold.Chemscore.DG>
-15.2867

> <Gold.Chemscore.ZeroCoef>
-5.4800

> <Gold.Chemscore.Hbond>
2.7222

> <Gold.Chemscore.Metal>
0.0000

> <Gold.Chemscore.Lipo>
95.7479

> <Gold.Chemscore.Internal_Hbond>
0.0000

> <Gold.Chemscore.DEClash>
0.1673

> <Gold.Chemscore.DEInternal>
2.8060

> <Gold.Chemscore.Rot>
4.0968

> <Gold.Chemscore.Internal.Correction>
   9.000000E+99

> <Gold.Chemscore.Hbonds>
donor molecule, donor type, donor heavy atom, donor atom, acceptor molecule, acceptor atom, score
      L1  H     3    37       P1  8028  0.88
      L1  H    19    43       P1  7948  0.96
      L1  H    21    44       P1  7948  0.96

> <Gold.Chemscore.Hbond.Weighted>
-9.0921

> <Gold.Chemscore.Metal.Weighted>
-0.0000

> <Gold.Chemscore.Lipo.Weighted>
-11.2025

> <Gold.Chemscore.Internal_Hbond.Weighted>
0.0000

> <Gold.Chemscore.DEClash.Weighted>
0.1673

> <Gold.Chemscore.DEInternal.Weighted>
2.8060

> <Gold.Chemscore.Rot.Weighted>
10.4879

> <Gold.Chemscore.Internal.Correction.Weighted>
   9.000000E+99

> <Gold.Protein.RotatedTorsions>
[ 6907 6896 6895 6894 ] final  124.09 input  -60.11 | X-H torsion
[ 7974 7965 7964 7962 ] final   60.62 input  175.53 | X-H torsion
[ 8008 7997 7996 7995 ] final -107.81 input   59.86 | X-H torsion
[ 10167 10162 10161 10158 ] final    3.54 input  -65.29 | X-H torsion
[ 10718 10713 10712 10709 ] final  162.33 input   66.30 | X-H torsion
[ 10763 10752 10751 10750 ] final  -79.44 input  -60.55 | X-H torsion
[ 11005 11000 10999 10996 ] final  148.46 input  -57.11 | X-H torsion

> <Gold.Protein.ActiveResidues>
 VAL166  LYS551  ARG553  GLY616  TRP617  ASP618  TYR619  PRO620  LYS621  CYS622 
 ASP623  PHE694  ASN695  SER759  ASP760  ASP761  ALA762  ILE779  LEU786  VAL792 
 PHE793  MET794  SER795  GLU796  ALA797  LYS798  CYS799  TRP800  GLU811  SER814 

> <Gold.Protein.RotatedAtoms>
  152.4107  133.6959  159.6395 H   0  0  0  0  0  0  0  0  0  0  0  0  # atno 6907 bound_to 6896
  150.7988  133.8629  159.3245 H   0  0  0  0  0  0  0  0  0  0  0  0  # atno 6908 bound_to 6896
  151.6371  135.1018  160.0185 H   0  0  0  0  0  0  0  0  0  0  0  0  # atno 6909 bound_to 6896
  145.8939  139.3531  143.0632 H   0  0  0  0  0  0  0  0  0  0  0  0  # atno 7974 bound_to 7965
  154.9349  140.0404  157.2067 H   0  0  0  0  0  0  0  0  0  0  0  0  # atno 8008 bound_to 7997
  154.8125  140.2870  155.5822 H   0  0  0  0  0  0  0  0  0  0  0  0  # atno 8009 bound_to 7997
  156.2973  140.2534  156.3016 H   0  0  0  0  0  0  0  0  0  0  0  0  # atno 8010 bound_to 7997
  140.6580  143.7376  150.7688 H   0  0  0  0  0  0  0  0  0  0  0  0  # atno 10167 bound_to 10162
  157.1241  131.0500  151.2401 H   0  0  0  0  0  0  0  0  0  0  0  0  # atno 10718 bound_to 10713
  154.5386  135.5695  153.6820 H   0  0  0  0  0  0  0  0  0  0  0  0  # atno 10763 bound_to 10752
  152.9957  135.6222  154.2532 H   0  0  0  0  0  0  0  0  0  0  0  0  # atno 10764 bound_to 10752
  154.2462  135.2860  155.2814 H   0  0  0  0  0  0  0  0  0  0  0  0  # atno 10765 bound_to 10752
  140.0962  134.9011  157.1726 H   0  0  0  0  0  0  0  0  0  0  0  0  # atno 11005 bound_to 11000
  145.8874  140.9325  143.0570 LP  0  0  0  0  0  0  0  0  0  0  0  0  # atno 17320 bound_to 7965
  144.6732  140.0860  143.7467 LP  0  0  0  0  0  0  0  0  0  0  0  0  # atno 17321 bound_to 7965
  140.1040  143.4761  152.2409 LP  0  0  0  0  0  0  0  0  0  0  0  0  # atno 17342 bound_to 10162
  139.5807  144.7509  151.3647 LP  0  0  0  0  0  0  0  0  0  0  0  0  # atno 17343 bound_to 10162
  157.4450  130.7566  149.7102 LP  0  0  0  0  0  0  0  0  0  0  0  0  # atno 17370 bound_to 10713
  155.9822  130.4012  150.3430 LP  0  0  0  0  0  0  0  0  0  0  0  0  # atno 17371 bound_to 10713
  140.3283  134.2838  155.7233 LP  0  0  0  0  0  0  0  0  0  0  0  0  # atno 17394 bound_to 11000
  141.2092  133.7754  157.0008 LP  0  0  0  0  0  0  0  0  0  0  0  0  # atno 17395 bound_to 11000

$$$$
