AV-unprocessed.smi:45|AV-procd|sdf|413|dock3
  -GOLD-   2262016283D 1   1.00000     0.00000
 Structure written by MMmdl.
 59 62  0  0  0  0  0  0  0  0  2 V2000
  152.6381  143.7309  162.3755 C   0  0  0  0  0  0  0  0  0  0  0  0
  153.4419  142.6835  161.8533 O   0  0  0  0  0  0  0  0  0  0  0  0
  153.1152  142.1659  160.6171 C   0  0  0  0  0  0  0  0  0  0  0  0
  152.4166  142.8910  159.6192 C   0  0  0  0  0  0  0  0  0  0  0  0
  152.1389  142.3034  158.3706 C   0  0  0  0  0  0  0  0  0  0  0  0
  152.5497  140.9847  158.0958 C   0  0  0  0  0  0  0  0  0  0  0  0
  152.2735  140.3843  156.7231 C   0  0  0  0  0  0  0  0  0  0  0  0
  151.5790  139.1008  156.7189 N   0  0  0  0  0  0  0  0  0  0  0  0
  150.1850  139.0868  156.9039 C   0  0  0  0  0  0  0  0  0  0  0  0
  149.4548  140.0338  156.2671 N   0  0  0  0  0  0  0  0  0  0  0  0
  148.1276  139.9774  156.3896 C   0  0  0  0  0  0  0  0  0  0  0  0
  147.4151  140.9055  155.6501 N   0  0  0  0  0  0  0  0  0  0  0  0
  145.9891  141.0618  155.9137 C   0  0  0  0  0  0  0  0  0  0  0  0
  145.3385  141.5053  154.5963 C   0  0  0  0  0  0  0  0  0  0  0  0
  146.5180  141.8767  153.7017 C   0  0  0  0  0  0  0  0  0  0  0  0
  147.6156  140.9410  154.2069 C   0  0  1  0  0  0  0  0  0  0  0  0
  149.0430  141.3627  153.8103 C   0  0  0  0  0  0  0  0  0  0  0  0
  149.5089  140.5745  152.7363 O   0  0  0  0  0  0  0  0  0  0  0  0
  147.4320  139.0852  157.1005 N   0  0  0  0  0  0  0  0  0  0  0  0
  148.1433  138.1384  157.7495 C   0  0  0  0  0  0  0  0  0  0  0  0
  149.5545  138.0789  157.6812 C   0  0  0  0  0  0  0  0  0  0  0  0
  150.3238  136.9976  158.3888 C   0  0  0  0  0  0  0  0  0  0  0  0
  151.5508  136.9599  158.2445 O   0  0  0  0  0  0  0  0  0  0  0  0
  149.4960  136.1594  159.0719 N   0  5  0  0  0  0  0  0  0  0  0  0
  148.6586  135.1432  158.4331 C   0  0  0  0  0  0  0  0  0  0  0  0
  149.3594  134.4824  157.2503 C   0  0  0  0  0  0  0  0  0  0  0  0
  150.4274  133.7241  157.5261 N   0  0  0  0  0  0  0  0  0  0  0  0
  151.0282  133.1070  156.4859 C   0  0  0  0  0  0  0  0  0  0  0  0
  150.5590  133.2524  155.1652 C   0  0  0  0  0  0  0  0  0  0  0  0
  149.4314  134.0795  154.9932 C   0  0  0  0  0  0  0  0  0  0  0  0
  148.8348  134.6952  156.0366 N   0  0  0  0  0  0  0  0  0  0  0  0
  153.2200  140.2474  159.0952 C   0  0  0  0  0  0  0  0  0  0  0  0
  153.5077  140.8373  160.3411 C   0  0  0  0  0  0  0  0  0  0  0  0
  154.3621  139.9211  161.5294 Cl  0  0  0  0  0  0  0  0  0  0  0  0
  147.4250  139.9376  153.8219 H   0  0  0  0  0  0  0  0  0  0  0  0
  153.0462  144.0531  163.3333 H   0  0  0  0  0  0  0  0  0  0  0  0
  151.6137  143.3986  162.5487 H   0  0  0  0  0  0  0  0  0  0  0  0
  152.6313  144.5970  161.7124 H   0  0  0  0  0  0  0  0  0  0  0  0
  152.0927  143.9075  159.7813 H   0  0  0  0  0  0  0  0  0  0  0  0
  151.6208  142.8771  157.6161 H   0  0  0  0  0  0  0  0  0  0  0  0
  151.6711  141.0951  156.1577 H   0  0  0  0  0  0  0  0  0  0  0  0
  153.2113  140.2729  156.1773 H   0  0  0  0  0  0  0  0  0  0  0  0
  151.9287  138.4209  156.0580 H   0  0  0  0  0  0  0  0  0  0  0  0
  145.5358  140.1434  156.2886 H   0  0  0  0  0  0  0  0  0  0  0  0
  145.8629  141.8291  156.6778 H   0  0  0  0  0  0  0  0  0  0  0  0
  144.7953  140.6672  154.1579 H   0  0  0  0  0  0  0  0  0  0  0  0
  144.6354  142.3279  154.7288 H   0  0  0  0  0  0  0  0  0  0  0  0
  146.3030  141.7474  152.6406 H   0  0  0  0  0  0  0  0  0  0  0  0
  146.7983  142.9180  153.8683 H   0  0  0  0  0  0  0  0  0  0  0  0
  149.0765  142.4156  153.5289 H   0  0  0  0  0  0  0  0  0  0  0  0
  149.7315  141.2284  154.6450 H   0  0  0  0  0  0  0  0  0  0  0  0
  150.2548  140.0760  153.0336 H   0  0  0  0  0  0  0  0  0  0  0  0
  147.5747  137.4184  158.3201 H   0  0  0  0  0  0  0  0  0  0  0  0
  148.3468  134.3686  159.1364 H   0  0  0  0  0  0  0  0  0  0  0  0
  147.7257  135.5792  158.0734 H   0  0  0  0  0  0  0  0  0  0  0  0
  151.8867  132.4912  156.7091 H   0  0  0  0  0  0  0  0  0  0  0  0
  151.0366  132.7587  154.3324 H   0  0  0  0  0  0  0  0  0  0  0  0
  149.0062  134.2479  154.0150 H   0  0  0  0  0  0  0  0  0  0  0  0
  153.5366  139.2319  158.9036 H   0  0  0  0  0  0  0  0  0  0  0  0
  1  2  1  0  0  0  0
  1 36  1  0  0  0  0
  1 37  1  0  0  0  0
  1 38  1  0  0  0  0
  2  3  1  0  0  0  0
  3 33  1  0  0  0  0
  3  4  2  0  0  0  0
  4  5  1  0  0  0  0
  4 39  1  0  0  0  0
  5  6  2  0  0  0  0
  5 40  1  0  0  0  0
  6  7  1  0  0  0  0
  6 32  1  0  0  0  0
  7  8  1  0  0  0  0
  7 41  1  0  0  0  0
  7 42  1  0  0  0  0
  8  9  1  0  0  0  0
  8 43  1  0  0  0  0
  9 21  1  0  0  0  0
  9 10  2  0  0  0  0
 10 11  1  0  0  0  0
 11 12  1  0  0  0  0
 11 19  2  0  0  0  0
 12 16  1  0  0  0  0
 12 13  1  0  0  0  0
 13 14  1  0  0  0  0
 13 44  1  0  0  0  0
 13 45  1  0  0  0  0
 14 15  1  0  0  0  0
 14 46  1  0  0  0  0
 14 47  1  0  0  0  0
 15 16  1  0  0  0  0
 15 48  1  0  0  0  0
 15 49  1  0  0  0  0
 16 35  1  0  0  0  0
 16 17  1  0  0  0  0
 17 18  1  0  0  0  0
 17 50  1  0  0  0  0
 17 51  1  0  0  0  0
 18 52  1  0  0  0  0
 19 20  1  0  0  0  0
 20 21  2  0  0  0  0
 20 53  1  0  0  0  0
 21 22  1  0  0  0  0
 22 23  2  0  0  0  0
 22 24  1  0  0  0  0
 24 25  1  0  0  0  0
 25 26  1  0  0  0  0
 25 54  1  0  0  0  0
 25 55  1  0  0  0  0
 26 31  1  0  0  0  0
 26 27  2  0  0  0  0
 27 28  1  0  0  0  0
 28 29  2  0  0  0  0
 28 56  1  0  0  0  0
 29 30  1  0  0  0  0
 29 57  1  0  0  0  0
 30 31  2  0  0  0  0
 30 58  1  0  0  0  0
 32 33  2  0  0  0  0
 32 59  1  0  0  0  0
 33 34  1  0  0  0  0
M  CHG  1  24  -1
M  END
> <s_m_source_file>
AV-unprocessed.smi

> <i_m_source_file_index>
45

> <i_lp_mmshare_version>
43012

> <i_f3d_flags>
0

> <s_epik_input>
W0NIM11PYzFbY0hdW2NIXWMoW2NIXWMxQ2wpW0NIMl1bTkhdYzJuYyhOM1tDSDJdW0NIMl1bQ0gyXVtDQEhdM1tDSDJdW09IXSluW2NIXWMyQyg9TylbTkhdW0NIMl1jNG5bY0hdW2NIXVtjSF1uNA==

> <s_epik_cmdline>
J2VwaWtfcHl0aG9uJywgJy1waCcsICc3LjAnLCAnLXRuJywgJzgnLCAnLW1hJywgJzIwMCcsICctbWV0YWxfYmluZGluZycsICctaW1hZScsICc8aW5maWxlLm1hZT4nLCAnLW9tYWUnLCAnPG91dGZpbGUubWFlPic=

> <r_lp_tautomer_probability>
1

> <r_epik_Ionization_Penalty>
7.35269

> <r_epik_Ionization_Penalty_Charging>
6.82087

> <r_epik_Ionization_Penalty_Neutral>
0.53182

> <r_epik_State_Penalty>
6.85781

> <r_epik_Charging_Adjusted_Penalty>
13.6787

> <i_epik_Tot_Q>
-1

> <i_epik_Tot_abs_Q>
1

> <r_epik_Metal_State_Penalty>
2.8146

> <b_epik_Metal_Only>
1

> <s_epik_Chemistry_Notes>
This compound contains an electron-poor aromatic ring that is susceptible to covalent hydrolysis at low pH, typically resulting in measured values for nitrogen ring protonation that are around two units higher than predicted values.

> <s_lp_Force_Field>
OPLS_2005

> <r_lp_Energy>
41.892

> <b_lp_Chiralities_Consistent>
1

> <s_lp_Variant>
AV-unprocessed.smi:45-7

> <Gold.Version>
5.8.1

> <Gold.Id.Protein>
6NUR|6NUR_protein|mol2

> <Gold.PLP.Fitness>
57.7001

> <Gold.PLP.PLP>
-49.7132

> <Gold.PLP.part.hbond>
-5.3351

> <Gold.PLP.part.metal>
0.0000

> <Gold.PLP.part.buried>
-5.0041

> <Gold.PLP.part.nonpolar>
-37.0525

> <Gold.PLP.part.repulsive>
0.1316

> <Gold.PLP.ligand.clash>
0.4448

> <Gold.PLP.ligand.torsion>
2.4082

> <Gold.PLP.Chemscore.Hbond>
3.0000

> <Gold.PLP.Chemscore.CHOScore>
1.0000

> <Gold.PLP.Chemscore.Metal>
0.0000

> <Gold.Chemscore.Hbonds>
donor molecule, donor type, donor heavy atom, donor atom, acceptor molecule, acceptor atom, score
      P1  H  6896  6907       L1    27  0.16
      P1  H  6896  6908       L1    24  1.00
      L1  C    30    58       P1  7948  0.10

> <Gold.PLP.Chemscore.Internal.Correction>
1.2481

> <Gold.Rescore>
     Score         DG    S(hbond)    S(metal)    S(lipo)     H(rot)  DE(clash)    DE(int)     intcor
      8.04     -13.73       0.57        0.00     127.73       3.36       0.46       5.23       ----

> <Gold.Chemscore.Fitness>
8.0390

> <Gold.Chemscore.DG>
-13.7260

> <Gold.Chemscore.ZeroCoef>
-5.4800

> <Gold.Chemscore.Hbond>
0.5667

> <Gold.Chemscore.Metal>
0.0000

> <Gold.Chemscore.Lipo>
127.7294

> <Gold.Chemscore.Internal_Hbond>
0.0000

> <Gold.Chemscore.DEClash>
0.4615

> <Gold.Chemscore.DEInternal>
5.2255

> <Gold.Chemscore.Rot>
3.3560

> <Gold.Chemscore.Internal.Correction>
   9.000000E+99

> <Gold.Chemscore.Hbonds>
donor molecule, donor type, donor heavy atom, donor atom, acceptor molecule, acceptor atom, score
      P1  H  6896  6907       L1    27  0.10
      P1  H  6896  6908       L1    24  0.01

> <Gold.Chemscore.Hbond.Weighted>
-1.8929

> <Gold.Chemscore.Metal.Weighted>
-0.0000

> <Gold.Chemscore.Lipo.Weighted>
-14.9443

> <Gold.Chemscore.Internal_Hbond.Weighted>
0.0000

> <Gold.Chemscore.DEClash.Weighted>
0.4615

> <Gold.Chemscore.DEInternal.Weighted>
5.2255

> <Gold.Chemscore.Rot.Weighted>
8.5912

> <Gold.Chemscore.Internal.Correction.Weighted>
   9.000000E+99

> <Gold.Protein.RotatedTorsions>
[ 6907 6896 6895 6894 ] final -178.35 input  -60.11 | X-H torsion
[ 7974 7965 7964 7962 ] final -118.93 input  175.53 | X-H torsion
[ 8008 7997 7996 7995 ] final  -94.79 input   59.86 | X-H torsion
[ 10167 10162 10161 10158 ] final  168.30 input  -65.29 | X-H torsion
[ 10718 10713 10712 10709 ] final  -20.75 input   66.30 | X-H torsion
[ 10763 10752 10751 10750 ] final   11.63 input  -60.55 | X-H torsion
[ 11005 11000 10999 10996 ] final   98.49 input  -57.11 | X-H torsion

> <Gold.Protein.ActiveResidues>
 VAL166  LYS551  ARG553  GLY616  TRP617  ASP618  TYR619  PRO620  LYS621  CYS622 
 ASP623  PHE694  ASN695  SER759  ASP760  ASP761  ALA762  ILE779  LEU786  VAL792 
 PHE793  MET794  SER795  GLU796  ALA797  LYS798  CYS799  TRP800  GLU811  SER814 

> <Gold.Protein.RotatedAtoms>
  151.6357  133.3329  159.3118 H   0  0  0  0  0  0  0  0  0  0  0  0  # atno 6907 bound_to 6896
  150.8033  134.7146  159.6632 H   0  0  0  0  0  0  0  0  0  0  0  0  # atno 6908 bound_to 6896
  152.4127  134.6100  160.0074 H   0  0  0  0  0  0  0  0  0  0  0  0  # atno 6909 bound_to 6896
  145.0683  140.8340  143.4111 H   0  0  0  0  0  0  0  0  0  0  0  0  # atno 7974 bound_to 7965
  154.7530  140.0486  157.0909 H   0  0  0  0  0  0  0  0  0  0  0  0  # atno 8008 bound_to 7997
  155.0033  140.3127  155.4839 H   0  0  0  0  0  0  0  0  0  0  0  0  # atno 8009 bound_to 7997
  156.2889  140.2197  156.5144 H   0  0  0  0  0  0  0  0  0  0  0  0  # atno 8010 bound_to 7997
  139.4964  144.3830  151.9602 H   0  0  0  0  0  0  0  0  0  0  0  0  # atno 10167 bound_to 10162
  156.5276  130.4647  149.6564 H   0  0  0  0  0  0  0  0  0  0  0  0  # atno 10718 bound_to 10713
  153.1906  135.6842  153.8357 H   0  0  0  0  0  0  0  0  0  0  0  0  # atno 10763 bound_to 10752
  153.7658  135.3203  155.3345 H   0  0  0  0  0  0  0  0  0  0  0  0  # atno 10764 bound_to 10752
  154.8115  135.4714  154.0627 H   0  0  0  0  0  0  0  0  0  0  0  0  # atno 10765 bound_to 10752
  139.8772  134.9051  156.4464 H   0  0  0  0  0  0  0  0  0  0  0  0  # atno 11005 bound_to 11000
  145.1324  139.2623  143.5532 LP  0  0  0  0  0  0  0  0  0  0  0  0  # atno 17320 bound_to 7965
  146.3527  140.0979  142.8609 LP  0  0  0  0  0  0  0  0  0  0  0  0  # atno 17321 bound_to 7965
  140.3266  144.3365  150.5997 LP  0  0  0  0  0  0  0  0  0  0  0  0  # atno 17342 bound_to 10162
  140.5679  143.2184  151.7651 LP  0  0  0  0  0  0  0  0  0  0  0  0  # atno 17343 bound_to 10162
  156.3090  130.7218  151.2107 LP  0  0  0  0  0  0  0  0  0  0  0  0  # atno 17370 bound_to 10713
  157.7427  131.0486  150.5005 LP  0  0  0  0  0  0  0  0  0  0  0  0  # atno 17371 bound_to 10713
  140.8963  133.7812  155.9629 LP  0  0  0  0  0  0  0  0  0  0  0  0  # atno 17394 bound_to 11000
  140.8699  134.2738  157.5195 LP  0  0  0  0  0  0  0  0  0  0  0  0  # atno 17395 bound_to 11000

$$$$
