AV-unprocessed.smi:2173|AV-procd|sdf|8840|dock2
  -GOLD-   2272012 33D 1   1.00000     0.00000
 Structure written by MMmdl.
 36 37  0  0  0  0  0  0  0  0  2 V2000
  152.8257  139.5778  157.9203 O   0  0  0  0  0  0  0  0  0  0  0  0
  151.7964  140.2234  157.7209 C   0  0  0  0  0  0  0  0  0  0  0  0
  150.8373  139.8339  156.8653 N   0  0  0  0  0  0  0  0  0  0  0  0
  150.8738  138.6264  156.0432 C   0  0  0  0  0  0  0  0  0  0  0  0
  150.6854  138.9168  154.5398 C   0  0  0  0  0  0  0  0  0  0  0  0
  149.3075  139.4468  154.1803 C   0  0  0  0  0  0  0  0  0  0  0  0
  148.8726  140.7293  154.5789 C   0  0  0  0  0  0  0  0  0  0  0  0
  147.5659  141.1467  154.2505 C   0  0  0  0  0  0  0  0  0  0  0  0
  146.7224  140.2744  153.5318 C   0  0  0  0  0  0  0  0  0  0  0  0
  147.2078  139.0050  153.1577 C   0  0  0  0  0  0  0  0  0  0  0  0
  148.4660  138.6424  153.4899 N   0  3  0  0  0  0  0  0  0  0  0  0
  151.5710  141.5586  158.4402 C   0  0  2  0  0  0  0  0  0  0  0  0
  151.2583  142.6844  157.4277 C   0  0  0  0  0  0  0  0  0  0  0  0
  151.2762  144.0574  158.0763 C   0  0  0  0  0  0  0  0  0  0  0  0
  151.8267  144.2991  159.2785 C   0  0  0  0  0  0  0  0  0  0  0  0
  152.4983  143.2288  160.1208 C   0  0  0  0  0  0  0  0  0  0  0  0
  152.7788  141.9449  159.3171 C   0  0  0  0  0  0  0  0  0  0  0  0
  150.0218  140.4226  156.7722 H   0  0  0  0  0  0  0  0  0  0  0  0
  151.8063  138.0833  156.2054 H   0  0  0  0  0  0  0  0  0  0  0  0
  150.0779  137.9646  156.3853 H   0  0  0  0  0  0  0  0  0  0  0  0
  151.4331  139.6405  154.2137 H   0  0  0  0  0  0  0  0  0  0  0  0
  150.8760  138.0090  153.9654 H   0  0  0  0  0  0  0  0  0  0  0  0
  149.5264  141.3809  155.1401 H   0  0  0  0  0  0  0  0  0  0  0  0
  147.2133  142.1224  154.5510 H   0  0  0  0  0  0  0  0  0  0  0  0
  145.7170  140.5741  153.2744 H   0  0  0  0  0  0  0  0  0  0  0  0
  146.6314  138.2721  152.6121 H   0  0  0  0  0  0  0  0  0  0  0  0
  150.7088  141.4477  159.1008 H   0  0  0  0  0  0  0  0  0  0  0  0
  151.9769  142.6910  156.6067 H   0  0  0  0  0  0  0  0  0  0  0  0
  150.2742  142.5219  156.9866 H   0  0  0  0  0  0  0  0  0  0  0  0
  150.8281  144.8666  157.5184 H   0  0  0  0  0  0  0  0  0  0  0  0
  151.7942  145.2961  159.6931 H   0  0  0  0  0  0  0  0  0  0  0  0
  153.4295  143.6225  160.5292 H   0  0  0  0  0  0  0  0  0  0  0  0
  151.8476  143.0076  160.9673 H   0  0  0  0  0  0  0  0  0  0  0  0
  153.0394  141.1342  159.9989 H   0  0  0  0  0  0  0  0  0  0  0  0
  153.6528  142.1061  158.6838 H   0  0  0  0  0  0  0  0  0  0  0  0
  148.7932  137.7154  153.2174 H   0  0  0  0  0  0  0  0  0  0  0  0
  1  2  2  0  0  0  0
  2  3  1  0  0  0  0
  2 12  1  0  0  0  0
  3  4  1  0  0  0  0
  3 18  1  0  0  0  0
  4  5  1  0  0  0  0
  4 19  1  0  0  0  0
  4 20  1  0  0  0  0
  5  6  1  0  0  0  0
  5 21  1  0  0  0  0
  5 22  1  0  0  0  0
  6 11  1  0  0  0  0
  6  7  2  0  0  0  0
  7  8  1  0  0  0  0
  7 23  1  0  0  0  0
  8  9  2  0  0  0  0
  8 24  1  0  0  0  0
  9 10  1  0  0  0  0
  9 25  1  0  0  0  0
 10 11  2  0  0  0  0
 10 26  1  0  0  0  0
 11 36  1  0  0  0  0
 12 17  1  0  0  0  0
 12 13  1  0  0  0  0
 12 27  1  0  0  0  0
 13 14  1  0  0  0  0
 13 28  1  0  0  0  0
 13 29  1  0  0  0  0
 14 15  2  0  0  0  0
 14 30  1  0  0  0  0
 15 16  1  0  0  0  0
 15 31  1  0  0  0  0
 16 17  1  0  0  0  0
 16 32  1  0  0  0  0
 16 33  1  0  0  0  0
 17 34  1  0  0  0  0
 17 35  1  0  0  0  0
M  CHG  1  11   1
M  END
> <s_m_source_file>
AV-unprocessed.smi

> <i_m_source_file_index>
2173

> <i_lp_mmshare_version>
43012

> <i_f3d_flags>
0

> <s_epik_input>
W0NIMl0xW0NIMl1bQ0hdPVtDSF1bQ0gyXVtDQEhdMUMoPU8pW05IXVtDSDJdW0NIMl1jMltjSF1bY0hdW2NIXVtjSF1uMg==

> <s_epik_cmdline>
J2VwaWtfcHl0aG9uJywgJy1waCcsICc3LjAnLCAnLXRuJywgJzgnLCAnLW1hJywgJzIwMCcsICctbWV0YWxfYmluZGluZycsICctaW1hZScsICc8aW5maWxlLm1hZT4nLCAnLW9tYWUnLCAnPG91dGZpbGUubWFlPic=

> <r_epik_Ionization_Penalty>
1.84586

> <r_epik_Ionization_Penalty_Charging>
1.84586

> <r_epik_Ionization_Penalty_Neutral>
1.53635e-08

> <r_epik_State_Penalty>
1.96297

> <r_epik_Charging_Adjusted_Penalty>
3.80883

> <i_epik_Tot_Q>
1

> <i_epik_Tot_abs_Q>
1

> <r_epik_Metal_State_Penalty>
1.98887

> <b_epik_Metal_Only>
0

> <s_lp_Force_Field>
OPLS_2005

> <r_lp_Energy>
13.6363

> <b_lp_Chiralities_Consistent>
1

> <s_lp_Variant>
AV-unprocessed.smi:2173-3

> <Gold.Version>
5.8.1

> <Gold.Id.Protein>
6NUR|6NUR_protein|mol2

> <Gold.PLP.Fitness>
48.9933

> <Gold.PLP.PLP>
-40.2976

> <Gold.PLP.part.hbond>
-3.0000

> <Gold.PLP.part.metal>
0.0000

> <Gold.PLP.part.buried>
0.0536

> <Gold.PLP.part.nonpolar>
-37.5330

> <Gold.PLP.part.repulsive>
0.1375

> <Gold.PLP.ligand.clash>
0.0000

> <Gold.PLP.ligand.torsion>
0.1674

> <Gold.PLP.Chemscore.Hbond>
3.0000

> <Gold.PLP.Chemscore.CHOScore>
0.0000

> <Gold.PLP.Chemscore.Metal>
0.0000

> <Gold.Chemscore.Hbonds>
donor molecule, donor type, donor heavy atom, donor atom, acceptor molecule, acceptor atom, score
      L1  H    11    36       P1  7948  2.00
      P1  H  7997  8008       L1     1  0.96

> <Gold.PLP.Chemscore.Internal.Correction>
0.0304

> <Gold.Rescore>
     Score         DG    S(hbond)    S(metal)    S(lipo)     H(rot)  DE(clash)    DE(int)     intcor
     20.60     -20.98       1.85        0.00     112.15       1.48       0.27       0.11       ----

> <Gold.Chemscore.Fitness>
20.5992

> <Gold.Chemscore.DG>
-20.9784

> <Gold.Chemscore.ZeroCoef>
-5.4800

> <Gold.Chemscore.Hbond>
1.8462

> <Gold.Chemscore.Metal>
0.0000

> <Gold.Chemscore.Lipo>
112.1485

> <Gold.Chemscore.Internal_Hbond>
0.0000

> <Gold.Chemscore.DEClash>
0.2694

> <Gold.Chemscore.DEInternal>
0.1098

> <Gold.Chemscore.Rot>
1.4801

> <Gold.Chemscore.Internal.Correction>
   9.000000E+99

> <Gold.Chemscore.Hbonds>
donor molecule, donor type, donor heavy atom, donor atom, acceptor molecule, acceptor atom, score
      L1  H    11    36       P1  7948  0.92
      P1  H  7997  8008       L1     1  0.88

> <Gold.Chemscore.Hbond.Weighted>
-6.1662

> <Gold.Chemscore.Metal.Weighted>
-0.0000

> <Gold.Chemscore.Lipo.Weighted>
-13.1214

> <Gold.Chemscore.Internal_Hbond.Weighted>
0.0000

> <Gold.Chemscore.DEClash.Weighted>
0.2694

> <Gold.Chemscore.DEInternal.Weighted>
0.1098

> <Gold.Chemscore.Rot.Weighted>
3.7892

> <Gold.Chemscore.Internal.Correction.Weighted>
   9.000000E+99

> <Gold.Protein.RotatedTorsions>
[ 6907 6896 6895 6894 ] final  -24.36 input  -60.11 | X-H torsion
[ 7974 7965 7964 7962 ] final   26.41 input  175.53 | X-H torsion
[ 8008 7997 7996 7995 ] final  -90.01 input   59.86 | X-H torsion
[ 10167 10162 10161 10158 ] final  -99.20 input  -65.29 | X-H torsion
[ 10718 10713 10712 10709 ] final   69.41 input   66.30 | X-H torsion
[ 10763 10752 10751 10750 ] final  114.50 input  -60.55 | X-H torsion
[ 11005 11000 10999 10996 ] final  -74.24 input  -57.11 | X-H torsion

> <Gold.Protein.ActiveResidues>
 VAL166  LYS551  ARG553  GLY616  TRP617  ASP618  TYR619  PRO620  LYS621  CYS622 
 ASP623  PHE694  ASN695  SER759  ASP760  ASP761  ALA762  ILE779  LEU786  VAL792 
 PHE793  MET794  SER795  GLU796  ALA797  LYS798  CYS799  TRP800  GLU811  SER814 

> <Gold.Protein.RotatedAtoms>
  151.1907  135.0401  159.8831 H   0  0  0  0  0  0  0  0  0  0  0  0  # atno 6907 bound_to 6896
  152.5439  134.0959  159.8307 H   0  0  0  0  0  0  0  0  0  0  0  0  # atno 6908 bound_to 6896
  151.1087  133.5142  159.2639 H   0  0  0  0  0  0  0  0  0  0  0  0  # atno 6909 bound_to 6896
  146.1839  139.7331  142.8881 H   0  0  0  0  0  0  0  0  0  0  0  0  # atno 7974 bound_to 7965
  154.6934  140.0535  157.0386 H   0  0  0  0  0  0  0  0  0  0  0  0  # atno 8008 bound_to 7997
  155.0784  140.3207  155.4590 H   0  0  0  0  0  0  0  0  0  0  0  0  # atno 8009 bound_to 7997
  156.2736  140.2069  156.5912 H   0  0  0  0  0  0  0  0  0  0  0  0  # atno 8010 bound_to 7997
  140.2650  143.3382  152.0590 H   0  0  0  0  0  0  0  0  0  0  0  0  # atno 10167 bound_to 10162
  157.6344  130.9424  150.0510 H   0  0  0  0  0  0  0  0  0  0  0  0  # atno 10718 bound_to 10713
  153.5082  135.3623  155.2573 H   0  0  0  0  0  0  0  0  0  0  0  0  # atno 10763 bound_to 10752
  154.8743  135.4016  154.3400 H   0  0  0  0  0  0  0  0  0  0  0  0  # atno 10764 bound_to 10752
  153.4048  135.7076  153.6467 H   0  0  0  0  0  0  0  0  0  0  0  0  # atno 10765 bound_to 10752
  141.1633  133.6905  156.7335 H   0  0  0  0  0  0  0  0  0  0  0  0  # atno 11005 bound_to 11000
  145.3997  141.0383  143.3077 LP  0  0  0  0  0  0  0  0  0  0  0  0  # atno 17320 bound_to 7965
  144.8362  139.5547  143.6921 LP  0  0  0  0  0  0  0  0  0  0  0  0  # atno 17321 bound_to 7965
  139.5005  144.6694  151.6279 LP  0  0  0  0  0  0  0  0  0  0  0  0  # atno 17342 bound_to 10162
  140.5936  143.9736  150.6340 LP  0  0  0  0  0  0  0  0  0  0  0  0  # atno 17343 bound_to 10162
  156.1572  130.3643  149.9351 LP  0  0  0  0  0  0  0  0  0  0  0  0  # atno 17370 bound_to 10713
  156.7358  130.9060  151.3629 LP  0  0  0  0  0  0  0  0  0  0  0  0  # atno 17371 bound_to 10713
  140.2727  134.8379  157.3862 LP  0  0  0  0  0  0  0  0  0  0  0  0  # atno 17394 bound_to 11000
  140.1506  134.4855  155.7964 LP  0  0  0  0  0  0  0  0  0  0  0  0  # atno 17395 bound_to 11000

$$$$
