AV-unprocessed.smi:3337|AV-procd|sdf|12865|dock9
  -GOLD-   2272019263D 1   1.00000     0.00000
 Structure written by MMmdl.
 46 47  0  0  0  0  0  0  0  0  2 V2000
  144.7792  132.7654  149.8426 C   0  0  0  0  0  0  0  0  0  0  0  0
  145.7483  131.8692  150.6270 C   0  0  2  0  0  0  0  0  0  0  0  0
  144.9935  130.7927  151.4278 C   0  0  0  0  0  0  0  0  0  0  0  0
  145.9531  129.9294  152.2676 C   0  0  1  0  0  0  0  0  0  0  0  0
  146.7548  128.9258  151.4204 C   0  0  0  0  0  0  0  0  0  0  0  0
  146.8652  130.8202  153.1345 C   0  0  0  0  0  0  0  0  0  0  0  0
  147.5902  131.8291  152.3180 N   0  3  2  0  0  0  0  0  0  0  0  0
  148.5799  132.5910  153.1213 C   0  0  0  0  0  0  0  0  0  0  0  0
  147.9651  133.8357  153.7895 C   0  0  0  0  0  0  0  0  0  0  0  0
  148.9286  134.5113  154.6497 N   0  0  0  0  0  0  0  0  0  0  0  0
  148.7617  135.7342  155.1798 C   0  0  0  0  0  0  0  0  0  0  0  0
  147.7716  136.4292  154.9475 O   0  0  0  0  0  0  0  0  0  0  0  0
  149.8876  136.2449  156.0982 C   0  0  1  0  0  0  0  0  0  0  0  0
  150.9980  135.2004  156.3307 C   0  0  0  0  0  0  0  0  0  0  0  0
  150.4376  137.5018  155.6029 N   0  0  0  0  0  0  0  0  0  0  0  0
  150.1467  138.1915  154.4978 C   0  0  0  0  0  0  0  0  0  0  0  0
  150.8668  139.2941  154.3462 N   0  0  0  0  0  0  0  0  0  0  0  0
  151.6367  139.2206  155.4723 C   0  0  0  0  0  0  0  0  0  0  0  0
  151.4237  138.1648  156.2574 N   0  0  0  0  0  0  0  0  0  0  0  0
  146.6482  132.6980  151.5637 C   0  0  0  0  0  0  0  0  0  0  0  0
  144.1052  133.3032  150.5103 H   0  0  0  0  0  0  0  0  0  0  0  0
  144.1690  132.1769  149.1566 H   0  0  0  0  0  0  0  0  0  0  0  0
  145.3190  133.5043  149.2492 H   0  0  0  0  0  0  0  0  0  0  0  0
  146.3878  131.3716  149.8969 H   0  0  0  0  0  0  0  0  0  0  0  0
  144.2779  131.2770  152.0941 H   0  0  0  0  0  0  0  0  0  0  0  0
  144.4060  130.1621  150.7593 H   0  0  0  0  0  0  0  0  0  0  0  0
  145.3406  129.3336  152.9458 H   0  0  0  0  0  0  0  0  0  0  0  0
  147.4269  129.4244  150.7221 H   0  0  0  0  0  0  0  0  0  0  0  0
  146.0907  128.2836  150.8411 H   0  0  0  0  0  0  0  0  0  0  0  0
  147.3621  128.2789  152.0542 H   0  0  0  0  0  0  0  0  0  0  0  0
  146.2705  131.3365  153.8898 H   0  0  0  0  0  0  0  0  0  0  0  0
  147.5761  130.1933  153.6745 H   0  0  0  0  0  0  0  0  0  0  0  0
  149.0361  131.9361  153.8654 H   0  0  0  0  0  0  0  0  0  0  0  0
  149.3870  132.9202  152.4653 H   0  0  0  0  0  0  0  0  0  0  0  0
  147.5871  134.5283  153.0352 H   0  0  0  0  0  0  0  0  0  0  0  0
  147.1152  133.5655  154.4146 H   0  0  0  0  0  0  0  0  0  0  0  0
  149.7695  134.0031  154.8838 H   0  0  0  0  0  0  0  0  0  0  0  0
  149.4295  136.4545  157.0660 H   0  0  0  0  0  0  0  0  0  0  0  0
  150.5982  134.2903  156.7790 H   0  0  0  0  0  0  0  0  0  0  0  0
  151.7601  135.5876  157.0074 H   0  0  0  0  0  0  0  0  0  0  0  0
  151.4949  134.9216  155.4005 H   0  0  0  0  0  0  0  0  0  0  0  0
  149.3953  137.8795  153.7874 H   0  0  0  0  0  0  0  0  0  0  0  0
  152.3796  139.9649  155.7181 H   0  0  0  0  0  0  0  0  0  0  0  0
  147.2000  133.4227  150.9665 H   0  0  0  0  0  0  0  0  0  0  0  0
  146.0399  133.2696  152.2667 H   0  0  0  0  0  0  0  0  0  0  0  0
  148.1208  131.3066  151.6354 H   0  0  0  0  0  0  0  0  0  0  0  0
  1  2  1  0  0  0  0
  1 21  1  0  0  0  0
  1 22  1  0  0  0  0
  1 23  1  0  0  0  0
  2 20  1  0  0  0  0
  2  3  1  0  0  0  0
  2 24  1  0  0  0  0
  3  4  1  0  0  0  0
  3 25  1  0  0  0  0
  3 26  1  0  0  0  0
  4  5  1  0  0  0  0
  4  6  1  0  0  0  0
  4 27  1  0  0  0  0
  5 28  1  0  0  0  0
  5 29  1  0  0  0  0
  5 30  1  0  0  0  0
  6  7  1  0  0  0  0
  6 31  1  0  0  0  0
  6 32  1  0  0  0  0
  7  8  1  0  0  0  0
  7 20  1  0  0  0  0
  7 46  1  0  0  0  0
  8  9  1  0  0  0  0
  8 33  1  0  0  0  0
  8 34  1  0  0  0  0
  9 10  1  0  0  0  0
  9 35  1  0  0  0  0
  9 36  1  0  0  0  0
 10 11  1  0  0  0  0
 10 37  1  0  0  0  0
 11 12  2  0  0  0  0
 11 13  1  0  0  0  0
 13 14  1  0  0  0  0
 13 15  1  0  0  0  0
 13 38  1  0  0  0  0
 14 39  1  0  0  0  0
 14 40  1  0  0  0  0
 14 41  1  0  0  0  0
 15 19  1  0  0  0  0
 15 16  1  0  0  0  0
 16 17  2  0  0  0  0
 16 42  1  0  0  0  0
 17 18  1  0  0  0  0
 18 19  2  0  0  0  0
 18 43  1  0  0  0  0
 20 44  1  0  0  0  0
 20 45  1  0  0  0  0
M  CHG  1   7   1
M  END
> <s_m_source_file>
AV-unprocessed.smi

> <i_m_source_file_index>
3337

> <i_lp_mmshare_version>
43012

> <i_f3d_flags>
0

> <s_epik_input>
W0NIM11bQ0BASF0xW0NIMl1bQ0BASF0oW0NIM10pW0NIMl1OKFtDSDJdMSlbQ0gyXVtDSDJdW05IXUMoPU8pW0NASF0oW0NIM10pbjJbY0hdbltjSF1uMg==

> <s_epik_cmdline>
J2VwaWtfcHl0aG9uJywgJy1waCcsICc3LjAnLCAnLXRuJywgJzgnLCAnLW1hJywgJzIwMCcsICctbWV0YWxfYmluZGluZycsICctaW1hZScsICc8aW5maWxlLm1hZT4nLCAnLW9tYWUnLCAnPG91dGZpbGUubWFlPic=

> <r_lp_tautomer_probability>
1

> <r_epik_Ionization_Penalty>
0.00175613

> <r_epik_Ionization_Penalty_Charging>
0.00174812

> <r_epik_Ionization_Penalty_Neutral>
8.01354e-06

> <r_epik_State_Penalty>
0.00118332

> <r_epik_Charging_Adjusted_Penalty>
0.00293143

> <i_epik_Tot_Q>
1

> <i_epik_Tot_abs_Q>
1

> <r_epik_Metal_State_Penalty>
-0

> <b_epik_Metal_Only>
0

> <s_lp_Force_Field>
OPLS_2005

> <r_lp_Energy>
24.7209

> <b_lp_Chiralities_Consistent>
1

> <s_lp_Variant>
AV-unprocessed.smi:3337-5

> <Gold.Version>
5.8.1

> <Gold.Id.Protein>
6NUR|6NUR_protein|mol2

> <Gold.PLP.Fitness>
43.0570

> <Gold.PLP.PLP>
-34.6967

> <Gold.PLP.part.hbond>
-2.4134

> <Gold.PLP.part.metal>
0.0000

> <Gold.PLP.part.buried>
-2.8679

> <Gold.PLP.part.nonpolar>
-29.3618

> <Gold.PLP.part.repulsive>
0.2669

> <Gold.PLP.ligand.clash>
0.0000

> <Gold.PLP.ligand.torsion>
0.3853

> <Gold.PLP.Chemscore.Hbond>
2.0000

> <Gold.PLP.Chemscore.CHOScore>
1.0000

> <Gold.PLP.Chemscore.Metal>
0.0000

> <Gold.Chemscore.Hbonds>
donor molecule, donor type, donor heavy atom, donor atom, acceptor molecule, acceptor atom, score
      L1  H     7    46       P1 10747  1.00
      P1  H  7989  7998       L1    17  1.00
      L1  C    16    42       P1  7948  0.96

> <Gold.PLP.Chemscore.Internal.Correction>
0.1307

> <Gold.Rescore>
     Score         DG    S(hbond)    S(metal)    S(lipo)     H(rot)  DE(clash)    DE(int)     intcor
     13.03     -14.29       1.77        0.00      79.71       2.51       0.11       1.15       ----

> <Gold.Chemscore.Fitness>
13.0330

> <Gold.Chemscore.DG>
-14.2942

> <Gold.Chemscore.ZeroCoef>
-5.4800

> <Gold.Chemscore.Hbond>
1.7727

> <Gold.Chemscore.Metal>
0.0000

> <Gold.Chemscore.Lipo>
79.7141

> <Gold.Chemscore.Internal_Hbond>
0.0000

> <Gold.Chemscore.DEClash>
0.1126

> <Gold.Chemscore.DEInternal>
1.1486

> <Gold.Chemscore.Rot>
2.5129

> <Gold.Chemscore.Internal.Correction>
   9.000000E+99

> <Gold.Chemscore.Hbonds>
donor molecule, donor type, donor heavy atom, donor atom, acceptor molecule, acceptor atom, score
      L1  H     7    46       P1 10747  1.00
      P1  H  7989  7998       L1    17  0.30

> <Gold.Chemscore.Hbond.Weighted>
-5.9207

> <Gold.Chemscore.Metal.Weighted>
-0.0000

> <Gold.Chemscore.Lipo.Weighted>
-9.3266

> <Gold.Chemscore.Internal_Hbond.Weighted>
0.0000

> <Gold.Chemscore.DEClash.Weighted>
0.1126

> <Gold.Chemscore.DEInternal.Weighted>
1.1486

> <Gold.Chemscore.Rot.Weighted>
6.4331

> <Gold.Chemscore.Internal.Correction.Weighted>
   9.000000E+99

> <Gold.Protein.RotatedTorsions>
[ 6907 6896 6895 6894 ] final  152.43 input  -60.11 | X-H torsion
[ 7974 7965 7964 7962 ] final  -49.86 input  175.53 | X-H torsion
[ 8008 7997 7996 7995 ] final   23.24 input   59.86 | X-H torsion
[ 10167 10162 10161 10158 ] final -112.97 input  -65.29 | X-H torsion
[ 10718 10713 10712 10709 ] final   15.03 input   66.30 | X-H torsion
[ 10763 10752 10751 10750 ] final  131.58 input  -60.55 | X-H torsion
[ 11005 11000 10999 10996 ] final    8.78 input  -57.11 | X-H torsion

> <Gold.Protein.ActiveResidues>
 VAL166  LYS551  ARG553  GLY616  TRP617  ASP618  TYR619  PRO620  LYS621  CYS622 
 ASP623  PHE694  ASN695  SER759  ASP760  ASP761  ALA762  ILE779  LEU786  VAL792 
 PHE793  MET794  SER795  GLU796  ALA797  LYS798  CYS799  TRP800  GLU811  SER814 

> <Gold.Protein.RotatedAtoms>
  152.0868  133.4180  159.4525 H   0  0  0  0  0  0  0  0  0  0  0  0  # atno 6907 bound_to 6896
  150.6862  134.2918  159.4679 H   0  0  0  0  0  0  0  0  0  0  0  0  # atno 6908 bound_to 6896
  152.0765  134.9499  160.0624 H   0  0  0  0  0  0  0  0  0  0  0  0  # atno 6909 bound_to 6896
  145.9360  140.7706  142.9576 H   0  0  0  0  0  0  0  0  0  0  0  0  # atno 7974 bound_to 7965
  154.9779  140.3098  155.4959 H   0  0  0  0  0  0  0  0  0  0  0  0  # atno 8008 bound_to 7997
  156.2957  140.2272  156.4815 H   0  0  0  0  0  0  0  0  0  0  0  0  # atno 8009 bound_to 7997
  154.7817  140.0445  157.1120 H   0  0  0  0  0  0  0  0  0  0  0  0  # atno 8010 bound_to 7997
  140.1169  143.4477  152.1716 H   0  0  0  0  0  0  0  0  0  0  0  0  # atno 10167 bound_to 10162
  157.0476  130.6256  149.5762 H   0  0  0  0  0  0  0  0  0  0  0  0  # atno 10718 bound_to 10713
  153.7767  135.3174  155.3360 H   0  0  0  0  0  0  0  0  0  0  0  0  # atno 10763 bound_to 10752
  154.8176  135.4625  154.0691 H   0  0  0  0  0  0  0  0  0  0  0  0  # atno 10764 bound_to 10752
  153.1967  135.6916  153.8368 H   0  0  0  0  0  0  0  0  0  0  0  0  # atno 10765 bound_to 10752
  140.5331  134.0447  155.7880 H   0  0  0  0  0  0  0  0  0  0  0  0  # atno 11005 bound_to 11000
  144.6772  140.2204  143.7367 LP  0  0  0  0  0  0  0  0  0  0  0  0  # atno 17320 bound_to 7965
  145.8363  139.2109  143.1853 LP  0  0  0  0  0  0  0  0  0  0  0  0  # atno 17321 bound_to 7965
  139.5589  144.7392  151.4212 LP  0  0  0  0  0  0  0  0  0  0  0  0  # atno 17342 bound_to 10162
  140.6894  143.7897  150.7233 LP  0  0  0  0  0  0  0  0  0  0  0  0  # atno 17343 bound_to 10162
  156.0018  130.5098  150.7689 LP  0  0  0  0  0  0  0  0  0  0  0  0  # atno 17370 bound_to 10713
  157.5056  131.0922  151.0262 LP  0  0  0  0  0  0  0  0  0  0  0  0  # atno 17371 bound_to 10713
  141.1270  133.9366  157.2615 LP  0  0  0  0  0  0  0  0  0  0  0  0  # atno 17394 bound_to 11000
  139.9543  135.0169  156.9085 LP  0  0  0  0  0  0  0  0  0  0  0  0  # atno 17395 bound_to 11000

$$$$
