AV-unprocessed.smi:3243|AV-procd|sdf|12397|dock8
  -GOLD-   2272018273D 1   1.00000     0.00000
 Structure written by MMmdl.
 37 38  0  0  0  0  0  0  0  0  1 V2000
  152.7768  143.0081  162.3522 C   0  0  0  0  0  0  0  0  0  0  0  0
  152.8590  143.4017  160.8704 C   0  0  0  0  0  0  0  0  0  0  0  0
  151.9526  144.5878  160.5109 C   0  0  0  0  0  0  0  0  0  0  0  0
  152.6413  142.2310  159.9641 C   0  0  0  0  0  0  0  0  0  0  0  0
  151.7188  142.2016  158.9970 N   0  0  0  0  0  0  0  0  0  0  0  0
  151.7125  140.9944  158.2917 C   0  0  0  0  0  0  0  0  0  0  0  0
  150.7423  140.7897  157.1680 C   0  0  0  0  0  0  0  0  0  0  0  0
  150.7484  141.9597  156.1746 C   0  0  0  0  0  0  0  0  0  0  0  0
  149.5352  141.9556  155.3684 N   0  0  0  0  0  0  0  0  0  0  0  0
  149.2412  141.0309  154.4436 C   0  0  0  0  0  0  0  0  0  0  0  0
  149.9817  140.0801  154.1882 O   0  0  0  0  0  0  0  0  0  0  0  0
  147.9362  141.2589  153.7526 C   0  0  1  0  0  0  0  0  0  0  0  0
  146.6725  140.8980  154.5066 C   0  0  0  0  0  0  0  0  0  0  0  0
  147.0294  142.3489  154.2931 C   0  0  2  0  0  0  0  0  0  0  0  0
  146.2265  143.2149  153.3467 C   0  0  0  0  0  0  0  0  0  0  0  0
  152.6530  140.1011  158.7402 C   0  0  0  0  0  0  0  0  0  0  0  0
  153.5799  140.7452  160.0670 S   0  0  0  0  0  0  0  0  0  0  0  0
  153.4926  142.2206  162.5892 H   0  0  0  0  0  0  0  0  0  0  0  0
  151.7823  142.6433  162.6110 H   0  0  0  0  0  0  0  0  0  0  0  0
  152.9964  143.8590  162.9975 H   0  0  0  0  0  0  0  0  0  0  0  0
  153.8830  143.7357  160.6983 H   0  0  0  0  0  0  0  0  0  0  0  0
  152.0971  144.8916  159.4738 H   0  0  0  0  0  0  0  0  0  0  0  0
  152.1677  145.4514  161.1406 H   0  0  0  0  0  0  0  0  0  0  0  0
  150.8996  144.3358  160.6411 H   0  0  0  0  0  0  0  0  0  0  0  0
  150.9774  139.8644  156.6403 H   0  0  0  0  0  0  0  0  0  0  0  0
  149.7361  140.6578  157.5684 H   0  0  0  0  0  0  0  0  0  0  0  0
  150.8224  142.9077  156.7100 H   0  0  0  0  0  0  0  0  0  0  0  0
  151.6188  141.8893  155.5201 H   0  0  0  0  0  0  0  0  0  0  0  0
  148.8779  142.7068  155.5207 H   0  0  0  0  0  0  0  0  0  0  0  0
  147.9237  141.0959  152.6759 H   0  0  0  0  0  0  0  0  0  0  0  0
  145.8565  140.4759  153.9237 H   0  0  0  0  0  0  0  0  0  0  0  0
  146.7633  140.5054  155.5179 H   0  0  0  0  0  0  0  0  0  0  0  0
  147.3719  142.8855  155.1766 H   0  0  0  0  0  0  0  0  0  0  0  0
  145.9006  142.6420  152.4780 H   0  0  0  0  0  0  0  0  0  0  0  0
  146.8315  144.0538  153.0027 H   0  0  0  0  0  0  0  0  0  0  0  0
  145.3453  143.6067  153.8550 H   0  0  0  0  0  0  0  0  0  0  0  0
  152.8571  139.1070  158.3708 H   0  0  0  0  0  0  0  0  0  0  0  0
  1  2  1  0  0  0  0
  1 18  1  0  0  0  0
  1 19  1  0  0  0  0
  1 20  1  0  0  0  0
  2  3  1  0  0  0  0
  2  4  1  0  0  0  0
  2 21  1  0  0  0  0
  3 22  1  0  0  0  0
  3 23  1  0  0  0  0
  3 24  1  0  0  0  0
  4 17  1  0  0  0  0
  4  5  2  0  0  0  0
  5  6  1  0  0  0  0
  6  7  1  0  0  0  0
  6 16  2  0  0  0  0
  7  8  1  0  0  0  0
  7 25  1  0  0  0  0
  7 26  1  0  0  0  0
  8  9  1  0  0  0  0
  8 27  1  0  0  0  0
  8 28  1  0  0  0  0
  9 10  1  0  0  0  0
  9 29  1  0  0  0  0
 10 11  2  0  0  0  0
 10 12  1  0  0  0  0
 12 14  1  0  0  0  0
 12 13  1  0  0  0  0
 12 30  1  0  0  0  0
 13 14  1  0  0  0  0
 13 31  1  0  0  0  0
 13 32  1  0  0  0  0
 14 15  1  0  0  0  0
 14 33  1  0  0  0  0
 15 34  1  0  0  0  0
 15 35  1  0  0  0  0
 15 36  1  0  0  0  0
 16 17  1  0  0  0  0
 16 37  1  0  0  0  0
M  END
> <s_m_source_file>
AV-unprocessed.smi

> <i_m_source_file_index>
3243

> <i_lp_mmshare_version>
43012

> <i_f3d_flags>
0

> <s_epik_input>
W0NIM11bQ0hdKFtDSDNdKWMxbmMoW2NIXXMxKVtDSDJdW0NIMl1bTkhdQyg9TylbQ0BASF0yW0NIMl1bQ0BIXTJbQ0gzXQ==

> <s_epik_cmdline>
J2VwaWtfcHl0aG9uJywgJy1waCcsICc3LjAnLCAnLXRuJywgJzgnLCAnLW1hJywgJzIwMCcsICctbWV0YWxfYmluZGluZycsICctaW1hZScsICc8aW5maWxlLm1hZT4nLCAnLW9tYWUnLCAnPG91dGZpbGUubWFlPic=

> <r_epik_Ionization_Penalty>
0.00084212

> <r_epik_Ionization_Penalty_Charging>
0

> <r_epik_Ionization_Penalty_Neutral>
0.00084212

> <r_epik_State_Penalty>
0.000542609

> <r_epik_Charging_Adjusted_Penalty>
0.000542609

> <i_epik_Tot_Q>
0

> <i_epik_Tot_abs_Q>
0

> <r_epik_Metal_State_Penalty>
-0

> <b_epik_Metal_Only>
0

> <s_lp_Force_Field>
OPLS_2005

> <r_lp_Energy>
-2.05964

> <b_lp_Chiralities_Consistent>
1

> <s_lp_Variant>
AV-unprocessed.smi:3243-4

> <Gold.Version>
5.8.1

> <Gold.Id.Protein>
6NUR|6NUR_protein|mol2

> <Gold.PLP.Fitness>
48.0686

> <Gold.PLP.PLP>
-44.2263

> <Gold.PLP.part.hbond>
-2.0000

> <Gold.PLP.part.metal>
0.0000

> <Gold.PLP.part.buried>
-7.0294

> <Gold.PLP.part.nonpolar>
-35.4249

> <Gold.PLP.part.repulsive>
0.9173

> <Gold.PLP.ligand.clash>
0.0000

> <Gold.PLP.ligand.torsion>
0.5542

> <Gold.PLP.Chemscore.Hbond>
1.6000

> <Gold.PLP.Chemscore.CHOScore>
0.0000

> <Gold.PLP.Chemscore.Metal>
0.0000

> <Gold.Chemscore.Hbonds>
donor molecule, donor type, donor heavy atom, donor atom, acceptor molecule, acceptor atom, score
      L1  H     9    29       P1  8028  0.78
      P1  H  7989  7998       L1    11  0.94

> <Gold.PLP.Chemscore.Internal.Correction>
0.1508

> <Gold.Rescore>
     Score         DG    S(hbond)    S(metal)    S(lipo)     H(rot)  DE(clash)    DE(int)     intcor
     18.94     -19.70       1.46        0.00     112.34       1.49       0.27       0.49       ----

> <Gold.Chemscore.Fitness>
18.9437

> <Gold.Chemscore.DG>
-19.7001

> <Gold.Chemscore.ZeroCoef>
-5.4800

> <Gold.Chemscore.Hbond>
1.4621

> <Gold.Chemscore.Metal>
0.0000

> <Gold.Chemscore.Lipo>
112.3358

> <Gold.Chemscore.Internal_Hbond>
0.0000

> <Gold.Chemscore.DEClash>
0.2665

> <Gold.Chemscore.DEInternal>
0.4899

> <Gold.Chemscore.Rot>
1.4870

> <Gold.Chemscore.Internal.Correction>
   9.000000E+99

> <Gold.Chemscore.Hbonds>
donor molecule, donor type, donor heavy atom, donor atom, acceptor molecule, acceptor atom, score
      L1  H     9    29       P1  8028  0.74
      P1  H  7989  7998       L1    11  0.45

> <Gold.Chemscore.Hbond.Weighted>
-4.8835

> <Gold.Chemscore.Metal.Weighted>
-0.0000

> <Gold.Chemscore.Lipo.Weighted>
-13.1433

> <Gold.Chemscore.Internal_Hbond.Weighted>
0.0000

> <Gold.Chemscore.DEClash.Weighted>
0.2665

> <Gold.Chemscore.DEInternal.Weighted>
0.4899

> <Gold.Chemscore.Rot.Weighted>
3.8067

> <Gold.Chemscore.Internal.Correction.Weighted>
   9.000000E+99

> <Gold.Protein.RotatedTorsions>
[ 6907 6896 6895 6894 ] final  -46.78 input  -60.11 | X-H torsion
[ 7974 7965 7964 7962 ] final   55.60 input  175.53 | X-H torsion
[ 8008 7997 7996 7995 ] final  127.43 input   59.86 | X-H torsion
[ 10167 10162 10161 10158 ] final  -19.35 input  -65.29 | X-H torsion
[ 10718 10713 10712 10709 ] final   23.30 input   66.30 | X-H torsion
[ 10763 10752 10751 10750 ] final -148.21 input  -60.55 | X-H torsion
[ 11005 11000 10999 10996 ] final   -8.54 input  -57.11 | X-H torsion

> <Gold.Protein.ActiveResidues>
 VAL166  LYS551  ARG553  GLY616  TRP617  ASP618  TYR619  PRO620  LYS621  CYS622 
 ASP623  PHE694  ASN695  SER759  ASP760  ASP761  ALA762  ILE779  LEU786  VAL792 
 PHE793  MET794  SER795  GLU796  ALA797  LYS798  CYS799  TRP800  GLU811  SER814 

> <Gold.Protein.RotatedAtoms>
  150.9077  134.8492  159.7403 H   0  0  0  0  0  0  0  0  0  0  0  0  # atno 6907 bound_to 6896
  152.4927  134.4407  159.9552 H   0  0  0  0  0  0  0  0  0  0  0  0  # atno 6908 bound_to 6896
  151.4452  133.3593  159.2822 H   0  0  0  0  0  0  0  0  0  0  0  0  # atno 6909 bound_to 6896
  145.9487  139.3952  143.0319 H   0  0  0  0  0  0  0  0  0  0  0  0  # atno 7974 bound_to 7965
  156.2890  140.2669  156.2271 H   0  0  0  0  0  0  0  0  0  0  0  0  # atno 8008 bound_to 7997
  155.0109  140.0387  157.2417 H   0  0  0  0  0  0  0  0  0  0  0  0  # atno 8009 bound_to 7997
  154.7519  140.2744  155.6291 H   0  0  0  0  0  0  0  0  0  0  0  0  # atno 8010 bound_to 7997
  140.7267  143.4827  151.0095 H   0  0  0  0  0  0  0  0  0  0  0  0  # atno 10167 bound_to 10162
  157.1642  130.6730  149.6055 H   0  0  0  0  0  0  0  0  0  0  0  0  # atno 10718 bound_to 10713
  154.8245  135.3340  154.6938 H   0  0  0  0  0  0  0  0  0  0  0  0  # atno 10763 bound_to 10752
  153.7566  135.6935  153.4939 H   0  0  0  0  0  0  0  0  0  0  0  0  # atno 10764 bound_to 10752
  153.2139  135.4472  155.0362 H   0  0  0  0  0  0  0  0  0  0  0  0  # atno 10765 bound_to 10752
  140.7245  133.8800  155.8846 H   0  0  0  0  0  0  0  0  0  0  0  0  # atno 11005 bound_to 11000
  145.8201  140.9683  143.0903 LP  0  0  0  0  0  0  0  0  0  0  0  0  # atno 17320 bound_to 7965
  144.6792  140.0030  143.7484 LP  0  0  0  0  0  0  0  0  0  0  0  0  # atno 17321 bound_to 7965
  139.8527  143.7417  152.3177 LP  0  0  0  0  0  0  0  0  0  0  0  0  # atno 17342 bound_to 10162
  139.7605  144.7508  151.0371 LP  0  0  0  0  0  0  0  0  0  0  0  0  # atno 17343 bound_to 10162
  155.9749  130.4701  150.6419 LP  0  0  0  0  0  0  0  0  0  0  0  0  # atno 17370 bound_to 10713
  157.4104  131.0823  151.1226 LP  0  0  0  0  0  0  0  0  0  0  0  0  # atno 17371 bound_to 10713
  140.9974  134.1196  157.4350 LP  0  0  0  0  0  0  0  0  0  0  0  0  # atno 17394 bound_to 11000
  139.8840  135.0058  156.6340 LP  0  0  0  0  0  0  0  0  0  0  0  0  # atno 17395 bound_to 11000

$$$$
