AV-unprocessed.smi:2246|AV-procd|sdf|9085|dock9
  -GOLD-   2272012283D 1   1.00000     0.00000
 Structure written by MMmdl.
 28 29  0  0  0  0  0  0  0  0  2 V2000
  151.1490  139.5066  154.3660 O   0  0  0  0  0  0  0  0  0  0  0  0
  150.7734  139.9569  155.4478 C   0  0  0  0  0  0  0  0  0  0  0  0
  151.3583  139.4948  156.7813 C   0  0  2  0  0  0  0  0  0  0  0  0
  151.0739  138.0575  157.0141 N   0  0  0  0  0  0  0  0  0  0  0  0
  150.7853  137.2298  155.9073 C   0  0  0  0  0  0  0  0  0  0  0  0
  150.5567  135.9090  156.0328 C   0  0  0  0  0  0  0  0  0  0  0  0
  150.2096  134.9307  154.6517 Cl  0  0  0  0  0  0  0  0  0  0  0  0
  150.6221  135.3269  157.3699 C   0  0  0  0  0  0  0  0  0  0  0  0
  150.3985  134.1270  157.5239 O   0  0  0  0  0  0  0  0  0  0  0  0
  150.9378  136.1569  158.4056 N   0  5  0  0  0  0  0  0  0  0  0  0
  151.1803  137.4959  158.2581 C   0  0  0  0  0  0  0  0  0  0  0  0
  151.4862  138.2073  159.2150 O   0  0  0  0  0  0  0  0  0  0  0  0
  150.6593  140.4254  157.7970 C   0  0  0  0  0  0  0  0  0  0  0  0
  149.6174  141.2362  157.0147 C   0  0  0  0  0  0  0  0  0  0  0  0
  149.8403  140.9001  155.6198 N   0  0  0  0  0  0  0  0  0  0  0  0
  149.0734  141.5621  154.5660 C   0  0  0  0  0  0  0  0  0  0  0  0
  147.5816  141.1806  154.5954 C   0  0  0  0  0  0  0  0  0  0  0  0
  146.9953  141.6444  153.4925 F   0  0  0  0  0  0  0  0  0  0  0  0
  147.4190  139.8584  154.6348 F   0  0  0  0  0  0  0  0  0  0  0  0
  146.9838  141.7267  155.6546 F   0  0  0  0  0  0  0  0  0  0  0  0
  152.4247  139.7243  156.7816 H   0  0  0  0  0  0  0  0  0  0  0  0
  150.7719  137.7256  154.9486 H   0  0  0  0  0  0  0  0  0  0  0  0
  150.2124  139.8959  158.6392 H   0  0  0  0  0  0  0  0  0  0  0  0
  151.3968  141.1049  158.2264 H   0  0  0  0  0  0  0  0  0  0  0  0
  148.6043  140.9544  157.3038 H   0  0  0  0  0  0  0  0  0  0  0  0
  149.7351  142.3072  157.1832 H   0  0  0  0  0  0  0  0  0  0  0  0
  149.1762  142.6423  154.6782 H   0  0  0  0  0  0  0  0  0  0  0  0
  149.5028  141.3168  153.5932 H   0  0  0  0  0  0  0  0  0  0  0  0
  1  2  2  0  0  0  0
  2 15  1  0  0  0  0
  2  3  1  0  0  0  0
  3  4  1  0  0  0  0
  3 13  1  0  0  0  0
  3 21  1  0  0  0  0
  4 11  1  0  0  0  0
  4  5  1  0  0  0  0
  5  6  2  0  0  0  0
  5 22  1  0  0  0  0
  6  7  1  0  0  0  0
  6  8  1  0  0  0  0
  8  9  2  0  0  0  0
  8 10  1  0  0  0  0
 10 11  1  0  0  0  0
 11 12  2  0  0  0  0
 13 14  1  0  0  0  0
 13 23  1  0  0  0  0
 13 24  1  0  0  0  0
 14 15  1  0  0  0  0
 14 25  1  0  0  0  0
 14 26  1  0  0  0  0
 15 16  1  0  0  0  0
 16 17  1  0  0  0  0
 16 27  1  0  0  0  0
 16 28  1  0  0  0  0
 17 18  1  0  0  0  0
 17 19  1  0  0  0  0
 17 20  1  0  0  0  0
M  CHG  1  10  -1
M  END
> <s_m_source_file>
AV-unprocessed.smi

> <i_m_source_file_index>
2246

> <i_lp_mmshare_version>
43012

> <i_f3d_flags>
0

> <s_epik_input>
RkMoRikoRilbQ0gyXU4xW0NIMl1bQ0gyXVtDQEBIXShDMT1PKW4yW2NIXWMoQ2wpYyg9TylbbkhdYzI9Tw==

> <s_epik_cmdline>
J2VwaWtfcHl0aG9uJywgJy1waCcsICc3LjAnLCAnLXRuJywgJzgnLCAnLW1hJywgJzIwMCcsICctbWV0YWxfYmluZGluZycsICctaW1hZScsICc8aW5maWxlLm1hZT4nLCAnLW9tYWUnLCAnPG91dGZpbGUubWFlPic=

> <r_epik_Ionization_Penalty>
1.33611

> <r_epik_Ionization_Penalty_Charging>
6.88308e-09

> <r_epik_Ionization_Penalty_Neutral>
1.33611

> <r_epik_State_Penalty>
1.41295

> <r_epik_Charging_Adjusted_Penalty>
1.41295

> <i_epik_Tot_Q>
-1

> <i_epik_Tot_abs_Q>
1

> <r_epik_Metal_State_Penalty>
0.00581136

> <b_epik_Metal_Only>
0

> <s_lp_Force_Field>
OPLS_2005

> <r_lp_Energy>
31.0989

> <b_lp_Chiralities_Consistent>
1

> <s_lp_Variant>
AV-unprocessed.smi:2246-4

> <Gold.Version>
5.8.1

> <Gold.Id.Protein>
6NUR|6NUR_protein|mol2

> <Gold.PLP.Fitness>
33.9450

> <Gold.PLP.PLP>
-25.8463

> <Gold.PLP.part.hbond>
-3.0775

> <Gold.PLP.part.metal>
0.0000

> <Gold.PLP.part.buried>
-0.4959

> <Gold.PLP.part.nonpolar>
-21.4782

> <Gold.PLP.part.repulsive>
0.1262

> <Gold.PLP.ligand.clash>
0.0000

> <Gold.PLP.ligand.torsion>
0.5767

> <Gold.PLP.Chemscore.Hbond>
3.0480

> <Gold.PLP.Chemscore.CHOScore>
0.0000

> <Gold.PLP.Chemscore.Metal>
0.0000

> <Gold.Chemscore.Hbonds>
donor molecule, donor type, donor heavy atom, donor atom, acceptor molecule, acceptor atom, score
      P1  H  6896  6907       L1     9  0.59
      P1  H  6896  6908       L1    10  1.18
      P1  H  7989  7998       L1     1  1.00

> <Gold.PLP.Chemscore.Internal.Correction>
0.1082

> <Gold.Rescore>
     Score         DG    S(hbond)    S(metal)    S(lipo)     H(rot)  DE(clash)    DE(int)     intcor
      8.28     -12.17       1.74        0.00      39.14       1.45       0.39       3.50       ----

> <Gold.Chemscore.Fitness>
8.2784

> <Gold.Chemscore.DG>
-12.1715

> <Gold.Chemscore.ZeroCoef>
-5.4800

> <Gold.Chemscore.Hbond>
1.7420

> <Gold.Chemscore.Metal>
0.0000

> <Gold.Chemscore.Lipo>
39.1365

> <Gold.Chemscore.Internal_Hbond>
0.0000

> <Gold.Chemscore.DEClash>
0.3908

> <Gold.Chemscore.DEInternal>
3.5022

> <Gold.Chemscore.Rot>
1.4476

> <Gold.Chemscore.Internal.Correction>
   9.000000E+99

> <Gold.Chemscore.Hbonds>
donor molecule, donor type, donor heavy atom, donor atom, acceptor molecule, acceptor atom, score
      P1  H  6896  6907       L1     9  0.42
      P1  H  6896  6908       L1    10  0.36
      P1  H  7989  7998       L1     1  0.50

> <Gold.Chemscore.Hbond.Weighted>
-5.8184

> <Gold.Chemscore.Metal.Weighted>
-0.0000

> <Gold.Chemscore.Lipo.Weighted>
-4.5790

> <Gold.Chemscore.Internal_Hbond.Weighted>
0.0000

> <Gold.Chemscore.DEClash.Weighted>
0.3908

> <Gold.Chemscore.DEInternal.Weighted>
3.5022

> <Gold.Chemscore.Rot.Weighted>
3.7059

> <Gold.Chemscore.Internal.Correction.Weighted>
   9.000000E+99

> <Gold.Protein.RotatedTorsions>
[ 6907 6896 6895 6894 ] final -139.07 input  -60.11 | X-H torsion
[ 7974 7965 7964 7962 ] final -115.24 input  175.53 | X-H torsion
[ 8008 7997 7996 7995 ] final  -22.38 input   59.86 | X-H torsion
[ 10167 10162 10161 10158 ] final  -25.96 input  -65.29 | X-H torsion
[ 10718 10713 10712 10709 ] final  -50.17 input   66.30 | X-H torsion
[ 10763 10752 10751 10750 ] final   68.08 input  -60.55 | X-H torsion
[ 11005 11000 10999 10996 ] final  -31.83 input  -57.11 | X-H torsion

> <Gold.Protein.ActiveResidues>
 VAL166  LYS551  ARG553  GLY616  TRP617  ASP618  TYR619  PRO620  LYS621  CYS622 
 ASP623  PHE694  ASN695  SER759  ASP760  ASP761  ALA762  ILE779  LEU786  VAL792 
 PHE793  MET794  SER795  GLU796  ALA797  LYS798  CYS799  TRP800  GLU811  SER814 

> <Gold.Protein.RotatedAtoms>
  151.0431  133.5689  159.2649 H   0  0  0  0  0  0  0  0  0  0  0  0  # atno 6907 bound_to 6896
  151.2728  135.0689  159.9150 H   0  0  0  0  0  0  0  0  0  0  0  0  # atno 6908 bound_to 6896
  152.5368  134.0158  159.8013 H   0  0  0  0  0  0  0  0  0  0  0  0  # atno 6909 bound_to 6896
  145.1108  140.8610  143.3871 H   0  0  0  0  0  0  0  0  0  0  0  0  # atno 7974 bound_to 7965
  154.4648  140.2009  156.0148 H   0  0  0  0  0  0  0  0  0  0  0  0  # atno 8008 bound_to 7997
  156.0906  140.3258  155.7782 H   0  0  0  0  0  0  0  0  0  0  0  0  # atno 8009 bound_to 7997
  155.4962  140.0550  157.2937 H   0  0  0  0  0  0  0  0  0  0  0  0  # atno 8010 bound_to 7997
  140.7284  143.4219  151.0937 H   0  0  0  0  0  0  0  0  0  0  0  0  # atno 10167 bound_to 10162
  156.1825  130.4151  149.9486 H   0  0  0  0  0  0  0  0  0  0  0  0  # atno 10718 bound_to 10713
  153.0217  135.5260  154.7079 H   0  0  0  0  0  0  0  0  0  0  0  0  # atno 10763 bound_to 10752
  154.6169  135.2884  155.0371 H   0  0  0  0  0  0  0  0  0  0  0  0  # atno 10764 bound_to 10752
  154.1372  135.6583  153.4987 H   0  0  0  0  0  0  0  0  0  0  0  0  # atno 10765 bound_to 10752
  140.9501  133.7226  156.1207 H   0  0  0  0  0  0  0  0  0  0  0  0  # atno 11005 bound_to 11000
  145.0850  139.2932  143.5764 LP  0  0  0  0  0  0  0  0  0  0  0  0  # atno 17320 bound_to 7965
  146.3526  140.0368  142.8646 LP  0  0  0  0  0  0  0  0  0  0  0  0  # atno 17321 bound_to 7965
  139.7866  143.8279  152.3146 LP  0  0  0  0  0  0  0  0  0  0  0  0  # atno 17342 bound_to 10162
  139.8248  144.7280  150.9526 LP  0  0  0  0  0  0  0  0  0  0  0  0  # atno 17343 bound_to 10162
  156.7252  130.9022  151.3621 LP  0  0  0  0  0  0  0  0  0  0  0  0  # atno 17370 bound_to 10713
  157.6877  130.9202  150.0431 LP  0  0  0  0  0  0  0  0  0  0  0  0  # atno 17371 bound_to 10713
  140.7615  134.3934  157.5525 LP  0  0  0  0  0  0  0  0  0  0  0  0  # atno 17394 bound_to 11000
  139.8845  134.8964  156.2701 LP  0  0  0  0  0  0  0  0  0  0  0  0  # atno 17395 bound_to 11000

$$$$
