AV-unprocessed.smi:478|AV-procd|sdf|2671|dock2
  -GOLD-   2262023 83D 1   1.00000     0.00000
 Structure written by MMmdl.
 41 42  0  0  0  0  0  0  0  0  1 V2000
  150.1297  141.2493  157.0615 C   0  0  0  0  0  0  0  0  0  0  0  0
  149.9260  140.2277  156.0292 N   0  0  0  0  0  0  0  0  0  0  0  0
  149.2223  140.7426  154.8492 C   0  0  0  0  0  0  0  0  0  0  0  0
  151.2466  139.1435  155.7460 S   0  0  0  0  0  0  0  0  0  0  0  0
  151.3946  139.0015  154.2891 O   0  0  0  0  0  0  0  0  0  0  0  0
  152.3851  139.6107  156.5528 O   0  0  0  0  0  0  0  0  0  0  0  0
  150.7375  137.5346  156.4099 C   0  0  0  0  0  0  0  0  0  0  0  0
  150.3105  137.4073  157.7847 C   0  0  0  0  0  0  0  0  0  0  0  0
  149.7977  136.2432  158.2303 C   0  0  0  0  0  0  0  0  0  0  0  0
  149.6518  135.0783  157.3494 C   0  0  0  0  0  0  0  0  0  0  0  0
  149.1980  134.0069  157.7522 O   0  0  0  0  0  0  0  0  0  0  0  0
  150.0455  135.2591  156.0509 N   0  0  0  0  0  0  0  0  0  0  0  0
  149.9262  134.1691  155.0690 C   0  0  0  0  0  0  0  0  0  0  0  0
  148.4660  133.7637  154.8235 C   0  0  0  0  0  0  0  0  0  0  0  0
  147.8511  133.1676  155.7109 O   0  0  0  0  0  0  0  0  0  0  0  0
  147.9677  134.1112  153.6141 N   0  0  0  0  0  0  0  0  0  0  0  0
  146.7462  133.9134  153.0630 C   0  0  0  0  0  0  0  0  0  0  0  0
  145.8855  133.2759  153.6677 O   0  0  0  0  0  0  0  0  0  0  0  0
  146.5310  134.4420  151.8439 N   0  0  0  0  0  0  0  0  0  0  0  0
  145.4022  134.1854  151.0096 C   0  0  0  0  0  0  0  0  0  0  0  0
  144.5929  135.3772  150.5459 C   0  0  0  0  0  0  0  0  0  0  0  0
  144.0268  134.4481  151.5834 C   0  0  0  0  0  0  0  0  0  0  0  0
  150.5613  136.4862  155.5889 C   0  0  0  0  0  0  0  0  0  0  0  0
  149.1989  141.7757  157.2749 H   0  0  0  0  0  0  0  0  0  0  0  0
  150.8760  141.9737  156.7337 H   0  0  0  0  0  0  0  0  0  0  0  0
  150.4749  140.7910  157.9882 H   0  0  0  0  0  0  0  0  0  0  0  0
  148.3188  141.2781  155.1423 H   0  0  0  0  0  0  0  0  0  0  0  0
  148.9272  139.9257  154.1917 H   0  0  0  0  0  0  0  0  0  0  0  0
  149.8664  141.4227  154.2904 H   0  0  0  0  0  0  0  0  0  0  0  0
  150.4047  138.2445  158.4605 H   0  0  0  0  0  0  0  0  0  0  0  0
  149.4853  136.1636  159.2613 H   0  0  0  0  0  0  0  0  0  0  0  0
  150.3615  134.4623  154.1126 H   0  0  0  0  0  0  0  0  0  0  0  0
  150.5108  133.3059  155.3937 H   0  0  0  0  0  0  0  0  0  0  0  0
  148.6164  134.6046  153.0182 H   0  0  0  0  0  0  0  0  0  0  0  0
  147.2306  135.0724  151.4776 H   0  0  0  0  0  0  0  0  0  0  0  0
  145.4775  133.3579  150.3054 H   0  0  0  0  0  0  0  0  0  0  0  0
  144.9055  136.3659  150.8768 H   0  0  0  0  0  0  0  0  0  0  0  0
  144.1658  135.3349  149.5460 H   0  0  0  0  0  0  0  0  0  0  0  0
  143.2211  133.7841  151.2766 H   0  0  0  0  0  0  0  0  0  0  0  0
  143.9633  134.8158  152.6058 H   0  0  0  0  0  0  0  0  0  0  0  0
  150.7832  136.5200  154.5320 H   0  0  0  0  0  0  0  0  0  0  0  0
  1  2  1  0  0  0  0
  1 24  1  0  0  0  0
  1 25  1  0  0  0  0
  1 26  1  0  0  0  0
  2  3  1  0  0  0  0
  2  4  1  0  0  0  0
  3 27  1  0  0  0  0
  3 28  1  0  0  0  0
  3 29  1  0  0  0  0
  4  5  2  0  0  0  0
  4  6  2  0  0  0  0
  4  7  1  0  0  0  0
  7 23  2  0  0  0  0
  7  8  1  0  0  0  0
  8  9  2  0  0  0  0
  8 30  1  0  0  0  0
  9 10  1  0  0  0  0
  9 31  1  0  0  0  0
 10 11  2  0  0  0  0
 10 12  1  0  0  0  0
 12 13  1  0  0  0  0
 12 23  1  0  0  0  0
 13 14  1  0  0  0  0
 13 32  1  0  0  0  0
 13 33  1  0  0  0  0
 14 15  2  0  0  0  0
 14 16  1  0  0  0  0
 16 17  1  0  0  0  0
 16 34  1  0  0  0  0
 17 18  2  0  0  0  0
 17 19  1  0  0  0  0
 19 20  1  0  0  0  0
 19 35  1  0  0  0  0
 20 22  1  0  0  0  0
 20 21  1  0  0  0  0
 20 36  1  0  0  0  0
 21 22  1  0  0  0  0
 21 37  1  0  0  0  0
 21 38  1  0  0  0  0
 22 39  1  0  0  0  0
 22 40  1  0  0  0  0
 23 41  1  0  0  0  0
M  END
> <s_m_source_file>
AV-unprocessed.smi

> <i_m_source_file_index>
478

> <i_lp_mmshare_version>
43012

> <i_f3d_flags>
0

> <s_epik_input>
W0NIM11OKFtDSDNdKVMoPU8pKD1PKWMxW2NIXVtjSF1jKD1PKW4oW2NIXTEpW0NIMl1DKD1PKVtOSF1DKD1PKVtOSF1bQ0hdMltDSDJdW0NIMl0y

> <s_epik_cmdline>
J2VwaWtfcHl0aG9uJywgJy1waCcsICc3LjAnLCAnLXRuJywgJzgnLCAnLW1hJywgJzIwMCcsICctbWV0YWxfYmluZGluZycsICctaW1hZScsICc8aW5maWxlLm1hZT4nLCAnLW9tYWUnLCAnPG91dGZpbGUubWFlPic=

> <r_lp_tautomer_probability>
1

> <r_epik_Ionization_Penalty>
3.37124e-05

> <r_epik_Ionization_Penalty_Charging>
7.23904e-09

> <r_epik_Ionization_Penalty_Neutral>
3.37051e-05

> <r_epik_State_Penalty>
-0

> <r_epik_Charging_Adjusted_Penalty>
7.23904e-09

> <i_epik_Tot_Q>
0

> <i_epik_Tot_abs_Q>
0

> <r_epik_Metal_State_Penalty>
-0

> <b_epik_Metal_Only>
0

> <s_lp_Force_Field>
OPLS_2005

> <r_lp_Energy>
28.3578

> <b_lp_Chiralities_Consistent>
1

> <s_lp_Variant>
AV-unprocessed.smi:478-1

> <Gold.Version>
5.8.1

> <Gold.Id.Protein>
6NUR|6NUR_protein|mol2

> <Gold.PLP.Fitness>
42.6749

> <Gold.PLP.PLP>
-28.1806

> <Gold.PLP.part.hbond>
-5.0000

> <Gold.PLP.part.metal>
0.0000

> <Gold.PLP.part.buried>
-3.6190

> <Gold.PLP.part.nonpolar>
-21.0809

> <Gold.PLP.part.repulsive>
0.3076

> <Gold.PLP.ligand.clash>
0.0000

> <Gold.PLP.ligand.torsion>
1.5033

> <Gold.PLP.Chemscore.Hbond>
4.9440

> <Gold.PLP.Chemscore.CHOScore>
0.0000

> <Gold.PLP.Chemscore.Metal>
0.0000

> <Gold.Chemscore.Hbonds>
donor molecule, donor type, donor heavy atom, donor atom, acceptor molecule, acceptor atom, score
      L1  H    16    34       P1  7948  0.91
      L1  H    19    35       P1  7948  0.90
      P1  H  6896  6909       L1    11  0.31
      P1  H  7989  7998       L1     5  1.00
      P1  H  7997  8008       L1     6  1.00

> <Gold.PLP.Chemscore.Internal.Correction>
2.6688

> <Gold.Rescore>
     Score         DG    S(hbond)    S(metal)    S(lipo)     H(rot)  DE(clash)    DE(int)     intcor
     14.03     -19.95       4.25        0.00      45.04       1.95       0.49       5.44       ----

> <Gold.Chemscore.Fitness>
14.0276

> <Gold.Chemscore.DG>
-19.9522

> <Gold.Chemscore.ZeroCoef>
-5.4800

> <Gold.Chemscore.Hbond>
4.2466

> <Gold.Chemscore.Metal>
0.0000

> <Gold.Chemscore.Lipo>
45.0437

> <Gold.Chemscore.Internal_Hbond>
0.0000

> <Gold.Chemscore.DEClash>
0.4866

> <Gold.Chemscore.DEInternal>
5.4380

> <Gold.Chemscore.Rot>
1.9459

> <Gold.Chemscore.Internal.Correction>
   9.000000E+99

> <Gold.Chemscore.Hbonds>
donor molecule, donor type, donor heavy atom, donor atom, acceptor molecule, acceptor atom, score
      L1  H    16    34       P1  7948  0.19
      L1  H    19    35       P1  7948  0.65
      P1  H  6896  6909       L1    11  0.01
      P1  H  7989  7998       L1     5  0.64
      P1  H  7997  8008       L1     6  0.94

> <Gold.Chemscore.Hbond.Weighted>
-14.1836

> <Gold.Chemscore.Metal.Weighted>
-0.0000

> <Gold.Chemscore.Lipo.Weighted>
-5.2701

> <Gold.Chemscore.Internal_Hbond.Weighted>
0.0000

> <Gold.Chemscore.DEClash.Weighted>
0.4866

> <Gold.Chemscore.DEInternal.Weighted>
5.4380

> <Gold.Chemscore.Rot.Weighted>
4.9815

> <Gold.Chemscore.Internal.Correction.Weighted>
   9.000000E+99

> <Gold.Protein.RotatedTorsions>
[ 6907 6896 6895 6894 ] final   16.37 input  -60.11 | X-H torsion
[ 7974 7965 7964 7962 ] final  123.56 input  175.53 | X-H torsion
[ 8008 7997 7996 7995 ] final  -50.71 input   59.86 | X-H torsion
[ 10167 10162 10161 10158 ] final -145.59 input  -65.29 | X-H torsion
[ 10718 10713 10712 10709 ] final -136.12 input   66.30 | X-H torsion
[ 10763 10752 10751 10750 ] final  -66.06 input  -60.55 | X-H torsion
[ 11005 11000 10999 10996 ] final   14.60 input  -57.11 | X-H torsion

> <Gold.Protein.ActiveResidues>
 VAL166  LYS551  ARG553  GLY616  TRP617  ASP618  TYR619  PRO620  LYS621  CYS622 
 ASP623  PHE694  ASN695  SER759  ASP760  ASP761  ALA762  ILE779  LEU786  VAL792 
 PHE793  MET794  SER795  GLU796  ALA797  LYS798  CYS799  TRP800  GLU811  SER814 

> <Gold.Protein.RotatedAtoms>
  151.8328  135.0616  160.0438 H   0  0  0  0  0  0  0  0  0  0  0  0  # atno 6907 bound_to 6896
  152.2867  133.5518  159.5540 H   0  0  0  0  0  0  0  0  0  0  0  0  # atno 6908 bound_to 6896
  150.7212  134.0402  159.3805 H   0  0  0  0  0  0  0  0  0  0  0  0  # atno 6909 bound_to 6896
  145.0946  139.3562  143.4843 H   0  0  0  0  0  0  0  0  0  0  0  0  # atno 7974 bound_to 7965
  154.4067  140.1265  156.4710 H   0  0  0  0  0  0  0  0  0  0  0  0  # atno 8008 bound_to 7997
  155.7179  140.3493  155.4983 H   0  0  0  0  0  0  0  0  0  0  0  0  # atno 8009 bound_to 7997
  155.9241  140.1058  157.1174 H   0  0  0  0  0  0  0  0  0  0  0  0  # atno 8010 bound_to 7997
  139.7792  143.8126  152.2636 H   0  0  0  0  0  0  0  0  0  0  0  0  # atno 10167 bound_to 10162
  156.2736  130.7280  151.1254 H   0  0  0  0  0  0  0  0  0  0  0  0  # atno 10718 bound_to 10713
  154.3543  135.6130  153.5658 H   0  0  0  0  0  0  0  0  0  0  0  0  # atno 10763 bound_to 10752
  152.9796  135.5800  154.4707 H   0  0  0  0  0  0  0  0  0  0  0  0  # atno 10764 bound_to 10752
  154.4433  135.2851  155.1809 H   0  0  0  0  0  0  0  0  0  0  0  0  # atno 10765 bound_to 10752
  140.4677  134.1063  155.7727 H   0  0  0  0  0  0  0  0  0  0  0  0  # atno 11005 bound_to 11000
  146.3531  140.0795  142.8618 LP  0  0  0  0  0  0  0  0  0  0  0  0  # atno 17320 bound_to 7965
  145.1026  140.9355  143.4703 LP  0  0  0  0  0  0  0  0  0  0  0  0  # atno 17321 bound_to 7965
  139.8183  144.7306  150.9606 LP  0  0  0  0  0  0  0  0  0  0  0  0  # atno 17342 bound_to 10162
  140.7817  143.4183  151.0882 LP  0  0  0  0  0  0  0  0  0  0  0  0  # atno 17343 bound_to 10162
  157.7292  131.0626  150.5786 LP  0  0  0  0  0  0  0  0  0  0  0  0  # atno 17370 bound_to 10713
  156.5884  130.4323  149.5947 LP  0  0  0  0  0  0  0  0  0  0  0  0  # atno 17371 bound_to 10713
  141.1592  133.8826  157.1895 LP  0  0  0  0  0  0  0  0  0  0  0  0  # atno 17394 bound_to 11000
  139.9905  135.0066  156.9963 LP  0  0  0  0  0  0  0  0  0  0  0  0  # atno 17395 bound_to 11000

$$$$
