AV-unprocessed.smi:2157|AV-procd|sdf|8783|dock3
  -GOLD-   2272011563D 1   1.00000     0.00000
 Structure written by MMmdl.
 41 42  0  0  0  0  0  0  0  0  1 V2000
  144.9735  143.3786  155.1609 C   0  0  0  0  0  0  0  0  0  0  0  0
  146.3822  142.7701  155.1145 C   0  0  2  0  0  0  0  0  0  0  0  0
  146.7020  142.2003  153.7194 C   0  0  0  0  0  0  0  0  0  0  0  0
  148.1093  141.5854  153.6697 C   0  0  0  0  0  0  0  0  0  0  0  0
  148.2833  140.5025  154.7474 C   0  0  0  0  0  0  0  0  0  0  0  0
  147.9583  141.0315  156.1606 C   0  0  1  0  0  0  0  0  0  0  0  0
  148.9729  141.9758  156.6258 N   0  0  0  0  0  0  0  0  0  0  0  0
  150.2529  141.6759  156.8926 C   0  0  0  0  0  0  0  0  0  0  0  0
  150.7243  140.5460  156.7570 O   0  0  0  0  0  0  0  0  0  0  0  0
  151.1320  142.8432  157.3621 C   0  0  0  0  0  0  0  0  0  0  0  0
  151.8030  142.5803  158.6415 N   0  0  0  0  0  0  0  0  0  0  0  0
  152.5515  141.4284  158.7994 C   0  0  0  0  0  0  0  0  0  0  0  0
  153.1848  141.1033  159.9476 C   0  0  0  0  0  0  0  0  0  0  0  0
  153.1135  141.9732  161.1156 C   0  0  0  0  0  0  0  0  0  0  0  0
  153.6688  141.7082  162.1821 O   0  0  0  0  0  0  0  0  0  0  0  0
  152.3472  143.1483  160.9239 N   0  0  0  0  0  0  0  0  0  0  0  0
  152.1989  144.0813  162.0214 C   0  0  0  0  0  0  0  0  0  0  0  0
  151.6818  143.4786  159.7231 C   0  0  0  0  0  0  0  0  0  0  0  0
  151.0131  144.5096  159.6137 O   0  0  0  0  0  0  0  0  0  0  0  0
  146.5623  141.6854  156.1978 C   0  0  0  0  0  0  0  0  0  0  0  0
  144.2096  142.6262  154.9622 H   0  0  0  0  0  0  0  0  0  0  0  0
  144.8625  144.1694  154.4186 H   0  0  0  0  0  0  0  0  0  0  0  0
  144.7655  143.8139  156.1387 H   0  0  0  0  0  0  0  0  0  0  0  0
  147.0893  143.5753  155.3182 H   0  0  0  0  0  0  0  0  0  0  0  0
  145.9651  141.4412  153.4531 H   0  0  0  0  0  0  0  0  0  0  0  0
  146.6208  142.9857  152.9674 H   0  0  0  0  0  0  0  0  0  0  0  0
  148.2917  141.1568  152.6840 H   0  0  0  0  0  0  0  0  0  0  0  0
  148.8567  142.3673  153.8079 H   0  0  0  0  0  0  0  0  0  0  0  0
  147.6192  139.6678  154.5195 H   0  0  0  0  0  0  0  0  0  0  0  0
  149.2954  140.0983  154.7116 H   0  0  0  0  0  0  0  0  0  0  0  0
  147.9452  140.1869  156.8517 H   0  0  0  0  0  0  0  0  0  0  0  0
  148.6747  142.9312  156.7594 H   0  0  0  0  0  0  0  0  0  0  0  0
  151.8737  143.0421  156.5877 H   0  0  0  0  0  0  0  0  0  0  0  0
  150.5312  143.7516  157.4345 H   0  0  0  0  0  0  0  0  0  0  0  0
  152.6313  140.7479  157.9643 H   0  0  0  0  0  0  0  0  0  0  0  0
  153.7502  140.1849  160.0039 H   0  0  0  0  0  0  0  0  0  0  0  0
  152.4880  145.0686  161.6564 H   0  0  0  0  0  0  0  0  0  0  0  0
  152.8379  143.8106  162.8612 H   0  0  0  0  0  0  0  0  0  0  0  0
  151.1496  144.0579  162.3198 H   0  0  0  0  0  0  0  0  0  0  0  0
  146.3769  142.1077  157.1866 H   0  0  0  0  0  0  0  0  0  0  0  0
  145.8075  140.9106  156.0558 H   0  0  0  0  0  0  0  0  0  0  0  0
  1  2  1  0  0  0  0
  1 21  1  0  0  0  0
  1 22  1  0  0  0  0
  1 23  1  0  0  0  0
  2 20  1  0  0  0  0
  2  3  1  0  0  0  0
  2 24  1  0  0  0  0
  3  4  1  0  0  0  0
  3 25  1  0  0  0  0
  3 26  1  0  0  0  0
  4  5  1  0  0  0  0
  4 27  1  0  0  0  0
  4 28  1  0  0  0  0
  5  6  1  0  0  0  0
  5 29  1  0  0  0  0
  5 30  1  0  0  0  0
  6  7  1  0  0  0  0
  6 20  1  0  0  0  0
  6 31  1  0  0  0  0
  7  8  1  0  0  0  0
  7 32  1  0  0  0  0
  8  9  2  0  0  0  0
  8 10  1  0  0  0  0
 10 11  1  0  0  0  0
 10 33  1  0  0  0  0
 10 34  1  0  0  0  0
 11 18  1  0  0  0  0
 11 12  1  0  0  0  0
 12 13  2  0  0  0  0
 12 35  1  0  0  0  0
 13 14  1  0  0  0  0
 13 36  1  0  0  0  0
 14 15  2  0  0  0  0
 14 16  1  0  0  0  0
 16 17  1  0  0  0  0
 16 18  1  0  0  0  0
 17 37  1  0  0  0  0
 17 38  1  0  0  0  0
 17 39  1  0  0  0  0
 18 19  2  0  0  0  0
 20 40  1  0  0  0  0
 20 41  1  0  0  0  0
M  END
> <s_m_source_file>
AV-unprocessed.smi

> <i_m_source_file_index>
2157

> <i_lp_mmshare_version>
43012

> <i_f3d_flags>
0

> <s_epik_input>
W0NIM11bQ0BASF0xW0NIMl1bQ0gyXVtDSDJdW0NASF0oW0NIMl0xKVtOSF1DKD1PKVtDSDJdbjJbY0hdW2NIXWMoPU8pbihbQ0gzXSljMj1P

> <s_epik_cmdline>
J2VwaWtfcHl0aG9uJywgJy1waCcsICc3LjAnLCAnLXRuJywgJzgnLCAnLW1hJywgJzIwMCcsICctbWV0YWxfYmluZGluZycsICctaW1hZScsICc8aW5maWxlLm1hZT4nLCAnLW9tYWUnLCAnPG91dGZpbGUubWFlPic=

> <r_lp_tautomer_probability>
1

> <r_epik_Ionization_Penalty>
3.1838e-08

> <r_epik_Ionization_Penalty_Charging>
1.27911e-08

> <r_epik_Ionization_Penalty_Neutral>
1.90469e-08

> <r_epik_State_Penalty>
-0

> <r_epik_Charging_Adjusted_Penalty>
1.27911e-08

> <i_epik_Tot_Q>
0

> <i_epik_Tot_abs_Q>
0

> <r_epik_Metal_State_Penalty>
-0

> <b_epik_Metal_Only>
0

> <s_lp_Force_Field>
OPLS_2005

> <r_lp_Energy>
16.0352

> <b_lp_Chiralities_Consistent>
1

> <s_lp_Variant>
AV-unprocessed.smi:2157-1

> <Gold.Version>
5.8.1

> <Gold.Id.Protein>
6NUR|6NUR_protein|mol2

> <Gold.PLP.Fitness>
43.3527

> <Gold.PLP.PLP>
-41.6382

> <Gold.PLP.part.hbond>
-1.5152

> <Gold.PLP.part.metal>
0.0000

> <Gold.PLP.part.buried>
-5.8783

> <Gold.PLP.part.nonpolar>
-32.2393

> <Gold.PLP.part.repulsive>
0.1319

> <Gold.PLP.ligand.clash>
0.0000

> <Gold.PLP.ligand.torsion>
0.1300

> <Gold.PLP.Chemscore.Hbond>
0.6552

> <Gold.PLP.Chemscore.CHOScore>
0.0000

> <Gold.PLP.Chemscore.Metal>
0.0000

> <Gold.Chemscore.Hbonds>
donor molecule, donor type, donor heavy atom, donor atom, acceptor molecule, acceptor atom, score
      L1  H     7    32       P1  8028  0.58

> <Gold.PLP.Chemscore.Internal.Correction>
0.0090

> <Gold.Rescore>
     Score         DG    S(hbond)    S(metal)    S(lipo)     H(rot)  DE(clash)    DE(int)     intcor
     11.61     -13.14       0.74        0.00      77.65       1.52       0.23       1.30       ----

> <Gold.Chemscore.Fitness>
11.6133

> <Gold.Chemscore.DG>
-13.1391

> <Gold.Chemscore.ZeroCoef>
-5.4800

> <Gold.Chemscore.Hbond>
0.7411

> <Gold.Chemscore.Metal>
0.0000

> <Gold.Chemscore.Lipo>
77.6550

> <Gold.Chemscore.Internal_Hbond>
0.0000

> <Gold.Chemscore.DEClash>
0.2251

> <Gold.Chemscore.DEInternal>
1.3007

> <Gold.Chemscore.Rot>
1.5242

> <Gold.Chemscore.Internal.Correction>
   9.000000E+99

> <Gold.Chemscore.Hbonds>
donor molecule, donor type, donor heavy atom, donor atom, acceptor molecule, acceptor atom, score
      L1  H     7    32       P1  8028  0.49

> <Gold.Chemscore.Hbond.Weighted>
-2.4753

> <Gold.Chemscore.Metal.Weighted>
-0.0000

> <Gold.Chemscore.Lipo.Weighted>
-9.0856

> <Gold.Chemscore.Internal_Hbond.Weighted>
0.0000

> <Gold.Chemscore.DEClash.Weighted>
0.2251

> <Gold.Chemscore.DEInternal.Weighted>
1.3007

> <Gold.Chemscore.Rot.Weighted>
3.9019

> <Gold.Chemscore.Internal.Correction.Weighted>
   9.000000E+99

> <Gold.Protein.RotatedTorsions>
[ 6907 6896 6895 6894 ] final -123.50 input  -60.11 | X-H torsion
[ 7974 7965 7964 7962 ] final -153.06 input  175.53 | X-H torsion
[ 8008 7997 7996 7995 ] final  -55.07 input   59.86 | X-H torsion
[ 10167 10162 10161 10158 ] final  -86.82 input  -65.29 | X-H torsion
[ 10718 10713 10712 10709 ] final -136.69 input   66.30 | X-H torsion
[ 10763 10752 10751 10750 ] final   48.16 input  -60.55 | X-H torsion
[ 11005 11000 10999 10996 ] final -120.37 input  -57.11 | X-H torsion

> <Gold.Protein.ActiveResidues>
 VAL166  LYS551  ARG553  GLY616  TRP617  ASP618  TYR619  PRO620  LYS621  CYS622 
 ASP623  PHE694  ASN695  SER759  ASP760  ASP761  ALA762  ILE779  LEU786  VAL792 
 PHE793  MET794  SER795  GLU796  ALA797  LYS798  CYS799  TRP800  GLU811  SER814 

> <Gold.Protein.RotatedAtoms>
  150.8676  133.7551  159.2971 H   0  0  0  0  0  0  0  0  0  0  0  0  # atno 6907 bound_to 6896
  151.5174  135.1065  159.9879 H   0  0  0  0  0  0  0  0  0  0  0  0  # atno 6908 bound_to 6896
  152.4672  133.7905  159.6955 H   0  0  0  0  0  0  0  0  0  0  0  0  # atno 6909 bound_to 6896
  144.7760  140.4577  143.5873 H   0  0  0  0  0  0  0  0  0  0  0  0  # atno 7974 bound_to 7965
  154.4183  140.1161  156.5418 H   0  0  0  0  0  0  0  0  0  0  0  0  # atno 8008 bound_to 7997
  155.6500  140.3496  155.4726 H   0  0  0  0  0  0  0  0  0  0  0  0  # atno 8009 bound_to 7997
  155.9800  140.1158  157.0725 H   0  0  0  0  0  0  0  0  0  0  0  0  # atno 8010 bound_to 7997
  140.3904  143.2707  151.9272 H   0  0  0  0  0  0  0  0  0  0  0  0  # atno 10167 bound_to 10162
  156.2798  130.7314  151.1308 H   0  0  0  0  0  0  0  0  0  0  0  0  # atno 10718 bound_to 10713
  152.9794  135.5953  154.3880 H   0  0  0  0  0  0  0  0  0  0  0  0  # atno 10763 bound_to 10752
  154.3539  135.2767  155.2359 H   0  0  0  0  0  0  0  0  0  0  0  0  # atno 10764 bound_to 10752
  154.4386  135.6018  153.6170 H   0  0  0  0  0  0  0  0  0  0  0  0  # atno 10765 bound_to 10752
  141.0149  134.0211  157.3364 H   0  0  0  0  0  0  0  0  0  0  0  0  # atno 11005 bound_to 11000
  145.6184  139.1521  143.3036 LP  0  0  0  0  0  0  0  0  0  0  0  0  # atno 17320 bound_to 7965
  146.1940  140.6295  142.9132 LP  0  0  0  0  0  0  0  0  0  0  0  0  # atno 17321 bound_to 7965
  139.4789  144.5733  151.8053 LP  0  0  0  0  0  0  0  0  0  0  0  0  # atno 17342 bound_to 10162
  140.4845  144.1400  150.5938 LP  0  0  0  0  0  0  0  0  0  0  0  0  # atno 17343 bound_to 10162
  157.7311  131.0611  150.5695 LP  0  0  0  0  0  0  0  0  0  0  0  0  # atno 17370 bound_to 10713
  156.5800  130.4302  149.5981 LP  0  0  0  0  0  0  0  0  0  0  0  0  # atno 17371 bound_to 10713
  139.9111  135.0190  156.7694 LP  0  0  0  0  0  0  0  0  0  0  0  0  # atno 17394 bound_to 11000
  140.6672  133.9592  155.7837 LP  0  0  0  0  0  0  0  0  0  0  0  0  # atno 17395 bound_to 11000

$$$$
