AV-unprocessed.smi:922|AV-procd|sdf|4176|dock7
  -GOLD-   22720 2 83D 1   1.00000     0.00000
 Structure written by MMmdl.
 33 34  0  0  0  0  0  0  0  0  1 V2000
  153.3592  141.1608  160.3418 C   0  0  0  0  0  0  0  0  0  0  0  0
  152.5751  141.8605  159.2272 C   0  0  1  0  0  0  0  0  0  0  0  0
  151.3370  141.0495  158.8015 C   0  0  0  0  0  0  0  0  0  0  0  0
  150.5521  141.7943  157.8256 N   0  0  0  0  0  0  0  0  0  0  0  0
  150.1505  141.3129  156.5785 C   0  0  0  0  0  0  0  0  0  0  0  0
  151.1114  140.6181  155.7278 C   0  0  0  0  0  0  0  0  0  0  0  0
  150.8162  140.1476  154.5651 N   0  0  0  0  0  0  0  0  0  0  0  0
  149.5350  140.3100  154.1040 N   0  0  0  0  0  0  0  0  0  0  0  0
  148.5161  140.9198  154.7527 C   0  0  0  0  0  0  0  0  0  0  0  0
  147.3987  141.0072  154.2469 O   0  0  0  0  0  0  0  0  0  0  0  0
  148.8840  141.4419  156.0775 C   0  0  0  0  0  0  0  0  0  0  0  0
  147.6078  142.1782  156.9880 Cl  0  0  0  0  0  0  0  0  0  0  0  0
  150.1411  143.0848  158.3676 C   0  0  0  0  0  0  0  0  0  0  0  0
  151.3660  143.9176  158.8106 C   0  0  0  0  0  0  0  0  0  0  0  0
  152.2033  144.4014  157.6072 C   0  0  0  0  0  0  0  0  0  0  0  0
  150.8993  145.1351  159.6231 C   0  0  0  0  0  0  0  0  0  0  0  0
  152.1606  143.1383  159.7127 O   0  0  0  0  0  0  0  0  0  0  0  0
  149.3728  139.9213  153.1861 H   0  0  0  0  0  0  0  0  0  0  0  0
  153.7124  140.1817  160.0171 H   0  0  0  0  0  0  0  0  0  0  0  0
  152.7418  141.0175  161.2291 H   0  0  0  0  0  0  0  0  0  0  0  0
  154.2301  141.7483  160.6329 H   0  0  0  0  0  0  0  0  0  0  0  0
  153.2468  141.9941  158.3801 H   0  0  0  0  0  0  0  0  0  0  0  0
  151.6274  140.0769  158.4048 H   0  0  0  0  0  0  0  0  0  0  0  0
  150.7076  140.8479  159.6691 H   0  0  0  0  0  0  0  0  0  0  0  0
  152.1176  140.5204  156.1358 H   0  0  0  0  0  0  0  0  0  0  0  0
  149.5633  143.6465  157.6327 H   0  0  0  0  0  0  0  0  0  0  0  0
  149.4782  142.9056  159.2150 H   0  0  0  0  0  0  0  0  0  0  0  0
  151.6274  145.0845  156.9825 H   0  0  0  0  0  0  0  0  0  0  0  0
  152.5245  143.5824  156.9644 H   0  0  0  0  0  0  0  0  0  0  0  0
  153.0968  144.9311  157.9384 H   0  0  0  0  0  0  0  0  0  0  0  0
  150.2656  145.7921  159.0262 H   0  0  0  0  0  0  0  0  0  0  0  0
  151.7474  145.7232  159.9758 H   0  0  0  0  0  0  0  0  0  0  0  0
  150.3266  144.8293  160.4993 H   0  0  0  0  0  0  0  0  0  0  0  0
  1  2  1  0  0  0  0
  1 19  1  0  0  0  0
  1 20  1  0  0  0  0
  1 21  1  0  0  0  0
  2 17  1  0  0  0  0
  2  3  1  0  0  0  0
  2 22  1  0  0  0  0
  3  4  1  0  0  0  0
  3 23  1  0  0  0  0
  3 24  1  0  0  0  0
  4  5  1  0  0  0  0
  4 13  1  0  0  0  0
  5 11  2  0  0  0  0
  5  6  1  0  0  0  0
  6  7  2  0  0  0  0
  6 25  1  0  0  0  0
  7  8  1  0  0  0  0
  8 18  1  0  0  0  0
  8  9  1  0  0  0  0
  9 10  2  0  0  0  0
  9 11  1  0  0  0  0
 11 12  1  0  0  0  0
 13 14  1  0  0  0  0
 13 26  1  0  0  0  0
 13 27  1  0  0  0  0
 14 15  1  0  0  0  0
 14 16  1  0  0  0  0
 14 17  1  0  0  0  0
 15 28  1  0  0  0  0
 15 29  1  0  0  0  0
 15 30  1  0  0  0  0
 16 31  1  0  0  0  0
 16 32  1  0  0  0  0
 16 33  1  0  0  0  0
M  END
> <s_m_source_file>
AV-unprocessed.smi

> <i_m_source_file_index>
922

> <i_lp_mmshare_version>
43012

> <i_f3d_flags>
0

> <s_epik_input>
W0NIM11bQ0BASF0oTzEpW0NIMl1OKFtDSDJdQzEoW0NIM10pW0NIM10pYzJbY0hdbltuSF1jKD1PKWMyQ2w=

> <s_epik_cmdline>
J2VwaWtfcHl0aG9uJywgJy1waCcsICc3LjAnLCAnLXRuJywgJzgnLCAnLW1hJywgJzIwMCcsICctbWV0YWxfYmluZGluZycsICctaW1hZScsICc8aW5maWxlLm1hZT4nLCAnLW9tYWUnLCAnPG91dGZpbGUubWFlPic=

> <r_lp_tautomer_probability>
0.986175

> <r_epik_Ionization_Penalty>
0.00909695

> <r_epik_Ionization_Penalty_Charging>
0.00909694

> <r_epik_Ionization_Penalty_Neutral>
4.87729e-09

> <r_epik_State_Penalty>
1.54226

> <r_epik_Charging_Adjusted_Penalty>
1.55136

> <i_epik_Tot_Q>
0

> <i_epik_Tot_abs_Q>
0

> <r_epik_Metal_State_Penalty>
3.93934

> <b_epik_Metal_Only>
0

> <s_lp_Force_Field>
OPLS_2005

> <r_lp_Energy>
35.5656

> <b_lp_Chiralities_Consistent>
1

> <s_lp_Variant>
AV-unprocessed.smi:922-4

> <Gold.Version>
5.8.1

> <Gold.Id.Protein>
6NUR|6NUR_protein|mol2

> <Gold.PLP.Fitness>
40.3809

> <Gold.PLP.PLP>
-34.9917

> <Gold.PLP.part.hbond>
-1.9583

> <Gold.PLP.part.metal>
0.0000

> <Gold.PLP.part.buried>
-5.4168

> <Gold.PLP.part.nonpolar>
-28.3205

> <Gold.PLP.part.repulsive>
0.9100

> <Gold.PLP.ligand.clash>
0.0000

> <Gold.PLP.ligand.torsion>
0.7103

> <Gold.PLP.Chemscore.Hbond>
1.9585

> <Gold.PLP.Chemscore.CHOScore>
0.0000

> <Gold.PLP.Chemscore.Metal>
0.0000

> <Gold.Chemscore.Hbonds>
donor molecule, donor type, donor heavy atom, donor atom, acceptor molecule, acceptor atom, score
      L1  H     8    18       P1  7957  0.97
      P1  H  7989  7998       L1     7  0.99

> <Gold.PLP.Chemscore.Internal.Correction>
0.9344

> <Gold.Rescore>
     Score         DG    S(hbond)    S(metal)    S(lipo)     H(rot)  DE(clash)    DE(int)     intcor
     19.21     -20.14       1.41        0.00      85.04       0.00       0.05       0.88       ----

> <Gold.Chemscore.Fitness>
19.2093

> <Gold.Chemscore.DG>
-20.1402

> <Gold.Chemscore.ZeroCoef>
-5.4800

> <Gold.Chemscore.Hbond>
1.4105

> <Gold.Chemscore.Metal>
0.0000

> <Gold.Chemscore.Lipo>
85.0358

> <Gold.Chemscore.Internal_Hbond>
0.0000

> <Gold.Chemscore.DEClash>
0.0545

> <Gold.Chemscore.DEInternal>
0.8765

> <Gold.Chemscore.Rot>
0.0000

> <Gold.Chemscore.Internal.Correction>
   9.000000E+99

> <Gold.Chemscore.Hbonds>
donor molecule, donor type, donor heavy atom, donor atom, acceptor molecule, acceptor atom, score
      L1  H     8    18       P1  7957  0.85
      P1  H  7989  7998       L1     7  0.24

> <Gold.Chemscore.Hbond.Weighted>
-4.7110

> <Gold.Chemscore.Metal.Weighted>
-0.0000

> <Gold.Chemscore.Lipo.Weighted>
-9.9492

> <Gold.Chemscore.Internal_Hbond.Weighted>
0.0000

> <Gold.Chemscore.DEClash.Weighted>
0.0545

> <Gold.Chemscore.DEInternal.Weighted>
0.8765

> <Gold.Chemscore.Rot.Weighted>
0.0000

> <Gold.Chemscore.Internal.Correction.Weighted>
   9.000000E+99

> <Gold.Protein.RotatedTorsions>
[ 6907 6896 6895 6894 ] final -120.98 input  -60.11 | X-H torsion
[ 7974 7965 7964 7962 ] final -116.57 input  175.53 | X-H torsion
[ 8008 7997 7996 7995 ] final  -86.81 input   59.86 | X-H torsion
[ 10167 10162 10161 10158 ] final   57.30 input  -65.29 | X-H torsion
[ 10718 10713 10712 10709 ] final   79.87 input   66.30 | X-H torsion
[ 10763 10752 10751 10750 ] final   85.14 input  -60.55 | X-H torsion
[ 11005 11000 10999 10996 ] final  -95.31 input  -57.11 | X-H torsion

> <Gold.Protein.ActiveResidues>
 VAL166  LYS551  ARG553  GLY616  TRP617  ASP618  TYR619  PRO620  LYS621  CYS622 
 ASP623  PHE694  ASN695  SER759  ASP760  ASP761  ALA762  ILE779  LEU786  VAL792 
 PHE793  MET794  SER795  GLU796  ALA797  LYS798  CYS799  TRP800  GLU811  SER814 

> <Gold.Protein.RotatedAtoms>
  150.8441  133.7889  159.3049 H   0  0  0  0  0  0  0  0  0  0  0  0  # atno 6907 bound_to 6896
  151.5581  135.1064  159.9975 H   0  0  0  0  0  0  0  0  0  0  0  0  # atno 6908 bound_to 6896
  152.4499  133.7566  159.6779 H   0  0  0  0  0  0  0  0  0  0  0  0  # atno 6909 bound_to 6896
  145.0953  140.8516  143.3958 H   0  0  0  0  0  0  0  0  0  0  0  0  # atno 7974 bound_to 7965
  154.6561  140.0573  157.0010 H   0  0  0  0  0  0  0  0  0  0  0  0  # atno 8008 bound_to 7997
  155.1298  140.3255  155.4458 H   0  0  0  0  0  0  0  0  0  0  0  0  # atno 8009 bound_to 7997
  156.2598  140.1983  156.6417 H   0  0  0  0  0  0  0  0  0  0  0  0  # atno 8010 bound_to 7997
  140.1994  144.4003  150.6535 H   0  0  0  0  0  0  0  0  0  0  0  0  # atno 10167 bound_to 10162
  157.6789  130.9934  150.1995 H   0  0  0  0  0  0  0  0  0  0  0  0  # atno 10718 bound_to 10713
  153.1447  135.4628  154.9548 H   0  0  0  0  0  0  0  0  0  0  0  0  # atno 10763 bound_to 10752
  154.7776  135.3178  154.8061 H   0  0  0  0  0  0  0  0  0  0  0  0  # atno 10764 bound_to 10752
  153.8578  135.6915  153.4840 H   0  0  0  0  0  0  0  0  0  0  0  0  # atno 10765 bound_to 10752
  141.1445  133.8017  157.0417 H   0  0  0  0  0  0  0  0  0  0  0  0  # atno 11005 bound_to 11000
  145.1019  139.2817  143.5682 LP  0  0  0  0  0  0  0  0  0  0  0  0  # atno 17320 bound_to 7965
  146.3531  140.0588  142.8631 LP  0  0  0  0  0  0  0  0  0  0  0  0  # atno 17321 bound_to 7965
  140.6401  143.2202  151.6310 LP  0  0  0  0  0  0  0  0  0  0  0  0  # atno 17342 bound_to 10162
  139.5223  144.3166  152.0946 LP  0  0  0  0  0  0  0  0  0  0  0  0  # atno 17343 bound_to 10162
  156.2689  130.3719  149.8052 LP  0  0  0  0  0  0  0  0  0  0  0  0  # atno 17370 bound_to 10713
  156.5775  130.8451  151.3374 LP  0  0  0  0  0  0  0  0  0  0  0  0  # atno 17371 bound_to 10713
  140.0688  134.9714  157.1432 LP  0  0  0  0  0  0  0  0  0  0  0  0  # atno 17394 bound_to 11000
  140.3741  134.2359  155.7175 LP  0  0  0  0  0  0  0  0  0  0  0  0  # atno 17395 bound_to 11000

$$$$
