AV-unprocessed.smi:3308|AV-procd|sdf|12708|dock4
  -GOLD-   2272019 43D 1   1.00000     0.00000
 Structure written by MMmdl.
 41 42  0  0  0  0  0  0  0  0  2 V2000
  152.7684  139.3224  159.4959 C   0  0  0  0  0  0  0  0  0  0  0  0
  152.1365  140.6682  159.0911 C   0  0  2  0  0  0  0  0  0  0  0  0
  151.7404  140.6330  157.6633 N   0  3  0  0  0  0  0  0  0  0  0  0
  150.3006  140.8396  157.3946 C   0  0  0  0  0  0  0  0  0  0  0  0
  149.9912  140.8686  155.8913 C   0  0  0  0  0  0  0  0  0  0  0  0
  150.8569  140.5267  155.0838 O   0  0  0  0  0  0  0  0  0  0  0  0
  148.7650  141.2730  155.5010 N   0  0  0  0  0  0  0  0  0  0  0  0
  148.3503  141.3613  154.1023 C   0  0  0  0  0  0  0  0  0  0  0  0
  147.0168  142.1084  154.1132 C   0  0  0  0  0  0  0  0  0  0  0  0
  146.4462  141.8297  155.4969 C   0  0  0  0  0  0  0  0  0  0  0  0
  147.6792  141.6866  156.3899 C   0  0  0  0  0  0  0  0  0  0  0  0
  153.0886  141.8696  159.3451 C   0  0  2  0  0  0  0  0  0  0  0  0
  153.7547  141.8345  160.7334 C   0  0  0  0  0  0  0  0  0  0  0  0
  152.4099  143.1494  159.1666 N   0  0  0  0  0  0  0  0  0  0  0  0
  152.2586  144.1683  160.0849 C   0  0  0  0  0  0  0  0  0  0  0  0
  151.5399  145.1599  159.4812 C   0  0  0  0  0  0  0  0  0  0  0  0
  151.2801  144.6458  158.1805 C   0  0  0  0  0  0  0  0  0  0  0  0
  151.7974  143.4421  157.9966 N   0  0  0  0  0  0  0  0  0  0  0  0
  152.9992  139.2896  160.5600 H   0  0  0  0  0  0  0  0  0  0  0  0
  153.6932  139.1380  158.9487 H   0  0  0  0  0  0  0  0  0  0  0  0
  152.0970  138.4865  159.3014 H   0  0  0  0  0  0  0  0  0  0  0  0
  151.2354  140.8172  159.6883 H   0  0  0  0  0  0  0  0  0  0  0  0
  152.2306  141.3843  157.1981 H   0  0  0  0  0  0  0  0  0  0  0  0
  149.7208  140.0431  157.8604 H   0  0  0  0  0  0  0  0  0  0  0  0
  149.9890  141.7850  157.8404 H   0  0  0  0  0  0  0  0  0  0  0  0
  149.0877  141.8766  153.4848 H   0  0  0  0  0  0  0  0  0  0  0  0
  148.2214  140.3529  153.7062 H   0  0  0  0  0  0  0  0  0  0  0  0
  147.1964  143.1787  154.0015 H   0  0  0  0  0  0  0  0  0  0  0  0
  146.3505  141.7957  153.3087 H   0  0  0  0  0  0  0  0  0  0  0  0
  145.7641  142.6088  155.8387 H   0  0  0  0  0  0  0  0  0  0  0  0
  145.8958  140.8882  155.4800 H   0  0  0  0  0  0  0  0  0  0  0  0
  147.4989  140.9671  157.1900 H   0  0  0  0  0  0  0  0  0  0  0  0
  147.9330  142.6460  156.8433 H   0  0  0  0  0  0  0  0  0  0  0  0
  153.8842  141.8315  158.5990 H   0  0  0  0  0  0  0  0  0  0  0  0
  154.4145  140.9749  160.8456 H   0  0  0  0  0  0  0  0  0  0  0  0
  153.0125  141.7937  161.5313 H   0  0  0  0  0  0  0  0  0  0  0  0
  154.3647  142.7239  160.8953 H   0  0  0  0  0  0  0  0  0  0  0  0
  152.6714  144.1055  161.0812 H   0  0  0  0  0  0  0  0  0  0  0  0
  151.2395  146.1062  159.9062 H   0  0  0  0  0  0  0  0  0  0  0  0
  150.7330  145.1071  157.3715 H   0  0  0  0  0  0  0  0  0  0  0  0
  152.0376  139.7593  157.2527 H   0  0  0  0  0  0  0  0  0  0  0  0
  1  2  1  0  0  0  0
  1 19  1  0  0  0  0
  1 20  1  0  0  0  0
  1 21  1  0  0  0  0
  2  3  1  0  0  0  0
  2 12  1  0  0  0  0
  2 22  1  0  0  0  0
  3  4  1  0  0  0  0
  3 23  1  0  0  0  0
  3 41  1  0  0  0  0
  4  5  1  0  0  0  0
  4 24  1  0  0  0  0
  4 25  1  0  0  0  0
  5  6  2  0  0  0  0
  5  7  1  0  0  0  0
  7 11  1  0  0  0  0
  7  8  1  0  0  0  0
  8  9  1  0  0  0  0
  8 26  1  0  0  0  0
  8 27  1  0  0  0  0
  9 10  1  0  0  0  0
  9 28  1  0  0  0  0
  9 29  1  0  0  0  0
 10 11  1  0  0  0  0
 10 30  1  0  0  0  0
 10 31  1  0  0  0  0
 11 32  1  0  0  0  0
 11 33  1  0  0  0  0
 12 13  1  0  0  0  0
 12 14  1  0  0  0  0
 12 34  1  0  0  0  0
 13 35  1  0  0  0  0
 13 36  1  0  0  0  0
 13 37  1  0  0  0  0
 14 18  1  0  0  0  0
 14 15  1  0  0  0  0
 15 16  2  0  0  0  0
 15 38  1  0  0  0  0
 16 17  1  0  0  0  0
 16 39  1  0  0  0  0
 17 18  2  0  0  0  0
 17 40  1  0  0  0  0
M  CHG  1   3   1
M  END
> <s_m_source_file>
AV-unprocessed.smi

> <i_m_source_file_index>
3308

> <i_lp_mmshare_version>
43012

> <i_f3d_flags>
0

> <s_epik_input>
bjFbY0hdW2NIXVtjSF1uMVtDQEBIXShbQ0gzXSlbQ0BIXShbQ0gzXSlbTkhdW0NIMl1DKD1PKU4yW0NIMl1bQ0gyXVtDSDJdW0NIMl0y

> <s_epik_cmdline>
J2VwaWtfcHl0aG9uJywgJy1waCcsICc3LjAnLCAnLXRuJywgJzgnLCAnLW1hJywgJzIwMCcsICctbWV0YWxfYmluZGluZycsICctaW1hZScsICc8aW5maWxlLm1hZT4nLCAnLW9tYWUnLCAnPG91dGZpbGUubWFlPic=

> <r_lp_tautomer_probability>
1

> <r_epik_Ionization_Penalty>
0.141739

> <r_epik_Ionization_Penalty_Charging>
0.141731

> <r_epik_Ionization_Penalty_Neutral>
8.82171e-06

> <r_epik_State_Penalty>
0.131043

> <r_epik_Charging_Adjusted_Penalty>
0.272773

> <i_epik_Tot_Q>
1

> <i_epik_Tot_abs_Q>
1

> <r_epik_Metal_State_Penalty>
0.131385

> <b_epik_Metal_Only>
0

> <s_lp_Force_Field>
OPLS_2005

> <r_lp_Energy>
31.7083

> <b_lp_Chiralities_Consistent>
1

> <s_lp_Variant>
AV-unprocessed.smi:3308-1

> <Gold.Version>
5.8.1

> <Gold.Id.Protein>
6NUR|6NUR_protein|mol2

> <Gold.PLP.Fitness>
47.4335

> <Gold.PLP.PLP>
-43.3074

> <Gold.PLP.part.hbond>
-1.0000

> <Gold.PLP.part.metal>
0.0000

> <Gold.PLP.part.buried>
-5.5950

> <Gold.PLP.part.nonpolar>
-37.0108

> <Gold.PLP.part.repulsive>
0.1970

> <Gold.PLP.ligand.clash>
0.0000

> <Gold.PLP.ligand.torsion>
0.9880

> <Gold.PLP.Chemscore.Hbond>
1.0000

> <Gold.PLP.Chemscore.CHOScore>
1.0000

> <Gold.PLP.Chemscore.Metal>
0.0000

> <Gold.Chemscore.Hbonds>
donor molecule, donor type, donor heavy atom, donor atom, acceptor molecule, acceptor atom, score
      P1  H  7989  7998       L1     6  0.99
      L1  C    17    40       P1  8028  0.99

> <Gold.PLP.Chemscore.Internal.Correction>
0.1021

> <Gold.Rescore>
     Score         DG    S(hbond)    S(metal)    S(lipo)     H(rot)  DE(clash)    DE(int)     intcor
     13.47     -15.79       0.98        0.00      99.15       1.78       0.01       2.30       ----

> <Gold.Chemscore.Fitness>
13.4714

> <Gold.Chemscore.DG>
-15.7900

> <Gold.Chemscore.ZeroCoef>
-5.4800

> <Gold.Chemscore.Hbond>
0.9807

> <Gold.Chemscore.Metal>
0.0000

> <Gold.Chemscore.Lipo>
99.1500

> <Gold.Chemscore.Internal_Hbond>
0.0000

> <Gold.Chemscore.DEClash>
0.0139

> <Gold.Chemscore.DEInternal>
2.3048

> <Gold.Chemscore.Rot>
1.7836

> <Gold.Chemscore.Internal.Correction>
   9.000000E+99

> <Gold.Chemscore.Hbonds>
donor molecule, donor type, donor heavy atom, donor atom, acceptor molecule, acceptor atom, score
      P1  H  7989  7998       L1     6  0.94

> <Gold.Chemscore.Hbond.Weighted>
-3.2755

> <Gold.Chemscore.Metal.Weighted>
-0.0000

> <Gold.Chemscore.Lipo.Weighted>
-11.6005

> <Gold.Chemscore.Internal_Hbond.Weighted>
0.0000

> <Gold.Chemscore.DEClash.Weighted>
0.0139

> <Gold.Chemscore.DEInternal.Weighted>
2.3048

> <Gold.Chemscore.Rot.Weighted>
4.5660

> <Gold.Chemscore.Internal.Correction.Weighted>
   9.000000E+99

> <Gold.Protein.RotatedTorsions>
[ 6907 6896 6895 6894 ] final -178.73 input  -60.11 | X-H torsion
[ 7974 7965 7964 7962 ] final  171.47 input  175.53 | X-H torsion
[ 8008 7997 7996 7995 ] final  -49.34 input   59.86 | X-H torsion
[ 10167 10162 10161 10158 ] final -165.07 input  -65.29 | X-H torsion
[ 10718 10713 10712 10709 ] final  -91.94 input   66.30 | X-H torsion
[ 10763 10752 10751 10750 ] final  -32.88 input  -60.55 | X-H torsion
[ 11005 11000 10999 10996 ] final   64.81 input  -57.11 | X-H torsion

> <Gold.Protein.ActiveResidues>
 VAL166  LYS551  ARG553  GLY616  TRP617  ASP618  TYR619  PRO620  LYS621  CYS622 
 ASP623  PHE694  ASN695  SER759  ASP760  ASP761  ALA762  ILE779  LEU786  VAL792 
 PHE793  MET794  SER795  GLU796  ALA797  LYS798  CYS799  TRP800  GLU811  SER814 

> <Gold.Protein.RotatedAtoms>
  151.6419  133.3325  159.3131 H   0  0  0  0  0  0  0  0  0  0  0  0  # atno 6907 bound_to 6896
  150.8003  134.7096  159.6606 H   0  0  0  0  0  0  0  0  0  0  0  0  # atno 6908 bound_to 6896
  152.4095  134.6153  160.0088 H   0  0  0  0  0  0  0  0  0  0  0  0  # atno 6909 bound_to 6896
  144.7294  139.9354  143.6426 H   0  0  0  0  0  0  0  0  0  0  0  0  # atno 7974 bound_to 7965
  154.4042  140.1299  156.4486 H   0  0  0  0  0  0  0  0  0  0  0  0  # atno 8008 bound_to 7997
  155.7388  140.3490  155.5074 H   0  0  0  0  0  0  0  0  0  0  0  0  # atno 8009 bound_to 7997
  155.9058  140.1027  157.1306 H   0  0  0  0  0  0  0  0  0  0  0  0  # atno 8010 bound_to 7997
  139.6207  144.0630  152.1930 H   0  0  0  0  0  0  0  0  0  0  0  0  # atno 10167 bound_to 10162
  155.9998  130.4967  150.5550 H   0  0  0  0  0  0  0  0  0  0  0  0  # atno 10718 bound_to 10713
  153.8210  135.6874  153.4827 H   0  0  0  0  0  0  0  0  0  0  0  0  # atno 10763 bound_to 10752
  153.1569  135.4595  154.9715 H   0  0  0  0  0  0  0  0  0  0  0  0  # atno 10764 bound_to 10752
  154.7927  135.3308  154.7682 H   0  0  0  0  0  0  0  0  0  0  0  0  # atno 10765 bound_to 10752
  139.9935  134.6555  156.0051 H   0  0  0  0  0  0  0  0  0  0  0  0  # atno 11005 bound_to 11000
  146.0825  139.3813  143.0455 LP  0  0  0  0  0  0  0  0  0  0  0  0  # atno 17320 bound_to 7965
  145.7821  140.9852  143.1094 LP  0  0  0  0  0  0  0  0  0  0  0  0  # atno 17321 bound_to 7965
  140.0271  144.6109  150.7518 LP  0  0  0  0  0  0  0  0  0  0  0  0  # atno 17342 bound_to 10162
  140.7380  143.2773  151.3704 LP  0  0  0  0  0  0  0  0  0  0  0  0  # atno 17343 bound_to 10162
  157.3468  131.0726  151.1745 LP  0  0  0  0  0  0  0  0  0  0  0  0  # atno 17370 bound_to 10713
  157.2575  130.6643  149.5959 LP  0  0  0  0  0  0  0  0  0  0  0  0  # atno 17371 bound_to 10713
  141.1585  133.6540  156.4240 LP  0  0  0  0  0  0  0  0  0  0  0  0  # atno 17394 bound_to 11000
  140.4864  134.6617  157.5192 LP  0  0  0  0  0  0  0  0  0  0  0  0  # atno 17395 bound_to 11000

$$$$
