AV-unprocessed.smi:1992|AV-procd|sdf|8069|dock4
  -GOLD-   2272010273D 1   1.00000     0.00000
 Structure written by MMmdl.
 46 47  0  0  0  0  0  0  0  0  2 V2000
  150.6399  141.8424  156.9050 C   0  0  0  0  0  0  0  0  0  0  0  0
  149.4307  141.1530  157.2029 O   0  0  0  0  0  0  0  0  0  0  0  0
  148.9477  140.2490  156.2791 C   0  0  0  0  0  0  0  0  0  0  0  0
  147.7507  139.5644  156.5676 C   0  0  0  0  0  0  0  0  0  0  0  0
  147.2555  138.6399  155.6291 C   0  0  0  0  0  0  0  0  0  0  0  0
  147.9617  138.4337  154.4270 C   0  0  0  0  0  0  0  0  0  0  0  0
  147.4485  137.4804  153.5071 N   0  0  0  0  0  0  0  0  0  0  0  0
  146.1684  137.1314  153.2939 C   0  0  0  0  0  0  0  0  0  0  0  0
  145.1972  137.5780  153.9029 O   0  0  0  0  0  0  0  0  0  0  0  0
  146.0757  136.1991  152.3354 N   0  0  0  0  0  0  0  0  0  0  0  0
  144.8338  135.5909  151.8582 C   0  0  0  0  0  0  0  0  0  0  0  0
  144.5565  134.1814  152.4713 C   0  0  0  0  0  0  0  0  0  0  0  0
  143.8779  134.3418  153.8079 N   0  3  0  0  0  0  0  0  0  0  0  0
  142.5863  135.0731  153.7517 C   0  0  0  0  0  0  0  0  0  0  0  0
  144.7168  134.8447  154.9251 C   0  0  0  0  0  0  0  0  0  0  0  0
  143.7624  133.3153  151.4588 C   0  0  0  0  0  0  0  0  0  0  0  0
  144.7854  132.8594  150.4131 C   0  0  0  0  0  0  0  0  0  0  0  0
  146.1373  132.8422  151.1396 C   0  0  0  0  0  0  0  0  0  0  0  0
  145.8726  133.3788  152.5543 C   0  0  0  0  0  0  0  0  0  0  0  0
  149.1611  139.1624  154.2345 C   0  0  0  0  0  0  0  0  0  0  0  0
  149.6426  140.0482  155.1322 N   0  0  0  0  0  0  0  0  0  0  0  0
  150.8861  142.5118  157.7291 H   0  0  0  0  0  0  0  0  0  0  0  0
  150.5411  142.4498  156.0040 H   0  0  0  0  0  0  0  0  0  0  0  0
  151.4740  141.1500  156.7810 H   0  0  0  0  0  0  0  0  0  0  0  0
  147.2236  139.7433  157.4931 H   0  0  0  0  0  0  0  0  0  0  0  0
  146.3419  138.1002  155.8315 H   0  0  0  0  0  0  0  0  0  0  0  0
  148.1441  136.9670  152.9861 H   0  0  0  0  0  0  0  0  0  0  0  0
  146.9287  135.9049  151.8827 H   0  0  0  0  0  0  0  0  0  0  0  0
  143.9953  136.2704  152.0160 H   0  0  0  0  0  0  0  0  0  0  0  0
  144.9183  135.5200  150.7743 H   0  0  0  0  0  0  0  0  0  0  0  0
  142.7351  136.1268  153.5141 H   0  0  0  0  0  0  0  0  0  0  0  0
  142.0771  135.0204  154.7146 H   0  0  0  0  0  0  0  0  0  0  0  0
  141.9051  134.6487  153.0160 H   0  0  0  0  0  0  0  0  0  0  0  0
  145.1853  135.7983  154.6808 H   0  0  0  0  0  0  0  0  0  0  0  0
  145.4904  134.1262  155.1950 H   0  0  0  0  0  0  0  0  0  0  0  0
  144.1163  134.9915  155.8235 H   0  0  0  0  0  0  0  0  0  0  0  0
  143.3813  132.4015  151.9112 H   0  0  0  0  0  0  0  0  0  0  0  0
  142.9079  133.8261  151.0171 H   0  0  0  0  0  0  0  0  0  0  0  0
  144.5307  131.8830  149.9995 H   0  0  0  0  0  0  0  0  0  0  0  0
  144.8160  133.5636  149.5808 H   0  0  0  0  0  0  0  0  0  0  0  0
  146.5664  131.8402  151.1736 H   0  0  0  0  0  0  0  0  0  0  0  0
  146.8484  133.4814  150.6148 H   0  0  0  0  0  0  0  0  0  0  0  0
  146.7108  133.9674  152.9286 H   0  0  0  0  0  0  0  0  0  0  0  0
  145.7560  132.5291  153.2280 H   0  0  0  0  0  0  0  0  0  0  0  0
  149.7756  139.0316  153.3576 H   0  0  0  0  0  0  0  0  0  0  0  0
  143.6376  133.4004  154.0836 H   0  0  0  0  0  0  0  0  0  0  0  0
  1  2  1  0  0  0  0
  1 22  1  0  0  0  0
  1 23  1  0  0  0  0
  1 24  1  0  0  0  0
  2  3  1  0  0  0  0
  3 21  1  0  0  0  0
  3  4  2  0  0  0  0
  4  5  1  0  0  0  0
  4 25  1  0  0  0  0
  5  6  2  0  0  0  0
  5 26  1  0  0  0  0
  6  7  1  0  0  0  0
  6 20  1  0  0  0  0
  7  8  1  0  0  0  0
  7 27  1  0  0  0  0
  8  9  2  0  0  0  0
  8 10  1  0  0  0  0
 10 11  1  0  0  0  0
 10 28  1  0  0  0  0
 11 12  1  0  0  0  0
 11 29  1  0  0  0  0
 11 30  1  0  0  0  0
 12 19  1  0  0  0  0
 12 13  1  0  0  0  0
 12 16  1  0  0  0  0
 13 14  1  0  0  0  0
 13 15  1  0  0  0  0
 13 46  1  0  0  0  0
 14 31  1  0  0  0  0
 14 32  1  0  0  0  0
 14 33  1  0  0  0  0
 15 34  1  0  0  0  0
 15 35  1  0  0  0  0
 15 36  1  0  0  0  0
 16 17  1  0  0  0  0
 16 37  1  0  0  0  0
 16 38  1  0  0  0  0
 17 18  1  0  0  0  0
 17 39  1  0  0  0  0
 17 40  1  0  0  0  0
 18 19  1  0  0  0  0
 18 41  1  0  0  0  0
 18 42  1  0  0  0  0
 19 43  1  0  0  0  0
 19 44  1  0  0  0  0
 20 21  2  0  0  0  0
 20 45  1  0  0  0  0
M  CHG  1  13   1
M  END
> <s_m_source_file>
AV-unprocessed.smi

> <i_m_source_file_index>
1992

> <i_lp_mmshare_version>
43012

> <i_f3d_flags>
0

> <s_epik_input>
W0NIM11PYzFbY0hdW2NIXWMoW2NIXW4xKVtOSF1DKD1PKVtOSF1bQ0gyXUMyKE4oW0NIM10pW0NIM10pW0NIMl1bQ0gyXVtDSDJdW0NIMl0y

> <s_epik_cmdline>
J2VwaWtfcHl0aG9uJywgJy1waCcsICc3LjAnLCAnLXRuJywgJzgnLCAnLW1hJywgJzIwMCcsICctbWV0YWxfYmluZGluZycsICctaW1hZScsICc8aW5maWxlLm1hZT4nLCAnLW9tYWUnLCAnPG91dGZpbGUubWFlPic=

> <r_lp_tautomer_probability>
1

> <r_epik_Ionization_Penalty>
0.00219675

> <r_epik_Ionization_Penalty_Charging>
0.00211816

> <r_epik_Ionization_Penalty_Neutral>
7.85887e-05

> <r_epik_State_Penalty>
0.00145254

> <r_epik_Charging_Adjusted_Penalty>
0.0035707

> <i_epik_Tot_Q>
1

> <i_epik_Tot_abs_Q>
1

> <r_epik_Metal_State_Penalty>
-0

> <b_epik_Metal_Only>
0

> <s_lp_Force_Field>
OPLS_2005

> <r_lp_Energy>
46.5796

> <b_lp_Chiralities_Consistent>
1

> <s_lp_Variant>
AV-unprocessed.smi:1992-1

> <Gold.Version>
5.8.1

> <Gold.Id.Protein>
6NUR|6NUR_protein|mol2

> <Gold.PLP.Fitness>
38.6293

> <Gold.PLP.PLP>
-25.6079

> <Gold.PLP.part.hbond>
-3.0000

> <Gold.PLP.part.metal>
0.0000

> <Gold.PLP.part.buried>
-5.4093

> <Gold.PLP.part.nonpolar>
-17.9142

> <Gold.PLP.part.repulsive>
0.3030

> <Gold.PLP.ligand.clash>
0.0000

> <Gold.PLP.ligand.torsion>
0.8652

> <Gold.PLP.Chemscore.Hbond>
3.8625

> <Gold.PLP.Chemscore.CHOScore>
1.0000

> <Gold.PLP.Chemscore.Metal>
0.0000

> <Gold.Chemscore.Hbonds>
donor molecule, donor type, donor heavy atom, donor atom, acceptor molecule, acceptor atom, score
      L1  H     7    27       P1  7948  1.00
      L1  H    10    28       P1  7948  0.88
      L1  H    13    46       P1 10957  2.00
      L1  C    20    45       P1  7957  1.00

> <Gold.PLP.Chemscore.Internal.Correction>
0.1643

> <Gold.Rescore>
     Score         DG    S(hbond)    S(metal)    S(lipo)     H(rot)  DE(clash)    DE(int)     intcor
     15.23     -17.49       2.86        0.00      58.42       1.71       0.01       2.25       ----

> <Gold.Chemscore.Fitness>
15.2261

> <Gold.Chemscore.DG>
-17.4886

> <Gold.Chemscore.ZeroCoef>
-5.4800

> <Gold.Chemscore.Hbond>
2.8611

> <Gold.Chemscore.Metal>
0.0000

> <Gold.Chemscore.Lipo>
58.4243

> <Gold.Chemscore.Internal_Hbond>
0.0000

> <Gold.Chemscore.DEClash>
0.0149

> <Gold.Chemscore.DEInternal>
2.2477

> <Gold.Chemscore.Rot>
1.7122

> <Gold.Chemscore.Internal.Correction>
   9.000000E+99

> <Gold.Chemscore.Hbonds>
donor molecule, donor type, donor heavy atom, donor atom, acceptor molecule, acceptor atom, score
      L1  H     7    27       P1  7948  0.97
      L1  H    10    28       P1  7948  0.82
      L1  H    13    46       P1 10957  0.93

> <Gold.Chemscore.Hbond.Weighted>
-9.5561

> <Gold.Chemscore.Metal.Weighted>
-0.0000

> <Gold.Chemscore.Lipo.Weighted>
-6.8356

> <Gold.Chemscore.Internal_Hbond.Weighted>
0.0000

> <Gold.Chemscore.DEClash.Weighted>
0.0149

> <Gold.Chemscore.DEInternal.Weighted>
2.2477

> <Gold.Chemscore.Rot.Weighted>
4.3831

> <Gold.Chemscore.Internal.Correction.Weighted>
   9.000000E+99

> <Gold.Protein.RotatedTorsions>
[ 6907 6896 6895 6894 ] final   14.46 input  -60.11 | X-H torsion
[ 7974 7965 7964 7962 ] final  -61.44 input  175.53 | X-H torsion
[ 8008 7997 7996 7995 ] final  116.16 input   59.86 | X-H torsion
[ 10167 10162 10161 10158 ] final  112.14 input  -65.29 | X-H torsion
[ 10718 10713 10712 10709 ] final -179.49 input   66.30 | X-H torsion
[ 10763 10752 10751 10750 ] final  -19.12 input  -60.55 | X-H torsion
[ 11005 11000 10999 10996 ] final -176.85 input  -57.11 | X-H torsion

> <Gold.Protein.ActiveResidues>
 VAL166  LYS551  ARG553  GLY616  TRP617  ASP618  TYR619  PRO620  LYS621  CYS622 
 ASP623  PHE694  ASN695  SER759  ASP760  ASP761  ALA762  ILE779  LEU786  VAL792 
 PHE793  MET794  SER795  GLU796  ALA797  LYS798  CYS799  TRP800  GLU811  SER814 

> <Gold.Protein.RotatedAtoms>
  151.8026  135.0704  160.0402 H   0  0  0  0  0  0  0  0  0  0  0  0  # atno 6907 bound_to 6896
  152.3078  133.5717  159.5669 H   0  0  0  0  0  0  0  0  0  0  0  0  # atno 6908 bound_to 6896
  150.7305  134.0113  159.3712 H   0  0  0  0  0  0  0  0  0  0  0  0  # atno 6909 bound_to 6896
  145.8034  140.8642  143.0219 H   0  0  0  0  0  0  0  0  0  0  0  0  # atno 7974 bound_to 7965
  156.2423  140.2923  156.0480 H   0  0  0  0  0  0  0  0  0  0  0  0  # atno 8008 bound_to 7997
  155.1913  140.0407  157.2918 H   0  0  0  0  0  0  0  0  0  0  0  0  # atno 8009 bound_to 7997
  154.6192  140.2471  155.7577 H   0  0  0  0  0  0  0  0  0  0  0  0  # atno 8010 bound_to 7997
  139.6558  144.7129  151.1960 H   0  0  0  0  0  0  0  0  0  0  0  0  # atno 10167 bound_to 10162
  156.8599  130.9748  151.3084 H   0  0  0  0  0  0  0  0  0  0  0  0  # atno 10718 bound_to 10713
  153.5998  135.7000  153.5389 H   0  0  0  0  0  0  0  0  0  0  0  0  # atno 10763 bound_to 10752
  153.3106  135.4102  155.1332 H   0  0  0  0  0  0  0  0  0  0  0  0  # atno 10764 bound_to 10752
  154.8584  135.3671  154.5533 H   0  0  0  0  0  0  0  0  0  0  0  0  # atno 10765 bound_to 10752
  140.4475  134.6374  157.4786 H   0  0  0  0  0  0  0  0  0  0  0  0  # atno 11005 bound_to 11000
  144.6766  140.0291  143.7483 LP  0  0  0  0  0  0  0  0  0  0  0  0  # atno 17320 bound_to 7965
  145.9854  139.2973  143.1017 LP  0  0  0  0  0  0  0  0  0  0  0  0  # atno 17321 bound_to 7965
  140.7558  143.6075  150.8638 LP  0  0  0  0  0  0  0  0  0  0  0  0  # atno 17342 bound_to 10162
  139.9727  143.6038  152.2968 LP  0  0  0  0  0  0  0  0  0  0  0  0  # atno 17343 bound_to 10162
  157.6256  130.8689  149.9184 LP  0  0  0  0  0  0  0  0  0  0  0  0  # atno 17370 bound_to 10713
  156.0782  130.3676  150.0633 LP  0  0  0  0  0  0  0  0  0  0  0  0  # atno 17371 bound_to 10713
  140.0029  134.6809  155.9502 LP  0  0  0  0  0  0  0  0  0  0  0  0  # atno 17394 bound_to 11000
  141.1678  133.6537  156.4544 LP  0  0  0  0  0  0  0  0  0  0  0  0  # atno 17395 bound_to 11000

$$$$
