AV-unprocessed.smi:2442|AV-procd|sdf|9627|dock10
  -GOLD-   2272013263D 1   1.00000     0.00000
 Structure written by MMmdl.
 47 48  0  0  0  0  0  0  0  0  2 V2000
  142.9606  136.5407  152.6443 C   0  0  0  0  0  0  0  0  0  0  0  0
  143.9229  135.6337  153.1582 O   0  0  0  0  0  0  0  0  0  0  0  0
  144.4572  134.7350  152.1924 C   0  0  2  0  0  0  0  0  0  0  0  0
  143.3825  133.7027  151.7894 C   0  0  0  0  0  0  0  0  0  0  0  0
  143.9524  132.6211  150.8599 C   0  0  0  0  0  0  0  0  0  0  0  0
  145.1575  131.9222  151.5034 C   0  0  0  0  0  0  0  0  0  0  0  0
  146.2413  132.9397  151.8882 C   0  0  0  0  0  0  0  0  0  0  0  0
  145.6887  134.0386  152.8170 C   0  0  1  0  0  0  0  0  0  0  0  0
  146.7449  135.0167  153.0676 N   0  0  0  0  0  0  0  0  0  0  0  0
  146.9056  135.7169  154.1990 C   0  0  0  0  0  0  0  0  0  0  0  0
  146.1862  135.6081  155.1924 O   0  0  0  0  0  0  0  0  0  0  0  0
  147.9442  136.5600  154.1173 N   0  0  0  0  0  0  0  0  0  0  0  0
  148.3711  137.4549  155.1862 C   0  0  0  0  0  0  0  0  0  0  0  0
  149.6880  138.1705  154.8374 C   0  0  0  0  0  0  0  0  0  0  0  0
  149.5335  139.6832  154.8271 C   0  0  0  0  0  0  0  0  0  0  0  0
  148.4796  140.2634  154.0859 C   0  0  0  0  0  0  0  0  0  0  0  0
  148.3325  141.6645  154.0675 C   0  0  0  0  0  0  0  0  0  0  0  0
  149.1976  142.4387  154.7556 N   0  3  0  0  0  0  0  0  0  0  0  0
  150.2198  141.9302  155.4764 C   0  0  0  0  0  0  0  0  0  0  0  0
  150.4227  140.5338  155.5354 C   0  0  0  0  0  0  0  0  0  0  0  0
  151.5785  139.9845  156.3534 C   0  0  0  0  0  0  0  0  0  0  0  0
  142.6220  137.1998  153.4434 H   0  0  0  0  0  0  0  0  0  0  0  0
  142.0860  136.0262  152.2468 H   0  0  0  0  0  0  0  0  0  0  0  0
  143.3883  137.1637  151.8577 H   0  0  0  0  0  0  0  0  0  0  0  0
  144.7830  135.2845  151.3068 H   0  0  0  0  0  0  0  0  0  0  0  0
  142.9764  133.2314  152.6856 H   0  0  0  0  0  0  0  0  0  0  0  0
  142.5454  134.1931  151.2934 H   0  0  0  0  0  0  0  0  0  0  0  0
  143.1798  131.8887  150.6248 H   0  0  0  0  0  0  0  0  0  0  0  0
  144.2517  133.0716  149.9125 H   0  0  0  0  0  0  0  0  0  0  0  0
  144.8346  131.3767  152.3910 H   0  0  0  0  0  0  0  0  0  0  0  0
  145.5694  131.1820  150.8169 H   0  0  0  0  0  0  0  0  0  0  0  0
  147.0710  132.4237  152.3733 H   0  0  0  0  0  0  0  0  0  0  0  0
  146.6469  133.3907  150.9812 H   0  0  0  0  0  0  0  0  0  0  0  0
  145.3868  133.5627  153.7523 H   0  0  0  0  0  0  0  0  0  0  0  0
  147.3926  135.1838  152.3119 H   0  0  0  0  0  0  0  0  0  0  0  0
  148.4776  136.5801  153.2602 H   0  0  0  0  0  0  0  0  0  0  0  0
  147.5808  138.1775  155.3942 H   0  0  0  0  0  0  0  0  0  0  0  0
  148.4969  136.8659  156.0952 H   0  0  0  0  0  0  0  0  0  0  0  0
  150.4553  137.8981  155.5634 H   0  0  0  0  0  0  0  0  0  0  0  0
  150.0677  137.8344  153.8724 H   0  0  0  0  0  0  0  0  0  0  0  0
  147.7890  139.6417  153.5346 H   0  0  0  0  0  0  0  0  0  0  0  0
  147.5552  142.1848  153.5273 H   0  0  0  0  0  0  0  0  0  0  0  0
  150.8421  142.6544  155.9817 H   0  0  0  0  0  0  0  0  0  0  0  0
  152.2195  140.7878  156.7180 H   0  0  0  0  0  0  0  0  0  0  0  0
  152.1956  139.3132  155.7562 H   0  0  0  0  0  0  0  0  0  0  0  0
  151.2052  139.4346  157.2177 H   0  0  0  0  0  0  0  0  0  0  0  0
  149.0741  143.4514  154.7301 H   0  0  0  0  0  0  0  0  0  0  0  0
  1  2  1  0  0  0  0
  1 22  1  0  0  0  0
  1 23  1  0  0  0  0
  1 24  1  0  0  0  0
  2  3  1  0  0  0  0
  3  8  1  0  0  0  0
  3  4  1  0  0  0  0
  3 25  1  0  0  0  0
  4  5  1  0  0  0  0
  4 26  1  0  0  0  0
  4 27  1  0  0  0  0
  5  6  1  0  0  0  0
  5 28  1  0  0  0  0
  5 29  1  0  0  0  0
  6  7  1  0  0  0  0
  6 30  1  0  0  0  0
  6 31  1  0  0  0  0
  7  8  1  0  0  0  0
  7 32  1  0  0  0  0
  7 33  1  0  0  0  0
  8  9  1  0  0  0  0
  8 34  1  0  0  0  0
  9 10  1  0  0  0  0
  9 35  1  0  0  0  0
 10 11  2  0  0  0  0
 10 12  1  0  0  0  0
 12 13  1  0  0  0  0
 12 36  1  0  0  0  0
 13 14  1  0  0  0  0
 13 37  1  0  0  0  0
 13 38  1  0  0  0  0
 14 15  1  0  0  0  0
 14 39  1  0  0  0  0
 14 40  1  0  0  0  0
 15 20  1  0  0  0  0
 15 16  2  0  0  0  0
 16 17  1  0  0  0  0
 16 41  1  0  0  0  0
 17 18  2  0  0  0  0
 17 42  1  0  0  0  0
 18 19  1  0  0  0  0
 18 47  1  0  0  0  0
 19 20  2  0  0  0  0
 19 43  1  0  0  0  0
 20 21  1  0  0  0  0
 21 44  1  0  0  0  0
 21 45  1  0  0  0  0
 21 46  1  0  0  0  0
M  CHG  1  18   1
M  END
> <s_m_source_file>
AV-unprocessed.smi

> <i_m_source_file_index>
2442

> <i_lp_mmshare_version>
43012

> <i_f3d_flags>
0

> <s_epik_input>
W0NIM11PW0NAQEhdMVtDSDJdW0NIMl1bQ0gyXVtDSDJdW0NASF0xW05IXUMoPU8pW05IXVtDSDJdW0NIMl1jMltjSF1bY0hdbltjSF1jMltDSDNd

> <s_epik_cmdline>
J2VwaWtfcHl0aG9uJywgJy1waCcsICc3LjAnLCAnLXRuJywgJzgnLCAnLW1hJywgJzIwMCcsICctbWV0YWxfYmluZGluZycsICctaW1hZScsICc8aW5maWxlLm1hZT4nLCAnLW9tYWUnLCAnPG91dGZpbGUubWFlPic=

> <r_epik_Ionization_Penalty>
1.07145

> <r_epik_Ionization_Penalty_Charging>
1.0714

> <r_epik_Ionization_Penalty_Neutral>
4.9109e-05

> <r_epik_State_Penalty>
1.12601

> <r_epik_Charging_Adjusted_Penalty>
2.19741

> <i_epik_Tot_Q>
1

> <i_epik_Tot_abs_Q>
1

> <r_epik_Metal_State_Penalty>
1.2173

> <b_epik_Metal_Only>
0

> <s_lp_Force_Field>
OPLS_2005

> <r_lp_Energy>
14.7728

> <b_lp_Chiralities_Consistent>
1

> <s_lp_Variant>
AV-unprocessed.smi:2442-5

> <Gold.Version>
5.8.1

> <Gold.Id.Protein>
6NUR|6NUR_protein|mol2

> <Gold.PLP.Fitness>
43.8242

> <Gold.PLP.PLP>
-34.0773

> <Gold.PLP.part.hbond>
-2.9078

> <Gold.PLP.part.metal>
0.0000

> <Gold.PLP.part.buried>
-6.1497

> <Gold.PLP.part.nonpolar>
-26.9091

> <Gold.PLP.part.repulsive>
0.3046

> <Gold.PLP.ligand.clash>
0.0000

> <Gold.PLP.ligand.torsion>
0.9211

> <Gold.PLP.Chemscore.Hbond>
3.8553

> <Gold.PLP.Chemscore.CHOScore>
0.0000

> <Gold.PLP.Chemscore.Metal>
0.0000

> <Gold.Chemscore.Hbonds>
donor molecule, donor type, donor heavy atom, donor atom, acceptor molecule, acceptor atom, score
      L1  H     9    35       P1  7948  0.86
      L1  H    12    36       P1  7948  0.96
      L1  H    18    47       P1  8028  1.79

> <Gold.PLP.Chemscore.Internal.Correction>
0.0233

> <Gold.Rescore>
     Score         DG    S(hbond)    S(metal)    S(lipo)     H(rot)  DE(clash)    DE(int)     intcor
     19.39     -20.35       2.87        0.00      83.01       1.72       0.01       0.95       ----

> <Gold.Chemscore.Fitness>
19.3860

> <Gold.Chemscore.DG>
-20.3491

> <Gold.Chemscore.ZeroCoef>
-5.4800

> <Gold.Chemscore.Hbond>
2.8657

> <Gold.Chemscore.Metal>
0.0000

> <Gold.Chemscore.Lipo>
83.0107

> <Gold.Chemscore.Internal_Hbond>
0.0000

> <Gold.Chemscore.DEClash>
0.0135

> <Gold.Chemscore.DEInternal>
0.9495

> <Gold.Chemscore.Rot>
1.7244

> <Gold.Chemscore.Internal.Correction>
   9.000000E+99

> <Gold.Chemscore.Hbonds>
donor molecule, donor type, donor heavy atom, donor atom, acceptor molecule, acceptor atom, score
      L1  H     9    35       P1  7948  0.84
      L1  H    12    36       P1  7948  0.91
      L1  H    18    47       P1  8028  0.83

> <Gold.Chemscore.Hbond.Weighted>
-9.5713

> <Gold.Chemscore.Metal.Weighted>
-0.0000

> <Gold.Chemscore.Lipo.Weighted>
-9.7122

> <Gold.Chemscore.Internal_Hbond.Weighted>
0.0000

> <Gold.Chemscore.DEClash.Weighted>
0.0135

> <Gold.Chemscore.DEInternal.Weighted>
0.9495

> <Gold.Chemscore.Rot.Weighted>
4.4145

> <Gold.Chemscore.Internal.Correction.Weighted>
   9.000000E+99

> <Gold.Protein.RotatedTorsions>
[ 6907 6896 6895 6894 ] final -113.45 input  -60.11 | X-H torsion
[ 7974 7965 7964 7962 ] final  -85.25 input  175.53 | X-H torsion
[ 8008 7997 7996 7995 ] final  -96.12 input   59.86 | X-H torsion
[ 10167 10162 10161 10158 ] final   54.97 input  -65.29 | X-H torsion
[ 10718 10713 10712 10709 ] final   99.03 input   66.30 | X-H torsion
[ 10763 10752 10751 10750 ] final  165.83 input  -60.55 | X-H torsion
[ 11005 11000 10999 10996 ] final -150.52 input  -57.11 | X-H torsion

> <Gold.Protein.ActiveResidues>
 VAL166  LYS551  ARG553  GLY616  TRP617  ASP618  TYR619  PRO620  LYS621  CYS622 
 ASP623  PHE694  ASN695  SER759  ASP760  ASP761  ALA762  ILE779  LEU786  VAL792 
 PHE793  MET794  SER795  GLU796  ALA797  LYS798  CYS799  TRP800  GLU811  SER814 

> <Gold.Protein.RotatedAtoms>
  150.7830  133.8943  159.3322 H   0  0  0  0  0  0  0  0  0  0  0  0  # atno 6907 bound_to 6896
  151.6801  135.0961  160.0224 H   0  0  0  0  0  0  0  0  0  0  0  0  # atno 6908 bound_to 6896
  152.3886  133.6608  159.6255 H   0  0  0  0  0  0  0  0  0  0  0  0  # atno 6909 bound_to 6896
  145.4957  140.9550  143.1787 H   0  0  0  0  0  0  0  0  0  0  0  0  # atno 7974 bound_to 7965
  154.7702  140.0474  157.1045 H   0  0  0  0  0  0  0  0  0  0  0  0  # atno 8008 bound_to 7997
  154.9829  140.3103  155.4919 H   0  0  0  0  0  0  0  0  0  0  0  0  # atno 8009 bound_to 7997
  156.2920  140.2232  156.4929 H   0  0  0  0  0  0  0  0  0  0  0  0  # atno 8010 bound_to 7997
  140.2245  144.3753  150.6438 H   0  0  0  0  0  0  0  0  0  0  0  0  # atno 10167 bound_to 10162
  157.6884  131.0657  150.4886 H   0  0  0  0  0  0  0  0  0  0  0  0  # atno 10718 bound_to 10713
  154.3300  135.2755  155.2477 H   0  0  0  0  0  0  0  0  0  0  0  0  # atno 10763 bound_to 10752
  154.4793  135.5862  153.6381 H   0  0  0  0  0  0  0  0  0  0  0  0  # atno 10764 bound_to 10752
  152.9867  135.6107  154.3491 H   0  0  0  0  0  0  0  0  0  0  0  0  # atno 10765 bound_to 10752
  140.7393  134.3533  157.5151 H   0  0  0  0  0  0  0  0  0  0  0  0  # atno 11005 bound_to 11000
  144.7808  139.6529  143.7155 LP  0  0  0  0  0  0  0  0  0  0  0  0  # atno 17320 bound_to 7965
  146.2257  139.5718  142.9589 LP  0  0  0  0  0  0  0  0  0  0  0  0  # atno 17321 bound_to 7965
  140.6231  143.2178  151.6653 LP  0  0  0  0  0  0  0  0  0  0  0  0  # atno 17342 bound_to 10162
  139.5132  144.3451  152.0705 LP  0  0  0  0  0  0  0  0  0  0  0  0  # atno 17343 bound_to 10162
  156.5214  130.4163  149.6249 LP  0  0  0  0  0  0  0  0  0  0  0  0  # atno 17370 bound_to 10713
  156.3151  130.7250  151.2151 LP  0  0  0  0  0  0  0  0  0  0  0  0  # atno 17371 bound_to 10713
  139.8809  134.9070  156.2935 LP  0  0  0  0  0  0  0  0  0  0  0  0  # atno 17394 bound_to 11000
  140.9851  133.7243  156.0730 LP  0  0  0  0  0  0  0  0  0  0  0  0  # atno 17395 bound_to 11000

$$$$
