AV-unprocessed.smi:739|AV-procd|sdf|3545|dock3
  -GOLD-   22720 0533D 1   1.00000     0.00000
 Structure written by MMmdl.
 33 35  0  0  0  0  0  0  0  0  2 V2000
  147.3280  138.4468  151.4075 O   0  0  0  0  0  0  0  0  0  0  0  0
  146.7845  138.8406  152.6529 C   0  0  1  0  0  0  0  0  0  0  0  0
  146.2355  137.6050  153.3930 C   0  0  0  0  0  0  0  0  0  0  0  0
  145.3677  136.7735  152.5491 N   0  0  0  0  0  0  0  0  0  0  0  0
  144.2661  137.1124  151.8258 C   0  0  0  0  0  0  0  0  0  0  0  0
  143.8133  135.9822  151.2146 N   0  3  0  0  0  0  0  0  0  0  0  0
  144.6377  134.9064  151.5532 C   0  0  0  0  0  0  0  0  0  0  0  0
  144.5871  133.5658  151.1847 C   0  0  0  0  0  0  0  0  0  0  0  0
  145.5888  132.7239  151.7118 C   0  0  0  0  0  0  0  0  0  0  0  0
  145.5875  131.4102  151.3840 F   0  0  0  0  0  0  0  0  0  0  0  0
  146.5901  133.2233  152.5720 C   0  0  0  0  0  0  0  0  0  0  0  0
  147.5332  132.3806  153.0558 F   0  0  0  0  0  0  0  0  0  0  0  0
  146.6306  134.5846  152.9392 C   0  0  0  0  0  0  0  0  0  0  0  0
  145.6379  135.4086  152.4116 C   0  0  0  0  0  0  0  0  0  0  0  0
  147.7899  139.5939  153.5093 C   0  0  0  0  0  0  0  0  0  0  0  0
  148.9499  138.9376  153.9744 C   0  0  0  0  0  0  0  0  0  0  0  0
  149.8909  139.6305  154.7607 C   0  0  0  0  0  0  0  0  0  0  0  0
  149.6792  140.9845  155.0840 C   0  0  0  0  0  0  0  0  0  0  0  0
  150.5843  141.6498  155.8397 F   0  0  0  0  0  0  0  0  0  0  0  0
  148.5261  141.6460  154.6194 C   0  0  0  0  0  0  0  0  0  0  0  0
  147.5843  140.9534  153.8339 C   0  0  0  0  0  0  0  0  0  0  0  0
  147.9324  137.7354  151.5566 H   0  0  0  0  0  0  0  0  0  0  0  0
  145.9571  139.5150  152.4289 H   0  0  0  0  0  0  0  0  0  0  0  0
  147.0543  136.9739  153.7418 H   0  0  0  0  0  0  0  0  0  0  0  0
  145.6731  137.8990  154.2804 H   0  0  0  0  0  0  0  0  0  0  0  0
  143.8288  138.0981  151.7535 H   0  0  0  0  0  0  0  0  0  0  0  0
  143.8221  133.1796  150.5272 H   0  0  0  0  0  0  0  0  0  0  0  0
  147.4004  134.9566  153.5986 H   0  0  0  0  0  0  0  0  0  0  0  0
  149.1237  137.8998  153.7296 H   0  0  0  0  0  0  0  0  0  0  0  0
  150.7762  139.1232  155.1150 H   0  0  0  0  0  0  0  0  0  0  0  0
  148.3644  142.6853  154.8646 H   0  0  0  0  0  0  0  0  0  0  0  0
  146.7048  141.4710  153.4797 H   0  0  0  0  0  0  0  0  0  0  0  0
  143.0005  135.9518  150.6121 H   0  0  0  0  0  0  0  0  0  0  0  0
  1  2  1  0  0  0  0
  1 22  1  0  0  0  0
  2  3  1  0  0  0  0
  2 15  1  0  0  0  0
  2 23  1  0  0  0  0
  3  4  1  0  0  0  0
  3 24  1  0  0  0  0
  3 25  1  0  0  0  0
  4 14  1  0  0  0  0
  4  5  1  0  0  0  0
  5  6  2  0  0  0  0
  5 26  1  0  0  0  0
  6  7  1  0  0  0  0
  6 33  1  0  0  0  0
  7 14  2  0  0  0  0
  7  8  1  0  0  0  0
  8  9  2  0  0  0  0
  8 27  1  0  0  0  0
  9 10  1  0  0  0  0
  9 11  1  0  0  0  0
 11 12  1  0  0  0  0
 11 13  2  0  0  0  0
 13 14  1  0  0  0  0
 13 28  1  0  0  0  0
 15 21  1  0  0  0  0
 15 16  2  0  0  0  0
 16 17  1  0  0  0  0
 16 29  1  0  0  0  0
 17 18  2  0  0  0  0
 17 30  1  0  0  0  0
 18 19  1  0  0  0  0
 18 20  1  0  0  0  0
 20 21  2  0  0  0  0
 20 31  1  0  0  0  0
 21 32  1  0  0  0  0
M  CHG  1   6   1
M  END
> <s_m_source_file>
AV-unprocessed.smi

> <i_m_source_file_index>
739

> <i_lp_mmshare_version>
43012

> <i_f3d_flags>
0

> <s_epik_input>
W2NIXTFbY0hdYyhGKVtjSF1bY0hdYzFbQ0BIXShbT0hdKVtDSDJdbihbY0hdbjIpYyhjMjMpW2NIXWMoRiljKEYpW2NIXTM=

> <s_epik_cmdline>
J2VwaWtfcHl0aG9uJywgJy1waCcsICc3LjAnLCAnLXRuJywgJzgnLCAnLW1hJywgJzIwMCcsICctbWV0YWxfYmluZGluZycsICctaW1hZScsICc8aW5maWxlLm1hZT4nLCAnLW9tYWUnLCAnPG91dGZpbGUubWFlPic=

> <r_epik_Ionization_Penalty>
2.16139

> <r_epik_Ionization_Penalty_Charging>
2.16138

> <r_epik_Ionization_Penalty_Neutral>
1.79538e-06

> <r_epik_State_Penalty>
2.30198

> <r_epik_Charging_Adjusted_Penalty>
4.46337

> <i_epik_Tot_Q>
1

> <i_epik_Tot_abs_Q>
1

> <r_epik_Metal_State_Penalty>
6.38245

> <b_epik_Metal_Only>
0

> <s_lp_Force_Field>
OPLS_2005

> <r_lp_Energy>
14.9103

> <b_lp_Chiralities_Consistent>
1

> <s_lp_Variant>
AV-unprocessed.smi:739-4

> <Gold.Version>
5.8.1

> <Gold.Id.Protein>
6NUR|6NUR_protein|mol2

> <Gold.PLP.Fitness>
45.3345

> <Gold.PLP.PLP>
-37.7894

> <Gold.PLP.part.hbond>
-4.0000

> <Gold.PLP.part.metal>
0.0000

> <Gold.PLP.part.buried>
2.6149

> <Gold.PLP.part.nonpolar>
-36.7717

> <Gold.PLP.part.repulsive>
0.0420

> <Gold.PLP.ligand.clash>
0.0000

> <Gold.PLP.ligand.torsion>
0.1044

> <Gold.PLP.Chemscore.Hbond>
1.0000

> <Gold.PLP.Chemscore.CHOScore>
1.5777

> <Gold.PLP.Chemscore.Metal>
0.0000

> <Gold.Chemscore.Hbonds>
donor molecule, donor type, donor heavy atom, donor atom, acceptor molecule, acceptor atom, score
      L1  H     1    22       P1  7948  1.00
      L1  C     5    26       P1 10171  0.49
      L1  C     5    26       P1 10175  1.00

> <Gold.PLP.Chemscore.Internal.Correction>
0.0210

> <Gold.Rescore>
     Score         DG    S(hbond)    S(metal)    S(lipo)     H(rot)  DE(clash)    DE(int)     intcor
     10.81     -12.12       1.00        0.00      74.56       2.12       1.20       0.11       ----

> <Gold.Chemscore.Fitness>
10.8062

> <Gold.Chemscore.DG>
-12.1220

> <Gold.Chemscore.ZeroCoef>
-5.4800

> <Gold.Chemscore.Hbond>
1.0000

> <Gold.Chemscore.Metal>
0.0000

> <Gold.Chemscore.Lipo>
74.5560

> <Gold.Chemscore.Internal_Hbond>
0.0000

> <Gold.Chemscore.DEClash>
1.2035

> <Gold.Chemscore.DEInternal>
0.1123

> <Gold.Chemscore.Rot>
2.1176

> <Gold.Chemscore.Internal.Correction>
   9.000000E+99

> <Gold.Chemscore.Hbonds>
donor molecule, donor type, donor heavy atom, donor atom, acceptor molecule, acceptor atom, score
      L1  H     1    22       P1  7948  1.00

> <Gold.Chemscore.Hbond.Weighted>
-3.3400

> <Gold.Chemscore.Metal.Weighted>
-0.0000

> <Gold.Chemscore.Lipo.Weighted>
-8.7231

> <Gold.Chemscore.Internal_Hbond.Weighted>
0.0000

> <Gold.Chemscore.DEClash.Weighted>
1.2035

> <Gold.Chemscore.DEInternal.Weighted>
0.1123

> <Gold.Chemscore.Rot.Weighted>
5.4211

> <Gold.Chemscore.Internal.Correction.Weighted>
   9.000000E+99

> <Gold.Protein.RotatedTorsions>
[ 6907 6896 6895 6894 ] final  150.83 input  -60.11 | X-H torsion
[ 7974 7965 7964 7962 ] final  -58.51 input  175.53 | X-H torsion
[ 8008 7997 7996 7995 ] final  130.27 input   59.86 | X-H torsion
[ 10167 10162 10161 10158 ] final  143.82 input  -65.29 | X-H torsion
[ 10718 10713 10712 10709 ] final -106.89 input   66.30 | X-H torsion
[ 10763 10752 10751 10750 ] final  160.52 input  -60.55 | X-H torsion
[ 11005 11000 10999 10996 ] final -161.53 input  -57.11 | X-H torsion

> <Gold.Protein.ActiveResidues>
 VAL166  LYS551  ARG553  GLY616  TRP617  ASP618  TYR619  PRO620  LYS621  CYS622 
 ASP623  PHE694  ASN695  SER759  ASP760  ASP761  ALA762  ILE779  LEU786  VAL792 
 PHE793  MET794  SER795  GLU796  ALA797  LYS798  CYS799  TRP800  GLU811  SER814 

> <Gold.Protein.RotatedAtoms>
  152.1090  133.4290  159.4621 H   0  0  0  0  0  0  0  0  0  0  0  0  # atno 6907 bound_to 6896
  150.6866  134.2671  159.4582 H   0  0  0  0  0  0  0  0  0  0  0  0  # atno 6908 bound_to 6896
  152.0538  134.9636  160.0625 H   0  0  0  0  0  0  0  0  0  0  0  0  # atno 6909 bound_to 6896
  145.8384  140.8433  143.0047 H   0  0  0  0  0  0  0  0  0  0  0  0  # atno 7974 bound_to 7965
  156.2951  140.2600  156.2735 H   0  0  0  0  0  0  0  0  0  0  0  0  # atno 8008 bound_to 7997
  154.9672  140.0391  157.2236 H   0  0  0  0  0  0  0  0  0  0  0  0  # atno 8009 bound_to 7997
  154.7892  140.2809  155.6009 H   0  0  0  0  0  0  0  0  0  0  0  0  # atno 8010 bound_to 7997
  139.4961  144.6014  151.6472 H   0  0  0  0  0  0  0  0  0  0  0  0  # atno 10167 bound_to 10162
  156.0411  130.5635  150.7744 H   0  0  0  0  0  0  0  0  0  0  0  0  # atno 10718 bound_to 10713
  154.2488  135.2772  155.2825 H   0  0  0  0  0  0  0  0  0  0  0  0  # atno 10763 bound_to 10752
  154.5483  135.5682  153.6903 H   0  0  0  0  0  0  0  0  0  0  0  0  # atno 10764 bound_to 10752
  152.9985  135.6268  154.2634 H   0  0  0  0  0  0  0  0  0  0  0  0  # atno 10765 bound_to 10752
  140.6194  134.4767  157.5222 H   0  0  0  0  0  0  0  0  0  0  0  0  # atno 11005 bound_to 11000
  144.6735  140.0776  143.7470 LP  0  0  0  0  0  0  0  0  0  0  0  0  # atno 17320 bound_to 7965
  145.9492  139.2722  143.1222 LP  0  0  0  0  0  0  0  0  0  0  0  0  # atno 17321 bound_to 7965
  140.5665  144.0181  150.6195 LP  0  0  0  0  0  0  0  0  0  0  0  0  # atno 17342 bound_to 10162
  140.3284  143.3093  152.0712 LP  0  0  0  0  0  0  0  0  0  0  0  0  # atno 17343 bound_to 10162
  157.5229  131.0932  151.0055 LP  0  0  0  0  0  0  0  0  0  0  0  0  # atno 17370 bound_to 10713
  157.0381  130.5738  149.5352 LP  0  0  0  0  0  0  0  0  0  0  0  0  # atno 17371 bound_to 10713
  139.9160  134.8246  156.1367 LP  0  0  0  0  0  0  0  0  0  0  0  0  # atno 17394 bound_to 11000
  141.0753  133.6778  156.2224 LP  0  0  0  0  0  0  0  0  0  0  0  0  # atno 17395 bound_to 11000

$$$$
