AV-unprocessed.smi:1041|AV-procd|sdf|4535|dock2
  -GOLD-   22720 2563D 1   1.00000     0.00000
 Structure written by MMmdl.
 51 52  0  0  0  0  0  0  0  0  2 V2000
  151.6400  144.7755  160.1944 C   0  0  0  0  0  0  0  0  0  0  0  0
  152.1161  144.5141  158.8862 O   0  0  0  0  0  0  0  0  0  0  0  0
  152.1839  143.1265  158.5991 C   0  0  0  0  0  0  0  0  0  0  0  0
  150.7687  142.5348  158.4841 C   0  0  0  0  0  0  0  0  0  0  0  0
  150.6672  141.2664  157.7594 N   0  0  0  0  0  0  0  0  0  0  0  0
  151.5352  140.2261  158.3173 C   0  0  0  0  0  0  0  0  0  0  0  0
  151.4008  138.8827  157.5799 C   0  0  0  0  0  0  0  0  0  0  0  0
  151.6968  139.0439  156.0782 C   0  0  0  0  0  0  0  0  0  0  0  0
  151.5178  137.7144  155.3224 C   0  0  0  0  0  0  0  0  0  0  0  0
  150.2537  137.0796  155.6686 N   0  0  0  0  0  0  0  0  0  0  0  0
  150.0798  136.2269  156.6876 C   0  0  0  0  0  0  0  0  0  0  0  0
  150.9914  135.8666  157.4319 O   0  0  0  0  0  0  0  0  0  0  0  0
  148.6559  135.7119  156.9049 C   0  0  0  0  0  0  0  0  0  0  0  0
  148.1748  135.7040  158.3553 C   0  0  0  0  0  0  0  0  0  0  0  0
  147.8358  134.5631  159.0225 C   0  0  0  0  0  0  0  0  0  0  0  0
  147.8909  133.1839  158.3871 C   0  0  0  0  0  0  0  0  0  0  0  0
  147.4082  134.6030  160.3605 N   0  0  0  0  0  0  0  0  0  0  0  0
  147.3386  135.7269  160.9660 C   0  0  0  0  0  0  0  0  0  0  0  0
  146.8811  135.7632  162.4085 C   0  0  0  0  0  0  0  0  0  0  0  0
  147.6604  136.9331  160.3861 N   0  5  0  0  0  0  0  0  0  0  0  0
  148.0738  136.9798  159.0876 C   0  0  0  0  0  0  0  0  0  0  0  0
  148.3536  138.0407  158.5308 O   0  0  0  0  0  0  0  0  0  0  0  0
  150.8147  140.1769  155.5141 C   0  0  0  0  0  0  0  0  0  0  0  0
  150.9808  141.4609  156.3437 C   0  0  0  0  0  0  0  0  0  0  0  0
  151.5939  145.8519  160.3592 H   0  0  0  0  0  0  0  0  0  0  0  0
  152.3038  144.3485  160.9471 H   0  0  0  0  0  0  0  0  0  0  0  0
  150.6382  144.3694  160.3391 H   0  0  0  0  0  0  0  0  0  0  0  0
  152.7499  142.9415  157.6843 H   0  0  0  0  0  0  0  0  0  0  0  0
  152.7144  142.6292  159.4125 H   0  0  0  0  0  0  0  0  0  0  0  0
  150.4158  142.3691  159.5028 H   0  0  0  0  0  0  0  0  0  0  0  0
  150.0913  143.2742  158.0541 H   0  0  0  0  0  0  0  0  0  0  0  0
  152.5747  140.5568  158.2915 H   0  0  0  0  0  0  0  0  0  0  0  0
  151.2887  140.0545  159.3640 H   0  0  0  0  0  0  0  0  0  0  0  0
  152.0796  138.1520  158.0207 H   0  0  0  0  0  0  0  0  0  0  0  0
  150.3918  138.4923  157.7195 H   0  0  0  0  0  0  0  0  0  0  0  0
  152.7402  139.3477  155.9775 H   0  0  0  0  0  0  0  0  0  0  0  0
  151.5418  137.8903  154.2459 H   0  0  0  0  0  0  0  0  0  0  0  0
  152.3405  137.0356  155.5543 H   0  0  0  0  0  0  0  0  0  0  0  0
  149.4498  137.3222  155.1082 H   0  0  0  0  0  0  0  0  0  0  0  0
  147.9616  136.3167  156.3204 H   0  0  0  0  0  0  0  0  0  0  0  0
  148.5857  134.7177  156.4631 H   0  0  0  0  0  0  0  0  0  0  0  0
  147.2041  133.1228  157.5431 H   0  0  0  0  0  0  0  0  0  0  0  0
  147.6080  132.4098  159.1012 H   0  0  0  0  0  0  0  0  0  0  0  0
  148.8974  132.9597  158.0347 H   0  0  0  0  0  0  0  0  0  0  0  0
  146.1527  136.5606  162.5589 H   0  0  0  0  0  0  0  0  0  0  0  0
  147.7310  135.9417  163.0678 H   0  0  0  0  0  0  0  0  0  0  0  0
  146.4152  134.8197  162.6957 H   0  0  0  0  0  0  0  0  0  0  0  0
  151.0715  140.3829  154.4748 H   0  0  0  0  0  0  0  0  0  0  0  0
  149.7672  139.8715  155.5197 H   0  0  0  0  0  0  0  0  0  0  0  0
  150.3309  142.2311  155.9265 H   0  0  0  0  0  0  0  0  0  0  0  0
  152.0019  141.8313  156.2387 H   0  0  0  0  0  0  0  0  0  0  0  0
  1  2  1  0  0  0  0
  1 25  1  0  0  0  0
  1 26  1  0  0  0  0
  1 27  1  0  0  0  0
  2  3  1  0  0  0  0
  3  4  1  0  0  0  0
  3 28  1  0  0  0  0
  3 29  1  0  0  0  0
  4  5  1  0  0  0  0
  4 30  1  0  0  0  0
  4 31  1  0  0  0  0
  5 24  1  0  0  0  0
  5  6  1  0  0  0  0
  6  7  1  0  0  0  0
  6 32  1  0  0  0  0
  6 33  1  0  0  0  0
  7  8  1  0  0  0  0
  7 34  1  0  0  0  0
  7 35  1  0  0  0  0
  8  9  1  0  0  0  0
  8 23  1  0  0  0  0
  8 36  1  0  0  0  0
  9 10  1  0  0  0  0
  9 37  1  0  0  0  0
  9 38  1  0  0  0  0
 10 11  1  0  0  0  0
 10 39  1  0  0  0  0
 11 12  2  0  0  0  0
 11 13  1  0  0  0  0
 13 14  1  0  0  0  0
 13 40  1  0  0  0  0
 13 41  1  0  0  0  0
 14 21  1  0  0  0  0
 14 15  2  0  0  0  0
 15 16  1  0  0  0  0
 15 17  1  0  0  0  0
 16 42  1  0  0  0  0
 16 43  1  0  0  0  0
 16 44  1  0  0  0  0
 17 18  2  0  0  0  0
 18 19  1  0  0  0  0
 18 20  1  0  0  0  0
 19 45  1  0  0  0  0
 19 46  1  0  0  0  0
 19 47  1  0  0  0  0
 20 21  1  0  0  0  0
 21 22  2  0  0  0  0
 23 24  1  0  0  0  0
 23 48  1  0  0  0  0
 23 49  1  0  0  0  0
 24 50  1  0  0  0  0
 24 51  1  0  0  0  0
M  CHG  1  20  -1
M  END
> <s_m_source_file>
AV-unprocessed.smi

> <i_m_source_file_index>
1041

> <i_lp_mmshare_version>
43012

> <i_f3d_flags>
0

> <s_epik_input>
W0NIM11PW0NIMl1bQ0gyXU4xW0NIMl1bQ0gyXVtDSF0oW0NIMl1bQ0gyXTEpW0NIMl1bTkhdQyg9TylbQ0gyXWMyYyhbQ0gzXSluYyhbQ0gzXSlbbkhdYzI9Tw==

> <s_epik_cmdline>
J2VwaWtfcHl0aG9uJywgJy1waCcsICc3LjAnLCAnLXRuJywgJzgnLCAnLW1hJywgJzIwMCcsICctbWV0YWxfYmluZGluZycsICctaW1hZScsICc8aW5maWxlLm1hZT4nLCAnLW9tYWUnLCAnPG91dGZpbGUubWFlPic=

> <r_lp_tautomer_probability>
0.839158

> <r_epik_Ionization_Penalty>
9.04559

> <r_epik_Ionization_Penalty_Charging>
6.70107e-08

> <r_epik_Ionization_Penalty_Neutral>
9.04559

> <r_epik_State_Penalty>
7.10582

> <r_epik_Charging_Adjusted_Penalty>
7.10582

> <i_epik_Tot_Q>
-1

> <i_epik_Tot_abs_Q>
1

> <r_epik_Metal_State_Penalty>
3.46994

> <b_epik_Metal_Only>
1

> <s_lp_Force_Field>
OPLS_2005

> <r_lp_Energy>
32.0623

> <b_lp_Chiralities_Consistent>
1

> <s_lp_Variant>
AV-unprocessed.smi:1041-8

> <Gold.Version>
5.8.1

> <Gold.Id.Protein>
6NUR|6NUR_protein|mol2

> <Gold.PLP.Fitness>
49.5698

> <Gold.PLP.PLP>
-39.7809

> <Gold.PLP.part.hbond>
-4.0000

> <Gold.PLP.part.metal>
0.0000

> <Gold.PLP.part.buried>
-7.2038

> <Gold.PLP.part.nonpolar>
-30.7772

> <Gold.PLP.part.repulsive>
0.1280

> <Gold.PLP.ligand.clash>
0.0000

> <Gold.PLP.ligand.torsion>
0.6119

> <Gold.PLP.Chemscore.Hbond>
3.6291

> <Gold.PLP.Chemscore.CHOScore>
0.0000

> <Gold.PLP.Chemscore.Metal>
0.0000

> <Gold.Chemscore.Hbonds>
donor molecule, donor type, donor heavy atom, donor atom, acceptor molecule, acceptor atom, score
      P1  H  6934  6947       L1    20  1.08

> <Gold.PLP.Chemscore.Internal.Correction>
0.1254

> <Gold.Rescore>
     Score         DG    S(hbond)    S(metal)    S(lipo)     H(rot)  DE(clash)    DE(int)     intcor
     13.58     -14.03       1.24        0.00      87.70       2.28       0.02       0.44       ----

> <Gold.Chemscore.Fitness>
13.5756

> <Gold.Chemscore.DG>
-14.0336

> <Gold.Chemscore.ZeroCoef>
-5.4800

> <Gold.Chemscore.Hbond>
1.2378

> <Gold.Chemscore.Metal>
0.0000

> <Gold.Chemscore.Lipo>
87.6956

> <Gold.Chemscore.Internal_Hbond>
0.0000

> <Gold.Chemscore.DEClash>
0.0212

> <Gold.Chemscore.DEInternal>
0.4368

> <Gold.Chemscore.Rot>
2.2816

> <Gold.Chemscore.Internal.Correction>
   9.000000E+99

> <Gold.Chemscore.Hbonds>
donor molecule, donor type, donor heavy atom, donor atom, acceptor molecule, acceptor atom, score
      P1  H  6896  6909       L1    12  0.01
      P1  H  6931  6943       L1    20  0.04
      P1  H  6934  6947       L1    20  0.26

> <Gold.Chemscore.Hbond.Weighted>
-4.1341

> <Gold.Chemscore.Metal.Weighted>
-0.0000

> <Gold.Chemscore.Lipo.Weighted>
-10.2604

> <Gold.Chemscore.Internal_Hbond.Weighted>
0.0000

> <Gold.Chemscore.DEClash.Weighted>
0.0212

> <Gold.Chemscore.DEInternal.Weighted>
0.4368

> <Gold.Chemscore.Rot.Weighted>
5.8409

> <Gold.Chemscore.Internal.Correction.Weighted>
   9.000000E+99

> <Gold.Protein.RotatedTorsions>
[ 6907 6896 6895 6894 ] final   79.89 input  -60.11 | X-H torsion
[ 7974 7965 7964 7962 ] final   64.86 input  175.53 | X-H torsion
[ 8008 7997 7996 7995 ] final  110.62 input   59.86 | X-H torsion
[ 10167 10162 10161 10158 ] final  135.27 input  -65.29 | X-H torsion
[ 10718 10713 10712 10709 ] final  125.31 input   66.30 | X-H torsion
[ 10763 10752 10751 10750 ] final -162.50 input  -60.55 | X-H torsion
[ 11005 11000 10999 10996 ] final -178.77 input  -57.11 | X-H torsion

> <Gold.Protein.ActiveResidues>
 VAL166  LYS551  ARG553  GLY616  TRP617  ASP618  TYR619  PRO620  LYS621  CYS622 
 ASP623  PHE694  ASN695  SER759  ASP760  ASP761  ALA762  ILE779  LEU786  VAL792 
 PHE793  MET794  SER795  GLU796  ALA797  LYS798  CYS799  TRP800  GLU811  SER814 

> <Gold.Protein.RotatedAtoms>
  152.5215  134.3442  159.9227 H   0  0  0  0  0  0  0  0  0  0  0  0  # atno 6907 bound_to 6896
  151.3392  133.3963  159.2677 H   0  0  0  0  0  0  0  0  0  0  0  0  # atno 6908 bound_to 6896
  150.9817  134.9189  159.7906 H   0  0  0  0  0  0  0  0  0  0  0  0  # atno 6909 bound_to 6896
  145.8453  139.3220  143.0907 H   0  0  0  0  0  0  0  0  0  0  0  0  # atno 7974 bound_to 7965
  156.2066  140.3035  155.9639 H   0  0  0  0  0  0  0  0  0  0  0  0  # atno 8008 bound_to 7997
  155.2827  140.0438  157.3034 H   0  0  0  0  0  0  0  0  0  0  0  0  # atno 8009 bound_to 7997
  154.5641  140.2329  155.8299 H   0  0  0  0  0  0  0  0  0  0  0  0  # atno 8010 bound_to 7997
  139.5223  144.6525  151.5259 H   0  0  0  0  0  0  0  0  0  0  0  0  # atno 10167 bound_to 10162
  157.5514  131.1094  150.8696 H   0  0  0  0  0  0  0  0  0  0  0  0  # atno 10718 bound_to 10713
  154.7209  135.3025  154.9049 H   0  0  0  0  0  0  0  0  0  0  0  0  # atno 10763 bound_to 10752
  153.9922  135.6717  153.4759 H   0  0  0  0  0  0  0  0  0  0  0  0  # atno 10764 bound_to 10752
  153.0833  135.4997  154.8463 H   0  0  0  0  0  0  0  0  0  0  0  0  # atno 10765 bound_to 10752
  140.4261  134.6562  157.4688 H   0  0  0  0  0  0  0  0  0  0  0  0  # atno 11005 bound_to 11000
  145.9419  140.8973  143.0303 LP  0  0  0  0  0  0  0  0  0  0  0  0  # atno 17320 bound_to 7965
  144.6731  140.1561  143.7426 LP  0  0  0  0  0  0  0  0  0  0  0  0  # atno 17321 bound_to 7965
  140.6336  143.9027  150.6627 LP  0  0  0  0  0  0  0  0  0  0  0  0  # atno 17342 bound_to 10162
  140.2339  143.3714  152.1543 LP  0  0  0  0  0  0  0  0  0  0  0  0  # atno 17343 bound_to 10162
  156.9220  130.5318  149.5279 LP  0  0  0  0  0  0  0  0  0  0  0  0  # atno 17370 bound_to 10713
  156.0580  130.5638  150.9132 LP  0  0  0  0  0  0  0  0  0  0  0  0  # atno 17371 bound_to 10713
  140.0167  134.6609  155.9300 LP  0  0  0  0  0  0  0  0  0  0  0  0  # atno 17394 bound_to 11000
  141.1765  133.6541  156.4848 LP  0  0  0  0  0  0  0  0  0  0  0  0  # atno 17395 bound_to 11000

$$$$
