AV-unprocessed.smi:939|AV-procd|sdf|4218|dock2
  -GOLD-   22720 2123D 1   1.00000     0.00000
 Structure written by MMmdl.
 36 37  0  0  0  0  0  0  0  0  1 V2000
  155.6156  140.5362  160.7055 C   0  0  0  0  0  0  0  0  0  0  0  0
  154.4866  140.7653  161.7163 C   0  0  0  0  0  0  0  0  0  0  0  0
  153.6157  141.9278  161.3416 C   0  0  0  0  0  0  0  0  0  0  0  0
  153.1200  142.0183  160.0382 N   0  0  0  0  0  0  0  0  0  0  0  0
  152.3629  143.1010  159.8458 C   0  0  0  0  0  0  0  0  0  0  0  0
  151.6546  143.3973  158.5619 C   0  0  0  0  0  0  0  0  0  0  0  0
  151.4514  142.1569  157.6699 C   0  0  0  0  0  0  0  0  0  0  0  0
  150.5954  142.4391  156.5227 N   0  0  0  0  0  0  0  0  0  0  0  0
  150.1323  141.5216  155.6580 C   0  0  0  0  0  0  0  0  0  0  0  0
  150.4819  140.3429  155.6703 O   0  0  0  0  0  0  0  0  0  0  0  0
  149.2120  141.9809  154.7918 N   0  0  0  0  0  0  0  0  0  0  0  0
  148.5391  141.2503  153.7603 C   0  0  0  0  0  0  0  0  0  0  0  0
  147.0276  141.2992  153.7253 C   0  0  0  0  0  0  0  0  0  0  0  0
  147.7258  140.0463  154.1814 C   0  0  0  0  0  0  0  0  0  0  0  0
  152.2068  144.0964  161.2855 S   0  0  0  0  0  0  0  0  0  0  0  0
  153.2270  142.9725  162.1476 C   0  0  0  0  0  0  0  0  0  0  0  0
  153.5761  143.2017  163.5805 C   0  0  0  0  0  0  0  0  0  0  0  0
  156.2363  139.6904  161.0013 H   0  0  0  0  0  0  0  0  0  0  0  0
  156.2597  141.4130  160.6313 H   0  0  0  0  0  0  0  0  0  0  0  0
  155.2184  140.3265  159.7119 H   0  0  0  0  0  0  0  0  0  0  0  0
  153.8847  139.8589  161.7922 H   0  0  0  0  0  0  0  0  0  0  0  0
  154.9163  140.9170  162.7066 H   0  0  0  0  0  0  0  0  0  0  0  0
  150.6898  143.8503  158.7913 H   0  0  0  0  0  0  0  0  0  0  0  0
  152.2254  144.1520  158.0191 H   0  0  0  0  0  0  0  0  0  0  0  0
  152.4162  141.8295  157.2820 H   0  0  0  0  0  0  0  0  0  0  0  0
  151.0550  141.3248  158.2536 H   0  0  0  0  0  0  0  0  0  0  0  0
  150.2532  143.3846  156.4338 H   0  0  0  0  0  0  0  0  0  0  0  0
  148.9486  142.9512  154.8869 H   0  0  0  0  0  0  0  0  0  0  0  0
  149.0466  141.1454  152.8025 H   0  0  0  0  0  0  0  0  0  0  0  0
  146.5218  141.8979  154.4805 H   0  0  0  0  0  0  0  0  0  0  0  0
  146.5503  141.2847  152.7476 H   0  0  0  0  0  0  0  0  0  0  0  0
  147.7114  139.1905  153.5095 H   0  0  0  0  0  0  0  0  0  0  0  0
  147.6822  139.8060  155.2423 H   0  0  0  0  0  0  0  0  0  0  0  0
  154.6576  143.2347  163.7138 H   0  0  0  0  0  0  0  0  0  0  0  0
  153.1822  142.4013  164.2071 H   0  0  0  0  0  0  0  0  0  0  0  0
  153.1651  144.1444  163.9424 H   0  0  0  0  0  0  0  0  0  0  0  0
  1  2  1  0  0  0  0
  1 18  1  0  0  0  0
  1 19  1  0  0  0  0
  1 20  1  0  0  0  0
  2  3  1  0  0  0  0
  2 21  1  0  0  0  0
  2 22  1  0  0  0  0
  3 16  2  0  0  0  0
  3  4  1  0  0  0  0
  4  5  2  0  0  0  0
  5  6  1  0  0  0  0
  5 15  1  0  0  0  0
  6  7  1  0  0  0  0
  6 23  1  0  0  0  0
  6 24  1  0  0  0  0
  7  8  1  0  0  0  0
  7 25  1  0  0  0  0
  7 26  1  0  0  0  0
  8  9  1  0  0  0  0
  8 27  1  0  0  0  0
  9 10  2  0  0  0  0
  9 11  1  0  0  0  0
 11 12  1  0  0  0  0
 11 28  1  0  0  0  0
 12 14  1  0  0  0  0
 12 13  1  0  0  0  0
 12 29  1  0  0  0  0
 13 14  1  0  0  0  0
 13 30  1  0  0  0  0
 13 31  1  0  0  0  0
 14 32  1  0  0  0  0
 14 33  1  0  0  0  0
 15 16  1  0  0  0  0
 16 17  1  0  0  0  0
 17 34  1  0  0  0  0
 17 35  1  0  0  0  0
 17 36  1  0  0  0  0
M  END
> <s_m_source_file>
AV-unprocessed.smi

> <i_m_source_file_index>
939

> <i_lp_mmshare_version>
43012

> <i_f3d_flags>
0

> <s_epik_input>
W0NIM11bQ0gyXWMxbmMoc2MxW0NIM10pW0NIMl1bQ0gyXVtOSF1DKD1PKVtOSF1bQ0hdMltDSDJdW0NIMl0y

> <s_epik_cmdline>
J2VwaWtfcHl0aG9uJywgJy1waCcsICc3LjAnLCAnLXRuJywgJzgnLCAnLW1hJywgJzIwMCcsICctbWV0YWxfYmluZGluZycsICctaW1hZScsICc8aW5maWxlLm1hZT4nLCAnLW9tYWUnLCAnPG91dGZpbGUubWFlPic=

> <r_epik_Ionization_Penalty>
0.00437198

> <r_epik_Ionization_Penalty_Charging>
0

> <r_epik_Ionization_Penalty_Neutral>
0.00437198

> <r_epik_State_Penalty>
0.00310304

> <r_epik_Charging_Adjusted_Penalty>
0.00310304

> <i_epik_Tot_Q>
0

> <i_epik_Tot_abs_Q>
0

> <r_epik_Metal_State_Penalty>
-0

> <b_epik_Metal_Only>
0

> <s_lp_Force_Field>
OPLS_2005

> <r_lp_Energy>
13.9428

> <b_lp_Chiralities_Consistent>
1

> <s_lp_Variant>
AV-unprocessed.smi:939-1

> <Gold.Version>
5.8.1

> <Gold.Id.Protein>
6NUR|6NUR_protein|mol2

> <Gold.PLP.Fitness>
47.9172

> <Gold.PLP.PLP>
-42.9342

> <Gold.PLP.part.hbond>
-2.0000

> <Gold.PLP.part.metal>
0.0000

> <Gold.PLP.part.buried>
-5.6577

> <Gold.PLP.part.nonpolar>
-34.5944

> <Gold.PLP.part.repulsive>
0.3350

> <Gold.PLP.ligand.clash>
0.0000

> <Gold.PLP.ligand.torsion>
0.4926

> <Gold.PLP.Chemscore.Hbond>
1.9600

> <Gold.PLP.Chemscore.CHOScore>
0.0000

> <Gold.PLP.Chemscore.Metal>
0.0000

> <Gold.Chemscore.Hbonds>
donor molecule, donor type, donor heavy atom, donor atom, acceptor molecule, acceptor atom, score
      L1  H     8    27       P1  8028  0.94
      L1  H    11    28       P1  8028  1.00

> <Gold.PLP.Chemscore.Internal.Correction>
0.0881

> <Gold.Rescore>
     Score         DG    S(hbond)    S(metal)    S(lipo)     H(rot)  DE(clash)    DE(int)     intcor
     20.65     -21.12       1.94        0.00     115.28       1.69       0.15       0.32       ----

> <Gold.Chemscore.Fitness>
20.6524

> <Gold.Chemscore.DG>
-21.1155

> <Gold.Chemscore.ZeroCoef>
-5.4800

> <Gold.Chemscore.Hbond>
1.9409

> <Gold.Chemscore.Metal>
0.0000

> <Gold.Chemscore.Lipo>
115.2812

> <Gold.Chemscore.Internal_Hbond>
0.0000

> <Gold.Chemscore.DEClash>
0.1456

> <Gold.Chemscore.DEInternal>
0.3176

> <Gold.Chemscore.Rot>
1.6934

> <Gold.Chemscore.Internal.Correction>
   9.000000E+99

> <Gold.Chemscore.Hbonds>
donor molecule, donor type, donor heavy atom, donor atom, acceptor molecule, acceptor atom, score
      L1  H     8    27       P1  8028  0.86
      L1  H    11    28       P1  8028  0.99

> <Gold.Chemscore.Hbond.Weighted>
-6.4827

> <Gold.Chemscore.Metal.Weighted>
-0.0000

> <Gold.Chemscore.Lipo.Weighted>
-13.4879

> <Gold.Chemscore.Internal_Hbond.Weighted>
0.0000

> <Gold.Chemscore.DEClash.Weighted>
0.1456

> <Gold.Chemscore.DEInternal.Weighted>
0.3176

> <Gold.Chemscore.Rot.Weighted>
4.3351

> <Gold.Chemscore.Internal.Correction.Weighted>
   9.000000E+99

> <Gold.Protein.RotatedTorsions>
[ 6907 6896 6895 6894 ] final -134.30 input  -60.11 | X-H torsion
[ 7974 7965 7964 7962 ] final  -58.21 input  175.53 | X-H torsion
[ 8008 7997 7996 7995 ] final  161.76 input   59.86 | X-H torsion
[ 10167 10162 10161 10158 ] final -109.43 input  -65.29 | X-H torsion
[ 10718 10713 10712 10709 ] final   93.32 input   66.30 | X-H torsion
[ 10763 10752 10751 10750 ] final  145.43 input  -60.55 | X-H torsion
[ 11005 11000 10999 10996 ] final  146.06 input  -57.11 | X-H torsion

> <Gold.Protein.ActiveResidues>
 VAL166  LYS551  ARG553  GLY616  TRP617  ASP618  TYR619  PRO620  LYS621  CYS622 
 ASP623  PHE694  ASN695  SER759  ASP760  ASP761  ALA762  ILE779  LEU786  VAL792 
 PHE793  MET794  SER795  GLU796  ALA797  LYS798  CYS799  TRP800  GLU811  SER814 

> <Gold.Protein.RotatedAtoms>
  150.9842  133.6214  159.2717 H   0  0  0  0  0  0  0  0  0  0  0  0  # atno 6907 bound_to 6896
  151.3458  135.0873  159.9396 H   0  0  0  0  0  0  0  0  0  0  0  0  # atno 6908 bound_to 6896
  152.5225  133.9444  159.7696 H   0  0  0  0  0  0  0  0  0  0  0  0  # atno 6909 bound_to 6896
  145.8419  140.8411  143.0030 H   0  0  0  0  0  0  0  0  0  0  0  0  # atno 7974 bound_to 7965
  156.2080  140.1768  156.7757 H   0  0  0  0  0  0  0  0  0  0  0  0  # atno 8008 bound_to 7997
  154.5682  140.0687  156.8954 H   0  0  0  0  0  0  0  0  0  0  0  0  # atno 8009 bound_to 7997
  155.2721  140.3343  155.4267 H   0  0  0  0  0  0  0  0  0  0  0  0  # atno 8010 bound_to 7997
  140.1553  143.4165  152.1465 H   0  0  0  0  0  0  0  0  0  0  0  0  # atno 10167 bound_to 10162
  157.6955  131.0474  150.4015 H   0  0  0  0  0  0  0  0  0  0  0  0  # atno 10718 bound_to 10713
  154.0053  135.2919  155.3398 H   0  0  0  0  0  0  0  0  0  0  0  0  # atno 10763 bound_to 10752
  154.7135  135.5139  153.8705 H   0  0  0  0  0  0  0  0  0  0  0  0  # atno 10764 bound_to 10752
  153.0747  135.6659  154.0290 H   0  0  0  0  0  0  0  0  0  0  0  0  # atno 10765 bound_to 10752
  140.0762  134.9123  157.1427 H   0  0  0  0  0  0  0  0  0  0  0  0  # atno 11005 bound_to 11000
  144.6733  140.0825  143.7468 LP  0  0  0  0  0  0  0  0  0  0  0  0  # atno 17320 bound_to 7965
  145.9455  139.2698  143.1243 LP  0  0  0  0  0  0  0  0  0  0  0  0  # atno 17321 bound_to 7965
  139.5406  144.7253  151.4746 LP  0  0  0  0  0  0  0  0  0  0  0  0  # atno 17342 bound_to 10162
  140.6677  143.8363  150.6961 LP  0  0  0  0  0  0  0  0  0  0  0  0  # atno 17343 bound_to 10162
  156.4408  130.3991  149.6698 LP  0  0  0  0  0  0  0  0  0  0  0  0  # atno 17370 bound_to 10713
  156.3882  130.7614  151.2612 LP  0  0  0  0  0  0  0  0  0  0  0  0  # atno 17371 bound_to 10713
  140.3554  134.2552  155.7193 LP  0  0  0  0  0  0  0  0  0  0  0  0  # atno 17394 bound_to 11000
  141.2030  133.7922  157.0360 LP  0  0  0  0  0  0  0  0  0  0  0  0  # atno 17395 bound_to 11000

$$$$
