AV-unprocessed.smi:109|AV-procd|sdf|1046|dock1
  -GOLD-   2262018 83D 1   1.00000     0.00000
 Structure written by MMmdl.
 58 61  0  0  0  0  0  0  0  0  1 V2000
  141.5157  136.0925  158.0272 O   0  0  0  0  0  0  0  0  0  0  0  0
  141.6857  137.4057  157.5399 C   0  0  0  0  0  0  0  0  0  0  0  0
  142.5922  137.3907  156.2986 C   0  0  0  0  0  0  0  0  0  0  0  0
  142.8448  138.8022  155.7240 C   0  0  1  0  0  0  0  0  0  0  0  0
  143.6895  138.7062  154.5339 N   0  0  0  0  0  0  0  0  0  0  0  0
  144.4414  137.6122  154.2819 C   0  0  0  0  0  0  0  0  0  0  0  0
  145.6625  137.4446  154.8532 N   0  0  0  0  0  0  0  0  0  0  0  0
  146.3764  136.3454  154.5943 C   0  0  0  0  0  0  0  0  0  0  0  0
  146.0597  135.3109  153.8130 N   0  0  0  0  0  0  0  0  0  0  0  0
  144.8346  135.4748  153.2336 C   0  0  0  0  0  0  0  0  0  0  0  0
  143.9717  136.5909  153.4168 C   0  0  0  0  0  0  0  0  0  0  0  0
  142.8097  136.4155  152.6773 N   0  0  0  0  0  0  0  0  0  0  0  0
  142.9773  135.2583  152.0958 C   0  0  0  0  0  0  0  0  0  0  0  0
  144.1641  134.6202  152.3801 N   0  0  0  0  0  0  0  0  0  0  0  0
  144.6178  133.2839  151.8798 C   0  0  1  0  0  0  0  0  0  0  0  0
  143.6711  132.7719  150.9960 O   0  0  0  0  0  0  0  0  0  0  0  0
  144.3045  132.0646  149.9302 C   0  0  1  0  0  0  0  0  0  0  0  0
  143.8436  132.7006  148.6080 C   0  0  0  0  0  0  0  0  0  0  0  0
  142.6577  132.0840  148.1524 O   0  0  0  0  0  0  0  0  0  0  0  0
  145.8215  132.1812  150.1703 C   0  0  2  0  0  0  0  0  0  0  0  0
  146.2915  130.9910  150.7739 O   0  0  0  0  0  0  0  0  0  0  0  0
  145.9570  133.3472  151.1350 C   0  0  1  0  0  0  0  0  0  0  0  0
  146.1636  134.5637  150.4395 O   0  0  0  0  0  0  0  0  0  0  0  0
  141.5515  139.6060  155.4162 C   0  0  0  0  0  0  0  0  0  0  0  0
  140.8338  139.1195  154.1385 C   0  0  0  0  0  0  0  0  0  0  0  0
  139.5061  139.8643  153.9230 C   0  0  0  0  0  0  0  0  0  0  0  0
  139.7240  141.3846  153.8754 C   0  0  0  0  0  0  0  0  0  0  0  0
  140.4403  141.8814  155.1407 C   0  0  0  0  0  0  0  0  0  0  0  0
  141.7668  141.1356  155.3600 C   0  0  0  0  0  0  0  0  0  0  0  0
  144.6607  132.6471  152.7645 H   0  0  0  0  0  0  0  0  0  0  0  0
  143.9739  131.0250  149.9612 H   0  0  0  0  0  0  0  0  0  0  0  0
  146.3877  132.3335  149.2502 H   0  0  0  0  0  0  0  0  0  0  0  0
  146.7778  133.2205  151.8422 H   0  0  0  0  0  0  0  0  0  0  0  0
  140.8971  135.6441  157.4707 H   0  0  0  0  0  0  0  0  0  0  0  0
  140.7079  137.8226  157.2970 H   0  0  0  0  0  0  0  0  0  0  0  0
  142.1152  138.0203  158.3315 H   0  0  0  0  0  0  0  0  0  0  0  0
  143.5401  136.9110  156.5457 H   0  0  0  0  0  0  0  0  0  0  0  0
  142.1194  136.7611  155.5459 H   0  0  0  0  0  0  0  0  0  0  0  0
  143.3938  139.3496  156.4907 H   0  0  0  0  0  0  0  0  0  0  0  0
  143.7015  139.5240  153.9414 H   0  0  0  0  0  0  0  0  0  0  0  0
  147.3364  136.2843  155.0851 H   0  0  0  0  0  0  0  0  0  0  0  0
  142.2295  134.8300  151.4443 H   0  0  0  0  0  0  0  0  0  0  0  0
  143.6394  133.7618  148.7535 H   0  0  0  0  0  0  0  0  0  0  0  0
  144.6156  132.6242  147.8421 H   0  0  0  0  0  0  0  0  0  0  0  0
  142.3517  132.5499  147.3893 H   0  0  0  0  0  0  0  0  0  0  0  0
  147.2327  131.0435  150.8429 H   0  0  0  0  0  0  0  0  0  0  0  0
  145.9813  134.4181  149.5237 H   0  0  0  0  0  0  0  0  0  0  0  0
  140.8579  139.4150  156.2366 H   0  0  0  0  0  0  0  0  0  0  0  0
  141.4652  139.2692  153.2631 H   0  0  0  0  0  0  0  0  0  0  0  0
  140.6434  138.0477  154.2024 H   0  0  0  0  0  0  0  0  0  0  0  0
  139.0369  139.5271  152.9983 H   0  0  0  0  0  0  0  0  0  0  0  0
  138.8129  139.6188  154.7285 H   0  0  0  0  0  0  0  0  0  0  0  0
  140.3158  141.6411  152.9957 H   0  0  0  0  0  0  0  0  0  0  0  0
  138.7669  141.8948  153.7642 H   0  0  0  0  0  0  0  0  0  0  0  0
  140.6248  142.9535  155.0667 H   0  0  0  0  0  0  0  0  0  0  0  0
  139.7934  141.7381  156.0072 H   0  0  0  0  0  0  0  0  0  0  0  0
  142.2285  141.4877  156.2829 H   0  0  0  0  0  0  0  0  0  0  0  0
  142.4540  141.3903  154.5529 H   0  0  0  0  0  0  0  0  0  0  0  0
  1  2  1  0  0  0  0
  1 34  1  0  0  0  0
  2  3  1  0  0  0  0
  2 35  1  0  0  0  0
  2 36  1  0  0  0  0
  3  4  1  0  0  0  0
  3 37  1  0  0  0  0
  3 38  1  0  0  0  0
  4  5  1  0  0  0  0
  4 24  1  0  0  0  0
  4 39  1  0  0  0  0
  5  6  1  0  0  0  0
  5 40  1  0  0  0  0
  6 11  1  0  0  0  0
  6  7  2  0  0  0  0
  7  8  1  0  0  0  0
  8  9  2  0  0  0  0
  8 41  1  0  0  0  0
  9 10  1  0  0  0  0
 10 14  1  0  0  0  0
 10 11  2  0  0  0  0
 11 12  1  0  0  0  0
 12 13  2  0  0  0  0
 13 14  1  0  0  0  0
 13 42  1  0  0  0  0
 14 15  1  0  0  0  0
 15 30  1  0  0  0  0
 15 22  1  0  0  0  0
 15 16  1  0  0  0  0
 16 17  1  0  0  0  0
 17 31  1  0  0  0  0
 17 18  1  0  0  0  0
 17 20  1  0  0  0  0
 18 19  1  0  0  0  0
 18 43  1  0  0  0  0
 18 44  1  0  0  0  0
 19 45  1  0  0  0  0
 20 32  1  0  0  0  0
 20 21  1  0  0  0  0
 20 22  1  0  0  0  0
 21 46  1  0  0  0  0
 22 33  1  0  0  0  0
 22 23  1  0  0  0  0
 23 47  1  0  0  0  0
 24 29  1  0  0  0  0
 24 25  1  0  0  0  0
 24 48  1  0  0  0  0
 25 26  1  0  0  0  0
 25 49  1  0  0  0  0
 25 50  1  0  0  0  0
 26 27  1  0  0  0  0
 26 51  1  0  0  0  0
 26 52  1  0  0  0  0
 27 28  1  0  0  0  0
 27 53  1  0  0  0  0
 27 54  1  0  0  0  0
 28 29  1  0  0  0  0
 28 55  1  0  0  0  0
 28 56  1  0  0  0  0
 29 57  1  0  0  0  0
 29 58  1  0  0  0  0
M  END
> <s_m_source_file>
AV-unprocessed.smi

> <i_m_source_file_index>
109

> <i_lp_mmshare_version>
43012

> <i_f3d_flags>
0

> <s_epik_input>
W0NIMl0xW0NIMl1bQ0gyXVtDSDJdW0NIMl1bQ0hdMVtDQEhdKFtDSDJdW0NIMl1bT0hdKVtOSF1jKG5bY0hdbjIpYyhjMjMpbltjSF1uM1tDQEBIXTRPW0NASF0oW0NIMl1bT0hdKVtDQEBIXShbT0hdKVtDQEhdNFtPSF0=

> <s_epik_cmdline>
J2VwaWtfcHl0aG9uJywgJy1waCcsICc3LjAnLCAnLXRuJywgJzgnLCAnLW1hJywgJzIwMCcsICctbWV0YWxfYmluZGluZycsICctaW1hZScsICc8aW5maWxlLm1hZT4nLCAnLW9tYWUnLCAnPG91dGZpbGUubWFlPic=

> <r_lp_tautomer_probability>
1

> <r_epik_Ionization_Penalty>
0.000793976

> <r_epik_Ionization_Penalty_Charging>
0

> <r_epik_Ionization_Penalty_Neutral>
0.000793976

> <r_epik_State_Penalty>
-0

> <r_epik_Charging_Adjusted_Penalty>
0

> <i_epik_Tot_Q>
0

> <i_epik_Tot_abs_Q>
0

> <r_epik_Metal_State_Penalty>
-0

> <b_epik_Metal_Only>
0

> <s_epik_Chemistry_Notes>
This compound contains an acetal/aminal-like group ( X-CH(R)-Y where X, Y are N, S, or O) that may be acid/base labile, releasing an aldehyde.

> <s_lp_Force_Field>
OPLS_2005

> <r_lp_Energy>
52.4563

> <b_lp_Chiralities_Consistent>
1

> <s_lp_Variant>
AV-unprocessed.smi:109-16

> <Gold.Version>
5.8.1

> <Gold.Id.Protein>
6NUR|6NUR_protein|mol2

> <Gold.PLP.Fitness>
49.1860

> <Gold.PLP.PLP>
-35.7242

> <Gold.PLP.part.hbond>
-7.7525

> <Gold.PLP.part.metal>
0.0000

> <Gold.PLP.part.buried>
-6.2830

> <Gold.PLP.part.nonpolar>
-22.9211

> <Gold.PLP.part.repulsive>
0.5248

> <Gold.PLP.ligand.clash>
0.1775

> <Gold.PLP.ligand.torsion>
1.6658

> <Gold.PLP.Chemscore.Hbond>
5.4948

> <Gold.PLP.Chemscore.CHOScore>
0.0000

> <Gold.PLP.Chemscore.Metal>
0.0000

> <Gold.Chemscore.Hbonds>
donor molecule, donor type, donor heavy atom, donor atom, acceptor molecule, acceptor atom, score
      L1  H     1    34       P1 11000  0.99
      L1  H     5    40       P1 10175  1.00
      L1  H    19    45       P1 10195  1.00
      L1  H    21    46       P1 10747  1.00
      L1  H    23    47       P1  7921  1.00
      P1  H 10785 10796       L1    19  0.53

> <Gold.PLP.Chemscore.Internal.Correction>
0.4865

> <Gold.Rescore>
     Score         DG    S(hbond)    S(metal)    S(lipo)     H(rot)  DE(clash)    DE(int)     intcor
     12.40     -14.07       4.32        0.00      69.57       5.47       0.29       1.37       ----

> <Gold.Chemscore.Fitness>
12.4047

> <Gold.Chemscore.DG>
-14.0686

> <Gold.Chemscore.ZeroCoef>
-5.4800

> <Gold.Chemscore.Hbond>
4.3242

> <Gold.Chemscore.Metal>
0.0000

> <Gold.Chemscore.Lipo>
69.5659

> <Gold.Chemscore.Internal_Hbond>
0.0000

> <Gold.Chemscore.DEClash>
0.2933

> <Gold.Chemscore.DEInternal>
1.3707

> <Gold.Chemscore.Rot>
5.4662

> <Gold.Chemscore.Internal.Correction>
   9.000000E+99

> <Gold.Chemscore.Hbonds>
donor molecule, donor type, donor heavy atom, donor atom, acceptor molecule, acceptor atom, score
      L1  H     1    34       P1 11000  0.73
      L1  H     5    40       P1 10175  0.99
      L1  H    19    45       P1 10195  0.93
      L1  H    21    46       P1 10747  0.98
      L1  H    23    47       P1  7921  0.48
      P1  H 10785 10796       L1    19  0.08

> <Gold.Chemscore.Hbond.Weighted>
-14.4429

> <Gold.Chemscore.Metal.Weighted>
-0.0000

> <Gold.Chemscore.Lipo.Weighted>
-8.1392

> <Gold.Chemscore.Internal_Hbond.Weighted>
0.0000

> <Gold.Chemscore.DEClash.Weighted>
0.2933

> <Gold.Chemscore.DEInternal.Weighted>
1.3707

> <Gold.Chemscore.Rot.Weighted>
13.9935

> <Gold.Chemscore.Internal.Correction.Weighted>
   9.000000E+99

> <Gold.Protein.RotatedTorsions>
[ 6907 6896 6895 6894 ] final  147.54 input  -60.11 | X-H torsion
[ 7974 7965 7964 7962 ] final -132.51 input  175.53 | X-H torsion
[ 8008 7997 7996 7995 ] final    7.75 input   59.86 | X-H torsion
[ 10167 10162 10161 10158 ] final  -30.36 input  -65.29 | X-H torsion
[ 10718 10713 10712 10709 ] final  -69.33 input   66.30 | X-H torsion
[ 10763 10752 10751 10750 ] final  -49.38 input  -60.55 | X-H torsion
[ 11005 11000 10999 10996 ] final  -37.20 input  -57.11 | X-H torsion

> <Gold.Protein.ActiveResidues>
 VAL166  LYS551  ARG553  GLY616  TRP617  ASP618  TYR619  PRO620  LYS621  CYS622 
 ASP623  PHE694  ASN695  SER759  ASP760  ASP761  ALA762  ILE779  LEU786  VAL792 
 PHE793  MET794  SER795  GLU796  ALA797  LYS798  CYS799  TRP800  GLU811  SER814 

> <Gold.Protein.RotatedAtoms>
  152.1534  133.4536  159.4824 H   0  0  0  0  0  0  0  0  0  0  0  0  # atno 6907 bound_to 6896
  150.6898  134.2160  159.4387 H   0  0  0  0  0  0  0  0  0  0  0  0  # atno 6908 bound_to 6896
  152.0058  134.9903  160.0617 H   0  0  0  0  0  0  0  0  0  0  0  0  # atno 6909 bound_to 6896
  144.9278  140.7092  143.4925 H   0  0  0  0  0  0  0  0  0  0  0  0  # atno 7974 bound_to 7965
  154.7579  140.2779  155.6238 H   0  0  0  0  0  0  0  0  0  0  0  0  # atno 8008 bound_to 7997
  156.2909  140.2665  156.2277 H   0  0  0  0  0  0  0  0  0  0  0  0  # atno 8009 bound_to 7997
  155.0054  140.0372  157.2367 H   0  0  0  0  0  0  0  0  0  0  0  0  # atno 8010 bound_to 7997
  140.7250  143.3855  151.1523 H   0  0  0  0  0  0  0  0  0  0  0  0  # atno 10167 bound_to 10162
  156.0461  130.4310  150.2131 H   0  0  0  0  0  0  0  0  0  0  0  0  # atno 10718 bound_to 10713
  154.0931  135.6574  153.4856 H   0  0  0  0  0  0  0  0  0  0  0  0  # atno 10763 bound_to 10752
  153.0315  135.5207  154.7361 H   0  0  0  0  0  0  0  0  0  0  0  0  # atno 10764 bound_to 10752
  154.6490  135.2998  154.9979 H   0  0  0  0  0  0  0  0  0  0  0  0  # atno 10765 bound_to 10752
  140.9933  133.6993  156.1889 H   0  0  0  0  0  0  0  0  0  0  0  0  # atno 11005 bound_to 11000
  145.3190  139.1794  143.4598 LP  0  0  0  0  0  0  0  0  0  0  0  0  # atno 17320 bound_to 7965
  146.3234  140.3205  142.8633 LP  0  0  0  0  0  0  0  0  0  0  0  0  # atno 17321 bound_to 7965
  139.7451  143.8864  152.3061 LP  0  0  0  0  0  0  0  0  0  0  0  0  # atno 17342 bound_to 10162
  139.8699  144.7074  150.9000 LP  0  0  0  0  0  0  0  0  0  0  0  0  # atno 17343 bound_to 10162
  157.0221  130.9982  151.3336 LP  0  0  0  0  0  0  0  0  0  0  0  0  # atno 17370 bound_to 10713
  157.5337  130.8075  149.7946 LP  0  0  0  0  0  0  0  0  0  0  0  0  # atno 17371 bound_to 10713
  140.7005  134.4569  157.5586 LP  0  0  0  0  0  0  0  0  0  0  0  0  # atno 17394 bound_to 11000
  139.9003  134.8573  156.1926 LP  0  0  0  0  0  0  0  0  0  0  0  0  # atno 17395 bound_to 11000

$$$$
