AV-unprocessed.smi:2881|AV-procd|sdf|11070|dock8
  -GOLD-   2272015543D 1   1.00000     0.00000
 Structure written by MMmdl.
 40 42  0  0  0  0  0  0  0  0  1 V2000
  146.9276  142.3137  153.7221 C   0  0  0  0  0  0  0  0  0  0  0  0
  148.0478  141.4020  154.1283 C   0  0  0  0  0  0  0  0  0  0  0  0
  149.2165  141.7239  154.8785 C   0  0  0  0  0  0  0  0  0  0  0  0
  149.8960  140.5415  154.9708 C   0  0  0  0  0  0  0  0  0  0  0  0
  151.1893  140.1957  155.6362 C   0  0  0  0  0  0  0  0  0  0  0  0
  151.2016  140.6838  157.0845 C   0  0  0  0  0  0  0  0  0  0  0  0
  151.1950  139.8705  158.0081 O   0  0  0  0  0  0  0  0  0  0  0  0
  151.2218  142.0129  157.2680 N   0  0  0  0  0  0  0  0  0  0  0  0
  151.2539  142.6806  158.5664 C   0  0  1  0  0  0  0  0  0  0  0  0
  152.7024  143.0610  158.9446 C   0  0  2  0  0  0  0  0  0  0  0  0
  152.7534  143.3776  160.4501 C   0  0  0  0  0  0  0  0  0  0  0  0
  152.0305  144.7353  160.5293 C   0  0  0  0  0  0  0  0  0  0  0  0
  151.6463  145.0102  159.0593 C   0  0  1  0  0  0  0  0  0  0  0  0
  152.8627  144.4501  158.3328 C   0  0  0  0  0  0  0  0  0  0  0  0
  150.5352  144.0542  158.5573 C   0  0  2  0  0  0  0  0  0  0  0  0
  149.2113  144.0758  159.3460 C   0  0  0  0  0  0  0  0  0  0  0  0
  148.7165  145.3944  159.4429 O   0  0  0  0  0  0  0  0  0  0  0  0
  149.1391  139.6115  154.2941 N   0  0  0  0  0  0  0  0  0  0  0  0
  148.0079  140.1254  153.7770 N   0  0  0  0  0  0  0  0  0  0  0  0
  149.3776  138.6367  154.1795 H   0  0  0  0  0  0  0  0  0  0  0  0
  147.0271  143.2928  154.1909 H   0  0  0  0  0  0  0  0  0  0  0  0
  145.9602  141.9039  154.0140 H   0  0  0  0  0  0  0  0  0  0  0  0
  146.9157  142.4627  152.6421 H   0  0  0  0  0  0  0  0  0  0  0  0
  149.5091  142.6781  155.2915 H   0  0  0  0  0  0  0  0  0  0  0  0
  152.0187  140.6512  155.0941 H   0  0  0  0  0  0  0  0  0  0  0  0
  151.3571  139.1181  155.6126 H   0  0  0  0  0  0  0  0  0  0  0  0
  151.2257  142.6056  156.4509 H   0  0  0  0  0  0  0  0  0  0  0  0
  150.8360  142.0094  159.3194 H   0  0  0  0  0  0  0  0  0  0  0  0
  153.4502  142.3298  158.6354 H   0  0  0  0  0  0  0  0  0  0  0  0
  152.2695  142.6105  161.0558 H   0  0  0  0  0  0  0  0  0  0  0  0
  153.7843  143.4730  160.7934 H   0  0  0  0  0  0  0  0  0  0  0  0
  151.1778  144.7220  161.2065 H   0  0  0  0  0  0  0  0  0  0  0  0
  152.7147  145.5038  160.8913 H   0  0  0  0  0  0  0  0  0  0  0  0
  151.4412  146.0609  158.8525 H   0  0  0  0  0  0  0  0  0  0  0  0
  153.7983  144.9398  158.6094 H   0  0  0  0  0  0  0  0  0  0  0  0
  152.7638  144.4610  157.2459 H   0  0  0  0  0  0  0  0  0  0  0  0
  150.3067  144.3331  157.5264 H   0  0  0  0  0  0  0  0  0  0  0  0
  148.4645  143.4700  158.8332 H   0  0  0  0  0  0  0  0  0  0  0  0
  149.3220  143.6512  160.3433 H   0  0  0  0  0  0  0  0  0  0  0  0
  148.2338  145.5926  158.6548 H   0  0  0  0  0  0  0  0  0  0  0  0
  1 21  1  0  0  0  0
  1 22  1  0  0  0  0
  1 23  1  0  0  0  0
  1  2  1  0  0  0  0
  2 19  2  0  0  0  0
  2  3  1  0  0  0  0
  3  4  2  0  0  0  0
  3 24  1  0  0  0  0
  4 18  1  0  0  0  0
  4  5  1  0  0  0  0
  5  6  1  0  0  0  0
  5 25  1  0  0  0  0
  5 26  1  0  0  0  0
  6  7  2  0  0  0  0
  6  8  1  0  0  0  0
  8  9  1  0  0  0  0
  8 27  1  0  0  0  0
  9 15  1  0  0  0  0
  9 10  1  0  0  0  0
  9 28  1  0  0  0  0
 10 14  1  0  0  0  0
 10 11  1  0  0  0  0
 10 29  1  0  0  0  0
 11 12  1  0  0  0  0
 11 30  1  0  0  0  0
 11 31  1  0  0  0  0
 12 13  1  0  0  0  0
 12 32  1  0  0  0  0
 12 33  1  0  0  0  0
 13 14  1  0  0  0  0
 13 15  1  0  0  0  0
 13 34  1  0  0  0  0
 14 35  1  0  0  0  0
 14 36  1  0  0  0  0
 15 16  1  0  0  0  0
 15 37  1  0  0  0  0
 16 17  1  0  0  0  0
 16 38  1  0  0  0  0
 16 39  1  0  0  0  0
 17 40  1  0  0  0  0
 18 19  1  0  0  0  0
 18 20  1  0  0  0  0
M  END
> <s_m_source_file>
AV-unprocessed.smi

> <i_m_source_file_index>
2881

> <i_lp_mmshare_version>
43012

> <i_f3d_flags>
0

> <s_epik_input>
W0NIM11jMVtjSF1jKG5bbkhdMSlbQ0gyXUMoPU8pW05IXVtDQEhdKFtDQEBIXTIzKVtDQEhdKFtDSDJdW09IXSlbQ0BASF0oW0NIMl0zKVtDSDJdW0NIMl0y

> <s_epik_cmdline>
J2VwaWtfcHl0aG9uJywgJy1waCcsICc3LjAnLCAnLXRuJywgJzgnLCAnLW1hJywgJzIwMCcsICctbWV0YWxfYmluZGluZycsICctaW1hZScsICc8aW5maWxlLm1hZT4nLCAnLW9tYWUnLCAnPG91dGZpbGUubWFlPic=

> <r_lp_tautomer_probability>
0.5

> <r_epik_Ionization_Penalty>
0.00013396

> <r_epik_Ionization_Penalty_Charging>
0

> <r_epik_Ionization_Penalty_Neutral>
0.00013396

> <r_epik_State_Penalty>
0.41068

> <r_epik_Charging_Adjusted_Penalty>
0.41068

> <i_epik_Tot_Q>
0

> <i_epik_Tot_abs_Q>
0

> <r_epik_Metal_State_Penalty>
0.41066

> <b_epik_Metal_Only>
0

> <s_lp_Force_Field>
OPLS_2005

> <r_lp_Energy>
46.6194

> <b_lp_Chiralities_Consistent>
1

> <s_lp_Variant>
AV-unprocessed.smi:2881-16

> <Gold.Version>
5.8.1

> <Gold.Id.Protein>
6NUR|6NUR_protein|mol2

> <Gold.PLP.Fitness>
46.1992

> <Gold.PLP.PLP>
-44.2111

> <Gold.PLP.part.hbond>
-1.5047

> <Gold.PLP.part.metal>
0.0000

> <Gold.PLP.part.buried>
-3.7100

> <Gold.PLP.part.nonpolar>
-39.3194

> <Gold.PLP.part.repulsive>
0.5778

> <Gold.PLP.ligand.clash>
0.0000

> <Gold.PLP.ligand.torsion>
0.5153

> <Gold.PLP.Chemscore.Hbond>
1.0000

> <Gold.PLP.Chemscore.CHOScore>
0.0000

> <Gold.PLP.Chemscore.Metal>
0.0000

> <Gold.Chemscore.Hbonds>
donor molecule, donor type, donor heavy atom, donor atom, acceptor molecule, acceptor atom, score
      L1  H    17    40       P1  8029  0.81

> <Gold.PLP.Chemscore.Internal.Correction>
0.0187

> <Gold.Rescore>
     Score         DG    S(hbond)    S(metal)    S(lipo)     H(rot)  DE(clash)    DE(int)     intcor
     16.93     -17.45       1.00        0.00     123.67       2.28       0.03       0.50       ----

> <Gold.Chemscore.Fitness>
16.9273

> <Gold.Chemscore.DG>
-17.4531

> <Gold.Chemscore.ZeroCoef>
-5.4800

> <Gold.Chemscore.Hbond>
0.9968

> <Gold.Chemscore.Metal>
0.0000

> <Gold.Chemscore.Lipo>
123.6657

> <Gold.Chemscore.Internal_Hbond>
0.0000

> <Gold.Chemscore.DEClash>
0.0272

> <Gold.Chemscore.DEInternal>
0.4986

> <Gold.Chemscore.Rot>
2.2755

> <Gold.Chemscore.Internal.Correction>
   9.000000E+99

> <Gold.Chemscore.Hbonds>
donor molecule, donor type, donor heavy atom, donor atom, acceptor molecule, acceptor atom, score
      L1  H    17    40       P1  8029  0.80

> <Gold.Chemscore.Hbond.Weighted>
-3.3294

> <Gold.Chemscore.Metal.Weighted>
-0.0000

> <Gold.Chemscore.Lipo.Weighted>
-14.4689

> <Gold.Chemscore.Internal_Hbond.Weighted>
0.0000

> <Gold.Chemscore.DEClash.Weighted>
0.0272

> <Gold.Chemscore.DEInternal.Weighted>
0.4986

> <Gold.Chemscore.Rot.Weighted>
5.8252

> <Gold.Chemscore.Internal.Correction.Weighted>
   9.000000E+99

> <Gold.Protein.RotatedTorsions>
[ 6907 6896 6895 6894 ] final  -80.22 input  -60.11 | X-H torsion
[ 7974 7965 7964 7962 ] final    0.44 input  175.53 | X-H torsion
[ 8008 7997 7996 7995 ] final   -9.83 input   59.86 | X-H torsion
[ 10167 10162 10161 10158 ] final  -83.07 input  -65.29 | X-H torsion
[ 10718 10713 10712 10709 ] final  107.66 input   66.30 | X-H torsion
[ 10763 10752 10751 10750 ] final  -31.66 input  -60.55 | X-H torsion
[ 11005 11000 10999 10996 ] final   58.11 input  -57.11 | X-H torsion

> <Gold.Protein.ActiveResidues>
 VAL166  LYS551  ARG553  GLY616  TRP617  ASP618  TYR619  PRO620  LYS621  CYS622 
 ASP623  PHE694  ASN695  SER759  ASP760  ASP761  ALA762  ILE779  LEU786  VAL792 
 PHE793  MET794  SER795  GLU796  ALA797  LYS798  CYS799  TRP800  GLU811  SER814 

> <Gold.Protein.RotatedAtoms>
  150.6934  134.4003  159.5115 H   0  0  0  0  0  0  0  0  0  0  0  0  # atno 6907 bound_to 6896
  152.1778  134.8777  160.0538 H   0  0  0  0  0  0  0  0  0  0  0  0  # atno 6908 bound_to 6896
  151.9779  133.3713  159.4133 H   0  0  0  0  0  0  0  0  0  0  0  0  # atno 6909 bound_to 6896
  146.2434  140.1137  142.8343 H   0  0  0  0  0  0  0  0  0  0  0  0  # atno 7974 bound_to 7965
  154.5610  140.2344  155.8336 H   0  0  0  0  0  0  0  0  0  0  0  0  # atno 8008 bound_to 7997
  156.2029  140.3047  155.9524 H   0  0  0  0  0  0  0  0  0  0  0  0  # atno 8009 bound_to 7997
  155.2889  140.0426  157.3012 H   0  0  0  0  0  0  0  0  0  0  0  0  # atno 8010 bound_to 7997
  140.4261  143.2566  151.8823 H   0  0  0  0  0  0  0  0  0  0  0  0  # atno 10167 bound_to 10162
  157.6619  131.0877  150.6189 H   0  0  0  0  0  0  0  0  0  0  0  0  # atno 10718 bound_to 10713
  153.8011  135.6890  153.4855 H   0  0  0  0  0  0  0  0  0  0  0  0  # atno 10763 bound_to 10752
  153.1688  135.4551  154.9872 H   0  0  0  0  0  0  0  0  0  0  0  0  # atno 10764 bound_to 10752
  154.8006  135.3336  154.7499 H   0  0  0  0  0  0  0  0  0  0  0  0  # atno 10765 bound_to 10752
  140.0402  134.5885  155.9392 H   0  0  0  0  0  0  0  0  0  0  0  0  # atno 11005 bound_to 11000
  145.0465  140.8985  143.5021 LP  0  0  0  0  0  0  0  0  0  0  0  0  # atno 17320 bound_to 7965
  145.1227  139.2683  143.5580 LP  0  0  0  0  0  0  0  0  0  0  0  0  # atno 17321 bound_to 7965
  139.4783  144.5385  151.8563 LP  0  0  0  0  0  0  0  0  0  0  0  0  # atno 17342 bound_to 10162
  140.4479  144.1895  150.5895 LP  0  0  0  0  0  0  0  0  0  0  0  0  # atno 17343 bound_to 10162
  156.6492  130.4480  149.5725 LP  0  0  0  0  0  0  0  0  0  0  0  0  # atno 17370 bound_to 10713
  156.2150  130.6702  151.1310 LP  0  0  0  0  0  0  0  0  0  0  0  0  # atno 17371 bound_to 10713
  141.1879  133.6561  156.5300 LP  0  0  0  0  0  0  0  0  0  0  0  0  # atno 17394 bound_to 11000
  140.4082  134.7296  157.4820 LP  0  0  0  0  0  0  0  0  0  0  0  0  # atno 17395 bound_to 11000

$$$$
