AV-unprocessed.smi:1254|AV-procd|sdf|5280|dock8
  -GOLD-   22720 4403D 1   1.00000     0.00000
 Structure written by MMmdl.
 44 45  0  0  0  0  0  0  0  0  2 V2000
  144.7757  133.9302  162.7085 C   0  0  0  0  0  0  0  0  0  0  0  0
  145.8142  134.6744  161.9414 C   0  0  0  0  0  0  0  0  0  0  0  0
  146.1622  135.9942  161.8862 C   0  0  0  0  0  0  0  0  0  0  0  0
  147.2379  136.0077  160.9567 C   0  0  0  0  0  0  0  0  0  0  0  0
  147.9167  137.0929  160.5536 N   0  5  0  0  0  0  0  0  0  0  0  0
  148.7722  137.0117  159.5082 C   0  0  0  0  0  0  0  0  0  0  0  0
  149.3947  136.0095  159.1499 O   0  0  0  0  0  0  0  0  0  0  0  0
  148.9153  138.1650  158.8397 N   0  0  0  0  0  0  0  0  0  0  0  0
  149.7574  138.3818  157.6676 C   0  0  0  0  0  0  0  0  0  0  0  0
  149.7899  139.8642  157.2598 C   0  0  1  0  0  0  0  0  0  0  0  0
  150.9023  140.6355  157.9970 C   0  0  0  0  0  0  0  0  0  0  0  0
  150.9763  142.0325  157.5810 N   0  0  0  0  0  0  0  0  0  0  0  0
  152.0341  142.7362  158.3083 C   0  0  0  0  0  0  0  0  0  0  0  0
  151.6617  143.2408  159.7190 C   0  0  0  0  0  0  0  0  0  0  0  0
  151.6177  144.7757  159.7437 C   0  0  0  0  0  0  0  0  0  0  0  0
  152.6329  142.7132  160.7876 C   0  0  0  0  0  0  0  0  0  0  0  0
  151.1544  142.0856  156.1315 C   0  0  0  0  0  0  0  0  0  0  0  0
  150.0587  141.3025  155.3892 C   0  0  0  0  0  0  0  0  0  0  0  0
  150.0349  139.9597  155.8587 O   0  0  0  0  0  0  0  0  0  0  0  0
  147.5065  134.8048  160.4766 N   0  0  0  0  0  0  0  0  0  0  0  0
  146.6020  133.9429  161.1083 O   0  0  0  0  0  0  0  0  0  0  0  0
  143.9579  133.6266  162.0550 H   0  0  0  0  0  0  0  0  0  0  0  0
  144.3615  134.5500  163.5039 H   0  0  0  0  0  0  0  0  0  0  0  0
  145.1976  133.0341  163.1638 H   0  0  0  0  0  0  0  0  0  0  0  0
  145.7219  136.8190  162.4264 H   0  0  0  0  0  0  0  0  0  0  0  0
  148.3832  138.9567  159.1695 H   0  0  0  0  0  0  0  0  0  0  0  0
  150.7636  138.0539  157.9296 H   0  0  0  0  0  0  0  0  0  0  0  0
  149.4408  137.7567  156.8310 H   0  0  0  0  0  0  0  0  0  0  0  0
  148.8235  140.3180  157.4879 H   0  0  0  0  0  0  0  0  0  0  0  0
  150.7227  140.5824  159.0714 H   0  0  0  0  0  0  0  0  0  0  0  0
  151.8612  140.1463  157.8175 H   0  0  0  0  0  0  0  0  0  0  0  0
  152.8940  142.0725  158.4113 H   0  0  0  0  0  0  0  0  0  0  0  0
  152.3823  143.5767  157.7060 H   0  0  0  0  0  0  0  0  0  0  0  0
  150.6596  142.8968  159.9728 H   0  0  0  0  0  0  0  0  0  0  0  0
  152.5928  145.2046  159.5103 H   0  0  0  0  0  0  0  0  0  0  0  0
  151.3176  145.1452  160.7247 H   0  0  0  0  0  0  0  0  0  0  0  0
  150.9026  145.1604  159.0161 H   0  0  0  0  0  0  0  0  0  0  0  0
  153.6562  143.0308  160.5848 H   0  0  0  0  0  0  0  0  0  0  0  0
  152.6247  141.6237  160.8281 H   0  0  0  0  0  0  0  0  0  0  0  0
  152.3616  143.0774  161.7788 H   0  0  0  0  0  0  0  0  0  0  0  0
  151.1372  143.1172  155.7830 H   0  0  0  0  0  0  0  0  0  0  0  0
  152.1309  141.6793  155.8632 H   0  0  0  0  0  0  0  0  0  0  0  0
  149.0821  141.7655  155.5386 H   0  0  0  0  0  0  0  0  0  0  0  0
  150.2525  141.3011  154.3166 H   0  0  0  0  0  0  0  0  0  0  0  0
  1  2  1  0  0  0  0
  1 22  1  0  0  0  0
  1 23  1  0  0  0  0
  1 24  1  0  0  0  0
  2 21  1  0  0  0  0
  2  3  2  0  0  0  0
  3  4  1  0  0  0  0
  3 25  1  0  0  0  0
  4  5  1  0  0  0  0
  4 20  2  0  0  0  0
  5  6  1  0  0  0  0
  6  7  2  0  0  0  0
  6  8  1  0  0  0  0
  8  9  1  0  0  0  0
  8 26  1  0  0  0  0
  9 10  1  0  0  0  0
  9 27  1  0  0  0  0
  9 28  1  0  0  0  0
 10 19  1  0  0  0  0
 10 11  1  0  0  0  0
 10 29  1  0  0  0  0
 11 12  1  0  0  0  0
 11 30  1  0  0  0  0
 11 31  1  0  0  0  0
 12 13  1  0  0  0  0
 12 17  1  0  0  0  0
 13 14  1  0  0  0  0
 13 32  1  0  0  0  0
 13 33  1  0  0  0  0
 14 15  1  0  0  0  0
 14 16  1  0  0  0  0
 14 34  1  0  0  0  0
 15 35  1  0  0  0  0
 15 36  1  0  0  0  0
 15 37  1  0  0  0  0
 16 38  1  0  0  0  0
 16 39  1  0  0  0  0
 16 40  1  0  0  0  0
 17 18  1  0  0  0  0
 17 41  1  0  0  0  0
 17 42  1  0  0  0  0
 18 19  1  0  0  0  0
 18 43  1  0  0  0  0
 18 44  1  0  0  0  0
 20 21  1  0  0  0  0
M  CHG  1   5  -1
M  END
> <s_m_source_file>
AV-unprocessed.smi

> <i_m_source_file_index>
1254

> <i_lp_mmshare_version>
43012

> <i_f3d_flags>
0

> <s_epik_input>
W0NIM11jMVtjSF1jKG5vMSlbTkhdQyg9TylbTkhdW0NIMl1bQ0BASF0yW0NIMl1OKFtDSDJdW0NIMl1PMilbQ0gyXVtDSF0oW0NIM10pW0NIM10=

> <s_epik_cmdline>
J2VwaWtfcHl0aG9uJywgJy1waCcsICc3LjAnLCAnLXRuJywgJzgnLCAnLW1hJywgJzIwMCcsICctbWV0YWxfYmluZGluZycsICctaW1hZScsICc8aW5maWxlLm1hZT4nLCAnLW9tYWUnLCAnPG91dGZpbGUubWFlPic=

> <r_epik_Ionization_Penalty>
7.56718

> <r_epik_Ionization_Penalty_Charging>
6.43435

> <r_epik_Ionization_Penalty_Neutral>
1.13283

> <r_epik_State_Penalty>
7.60314

> <r_epik_Charging_Adjusted_Penalty>
14.0375

> <i_epik_Tot_Q>
-1

> <i_epik_Tot_abs_Q>
1

> <r_epik_Metal_State_Penalty>
3.53636

> <b_epik_Metal_Only>
1

> <s_lp_Force_Field>
OPLS_2005

> <r_lp_Energy>
16.636

> <b_lp_Chiralities_Consistent>
1

> <s_lp_Variant>
AV-unprocessed.smi:1254-12

> <Gold.Version>
5.8.1

> <Gold.Id.Protein>
6NUR|6NUR_protein|mol2

> <Gold.PLP.Fitness>
44.9286

> <Gold.PLP.PLP>
-35.8376

> <Gold.PLP.part.hbond>
-3.0000

> <Gold.PLP.part.metal>
0.0000

> <Gold.PLP.part.buried>
-6.6590

> <Gold.PLP.part.nonpolar>
-27.2936

> <Gold.PLP.part.repulsive>
0.4446

> <Gold.PLP.ligand.clash>
0.0000

> <Gold.PLP.ligand.torsion>
1.5198

> <Gold.PLP.Chemscore.Hbond>
3.9760

> <Gold.PLP.Chemscore.CHOScore>
0.0000

> <Gold.PLP.Chemscore.Metal>
0.0000

> <Gold.Chemscore.Hbonds>
donor molecule, donor type, donor heavy atom, donor atom, acceptor molecule, acceptor atom, score
      P1  H  6896  6908       L1     7  1.00
      P1  H  6931  6943       L1     5  1.38
      P1  H  6934  6947       L1     5  1.38

> <Gold.PLP.Chemscore.Internal.Correction>
0.2025

> <Gold.Rescore>
     Score         DG    S(hbond)    S(metal)    S(lipo)     H(rot)  DE(clash)    DE(int)     intcor
     14.80     -18.72       1.88        0.00      95.55       1.65       0.76       3.16       ----

> <Gold.Chemscore.Fitness>
14.8007

> <Gold.Chemscore.DG>
-18.7171

> <Gold.Chemscore.ZeroCoef>
-5.4800

> <Gold.Chemscore.Hbond>
1.8828

> <Gold.Chemscore.Metal>
0.0000

> <Gold.Chemscore.Lipo>
95.5503

> <Gold.Chemscore.Internal_Hbond>
0.0000

> <Gold.Chemscore.DEClash>
0.7597

> <Gold.Chemscore.DEInternal>
3.1567

> <Gold.Chemscore.Rot>
1.6526

> <Gold.Chemscore.Internal.Correction>
   9.000000E+99

> <Gold.Chemscore.Hbonds>
donor molecule, donor type, donor heavy atom, donor atom, acceptor molecule, acceptor atom, score
      P1  H  6896  6908       L1     7  0.99
      P1  H  6931  6943       L1     5  0.20
      P1  H  6934  6947       L1     5  0.58

> <Gold.Chemscore.Hbond.Weighted>
-6.2885

> <Gold.Chemscore.Metal.Weighted>
-0.0000

> <Gold.Chemscore.Lipo.Weighted>
-11.1794

> <Gold.Chemscore.Internal_Hbond.Weighted>
0.0000

> <Gold.Chemscore.DEClash.Weighted>
0.7597

> <Gold.Chemscore.DEInternal.Weighted>
3.1567

> <Gold.Chemscore.Rot.Weighted>
4.2308

> <Gold.Chemscore.Internal.Correction.Weighted>
   9.000000E+99

> <Gold.Protein.RotatedTorsions>
[ 6907 6896 6895 6894 ] final -162.89 input  -60.11 | X-H torsion
[ 7974 7965 7964 7962 ] final  151.34 input  175.53 | X-H torsion
[ 8008 7997 7996 7995 ] final  157.93 input   59.86 | X-H torsion
[ 10167 10162 10161 10158 ] final  142.49 input  -65.29 | X-H torsion
[ 10718 10713 10712 10709 ] final  -71.28 input   66.30 | X-H torsion
[ 10763 10752 10751 10750 ] final  158.18 input  -60.55 | X-H torsion
[ 11005 11000 10999 10996 ] final  -87.75 input  -57.11 | X-H torsion

> <Gold.Protein.ActiveResidues>
 VAL166  LYS551  ARG553  GLY616  TRP617  ASP618  TYR619  PRO620  LYS621  CYS622 
 ASP623  PHE694  ASN695  SER759  ASP760  ASP761  ALA762  ILE779  LEU786  VAL792 
 PHE793  MET794  SER795  GLU796  ALA797  LYS798  CYS799  TRP800  GLU811  SER814 

> <Gold.Protein.RotatedAtoms>
  151.3874  133.3800  159.2716 H   0  0  0  0  0  0  0  0  0  0  0  0  # atno 6907 bound_to 6896
  150.9531  134.8929  159.7695 H   0  0  0  0  0  0  0  0  0  0  0  0  # atno 6908 bound_to 6896
  152.5120  134.3830  159.9410 H   0  0  0  0  0  0  0  0  0  0  0  0  # atno 6909 bound_to 6896
  144.8299  139.6525  143.6063 H   0  0  0  0  0  0  0  0  0  0  0  0  # atno 7974 bound_to 7965
  156.2334  140.1872  156.7184 H   0  0  0  0  0  0  0  0  0  0  0  0  # atno 8008 bound_to 7997
  154.6062  140.0628  156.9462 H   0  0  0  0  0  0  0  0  0  0  0  0  # atno 8009 bound_to 7997
  155.2091  140.3298  155.4334 H   0  0  0  0  0  0  0  0  0  0  0  0  # atno 8010 bound_to 7997
  139.4993  144.6103  151.6286 H   0  0  0  0  0  0  0  0  0  0  0  0  # atno 10167 bound_to 10162
  156.0370  130.4348  150.2420 H   0  0  0  0  0  0  0  0  0  0  0  0  # atno 10718 bound_to 10713
  154.2120  135.2785  155.2955 H   0  0  0  0  0  0  0  0  0  0  0  0  # atno 10763 bound_to 10752
  154.5770  135.5601  153.7153 H   0  0  0  0  0  0  0  0  0  0  0  0  # atno 10764 bound_to 10752
  153.0062  135.6335  154.2259 H   0  0  0  0  0  0  0  0  0  0  0  0  # atno 10765 bound_to 10752
  141.1612  133.7529  156.9352 H   0  0  0  0  0  0  0  0  0  0  0  0  # atno 11005 bound_to 11000
  146.2602  139.6394  142.9367 LP  0  0  0  0  0  0  0  0  0  0  0  0  # atno 17320 bound_to 7965
  145.4918  141.0438  143.2589 LP  0  0  0  0  0  0  0  0  0  0  0  0  # atno 17321 bound_to 7965
  140.5776  144.0002  150.6250 LP  0  0  0  0  0  0  0  0  0  0  0  0  # atno 17342 bound_to 10162
  140.3140  143.3179  152.0850 LP  0  0  0  0  0  0  0  0  0  0  0  0  # atno 17343 bound_to 10162
  157.0519  131.0065  151.3251 LP  0  0  0  0  0  0  0  0  0  0  0  0  # atno 17370 bound_to 10713
  157.5134  130.7953  149.7730 LP  0  0  0  0  0  0  0  0  0  0  0  0  # atno 17371 bound_to 10713
  140.1359  134.9325  157.2401 LP  0  0  0  0  0  0  0  0  0  0  0  0  # atno 17394 bound_to 11000
  140.2895  134.3256  155.7319 LP  0  0  0  0  0  0  0  0  0  0  0  0  # atno 17395 bound_to 11000

$$$$
