AV-unprocessed.smi:1487|AV-procd|sdf|6012|dock10
  -GOLD-   22720 6113D 1   1.00000     0.00000
 Structure written by MMmdl.
 48 50  0  0  0  0  0  0  0  0  2 V2000
  152.8573  143.2977  160.7335 C   0  0  0  0  0  0  0  0  0  0  0  0
  152.5287  142.3674  159.5792 C   0  0  0  0  0  0  0  0  0  0  0  0
  151.6914  142.8317  158.5399 C   0  0  0  0  0  0  0  0  0  0  0  0
  151.3622  141.9989  157.4483 C   0  0  0  0  0  0  0  0  0  0  0  0
  150.5759  142.2434  156.3354 N   0  0  0  0  0  0  0  0  0  0  0  0
  150.6583  141.0847  155.6886 C   0  0  0  0  0  0  0  0  0  0  0  0
  151.4090  140.1174  156.2497 N   0  0  0  0  0  0  0  0  0  0  0  0
  151.6480  138.7836  155.7283 C   0  0  0  0  0  0  0  0  0  0  0  0
  150.6337  138.3859  154.6385 C   0  0  1  0  0  0  0  0  0  0  0  0
  150.9811  137.1197  154.1108 O   0  0  0  0  0  0  0  0  0  0  0  0
  149.1997  138.3061  155.1981 C   0  0  0  0  0  0  0  0  0  0  0  0
  148.2022  137.9295  154.1634 N   0  3  1  0  0  0  0  0  0  0  0  0
  147.1031  137.0962  154.7144 C   0  0  0  0  0  0  0  0  0  0  0  0
  146.1936  136.5716  153.5927 C   0  0  0  0  0  0  0  0  0  0  0  0
  145.6248  137.7276  152.7584 C   0  0  0  0  0  0  0  0  0  0  0  0
  146.7479  138.6467  152.2493 C   0  0  2  0  0  0  0  0  0  0  0  0
  147.4986  137.9976  151.2415 O   0  0  0  0  0  0  0  0  0  0  0  0
  147.6824  139.0919  153.3916 C   0  0  0  0  0  0  0  0  0  0  0  0
  151.8969  140.6777  157.4255 C   0  0  0  0  0  0  0  0  0  0  0  0
  152.7299  140.2036  158.4542 C   0  0  0  0  0  0  0  0  0  0  0  0
  153.0500  141.0493  159.5366 C   0  0  0  0  0  0  0  0  0  0  0  0
  153.9538  140.5298  160.6408 C   0  0  0  0  0  0  0  0  0  0  0  0
  152.4080  144.2811  160.5923 H   0  0  0  0  0  0  0  0  0  0  0  0
  153.9354  143.4330  160.8221 H   0  0  0  0  0  0  0  0  0  0  0  0
  152.4807  142.8887  161.6714 H   0  0  0  0  0  0  0  0  0  0  0  0
  151.2940  143.8356  158.5723 H   0  0  0  0  0  0  0  0  0  0  0  0
  150.1447  140.9302  154.7506 H   0  0  0  0  0  0  0  0  0  0  0  0
  152.6675  138.7381  155.3425 H   0  0  0  0  0  0  0  0  0  0  0  0
  151.5998  138.0798  156.5605 H   0  0  0  0  0  0  0  0  0  0  0  0
  150.6904  139.1170  153.8328 H   0  0  0  0  0  0  0  0  0  0  0  0
  150.9595  137.1703  153.1667 H   0  0  0  0  0  0  0  0  0  0  0  0
  149.1893  137.5714  156.0051 H   0  0  0  0  0  0  0  0  0  0  0  0
  148.9093  139.2557  155.6503 H   0  0  0  0  0  0  0  0  0  0  0  0
  147.5194  136.2465  155.2570 H   0  0  0  0  0  0  0  0  0  0  0  0
  146.5244  137.6799  155.4321 H   0  0  0  0  0  0  0  0  0  0  0  0
  146.7577  135.8940  152.9502 H   0  0  0  0  0  0  0  0  0  0  0  0
  145.3786  135.9845  154.0175 H   0  0  0  0  0  0  0  0  0  0  0  0
  145.0353  137.3428  151.9254 H   0  0  0  0  0  0  0  0  0  0  0  0
  144.9394  138.3087  153.3770 H   0  0  0  0  0  0  0  0  0  0  0  0
  146.3006  139.5286  151.7893 H   0  0  0  0  0  0  0  0  0  0  0  0
  147.9311  137.2467  151.6194 H   0  0  0  0  0  0  0  0  0  0  0  0
  147.1387  139.7508  154.0705 H   0  0  0  0  0  0  0  0  0  0  0  0
  148.5008  139.6811  152.9792 H   0  0  0  0  0  0  0  0  0  0  0  0
  153.1215  139.1980  158.4088 H   0  0  0  0  0  0  0  0  0  0  0  0
  154.2465  139.4949  160.4617 H   0  0  0  0  0  0  0  0  0  0  0  0
  153.4445  140.5715  161.6038 H   0  0  0  0  0  0  0  0  0  0  0  0
  154.8627  141.1285  160.7031 H   0  0  0  0  0  0  0  0  0  0  0  0
  148.6932  137.3395  153.5059 H   0  0  0  0  0  0  0  0  0  0  0  0
  1  2  1  0  0  0  0
  1 23  1  0  0  0  0
  1 24  1  0  0  0  0
  1 25  1  0  0  0  0
  2 21  1  0  0  0  0
  2  3  2  0  0  0  0
  3  4  1  0  0  0  0
  3 26  1  0  0  0  0
  4 19  2  0  0  0  0
  4  5  1  0  0  0  0
  5  6  2  0  0  0  0
  6  7  1  0  0  0  0
  6 27  1  0  0  0  0
  7  8  1  0  0  0  0
  7 19  1  0  0  0  0
  8  9  1  0  0  0  0
  8 28  1  0  0  0  0
  8 29  1  0  0  0  0
  9 10  1  0  0  0  0
  9 11  1  0  0  0  0
  9 30  1  0  0  0  0
 10 31  1  0  0  0  0
 11 12  1  0  0  0  0
 11 32  1  0  0  0  0
 11 33  1  0  0  0  0
 12 18  1  0  0  0  0
 12 13  1  0  0  0  0
 12 48  1  0  0  0  0
 13 14  1  0  0  0  0
 13 34  1  0  0  0  0
 13 35  1  0  0  0  0
 14 15  1  0  0  0  0
 14 36  1  0  0  0  0
 14 37  1  0  0  0  0
 15 16  1  0  0  0  0
 15 38  1  0  0  0  0
 15 39  1  0  0  0  0
 16 17  1  0  0  0  0
 16 18  1  0  0  0  0
 16 40  1  0  0  0  0
 17 41  1  0  0  0  0
 18 42  1  0  0  0  0
 18 43  1  0  0  0  0
 19 20  1  0  0  0  0
 20 21  2  0  0  0  0
 20 44  1  0  0  0  0
 21 22  1  0  0  0  0
 22 45  1  0  0  0  0
 22 46  1  0  0  0  0
 22 47  1  0  0  0  0
M  CHG  1  12   1
M  END
> <s_m_source_file>
AV-unprocessed.smi

> <i_m_source_file_index>
1487

> <i_lp_mmshare_version>
43012

> <i_f3d_flags>
0

> <s_epik_input>
W0NIM11jKFtjSF0xKWMoW0NIM10pW2NIXWMoYzEyKW4oW2NIXW4yKVtDSDJdW0NASF0oW09IXSlbQ0gyXU4zW0NIMl1bQ0gyXVtDSDJdW0NAQEhdKFtPSF0pW0NIMl0z

> <s_epik_cmdline>
J2VwaWtfcHl0aG9uJywgJy1waCcsICc3LjAnLCAnLXRuJywgJzgnLCAnLW1hJywgJzIwMCcsICctbWV0YWxfYmluZGluZycsICctaW1hZScsICc8aW5maWxlLm1hZT4nLCAnLW9tYWUnLCAnPG91dGZpbGUubWFlPic=

> <r_epik_Ionization_Penalty>
0.0940186

> <r_epik_Ionization_Penalty_Charging>
0.00679686

> <r_epik_Ionization_Penalty_Neutral>
0.0872218

> <r_epik_State_Penalty>
0.0799311

> <r_epik_Charging_Adjusted_Penalty>
0.086728

> <i_epik_Tot_Q>
1

> <i_epik_Tot_abs_Q>
1

> <r_epik_Metal_State_Penalty>
7.95545e-05

> <b_epik_Metal_Only>
0

> <s_lp_Force_Field>
OPLS_2005

> <r_lp_Energy>
22.2404

> <b_lp_Chiralities_Consistent>
1

> <s_lp_Variant>
AV-unprocessed.smi:1487-6

> <Gold.Version>
5.8.1

> <Gold.Id.Protein>
6NUR|6NUR_protein|mol2

> <Gold.PLP.Fitness>
55.1271

> <Gold.PLP.PLP>
-44.0509

> <Gold.PLP.part.hbond>
-5.6069

> <Gold.PLP.part.metal>
0.0000

> <Gold.PLP.part.buried>
-4.6314

> <Gold.PLP.part.nonpolar>
-35.2835

> <Gold.PLP.part.repulsive>
0.5290

> <Gold.PLP.ligand.clash>
0.0000

> <Gold.PLP.ligand.torsion>
0.6089

> <Gold.PLP.Chemscore.Hbond>
4.0863

> <Gold.PLP.Chemscore.CHOScore>
0.0000

> <Gold.PLP.Chemscore.Metal>
0.0000

> <Gold.Chemscore.Hbonds>
donor molecule, donor type, donor heavy atom, donor atom, acceptor molecule, acceptor atom, score
      L1  H    10    31       P1  7949  0.77
      L1  H    12    48       P1  7948  2.00
      L1  H    17    41       P1  7948  0.73
      P1  H  7954  7966       L1    17  0.71

> <Gold.PLP.Chemscore.Internal.Correction>
0.0352

> <Gold.Rescore>
     Score         DG    S(hbond)    S(metal)    S(lipo)     H(rot)  DE(clash)    DE(int)     intcor
     18.36     -19.09       2.14        0.00     113.53       2.67       0.21       0.51       ----

> <Gold.Chemscore.Fitness>
18.3644

> <Gold.Chemscore.DG>
-19.0858

> <Gold.Chemscore.ZeroCoef>
-5.4800

> <Gold.Chemscore.Hbond>
2.1440

> <Gold.Chemscore.Metal>
0.0000

> <Gold.Chemscore.Lipo>
113.5328

> <Gold.Chemscore.Internal_Hbond>
0.0000

> <Gold.Chemscore.DEClash>
0.2083

> <Gold.Chemscore.DEInternal>
0.5132

> <Gold.Chemscore.Rot>
2.6712

> <Gold.Chemscore.Internal.Correction>
   9.000000E+99

> <Gold.Chemscore.Hbonds>
donor molecule, donor type, donor heavy atom, donor atom, acceptor molecule, acceptor atom, score
      L1  H    10    31       P1  7949  0.18
      L1  H    12    48       P1  7948  0.97
      L1  H    17    41       P1  7948  0.72
      P1  H  7954  7966       L1    17  0.08

> <Gold.Chemscore.Hbond.Weighted>
-7.1608

> <Gold.Chemscore.Metal.Weighted>
-0.0000

> <Gold.Chemscore.Lipo.Weighted>
-13.2833

> <Gold.Chemscore.Internal_Hbond.Weighted>
0.0000

> <Gold.Chemscore.DEClash.Weighted>
0.2083

> <Gold.Chemscore.DEInternal.Weighted>
0.5132

> <Gold.Chemscore.Rot.Weighted>
6.8383

> <Gold.Chemscore.Internal.Correction.Weighted>
   9.000000E+99

> <Gold.Protein.RotatedTorsions>
[ 6907 6896 6895 6894 ] final  -96.96 input  -60.11 | X-H torsion
[ 7974 7965 7964 7962 ] final  -75.61 input  175.53 | X-H torsion
[ 8008 7997 7996 7995 ] final  173.87 input   59.86 | X-H torsion
[ 10167 10162 10161 10158 ] final   55.12 input  -65.29 | X-H torsion
[ 10718 10713 10712 10709 ] final  -25.51 input   66.30 | X-H torsion
[ 10763 10752 10751 10750 ] final -107.46 input  -60.55 | X-H torsion
[ 11005 11000 10999 10996 ] final  118.91 input  -57.11 | X-H torsion

> <Gold.Protein.ActiveResidues>
 VAL166  LYS551  ARG553  GLY616  TRP617  ASP618  TYR619  PRO620  LYS621  CYS622 
 ASP623  PHE694  ASN695  SER759  ASP760  ASP761  ALA762  ILE779  LEU786  VAL792 
 PHE793  MET794  SER795  GLU796  ALA797  LYS798  CYS799  TRP800  GLU811  SER814 

> <Gold.Protein.RotatedAtoms>
  150.7003  134.1422  159.4109 H   0  0  0  0  0  0  0  0  0  0  0  0  # atno 6907 bound_to 6896
  151.9407  135.0212  160.0545 H   0  0  0  0  0  0  0  0  0  0  0  0  # atno 6908 bound_to 6896
  152.2096  133.4866  159.5140 H   0  0  0  0  0  0  0  0  0  0  0  0  # atno 6909 bound_to 6896
  145.6238  140.9356  143.1124 H   0  0  0  0  0  0  0  0  0  0  0  0  # atno 7974 bound_to 7965
  156.1032  140.1449  156.9439 H   0  0  0  0  0  0  0  0  0  0  0  0  # atno 8008 bound_to 7997
  154.4716  140.0908  156.7204 H   0  0  0  0  0  0  0  0  0  0  0  0  # atno 8009 bound_to 7997
  155.4724  140.3442  155.4330 H   0  0  0  0  0  0  0  0  0  0  0  0  # atno 8010 bound_to 7997
  140.2228  144.3770  150.6444 H   0  0  0  0  0  0  0  0  0  0  0  0  # atno 10167 bound_to 10162
  156.4635  130.4509  149.6914 H   0  0  0  0  0  0  0  0  0  0  0  0  # atno 10718 bound_to 10713
  154.8076  135.4674  154.0433 H   0  0  0  0  0  0  0  0  0  0  0  0  # atno 10763 bound_to 10752
  153.1889  135.6852  153.8385 H   0  0  0  0  0  0  0  0  0  0  0  0  # atno 10764 bound_to 10752
  153.7910  135.3243  155.3356 H   0  0  0  0  0  0  0  0  0  0  0  0  # atno 10765 bound_to 10752
  139.9127  134.9624  156.7575 H   0  0  0  0  0  0  0  0  0  0  0  0  # atno 11005 bound_to 11000
  144.7220  139.7997  143.7378 LP  0  0  0  0  0  0  0  0  0  0  0  0  # atno 17320 bound_to 7965
  146.1410  139.4468  143.0108 LP  0  0  0  0  0  0  0  0  0  0  0  0  # atno 17321 bound_to 7965
  140.6242  143.2179  151.6630 LP  0  0  0  0  0  0  0  0  0  0  0  0  # atno 17342 bound_to 10162
  139.5138  144.3432  152.0721 LP  0  0  0  0  0  0  0  0  0  0  0  0  # atno 17343 bound_to 10162
  156.3692  130.7522  151.2503 LP  0  0  0  0  0  0  0  0  0  0  0  0  # atno 17370 bound_to 10713
  157.7496  131.0328  150.4242 LP  0  0  0  0  0  0  0  0  0  0  0  0  # atno 17371 bound_to 10713
  140.6724  133.9548  155.7864 LP  0  0  0  0  0  0  0  0  0  0  0  0  # atno 17394 bound_to 11000
  141.0568  134.0404  157.3711 LP  0  0  0  0  0  0  0  0  0  0  0  0  # atno 17395 bound_to 11000

$$$$
