AV-unprocessed.smi:2373|AV-procd|sdf|9439|dock3
  -GOLD-   2272013 63D 1   1.00000     0.00000
 Structure written by MMmdl.
 47 48  0  0  0  0  0  0  0  0  2 V2000
  144.5762  132.0057  150.4572 C   0  0  0  0  0  0  0  0  0  0  0  0
  144.8891  132.6383  151.7338 N   0  0  0  0  0  0  0  0  0  0  0  0
  145.6550  131.9184  152.7429 C   0  0  0  0  0  0  0  0  0  0  0  0
  144.3695  133.9174  152.0280 C   0  0  0  0  0  0  0  0  0  0  0  0
  144.8224  135.1025  151.3984 C   0  0  0  0  0  0  0  0  0  0  0  0
  144.2525  136.3440  151.7470 C   0  0  0  0  0  0  0  0  0  0  0  0
  143.2396  136.4030  152.7266 C   0  0  0  0  0  0  0  0  0  0  0  0
  142.6888  137.6777  153.0319 N   0  0  0  0  0  0  0  0  0  0  0  0
  141.5350  137.9683  153.6578 C   0  0  0  0  0  0  0  0  0  0  0  0
  140.7507  137.1392  154.1166 O   0  0  0  0  0  0  0  0  0  0  0  0
  141.3533  139.2976  153.7368 N   0  0  0  0  0  0  0  0  0  0  0  0
  140.2280  140.0293  154.3388 C   0  0  0  0  0  0  0  0  0  0  0  0
  140.4523  141.5697  154.2490 C   0  0  0  0  0  0  0  0  0  0  0  0
  141.5259  142.1494  155.1908 C   0  0  0  0  0  0  0  0  0  0  0  0
  142.7396  141.4533  155.0089 O   0  0  0  0  0  0  0  0  0  0  0  0
  138.9580  139.5849  153.5703 C   0  0  0  0  0  0  0  0  0  0  0  0
  137.6522  139.9914  154.2758 C   0  0  0  0  0  0  0  0  0  0  0  0
  137.6331  139.4674  155.5961 O   0  0  0  0  0  0  0  0  0  0  0  0
  138.6849  139.9805  156.4017 C   0  0  0  0  0  0  0  0  0  0  0  0
  140.0493  139.5791  155.8134 C   0  0  0  0  0  0  0  0  0  0  0  0
  142.8138  135.1905  153.3197 C   0  0  0  0  0  0  0  0  0  0  0  0
  143.3858  134.0230  152.9544 N   0  3  0  0  0  0  0  0  0  0  0  0
  144.9223  132.6235  149.6278 H   0  0  0  0  0  0  0  0  0  0  0  0
  143.5001  131.8592  150.3560 H   0  0  0  0  0  0  0  0  0  0  0  0
  145.0563  131.0310  150.3686 H   0  0  0  0  0  0  0  0  0  0  0  0
  145.0630  131.7791  153.6480 H   0  0  0  0  0  0  0  0  0  0  0  0
  146.5614  132.4675  152.9994 H   0  0  0  0  0  0  0  0  0  0  0  0
  145.9534  130.9324  152.3866 H   0  0  0  0  0  0  0  0  0  0  0  0
  145.5990  135.0811  150.6485 H   0  0  0  0  0  0  0  0  0  0  0  0
  144.5977  137.2460  151.2631 H   0  0  0  0  0  0  0  0  0  0  0  0
  143.2596  138.4685  152.7709 H   0  0  0  0  0  0  0  0  0  0  0  0
  142.0709  139.8769  153.3261 H   0  0  0  0  0  0  0  0  0  0  0  0
  140.7057  141.8480  153.2267 H   0  0  0  0  0  0  0  0  0  0  0  0
  139.5105  142.0813  154.4505 H   0  0  0  0  0  0  0  0  0  0  0  0
  141.7020  143.2063  154.9920 H   0  0  0  0  0  0  0  0  0  0  0  0
  141.2306  142.0558  156.2352 H   0  0  0  0  0  0  0  0  0  0  0  0
  142.7286  141.0451  154.1565 H   0  0  0  0  0  0  0  0  0  0  0  0
  138.9608  139.9607  152.5478 H   0  0  0  0  0  0  0  0  0  0  0  0
  138.9552  138.4972  153.4803 H   0  0  0  0  0  0  0  0  0  0  0  0
  137.5268  141.0746  154.2952 H   0  0  0  0  0  0  0  0  0  0  0  0
  136.7975  139.5891  153.7319 H   0  0  0  0  0  0  0  0  0  0  0  0
  138.5953  141.0636  156.4938 H   0  0  0  0  0  0  0  0  0  0  0  0
  138.5821  139.5733  157.4075 H   0  0  0  0  0  0  0  0  0  0  0  0
  140.1351  138.4928  155.8747 H   0  0  0  0  0  0  0  0  0  0  0  0
  140.8434  139.9797  156.4439 H   0  0  0  0  0  0  0  0  0  0  0  0
  142.0352  135.0965  154.0613 H   0  0  0  0  0  0  0  0  0  0  0  0
  143.0543  133.1686  153.4027 H   0  0  0  0  0  0  0  0  0  0  0  0
  1  2  1  0  0  0  0
  1 23  1  0  0  0  0
  1 24  1  0  0  0  0
  1 25  1  0  0  0  0
  2  3  1  0  0  0  0
  2  4  1  0  0  0  0
  3 26  1  0  0  0  0
  3 27  1  0  0  0  0
  3 28  1  0  0  0  0
  4 22  1  0  0  0  0
  4  5  2  0  0  0  0
  5  6  1  0  0  0  0
  5 29  1  0  0  0  0
  6  7  2  0  0  0  0
  6 30  1  0  0  0  0
  7  8  1  0  0  0  0
  7 21  1  0  0  0  0
  8  9  1  0  0  0  0
  8 31  1  0  0  0  0
  9 10  2  0  0  0  0
  9 11  1  0  0  0  0
 11 12  1  0  0  0  0
 11 32  1  0  0  0  0
 12 20  1  0  0  0  0
 12 13  1  0  0  0  0
 12 16  1  0  0  0  0
 13 14  1  0  0  0  0
 13 33  1  0  0  0  0
 13 34  1  0  0  0  0
 14 15  1  0  0  0  0
 14 35  1  0  0  0  0
 14 36  1  0  0  0  0
 15 37  1  0  0  0  0
 16 17  1  0  0  0  0
 16 38  1  0  0  0  0
 16 39  1  0  0  0  0
 17 18  1  0  0  0  0
 17 40  1  0  0  0  0
 17 41  1  0  0  0  0
 18 19  1  0  0  0  0
 19 20  1  0  0  0  0
 19 42  1  0  0  0  0
 19 43  1  0  0  0  0
 20 44  1  0  0  0  0
 20 45  1  0  0  0  0
 21 22  2  0  0  0  0
 21 46  1  0  0  0  0
 22 47  1  0  0  0  0
M  CHG  1  22   1
M  END
> <s_m_source_file>
AV-unprocessed.smi

> <i_m_source_file_index>
2373

> <i_lp_mmshare_version>
43012

> <i_f3d_flags>
0

> <s_epik_input>
W0NIM11OKFtDSDNdKWMxW2NIXVtjSF1jKFtjSF1uMSlbTkhdQyg9TylbTkhdQzIoW0NIMl1bQ0gyXVtPSF0pW0NIMl1bQ0gyXU9bQ0gyXVtDSDJdMg==

> <s_epik_cmdline>
J2VwaWtfcHl0aG9uJywgJy1waCcsICc3LjAnLCAnLXRuJywgJzgnLCAnLW1hJywgJzIwMCcsICctbWV0YWxfYmluZGluZycsICctaW1hZScsICc8aW5maWxlLm1hZT4nLCAnLW9tYWUnLCAnPG91dGZpbGUubWFlPic=

> <r_lp_tautomer_probability>
0.999994

> <r_epik_Ionization_Penalty>
0.250535

> <r_epik_Ionization_Penalty_Charging>
0.250515

> <r_epik_Ionization_Penalty_Neutral>
1.96065e-05

> <r_epik_State_Penalty>
0.241842

> <r_epik_Charging_Adjusted_Penalty>
0.492357

> <i_epik_Tot_Q>
1

> <i_epik_Tot_abs_Q>
1

> <r_epik_Metal_State_Penalty>
0.533268

> <b_epik_Metal_Only>
0

> <s_lp_Force_Field>
OPLS_2005

> <r_lp_Energy>
24.7544

> <b_lp_Chiralities_Consistent>
1

> <s_lp_Variant>
AV-unprocessed.smi:2373-1

> <Gold.Version>
5.8.1

> <Gold.Id.Protein>
6NUR|6NUR_protein|mol2

> <Gold.PLP.Fitness>
43.6603

> <Gold.PLP.PLP>
-31.6187

> <Gold.PLP.part.hbond>
-5.5615

> <Gold.PLP.part.metal>
0.0000

> <Gold.PLP.part.buried>
-2.3434

> <Gold.PLP.part.nonpolar>
-23.4879

> <Gold.PLP.part.repulsive>
0.1119

> <Gold.PLP.ligand.clash>
0.0000

> <Gold.PLP.ligand.torsion>
1.5000

> <Gold.PLP.Chemscore.Hbond>
5.0000

> <Gold.PLP.Chemscore.CHOScore>
0.0000

> <Gold.PLP.Chemscore.Metal>
0.0000

> <Gold.Chemscore.Hbonds>
donor molecule, donor type, donor heavy atom, donor atom, acceptor molecule, acceptor atom, score
      L1  H     8    31       P1 10175  1.00
      L1  H    11    32       P1 10175  1.00
      L1  H    15    37       P1 10175  1.00
      L1  H    22    47       P1 10957  2.00

> <Gold.PLP.Chemscore.Internal.Correction>
0.0417

> <Gold.Rescore>
     Score         DG    S(hbond)    S(metal)    S(lipo)     H(rot)  DE(clash)    DE(int)     intcor
     12.19     -17.27       3.24        0.00      54.49       2.12       0.13       4.95       ----

> <Gold.Chemscore.Fitness>
12.1861

> <Gold.Chemscore.DG>
-17.2699

> <Gold.Chemscore.ZeroCoef>
-5.4800

> <Gold.Chemscore.Hbond>
3.2425

> <Gold.Chemscore.Metal>
0.0000

> <Gold.Chemscore.Lipo>
54.4922

> <Gold.Chemscore.Internal_Hbond>
0.0000

> <Gold.Chemscore.DEClash>
0.1315

> <Gold.Chemscore.DEInternal>
4.9524

> <Gold.Chemscore.Rot>
2.1155

> <Gold.Chemscore.Internal.Correction>
   9.000000E+99

> <Gold.Chemscore.Hbonds>
donor molecule, donor type, donor heavy atom, donor atom, acceptor molecule, acceptor atom, score
      L1  H     8    31       P1 10175  0.92
      L1  H    11    32       P1 10175  0.70
      L1  H    15    37       P1 10175  0.24
      L1  H    22    47       P1 10957  0.89

> <Gold.Chemscore.Hbond.Weighted>
-10.8301

> <Gold.Chemscore.Metal.Weighted>
-0.0000

> <Gold.Chemscore.Lipo.Weighted>
-6.3756

> <Gold.Chemscore.Internal_Hbond.Weighted>
0.0000

> <Gold.Chemscore.DEClash.Weighted>
0.1315

> <Gold.Chemscore.DEInternal.Weighted>
4.9524

> <Gold.Chemscore.Rot.Weighted>
5.4158

> <Gold.Chemscore.Internal.Correction.Weighted>
   9.000000E+99

> <Gold.Protein.RotatedTorsions>
[ 6907 6896 6895 6894 ] final   17.30 input  -60.11 | X-H torsion
[ 7974 7965 7964 7962 ] final  140.60 input  175.53 | X-H torsion
[ 8008 7997 7996 7995 ] final -116.89 input   59.86 | X-H torsion
[ 10167 10162 10161 10158 ] final  -76.97 input  -65.29 | X-H torsion
[ 10718 10713 10712 10709 ] final  160.45 input   66.30 | X-H torsion
[ 10763 10752 10751 10750 ] final  -85.92 input  -60.55 | X-H torsion
[ 11005 11000 10999 10996 ] final -165.52 input  -57.11 | X-H torsion

> <Gold.Protein.ActiveResidues>
 VAL166  LYS551  ARG553  GLY616  TRP617  ASP618  TYR619  PRO620  LYS621  CYS622 
 ASP623  PHE694  ASN695  SER759  ASP760  ASP761  ALA762  ILE779  LEU786  VAL792 
 PHE793  MET794  SER795  GLU796  ALA797  LYS798  CYS799  TRP800  GLU811  SER814 

> <Gold.Protein.RotatedAtoms>
  151.8474  135.0569  160.0454 H   0  0  0  0  0  0  0  0  0  0  0  0  # atno 6907 bound_to 6896
  152.2762  133.5424  159.5478 H   0  0  0  0  0  0  0  0  0  0  0  0  # atno 6908 bound_to 6896
  150.7171  134.0544  159.3852 H   0  0  0  0  0  0  0  0  0  0  0  0  # atno 6909 bound_to 6896
  144.9172  139.5215  143.5681 H   0  0  0  0  0  0  0  0  0  0  0  0  # atno 7974 bound_to 7965
  155.0751  140.0394  157.2621 H   0  0  0  0  0  0  0  0  0  0  0  0  # atno 8008 bound_to 7997
  154.6952  140.2661  155.6749 H   0  0  0  0  0  0  0  0  0  0  0  0  # atno 8009 bound_to 7997
  156.2742  140.2751  156.1543 H   0  0  0  0  0  0  0  0  0  0  0  0  # atno 8010 bound_to 7997
  140.4811  143.2402  151.8057 H   0  0  0  0  0  0  0  0  0  0  0  0  # atno 10167 bound_to 10162
  157.1503  131.0562  151.2283 H   0  0  0  0  0  0  0  0  0  0  0  0  # atno 10718 bound_to 10713
  154.6166  135.5467  153.7530 H   0  0  0  0  0  0  0  0  0  0  0  0  # atno 10763 bound_to 10752
  153.0219  135.6402  154.1501 H   0  0  0  0  0  0  0  0  0  0  0  0  # atno 10764 bound_to 10752
  154.1437  135.2907  155.3134 H   0  0  0  0  0  0  0  0  0  0  0  0  # atno 10765 bound_to 10752
  140.5748  134.5201  157.5168 H   0  0  0  0  0  0  0  0  0  0  0  0  # atno 11005 bound_to 11000
  146.3187  139.8023  142.8963 LP  0  0  0  0  0  0  0  0  0  0  0  0  # atno 17320 bound_to 7965
  145.3356  141.0276  143.3421 LP  0  0  0  0  0  0  0  0  0  0  0  0  # atno 17321 bound_to 7965
  139.4833  144.4771  151.9353 LP  0  0  0  0  0  0  0  0  0  0  0  0  # atno 17342 bound_to 10162
  140.3857  144.2680  150.5904 LP  0  0  0  0  0  0  0  0  0  0  0  0  # atno 17343 bound_to 10162
  157.4227  130.7446  149.6926 LP  0  0  0  0  0  0  0  0  0  0  0  0  # atno 17370 bound_to 10713
  155.9772  130.4066  150.3730 LP  0  0  0  0  0  0  0  0  0  0  0  0  # atno 17371 bound_to 10713
  139.9345  134.7901  156.0841 LP  0  0  0  0  0  0  0  0  0  0  0  0  # atno 17394 bound_to 11000
  141.1034  133.6669  156.2806 LP  0  0  0  0  0  0  0  0  0  0  0  0  # atno 17395 bound_to 11000

$$$$
