AV-unprocessed.smi:696|AV-procd|sdf|3387|dock5
  -GOLD-   22720 0363D 1   1.00000     0.00000
 Structure written by MMmdl.
 37 38  0  0  0  0  0  0  0  0  2 V2000
  150.9124  140.4698  155.3549 O   0  0  0  0  0  0  0  0  0  0  0  0
  150.3647  141.4425  155.8749 C   0  0  0  0  0  0  0  0  0  0  0  0
  149.3960  142.1497  155.2724 N   0  0  0  0  0  0  0  0  0  0  0  0
  148.8555  141.8727  153.9464 C   0  0  0  0  0  0  0  0  0  0  0  0
  147.3725  141.4534  154.0182 C   0  0  0  0  0  0  0  0  0  0  0  0
  147.0554  140.0888  153.4216 C   0  0  0  0  0  0  0  0  0  0  0  0
  146.6902  139.0247  154.0372 N   0  0  0  0  0  0  0  0  0  0  0  0
  146.5223  138.0400  153.0097 N   0  5  0  0  0  0  0  0  0  0  0  0
  146.8164  138.6421  151.8319 C   0  0  0  0  0  0  0  0  0  0  0  0
  146.8010  138.1651  150.6992 O   0  0  0  0  0  0  0  0  0  0  0  0
  147.1474  139.9068  152.0697 N   0  0  0  0  0  0  0  0  0  0  0  0
  150.7816  141.9038  157.2797 C   0  0  0  0  0  0  0  0  0  0  0  0
  151.2870  143.3649  157.2319 C   0  0  0  0  0  0  0  0  0  0  0  0
  151.3127  144.0381  158.6149 C   0  0  0  0  0  0  0  0  0  0  0  0
  152.6019  143.8288  159.4297 C   0  0  0  0  0  0  0  0  0  0  0  0
  153.2572  142.4388  159.3414 C   0  0  0  0  0  0  0  0  0  0  0  0
  152.2830  141.2505  159.2984 C   0  0  0  0  0  0  0  0  0  0  0  0
  151.8088  140.9162  157.8728 C   0  0  0  0  0  0  0  0  0  0  0  0
  147.4145  140.6051  151.3922 H   0  0  0  0  0  0  0  0  0  0  0  0
  149.0008  142.9339  155.7708 H   0  0  0  0  0  0  0  0  0  0  0  0
  148.9609  142.7805  153.3511 H   0  0  0  0  0  0  0  0  0  0  0  0
  149.4555  141.1040  153.4556 H   0  0  0  0  0  0  0  0  0  0  0  0
  147.0370  141.4546  155.0559 H   0  0  0  0  0  0  0  0  0  0  0  0
  146.7649  142.1962  153.4998 H   0  0  0  0  0  0  0  0  0  0  0  0
  149.8890  141.8745  157.9071 H   0  0  0  0  0  0  0  0  0  0  0  0
  152.2661  143.4289  156.7551 H   0  0  0  0  0  0  0  0  0  0  0  0
  150.6135  143.9466  156.5999 H   0  0  0  0  0  0  0  0  0  0  0  0
  151.1711  145.1119  158.4875 H   0  0  0  0  0  0  0  0  0  0  0  0
  150.4532  143.7063  159.1984 H   0  0  0  0  0  0  0  0  0  0  0  0
  153.3411  144.5697  159.1235 H   0  0  0  0  0  0  0  0  0  0  0  0
  152.3816  144.0533  160.4738 H   0  0  0  0  0  0  0  0  0  0  0  0
  153.9147  142.3992  158.4721 H   0  0  0  0  0  0  0  0  0  0  0  0
  153.9166  142.3252  160.2025 H   0  0  0  0  0  0  0  0  0  0  0  0
  152.8075  140.3752  159.6835 H   0  0  0  0  0  0  0  0  0  0  0  0
  151.4382  141.4095  159.9696 H   0  0  0  0  0  0  0  0  0  0  0  0
  151.3587  139.9223  157.8932 H   0  0  0  0  0  0  0  0  0  0  0  0
  152.6756  140.8296  157.2155 H   0  0  0  0  0  0  0  0  0  0  0  0
  1  2  2  0  0  0  0
  2  3  1  0  0  0  0
  2 12  1  0  0  0  0
  3  4  1  0  0  0  0
  3 20  1  0  0  0  0
  4  5  1  0  0  0  0
  4 21  1  0  0  0  0
  4 22  1  0  0  0  0
  5  6  1  0  0  0  0
  5 23  1  0  0  0  0
  5 24  1  0  0  0  0
  6 11  1  0  0  0  0
  6  7  2  0  0  0  0
  7  8  1  0  0  0  0
  8  9  1  0  0  0  0
  9 10  2  0  0  0  0
  9 11  1  0  0  0  0
 11 19  1  0  0  0  0
 12 18  1  0  0  0  0
 12 13  1  0  0  0  0
 12 25  1  0  0  0  0
 13 14  1  0  0  0  0
 13 26  1  0  0  0  0
 13 27  1  0  0  0  0
 14 15  1  0  0  0  0
 14 28  1  0  0  0  0
 14 29  1  0  0  0  0
 15 16  1  0  0  0  0
 15 30  1  0  0  0  0
 15 31  1  0  0  0  0
 16 17  1  0  0  0  0
 16 32  1  0  0  0  0
 16 33  1  0  0  0  0
 17 18  1  0  0  0  0
 17 34  1  0  0  0  0
 17 35  1  0  0  0  0
 18 36  1  0  0  0  0
 18 37  1  0  0  0  0
M  CHG  1   8  -1
M  END
> <s_m_source_file>
AV-unprocessed.smi

> <i_m_source_file_index>
696

> <i_lp_mmshare_version>
43012

> <i_f3d_flags>
0

> <s_epik_input>
W0NIMl0xW0NIMl1bQ0gyXVtDSDJdW0NIMl1bQ0gyXVtDSF0xQyg9TylbTkhdW0NIMl1bQ0gyXWMybltuSF1jKD1PKVtuSF0y

> <s_epik_cmdline>
J2VwaWtfcHl0aG9uJywgJy1waCcsICc3LjAnLCAnLXRuJywgJzgnLCAnLW1hJywgJzIwMCcsICctbWV0YWxfYmluZGluZycsICctaW1hZScsICc8aW5maWxlLm1hZT4nLCAnLW9tYWUnLCAnPG91dGZpbGUubWFlPic=

> <r_lp_tautomer_probability>
1

> <r_epik_Ionization_Penalty>
14.1589

> <r_epik_Ionization_Penalty_Charging>
13.7723

> <r_epik_Ionization_Penalty_Neutral>
0.386566

> <r_epik_State_Penalty>
4.88838

> <r_epik_Charging_Adjusted_Penalty>
18.6607

> <i_epik_Tot_Q>
-1

> <i_epik_Tot_abs_Q>
1

> <r_epik_Metal_State_Penalty>
1.30742

> <b_epik_Metal_Only>
1

> <s_lp_Force_Field>
OPLS_2005

> <r_lp_Energy>
24.8818

> <b_lp_Chiralities_Consistent>
1

> <s_lp_Variant>
AV-unprocessed.smi:696-2

> <Gold.Version>
5.8.1

> <Gold.Id.Protein>
6NUR|6NUR_protein|mol2

> <Gold.PLP.Fitness>
44.6755

> <Gold.PLP.PLP>
-37.0931

> <Gold.PLP.part.hbond>
-4.0000

> <Gold.PLP.part.metal>
0.0000

> <Gold.PLP.part.buried>
-1.3265

> <Gold.PLP.part.nonpolar>
-33.2464

> <Gold.PLP.part.repulsive>
1.6777

> <Gold.PLP.ligand.clash>
0.0000

> <Gold.PLP.ligand.torsion>
0.4879

> <Gold.PLP.Chemscore.Hbond>
2.8400

> <Gold.PLP.Chemscore.CHOScore>
0.0000

> <Gold.PLP.Chemscore.Metal>
0.0000

> <Gold.Chemscore.Hbonds>
donor molecule, donor type, donor heavy atom, donor atom, acceptor molecule, acceptor atom, score
      L1  H     3    20       P1  8028  0.80
      P1  H  7954  7966       L1    10  1.00
      P1  H  7989  7998       L1     1  0.98

> <Gold.PLP.Chemscore.Internal.Correction>
0.0381

> <Gold.Rescore>
     Score         DG    S(hbond)    S(metal)    S(lipo)     H(rot)  DE(clash)    DE(int)     intcor
     16.11     -18.50       2.66        0.00      84.60       2.25       1.92       0.47       ----

> <Gold.Chemscore.Fitness>
16.1082

> <Gold.Chemscore.DG>
-18.4960

> <Gold.Chemscore.ZeroCoef>
-5.4800

> <Gold.Chemscore.Hbond>
2.6581

> <Gold.Chemscore.Metal>
0.0000

> <Gold.Chemscore.Lipo>
84.5997

> <Gold.Chemscore.Internal_Hbond>
0.0000

> <Gold.Chemscore.DEClash>
1.9180

> <Gold.Chemscore.DEInternal>
0.4698

> <Gold.Chemscore.Rot>
2.2501

> <Gold.Chemscore.Internal.Correction>
   9.000000E+99

> <Gold.Chemscore.Hbonds>
donor molecule, donor type, donor heavy atom, donor atom, acceptor molecule, acceptor atom, score
      L1  H     3    20       P1  8028  0.80
      L1  H    11    19       P1  7957  0.03
      P1  H  7954  7966       L1    10  0.95
      P1  H  7989  7998       L1     1  0.72

> <Gold.Chemscore.Hbond.Weighted>
-8.8782

> <Gold.Chemscore.Metal.Weighted>
-0.0000

> <Gold.Chemscore.Lipo.Weighted>
-9.8982

> <Gold.Chemscore.Internal_Hbond.Weighted>
0.0000

> <Gold.Chemscore.DEClash.Weighted>
1.9180

> <Gold.Chemscore.DEInternal.Weighted>
0.4698

> <Gold.Chemscore.Rot.Weighted>
5.7603

> <Gold.Chemscore.Internal.Correction.Weighted>
   9.000000E+99

> <Gold.Protein.RotatedTorsions>
[ 6907 6896 6895 6894 ] final   26.28 input  -60.11 | X-H torsion
[ 7974 7965 7964 7962 ] final   19.70 input  175.53 | X-H torsion
[ 8008 7997 7996 7995 ] final   78.62 input   59.86 | X-H torsion
[ 10167 10162 10161 10158 ] final   15.33 input  -65.29 | X-H torsion
[ 10718 10713 10712 10709 ] final  -40.26 input   66.30 | X-H torsion
[ 10763 10752 10751 10750 ] final  -22.84 input  -60.55 | X-H torsion
[ 11005 11000 10999 10996 ] final   51.70 input  -57.11 | X-H torsion

> <Gold.Protein.ActiveResidues>
 VAL166  LYS551  ARG553  GLY616  TRP617  ASP618  TYR619  PRO620  LYS621  CYS622 
 ASP623  PHE694  ASN695  SER759  ASP760  ASP761  ALA762  ILE779  LEU786  VAL792 
 PHE793  MET794  SER795  GLU796  ALA797  LYS798  CYS799  TRP800  GLU811  SER814 

> <Gold.Protein.RotatedAtoms>
  151.9851  135.0008  160.0558 H   0  0  0  0  0  0  0  0  0  0  0  0  # atno 6907 bound_to 6896
  152.1661  133.4608  159.4893 H   0  0  0  0  0  0  0  0  0  0  0  0  # atno 6908 bound_to 6896
  150.6894  134.1929  159.4335 H   0  0  0  0  0  0  0  0  0  0  0  0  # atno 6909 bound_to 6896
  146.2139  139.8275  142.8667 H   0  0  0  0  0  0  0  0  0  0  0  0  # atno 7974 bound_to 7965
  155.8583  140.3455  155.5739 H   0  0  0  0  0  0  0  0  0  0  0  0  # atno 8008 bound_to 7997
  155.7961  140.0878  157.2002 H   0  0  0  0  0  0  0  0  0  0  0  0  # atno 8009 bound_to 7997
  154.4010  140.1474  156.3207 H   0  0  0  0  0  0  0  0  0  0  0  0  # atno 8010 bound_to 7997
  140.5874  143.8862  150.6843 H   0  0  0  0  0  0  0  0  0  0  0  0  # atno 10167 bound_to 10162
  156.2833  130.4219  149.8314 H   0  0  0  0  0  0  0  0  0  0  0  0  # atno 10718 bound_to 10713
  153.6584  135.6977  153.5185 H   0  0  0  0  0  0  0  0  0  0  0  0  # atno 10763 bound_to 10752
  153.2651  135.4232  155.0932 H   0  0  0  0  0  0  0  0  0  0  0  0  # atno 10764 bound_to 10752
  154.8458  135.3564  154.6129 H   0  0  0  0  0  0  0  0  0  0  0  0  # atno 10765 bound_to 10752
  140.0910  134.5209  155.8852 H   0  0  0  0  0  0  0  0  0  0  0  0  # atno 11005 bound_to 11000
  145.3032  141.0200  143.3597 LP  0  0  0  0  0  0  0  0  0  0  0  0  # atno 17320 bound_to 7965
  144.8990  139.4674  143.6641 LP  0  0  0  0  0  0  0  0  0  0  0  0  # atno 17321 bound_to 7965
  140.2376  143.3688  152.1513 LP  0  0  0  0  0  0  0  0  0  0  0  0  # atno 17342 bound_to 10162
  139.5206  144.7035  151.5422 LP  0  0  0  0  0  0  0  0  0  0  0  0  # atno 17343 bound_to 10162
  156.5753  130.8442  151.3368 LP  0  0  0  0  0  0  0  0  0  0  0  0  # atno 17370 bound_to 10713
  157.7321  130.9710  150.1911 LP  0  0  0  0  0  0  0  0  0  0  0  0  # atno 17371 bound_to 10713
  141.2078  133.6667  156.6328 LP  0  0  0  0  0  0  0  0  0  0  0  0  # atno 17394 bound_to 11000
  140.3352  134.7895  157.4356 LP  0  0  0  0  0  0  0  0  0  0  0  0  # atno 17395 bound_to 11000

$$$$
