AV-unprocessed.smi:1008|AV-procd|sdf|4410|dock4
  -GOLD-   22720 2353D 1   1.00000     0.00000
 Structure written by MMmdl.
 23 23  0  0  0  0  0  0  0  0  1 V2000
  146.4857  142.2972  154.2270 C   0  0  0  0  0  0  0  0  0  0  0  0
  147.3154  141.0638  153.9163 C   0  0  0  0  0  0  0  0  0  0  0  0
  146.6505  140.0451  153.2203 N   0  0  0  0  0  0  0  0  0  0  0  0
  147.2831  138.9588  152.9167 C   0  0  0  0  0  0  0  0  0  0  0  0
  146.7550  137.8798  152.2382 N   0  0  0  0  0  0  0  0  0  0  0  0
  148.6213  138.7808  153.2682 N   0  0  0  0  0  0  0  0  0  0  0  0
  149.3490  139.7056  153.9341 C   0  0  0  0  0  0  0  0  0  0  0  0
  150.5289  139.4912  154.2083 O   0  0  0  0  0  0  0  0  0  0  0  0
  148.6240  140.9409  154.2787 C   0  0  0  0  0  0  0  0  0  0  0  0
  149.3819  142.0175  155.0504 C   0  0  0  0  0  0  0  0  0  0  0  0
  149.8050  141.5391  156.4468 C   0  0  0  0  0  0  0  0  0  0  0  0
  150.2069  142.6427  157.2284 O   0  0  0  0  0  0  0  0  0  0  0  0
  149.0802  137.9187  153.0134 H   0  0  0  0  0  0  0  0  0  0  0  0
  146.9923  143.1997  153.8844 H   0  0  0  0  0  0  0  0  0  0  0  0
  146.3162  142.3798  155.3008 H   0  0  0  0  0  0  0  0  0  0  0  0
  145.5129  142.2546  153.7359 H   0  0  0  0  0  0  0  0  0  0  0  0
  145.8002  137.8451  151.9108 H   0  0  0  0  0  0  0  0  0  0  0  0
  147.2780  137.0449  152.0172 H   0  0  0  0  0  0  0  0  0  0  0  0
  150.2618  142.3317  154.4898 H   0  0  0  0  0  0  0  0  0  0  0  0
  148.7623  142.9119  155.1325 H   0  0  0  0  0  0  0  0  0  0  0  0
  148.9815  141.0305  156.9487 H   0  0  0  0  0  0  0  0  0  0  0  0
  150.6330  140.8330  156.3785 H   0  0  0  0  0  0  0  0  0  0  0  0
  149.8025  143.4220  156.8788 H   0  0  0  0  0  0  0  0  0  0  0  0
  1  2  1  0  0  0  0
  1 14  1  0  0  0  0
  1 15  1  0  0  0  0
  1 16  1  0  0  0  0
  2  9  2  0  0  0  0
  2  3  1  0  0  0  0
  3  4  2  0  0  0  0
  4  5  1  0  0  0  0
  4  6  1  0  0  0  0
  5 17  1  0  0  0  0
  5 18  1  0  0  0  0
  6 13  1  0  0  0  0
  6  7  1  0  0  0  0
  7  8  2  0  0  0  0
  7  9  1  0  0  0  0
  9 10  1  0  0  0  0
 10 11  1  0  0  0  0
 10 19  1  0  0  0  0
 10 20  1  0  0  0  0
 11 12  1  0  0  0  0
 11 21  1  0  0  0  0
 11 22  1  0  0  0  0
 12 23  1  0  0  0  0
M  END
> <s_m_source_file>
AV-unprocessed.smi

> <i_m_source_file_index>
1008

> <i_lp_mmshare_version>
43012

> <i_f3d_flags>
0

> <s_epik_input>
W0NIM11jMW5jKFtOSDJdKVtuSF1jKD1PKWMxW0NIMl1bQ0gyXVtPSF0=

> <s_epik_cmdline>
J2VwaWtfcHl0aG9uJywgJy1waCcsICc3LjAnLCAnLXRuJywgJzgnLCAnLW1hJywgJzIwMCcsICctbWV0YWxfYmluZGluZycsICctaW1hZScsICc8aW5maWxlLm1hZT4nLCAnLW9tYWUnLCAnPG91dGZpbGUubWFlPic=

> <r_lp_tautomer_probability>
0.878315

> <r_epik_Ionization_Penalty>
0.000554322

> <r_epik_Ionization_Penalty_Charging>
3.57358e-05

> <r_epik_Ionization_Penalty_Neutral>
0.000518586

> <r_epik_State_Penalty>
0.0663044

> <r_epik_Charging_Adjusted_Penalty>
0.0663402

> <i_epik_Tot_Q>
0

> <i_epik_Tot_abs_Q>
0

> <r_epik_Metal_State_Penalty>
0.196169

> <b_epik_Metal_Only>
0

> <s_lp_Force_Field>
OPLS_2005

> <r_lp_Energy>
7.47934

> <b_lp_Chiralities_Consistent>
1

> <s_lp_Variant>
AV-unprocessed.smi:1008-1

> <Gold.Version>
5.8.1

> <Gold.Id.Protein>
6NUR|6NUR_protein|mol2

> <Gold.PLP.Fitness>
32.9753

> <Gold.PLP.PLP>
-21.4949

> <Gold.PLP.part.hbond>
-5.0000

> <Gold.PLP.part.metal>
0.0000

> <Gold.PLP.part.buried>
2.8794

> <Gold.PLP.part.nonpolar>
-19.3212

> <Gold.PLP.part.repulsive>
0.5307

> <Gold.PLP.ligand.clash>
0.0000

> <Gold.PLP.ligand.torsion>
0.0681

> <Gold.PLP.Chemscore.Hbond>
3.8720

> <Gold.PLP.Chemscore.CHOScore>
0.0000

> <Gold.PLP.Chemscore.Metal>
0.0000

> <Gold.Chemscore.Hbonds>
donor molecule, donor type, donor heavy atom, donor atom, acceptor molecule, acceptor atom, score
      L1  H     5    18       P1  7948  0.96
      L1  H     6    13       P1  7948  0.91
      L1  H    12    23       P1  8028  1.00
      P1  H  7989  7998       L1     8  1.00

> <Gold.PLP.Chemscore.Internal.Correction>
0.0006

> <Gold.Rescore>
     Score         DG    S(hbond)    S(metal)    S(lipo)     H(rot)  DE(clash)    DE(int)     intcor
     13.16     -16.14       3.51        0.00      35.82       2.06       2.85       0.12       ----

> <Gold.Chemscore.Fitness>
13.1634

> <Gold.Chemscore.DG>
-16.1357

> <Gold.Chemscore.ZeroCoef>
-5.4800

> <Gold.Chemscore.Hbond>
3.5140

> <Gold.Chemscore.Metal>
0.0000

> <Gold.Chemscore.Lipo>
35.8228

> <Gold.Chemscore.Internal_Hbond>
0.0000

> <Gold.Chemscore.DEClash>
2.8474

> <Gold.Chemscore.DEInternal>
0.1248

> <Gold.Chemscore.Rot>
2.0595

> <Gold.Chemscore.Internal.Correction>
   9.000000E+99

> <Gold.Chemscore.Hbonds>
donor molecule, donor type, donor heavy atom, donor atom, acceptor molecule, acceptor atom, score
      L1  H     5    18       P1  7948  0.92
      L1  H     6    13       P1  7948  0.83
      L1  H    12    23       P1  8028  0.96
      P1  H  7989  7998       L1     8  0.74

> <Gold.Chemscore.Hbond.Weighted>
-11.7368

> <Gold.Chemscore.Metal.Weighted>
-0.0000

> <Gold.Chemscore.Lipo.Weighted>
-4.1913

> <Gold.Chemscore.Internal_Hbond.Weighted>
0.0000

> <Gold.Chemscore.DEClash.Weighted>
2.8474

> <Gold.Chemscore.DEInternal.Weighted>
0.1248

> <Gold.Chemscore.Rot.Weighted>
5.2724

> <Gold.Chemscore.Internal.Correction.Weighted>
   9.000000E+99

> <Gold.Protein.RotatedTorsions>
[ 6907 6896 6895 6894 ] final    8.22 input  -60.11 | X-H torsion
[ 7974 7965 7964 7962 ] final  131.29 input  175.53 | X-H torsion
[ 8008 7997 7996 7995 ] final -127.73 input   59.86 | X-H torsion
[ 10167 10162 10161 10158 ] final   71.24 input  -65.29 | X-H torsion
[ 10718 10713 10712 10709 ] final   47.16 input   66.30 | X-H torsion
[ 10763 10752 10751 10750 ] final   26.17 input  -60.55 | X-H torsion
[ 11005 11000 10999 10996 ] final -149.27 input  -57.11 | X-H torsion

> <Gold.Protein.ActiveResidues>
 VAL166  LYS551  ARG553  GLY616  TRP617  ASP618  TYR619  PRO620  LYS621  CYS622 
 ASP623  PHE694  ASN695  SER759  ASP760  ASP761  ALA762  ILE779  LEU786  VAL792 
 PHE793  MET794  SER795  GLU796  ALA797  LYS798  CYS799  TRP800  GLU811  SER814 

> <Gold.Protein.RotatedAtoms>
  151.7025  135.0927  160.0253 H   0  0  0  0  0  0  0  0  0  0  0  0  # atno 6907 bound_to 6896
  152.3712  133.6417  159.6097 H   0  0  0  0  0  0  0  0  0  0  0  0  # atno 6908 bound_to 6896
  150.7674  133.9184  159.3432 H   0  0  0  0  0  0  0  0  0  0  0  0  # atno 6909 bound_to 6896
  145.0089  139.4239  143.5255 H   0  0  0  0  0  0  0  0  0  0  0  0  # atno 7974 bound_to 7965
  155.2509  140.0432  157.2986 H   0  0  0  0  0  0  0  0  0  0  0  0  # atno 8008 bound_to 7997
  154.5769  140.2390  155.8079 H   0  0  0  0  0  0  0  0  0  0  0  0  # atno 8009 bound_to 7997
  156.2165  140.2983  155.9859 H   0  0  0  0  0  0  0  0  0  0  0  0  # atno 8010 bound_to 7997
  140.0482  144.5333  150.7383 H   0  0  0  0  0  0  0  0  0  0  0  0  # atno 10167 bound_to 10162
  157.4556  130.8165  149.7833 H   0  0  0  0  0  0  0  0  0  0  0  0  # atno 10718 bound_to 10713
  153.0641  135.6566  154.0395 H   0  0  0  0  0  0  0  0  0  0  0  0  # atno 10763 bound_to 10752
  154.0056  135.2933  155.3399 H   0  0  0  0  0  0  0  0  0  0  0  0  # atno 10764 bound_to 10752
  154.6991  135.5252  153.8570 H   0  0  0  0  0  0  0  0  0  0  0  0  # atno 10765 bound_to 10752
  140.7525  134.3390  157.5122 H   0  0  0  0  0  0  0  0  0  0  0  0  # atno 11005 bound_to 11000
  146.3466  139.9521  142.8727 LP  0  0  0  0  0  0  0  0  0  0  0  0  # atno 17320 bound_to 7965
  145.2050  140.9871  143.4133 LP  0  0  0  0  0  0  0  0  0  0  0  0  # atno 17321 bound_to 7965
  140.7229  143.2606  151.4219 LP  0  0  0  0  0  0  0  0  0  0  0  0  # atno 17342 bound_to 10162
  139.5970  144.1377  152.2155 LP  0  0  0  0  0  0  0  0  0  0  0  0  # atno 17343 bound_to 10162
  156.0006  130.3882  150.2622 LP  0  0  0  0  0  0  0  0  0  0  0  0  # atno 17370 bound_to 10713
  157.0796  131.0139  151.3161 LP  0  0  0  0  0  0  0  0  0  0  0  0  # atno 17371 bound_to 10713
  139.8785  134.9151  156.3122 LP  0  0  0  0  0  0  0  0  0  0  0  0  # atno 17394 bound_to 11000
  140.9738  133.7310  156.0572 LP  0  0  0  0  0  0  0  0  0  0  0  0  # atno 17395 bound_to 11000

$$$$
