AV-unprocessed.smi:1645|AV-procd|sdf|6615|dock4
  -GOLD-   22720 7313D 1   1.00000     0.00000
 Structure written by MMmdl.
 56 59  0  0  0  0  0  0  0  0  3 V2000
  147.0385  140.0907  152.9684 O   0  0  0  0  0  0  0  0  0  0  0  0
  147.8269  139.1498  152.8840 C   0  0  0  0  0  0  0  0  0  0  0  0
  148.9934  139.0497  153.5448 N   0  0  0  0  0  0  0  0  0  0  0  0
  149.5691  139.9600  154.4731 C   0  0  0  0  0  0  0  0  0  0  0  0
  150.6976  139.5300  155.2013 C   0  0  0  0  0  0  0  0  0  0  0  0
  151.2990  140.3920  156.1412 C   0  0  0  0  0  0  0  0  0  0  0  0
  150.7611  141.6854  156.3594 C   0  0  0  0  0  0  0  0  0  0  0  0
  151.2991  142.6208  157.2723 N   0  0  0  0  0  0  0  0  0  0  0  0
  151.3904  144.0092  156.8082 C   0  0  0  0  0  0  0  0  0  0  0  0
  152.3643  144.8283  157.6718 C   0  0  0  0  0  0  0  0  0  0  0  0
  152.0091  144.7205  159.1608 C   0  0  0  0  0  0  0  0  0  0  0  0
  151.9689  143.2448  159.5799 C   0  0  0  0  0  0  0  0  0  0  0  0
  151.0007  142.4412  158.6948 C   0  0  0  0  0  0  0  0  0  0  0  0
  149.6687  142.0469  155.6437 N   0  3  0  0  0  0  0  0  0  0  0  0
  149.0626  141.2554  154.7331 C   0  0  0  0  0  0  0  0  0  0  0  0
  147.6222  138.0862  152.0941 N   0  0  0  0  0  0  0  0  0  0  0  0
  146.4607  137.8941  151.2298 C   0  0  1  0  0  0  0  0  0  0  0  0
  146.8219  137.8871  149.7339 C   0  0  0  0  0  0  0  0  0  0  0  0
  145.8955  136.8339  149.0945 C   0  0  0  0  0  0  0  0  0  0  0  0
  145.0212  136.3668  150.1873 N   0  3  1  0  0  0  0  0  0  0  0  0
  144.4288  135.0189  150.0471 C   0  0  0  0  0  0  0  0  0  0  0  0
  143.4842  134.7534  151.2360 C   0  0  0  0  0  0  0  0  0  0  0  0
  144.1907  134.9787  152.5884 C   0  0  0  0  0  0  0  0  0  0  0  0
  144.8681  136.3621  152.6395 C   0  0  0  0  0  0  0  0  0  0  0  0
  145.7988  136.5270  151.4258 C   0  0  2  0  0  0  0  0  0  0  0  0
  149.5606  138.2450  153.3211 H   0  0  0  0  0  0  0  0  0  0  0  0
  151.1082  138.5435  155.0413 H   0  0  0  0  0  0  0  0  0  0  0  0
  152.1596  140.0352  156.6862 H   0  0  0  0  0  0  0  0  0  0  0  0
  151.7190  144.0687  155.7710 H   0  0  0  0  0  0  0  0  0  0  0  0
  150.3951  144.4536  156.8476 H   0  0  0  0  0  0  0  0  0  0  0  0
  153.3824  144.4703  157.5124 H   0  0  0  0  0  0  0  0  0  0  0  0
  152.3510  145.8725  157.3586 H   0  0  0  0  0  0  0  0  0  0  0  0
  152.7377  145.2638  159.7632 H   0  0  0  0  0  0  0  0  0  0  0  0
  151.0393  145.1845  159.3452 H   0  0  0  0  0  0  0  0  0  0  0  0
  152.9702  142.8186  159.5046 H   0  0  0  0  0  0  0  0  0  0  0  0
  151.6750  143.1602  160.6265 H   0  0  0  0  0  0  0  0  0  0  0  0
  149.9723  142.7509  158.8851 H   0  0  0  0  0  0  0  0  0  0  0  0
  151.0820  141.3894  158.9699 H   0  0  0  0  0  0  0  0  0  0  0  0
  148.1955  141.6942  154.2635 H   0  0  0  0  0  0  0  0  0  0  0  0
  148.3246  137.3609  152.0808 H   0  0  0  0  0  0  0  0  0  0  0  0
  145.7235  138.6822  151.3986 H   0  0  0  0  0  0  0  0  0  0  0  0
  146.6826  138.8740  149.2912 H   0  0  0  0  0  0  0  0  0  0  0  0
  147.8634  137.6022  149.5767 H   0  0  0  0  0  0  0  0  0  0  0  0
  145.3031  137.2435  148.2759 H   0  0  0  0  0  0  0  0  0  0  0  0
  146.4860  136.0039  148.7033 H   0  0  0  0  0  0  0  0  0  0  0  0
  143.8781  134.9567  149.1077 H   0  0  0  0  0  0  0  0  0  0  0  0
  145.2187  134.2669  150.0104 H   0  0  0  0  0  0  0  0  0  0  0  0
  142.6224  135.4183  151.1664 H   0  0  0  0  0  0  0  0  0  0  0  0
  143.0926  133.7372  151.1834 H   0  0  0  0  0  0  0  0  0  0  0  0
  143.4766  134.8796  153.4064 H   0  0  0  0  0  0  0  0  0  0  0  0
  144.9416  134.2016  152.7379 H   0  0  0  0  0  0  0  0  0  0  0  0
  144.1113  137.1478  152.6428 H   0  0  0  0  0  0  0  0  0  0  0  0
  145.4302  136.4637  153.5679 H   0  0  0  0  0  0  0  0  0  0  0  0
  146.5716  135.7551  151.4538 H   0  0  0  0  0  0  0  0  0  0  0  0
  144.2580  137.0258  150.2453 H   0  0  0  0  0  0  0  0  0  0  0  0
  149.2792  142.9765  155.8013 H   0  0  0  0  0  0  0  0  0  0  0  0
  1  2  2  0  0  0  0
  2  3  1  0  0  0  0
  2 16  1  0  0  0  0
  3  4  1  0  0  0  0
  3 26  1  0  0  0  0
  4 15  1  0  0  0  0
  4  5  2  0  0  0  0
  5  6  1  0  0  0  0
  5 27  1  0  0  0  0
  6  7  2  0  0  0  0
  6 28  1  0  0  0  0
  7  8  1  0  0  0  0
  7 14  1  0  0  0  0
  8 13  1  0  0  0  0
  8  9  1  0  0  0  0
  9 10  1  0  0  0  0
  9 29  1  0  0  0  0
  9 30  1  0  0  0  0
 10 11  1  0  0  0  0
 10 31  1  0  0  0  0
 10 32  1  0  0  0  0
 11 12  1  0  0  0  0
 11 33  1  0  0  0  0
 11 34  1  0  0  0  0
 12 13  1  0  0  0  0
 12 35  1  0  0  0  0
 12 36  1  0  0  0  0
 13 37  1  0  0  0  0
 13 38  1  0  0  0  0
 14 15  2  0  0  0  0
 14 56  1  0  0  0  0
 15 39  1  0  0  0  0
 16 17  1  0  0  0  0
 16 40  1  0  0  0  0
 17 25  1  0  0  0  0
 17 18  1  0  0  0  0
 17 41  1  0  0  0  0
 18 19  1  0  0  0  0
 18 42  1  0  0  0  0
 18 43  1  0  0  0  0
 19 20  1  0  0  0  0
 19 44  1  0  0  0  0
 19 45  1  0  0  0  0
 20 25  1  0  0  0  0
 20 21  1  0  0  0  0
 20 55  1  0  0  0  0
 21 22  1  0  0  0  0
 21 46  1  0  0  0  0
 21 47  1  0  0  0  0
 22 23  1  0  0  0  0
 22 48  1  0  0  0  0
 22 49  1  0  0  0  0
 23 24  1  0  0  0  0
 23 50  1  0  0  0  0
 23 51  1  0  0  0  0
 24 25  1  0  0  0  0
 24 52  1  0  0  0  0
 24 53  1  0  0  0  0
 25 54  1  0  0  0  0
M  CHG  1  14   1
M  CHG  1  20   1
M  END
> <s_m_source_file>
AV-unprocessed.smi

> <i_m_source_file_index>
1645

> <i_lp_mmshare_version>
43012

> <i_f3d_flags>
0

> <s_epik_input>
W0NIMl0xW0NIMl1bQ0gyXVtDSDJdW0NASF0oTjEyKVtDQEBIXShbQ0gyXVtDSDJdMilbTkhdQyg9TylbTkhdYzNbY0hdW2NIXWMobltjSF0zKU40W0NIMl1bQ0gyXVtDSDJdW0NIMl1bQ0gyXTQ=

> <s_epik_cmdline>
J2VwaWtfcHl0aG9uJywgJy1waCcsICc3LjAnLCAnLXRuJywgJzgnLCAnLW1hJywgJzIwMCcsICctbWV0YWxfYmluZGluZycsICctaW1hZScsICc8aW5maWxlLm1hZT4nLCAnLW9tYWUnLCAnPG91dGZpbGUubWFlPic=

> <r_lp_tautomer_probability>
0.999994

> <r_epik_Ionization_Penalty>
1.26838

> <r_epik_Ionization_Penalty_Charging>
1.26836

> <r_epik_Ionization_Penalty_Neutral>
1.95562e-05

> <r_epik_State_Penalty>
1.33841

> <r_epik_Charging_Adjusted_Penalty>
2.60677

> <i_epik_Tot_Q>
2

> <i_epik_Tot_abs_Q>
2

> <r_epik_Metal_State_Penalty>
1.40601

> <b_epik_Metal_Only>
0

> <s_lp_Force_Field>
OPLS_2005

> <r_lp_Energy>
57.888

> <b_lp_Chiralities_Consistent>
1

> <s_lp_Variant>
AV-unprocessed.smi:1645-16

> <Gold.Version>
5.8.1

> <Gold.Id.Protein>
6NUR|6NUR_protein|mol2

> <Gold.PLP.Fitness>
51.9385

> <Gold.PLP.PLP>
-44.0740

> <Gold.PLP.part.hbond>
-4.7282

> <Gold.PLP.part.metal>
0.0000

> <Gold.PLP.part.buried>
11.3321

> <Gold.PLP.part.nonpolar>
-52.7433

> <Gold.PLP.part.repulsive>
0.4823

> <Gold.PLP.ligand.clash>
0.0000

> <Gold.PLP.ligand.torsion>
1.1439

> <Gold.PLP.Chemscore.Hbond>
3.2880

> <Gold.PLP.Chemscore.CHOScore>
0.0000

> <Gold.PLP.Chemscore.Metal>
0.0000

> <Gold.Chemscore.Hbonds>
donor molecule, donor type, donor heavy atom, donor atom, acceptor molecule, acceptor atom, score
      L1  H    14    56       P1  8028  2.00
      L1  H    16    40       P1  7948  0.39
      L1  H    20    55       P1 10171  0.82

> <Gold.PLP.Chemscore.Internal.Correction>
0.2883

> <Gold.Rescore>
     Score         DG    S(hbond)    S(metal)    S(lipo)     H(rot)  DE(clash)    DE(int)     intcor
     19.17     -28.10       2.33        0.00     148.82       1.00       6.46       2.46       ----

> <Gold.Chemscore.Fitness>
19.1744

> <Gold.Chemscore.DG>
-28.1005

> <Gold.Chemscore.ZeroCoef>
-5.4800

> <Gold.Chemscore.Hbond>
2.3260

> <Gold.Chemscore.Metal>
0.0000

> <Gold.Chemscore.Lipo>
148.8174

> <Gold.Chemscore.Internal_Hbond>
0.0000

> <Gold.Chemscore.DEClash>
6.4625

> <Gold.Chemscore.DEInternal>
2.4636

> <Gold.Chemscore.Rot>
1.0000

> <Gold.Chemscore.Internal.Correction>
   9.000000E+99

> <Gold.Chemscore.Hbonds>
donor molecule, donor type, donor heavy atom, donor atom, acceptor molecule, acceptor atom, score
      L1  H    14    56       P1  8028  1.00
      L1  H    16    40       P1  7948  0.39
      L1  H    20    55       P1 10171  0.81

> <Gold.Chemscore.Hbond.Weighted>
-7.7688

> <Gold.Chemscore.Metal.Weighted>
-0.0000

> <Gold.Chemscore.Lipo.Weighted>
-17.4116

> <Gold.Chemscore.Internal_Hbond.Weighted>
0.0000

> <Gold.Chemscore.DEClash.Weighted>
6.4625

> <Gold.Chemscore.DEInternal.Weighted>
2.4636

> <Gold.Chemscore.Rot.Weighted>
2.5600

> <Gold.Chemscore.Internal.Correction.Weighted>
   9.000000E+99

> <Gold.Protein.RotatedTorsions>
[ 6907 6896 6895 6894 ] final   75.69 input  -60.11 | X-H torsion
[ 7974 7965 7964 7962 ] final  -69.55 input  175.53 | X-H torsion
[ 8008 7997 7996 7995 ] final -136.50 input   59.86 | X-H torsion
[ 10167 10162 10161 10158 ] final  -16.27 input  -65.29 | X-H torsion
[ 10718 10713 10712 10709 ] final  114.61 input   66.30 | X-H torsion
[ 10763 10752 10751 10750 ] final -116.47 input  -60.55 | X-H torsion
[ 11005 11000 10999 10996 ] final  119.62 input  -57.11 | X-H torsion

> <Gold.Protein.ActiveResidues>
 VAL166  LYS551  ARG553  GLY616  TRP617  ASP618  TYR619  PRO620  LYS621  CYS622 
 ASP623  PHE694  ASN695  SER759  ASP760  ASP761  ALA762  ILE779  LEU786  VAL792 
 PHE793  MET794  SER795  GLU796  ALA797  LYS798  CYS799  TRP800  GLU811  SER814 

> <Gold.Protein.RotatedAtoms>
  152.5038  134.4082  159.9439 H   0  0  0  0  0  0  0  0  0  0  0  0  # atno 6907 bound_to 6896
  151.4049  133.3739  159.2744 H   0  0  0  0  0  0  0  0  0  0  0  0  # atno 6908 bound_to 6896
  150.9334  134.8769  159.7625 H   0  0  0  0  0  0  0  0  0  0  0  0  # atno 6909 bound_to 6896
  145.7024  140.9111  143.0724 H   0  0  0  0  0  0  0  0  0  0  0  0  # atno 7974 bound_to 7965
  155.3962  140.0503  157.3038 H   0  0  0  0  0  0  0  0  0  0  0  0  # atno 8008 bound_to 7997
  154.5012  140.2157  155.9303 H   0  0  0  0  0  0  0  0  0  0  0  0  # atno 8009 bound_to 7997
  156.1470  140.3143  155.8591 H   0  0  0  0  0  0  0  0  0  0  0  0  # atno 8010 bound_to 7997
  140.7231  143.5133  150.9723 H   0  0  0  0  0  0  0  0  0  0  0  0  # atno 10167 bound_to 10162
  157.6271  131.1001  150.7211 H   0  0  0  0  0  0  0  0  0  0  0  0  # atno 10718 bound_to 10713
  154.8520  135.4344  154.1827 H   0  0  0  0  0  0  0  0  0  0  0  0  # atno 10763 bound_to 10752
  153.2913  135.6961  153.7296 H   0  0  0  0  0  0  0  0  0  0  0  0  # atno 10764 bound_to 10752
  153.6462  135.3459  155.3061 H   0  0  0  0  0  0  0  0  0  0  0  0  # atno 10765 bound_to 10752
  139.9154  134.9629  156.7684 H   0  0  0  0  0  0  0  0  0  0  0  0  # atno 11005 bound_to 11000
  144.6965  139.8965  143.7456 LP  0  0  0  0  0  0  0  0  0  0  0  0  # atno 17320 bound_to 7965
  146.0786  139.3774  143.0478 LP  0  0  0  0  0  0  0  0  0  0  0  0  # atno 17321 bound_to 7965
  139.8848  143.7027  152.3153 LP  0  0  0  0  0  0  0  0  0  0  0  0  # atno 17342 bound_to 10162
  139.7322  144.7579  151.0784 LP  0  0  0  0  0  0  0  0  0  0  0  0  # atno 17343 bound_to 10162
  156.7557  130.4783  149.5447 LP  0  0  0  0  0  0  0  0  0  0  0  0  # atno 17370 bound_to 10713
  156.1449  130.6270  151.0518 LP  0  0  0  0  0  0  0  0  0  0  0  0  # atno 17371 bound_to 10713
  140.6641  133.9618  155.7821 LP  0  0  0  0  0  0  0  0  0  0  0  0  # atno 17394 bound_to 11000
  141.0623  134.0328  157.3641 LP  0  0  0  0  0  0  0  0  0  0  0  0  # atno 17395 bound_to 11000

$$$$
