AV-unprocessed.smi:1232|AV-procd|sdf|5170|dock5
  -GOLD-   22720 4243D 1   1.00000     0.00000
 Structure written by MMmdl.
 53 54  0  0  0  0  0  0  0  0  1 V2000
  151.8613  131.5236  156.2747 C   0  0  0  0  0  0  0  0  0  0  0  0
  150.8175  132.5435  156.7164 C   0  0  0  0  0  0  0  0  0  0  0  0
  150.3177  132.4603  157.8369 O   0  0  0  0  0  0  0  0  0  0  0  0
  150.5025  133.4907  155.8146 N   0  0  0  0  0  0  0  0  0  0  0  0
  149.5705  134.6191  155.9512 C   0  0  1  0  0  0  0  0  0  0  0  0
  150.2277  135.9390  155.5078 C   0  0  0  0  0  0  0  0  0  0  0  0
  151.3702  136.2206  155.8706 O   0  0  0  0  0  0  0  0  0  0  0  0
  149.5019  136.7318  154.7031 N   0  0  0  0  0  0  0  0  0  0  0  0
  149.9508  138.0117  154.1647 C   0  0  0  0  0  0  0  0  0  0  0  0
  150.3930  139.0190  155.2173 C   0  0  0  0  0  0  0  0  0  0  0  0
  149.5341  140.0301  155.6967 C   0  0  0  0  0  0  0  0  0  0  0  0
  150.0128  140.9312  156.6666 C   0  0  0  0  0  0  0  0  0  0  0  0
  151.3419  140.8014  157.1356 C   0  0  0  0  0  0  0  0  0  0  0  0
  151.8432  141.6906  158.1119 N   0  0  0  0  0  0  0  0  0  0  0  0
  152.3298  141.1250  159.3689 C   0  0  0  0  0  0  0  0  0  0  0  0
  153.0947  142.1877  160.1746 C   0  0  0  0  0  0  0  0  0  0  0  0
  152.2681  143.3308  160.3660 O   0  0  0  0  0  0  0  0  0  0  0  0
  151.8973  143.9374  159.1312 C   0  0  2  0  0  0  0  0  0  0  0  0
  151.0925  145.2042  159.4406 C   0  0  0  0  0  0  0  0  0  0  0  0
  151.0891  142.9293  158.2908 C   0  0  0  0  0  0  0  0  0  0  0  0
  152.1681  139.8367  156.6606 N   0  0  0  0  0  0  0  0  0  0  0  0
  151.7040  138.9749  155.7314 C   0  0  0  0  0  0  0  0  0  0  0  0
  148.1453  134.3510  155.3730 C   0  0  0  0  0  0  0  0  0  0  0  0
  147.1842  133.7389  156.4113 C   0  0  0  0  0  0  0  0  0  0  0  0
  148.1848  133.4460  154.1261 C   0  0  0  0  0  0  0  0  0  0  0  0
  151.6429  131.1571  155.2711 H   0  0  0  0  0  0  0  0  0  0  0  0
  151.8782  130.6692  156.9522 H   0  0  0  0  0  0  0  0  0  0  0  0
  152.8530  131.9769  156.2701 H   0  0  0  0  0  0  0  0  0  0  0  0
  150.9775  133.4335  154.9258 H   0  0  0  0  0  0  0  0  0  0  0  0
  149.4390  134.7046  157.0313 H   0  0  0  0  0  0  0  0  0  0  0  0
  148.5762  136.4244  154.4417 H   0  0  0  0  0  0  0  0  0  0  0  0
  150.7588  137.8440  153.4503 H   0  0  0  0  0  0  0  0  0  0  0  0
  149.1274  138.4492  153.5999 H   0  0  0  0  0  0  0  0  0  0  0  0
  148.5235  140.1239  155.3280 H   0  0  0  0  0  0  0  0  0  0  0  0
  149.3625  141.7148  157.0252 H   0  0  0  0  0  0  0  0  0  0  0  0
  151.4837  140.7542  159.9496 H   0  0  0  0  0  0  0  0  0  0  0  0
  152.9889  140.2780  159.1736 H   0  0  0  0  0  0  0  0  0  0  0  0
  153.3784  141.7878  161.1479 H   0  0  0  0  0  0  0  0  0  0  0  0
  154.0174  142.4726  159.6662 H   0  0  0  0  0  0  0  0  0  0  0  0
  152.8002  144.2250  158.5893 H   0  0  0  0  0  0  0  0  0  0  0  0
  150.7936  145.7129  158.5239 H   0  0  0  0  0  0  0  0  0  0  0  0
  151.6817  145.9051  160.0324 H   0  0  0  0  0  0  0  0  0  0  0  0
  150.1889  144.9698  160.0038 H   0  0  0  0  0  0  0  0  0  0  0  0
  150.8369  143.3883  157.3360 H   0  0  0  0  0  0  0  0  0  0  0  0
  150.1464  142.6957  158.7877 H   0  0  0  0  0  0  0  0  0  0  0  0
  152.4034  138.2261  155.3898 H   0  0  0  0  0  0  0  0  0  0  0  0
  147.7006  135.3000  155.0749 H   0  0  0  0  0  0  0  0  0  0  0  0
  147.5746  132.8018  156.8088 H   0  0  0  0  0  0  0  0  0  0  0  0
  146.2106  133.5293  155.9676 H   0  0  0  0  0  0  0  0  0  0  0  0
  147.0083  134.4123  157.2504 H   0  0  0  0  0  0  0  0  0  0  0  0
  148.6232  132.4748  154.3568 H   0  0  0  0  0  0  0  0  0  0  0  0
  148.7647  133.8886  153.3169 H   0  0  0  0  0  0  0  0  0  0  0  0
  147.1815  133.2710  153.7371 H   0  0  0  0  0  0  0  0  0  0  0  0
  1  2  1  0  0  0  0
  1 26  1  0  0  0  0
  1 27  1  0  0  0  0
  1 28  1  0  0  0  0
  2  3  2  0  0  0  0
  2  4  1  0  0  0  0
  4  5  1  0  0  0  0
  4 29  1  0  0  0  0
  5  6  1  0  0  0  0
  5 23  1  0  0  0  0
  5 30  1  0  0  0  0
  6  7  2  0  0  0  0
  6  8  1  0  0  0  0
  8  9  1  0  0  0  0
  8 31  1  0  0  0  0
  9 10  1  0  0  0  0
  9 32  1  0  0  0  0
  9 33  1  0  0  0  0
 10 22  1  0  0  0  0
 10 11  2  0  0  0  0
 11 12  1  0  0  0  0
 11 34  1  0  0  0  0
 12 13  2  0  0  0  0
 12 35  1  0  0  0  0
 13 14  1  0  0  0  0
 13 21  1  0  0  0  0
 14 20  1  0  0  0  0
 14 15  1  0  0  0  0
 15 16  1  0  0  0  0
 15 36  1  0  0  0  0
 15 37  1  0  0  0  0
 16 17  1  0  0  0  0
 16 38  1  0  0  0  0
 16 39  1  0  0  0  0
 17 18  1  0  0  0  0
 18 19  1  0  0  0  0
 18 20  1  0  0  0  0
 18 40  1  0  0  0  0
 19 41  1  0  0  0  0
 19 42  1  0  0  0  0
 19 43  1  0  0  0  0
 20 44  1  0  0  0  0
 20 45  1  0  0  0  0
 21 22  2  0  0  0  0
 22 46  1  0  0  0  0
 23 24  1  0  0  0  0
 23 25  1  0  0  0  0
 23 47  1  0  0  0  0
 24 48  1  0  0  0  0
 24 49  1  0  0  0  0
 24 50  1  0  0  0  0
 25 51  1  0  0  0  0
 25 52  1  0  0  0  0
 25 53  1  0  0  0  0
M  END
> <s_m_source_file>
AV-unprocessed.smi

> <i_m_source_file_index>
1232

> <i_lp_mmshare_version>
43012

> <i_f3d_flags>
0

> <s_epik_input>
W0NIM11DKD1PKVtOSF1bQ0BASF0oW0NIXShbQ0gzXSlbQ0gzXSlDKD1PKVtOSF1bQ0gyXWMxW2NIXVtjSF1jKG5bY0hdMSlOMltDSDJdW0NIMl1PW0NAQEhdKFtDSDNdKVtDSDJdMg==

> <s_epik_cmdline>
J2VwaWtfcHl0aG9uJywgJy1waCcsICc3LjAnLCAnLXRuJywgJzgnLCAnLW1hJywgJzIwMCcsICctbWV0YWxfYmluZGluZycsICctaW1hZScsICc8aW5maWxlLm1hZT4nLCAnLW9tYWUnLCAnPG91dGZpbGUubWFlPic=

> <r_lp_tautomer_probability>
1

> <r_epik_Ionization_Penalty>
0.00557618

> <r_epik_Ionization_Penalty_Charging>
0

> <r_epik_Ionization_Penalty_Neutral>
0.00557618

> <r_epik_State_Penalty>
0.00408363

> <r_epik_Charging_Adjusted_Penalty>
0.00408363

> <i_epik_Tot_Q>
0

> <i_epik_Tot_abs_Q>
0

> <r_epik_Metal_State_Penalty>
-0

> <b_epik_Metal_Only>
0

> <s_lp_Force_Field>
OPLS_2005

> <r_lp_Energy>
20.9167

> <b_lp_Chiralities_Consistent>
1

> <s_lp_Variant>
AV-unprocessed.smi:1232-4

> <Gold.Version>
5.8.1

> <Gold.Id.Protein>
6NUR|6NUR_protein|mol2

> <Gold.PLP.Fitness>
55.1729

> <Gold.PLP.PLP>
-47.2238

> <Gold.PLP.part.hbond>
-4.9655

> <Gold.PLP.part.metal>
0.0000

> <Gold.PLP.part.buried>
-2.0764

> <Gold.PLP.part.nonpolar>
-39.2798

> <Gold.PLP.part.repulsive>
0.2540

> <Gold.PLP.ligand.clash>
0.0000

> <Gold.PLP.ligand.torsion>
1.8422

> <Gold.PLP.Chemscore.Hbond>
3.6110

> <Gold.PLP.Chemscore.CHOScore>
0.0000

> <Gold.PLP.Chemscore.Metal>
0.0000

> <Gold.Chemscore.Hbonds>
donor molecule, donor type, donor heavy atom, donor atom, acceptor molecule, acceptor atom, score
      P1  H  6896  6907       L1     3  1.00
      P1  H  7997  8009       L1    21  0.49
      P1  H 10752 10764       L1     7  0.52

> <Gold.PLP.Chemscore.Internal.Correction>
0.8004

> <Gold.Rescore>
     Score         DG    S(hbond)    S(metal)    S(lipo)     H(rot)  DE(clash)    DE(int)     intcor
     18.02     -21.18       2.75        0.00     102.24       2.13       1.48       1.68       ----

> <Gold.Chemscore.Fitness>
18.0156

> <Gold.Chemscore.DG>
-21.1803

> <Gold.Chemscore.ZeroCoef>
-5.4800

> <Gold.Chemscore.Hbond>
2.7533

> <Gold.Chemscore.Metal>
0.0000

> <Gold.Chemscore.Lipo>
102.2360

> <Gold.Chemscore.Internal_Hbond>
0.0000

> <Gold.Chemscore.DEClash>
1.4800

> <Gold.Chemscore.DEInternal>
1.6847

> <Gold.Chemscore.Rot>
2.1317

> <Gold.Chemscore.Internal.Correction>
   9.000000E+99

> <Gold.Chemscore.Hbonds>
donor molecule, donor type, donor heavy atom, donor atom, acceptor molecule, acceptor atom, score
      P1  H  6896  6907       L1     3  0.94
      P1  H  7997  8009       L1    21  0.42
      P1  H 10752 10764       L1     7  0.51

> <Gold.Chemscore.Hbond.Weighted>
-9.1959

> <Gold.Chemscore.Metal.Weighted>
-0.0000

> <Gold.Chemscore.Lipo.Weighted>
-11.9616

> <Gold.Chemscore.Internal_Hbond.Weighted>
0.0000

> <Gold.Chemscore.DEClash.Weighted>
1.4800

> <Gold.Chemscore.DEInternal.Weighted>
1.6847

> <Gold.Chemscore.Rot.Weighted>
5.4572

> <Gold.Chemscore.Internal.Correction.Weighted>
   9.000000E+99

> <Gold.Protein.RotatedTorsions>
[ 6907 6896 6895 6894 ] final -148.12 input  -60.11 | X-H torsion
[ 7974 7965 7964 7962 ] final -137.92 input  175.53 | X-H torsion
[ 8008 7997 7996 7995 ] final  175.99 input   59.86 | X-H torsion
[ 10167 10162 10161 10158 ] final -162.60 input  -65.29 | X-H torsion
[ 10718 10713 10712 10709 ] final  -37.11 input   66.30 | X-H torsion
[ 10763 10752 10751 10750 ] final  -15.55 input  -60.55 | X-H torsion
[ 11005 11000 10999 10996 ] final -164.43 input  -57.11 | X-H torsion

> <Gold.Protein.ActiveResidues>
 VAL166  LYS551  ARG553  GLY616  TRP617  ASP618  TYR619  PRO620  LYS621  CYS622 
 ASP623  PHE694  ASN695  SER759  ASP760  ASP761  ALA762  ILE779  LEU786  VAL792 
 PHE793  MET794  SER795  GLU796  ALA797  LYS798  CYS799  TRP800  GLU811  SER814 

> <Gold.Protein.RotatedAtoms>
  151.1653  133.4819  159.2593 H   0  0  0  0  0  0  0  0  0  0  0  0  # atno 6907 bound_to 6896
  151.1412  135.0180  159.8636 H   0  0  0  0  0  0  0  0  0  0  0  0  # atno 6908 bound_to 6896
  152.5462  134.1546  159.8586 H   0  0  0  0  0  0  0  0  0  0  0  0  # atno 6909 bound_to 6896
  144.8801  140.6495  143.5211 H   0  0  0  0  0  0  0  0  0  0  0  0  # atno 7974 bound_to 7965
  156.0812  140.1395  156.9709 H   0  0  0  0  0  0  0  0  0  0  0  0  # atno 8008 bound_to 7997
  154.4586  140.0951  156.6879 H   0  0  0  0  0  0  0  0  0  0  0  0  # atno 8009 bound_to 7997
  155.5072  140.3452  155.4384 H   0  0  0  0  0  0  0  0  0  0  0  0  # atno 8010 bound_to 7997
  139.6380  144.0313  152.2070 H   0  0  0  0  0  0  0  0  0  0  0  0  # atno 10167 bound_to 10162
  156.3190  130.4263  149.7978 H   0  0  0  0  0  0  0  0  0  0  0  0  # atno 10718 bound_to 10713
  153.5451  135.7012  153.5618 H   0  0  0  0  0  0  0  0  0  0  0  0  # atno 10763 bound_to 10752
  153.3566  135.3981  155.1687 H   0  0  0  0  0  0  0  0  0  0  0  0  # atno 10764 bound_to 10752
  154.8668  135.3778  154.4958 H   0  0  0  0  0  0  0  0  0  0  0  0  # atno 10765 bound_to 10752
  140.5870  134.5083  157.5187 H   0  0  0  0  0  0  0  0  0  0  0  0  # atno 11005 bound_to 11000
  145.3970  139.1605  143.4198 LP  0  0  0  0  0  0  0  0  0  0  0  0  # atno 17320 bound_to 7965
  146.2989  140.4063  142.8711 LP  0  0  0  0  0  0  0  0  0  0  0  0  # atno 17321 bound_to 7965
  139.9995  144.6303  150.7742 LP  0  0  0  0  0  0  0  0  0  0  0  0  # atno 17342 bound_to 10162
  140.7476  143.2908  151.3335 LP  0  0  0  0  0  0  0  0  0  0  0  0  # atno 17343 bound_to 10162
  156.5293  130.8250  151.3231 LP  0  0  0  0  0  0  0  0  0  0  0  0  # atno 17370 bound_to 10713
  157.7408  130.9857  150.2400 LP  0  0  0  0  0  0  0  0  0  0  0  0  # atno 17371 bound_to 10713
  139.9291  134.7998  156.0982 LP  0  0  0  0  0  0  0  0  0  0  0  0  # atno 17394 bound_to 11000
  141.0959  133.6695  156.2645 LP  0  0  0  0  0  0  0  0  0  0  0  0  # atno 17395 bound_to 11000

$$$$
