AV-unprocessed.smi:3199|AV-procd|sdf|12232|dock9
  -GOLD-   2272018 63D 1   1.00000     0.00000
 Structure written by MMmdl.
 35 36  0  0  0  0  0  0  0  0  1 V2000
  152.4476  143.8430  163.1297 C   0  0  0  0  0  0  0  0  0  0  0  0
  152.1301  143.6182  161.6661 C   0  0  0  0  0  0  0  0  0  0  0  0
  152.2544  142.3380  161.0862 C   0  0  0  0  0  0  0  0  0  0  0  0
  151.9434  142.1871  159.7213 C   0  0  0  0  0  0  0  0  0  0  0  0
  151.5222  143.3171  158.9910 C   0  0  0  0  0  0  0  0  0  0  0  0
  151.1671  143.2057  157.5215 C   0  0  0  0  0  0  0  0  0  0  0  0
  150.7042  141.7918  157.1461 C   0  0  0  0  0  0  0  0  0  0  0  0
  149.6634  141.8456  156.1296 N   0  0  0  0  0  0  0  0  0  0  0  0
  149.4867  140.9202  155.1755 C   0  0  0  0  0  0  0  0  0  0  0  0
  150.1938  139.9171  155.0708 O   0  0  0  0  0  0  0  0  0  0  0  0
  148.3260  141.1616  154.2036 C   0  0  1  0  0  0  0  0  0  0  0  0
  146.9367  140.7950  154.7619 C   0  0  0  0  0  0  0  0  0  0  0  0
  146.2088  142.1248  154.8311 C   0  0  0  0  0  0  0  0  0  0  0  0
  146.9133  142.9333  153.7510 C   0  0  0  0  0  0  0  0  0  0  0  0
  148.2702  142.5563  153.9148 O   0  0  0  0  0  0  0  0  0  0  0  0
  151.4311  144.5528  159.6659 C   0  0  0  0  0  0  0  0  0  0  0  0
  151.7276  144.7071  160.9743 N   0  0  0  0  0  0  0  0  0  0  0  0
  152.7312  142.9117  163.6208 H   0  0  0  0  0  0  0  0  0  0  0  0
  151.5786  144.2494  163.6483 H   0  0  0  0  0  0  0  0  0  0  0  0
  153.2725  144.5483  163.2344 H   0  0  0  0  0  0  0  0  0  0  0  0
  152.5788  141.4896  161.6708 H   0  0  0  0  0  0  0  0  0  0  0  0
  152.0251  141.2204  159.2465 H   0  0  0  0  0  0  0  0  0  0  0  0
  150.3850  143.9305  157.2903 H   0  0  0  0  0  0  0  0  0  0  0  0
  152.0354  143.4876  156.9241 H   0  0  0  0  0  0  0  0  0  0  0  0
  151.5449  141.2089  156.7660 H   0  0  0  0  0  0  0  0  0  0  0  0
  150.3257  141.2761  158.0304 H   0  0  0  0  0  0  0  0  0  0  0  0
  149.0349  142.6357  156.1526 H   0  0  0  0  0  0  0  0  0  0  0  0
  148.4970  140.6182  153.2726 H   0  0  0  0  0  0  0  0  0  0  0  0
  146.4277  140.1263  154.0667 H   0  0  0  0  0  0  0  0  0  0  0  0
  146.9585  140.2956  155.7316 H   0  0  0  0  0  0  0  0  0  0  0  0
  145.1350  142.0346  154.6653 H   0  0  0  0  0  0  0  0  0  0  0  0
  146.3686  142.5883  155.8055 H   0  0  0  0  0  0  0  0  0  0  0  0
  146.5679  142.6451  152.7568 H   0  0  0  0  0  0  0  0  0  0  0  0
  146.7765  144.0083  153.8695 H   0  0  0  0  0  0  0  0  0  0  0  0
  151.1088  145.4419  159.1436 H   0  0  0  0  0  0  0  0  0  0  0  0
  1  2  1  0  0  0  0
  1 18  1  0  0  0  0
  1 19  1  0  0  0  0
  1 20  1  0  0  0  0
  2 17  1  0  0  0  0
  2  3  2  0  0  0  0
  3  4  1  0  0  0  0
  3 21  1  0  0  0  0
  4  5  2  0  0  0  0
  4 22  1  0  0  0  0
  5  6  1  0  0  0  0
  5 16  1  0  0  0  0
  6  7  1  0  0  0  0
  6 23  1  0  0  0  0
  6 24  1  0  0  0  0
  7  8  1  0  0  0  0
  7 25  1  0  0  0  0
  7 26  1  0  0  0  0
  8  9  1  0  0  0  0
  8 27  1  0  0  0  0
  9 10  2  0  0  0  0
  9 11  1  0  0  0  0
 11 15  1  0  0  0  0
 11 12  1  0  0  0  0
 11 28  1  0  0  0  0
 12 13  1  0  0  0  0
 12 29  1  0  0  0  0
 12 30  1  0  0  0  0
 13 14  1  0  0  0  0
 13 31  1  0  0  0  0
 13 32  1  0  0  0  0
 14 15  1  0  0  0  0
 14 33  1  0  0  0  0
 14 34  1  0  0  0  0
 16 17  2  0  0  0  0
 16 35  1  0  0  0  0
M  END
> <s_m_source_file>
AV-unprocessed.smi

> <i_m_source_file_index>
3199

> <i_lp_mmshare_version>
43012

> <i_f3d_flags>
0

> <s_epik_input>
W0NIM11jMVtjSF1bY0hdYyhbY0hdbjEpW0NIMl1bQ0gyXVtOSF1DKD1PKVtDQEBIXTJbQ0gyXVtDSDJdW0NIMl1PMg==

> <s_epik_cmdline>
J2VwaWtfcHl0aG9uJywgJy1waCcsICc3LjAnLCAnLXRuJywgJzgnLCAnLW1hJywgJzIwMCcsICctbWV0YWxfYmluZGluZycsICctaW1hZScsICc8aW5maWxlLm1hZT4nLCAnLW9tYWUnLCAnPG91dGZpbGUubWFlPic=

> <r_epik_Ionization_Penalty>
0.0519155

> <r_epik_Ionization_Penalty_Charging>
0

> <r_epik_Ionization_Penalty_Neutral>
0.0519155

> <r_epik_State_Penalty>
0.0445047

> <r_epik_Charging_Adjusted_Penalty>
0.0445047

> <i_epik_Tot_Q>
0

> <i_epik_Tot_abs_Q>
0

> <r_epik_Metal_State_Penalty>
0.0408967

> <b_epik_Metal_Only>
0

> <s_lp_Force_Field>
OPLS_2005

> <r_lp_Energy>
16.9644

> <b_lp_Chiralities_Consistent>
1

> <s_lp_Variant>
AV-unprocessed.smi:3199-2

> <Gold.Version>
5.8.1

> <Gold.Id.Protein>
6NUR|6NUR_protein|mol2

> <Gold.PLP.Fitness>
44.5877

> <Gold.PLP.PLP>
-39.8213

> <Gold.PLP.part.hbond>
-4.0000

> <Gold.PLP.part.metal>
0.0000

> <Gold.PLP.part.buried>
-2.5821

> <Gold.PLP.part.nonpolar>
-36.3296

> <Gold.PLP.part.repulsive>
4.2677

> <Gold.PLP.ligand.clash>
0.0000

> <Gold.PLP.ligand.torsion>
1.3555

> <Gold.PLP.Chemscore.Hbond>
2.4880

> <Gold.PLP.Chemscore.CHOScore>
0.0000

> <Gold.PLP.Chemscore.Metal>
0.0000

> <Gold.Chemscore.Hbonds>
donor molecule, donor type, donor heavy atom, donor atom, acceptor molecule, acceptor atom, score
      L1  H     8    27       P1  8028  0.62
      P1  H  7989  7998       L1    10  0.17
      P1  H  8011  8017       L1    15  0.06
      P1  H  8022  8030       L1    15  0.04

> <Gold.PLP.Chemscore.Internal.Correction>
0.0134

> <Gold.Rescore>
     Score         DG    S(hbond)    S(metal)    S(lipo)     H(rot)  DE(clash)    DE(int)     intcor
     17.65     -21.40       2.06        0.00     109.68       1.49       2.45       1.30       ----

> <Gold.Chemscore.Fitness>
17.6452

> <Gold.Chemscore.DG>
-21.3994

> <Gold.Chemscore.ZeroCoef>
-5.4800

> <Gold.Chemscore.Hbond>
2.0632

> <Gold.Chemscore.Metal>
0.0000

> <Gold.Chemscore.Lipo>
109.6780

> <Gold.Chemscore.Internal_Hbond>
0.0000

> <Gold.Chemscore.DEClash>
2.4504

> <Gold.Chemscore.DEInternal>
1.3039

> <Gold.Chemscore.Rot>
1.4859

> <Gold.Chemscore.Internal.Correction>
   9.000000E+99

> <Gold.Chemscore.Hbonds>
donor molecule, donor type, donor heavy atom, donor atom, acceptor molecule, acceptor atom, score
      L1  H     8    27       P1  8028  0.60
      P1  H  7989  7998       L1    10  0.02
      P1  H  8011  8017       L1    15  0.01

> <Gold.Chemscore.Hbond.Weighted>
-6.8910

> <Gold.Chemscore.Metal.Weighted>
-0.0000

> <Gold.Chemscore.Lipo.Weighted>
-12.8323

> <Gold.Chemscore.Internal_Hbond.Weighted>
0.0000

> <Gold.Chemscore.DEClash.Weighted>
2.4504

> <Gold.Chemscore.DEInternal.Weighted>
1.3039

> <Gold.Chemscore.Rot.Weighted>
3.8039

> <Gold.Chemscore.Internal.Correction.Weighted>
   9.000000E+99

> <Gold.Protein.RotatedTorsions>
[ 6907 6896 6895 6894 ] final  126.35 input  -60.11 | X-H torsion
[ 7974 7965 7964 7962 ] final -161.95 input  175.53 | X-H torsion
[ 8008 7997 7996 7995 ] final  -92.59 input   59.86 | X-H torsion
[ 10167 10162 10161 10158 ] final  172.62 input  -65.29 | X-H torsion
[ 10718 10713 10712 10709 ] final  -61.65 input   66.30 | X-H torsion
[ 10763 10752 10751 10750 ] final -171.72 input  -60.55 | X-H torsion
[ 11005 11000 10999 10996 ] final   33.53 input  -57.11 | X-H torsion

> <Gold.Protein.ActiveResidues>
 VAL166  LYS551  ARG553  GLY616  TRP617  ASP618  TYR619  PRO620  LYS621  CYS622 
 ASP623  PHE694  ASN695  SER759  ASP760  ASP761  ALA762  ILE779  LEU786  VAL792 
 PHE793  MET794  SER795  GLU796  ALA797  LYS798  CYS799  TRP800  GLU811  SER814 

> <Gold.Protein.RotatedAtoms>
  152.3911  133.6680  159.6238 H   0  0  0  0  0  0  0  0  0  0  0  0  # atno 6907 bound_to 6896
  150.7819  133.8953  159.3334 H   0  0  0  0  0  0  0  0  0  0  0  0  # atno 6908 bound_to 6896
  151.6739  135.0973  160.0254 H   0  0  0  0  0  0  0  0  0  0  0  0  # atno 6909 bound_to 6896
  144.7373  140.3323  143.6151 H   0  0  0  0  0  0  0  0  0  0  0  0  # atno 7974 bound_to 7965
  154.7250  140.0507  157.0674 H   0  0  0  0  0  0  0  0  0  0  0  0  # atno 8008 bound_to 7997
  155.0377  140.3165  155.4716 H   0  0  0  0  0  0  0  0  0  0  0  0  # atno 8009 bound_to 7997
  156.2826  140.2138  156.5500 H   0  0  0  0  0  0  0  0  0  0  0  0  # atno 8010 bound_to 7997
  139.5082  144.3353  152.0071 H   0  0  0  0  0  0  0  0  0  0  0  0  # atno 10167 bound_to 10162
  156.0907  130.4200  150.1024 H   0  0  0  0  0  0  0  0  0  0  0  0  # atno 10718 bound_to 10713
  154.6273  135.2882  155.0257 H   0  0  0  0  0  0  0  0  0  0  0  0  # atno 10763 bound_to 10752
  154.1430  135.6515  153.4950 H   0  0  0  0  0  0  0  0  0  0  0  0  # atno 10764 bound_to 10752
  153.0263  135.5337  154.7087 H   0  0  0  0  0  0  0  0  0  0  0  0  # atno 10765 bound_to 10752
  140.2622  134.3179  155.7854 H   0  0  0  0  0  0  0  0  0  0  0  0  # atno 11005 bound_to 11000
  145.7459  139.1778  143.2349 LP  0  0  0  0  0  0  0  0  0  0  0  0  # atno 17320 bound_to 7965
  146.1098  140.7442  142.9509 LP  0  0  0  0  0  0  0  0  0  0  0  0  # atno 17321 bound_to 7965
  140.2792  144.3878  150.6125 LP  0  0  0  0  0  0  0  0  0  0  0  0  # atno 17342 bound_to 10162
  140.6031  143.2167  151.7034 LP  0  0  0  0  0  0  0  0  0  0  0  0  # atno 17343 bound_to 10162
  156.9035  130.9628  151.3573 LP  0  0  0  0  0  0  0  0  0  0  0  0  # atno 17370 bound_to 10713
  157.6055  130.8544  149.8869 LP  0  0  0  0  0  0  0  0  0  0  0  0  # atno 17371 bound_to 10713
  141.2189  133.7416  156.9204 LP  0  0  0  0  0  0  0  0  0  0  0  0  # atno 17394 bound_to 11000
  140.1454  134.9266  157.2522 LP  0  0  0  0  0  0  0  0  0  0  0  0  # atno 17395 bound_to 11000

$$$$
