AV-unprocessed.smi:1715|AV-procd|sdf|6909|dock2
  -GOLD-   22720 8113D 1   1.00000     0.00000
 Structure written by MMmdl.
 40 41  0  0  0  0  0  0  0  0  1 V2000
  152.5469  138.3547  154.6953 C   0  0  0  0  0  0  0  0  0  0  0  0
  151.3416  139.1189  155.2526 C   0  0  2  0  0  0  0  0  0  0  0  0
  150.1372  139.0790  154.2949 C   0  0  0  0  0  0  0  0  0  0  0  0
  149.0195  139.8730  154.7889 N   0  0  0  0  0  0  0  0  0  0  0  0
  147.8771  139.7862  153.8811 C   0  0  0  0  0  0  0  0  0  0  0  0
  146.5442  140.2903  154.4653 C   0  0  0  0  0  0  0  0  0  0  0  0
  145.4140  139.5416  153.9302 N   0  0  0  0  0  0  0  0  0  0  0  0
  144.9612  138.3770  154.4150 C   0  0  0  0  0  0  0  0  0  0  0  0
  145.4636  137.7984  155.3786 O   0  0  0  0  0  0  0  0  0  0  0  0
  143.9040  137.9364  153.7139 N   0  0  0  0  0  0  0  0  0  0  0  0
  143.1482  136.7592  153.9434 C   0  0  0  0  0  0  0  0  0  0  0  0
  141.7363  136.7230  154.1024 C   0  0  0  0  0  0  0  0  0  0  0  0
  141.3045  135.4869  154.3080 N   0  0  0  0  0  0  0  0  0  0  0  0
  142.4272  134.7341  154.2824 N   0  0  0  0  0  0  0  0  0  0  0  0
  143.5734  135.4658  154.0628 C   0  0  0  0  0  0  0  0  0  0  0  0
  149.4695  141.2486  154.9935 C   0  0  0  0  0  0  0  0  0  0  0  0
  150.6996  141.3445  155.9184 C   0  0  1  0  0  0  0  0  0  0  0  0
  150.3676  141.1060  157.4012 C   0  0  0  0  0  0  0  0  0  0  0  0
  151.7353  140.4739  155.4605 O   0  0  0  0  0  0  0  0  0  0  0  0
  142.3956  133.7334  154.4156 H   0  0  0  0  0  0  0  0  0  0  0  0
  152.3041  137.3046  154.5317 H   0  0  0  0  0  0  0  0  0  0  0  0
  153.3884  138.3979  155.3872 H   0  0  0  0  0  0  0  0  0  0  0  0
  152.8756  138.7750  153.7444 H   0  0  0  0  0  0  0  0  0  0  0  0
  151.0636  138.6715  156.2073 H   0  0  0  0  0  0  0  0  0  0  0  0
  150.4405  139.4419  153.3114 H   0  0  0  0  0  0  0  0  0  0  0  0
  149.8220  138.0435  154.1605 H   0  0  0  0  0  0  0  0  0  0  0  0
  148.0991  140.3236  152.9579 H   0  0  0  0  0  0  0  0  0  0  0  0
  147.7406  138.7427  153.5932 H   0  0  0  0  0  0  0  0  0  0  0  0
  146.5557  140.2280  155.5547 H   0  0  0  0  0  0  0  0  0  0  0  0
  146.3807  141.3375  154.2142 H   0  0  0  0  0  0  0  0  0  0  0  0
  144.9402  139.9422  153.1338 H   0  0  0  0  0  0  0  0  0  0  0  0
  143.6012  138.5084  152.9391 H   0  0  0  0  0  0  0  0  0  0  0  0
  141.0254  137.5356  154.0766 H   0  0  0  0  0  0  0  0  0  0  0  0
  144.5511  135.0094  154.0156 H   0  0  0  0  0  0  0  0  0  0  0  0
  149.7204  141.6929  154.0290 H   0  0  0  0  0  0  0  0  0  0  0  0
  148.6686  141.8565  155.4126 H   0  0  0  0  0  0  0  0  0  0  0  0
  151.0966  142.3572  155.8417 H   0  0  0  0  0  0  0  0  0  0  0  0
  149.6591  141.8509  157.7640 H   0  0  0  0  0  0  0  0  0  0  0  0
  151.2648  141.1767  158.0161 H   0  0  0  0  0  0  0  0  0  0  0  0
  149.9228  140.1256  157.5699 H   0  0  0  0  0  0  0  0  0  0  0  0
  1  2  1  0  0  0  0
  1 21  1  0  0  0  0
  1 22  1  0  0  0  0
  1 23  1  0  0  0  0
  2 19  1  0  0  0  0
  2  3  1  0  0  0  0
  2 24  1  0  0  0  0
  3  4  1  0  0  0  0
  3 25  1  0  0  0  0
  3 26  1  0  0  0  0
  4  5  1  0  0  0  0
  4 16  1  0  0  0  0
  5  6  1  0  0  0  0
  5 27  1  0  0  0  0
  5 28  1  0  0  0  0
  6  7  1  0  0  0  0
  6 29  1  0  0  0  0
  6 30  1  0  0  0  0
  7  8  1  0  0  0  0
  7 31  1  0  0  0  0
  8  9  2  0  0  0  0
  8 10  1  0  0  0  0
 10 11  1  0  0  0  0
 10 32  1  0  0  0  0
 11 15  2  0  0  0  0
 11 12  1  0  0  0  0
 12 13  2  0  0  0  0
 12 33  1  0  0  0  0
 13 14  1  0  0  0  0
 14 20  1  0  0  0  0
 14 15  1  0  0  0  0
 15 34  1  0  0  0  0
 16 17  1  0  0  0  0
 16 35  1  0  0  0  0
 16 36  1  0  0  0  0
 17 18  1  0  0  0  0
 17 19  1  0  0  0  0
 17 37  1  0  0  0  0
 18 38  1  0  0  0  0
 18 39  1  0  0  0  0
 18 40  1  0  0  0  0
M  END
> <s_m_source_file>
AV-unprocessed.smi

> <i_m_source_file_index>
1715

> <i_lp_mmshare_version>
43012

> <i_f3d_flags>
0

> <s_epik_input>
W0NIM11bQ0BASF0xW0NIMl1OKFtDSDJdW0NASF0oTzEpW0NIM10pW0NIMl1bQ0gyXVtOSF1DKD1PKVtOSF1jMltjSF1uW25IXVtjSF0y

> <s_epik_cmdline>
J2VwaWtfcHl0aG9uJywgJy1waCcsICc3LjAnLCAnLXRuJywgJzgnLCAnLW1hJywgJzIwMCcsICctbWV0YWxfYmluZGluZycsICctaW1hZScsICc8aW5maWxlLm1hZT4nLCAnLW9tYWUnLCAnPG91dGZpbGUubWFlPic=

> <r_lp_tautomer_probability>
0.5

> <r_epik_Ionization_Penalty>
0.242771

> <r_epik_Ionization_Penalty_Charging>
0

> <r_epik_Ionization_Penalty_Neutral>
0.242771

> <r_epik_State_Penalty>
0.233765

> <r_epik_Charging_Adjusted_Penalty>
0.233765

> <i_epik_Tot_Q>
0

> <i_epik_Tot_abs_Q>
0

> <r_epik_Metal_State_Penalty>
0.233764

> <b_epik_Metal_Only>
0

> <s_lp_Force_Field>
OPLS_2005

> <r_lp_Energy>
24.9441

> <b_lp_Chiralities_Consistent>
1

> <s_lp_Variant>
AV-unprocessed.smi:1715-1

> <Gold.Version>
5.8.1

> <Gold.Id.Protein>
6NUR|6NUR_protein|mol2

> <Gold.PLP.Fitness>
39.5285

> <Gold.PLP.PLP>
-29.5876

> <Gold.PLP.part.hbond>
-5.3299

> <Gold.PLP.part.metal>
0.0000

> <Gold.PLP.part.buried>
-3.6428

> <Gold.PLP.part.nonpolar>
-20.6658

> <Gold.PLP.part.repulsive>
0.2581

> <Gold.PLP.ligand.clash>
0.0000

> <Gold.PLP.ligand.torsion>
0.9633

> <Gold.PLP.Chemscore.Hbond>
3.9456

> <Gold.PLP.Chemscore.CHOScore>
0.0000

> <Gold.PLP.Chemscore.Metal>
0.0000

> <Gold.Chemscore.Hbonds>
donor molecule, donor type, donor heavy atom, donor atom, acceptor molecule, acceptor atom, score
      L1  H     7    31       P1 10175  0.98
      L1  H    10    32       P1 10175  0.74
      L1  H    14    20       P1 10957  1.00
      P1  H  7989  7998       L1    19  0.46
      P1  H 11000 11005       L1    13  0.61

> <Gold.PLP.Chemscore.Internal.Correction>
0.0306

> <Gold.Rescore>
     Score         DG    S(hbond)    S(metal)    S(lipo)     H(rot)  DE(clash)    DE(int)     intcor
     19.20     -20.21       3.44        0.00      63.22       1.63       0.01       1.00       ----

> <Gold.Chemscore.Fitness>
19.2012

> <Gold.Chemscore.DG>
-20.2099

> <Gold.Chemscore.ZeroCoef>
-5.4800

> <Gold.Chemscore.Hbond>
3.4438

> <Gold.Chemscore.Metal>
0.0000

> <Gold.Chemscore.Lipo>
63.2224

> <Gold.Chemscore.Internal_Hbond>
0.0000

> <Gold.Chemscore.DEClash>
0.0056

> <Gold.Chemscore.DEInternal>
1.0030

> <Gold.Chemscore.Rot>
1.6287

> <Gold.Chemscore.Internal.Correction>
   9.000000E+99

> <Gold.Chemscore.Hbonds>
donor molecule, donor type, donor heavy atom, donor atom, acceptor molecule, acceptor atom, score
      L1  H     7    31       P1 10175  0.87
      L1  H    10    32       P1 10175  0.72
      L1  H    14    20       P1 10957  0.95
      P1  H  7989  7998       L1    19  0.01
      P1  H 11000 11005       L1    13  0.12

> <Gold.Chemscore.Hbond.Weighted>
-11.5024

> <Gold.Chemscore.Metal.Weighted>
-0.0000

> <Gold.Chemscore.Lipo.Weighted>
-7.3970

> <Gold.Chemscore.Internal_Hbond.Weighted>
0.0000

> <Gold.Chemscore.DEClash.Weighted>
0.0056

> <Gold.Chemscore.DEInternal.Weighted>
1.0030

> <Gold.Chemscore.Rot.Weighted>
4.1695

> <Gold.Chemscore.Internal.Correction.Weighted>
   9.000000E+99

> <Gold.Protein.RotatedTorsions>
[ 6907 6896 6895 6894 ] final -171.15 input  -60.11 | X-H torsion
[ 7974 7965 7964 7962 ] final -142.95 input  175.53 | X-H torsion
[ 8008 7997 7996 7995 ] final -127.45 input   59.86 | X-H torsion
[ 10167 10162 10161 10158 ] final -179.26 input  -65.29 | X-H torsion
[ 10718 10713 10712 10709 ] final  128.31 input   66.30 | X-H torsion
[ 10763 10752 10751 10750 ] final -164.99 input  -60.55 | X-H torsion
[ 11005 11000 10999 10996 ] final   36.50 input  -57.11 | X-H torsion

> <Gold.Protein.ActiveResidues>
 VAL166  LYS551  ARG553  GLY616  TRP617  ASP618  TYR619  PRO620  LYS621  CYS622 
 ASP623  PHE694  ASN695  SER759  ASP760  ASP761  ALA762  ILE779  LEU786  VAL792 
 PHE793  MET794  SER795  GLU796  ALA797  LYS798  CYS799  TRP800  GLU811  SER814 

> <Gold.Protein.RotatedAtoms>
  151.5192  133.3470  159.2898 H   0  0  0  0  0  0  0  0  0  0  0  0  # atno 6907 bound_to 6896
  150.8663  134.8029  159.7132 H   0  0  0  0  0  0  0  0  0  0  0  0  # atno 6908 bound_to 6896
  152.4666  134.5069  159.9793 H   0  0  0  0  0  0  0  0  0  0  0  0  # atno 6909 bound_to 6896
  144.8405  140.5895  143.5455 H   0  0  0  0  0  0  0  0  0  0  0  0  # atno 7974 bound_to 7965
  155.2464  140.0430  157.2981 H   0  0  0  0  0  0  0  0  0  0  0  0  # atno 8008 bound_to 7997
  154.5796  140.2397  155.8043 H   0  0  0  0  0  0  0  0  0  0  0  0  # atno 8009 bound_to 7997
  156.2183  140.2978  155.9900 H   0  0  0  0  0  0  0  0  0  0  0  0  # atno 8010 bound_to 7997
  139.5394  144.2404  152.0864 H   0  0  0  0  0  0  0  0  0  0  0  0  # atno 10167 bound_to 10162
  157.5256  131.1098  150.9088 H   0  0  0  0  0  0  0  0  0  0  0  0  # atno 10718 bound_to 10713
  154.6975  135.2982  154.9390 H   0  0  0  0  0  0  0  0  0  0  0  0  # atno 10763 bound_to 10752
  154.0333  135.6667  153.4787 H   0  0  0  0  0  0  0  0  0  0  0  0  # atno 10764 bound_to 10752
  153.0657  135.5090  154.8101 H   0  0  0  0  0  0  0  0  0  0  0  0  # atno 10765 bound_to 10752
  140.2320  134.3517  155.7960 H   0  0  0  0  0  0  0  0  0  0  0  0  # atno 11005 bound_to 11000
  145.4704  139.1504  143.3817 LP  0  0  0  0  0  0  0  0  0  0  0  0  # atno 17320 bound_to 7965
  146.2698  140.4837  142.8819 LP  0  0  0  0  0  0  0  0  0  0  0  0  # atno 17321 bound_to 7965
  140.1880  144.4779  150.6493 LP  0  0  0  0  0  0  0  0  0  0  0  0  # atno 17342 bound_to 10162
  140.6617  143.2254  151.5839 LP  0  0  0  0  0  0  0  0  0  0  0  0  # atno 17343 bound_to 10162
  156.9685  130.5482  149.5289 LP  0  0  0  0  0  0  0  0  0  0  0  0  # atno 17370 bound_to 10713
  156.0385  130.5470  150.8712 LP  0  0  0  0  0  0  0  0  0  0  0  0  # atno 17371 bound_to 10713
  141.2217  133.7250  156.8746 LP  0  0  0  0  0  0  0  0  0  0  0  0  # atno 17394 bound_to 11000
  140.1741  134.9079  157.2869 LP  0  0  0  0  0  0  0  0  0  0  0  0  # atno 17395 bound_to 11000

$$$$
