AV-unprocessed.smi:506|AV-procd|sdf|2751|dock3
  -GOLD-   2262023213D 1   1.00000     0.00000
 Structure written by MMmdl.
 41 43  0  0  0  0  0  0  0  0  2 V2000
  153.9302  136.6615  163.7493 C   0  0  0  0  0  0  0  0  0  0  0  0
  154.5346  137.7788  163.1143 O   0  0  0  0  0  0  0  0  0  0  0  0
  154.1388  138.0870  161.8304 C   0  0  0  0  0  0  0  0  0  0  0  0
  154.6422  139.2785  161.2727 C   0  0  0  0  0  0  0  0  0  0  0  0
  154.2922  139.6666  159.9658 C   0  0  0  0  0  0  0  0  0  0  0  0
  153.4299  138.8729  159.1844 C   0  0  0  0  0  0  0  0  0  0  0  0
  153.1441  139.3228  157.9133 O   0  0  0  0  0  0  0  0  0  0  0  0
  152.1427  138.6434  157.1700 C   0  0  0  0  0  0  0  0  0  0  0  0
  150.7803  139.2534  157.5201 C   0  0  0  0  0  0  0  0  0  0  0  0
  150.7095  140.6748  157.1588 N   0  0  0  0  0  0  0  0  0  0  0  0
  150.1283  141.2829  156.0851 C   0  0  0  0  0  0  0  0  0  0  0  0
  149.3919  140.6072  154.9723 C   0  0  0  0  0  0  0  0  0  0  0  0
  149.9189  140.9010  153.6954 O   0  0  0  0  0  0  0  0  0  0  0  0
  150.3443  142.6231  156.2187 N   0  3  0  0  0  0  0  0  0  0  0  0
  151.0622  142.8738  157.3885 C   0  0  0  0  0  0  0  0  0  0  0  0
  151.5111  144.0673  157.9454 C   0  0  0  0  0  0  0  0  0  0  0  0
  152.2163  143.9715  159.1632 C   0  0  0  0  0  0  0  0  0  0  0  0
  152.4497  142.7253  159.7806 C   0  0  0  0  0  0  0  0  0  0  0  0
  151.9904  141.5217  159.2060 C   0  0  0  0  0  0  0  0  0  0  0  0
  151.2968  141.6256  158.0005 C   0  0  0  0  0  0  0  0  0  0  0  0
  152.9167  137.6762  159.7426 C   0  0  0  0  0  0  0  0  0  0  0  0
  153.2677  137.2874  161.0503 C   0  0  0  0  0  0  0  0  0  0  0  0
  154.3485  136.5465  164.7491 H   0  0  0  0  0  0  0  0  0  0  0  0
  154.1251  135.7382  163.2018 H   0  0  0  0  0  0  0  0  0  0  0  0
  152.8532  136.7982  163.8566 H   0  0  0  0  0  0  0  0  0  0  0  0
  155.3068  139.9021  161.8526 H   0  0  0  0  0  0  0  0  0  0  0  0
  154.6927  140.5832  159.5583 H   0  0  0  0  0  0  0  0  0  0  0  0
  152.3265  138.7514  156.0998 H   0  0  0  0  0  0  0  0  0  0  0  0
  152.1506  137.5797  157.4130 H   0  0  0  0  0  0  0  0  0  0  0  0
  149.9689  138.7189  157.0251 H   0  0  0  0  0  0  0  0  0  0  0  0
  150.5960  139.1719  158.5918 H   0  0  0  0  0  0  0  0  0  0  0  0
  149.4205  139.5286  155.1286 H   0  0  0  0  0  0  0  0  0  0  0  0
  148.3452  140.9120  154.9985 H   0  0  0  0  0  0  0  0  0  0  0  0
  149.6786  140.2039  153.1038 H   0  0  0  0  0  0  0  0  0  0  0  0
  151.3316  145.0233  157.4754 H   0  0  0  0  0  0  0  0  0  0  0  0
  152.5847  144.8716  159.6339 H   0  0  0  0  0  0  0  0  0  0  0  0
  152.9922  142.6916  160.7144 H   0  0  0  0  0  0  0  0  0  0  0  0
  152.1728  140.5725  159.6879 H   0  0  0  0  0  0  0  0  0  0  0  0
  152.2500  137.0348  159.1869 H   0  0  0  0  0  0  0  0  0  0  0  0
  152.8540  136.3665  161.4322 H   0  0  0  0  0  0  0  0  0  0  0  0
  150.0162  143.3123  155.5541 H   0  0  0  0  0  0  0  0  0  0  0  0
  1  2  1  0  0  0  0
  1 23  1  0  0  0  0
  1 24  1  0  0  0  0
  1 25  1  0  0  0  0
  2  3  1  0  0  0  0
  3 22  1  0  0  0  0
  3  4  2  0  0  0  0
  4  5  1  0  0  0  0
  4 26  1  0  0  0  0
  5  6  2  0  0  0  0
  5 27  1  0  0  0  0
  6  7  1  0  0  0  0
  6 21  1  0  0  0  0
  7  8  1  0  0  0  0
  8  9  1  0  0  0  0
  8 28  1  0  0  0  0
  8 29  1  0  0  0  0
  9 10  1  0  0  0  0
  9 30  1  0  0  0  0
  9 31  1  0  0  0  0
 10 20  1  0  0  0  0
 10 11  1  0  0  0  0
 11 12  1  0  0  0  0
 11 14  2  0  0  0  0
 12 13  1  0  0  0  0
 12 32  1  0  0  0  0
 12 33  1  0  0  0  0
 13 34  1  0  0  0  0
 14 15  1  0  0  0  0
 14 41  1  0  0  0  0
 15 20  2  0  0  0  0
 15 16  1  0  0  0  0
 16 17  2  0  0  0  0
 16 35  1  0  0  0  0
 17 18  1  0  0  0  0
 17 36  1  0  0  0  0
 18 19  2  0  0  0  0
 18 37  1  0  0  0  0
 19 20  1  0  0  0  0
 19 38  1  0  0  0  0
 21 22  2  0  0  0  0
 21 39  1  0  0  0  0
 22 40  1  0  0  0  0
M  CHG  1  14   1
M  END
> <s_m_source_file>
AV-unprocessed.smi

> <i_m_source_file_index>
506

> <i_lp_mmshare_version>
43012

> <i_f3d_flags>
0

> <s_epik_input>
W0NIM11PYzFbY0hdW2NIXWMoW2NIXVtjSF0xKU9bQ0gyXVtDSDJdbihjKG4yKVtDSDJdW09IXSljKGMyMylbY0hdW2NIXVtjSF1bY0hdMw==

> <s_epik_cmdline>
J2VwaWtfcHl0aG9uJywgJy1waCcsICc3LjAnLCAnLXRuJywgJzgnLCAnLW1hJywgJzIwMCcsICctbWV0YWxfYmluZGluZycsICctaW1hZScsICc8aW5maWxlLm1hZT4nLCAnLW9tYWUnLCAnPG91dGZpbGUubWFlPic=

> <r_lp_tautomer_probability>
1

> <r_epik_Ionization_Penalty>
1.51027

> <r_epik_Ionization_Penalty_Charging>
1.50942

> <r_epik_Ionization_Penalty_Neutral>
0.000855784

> <r_epik_State_Penalty>
1.60032

> <r_epik_Charging_Adjusted_Penalty>
3.10973

> <i_epik_Tot_Q>
1

> <i_epik_Tot_abs_Q>
1

> <r_epik_Metal_State_Penalty>
5.65193

> <b_epik_Metal_Only>
0

> <s_lp_Force_Field>
OPLS_2005

> <r_lp_Energy>
22.2088

> <b_lp_Chiralities_Consistent>
1

> <s_lp_Variant>
AV-unprocessed.smi:506-2

> <Gold.Version>
5.8.1

> <Gold.Id.Protein>
6NUR|6NUR_protein|mol2

> <Gold.PLP.Fitness>
57.9439

> <Gold.PLP.PLP>
-46.2124

> <Gold.PLP.part.hbond>
-4.7969

> <Gold.PLP.part.metal>
0.0000

> <Gold.PLP.part.buried>
-5.7003

> <Gold.PLP.part.nonpolar>
-37.0713

> <Gold.PLP.part.repulsive>
0.1087

> <Gold.PLP.ligand.clash>
0.0000

> <Gold.PLP.ligand.torsion>
0.5525

> <Gold.PLP.Chemscore.Hbond>
4.2729

> <Gold.PLP.Chemscore.CHOScore>
0.0000

> <Gold.PLP.Chemscore.Metal>
0.0000

> <Gold.Chemscore.Hbonds>
donor molecule, donor type, donor heavy atom, donor atom, acceptor molecule, acceptor atom, score
      L1  H    13    34       P1  7957  0.67
      L1  H    14    41       P1  8028  1.38
      P1  H  7989  7998       L1    13  0.38
      P1  H  7997  8008       L1     7  1.00
      P1  H  8011  8017       L1    13  0.81

> <Gold.PLP.Chemscore.Internal.Correction>
0.0179

> <Gold.Rescore>
     Score         DG    S(hbond)    S(metal)    S(lipo)     H(rot)  DE(clash)    DE(int)     intcor
     19.43     -21.94       2.65        0.00     120.77       2.54       0.16       2.35       ----

> <Gold.Chemscore.Fitness>
19.4343

> <Gold.Chemscore.DG>
-21.9436

> <Gold.Chemscore.ZeroCoef>
-5.4800

> <Gold.Chemscore.Hbond>
2.6478

> <Gold.Chemscore.Metal>
0.0000

> <Gold.Chemscore.Lipo>
120.7716

> <Gold.Chemscore.Internal_Hbond>
0.0000

> <Gold.Chemscore.DEClash>
0.1631

> <Gold.Chemscore.DEInternal>
2.3463

> <Gold.Chemscore.Rot>
2.5431

> <Gold.Chemscore.Internal.Correction>
   9.000000E+99

> <Gold.Chemscore.Hbonds>
donor molecule, donor type, donor heavy atom, donor atom, acceptor molecule, acceptor atom, score
      L1  H    13    34       P1  7957  0.67
      L1  H    14    41       P1  8028  0.70
      P1  H  7989  7998       L1    13  0.08
      P1  H  7997  8008       L1     7  0.81
      P1  H  8011  8017       L1    13  0.12

> <Gold.Chemscore.Hbond.Weighted>
-8.8437

> <Gold.Chemscore.Metal.Weighted>
-0.0000

> <Gold.Chemscore.Lipo.Weighted>
-14.1303

> <Gold.Chemscore.Internal_Hbond.Weighted>
0.0000

> <Gold.Chemscore.DEClash.Weighted>
0.1631

> <Gold.Chemscore.DEInternal.Weighted>
2.3463

> <Gold.Chemscore.Rot.Weighted>
6.5103

> <Gold.Chemscore.Internal.Correction.Weighted>
   9.000000E+99

> <Gold.Protein.RotatedTorsions>
[ 6907 6896 6895 6894 ] final  105.12 input  -60.11 | X-H torsion
[ 7974 7965 7964 7962 ] final -107.92 input  175.53 | X-H torsion
[ 8008 7997 7996 7995 ] final  -90.56 input   59.86 | X-H torsion
[ 10167 10162 10161 10158 ] final  129.72 input  -65.29 | X-H torsion
[ 10718 10713 10712 10709 ] final  -27.65 input   66.30 | X-H torsion
[ 10763 10752 10751 10750 ] final  111.78 input  -60.55 | X-H torsion
[ 11005 11000 10999 10996 ] final   74.76 input  -57.11 | X-H torsion

> <Gold.Protein.ActiveResidues>
 VAL166  LYS551  ARG553  GLY616  TRP617  ASP618  TYR619  PRO620  LYS621  CYS622 
 ASP623  PHE694  ASN695  SER759  ASP760  ASP761  ALA762  ILE779  LEU786  VAL792 
 PHE793  MET794  SER795  GLU796  ALA797  LYS798  CYS799  TRP800  GLU811  SER814 

> <Gold.Protein.RotatedAtoms>
  152.5241  133.9575  159.7701 H   0  0  0  0  0  0  0  0  0  0  0  0  # atno 6907 bound_to 6896
  150.9872  133.6177  159.2720 H   0  0  0  0  0  0  0  0  0  0  0  0  # atno 6908 bound_to 6896
  151.3333  135.0853  159.9399 H   0  0  0  0  0  0  0  0  0  0  0  0  # atno 6909 bound_to 6896
  145.1993  140.9049  143.3379 H   0  0  0  0  0  0  0  0  0  0  0  0  # atno 7974 bound_to 7965
  154.7001  140.0529  157.0449 H   0  0  0  0  0  0  0  0  0  0  0  0  # atno 8008 bound_to 7997
  155.0697  140.3198  155.4615 H   0  0  0  0  0  0  0  0  0  0  0  0  # atno 8009 bound_to 7997
  156.2757  140.2084  156.5825 H   0  0  0  0  0  0  0  0  0  0  0  0  # atno 8010 bound_to 7997
  139.5464  144.6777  151.4460 H   0  0  0  0  0  0  0  0  0  0  0  0  # atno 10167 bound_to 10162
  156.4355  130.4453  149.7088 H   0  0  0  0  0  0  0  0  0  0  0  0  # atno 10718 bound_to 10713
  153.4683  135.3706  155.2377 H   0  0  0  0  0  0  0  0  0  0  0  0  # atno 10763 bound_to 10752
  154.8757  135.3925  154.3842 H   0  0  0  0  0  0  0  0  0  0  0  0  # atno 10764 bound_to 10752
  153.4426  135.7084  153.6224 H   0  0  0  0  0  0  0  0  0  0  0  0  # atno 10765 bound_to 10752
  139.9376  134.7460  156.1187 H   0  0  0  0  0  0  0  0  0  0  0  0  # atno 11005 bound_to 11000
  144.9964  139.3640  143.6189 LP  0  0  0  0  0  0  0  0  0  0  0  0  # atno 17320 bound_to 7965
  146.3421  139.9168  142.8772 LP  0  0  0  0  0  0  0  0  0  0  0  0  # atno 17321 bound_to 7965
  140.6713  143.8287  150.7003 LP  0  0  0  0  0  0  0  0  0  0  0  0  # atno 17342 bound_to 10162
  140.1712  143.4193  152.1999 LP  0  0  0  0  0  0  0  0  0  0  0  0  # atno 17343 bound_to 10162
  156.3974  130.7657  151.2663 LP  0  0  0  0  0  0  0  0  0  0  0  0  # atno 17370 bound_to 10713
  157.7507  131.0250  150.3900 LP  0  0  0  0  0  0  0  0  0  0  0  0  # atno 17371 bound_to 10713
  141.0996  133.6682  156.2724 LP  0  0  0  0  0  0  0  0  0  0  0  0  # atno 17394 bound_to 11000
  140.6036  134.5530  157.5522 LP  0  0  0  0  0  0  0  0  0  0  0  0  # atno 17395 bound_to 11000

$$$$
