AV-unprocessed.smi:1554|AV-procd|sdf|6244|dock1
  -GOLD-   22720 6423D 1   1.00000     0.00000
 Structure written by MMmdl.
 48 50  0  0  0  0  0  0  0  0  2 V2000
  151.6176  144.2379  160.3007 C   0  0  0  0  0  0  0  0  0  0  0  0
  151.7421  143.0784  159.3282 C   0  0  0  0  0  0  0  0  0  0  0  0
  150.9315  143.0616  158.1707 C   0  0  0  0  0  0  0  0  0  0  0  0
  151.0166  142.0012  157.2422 C   0  0  0  0  0  0  0  0  0  0  0  0
  150.3268  141.7813  156.0623 N   0  0  0  0  0  0  0  0  0  0  0  0
  150.8504  140.6285  155.6559 C   0  0  0  0  0  0  0  0  0  0  0  0
  151.7979  140.0727  156.4353 N   0  0  0  0  0  0  0  0  0  0  0  0
  152.5061  138.8273  156.1966 C   0  0  0  0  0  0  0  0  0  0  0  0
  151.5570  137.6183  156.0866 C   0  0  2  0  0  0  0  0  0  0  0  0
  152.2518  136.4411  156.4522 O   0  0  0  0  0  0  0  0  0  0  0  0
  151.0195  137.4473  154.6517 C   0  0  0  0  0  0  0  0  0  0  0  0
  149.8662  136.5143  154.5763 N   0  3  1  0  0  0  0  0  0  0  0  0
  150.2447  135.0837  154.6830 C   0  0  0  0  0  0  0  0  0  0  0  0
  149.0008  134.1908  154.5459 C   0  0  0  0  0  0  0  0  0  0  0  0
  148.0442  134.5500  155.5350 O   0  0  0  0  0  0  0  0  0  0  0  0
  147.6008  135.8951  155.3935 C   0  0  1  0  0  0  0  0  0  0  0  0
  146.5132  136.1528  156.4424 C   0  0  0  0  0  0  0  0  0  0  0  0
  148.8052  136.8425  155.5585 C   0  0  0  0  0  0  0  0  0  0  0  0
  151.9439  140.9505  157.5042 C   0  0  0  0  0  0  0  0  0  0  0  0
  152.7553  140.9555  158.6525 C   0  0  0  0  0  0  0  0  0  0  0  0
  152.6556  142.0212  159.5713 C   0  0  0  0  0  0  0  0  0  0  0  0
  153.5335  142.0148  160.8101 C   0  0  0  0  0  0  0  0  0  0  0  0
  150.9161  144.9890  159.9369 H   0  0  0  0  0  0  0  0  0  0  0  0
  152.5826  144.7249  160.4425 H   0  0  0  0  0  0  0  0  0  0  0  0
  151.2606  143.8860  161.2688 H   0  0  0  0  0  0  0  0  0  0  0  0
  150.2341  143.8657  157.9866 H   0  0  0  0  0  0  0  0  0  0  0  0
  150.5253  140.1597  154.7384 H   0  0  0  0  0  0  0  0  0  0  0  0
  153.0842  138.9356  155.2779 H   0  0  0  0  0  0  0  0  0  0  0  0
  153.2283  138.6780  157.0006 H   0  0  0  0  0  0  0  0  0  0  0  0
  150.7344  137.7611  156.7870 H   0  0  0  0  0  0  0  0  0  0  0  0
  152.2140  136.3495  157.3929 H   0  0  0  0  0  0  0  0  0  0  0  0
  150.7303  138.4125  154.2329 H   0  0  0  0  0  0  0  0  0  0  0  0
  151.8299  137.0737  154.0236 H   0  0  0  0  0  0  0  0  0  0  0  0
  150.9627  134.8172  153.9084 H   0  0  0  0  0  0  0  0  0  0  0  0
  150.7286  134.9021  155.6439 H   0  0  0  0  0  0  0  0  0  0  0  0
  148.5645  134.2793  153.5497 H   0  0  0  0  0  0  0  0  0  0  0  0
  149.2731  133.1440  154.6819 H   0  0  0  0  0  0  0  0  0  0  0  0
  147.1640  136.0260  154.4019 H   0  0  0  0  0  0  0  0  0  0  0  0
  146.1316  137.1718  156.3712 H   0  0  0  0  0  0  0  0  0  0  0  0
  146.8963  136.0086  157.4531 H   0  0  0  0  0  0  0  0  0  0  0  0
  145.6715  135.4733  156.3058 H   0  0  0  0  0  0  0  0  0  0  0  0
  149.2098  136.7702  156.5696 H   0  0  0  0  0  0  0  0  0  0  0  0
  148.4800  137.8740  155.4161 H   0  0  0  0  0  0  0  0  0  0  0  0
  153.4469  140.1445  158.8260 H   0  0  0  0  0  0  0  0  0  0  0  0
  154.1400  141.1104  160.8628 H   0  0  0  0  0  0  0  0  0  0  0  0
  152.9236  142.0609  161.7127 H   0  0  0  0  0  0  0  0  0  0  0  0
  154.2084  142.8710  160.8034 H   0  0  0  0  0  0  0  0  0  0  0  0
  149.4558  136.6467  153.6623 H   0  0  0  0  0  0  0  0  0  0  0  0
  1  2  1  0  0  0  0
  1 23  1  0  0  0  0
  1 24  1  0  0  0  0
  1 25  1  0  0  0  0
  2 21  1  0  0  0  0
  2  3  2  0  0  0  0
  3  4  1  0  0  0  0
  3 26  1  0  0  0  0
  4 19  2  0  0  0  0
  4  5  1  0  0  0  0
  5  6  2  0  0  0  0
  6  7  1  0  0  0  0
  6 27  1  0  0  0  0
  7  8  1  0  0  0  0
  7 19  1  0  0  0  0
  8  9  1  0  0  0  0
  8 28  1  0  0  0  0
  8 29  1  0  0  0  0
  9 10  1  0  0  0  0
  9 11  1  0  0  0  0
  9 30  1  0  0  0  0
 10 31  1  0  0  0  0
 11 12  1  0  0  0  0
 11 32  1  0  0  0  0
 11 33  1  0  0  0  0
 12 18  1  0  0  0  0
 12 13  1  0  0  0  0
 12 48  1  0  0  0  0
 13 14  1  0  0  0  0
 13 34  1  0  0  0  0
 13 35  1  0  0  0  0
 14 15  1  0  0  0  0
 14 36  1  0  0  0  0
 14 37  1  0  0  0  0
 15 16  1  0  0  0  0
 16 17  1  0  0  0  0
 16 18  1  0  0  0  0
 16 38  1  0  0  0  0
 17 39  1  0  0  0  0
 17 40  1  0  0  0  0
 17 41  1  0  0  0  0
 18 42  1  0  0  0  0
 18 43  1  0  0  0  0
 19 20  1  0  0  0  0
 20 21  2  0  0  0  0
 20 44  1  0  0  0  0
 21 22  1  0  0  0  0
 22 45  1  0  0  0  0
 22 46  1  0  0  0  0
 22 47  1  0  0  0  0
M  CHG  1  12   1
M  END
> <s_m_source_file>
AV-unprocessed.smi

> <i_m_source_file_index>
1554

> <i_lp_mmshare_version>
43012

> <i_f3d_flags>
0

> <s_epik_input>
W0NIM11jKFtjSF0xKWMoW0NIM10pW2NIXWMoYzEyKW4oW2NIXW4yKVtDSDJdW0NASF0oW09IXSlbQ0gyXU4zW0NIMl1bQ0gyXU9bQ0BASF0oW0NIM10pW0NIMl0z

> <s_epik_cmdline>
J2VwaWtfcHl0aG9uJywgJy1waCcsICc3LjAnLCAnLXRuJywgJzgnLCAnLW1hJywgJzIwMCcsICctbWV0YWxfYmluZGluZycsICctaW1hZScsICc8aW5maWxlLm1hZT4nLCAnLW9tYWUnLCAnPG91dGZpbGUubWFlPic=

> <r_epik_Ionization_Penalty>
0.695251

> <r_epik_Ionization_Penalty_Charging>
0.608065

> <r_epik_Ionization_Penalty_Neutral>
0.0871863

> <r_epik_State_Penalty>
0.731955

> <r_epik_Charging_Adjusted_Penalty>
1.34002

> <i_epik_Tot_Q>
1

> <i_epik_Tot_abs_Q>
1

> <r_epik_Metal_State_Penalty>
0.652186

> <b_epik_Metal_Only>
0

> <s_lp_Force_Field>
OPLS_2005

> <r_lp_Energy>
20.8571

> <b_lp_Chiralities_Consistent>
1

> <s_lp_Variant>
AV-unprocessed.smi:1554-5

> <Gold.Version>
5.8.1

> <Gold.Id.Protein>
6NUR|6NUR_protein|mol2

> <Gold.PLP.Fitness>
46.9498

> <Gold.PLP.PLP>
-38.8728

> <Gold.PLP.part.hbond>
-2.0000

> <Gold.PLP.part.metal>
0.0000

> <Gold.PLP.part.buried>
-3.7298

> <Gold.PLP.part.nonpolar>
-32.6088

> <Gold.PLP.part.repulsive>
0.1784

> <Gold.PLP.ligand.clash>
0.0000

> <Gold.PLP.ligand.torsion>
0.4714

> <Gold.PLP.Chemscore.Hbond>
3.0000

> <Gold.PLP.Chemscore.CHOScore>
0.0000

> <Gold.PLP.Chemscore.Metal>
0.0000

> <Gold.Chemscore.Hbonds>
donor molecule, donor type, donor heavy atom, donor atom, acceptor molecule, acceptor atom, score
      L1  H    12    48       P1  7948  2.00
      P1  H 10752 10763       L1    10  1.00

> <Gold.PLP.Chemscore.Internal.Correction>
0.0199

> <Gold.Rescore>
     Score         DG    S(hbond)    S(metal)    S(lipo)     H(rot)  DE(clash)    DE(int)     intcor
     18.19     -18.95       1.88        0.00     106.39       2.05       0.12       0.64       ----

> <Gold.Chemscore.Fitness>
18.1913

> <Gold.Chemscore.DG>
-18.9507

> <Gold.Chemscore.ZeroCoef>
-5.4800

> <Gold.Chemscore.Hbond>
1.8811

> <Gold.Chemscore.Metal>
0.0000

> <Gold.Chemscore.Lipo>
106.3889

> <Gold.Chemscore.Internal_Hbond>
0.0000

> <Gold.Chemscore.DEClash>
0.1233

> <Gold.Chemscore.DEInternal>
0.6360

> <Gold.Chemscore.Rot>
2.0546

> <Gold.Chemscore.Internal.Correction>
   9.000000E+99

> <Gold.Chemscore.Hbonds>
donor molecule, donor type, donor heavy atom, donor atom, acceptor molecule, acceptor atom, score
      L1  H    12    48       P1  7948  0.84
      P1  H 10752 10763       L1    10  0.91

> <Gold.Chemscore.Hbond.Weighted>
-6.2828

> <Gold.Chemscore.Metal.Weighted>
-0.0000

> <Gold.Chemscore.Lipo.Weighted>
-12.4475

> <Gold.Chemscore.Internal_Hbond.Weighted>
0.0000

> <Gold.Chemscore.DEClash.Weighted>
0.1233

> <Gold.Chemscore.DEInternal.Weighted>
0.6360

> <Gold.Chemscore.Rot.Weighted>
5.2597

> <Gold.Chemscore.Internal.Correction.Weighted>
   9.000000E+99

> <Gold.Protein.RotatedTorsions>
[ 6907 6896 6895 6894 ] final  158.84 input  -60.11 | X-H torsion
[ 7974 7965 7964 7962 ] final    2.74 input  175.53 | X-H torsion
[ 8008 7997 7996 7995 ] final   56.19 input   59.86 | X-H torsion
[ 10167 10162 10161 10158 ] final   91.08 input  -65.29 | X-H torsion
[ 10718 10713 10712 10709 ] final  158.93 input   66.30 | X-H torsion
[ 10763 10752 10751 10750 ] final   84.96 input  -60.55 | X-H torsion
[ 11005 11000 10999 10996 ] final  -62.96 input  -57.11 | X-H torsion

> <Gold.Protein.ActiveResidues>
 VAL166  LYS551  ARG553  GLY616  TRP617  ASP618  TYR619  PRO620  LYS621  CYS622 
 ASP623  PHE694  ASN695  SER759  ASP760  ASP761  ALA762  ILE779  LEU786  VAL792 
 PHE793  MET794  SER795  GLU796  ALA797  LYS798  CYS799  TRP800  GLU811  SER814 

> <Gold.Protein.RotatedAtoms>
  151.9945  133.3803  159.4156 H   0  0  0  0  0  0  0  0  0  0  0  0  # atno 6907 bound_to 6896
  150.6917  134.3901  159.5082 H   0  0  0  0  0  0  0  0  0  0  0  0  # atno 6908 bound_to 6896
  152.1639  134.8889  160.0590 H   0  0  0  0  0  0  0  0  0  0  0  0  # atno 6909 bound_to 6896
  146.2444  140.0790  142.8358 H   0  0  0  0  0  0  0  0  0  0  0  0  # atno 7974 bound_to 7965
  155.5134  140.3478  155.4393 H   0  0  0  0  0  0  0  0  0  0  0  0  # atno 8008 bound_to 7997
  156.0834  140.1392  156.9711 H   0  0  0  0  0  0  0  0  0  0  0  0  # atno 8009 bound_to 7997
  154.4593  140.0941  156.6823 H   0  0  0  0  0  0  0  0  0  0  0  0  # atno 8010 bound_to 7997
  139.8409  144.6641  150.9284 H   0  0  0  0  0  0  0  0  0  0  0  0  # atno 10167 bound_to 10162
  157.1712  131.0610  151.2182 H   0  0  0  0  0  0  0  0  0  0  0  0  # atno 10718 bound_to 10713
  153.1430  135.4635  154.9524 H   0  0  0  0  0  0  0  0  0  0  0  0  # atno 10763 bound_to 10752
  154.7763  135.3174  154.8088 H   0  0  0  0  0  0  0  0  0  0  0  0  # atno 10764 bound_to 10752
  153.8607  135.6913  153.4837 H   0  0  0  0  0  0  0  0  0  0  0  0  # atno 10765 bound_to 10752
  141.1377  133.6646  156.5607 H   0  0  0  0  0  0  0  0  0  0  0  0  # atno 11005 bound_to 11000
  145.0749  140.9181  143.4859 LP  0  0  0  0  0  0  0  0  0  0  0  0  # atno 17320 bound_to 7965
  145.0931  139.2875  143.5724 LP  0  0  0  0  0  0  0  0  0  0  0  0  # atno 17321 bound_to 7965
  140.7798  143.3913  151.1305 LP  0  0  0  0  0  0  0  0  0  0  0  0  # atno 17342 bound_to 10162
  139.7560  143.8707  152.3089 LP  0  0  0  0  0  0  0  0  0  0  0  0  # atno 17343 bound_to 10162
  157.4041  130.7349  149.6789 LP  0  0  0  0  0  0  0  0  0  0  0  0  # atno 17370 bound_to 10713
  155.9738  130.4113  150.3973 LP  0  0  0  0  0  0  0  0  0  0  0  0  # atno 17371 bound_to 10713
  140.3990  134.7373  157.4768 LP  0  0  0  0  0  0  0  0  0  0  0  0  # atno 17394 bound_to 11000
  140.0510  134.6131  155.8862 LP  0  0  0  0  0  0  0  0  0  0  0  0  # atno 17395 bound_to 11000

$$$$
