AV-unprocessed.smi:1809|AV-procd|sdf|7314|dock3
  -GOLD-   22720 8573D 1   1.00000     0.00000
 Structure written by MMmdl.
 40 42  0  0  0  0  0  0  0  0  2 V2000
  150.9607  142.2697  156.4324 C   0  0  0  0  0  0  0  0  0  0  0  0
  150.4819  141.1196  155.6141 C   0  0  0  0  0  0  0  0  0  0  0  0
  151.3071  140.1918  155.1122 N   0  0  0  0  0  0  0  0  0  0  0  0
  150.6323  139.2237  154.3807 N   0  0  0  0  0  0  0  0  0  0  0  0
  149.3155  139.4477  154.3520 C   0  0  0  0  0  0  0  0  0  0  0  0
  148.4999  138.5379  153.6341 N   0  0  0  0  0  0  0  0  0  0  0  0
  147.1650  138.4052  153.6886 C   0  0  0  0  0  0  0  0  0  0  0  0
  146.4110  139.0587  154.4095 O   0  0  0  0  0  0  0  0  0  0  0  0
  146.7374  137.4477  152.8538 N   0  0  0  0  0  0  0  0  0  0  0  0
  145.3455  137.0434  152.6870 C   0  0  0  0  0  0  0  0  0  0  0  0
  145.2285  135.6111  152.1365 C   0  0  1  0  0  0  0  0  0  0  0  0
  145.2801  135.5797  150.5969 C   0  0  0  0  0  0  0  0  0  0  0  0
  145.3046  134.1939  150.0726 N   0  3  2  0  0  0  0  0  0  0  0  0
  144.0029  133.4943  149.9974 C   0  0  0  0  0  0  0  0  0  0  0  0
  144.3032  132.0009  150.2024 C   0  0  0  0  0  0  0  0  0  0  0  0
  145.8280  131.9017  150.3139 C   0  0  0  0  0  0  0  0  0  0  0  0
  146.2629  133.3000  150.7549 C   0  0  2  0  0  0  0  0  0  0  0  0
  146.2028  133.4738  152.2893 C   0  0  0  0  0  0  0  0  0  0  0  0
  146.3209  134.8466  152.6337 O   0  0  0  0  0  0  0  0  0  0  0  0
  148.7821  140.8812  155.2304 S   0  0  0  0  0  0  0  0  0  0  0  0
  152.0237  142.1688  156.6541 H   0  0  0  0  0  0  0  0  0  0  0  0
  150.4111  142.3137  157.3727 H   0  0  0  0  0  0  0  0  0  0  0  0
  150.8035  143.2023  155.8905 H   0  0  0  0  0  0  0  0  0  0  0  0
  148.9912  137.9207  153.0041 H   0  0  0  0  0  0  0  0  0  0  0  0
  147.4232  136.9579  152.2977 H   0  0  0  0  0  0  0  0  0  0  0  0
  144.8243  137.1263  153.6423 H   0  0  0  0  0  0  0  0  0  0  0  0
  144.8627  137.7481  152.0094 H   0  0  0  0  0  0  0  0  0  0  0  0
  144.2890  135.1752  152.4802 H   0  0  0  0  0  0  0  0  0  0  0  0
  144.4407  136.1258  150.1645 H   0  0  0  0  0  0  0  0  0  0  0  0
  146.1874  136.0798  150.2556 H   0  0  0  0  0  0  0  0  0  0  0  0
  143.3191  133.8469  150.7704 H   0  0  0  0  0  0  0  0  0  0  0  0
  143.5370  133.6862  149.0305 H   0  0  0  0  0  0  0  0  0  0  0  0
  143.8364  131.6539  151.1251 H   0  0  0  0  0  0  0  0  0  0  0  0
  143.9163  131.3864  149.3889 H   0  0  0  0  0  0  0  0  0  0  0  0
  146.1545  131.1142  150.9942 H   0  0  0  0  0  0  0  0  0  0  0  0
  146.2493  131.6833  149.3316 H   0  0  0  0  0  0  0  0  0  0  0  0
  147.2729  133.5237  150.4091 H   0  0  0  0  0  0  0  0  0  0  0  0
  145.2761  133.0726  152.7030 H   0  0  0  0  0  0  0  0  0  0  0  0
  147.0166  132.9210  152.7587 H   0  0  0  0  0  0  0  0  0  0  0  0
  145.6204  134.2528  149.1148 H   0  0  0  0  0  0  0  0  0  0  0  0
  1  2  1  0  0  0  0
  1 21  1  0  0  0  0
  1 22  1  0  0  0  0
  1 23  1  0  0  0  0
  2 20  1  0  0  0  0
  2  3  2  0  0  0  0
  3  4  1  0  0  0  0
  4  5  2  0  0  0  0
  5  6  1  0  0  0  0
  5 20  1  0  0  0  0
  6  7  1  0  0  0  0
  6 24  1  0  0  0  0
  7  8  2  0  0  0  0
  7  9  1  0  0  0  0
  9 10  1  0  0  0  0
  9 25  1  0  0  0  0
 10 11  1  0  0  0  0
 10 26  1  0  0  0  0
 10 27  1  0  0  0  0
 11 19  1  0  0  0  0
 11 12  1  0  0  0  0
 11 28  1  0  0  0  0
 12 13  1  0  0  0  0
 12 29  1  0  0  0  0
 12 30  1  0  0  0  0
 13 17  1  0  0  0  0
 13 14  1  0  0  0  0
 13 40  1  0  0  0  0
 14 15  1  0  0  0  0
 14 31  1  0  0  0  0
 14 32  1  0  0  0  0
 15 16  1  0  0  0  0
 15 33  1  0  0  0  0
 15 34  1  0  0  0  0
 16 17  1  0  0  0  0
 16 35  1  0  0  0  0
 16 36  1  0  0  0  0
 17 18  1  0  0  0  0
 17 37  1  0  0  0  0
 18 19  1  0  0  0  0
 18 38  1  0  0  0  0
 18 39  1  0  0  0  0
M  CHG  1  13   1
M  END
> <s_m_source_file>
AV-unprocessed.smi

> <i_m_source_file_index>
1809

> <i_lp_mmshare_version>
43012

> <i_f3d_flags>
0

> <s_epik_input>
W0NIM11jMW5uYyhzMSlbTkhdQyg9TylbTkhdW0NIMl1bQ0BIXShbQ0gyXTIpT1tDSDJdW0NAQEhdKE4yMylbQ0gyXVtDSDJdW0NIMl0z

> <s_epik_cmdline>
J2VwaWtfcHl0aG9uJywgJy1waCcsICc3LjAnLCAnLXRuJywgJzgnLCAnLW1hJywgJzIwMCcsICctbWV0YWxfYmluZGluZycsICctaW1hZScsICc8aW5maWxlLm1hZT4nLCAnLW9tYWUnLCAnPG91dGZpbGUubWFlPic=

> <r_lp_tautomer_probability>
1

> <r_epik_Ionization_Penalty>
0.112474

> <r_epik_Ionization_Penalty_Charging>
0.108916

> <r_epik_Ionization_Penalty_Neutral>
0.00355844

> <r_epik_State_Penalty>
0.0565397

> <r_epik_Charging_Adjusted_Penalty>
0.165456

> <i_epik_Tot_Q>
1

> <i_epik_Tot_abs_Q>
1

> <r_epik_Metal_State_Penalty>
0.422831

> <b_epik_Metal_Only>
0

> <s_lp_Force_Field>
OPLS_2005

> <r_lp_Energy>
33.7816

> <b_lp_Chiralities_Consistent>
1

> <s_lp_Variant>
AV-unprocessed.smi:1809-6

> <Gold.Version>
5.8.1

> <Gold.Id.Protein>
6NUR|6NUR_protein|mol2

> <Gold.PLP.Fitness>
43.8266

> <Gold.PLP.PLP>
-35.3022

> <Gold.PLP.part.hbond>
-5.5733

> <Gold.PLP.part.metal>
0.0000

> <Gold.PLP.part.buried>
-5.3295

> <Gold.PLP.part.nonpolar>
-26.4831

> <Gold.PLP.part.repulsive>
1.0895

> <Gold.PLP.ligand.clash>
0.0000

> <Gold.PLP.ligand.torsion>
0.5266

> <Gold.PLP.Chemscore.Hbond>
3.1920

> <Gold.PLP.Chemscore.CHOScore>
0.0000

> <Gold.PLP.Chemscore.Metal>
0.0000

> <Gold.Chemscore.Hbonds>
donor molecule, donor type, donor heavy atom, donor atom, acceptor molecule, acceptor atom, score
      L1  H     6    24       P1  7948  0.99
      L1  H     9    25       P1  7948  1.00
      L1  H    13    40       P1  7921  1.00
      P1  H  7989  7998       L1     3  0.20

> <Gold.PLP.Chemscore.Internal.Correction>
0.0017

> <Gold.Rescore>
     Score         DG    S(hbond)    S(metal)    S(lipo)     H(rot)  DE(clash)    DE(int)     intcor
     20.44     -21.05       2.84        0.00      81.44       1.34       0.04       0.57       ----

> <Gold.Chemscore.Fitness>
20.4418

> <Gold.Chemscore.DG>
-21.0496

> <Gold.Chemscore.ZeroCoef>
-5.4800

> <Gold.Chemscore.Hbond>
2.8351

> <Gold.Chemscore.Metal>
0.0000

> <Gold.Chemscore.Lipo>
81.4401

> <Gold.Chemscore.Internal_Hbond>
0.0000

> <Gold.Chemscore.DEClash>
0.0418

> <Gold.Chemscore.DEInternal>
0.5660

> <Gold.Chemscore.Rot>
1.3391

> <Gold.Chemscore.Internal.Correction>
   9.000000E+99

> <Gold.Chemscore.Hbonds>
donor molecule, donor type, donor heavy atom, donor atom, acceptor molecule, acceptor atom, score
      L1  H     6    24       P1  7948  0.89
      L1  H     9    25       P1  7948  1.00
      L1  H    13    40       P1  7921  0.82

> <Gold.Chemscore.Hbond.Weighted>
-9.4692

> <Gold.Chemscore.Metal.Weighted>
-0.0000

> <Gold.Chemscore.Lipo.Weighted>
-9.5285

> <Gold.Chemscore.Internal_Hbond.Weighted>
0.0000

> <Gold.Chemscore.DEClash.Weighted>
0.0418

> <Gold.Chemscore.DEInternal.Weighted>
0.5660

> <Gold.Chemscore.Rot.Weighted>
3.4281

> <Gold.Chemscore.Internal.Correction.Weighted>
   9.000000E+99

> <Gold.Protein.RotatedTorsions>
[ 6907 6896 6895 6894 ] final  -55.92 input  -60.11 | X-H torsion
[ 7974 7965 7964 7962 ] final   -3.67 input  175.53 | X-H torsion
[ 8008 7997 7996 7995 ] final -113.24 input   59.86 | X-H torsion
[ 10167 10162 10161 10158 ] final  -99.63 input  -65.29 | X-H torsion
[ 10718 10713 10712 10709 ] final  142.50 input   66.30 | X-H torsion
[ 10763 10752 10751 10750 ] final -118.99 input  -60.55 | X-H torsion
[ 11005 11000 10999 10996 ] final  -51.83 input  -57.11 | X-H torsion

> <Gold.Protein.ActiveResidues>
 VAL166  LYS551  ARG553  GLY616  TRP617  ASP618  TYR619  PRO620  LYS621  CYS622 
 ASP623  PHE694  ASN695  SER759  ASP760  ASP761  ALA762  ILE779  LEU786  VAL792 
 PHE793  MET794  SER795  GLU796  ALA797  LYS798  CYS799  TRP800  GLU811  SER814 

> <Gold.Protein.RotatedAtoms>
  150.8211  134.7419  159.6772 H   0  0  0  0  0  0  0  0  0  0  0  0  # atno 6907 bound_to 6896
  152.4326  134.5744  159.9940 H   0  0  0  0  0  0  0  0  0  0  0  0  # atno 6908 bound_to 6896
  151.5928  133.3327  159.3067 H   0  0  0  0  0  0  0  0  0  0  0  0  # atno 6909 bound_to 6896
  146.2385  140.1757  142.8332 H   0  0  0  0  0  0  0  0  0  0  0  0  # atno 7974 bound_to 7965
  155.0177  140.0393  157.2425 H   0  0  0  0  0  0  0  0  0  0  0  0  # atno 8008 bound_to 7997
  154.7405  140.2748  155.6354 H   0  0  0  0  0  0  0  0  0  0  0  0  # atno 8009 bound_to 7997
  156.2863  140.2666  156.2131 H   0  0  0  0  0  0  0  0  0  0  0  0  # atno 8010 bound_to 7997
  140.2604  143.3411  152.0630 H   0  0  0  0  0  0  0  0  0  0  0  0  # atno 10167 bound_to 10162
  157.3799  131.0990  151.0749 H   0  0  0  0  0  0  0  0  0  0  0  0  # atno 10718 bound_to 10713
  154.8604  135.4254  154.2227 H   0  0  0  0  0  0  0  0  0  0  0  0  # atno 10763 bound_to 10752
  153.3229  135.6983  153.7021 H   0  0  0  0  0  0  0  0  0  0  0  0  # atno 10764 bound_to 10752
  153.6068  135.3526  155.2938 H   0  0  0  0  0  0  0  0  0  0  0  0  # atno 10765 bound_to 10752
  141.0892  133.6636  156.3934 H   0  0  0  0  0  0  0  0  0  0  0  0  # atno 11005 bound_to 11000
  144.9975  140.8603  143.5301 LP  0  0  0  0  0  0  0  0  0  0  0  0  # atno 17320 bound_to 7965
  145.1771  139.2372  143.5311 LP  0  0  0  0  0  0  0  0  0  0  0  0  # atno 17321 bound_to 7965
  139.5018  144.6722  151.6215 LP  0  0  0  0  0  0  0  0  0  0  0  0  # atno 17342 bound_to 10162
  140.5970  143.9678  150.6361 LP  0  0  0  0  0  0  0  0  0  0  0  0  # atno 17343 bound_to 10162
  157.1822  130.6314  149.5675 LP  0  0  0  0  0  0  0  0  0  0  0  0  # atno 17370 bound_to 10713
  155.9773  130.4750  150.6587 LP  0  0  0  0  0  0  0  0  0  0  0  0  # atno 17371 bound_to 10713
  140.5292  134.6229  157.5344 LP  0  0  0  0  0  0  0  0  0  0  0  0  # atno 17394 bound_to 11000
  139.9715  134.7286  156.0033 LP  0  0  0  0  0  0  0  0  0  0  0  0  # atno 17395 bound_to 11000

$$$$
