AV-unprocessed.smi:3191|AV-procd|sdf|12196|dock10
  -GOLD-   2272018 33D 1   1.00000     0.00000
 Structure written by MMmdl.
 36 37  0  0  0  0  0  0  0  0  2 V2000
  149.5192  138.6645  154.2128 C   0  0  0  0  0  0  0  0  0  0  0  0
  148.3952  139.5131  153.8075 N   0  0  0  0  0  0  0  0  0  0  0  0
  147.3324  139.0211  153.1580 C   0  0  0  0  0  0  0  0  0  0  0  0
  146.5073  140.0462  152.9327 N   0  3  0  0  0  0  0  0  0  0  0  0
  147.0424  141.1988  153.4386 C   0  0  0  0  0  0  0  0  0  0  0  0
  148.2498  140.8685  154.0027 C   0  0  0  0  0  0  0  0  0  0  0  0
  149.2601  141.7156  154.7070 C   0  0  0  0  0  0  0  0  0  0  0  0
  149.2480  141.4636  156.2243 C   0  0  0  0  0  0  0  0  0  0  0  0
  150.1290  142.3899  156.9249 N   0  0  0  0  0  0  0  0  0  0  0  0
  151.1167  142.0253  157.7571 C   0  0  0  0  0  0  0  0  0  0  0  0
  151.3661  140.8470  158.0161 O   0  0  0  0  0  0  0  0  0  0  0  0
  151.8764  143.1800  158.3336 C   0  0  1  0  0  0  0  0  0  0  0  0
  151.6808  144.5448  157.7058 C   0  0  0  0  0  0  0  0  0  0  0  0
  151.1427  144.2823  159.0947 C   0  0  0  0  0  0  0  0  0  0  0  0
  149.6360  144.2683  159.3232 C   0  0  0  0  0  0  0  0  0  0  0  0
  151.8366  144.8994  160.2965 C   0  0  0  0  0  0  0  0  0  0  0  0
  152.8788  142.9455  158.6894 H   0  0  0  0  0  0  0  0  0  0  0  0
  149.3120  137.6217  153.9693 H   0  0  0  0  0  0  0  0  0  0  0  0
  149.6739  138.7586  155.2876 H   0  0  0  0  0  0  0  0  0  0  0  0
  150.4174  138.9864  153.6849 H   0  0  0  0  0  0  0  0  0  0  0  0
  147.1710  137.9974  152.8701 H   0  0  0  0  0  0  0  0  0  0  0  0
  146.5357  142.1501  153.3644 H   0  0  0  0  0  0  0  0  0  0  0  0
  150.2473  141.5168  154.2887 H   0  0  0  0  0  0  0  0  0  0  0  0
  149.0437  142.7646  154.5012 H   0  0  0  0  0  0  0  0  0  0  0  0
  148.2380  141.5889  156.6152 H   0  0  0  0  0  0  0  0  0  0  0  0
  149.5408  140.4369  156.4501 H   0  0  0  0  0  0  0  0  0  0  0  0
  149.9810  143.3759  156.7644 H   0  0  0  0  0  0  0  0  0  0  0  0
  152.5657  145.1706  157.6076 H   0  0  0  0  0  0  0  0  0  0  0  0
  150.9606  144.6494  156.8961 H   0  0  0  0  0  0  0  0  0  0  0  0
  149.2946  145.2444  159.6693 H   0  0  0  0  0  0  0  0  0  0  0  0
  149.3750  143.5245  160.0763 H   0  0  0  0  0  0  0  0  0  0  0  0
  149.0914  144.0413  158.4074 H   0  0  0  0  0  0  0  0  0  0  0  0
  151.4972  145.9244  160.4481 H   0  0  0  0  0  0  0  0  0  0  0  0
  152.9174  144.9185  160.1529 H   0  0  0  0  0  0  0  0  0  0  0  0
  151.6203  144.3230  161.1965 H   0  0  0  0  0  0  0  0  0  0  0  0
  145.6163  139.9771  152.4569 H   0  0  0  0  0  0  0  0  0  0  0  0
  1  2  1  0  0  0  0
  1 18  1  0  0  0  0
  1 19  1  0  0  0  0
  1 20  1  0  0  0  0
  2  6  1  0  0  0  0
  2  3  1  0  0  0  0
  3  4  2  0  0  0  0
  3 21  1  0  0  0  0
  4  5  1  0  0  0  0
  4 36  1  0  0  0  0
  5  6  2  0  0  0  0
  5 22  1  0  0  0  0
  6  7  1  0  0  0  0
  7  8  1  0  0  0  0
  7 23  1  0  0  0  0
  7 24  1  0  0  0  0
  8  9  1  0  0  0  0
  8 25  1  0  0  0  0
  8 26  1  0  0  0  0
  9 10  1  0  0  0  0
  9 27  1  0  0  0  0
 10 11  2  0  0  0  0
 10 12  1  0  0  0  0
 12 17  1  0  0  0  0
 12 14  1  0  0  0  0
 12 13  1  0  0  0  0
 13 14  1  0  0  0  0
 13 28  1  0  0  0  0
 13 29  1  0  0  0  0
 14 15  1  0  0  0  0
 14 16  1  0  0  0  0
 15 30  1  0  0  0  0
 15 31  1  0  0  0  0
 15 32  1  0  0  0  0
 16 33  1  0  0  0  0
 16 34  1  0  0  0  0
 16 35  1  0  0  0  0
M  CHG  1   4   1
M  END
> <s_m_source_file>
AV-unprocessed.smi

> <i_m_source_file_index>
3191

> <i_lp_mmshare_version>
43012

> <i_f3d_flags>
0

> <s_epik_input>
W0NIM11uMVtjSF1uW2NIXWMxW0NIMl1bQ0gyXVtOSF1DKD1PKVtDQEBIXShbQ0gyXTIpQzIoW0NIM10pW0NIM10=

> <s_epik_cmdline>
J2VwaWtfcHl0aG9uJywgJy1waCcsICc3LjAnLCAnLXRuJywgJzgnLCAnLW1hJywgJzIwMCcsICctbWV0YWxfYmluZGluZycsICctaW1hZScsICc8aW5maWxlLm1hZT4nLCAnLW9tYWUnLCAnPG91dGZpbGUubWFlPic=

> <r_lp_tautomer_probability>
1

> <r_epik_Ionization_Penalty>
0.153817

> <r_epik_Ionization_Penalty_Charging>
0

> <r_epik_Ionization_Penalty_Neutral>
0.153817

> <r_epik_State_Penalty>
0.14311

> <r_epik_Charging_Adjusted_Penalty>
0.14311

> <i_epik_Tot_Q>
1

> <i_epik_Tot_abs_Q>
1

> <r_epik_Metal_State_Penalty>
0.464688

> <b_epik_Metal_Only>
0

> <s_lp_Force_Field>
OPLS_2005

> <r_lp_Energy>
13.4151

> <b_lp_Chiralities_Consistent>
1

> <s_lp_Variant>
AV-unprocessed.smi:3191-1

> <Gold.Version>
5.8.1

> <Gold.Id.Protein>
6NUR|6NUR_protein|mol2

> <Gold.PLP.Fitness>
45.7902

> <Gold.PLP.PLP>
-35.5775

> <Gold.PLP.part.hbond>
-2.0000

> <Gold.PLP.part.metal>
0.0000

> <Gold.PLP.part.buried>
-0.6756

> <Gold.PLP.part.nonpolar>
-32.5730

> <Gold.PLP.part.repulsive>
0.0231

> <Gold.PLP.ligand.clash>
0.0000

> <Gold.PLP.ligand.torsion>
0.3571

> <Gold.PLP.Chemscore.Hbond>
2.7179

> <Gold.PLP.Chemscore.CHOScore>
0.8947

> <Gold.PLP.Chemscore.Metal>
0.0000

> <Gold.Chemscore.Hbonds>
donor molecule, donor type, donor heavy atom, donor atom, acceptor molecule, acceptor atom, score
      L1  H     4    36       P1 10175  1.89
      L1  H     9    27       P1  8028  0.84
      L1  C     3    21       P1  7948  0.57

> <Gold.PLP.Chemscore.Internal.Correction>
0.0888

> <Gold.Rescore>
     Score         DG    S(hbond)    S(metal)    S(lipo)     H(rot)  DE(clash)    DE(int)     intcor
     17.25     -17.50       1.89        0.00      87.33       1.76       0.01       0.25       ----

> <Gold.Chemscore.Fitness>
17.2467

> <Gold.Chemscore.DG>
-17.5045

> <Gold.Chemscore.ZeroCoef>
-5.4800

> <Gold.Chemscore.Hbond>
1.8868

> <Gold.Chemscore.Metal>
0.0000

> <Gold.Chemscore.Lipo>
87.3348

> <Gold.Chemscore.Internal_Hbond>
0.0000

> <Gold.Chemscore.DEClash>
0.0089

> <Gold.Chemscore.DEInternal>
0.2490

> <Gold.Chemscore.Rot>
1.7561

> <Gold.Chemscore.Internal.Correction>
   9.000000E+99

> <Gold.Chemscore.Hbonds>
donor molecule, donor type, donor heavy atom, donor atom, acceptor molecule, acceptor atom, score
      L1  H     4    36       P1 10175  0.82
      L1  H     9    27       P1  8028  0.78

> <Gold.Chemscore.Hbond.Weighted>
-6.3020

> <Gold.Chemscore.Metal.Weighted>
-0.0000

> <Gold.Chemscore.Lipo.Weighted>
-10.2182

> <Gold.Chemscore.Internal_Hbond.Weighted>
0.0000

> <Gold.Chemscore.DEClash.Weighted>
0.0089

> <Gold.Chemscore.DEInternal.Weighted>
0.2490

> <Gold.Chemscore.Rot.Weighted>
4.4956

> <Gold.Chemscore.Internal.Correction.Weighted>
   9.000000E+99

> <Gold.Protein.RotatedTorsions>
[ 6907 6896 6895 6894 ] final  102.21 input  -60.11 | X-H torsion
[ 7974 7965 7964 7962 ] final -109.00 input  175.53 | X-H torsion
[ 8008 7997 7996 7995 ] final -172.82 input   59.86 | X-H torsion
[ 10167 10162 10161 10158 ] final   61.66 input  -65.29 | X-H torsion
[ 10718 10713 10712 10709 ] final  108.10 input   66.30 | X-H torsion
[ 10763 10752 10751 10750 ] final -153.66 input  -60.55 | X-H torsion
[ 11005 11000 10999 10996 ] final  -37.70 input  -57.11 | X-H torsion

> <Gold.Protein.ActiveResidues>
 VAL166  LYS551  ARG553  GLY616  TRP617  ASP618  TYR619  PRO620  LYS621  CYS622 
 ASP623  PHE694  ASN695  SER759  ASP760  ASP761  ALA762  ILE779  LEU786  VAL792 
 PHE793  MET794  SER795  GLU796  ALA797  LYS798  CYS799  TRP800  GLU811  SER814 

> <Gold.Protein.RotatedAtoms>
  152.5330  134.0010  159.7894 H   0  0  0  0  0  0  0  0  0  0  0  0  # atno 6907 bound_to 6896
  151.0229  133.5852  159.2676 H   0  0  0  0  0  0  0  0  0  0  0  0  # atno 6908 bound_to 6896
  151.2885  135.0742  159.9249 H   0  0  0  0  0  0  0  0  0  0  0  0  # atno 6909 bound_to 6896
  145.1860  140.8993  143.3452 H   0  0  0  0  0  0  0  0  0  0  0  0  # atno 7974 bound_to 7965
  155.9495  140.1124  157.0988 H   0  0  0  0  0  0  0  0  0  0  0  0  # atno 8008 bound_to 7997
  154.4106  140.1203  156.5100 H   0  0  0  0  0  0  0  0  0  0  0  0  # atno 8009 bound_to 7997
  155.6860  140.3473  155.4876 H   0  0  0  0  0  0  0  0  0  0  0  0  # atno 8010 bound_to 7997
  140.1523  144.4450  150.6752 H   0  0  0  0  0  0  0  0  0  0  0  0  # atno 10167 bound_to 10162
  157.6600  131.0886  150.6255 H   0  0  0  0  0  0  0  0  0  0  0  0  # atno 10718 bound_to 10713
  154.7912  135.3208  154.7771 H   0  0  0  0  0  0  0  0  0  0  0  0  # atno 10763 bound_to 10752
  153.8460  135.6866  153.4802 H   0  0  0  0  0  0  0  0  0  0  0  0  # atno 10764 bound_to 10752
  153.1584  135.4671  154.9677 H   0  0  0  0  0  0  0  0  0  0  0  0  # atno 10765 bound_to 10752
  140.9972  133.6974  156.1956 H   0  0  0  0  0  0  0  0  0  0  0  0  # atno 11005 bound_to 11000
  145.0089  139.3528  143.6130 LP  0  0  0  0  0  0  0  0  0  0  0  0  # atno 17320 bound_to 7965
  146.3445  139.9343  142.8749 LP  0  0  0  0  0  0  0  0  0  0  0  0  # atno 17321 bound_to 7965
  140.6694  143.2280  151.5662 LP  0  0  0  0  0  0  0  0  0  0  0  0  # atno 17342 bound_to 10162
  139.5420  144.2623  152.1369 LP  0  0  0  0  0  0  0  0  0  0  0  0  # atno 17343 bound_to 10162
  156.6559  130.4498  149.5704 LP  0  0  0  0  0  0  0  0  0  0  0  0  # atno 17370 bound_to 10713
  156.2103  130.6675  151.1262 LP  0  0  0  0  0  0  0  0  0  0  0  0  # atno 17371 bound_to 10713
  140.6947  134.4628  157.5588 LP  0  0  0  0  0  0  0  0  0  0  0  0  # atno 17394 bound_to 11000
  139.9020  134.8533  156.1855 LP  0  0  0  0  0  0  0  0  0  0  0  0  # atno 17395 bound_to 11000

$$$$
