AV-unprocessed.smi:2439|AV-procd|sdf|9613|dock8
  -GOLD-   2272013243D 1   1.00000     0.00000
 Structure written by MMmdl.
 40 42  0  0  0  0  0  0  0  0  1 V2000
  146.2570  141.5158  158.8805 N   0  0  0  0  0  0  0  0  0  0  0  0
  146.6953  141.4609  157.8112 C   0  0  0  0  0  0  0  0  0  0  0  0
  147.2478  141.3916  156.4637 C   0  0  0  0  0  0  0  0  0  0  0  0
  146.7784  142.2940  155.4865 C   0  0  0  0  0  0  0  0  0  0  0  0
  147.3084  142.2330  154.1847 C   0  0  0  0  0  0  0  0  0  0  0  0
  148.2928  141.2661  153.9114 C   0  0  0  0  0  0  0  0  0  0  0  0
  148.7510  140.3969  154.8361 N   0  0  0  0  0  0  0  0  0  0  0  0
  148.2435  140.4481  156.0924 C   0  0  0  0  0  0  0  0  0  0  0  0
  148.7405  139.5284  157.0328 N   0  0  0  0  0  0  0  0  0  0  0  0
  149.6613  139.9469  158.0805 C   0  0  0  0  0  0  0  0  0  0  0  0
  150.8959  140.6577  157.4946 C   0  0  2  0  0  0  0  0  0  0  0  0
  152.0326  140.8291  158.5205 C   0  0  0  0  0  0  0  0  0  0  0  0
  151.7297  141.8299  159.5369 N   0  0  0  0  0  0  0  0  0  0  0  0
  152.8408  141.9789  160.4757 C   0  0  0  0  0  0  0  0  0  0  0  0
  152.5406  142.9996  161.5844 C   0  0  0  0  0  0  0  0  0  0  0  0
  152.1803  144.3598  160.9711 C   0  0  0  0  0  0  0  0  0  0  0  0
  151.0498  144.1920  159.9444 C   0  0  0  0  0  0  0  0  0  0  0  0
  151.4019  143.1097  158.9020 C   0  0  2  0  0  0  0  0  0  0  0  0
  150.2518  142.9454  157.8889 C   0  0  0  0  0  0  0  0  0  0  0  0
  150.5667  141.9318  156.9371 O   0  0  0  0  0  0  0  0  0  0  0  0
  146.0209  143.0267  155.7264 H   0  0  0  0  0  0  0  0  0  0  0  0
  146.9692  142.9108  153.4156 H   0  0  0  0  0  0  0  0  0  0  0  0
  148.7246  141.1880  152.9246 H   0  0  0  0  0  0  0  0  0  0  0  0
  148.5893  138.5396  156.8922 H   0  0  0  0  0  0  0  0  0  0  0  0
  149.1455  140.5869  158.7962 H   0  0  0  0  0  0  0  0  0  0  0  0
  149.9814  139.0600  158.6282 H   0  0  0  0  0  0  0  0  0  0  0  0
  151.2767  140.0424  156.6784 H   0  0  0  0  0  0  0  0  0  0  0  0
  152.2453  139.8699  158.9945 H   0  0  0  0  0  0  0  0  0  0  0  0
  152.9417  141.1167  157.9899 H   0  0  0  0  0  0  0  0  0  0  0  0
  153.0662  141.0143  160.9322 H   0  0  0  0  0  0  0  0  0  0  0  0
  153.7407  142.2834  159.9388 H   0  0  0  0  0  0  0  0  0  0  0  0
  151.7141  142.6404  162.1992 H   0  0  0  0  0  0  0  0  0  0  0  0
  153.4013  143.1010  162.2458 H   0  0  0  0  0  0  0  0  0  0  0  0
  151.8838  145.0613  161.7513 H   0  0  0  0  0  0  0  0  0  0  0  0
  153.0579  144.7852  160.4829 H   0  0  0  0  0  0  0  0  0  0  0  0
  150.1281  143.9201  160.4612 H   0  0  0  0  0  0  0  0  0  0  0  0
  150.8583  145.1446  159.4493 H   0  0  0  0  0  0  0  0  0  0  0  0
  152.2778  143.4537  158.3492 H   0  0  0  0  0  0  0  0  0  0  0  0
  149.3151  142.7088  158.3944 H   0  0  0  0  0  0  0  0  0  0  0  0
  150.0860  143.8798  157.3525 H   0  0  0  0  0  0  0  0  0  0  0  0
  1  2  3  0  0  0  0
  2  3  1  0  0  0  0
  3  8  1  0  0  0  0
  3  4  2  0  0  0  0
  4  5  1  0  0  0  0
  4 21  1  0  0  0  0
  5  6  2  0  0  0  0
  5 22  1  0  0  0  0
  6  7  1  0  0  0  0
  6 23  1  0  0  0  0
  7  8  2  0  0  0  0
  8  9  1  0  0  0  0
  9 10  1  0  0  0  0
  9 24  1  0  0  0  0
 10 11  1  0  0  0  0
 10 25  1  0  0  0  0
 10 26  1  0  0  0  0
 11 20  1  0  0  0  0
 11 12  1  0  0  0  0
 11 27  1  0  0  0  0
 12 13  1  0  0  0  0
 12 28  1  0  0  0  0
 12 29  1  0  0  0  0
 13 18  1  0  0  0  0
 13 14  1  0  0  0  0
 14 15  1  0  0  0  0
 14 30  1  0  0  0  0
 14 31  1  0  0  0  0
 15 16  1  0  0  0  0
 15 32  1  0  0  0  0
 15 33  1  0  0  0  0
 16 17  1  0  0  0  0
 16 34  1  0  0  0  0
 16 35  1  0  0  0  0
 17 18  1  0  0  0  0
 17 36  1  0  0  0  0
 17 37  1  0  0  0  0
 18 19  1  0  0  0  0
 18 38  1  0  0  0  0
 19 20  1  0  0  0  0
 19 39  1  0  0  0  0
 19 40  1  0  0  0  0
M  END
> <s_m_source_file>
AV-unprocessed.smi

> <i_m_source_file_index>
2439

> <i_lp_mmshare_version>
43012

> <i_f3d_flags>
0

> <s_epik_input>
TiNDYzFbY0hdW2NIXVtjSF1uYzFbTkhdW0NIMl1bQ0BIXShbQ0gyXTIpT1tDSDJdW0NAQEhdKE4yMylbQ0gyXVtDSDJdW0NIMl1bQ0gyXTM=

> <s_epik_cmdline>
J2VwaWtfcHl0aG9uJywgJy1waCcsICc3LjAnLCAnLXRuJywgJzgnLCAnLW1hJywgJzIwMCcsICctbWV0YWxfYmluZGluZycsICctaW1hZScsICc8aW5maWxlLm1hZT4nLCAnLW9tYWUnLCAnPG91dGZpbGUubWFlPic=

> <r_epik_Ionization_Penalty>
1.22355

> <r_epik_Ionization_Penalty_Charging>
0

> <r_epik_Ionization_Penalty_Neutral>
1.22355

> <r_epik_State_Penalty>
1.29103

> <r_epik_Charging_Adjusted_Penalty>
1.29103

> <i_epik_Tot_Q>
0

> <i_epik_Tot_abs_Q>
0

> <r_epik_Metal_State_Penalty>
1.29103

> <b_epik_Metal_Only>
0

> <s_lp_Force_Field>
OPLS_2005

> <r_lp_Energy>
40.6055

> <b_lp_Chiralities_Consistent>
1

> <s_lp_Variant>
AV-unprocessed.smi:2439-11

> <Gold.Version>
5.8.1

> <Gold.Id.Protein>
6NUR|6NUR_protein|mol2

> <Gold.PLP.Fitness>
38.3473

> <Gold.PLP.PLP>
-34.7029

> <Gold.PLP.part.hbond>
-1.0000

> <Gold.PLP.part.metal>
0.0000

> <Gold.PLP.part.buried>
-4.2817

> <Gold.PLP.part.nonpolar>
-29.1124

> <Gold.PLP.part.repulsive>
0.2214

> <Gold.PLP.ligand.clash>
0.0000

> <Gold.PLP.ligand.torsion>
0.7750

> <Gold.PLP.Chemscore.Hbond>
0.7296

> <Gold.PLP.Chemscore.CHOScore>
1.0000

> <Gold.PLP.Chemscore.Metal>
0.0000

> <Gold.Chemscore.Hbonds>
donor molecule, donor type, donor heavy atom, donor atom, acceptor molecule, acceptor atom, score
      P1  H  6934  6946       L1     1  0.73
      L1  C     6    23       P1  7957  1.00

> <Gold.PLP.Chemscore.Internal.Correction>
0.0057

> <Gold.Rescore>
     Score         DG    S(hbond)    S(metal)    S(lipo)     H(rot)  DE(clash)    DE(int)     intcor
     14.30     -16.34       0.88        0.00      95.07       1.25       0.02       2.02       ----

> <Gold.Chemscore.Fitness>
14.2997

> <Gold.Chemscore.DG>
-16.3379

> <Gold.Chemscore.ZeroCoef>
-5.4800

> <Gold.Chemscore.Hbond>
0.8776

> <Gold.Chemscore.Metal>
0.0000

> <Gold.Chemscore.Lipo>
95.0675

> <Gold.Chemscore.Internal_Hbond>
0.0000

> <Gold.Chemscore.DEClash>
0.0211

> <Gold.Chemscore.DEInternal>
2.0171

> <Gold.Chemscore.Rot>
1.2485

> <Gold.Chemscore.Internal.Correction>
   9.000000E+99

> <Gold.Chemscore.Hbonds>
donor molecule, donor type, donor heavy atom, donor atom, acceptor molecule, acceptor atom, score
      P1  H  6934  6946       L1     1  0.66

> <Gold.Chemscore.Hbond.Weighted>
-2.9312

> <Gold.Chemscore.Metal.Weighted>
-0.0000

> <Gold.Chemscore.Lipo.Weighted>
-11.1229

> <Gold.Chemscore.Internal_Hbond.Weighted>
0.0000

> <Gold.Chemscore.DEClash.Weighted>
0.0211

> <Gold.Chemscore.DEInternal.Weighted>
2.0171

> <Gold.Chemscore.Rot.Weighted>
3.1961

> <Gold.Chemscore.Internal.Correction.Weighted>
   9.000000E+99

> <Gold.Protein.RotatedTorsions>
[ 6907 6896 6895 6894 ] final  -16.78 input  -60.11 | X-H torsion
[ 7974 7965 7964 7962 ] final   70.13 input  175.53 | X-H torsion
[ 8008 7997 7996 7995 ] final -115.90 input   59.86 | X-H torsion
[ 10167 10162 10161 10158 ] final -124.76 input  -65.29 | X-H torsion
[ 10718 10713 10712 10709 ] final -148.53 input   66.30 | X-H torsion
[ 10763 10752 10751 10750 ] final   37.83 input  -60.55 | X-H torsion
[ 11005 11000 10999 10996 ] final  144.37 input  -57.11 | X-H torsion

> <Gold.Protein.ActiveResidues>
 VAL166  LYS551  ARG553  GLY616  TRP617  ASP618  TYR619  PRO620  LYS621  CYS622 
 ASP623  PHE694  ASN695  SER759  ASP760  ASP761  ALA762  ILE779  LEU786  VAL792 
 PHE793  MET794  SER795  GLU796  ALA797  LYS798  CYS799  TRP800  GLU811  SER814 

> <Gold.Protein.RotatedAtoms>
  151.3034  135.0775  159.9246 H   0  0  0  0  0  0  0  0  0  0  0  0  # atno 6907 bound_to 6896
  152.5293  133.9810  159.7817 H   0  0  0  0  0  0  0  0  0  0  0  0  # atno 6908 bound_to 6896
  151.0101  133.5922  159.2714 H   0  0  0  0  0  0  0  0  0  0  0  0  # atno 6909 bound_to 6896
  145.7819  139.2892  143.1261 H   0  0  0  0  0  0  0  0  0  0  0  0  # atno 7974 bound_to 7965
  155.0593  140.0393  157.2571 H   0  0  0  0  0  0  0  0  0  0  0  0  # atno 8008 bound_to 7997
  154.7073  140.2685  155.6638 H   0  0  0  0  0  0  0  0  0  0  0  0  # atno 8009 bound_to 7997
  156.2779  140.2728  156.1703 H   0  0  0  0  0  0  0  0  0  0  0  0  # atno 8010 bound_to 7997
  139.9894  143.5657  152.2348 H   0  0  0  0  0  0  0  0  0  0  0  0  # atno 10167 bound_to 10162
  156.4215  130.8031  151.2254 H   0  0  0  0  0  0  0  0  0  0  0  0  # atno 10718 bound_to 10713
  153.0023  135.6266  154.2208 H   0  0  0  0  0  0  0  0  0  0  0  0  # atno 10763 bound_to 10752
  154.1951  135.2807  155.3011 H   0  0  0  0  0  0  0  0  0  0  0  0  # atno 10764 bound_to 10752
  154.5728  135.5671  153.7171 H   0  0  0  0  0  0  0  0  0  0  0  0  # atno 10765 bound_to 10752
  140.0627  134.9196  157.1211 H   0  0  0  0  0  0  0  0  0  0  0  0  # atno 11005 bound_to 11000
  146.0065  140.8473  142.9992 LP  0  0  0  0  0  0  0  0  0  0  0  0  # atno 17320 bound_to 7965
  144.6795  140.2428  143.7341 LP  0  0  0  0  0  0  0  0  0  0  0  0  # atno 17321 bound_to 7965
  139.6351  144.7649  151.2454 LP  0  0  0  0  0  0  0  0  0  0  0  0  # atno 17342 bound_to 10162
  140.7460  143.6412  150.8333 LP  0  0  0  0  0  0  0  0  0  0  0  0  # atno 17343 bound_to 10162
  157.7508  131.0227  150.3801 LP  0  0  0  0  0  0  0  0  0  0  0  0  # atno 17370 bound_to 10713
  156.4120  130.3936  149.6885 LP  0  0  0  0  0  0  0  0  0  0  0  0  # atno 17371 bound_to 10713
  140.3746  134.2353  155.7175 LP  0  0  0  0  0  0  0  0  0  0  0  0  # atno 17394 bound_to 11000
  141.1980  133.8047  157.0604 LP  0  0  0  0  0  0  0  0  0  0  0  0  # atno 17395 bound_to 11000

$$$$
