AV-unprocessed.smi:78|AV-procd|sdf|775|dock1
  -GOLD-   2262017123D 1   1.00000     0.00000
 Structure written by MMmdl.
 56 59  0  0  0  0  0  0  0  0  1 V2000
  151.2262  130.0663  157.6212 C   0  0  0  0  0  0  0  0  0  0  0  0
  150.9193  130.0365  156.1165 C   0  0  0  0  0  0  0  0  0  0  0  0
  152.1702  129.6167  155.3264 C   0  0  0  0  0  0  0  0  0  0  0  0
  150.3515  131.3983  155.6524 C   0  0  0  0  0  0  0  0  0  0  0  0
  148.8864  131.7287  156.0554 C   0  0  2  0  0  0  0  0  0  0  0  0
  148.8194  131.9653  157.5795 C   0  0  0  0  0  0  0  0  0  0  0  0
  149.3302  132.9765  158.0573 O   0  0  0  0  0  0  0  0  0  0  0  0
  148.2012  131.0648  158.3636 N   0  0  0  0  0  0  0  0  0  0  0  0
  147.5268  129.8483  157.9152 C   0  0  0  0  0  0  0  0  0  0  0  0
  147.8536  129.4643  156.4631 C   0  0  0  0  0  0  0  0  0  0  0  0
  147.9642  130.6615  155.6371 N   0  0  0  0  0  0  0  0  0  0  0  0
  147.4583  130.6601  154.3775 C   0  0  0  0  0  0  0  0  0  0  0  0
  146.9511  129.4981  153.8920 N   0  0  0  0  0  0  0  0  0  0  0  0
  146.4237  129.4507  152.6660 C   0  0  0  0  0  0  0  0  0  0  0  0
  146.2944  130.4355  151.7757 N   0  0  0  0  0  0  0  0  0  0  0  0
  146.7938  131.6092  152.2579 C   0  0  0  0  0  0  0  0  0  0  0  0
  147.4010  131.8057  153.5309 C   0  0  0  0  0  0  0  0  0  0  0  0
  147.7889  133.1333  153.6642 N   0  0  0  0  0  0  0  0  0  0  0  0
  147.4463  133.6840  152.5325 C   0  0  0  0  0  0  0  0  0  0  0  0
  146.8053  132.8500  151.6428 N   0  0  0  0  0  0  0  0  0  0  0  0
  146.3248  133.1751  150.3261 C   0  0  0  0  0  0  0  0  0  0  0  0
  145.1014  134.0803  150.1163 C   0  0  0  0  0  0  0  0  0  0  0  0
  144.2265  132.8354  149.8480 C   0  0  0  0  0  0  0  0  0  0  0  0
  143.5008  132.2575  151.0790 C   0  0  0  0  0  0  0  0  0  0  0  0
  142.2995  132.9514  151.3486 O   0  0  0  0  0  0  0  0  0  0  0  0
  143.1869  132.9325  148.7145 C   0  0  0  0  0  0  0  0  0  0  0  0
  143.3968  134.0528  147.8785 O   0  0  0  0  0  0  0  0  0  0  0  0
  145.5560  132.1244  149.5117 C   0  0  0  0  0  0  0  0  0  0  0  0
  151.9898  130.8083  157.8568 H   0  0  0  0  0  0  0  0  0  0  0  0
  151.5852  129.0973  157.9688 H   0  0  0  0  0  0  0  0  0  0  0  0
  150.3347  130.3098  158.1998 H   0  0  0  0  0  0  0  0  0  0  0  0
  150.1611  129.2687  155.9795 H   0  0  0  0  0  0  0  0  0  0  0  0
  152.9617  130.3617  155.4136 H   0  0  0  0  0  0  0  0  0  0  0  0
  151.9550  129.4815  154.2674 H   0  0  0  0  0  0  0  0  0  0  0  0
  152.5646  128.6692  155.6943 H   0  0  0  0  0  0  0  0  0  0  0  0
  151.0026  132.1923  156.0207 H   0  0  0  0  0  0  0  0  0  0  0  0
  150.4415  131.4372  154.5654 H   0  0  0  0  0  0  0  0  0  0  0  0
  148.5952  132.6783  155.6075 H   0  0  0  0  0  0  0  0  0  0  0  0
  148.1815  131.2506  159.3559 H   0  0  0  0  0  0  0  0  0  0  0  0
  147.7649  129.0258  158.5901 H   0  0  0  0  0  0  0  0  0  0  0  0
  146.4549  130.0264  158.0066 H   0  0  0  0  0  0  0  0  0  0  0  0
  148.7985  128.9220  156.4211 H   0  0  0  0  0  0  0  0  0  0  0  0
  147.0803  128.7875  156.0981 H   0  0  0  0  0  0  0  0  0  0  0  0
  146.0469  128.4870  152.3564 H   0  0  0  0  0  0  0  0  0  0  0  0
  147.6453  134.7258  152.3313 H   0  0  0  0  0  0  0  0  0  0  0  0
  147.1912  133.5470  149.7777 H   0  0  0  0  0  0  0  0  0  0  0  0
  144.7916  134.6730  150.9758 H   0  0  0  0  0  0  0  0  0  0  0  0
  145.2197  134.7223  149.2420 H   0  0  0  0  0  0  0  0  0  0  0  0
  143.2704  131.2011  150.9380 H   0  0  0  0  0  0  0  0  0  0  0  0
  144.1232  132.3129  151.9719 H   0  0  0  0  0  0  0  0  0  0  0  0
  142.1305  133.5478  150.6352 H   0  0  0  0  0  0  0  0  0  0  0  0
  143.2112  132.0401  148.0882 H   0  0  0  0  0  0  0  0  0  0  0  0
  142.1757  133.0079  149.1153 H   0  0  0  0  0  0  0  0  0  0  0  0
  144.3109  134.0824  147.6406 H   0  0  0  0  0  0  0  0  0  0  0  0
  145.8202  132.1565  148.4537 H   0  0  0  0  0  0  0  0  0  0  0  0
  145.6239  131.1043  149.8906 H   0  0  0  0  0  0  0  0  0  0  0  0
  1  2  1  0  0  0  0
  1 29  1  0  0  0  0
  1 30  1  0  0  0  0
  1 31  1  0  0  0  0
  2  3  1  0  0  0  0
  2  4  1  0  0  0  0
  2 32  1  0  0  0  0
  3 33  1  0  0  0  0
  3 34  1  0  0  0  0
  3 35  1  0  0  0  0
  4  5  1  0  0  0  0
  4 36  1  0  0  0  0
  4 37  1  0  0  0  0
  5 11  1  0  0  0  0
  5  6  1  0  0  0  0
  5 38  1  0  0  0  0
  6  7  2  0  0  0  0
  6  8  1  0  0  0  0
  8  9  1  0  0  0  0
  8 39  1  0  0  0  0
  9 10  1  0  0  0  0
  9 40  1  0  0  0  0
  9 41  1  0  0  0  0
 10 11  1  0  0  0  0
 10 42  1  0  0  0  0
 10 43  1  0  0  0  0
 11 12  1  0  0  0  0
 12 17  1  0  0  0  0
 12 13  2  0  0  0  0
 13 14  1  0  0  0  0
 14 15  2  0  0  0  0
 14 44  1  0  0  0  0
 15 16  1  0  0  0  0
 16 20  1  0  0  0  0
 16 17  2  0  0  0  0
 17 18  1  0  0  0  0
 18 19  2  0  0  0  0
 19 20  1  0  0  0  0
 19 45  1  0  0  0  0
 20 21  1  0  0  0  0
 21 28  1  0  0  0  0
 21 22  1  0  0  0  0
 21 46  1  0  0  0  0
 22 23  1  0  0  0  0
 22 47  1  0  0  0  0
 22 48  1  0  0  0  0
 23 24  1  0  0  0  0
 23 26  1  0  0  0  0
 23 28  1  0  0  0  0
 24 25  1  0  0  0  0
 24 49  1  0  0  0  0
 24 50  1  0  0  0  0
 25 51  1  0  0  0  0
 26 27  1  0  0  0  0
 26 52  1  0  0  0  0
 26 53  1  0  0  0  0
 27 54  1  0  0  0  0
 28 55  1  0  0  0  0
 28 56  1  0  0  0  0
M  END
> <s_m_source_file>
AV-unprocessed.smi

> <i_m_source_file_index>
78

> <i_lp_mmshare_version>
43012

> <i_f3d_flags>
0

> <s_epik_input>
W0NIM11bQ0hdKFtDSDNdKVtDSDJdW0NAQEhdMUMoPU8pW05IXVtDSDJdW0NIMl1OMWMobltjSF1uMiljKGMyMyluW2NIXW4zW0NIXShbQ0gyXTQpW0NIMl1DNChbQ0gyXVtPSF0pW0NIMl1bT0hd

> <s_epik_cmdline>
J2VwaWtfcHl0aG9uJywgJy1waCcsICc3LjAnLCAnLXRuJywgJzgnLCAnLW1hJywgJzIwMCcsICctbWV0YWxfYmluZGluZycsICctaW1hZScsICc8aW5maWxlLm1hZT4nLCAnLW9tYWUnLCAnPG91dGZpbGUubWFlPic=

> <r_lp_tautomer_probability>
1

> <r_epik_Ionization_Penalty>
0.000550083

> <r_epik_Ionization_Penalty_Charging>
0

> <r_epik_Ionization_Penalty_Neutral>
0.000550083

> <r_epik_State_Penalty>
0.000250415

> <r_epik_Charging_Adjusted_Penalty>
0.000250415

> <i_epik_Tot_Q>
0

> <i_epik_Tot_abs_Q>
0

> <r_epik_Metal_State_Penalty>
-0

> <b_epik_Metal_Only>
0

> <s_lp_Force_Field>
OPLS_2005

> <r_lp_Energy>
48.6174

> <b_lp_Chiralities_Consistent>
1

> <s_lp_Variant>
AV-unprocessed.smi:78-1

> <Gold.Version>
5.8.1

> <Gold.Id.Protein>
6NUR|6NUR_protein|mol2

> <Gold.PLP.Fitness>
48.8523

> <Gold.PLP.PLP>
-35.4613

> <Gold.PLP.part.hbond>
-5.9662

> <Gold.PLP.part.metal>
0.0000

> <Gold.PLP.part.buried>
2.4405

> <Gold.PLP.part.nonpolar>
-33.9793

> <Gold.PLP.part.repulsive>
0.3659

> <Gold.PLP.ligand.clash>
0.0000

> <Gold.PLP.ligand.torsion>
1.2140

> <Gold.PLP.Chemscore.Hbond>
3.9760

> <Gold.PLP.Chemscore.CHOScore>
0.9882

> <Gold.PLP.Chemscore.Metal>
0.0000

> <Gold.Chemscore.Hbonds>
donor molecule, donor type, donor heavy atom, donor atom, acceptor molecule, acceptor atom, score
      L1  H    25    51       P1 10186  1.00
      L1  H    27    54       P1  7921  1.00
      P1  H  6896  6908       L1     7  0.94
      P1  H 10192 10197       L1    27  1.00
      L1  C    19    45       P1  7948  0.94

> <Gold.PLP.Chemscore.Internal.Correction>
0.9262

> <Gold.Rescore>
     Score         DG    S(hbond)    S(metal)    S(lipo)     H(rot)  DE(clash)    DE(int)     intcor
     13.07     -19.24       3.63        0.00      87.99       3.39       2.37       3.80       ----

> <Gold.Chemscore.Fitness>
13.0667

> <Gold.Chemscore.DG>
-19.2368

> <Gold.Chemscore.ZeroCoef>
-5.4800

> <Gold.Chemscore.Hbond>
3.6317

> <Gold.Chemscore.Metal>
0.0000

> <Gold.Chemscore.Lipo>
87.9909

> <Gold.Chemscore.Internal_Hbond>
0.0000

> <Gold.Chemscore.DEClash>
2.3740

> <Gold.Chemscore.DEInternal>
3.7961

> <Gold.Chemscore.Rot>
3.3859

> <Gold.Chemscore.Internal.Correction>
   9.000000E+99

> <Gold.Chemscore.Hbonds>
donor molecule, donor type, donor heavy atom, donor atom, acceptor molecule, acceptor atom, score
      L1  H    25    51       P1 10186  0.88
      L1  H    27    54       P1  7921  0.98
      P1  H  6896  6908       L1     7  0.90
      P1  H 10192 10197       L1    27  0.99

> <Gold.Chemscore.Hbond.Weighted>
-12.1298

> <Gold.Chemscore.Metal.Weighted>
-0.0000

> <Gold.Chemscore.Lipo.Weighted>
-10.2949

> <Gold.Chemscore.Internal_Hbond.Weighted>
0.0000

> <Gold.Chemscore.DEClash.Weighted>
2.3740

> <Gold.Chemscore.DEInternal.Weighted>
3.7961

> <Gold.Chemscore.Rot.Weighted>
8.6679

> <Gold.Chemscore.Internal.Correction.Weighted>
   9.000000E+99

> <Gold.Protein.RotatedTorsions>
[ 6907 6896 6895 6894 ] final  116.61 input  -60.11 | X-H torsion
[ 7974 7965 7964 7962 ] final  113.96 input  175.53 | X-H torsion
[ 8008 7997 7996 7995 ] final -136.70 input   59.86 | X-H torsion
[ 10167 10162 10161 10158 ] final   31.29 input  -65.29 | X-H torsion
[ 10718 10713 10712 10709 ] final -114.11 input   66.30 | X-H torsion
[ 10763 10752 10751 10750 ] final  -32.84 input  -60.55 | X-H torsion
[ 11005 11000 10999 10996 ] final   48.64 input  -57.11 | X-H torsion

> <Gold.Protein.ActiveResidues>
 VAL166  LYS551  ARG553  GLY616  TRP617  ASP618  TYR619  PRO620  LYS621  CYS622 
 ASP623  PHE694  ASN695  SER759  ASP760  ASP761  ALA762  ILE779  LEU786  VAL792 
 PHE793  MET794  SER795  GLU796  ALA797  LYS798  CYS799  TRP800  GLU811  SER814 

> <Gold.Protein.RotatedAtoms>
  152.4667  133.7938  159.6915 H   0  0  0  0  0  0  0  0  0  0  0  0  # atno 6907 bound_to 6896
  150.8634  133.7600  159.2991 H   0  0  0  0  0  0  0  0  0  0  0  0  # atno 6908 bound_to 6896
  151.5158  135.1069  159.9917 H   0  0  0  0  0  0  0  0  0  0  0  0  # atno 6909 bound_to 6896
  145.2105  139.2909  143.4271 H   0  0  0  0  0  0  0  0  0  0  0  0  # atno 7974 bound_to 7965
  155.3996  140.0505  157.3037 H   0  0  0  0  0  0  0  0  0  0  0  0  # atno 8008 bound_to 7997
  154.4997  140.2152  155.9333 H   0  0  0  0  0  0  0  0  0  0  0  0  # atno 8009 bound_to 7997
  156.1451  140.3147  155.8563 H   0  0  0  0  0  0  0  0  0  0  0  0  # atno 8010 bound_to 7997
  140.4602  144.0918  150.6211 H   0  0  0  0  0  0  0  0  0  0  0  0  # atno 10167 bound_to 10162
  156.0809  130.6009  150.8731 H   0  0  0  0  0  0  0  0  0  0  0  0  # atno 10718 bound_to 10713
  153.8204  135.6875  153.4828 H   0  0  0  0  0  0  0  0  0  0  0  0  # atno 10763 bound_to 10752
  153.1573  135.4594  154.9720 H   0  0  0  0  0  0  0  0  0  0  0  0  # atno 10764 bound_to 10752
  154.7930  135.3308  154.7677 H   0  0  0  0  0  0  0  0  0  0  0  0  # atno 10765 bound_to 10752
  140.1172  134.4876  155.8627 H   0  0  0  0  0  0  0  0  0  0  0  0  # atno 11005 bound_to 11000
  146.3398  140.2378  142.8595 LP  0  0  0  0  0  0  0  0  0  0  0  0  # atno 17320 bound_to 7965
  144.9861  140.8504  143.5368 LP  0  0  0  0  0  0  0  0  0  0  0  0  # atno 17321 bound_to 7965
  140.4102  143.2660  151.9842 LP  0  0  0  0  0  0  0  0  0  0  0  0  # atno 17342 bound_to 10162
  139.4805  144.5922  151.7753 LP  0  0  0  0  0  0  0  0  0  0  0  0  # atno 17343 bound_to 10162
  157.5925  131.0944  150.9096 LP  0  0  0  0  0  0  0  0  0  0  0  0  # atno 17370 bound_to 10713
  156.9269  130.5335  149.5279 LP  0  0  0  0  0  0  0  0  0  0  0  0  # atno 17371 bound_to 10713
  141.2144  133.6748  156.6820 LP  0  0  0  0  0  0  0  0  0  0  0  0  # atno 17394 bound_to 11000
  140.3012  134.8162  157.4099 LP  0  0  0  0  0  0  0  0  0  0  0  0  # atno 17395 bound_to 11000

$$$$
