AV-unprocessed.smi:54|AV-procd|sdf|547|dock9
  -GOLD-   2262016443D 1   1.00000     0.00000
 Structure written by MMmdl.
 43 45  0  0  0  0  0  0  0  0  2 V2000
  152.3896  144.4956  159.0261 C   0  0  0  0  0  0  0  0  0  0  0  0
  151.8208  143.2695  159.7592 C   0  0  0  0  0  0  0  0  0  0  0  0
  152.8748  142.6303  160.6785 C   0  0  0  0  0  0  0  0  0  0  0  0
  151.2776  142.2388  158.7591 C   0  0  0  0  0  0  0  0  0  0  0  0
  150.0594  142.1534  158.5892 O   0  0  0  0  0  0  0  0  0  0  0  0
  152.2162  141.5020  158.1241 N   0  0  0  0  0  0  0  0  0  0  0  0
  152.0558  140.5068  157.1524 C   0  0  0  0  0  0  0  0  0  0  0  0
  150.9920  140.6860  156.4073 N   0  0  0  0  0  0  0  0  0  0  0  0
  150.8488  139.7076  155.4421 C   0  0  0  0  0  0  0  0  0  0  0  0
  151.6662  138.6372  155.2054 C   0  0  0  0  0  0  0  0  0  0  0  0
  151.1942  137.8613  154.1538 N   0  0  0  0  0  0  0  0  0  0  0  0
  150.0901  138.5164  153.7972 C   0  0  0  0  0  0  0  0  0  0  0  0
  149.8237  139.6342  154.5057 N   0  0  0  0  0  0  0  0  0  0  0  0
  148.6690  140.5806  154.3643 C   0  0  2  0  0  0  0  0  0  0  0  0
  148.3254  141.0541  155.6330 O   0  0  0  0  0  0  0  0  0  0  0  0
  147.2660  140.2634  156.1616 C   0  0  1  0  0  0  0  0  0  0  0  0
  146.5799  140.9647  157.3473 C   0  0  0  0  0  0  0  0  0  0  0  0
  147.4924  141.1160  158.4138 O   0  0  0  0  0  0  0  0  0  0  0  0
  146.3935  140.0439  154.9196 C   0  0  1  0  0  0  0  0  0  0  0  0
  145.5712  141.1764  154.6831 O   0  0  0  0  0  0  0  0  0  0  0  0
  147.4379  139.8278  153.8230 C   0  0  1  0  0  0  0  0  0  0  0  0
  147.0127  140.2903  152.5549 O   0  0  0  0  0  0  0  0  0  0  0  0
  152.8569  138.4996  156.0768 C   0  0  0  0  0  0  0  0  0  0  0  0
  153.6236  137.5547  155.8992 O   0  0  0  0  0  0  0  0  0  0  0  0
  153.0017  139.4690  157.0294 N   0  5  0  0  0  0  0  0  0  0  0  0
  149.0410  141.3813  153.7236 H   0  0  0  0  0  0  0  0  0  0  0  0
  147.6598  139.2956  156.4785 H   0  0  0  0  0  0  0  0  0  0  0  0
  145.7458  139.1739  155.0325 H   0  0  0  0  0  0  0  0  0  0  0  0
  147.6653  138.7629  153.7494 H   0  0  0  0  0  0  0  0  0  0  0  0
  151.6427  144.9475  158.3720 H   0  0  0  0  0  0  0  0  0  0  0  0
  153.2541  144.2336  158.4145 H   0  0  0  0  0  0  0  0  0  0  0  0
  152.7075  145.2600  159.7356 H   0  0  0  0  0  0  0  0  0  0  0  0
  150.9949  143.6107  160.3856 H   0  0  0  0  0  0  0  0  0  0  0  0
  152.4759  141.7520  161.1877 H   0  0  0  0  0  0  0  0  0  0  0  0
  153.1999  143.3331  161.4460 H   0  0  0  0  0  0  0  0  0  0  0  0
  153.7589  142.3189  160.1205 H   0  0  0  0  0  0  0  0  0  0  0  0
  153.1680  141.7497  158.3497 H   0  0  0  0  0  0  0  0  0  0  0  0
  149.4599  138.1688  152.9920 H   0  0  0  0  0  0  0  0  0  0  0  0
  146.1741  141.9346  157.0571 H   0  0  0  0  0  0  0  0  0  0  0  0
  145.7503  140.3589  157.7130 H   0  0  0  0  0  0  0  0  0  0  0  0
  147.7135  140.2588  158.7440 H   0  0  0  0  0  0  0  0  0  0  0  0
  144.8737  140.9256  154.0975 H   0  0  0  0  0  0  0  0  0  0  0  0
  147.6731  140.0610  151.9189 H   0  0  0  0  0  0  0  0  0  0  0  0
  1  2  1  0  0  0  0
  1 30  1  0  0  0  0
  1 31  1  0  0  0  0
  1 32  1  0  0  0  0
  2  3  1  0  0  0  0
  2  4  1  0  0  0  0
  2 33  1  0  0  0  0
  3 34  1  0  0  0  0
  3 35  1  0  0  0  0
  3 36  1  0  0  0  0
  4  5  2  0  0  0  0
  4  6  1  0  0  0  0
  6 37  1  0  0  0  0
  6  7  1  0  0  0  0
  7 25  1  0  0  0  0
  7  8  2  0  0  0  0
  8  9  1  0  0  0  0
  9 13  1  0  0  0  0
  9 10  2  0  0  0  0
 10 11  1  0  0  0  0
 10 23  1  0  0  0  0
 11 12  2  0  0  0  0
 12 13  1  0  0  0  0
 12 38  1  0  0  0  0
 13 14  1  0  0  0  0
 14 26  1  0  0  0  0
 14 21  1  0  0  0  0
 14 15  1  0  0  0  0
 15 16  1  0  0  0  0
 16 27  1  0  0  0  0
 16 17  1  0  0  0  0
 16 19  1  0  0  0  0
 17 18  1  0  0  0  0
 17 39  1  0  0  0  0
 17 40  1  0  0  0  0
 18 41  1  0  0  0  0
 19 28  1  0  0  0  0
 19 20  1  0  0  0  0
 19 21  1  0  0  0  0
 20 42  1  0  0  0  0
 21 29  1  0  0  0  0
 21 22  1  0  0  0  0
 22 43  1  0  0  0  0
 23 24  2  0  0  0  0
 23 25  1  0  0  0  0
M  CHG  1  25  -1
M  END
> <s_m_source_file>
AV-unprocessed.smi

> <i_m_source_file_index>
54

> <i_lp_mmshare_version>
43012

> <i_f3d_flags>
0

> <s_epik_input>
W0NIM11bQ0hdKFtDSDNdKUMoPU8pW05IXWMobjEpW25IXWMoPU8pYyhjMTIpbltjSF1uMltDQEBIXTNPW0NASF0oW0NIMl1bT0hdKVtDQEBIXShbT0hdKVtDQEhdM1tPSF0=

> <s_epik_cmdline>
J2VwaWtfcHl0aG9uJywgJy1waCcsICc3LjAnLCAnLXRuJywgJzgnLCAnLW1hJywgJzIwMCcsICctbWV0YWxfYmluZGluZycsICctaW1hZScsICc8aW5maWxlLm1hZT4nLCAnLW9tYWUnLCAnPG91dGZpbGUubWFlPic=

> <r_lp_tautomer_probability>
0.85571

> <r_epik_Ionization_Penalty>
1.75936

> <r_epik_Ionization_Penalty_Charging>
4.55893e-11

> <r_epik_Ionization_Penalty_Neutral>
1.75936

> <r_epik_State_Penalty>
1.72072

> <r_epik_Charging_Adjusted_Penalty>
1.72072

> <i_epik_Tot_Q>
-1

> <i_epik_Tot_abs_Q>
1

> <r_epik_Metal_State_Penalty>
0.400338

> <b_epik_Metal_Only>
1

> <s_epik_Chemistry_Notes>
This compound contains an acetal/aminal-like group ( X-CH(R)-Y where X, Y are N, S, or O) that may be acid/base labile, releasing an aldehyde.

> <s_lp_Force_Field>
OPLS_2005

> <r_lp_Energy>
64.1359

> <b_lp_Chiralities_Consistent>
1

> <s_lp_Variant>
AV-unprocessed.smi:54-19

> <Gold.Version>
5.8.1

> <Gold.Id.Protein>
6NUR|6NUR_protein|mol2

> <Gold.PLP.Fitness>
54.2707

> <Gold.PLP.PLP>
-39.0730

> <Gold.PLP.part.hbond>
-5.0000

> <Gold.PLP.part.metal>
0.0000

> <Gold.PLP.part.buried>
-3.6121

> <Gold.PLP.part.nonpolar>
-31.4260

> <Gold.PLP.part.repulsive>
0.4848

> <Gold.PLP.ligand.clash>
0.0000

> <Gold.PLP.ligand.torsion>
1.2820

> <Gold.PLP.Chemscore.Hbond>
4.3861

> <Gold.PLP.Chemscore.CHOScore>
1.5179

> <Gold.PLP.Chemscore.Metal>
0.0000

> <Gold.Chemscore.Hbonds>
donor molecule, donor type, donor heavy atom, donor atom, acceptor molecule, acceptor atom, score
      L1  H    20    42       P1 10175  0.96
      L1  H    22    43       P1  7957  0.96
      P1  H  7997  8010       L1    25  1.90
      P1  H 10752 10765       L1    24  0.18
      L1  C    12    38       P1  7948  1.00
      L1  C    12    38       P1  7957  0.42

> <Gold.PLP.Chemscore.Internal.Correction>
0.0497

> <Gold.Rescore>
     Score         DG    S(hbond)    S(metal)    S(lipo)     H(rot)  DE(clash)    DE(int)     intcor
      4.95      -9.32       2.31        0.00      54.69       4.02       0.01       4.36       ----

> <Gold.Chemscore.Fitness>
4.9490

> <Gold.Chemscore.DG>
-9.3194

> <Gold.Chemscore.ZeroCoef>
-5.4800

> <Gold.Chemscore.Hbond>
2.3143

> <Gold.Chemscore.Metal>
0.0000

> <Gold.Chemscore.Lipo>
54.6916

> <Gold.Chemscore.Internal_Hbond>
0.0000

> <Gold.Chemscore.DEClash>
0.0073

> <Gold.Chemscore.DEInternal>
4.3631

> <Gold.Chemscore.Rot>
4.0192

> <Gold.Chemscore.Internal.Correction>
   9.000000E+99

> <Gold.Chemscore.Hbonds>
donor molecule, donor type, donor heavy atom, donor atom, acceptor molecule, acceptor atom, score
      L1  H    20    42       P1 10175  0.85
      L1  H    22    43       P1  7957  0.88
      P1  H  7997  8010       L1    25  0.14
      P1  H 10752 10765       L1    24  0.17

> <Gold.Chemscore.Hbond.Weighted>
-7.7298

> <Gold.Chemscore.Metal.Weighted>
-0.0000

> <Gold.Chemscore.Lipo.Weighted>
-6.3989

> <Gold.Chemscore.Internal_Hbond.Weighted>
0.0000

> <Gold.Chemscore.DEClash.Weighted>
0.0073

> <Gold.Chemscore.DEInternal.Weighted>
4.3631

> <Gold.Chemscore.Rot.Weighted>
10.2893

> <Gold.Chemscore.Internal.Correction.Weighted>
   9.000000E+99

> <Gold.Protein.RotatedTorsions>
[ 6907 6896 6895 6894 ] final  130.22 input  -60.11 | X-H torsion
[ 7974 7965 7964 7962 ] final  -81.82 input  175.53 | X-H torsion
[ 8008 7997 7996 7995 ] final   67.45 input   59.86 | X-H torsion
[ 10167 10162 10161 10158 ] final -157.38 input  -65.29 | X-H torsion
[ 10718 10713 10712 10709 ] final   43.80 input   66.30 | X-H torsion
[ 10763 10752 10751 10750 ] final -128.06 input  -60.55 | X-H torsion
[ 11005 11000 10999 10996 ] final  169.03 input  -57.11 | X-H torsion

> <Gold.Protein.ActiveResidues>
 VAL166  LYS551  ARG553  GLY616  TRP617  ASP618  TYR619  PRO620  LYS621  CYS622 
 ASP623  PHE694  ASN695  SER759  ASP760  ASP761  ALA762  ILE779  LEU786  VAL792 
 PHE793  MET794  SER795  GLU796  ALA797  LYS798  CYS799  TRP800  GLU811  SER814 

> <Gold.Protein.RotatedAtoms>
  152.3547  133.6223  159.5970 H   0  0  0  0  0  0  0  0  0  0  0  0  # atno 6907 bound_to 6896
  150.7561  133.9518  159.3497 H   0  0  0  0  0  0  0  0  0  0  0  0  # atno 6908 bound_to 6896
  151.7365  135.0864  160.0360 H   0  0  0  0  0  0  0  0  0  0  0  0  # atno 6909 bound_to 6896
  145.5415  140.9509  143.1548 H   0  0  0  0  0  0  0  0  0  0  0  0  # atno 7974 bound_to 7965
  155.6931  140.3496  155.4902 H   0  0  0  0  0  0  0  0  0  0  0  0  # atno 8008 bound_to 7997
  155.9506  140.1118  157.1002 H   0  0  0  0  0  0  0  0  0  0  0  0  # atno 8009 bound_to 7997
  154.4121  140.1195  156.5034 H   0  0  0  0  0  0  0  0  0  0  0  0  # atno 8010 bound_to 7997
  139.6775  143.9638  152.2318 H   0  0  0  0  0  0  0  0  0  0  0  0  # atno 10167 bound_to 10162
  157.4198  130.7963  149.7505 H   0  0  0  0  0  0  0  0  0  0  0  0  # atno 10718 bound_to 10713
  154.8755  135.3941  154.3695 H   0  0  0  0  0  0  0  0  0  0  0  0  # atno 10763 bound_to 10752
  153.4456  135.7027  153.6146 H   0  0  0  0  0  0  0  0  0  0  0  0  # atno 10764 bound_to 10752
  153.4708  135.3791  155.2359 H   0  0  0  0  0  0  0  0  0  0  0  0  # atno 10765 bound_to 10752
  140.2935  134.7654  157.3858 H   0  0  0  0  0  0  0  0  0  0  0  0  # atno 11005 bound_to 11000
  144.7574  139.7040  143.7248 LP  0  0  0  0  0  0  0  0  0  0  0  0  # atno 17320 bound_to 7965
  146.1978  139.5254  142.9763 LP  0  0  0  0  0  0  0  0  0  0  0  0  # atno 17321 bound_to 7965
  139.9419  144.6676  150.8258 LP  0  0  0  0  0  0  0  0  0  0  0  0  # atno 17342 bound_to 10162
  140.7640  143.3239  151.2560 LP  0  0  0  0  0  0  0  0  0  0  0  0  # atno 17343 bound_to 10162
  155.9877  130.3965  150.3153 LP  0  0  0  0  0  0  0  0  0  0  0  0  # atno 17370 bound_to 10713
  157.1300  131.0269  151.2973 LP  0  0  0  0  0  0  0  0  0  0  0  0  # atno 17371 bound_to 10713
  140.1174  134.5265  155.8213 LP  0  0  0  0  0  0  0  0  0  0  0  0  # atno 17394 bound_to 11000
  141.2142  133.6744  156.6802 LP  0  0  0  0  0  0  0  0  0  0  0  0  # atno 17395 bound_to 11000

$$$$
