AV-unprocessed.smi:3069|AV-procd|sdf|11710|dock3
  -GOLD-   2272017113D 1   1.00000     0.00000
 Structure written by MMmdl.
 39 40  0  0  0  0  0  0  0  0  1 V2000
  149.8685  136.9827  155.1950 N   0  0  0  0  0  0  0  0  0  0  0  0
  149.3487  137.9499  154.8299 C   0  0  0  0  0  0  0  0  0  0  0  0
  148.6916  139.1669  154.3701 C   0  0  0  0  0  0  0  0  0  0  0  0
  147.4255  139.0389  153.9107 N   0  0  0  0  0  0  0  0  0  0  0  0
  146.7985  140.1641  153.5062 C   0  0  0  0  0  0  0  0  0  0  0  0
  147.4303  141.4218  153.5604 C   0  0  0  0  0  0  0  0  0  0  0  0
  148.6929  141.5599  154.0177 N   0  0  0  0  0  0  0  0  0  0  0  0
  149.3335  140.4360  154.4245 C   0  0  0  0  0  0  0  0  0  0  0  0
  150.6463  140.5706  154.9083 N   0  0  0  0  0  0  0  0  0  0  0  0
  150.9137  141.6002  155.9069 C   0  0  0  0  0  0  0  0  0  0  0  0
  150.2807  141.2624  157.2654 C   0  0  0  0  0  0  0  0  0  0  0  0
  151.3157  141.2209  158.2377 O   0  0  0  0  0  0  0  0  0  0  0  0
  152.1636  142.3621  158.2721 C   0  0  0  0  0  0  0  0  0  0  0  0
  153.1247  142.1560  159.4584 C   0  0  0  0  0  0  0  0  0  0  0  0
  152.5170  142.4195  160.8465 C   0  0  0  0  0  0  0  0  0  0  0  0
  152.6489  143.8863  161.2880 C   0  0  0  0  0  0  0  0  0  0  0  0
  151.7469  144.8698  160.5282 C   0  0  0  0  0  0  0  0  0  0  0  0
  151.9378  144.8702  159.0011 C   0  0  0  0  0  0  0  0  0  0  0  0
  151.3012  143.6468  158.3210 C   0  0  0  0  0  0  0  0  0  0  0  0
  145.7881  140.0607  153.1393 H   0  0  0  0  0  0  0  0  0  0  0  0
  146.9227  142.3181  153.2363 H   0  0  0  0  0  0  0  0  0  0  0  0
  151.1416  139.7030  155.0582 H   0  0  0  0  0  0  0  0  0  0  0  0
  151.9943  141.6889  156.0197 H   0  0  0  0  0  0  0  0  0  0  0  0
  150.5611  142.5689  155.5517 H   0  0  0  0  0  0  0  0  0  0  0  0
  149.5502  142.0231  157.5425 H   0  0  0  0  0  0  0  0  0  0  0  0
  149.7462  140.3149  157.2011 H   0  0  0  0  0  0  0  0  0  0  0  0
  152.7740  142.3741  157.3673 H   0  0  0  0  0  0  0  0  0  0  0  0
  153.4921  141.1297  159.4226 H   0  0  0  0  0  0  0  0  0  0  0  0
  154.0114  142.7771  159.3258 H   0  0  0  0  0  0  0  0  0  0  0  0
  151.4789  142.0878  160.8889 H   0  0  0  0  0  0  0  0  0  0  0  0
  153.0545  141.8074  161.5716 H   0  0  0  0  0  0  0  0  0  0  0  0
  152.4077  143.9531  162.3493 H   0  0  0  0  0  0  0  0  0  0  0  0
  153.6891  144.2028  161.2024 H   0  0  0  0  0  0  0  0  0  0  0  0
  150.7019  144.6719  160.7701 H   0  0  0  0  0  0  0  0  0  0  0  0
  151.9497  145.8731  160.9040 H   0  0  0  0  0  0  0  0  0  0  0  0
  151.4448  145.7612  158.6108 H   0  0  0  0  0  0  0  0  0  0  0  0
  152.9894  144.9715  158.7308 H   0  0  0  0  0  0  0  0  0  0  0  0
  151.0395  143.9205  157.2987 H   0  0  0  0  0  0  0  0  0  0  0  0
  150.3509  143.4317  158.8101 H   0  0  0  0  0  0  0  0  0  0  0  0
  1  2  3  0  0  0  0
  2  3  1  0  0  0  0
  3  8  1  0  0  0  0
  3  4  2  0  0  0  0
  4  5  1  0  0  0  0
  5  6  2  0  0  0  0
  5 20  1  0  0  0  0
  6  7  1  0  0  0  0
  6 21  1  0  0  0  0
  7  8  2  0  0  0  0
  8  9  1  0  0  0  0
  9 10  1  0  0  0  0
  9 22  1  0  0  0  0
 10 11  1  0  0  0  0
 10 23  1  0  0  0  0
 10 24  1  0  0  0  0
 11 12  1  0  0  0  0
 11 25  1  0  0  0  0
 11 26  1  0  0  0  0
 12 13  1  0  0  0  0
 13 19  1  0  0  0  0
 13 14  1  0  0  0  0
 13 27  1  0  0  0  0
 14 15  1  0  0  0  0
 14 28  1  0  0  0  0
 14 29  1  0  0  0  0
 15 16  1  0  0  0  0
 15 30  1  0  0  0  0
 15 31  1  0  0  0  0
 16 17  1  0  0  0  0
 16 32  1  0  0  0  0
 16 33  1  0  0  0  0
 17 18  1  0  0  0  0
 17 34  1  0  0  0  0
 17 35  1  0  0  0  0
 18 19  1  0  0  0  0
 18 36  1  0  0  0  0
 18 37  1  0  0  0  0
 19 38  1  0  0  0  0
 19 39  1  0  0  0  0
M  END
> <s_m_source_file>
AV-unprocessed.smi

> <i_m_source_file_index>
3069

> <i_lp_mmshare_version>
43012

> <i_f3d_flags>
0

> <s_epik_input>
TiNDYzFuW2NIXVtjSF1uYzFbTkhdW0NIMl1bQ0gyXU9bQ0hdMltDSDJdW0NIMl1bQ0gyXVtDSDJdW0NIMl1bQ0gyXTI=

> <s_epik_cmdline>
J2VwaWtfcHl0aG9uJywgJy1waCcsICc3LjAnLCAnLXRuJywgJzgnLCAnLW1hJywgJzIwMCcsICctbWV0YWxfYmluZGluZycsICctaW1hZScsICc8aW5maWxlLm1hZT4nLCAnLW9tYWUnLCAnPG91dGZpbGUubWFlPic=

> <r_lp_tautomer_probability>
1

> <r_epik_Ionization_Penalty>
5.57718e-05

> <r_epik_Ionization_Penalty_Charging>
0

> <r_epik_Ionization_Penalty_Neutral>
5.57718e-05

> <r_epik_State_Penalty>
-0

> <r_epik_Charging_Adjusted_Penalty>
0

> <i_epik_Tot_Q>
0

> <i_epik_Tot_abs_Q>
0

> <r_epik_Metal_State_Penalty>
-0

> <b_epik_Metal_Only>
0

> <s_lp_Force_Field>
OPLS_2005

> <r_lp_Energy>
28.0763

> <b_lp_Chiralities_Consistent>
1

> <s_lp_Variant>
AV-unprocessed.smi:3069-1

> <Gold.Version>
5.8.1

> <Gold.Id.Protein>
6NUR|6NUR_protein|mol2

> <Gold.PLP.Fitness>
47.7465

> <Gold.PLP.PLP>
-40.8682

> <Gold.PLP.part.hbond>
-2.0207

> <Gold.PLP.part.metal>
0.0000

> <Gold.PLP.part.buried>
-5.4193

> <Gold.PLP.part.nonpolar>
-31.8217

> <Gold.PLP.part.repulsive>
0.4666

> <Gold.PLP.ligand.clash>
0.0000

> <Gold.PLP.ligand.torsion>
0.5602

> <Gold.PLP.Chemscore.Hbond>
1.6477

> <Gold.PLP.Chemscore.CHOScore>
1.0000

> <Gold.PLP.Chemscore.Metal>
0.0000

> <Gold.Chemscore.Hbonds>
donor molecule, donor type, donor heavy atom, donor atom, acceptor molecule, acceptor atom, score
      P1  H  7989  7998       L1     9  0.50
      P1  H  8011  8017       L1     7  0.40
      L1  C     5    20       P1 10175  1.00

> <Gold.PLP.Chemscore.Internal.Correction>
0.0559

> <Gold.Rescore>
     Score         DG    S(hbond)    S(metal)    S(lipo)     H(rot)  DE(clash)    DE(int)     intcor
     13.34     -13.95       0.21        0.00     110.83       2.04       0.09       0.52       ----

> <Gold.Chemscore.Fitness>
13.3380

> <Gold.Chemscore.DG>
-13.9490

> <Gold.Chemscore.ZeroCoef>
-5.4800

> <Gold.Chemscore.Hbond>
0.2137

> <Gold.Chemscore.Metal>
0.0000

> <Gold.Chemscore.Lipo>
110.8293

> <Gold.Chemscore.Internal_Hbond>
0.0000

> <Gold.Chemscore.DEClash>
0.0907

> <Gold.Chemscore.DEInternal>
0.5203

> <Gold.Chemscore.Rot>
2.0359

> <Gold.Chemscore.Internal.Correction>
   9.000000E+99

> <Gold.Chemscore.Hbonds>
donor molecule, donor type, donor heavy atom, donor atom, acceptor molecule, acceptor atom, score
      P1  H  7989  7998       L1     9  0.01
      P1  H  8011  8017       L1     7  0.13

> <Gold.Chemscore.Hbond.Weighted>
-0.7139

> <Gold.Chemscore.Metal.Weighted>
-0.0000

> <Gold.Chemscore.Lipo.Weighted>
-12.9670

> <Gold.Chemscore.Internal_Hbond.Weighted>
0.0000

> <Gold.Chemscore.DEClash.Weighted>
0.0907

> <Gold.Chemscore.DEInternal.Weighted>
0.5203

> <Gold.Chemscore.Rot.Weighted>
5.2119

> <Gold.Chemscore.Internal.Correction.Weighted>
   9.000000E+99

> <Gold.Protein.RotatedTorsions>
[ 6907 6896 6895 6894 ] final   78.26 input  -60.11 | X-H torsion
[ 7974 7965 7964 7962 ] final  -17.49 input  175.53 | X-H torsion
[ 8008 7997 7996 7995 ] final  124.27 input   59.86 | X-H torsion
[ 10167 10162 10161 10158 ] final   97.21 input  -65.29 | X-H torsion
[ 10718 10713 10712 10709 ] final  168.20 input   66.30 | X-H torsion
[ 10763 10752 10751 10750 ] final  -26.64 input  -60.55 | X-H torsion
[ 11005 11000 10999 10996 ] final   42.31 input  -57.11 | X-H torsion

> <Gold.Protein.ActiveResidues>
 VAL166  LYS551  ARG553  GLY616  TRP617  ASP618  TYR619  PRO620  LYS621  CYS622 
 ASP623  PHE694  ASN695  SER759  ASP760  ASP761  ALA762  ILE779  LEU786  VAL792 
 PHE793  MET794  SER795  GLU796  ALA797  LYS798  CYS799  TRP800  GLU811  SER814 

> <Gold.Protein.RotatedAtoms>
  152.5152  134.3692  159.9311 H   0  0  0  0  0  0  0  0  0  0  0  0  # atno 6907 bound_to 6896
  151.3646  133.3871  159.2701 H   0  0  0  0  0  0  0  0  0  0  0  0  # atno 6908 bound_to 6896
  150.9625  134.9030  159.7797 H   0  0  0  0  0  0  0  0  0  0  0  0  # atno 6909 bound_to 6896
  146.1938  140.3787  142.8448 H   0  0  0  0  0  0  0  0  0  0  0  0  # atno 7974 bound_to 7965
  156.2795  140.2743  156.1761 H   0  0  0  0  0  0  0  0  0  0  0  0  # atno 8008 bound_to 7997
  155.0604  140.0386  157.2592 H   0  0  0  0  0  0  0  0  0  0  0  0  # atno 8009 bound_to 7997
  154.7122  140.2671  155.6624 H   0  0  0  0  0  0  0  0  0  0  0  0  # atno 8010 bound_to 7997
  139.7822  144.6884  151.0007 H   0  0  0  0  0  0  0  0  0  0  0  0  # atno 10167 bound_to 10162
  157.0406  131.0285  151.2715 H   0  0  0  0  0  0  0  0  0  0  0  0  # atno 10718 bound_to 10713
  153.7191  135.6946  153.5017 H   0  0  0  0  0  0  0  0  0  0  0  0  # atno 10763 bound_to 10752
  153.2216  135.4368  155.0495 H   0  0  0  0  0  0  0  0  0  0  0  0  # atno 10764 bound_to 10752
  154.8290  135.3462  154.6726 H   0  0  0  0  0  0  0  0  0  0  0  0  # atno 10765 bound_to 10752
  140.1751  134.4173  155.8233 H   0  0  0  0  0  0  0  0  0  0  0  0  # atno 11005 bound_to 11000
  144.8539  140.7042  143.6150 LP  0  0  0  0  0  0  0  0  0  0  0  0  # atno 17320 bound_to 7965
  145.3708  139.1659  143.4333 LP  0  0  0  0  0  0  0  0  0  0  0  0  # atno 17321 bound_to 7965
  140.7818  143.4471  151.0467 LP  0  0  0  0  0  0  0  0  0  0  0  0  # atno 17342 bound_to 10162
  139.8151  143.7897  152.3174 LP  0  0  0  0  0  0  0  0  0  0  0  0  # atno 17343 bound_to 10162
  157.5108  130.7937  149.7703 LP  0  0  0  0  0  0  0  0  0  0  0  0  # atno 17370 bound_to 10713
  156.0039  130.3865  150.2501 LP  0  0  0  0  0  0  0  0  0  0  0  0  # atno 17371 bound_to 10713
  141.2220  133.6974  156.7832 LP  0  0  0  0  0  0  0  0  0  0  0  0  # atno 17394 bound_to 11000
  140.2332  134.8670  157.3498 LP  0  0  0  0  0  0  0  0  0  0  0  0  # atno 17395 bound_to 11000

$$$$
