AV-unprocessed.smi:2390|AV-procd|sdf|9474|dock6
  -GOLD-   2272013103D 1   1.00000     0.00000
 Structure written by MMmdl.
 45 46  0  0  0  0  0  0  0  0  1 V2000
  153.2207  142.1856  161.0546 C   0  0  0  0  0  0  0  0  0  0  0  0
  152.2716  143.2065  160.4632 C   0  0  0  0  0  0  0  0  0  0  0  0
  152.2123  144.5202  160.9678 C   0  0  0  0  0  0  0  0  0  0  0  0
  151.3104  145.4192  160.3711 C   0  0  0  0  0  0  0  0  0  0  0  0
  150.5108  144.9711  159.3018 C   0  0  0  0  0  0  0  0  0  0  0  0
  150.6322  143.6359  158.8554 C   0  0  0  0  0  0  0  0  0  0  0  0
  149.7820  143.2810  157.7746 N   0  0  0  0  0  0  0  0  0  0  0  0
  149.3327  142.0585  157.4398 C   0  0  0  0  0  0  0  0  0  0  0  0
  149.6026  141.0133  158.0327 O   0  0  0  0  0  0  0  0  0  0  0  0
  148.5415  142.1101  156.3577 N   0  0  0  0  0  0  0  0  0  0  0  0
  147.8951  140.9576  155.7301 C   0  0  1  0  0  0  0  0  0  0  0  0
  146.4267  141.3072  155.4302 C   0  0  0  0  0  0  0  0  0  0  0  0
  148.6862  140.4613  154.4754 C   0  0  2  0  0  0  0  0  0  0  0  0
  147.7662  139.5873  153.5834 C   0  0  0  0  0  0  0  0  0  0  0  0
  149.9780  139.8071  154.7925 N   0  0  0  0  0  0  0  0  0  0  0  0
  150.9926  140.7549  155.2688 C   0  0  0  0  0  0  0  0  0  0  0  0
  152.3475  140.0865  155.5592 C   0  0  0  0  0  0  0  0  0  0  0  0
  152.8116  139.4141  154.3969 O   0  0  0  0  0  0  0  0  0  0  0  0
  151.8920  138.4279  153.9495 C   0  0  0  0  0  0  0  0  0  0  0  0
  150.5364  139.0865  153.6426 C   0  0  0  0  0  0  0  0  0  0  0  0
  151.5054  142.7768  159.4378 N   0  0  0  0  0  0  0  0  0  0  0  0
  153.6997  142.5670  161.9567 H   0  0  0  0  0  0  0  0  0  0  0  0
  153.9997  141.9334  160.3345 H   0  0  0  0  0  0  0  0  0  0  0  0
  152.6849  141.2724  161.3153 H   0  0  0  0  0  0  0  0  0  0  0  0
  152.8398  144.8331  161.7892 H   0  0  0  0  0  0  0  0  0  0  0  0
  151.2324  146.4358  160.7266 H   0  0  0  0  0  0  0  0  0  0  0  0
  149.8136  145.6495  158.8318 H   0  0  0  0  0  0  0  0  0  0  0  0
  149.4804  144.0463  157.1900 H   0  0  0  0  0  0  0  0  0  0  0  0
  148.3745  143.0104  155.9329 H   0  0  0  0  0  0  0  0  0  0  0  0
  147.8878  140.1839  156.4965 H   0  0  0  0  0  0  0  0  0  0  0  0
  145.8985  140.4585  154.9956 H   0  0  0  0  0  0  0  0  0  0  0  0
  146.3410  142.1436  154.7365 H   0  0  0  0  0  0  0  0  0  0  0  0
  145.8985  141.5842  156.3430 H   0  0  0  0  0  0  0  0  0  0  0  0
  148.9171  141.3506  153.8867 H   0  0  0  0  0  0  0  0  0  0  0  0
  146.7824  140.0314  153.4371 H   0  0  0  0  0  0  0  0  0  0  0  0
  147.6184  138.5960  154.0126 H   0  0  0  0  0  0  0  0  0  0  0  0
  148.1753  139.4581  152.5822 H   0  0  0  0  0  0  0  0  0  0  0  0
  151.1305  141.5498  154.5343 H   0  0  0  0  0  0  0  0  0  0  0  0
  150.6737  141.2292  156.1944 H   0  0  0  0  0  0  0  0  0  0  0  0
  153.0827  140.8354  155.8538 H   0  0  0  0  0  0  0  0  0  0  0  0
  152.2605  139.3810  156.3871 H   0  0  0  0  0  0  0  0  0  0  0  0
  152.2910  137.9499  153.0548 H   0  0  0  0  0  0  0  0  0  0  0  0
  151.7822  137.6496  154.7064 H   0  0  0  0  0  0  0  0  0  0  0  0
  149.8612  138.2951  153.3218 H   0  0  0  0  0  0  0  0  0  0  0  0
  150.6492  139.7686  152.7984 H   0  0  0  0  0  0  0  0  0  0  0  0
  1  2  1  0  0  0  0
  1 22  1  0  0  0  0
  1 23  1  0  0  0  0
  1 24  1  0  0  0  0
  2 21  1  0  0  0  0
  2  3  2  0  0  0  0
  3  4  1  0  0  0  0
  3 25  1  0  0  0  0
  4  5  2  0  0  0  0
  4 26  1  0  0  0  0
  5  6  1  0  0  0  0
  5 27  1  0  0  0  0
  6  7  1  0  0  0  0
  6 21  2  0  0  0  0
  7  8  1  0  0  0  0
  7 28  1  0  0  0  0
  8  9  2  0  0  0  0
  8 10  1  0  0  0  0
 10 11  1  0  0  0  0
 10 29  1  0  0  0  0
 11 12  1  0  0  0  0
 11 13  1  0  0  0  0
 11 30  1  0  0  0  0
 12 31  1  0  0  0  0
 12 32  1  0  0  0  0
 12 33  1  0  0  0  0
 13 14  1  0  0  0  0
 13 15  1  0  0  0  0
 13 34  1  0  0  0  0
 14 35  1  0  0  0  0
 14 36  1  0  0  0  0
 14 37  1  0  0  0  0
 15 20  1  0  0  0  0
 15 16  1  0  0  0  0
 16 17  1  0  0  0  0
 16 38  1  0  0  0  0
 16 39  1  0  0  0  0
 17 18  1  0  0  0  0
 17 40  1  0  0  0  0
 17 41  1  0  0  0  0
 18 19  1  0  0  0  0
 19 20  1  0  0  0  0
 19 42  1  0  0  0  0
 19 43  1  0  0  0  0
 20 44  1  0  0  0  0
 20 45  1  0  0  0  0
M  END
> <s_m_source_file>
AV-unprocessed.smi

> <i_m_source_file_index>
2390

> <i_lp_mmshare_version>
43012

> <i_f3d_flags>
0

> <s_epik_input>
W0NIM11jMVtjSF1bY0hdW2NIXWMobjEpW05IXUMoPU8pW05IXVtDQEhdKFtDSDNdKVtDQEhdKFtDSDNdKU4yW0NIMl1bQ0gyXU9bQ0gyXVtDSDJdMg==

> <s_epik_cmdline>
J2VwaWtfcHl0aG9uJywgJy1waCcsICc3LjAnLCAnLXRuJywgJzgnLCAnLW1hJywgJzIwMCcsICctbWV0YWxfYmluZGluZycsICctaW1hZScsICc8aW5maWxlLm1hZT4nLCAnLW9tYWUnLCAnPG91dGZpbGUubWFlPic=

> <r_epik_Ionization_Penalty>
0.266074

> <r_epik_Ionization_Penalty_Charging>
0

> <r_epik_Ionization_Penalty_Neutral>
0.266074

> <r_epik_State_Penalty>
0.257924

> <r_epik_Charging_Adjusted_Penalty>
0.257924

> <i_epik_Tot_Q>
0

> <i_epik_Tot_abs_Q>
0

> <r_epik_Metal_State_Penalty>
0.257919

> <b_epik_Metal_Only>
0

> <s_lp_Force_Field>
OPLS_2005

> <r_lp_Energy>
32.9653

> <b_lp_Chiralities_Consistent>
1

> <s_lp_Variant>
AV-unprocessed.smi:2390-2

> <Gold.Version>
5.8.1

> <Gold.Id.Protein>
6NUR|6NUR_protein|mol2

> <Gold.PLP.Fitness>
46.0809

> <Gold.PLP.PLP>
-41.7827

> <Gold.PLP.part.hbond>
-2.0000

> <Gold.PLP.part.metal>
0.0000

> <Gold.PLP.part.buried>
-4.2382

> <Gold.PLP.part.nonpolar>
-35.9008

> <Gold.PLP.part.repulsive>
0.1988

> <Gold.PLP.ligand.clash>
0.0000

> <Gold.PLP.ligand.torsion>
0.8874

> <Gold.PLP.Chemscore.Hbond>
1.9920

> <Gold.PLP.Chemscore.CHOScore>
0.0000

> <Gold.PLP.Chemscore.Metal>
0.0000

> <Gold.Chemscore.Hbonds>
donor molecule, donor type, donor heavy atom, donor atom, acceptor molecule, acceptor atom, score
      L1  H     7    28       P1  8028  1.00
      L1  H    10    29       P1  8028  1.00
      P1  H  7989  7998       L1    18  0.02

> <Gold.PLP.Chemscore.Internal.Correction>
0.0970

> <Gold.Rescore>
     Score         DG    S(hbond)    S(metal)    S(lipo)     H(rot)  DE(clash)    DE(int)     intcor
     18.27     -20.32       1.85        0.00     105.45       1.44       0.06       1.99       ----

> <Gold.Chemscore.Fitness>
18.2694

> <Gold.Chemscore.DG>
-20.3186

> <Gold.Chemscore.ZeroCoef>
-5.4800

> <Gold.Chemscore.Hbond>
1.8522

> <Gold.Chemscore.Metal>
0.0000

> <Gold.Chemscore.Lipo>
105.4494

> <Gold.Chemscore.Internal_Hbond>
0.0000

> <Gold.Chemscore.DEClash>
0.0624

> <Gold.Chemscore.DEInternal>
1.9867

> <Gold.Chemscore.Rot>
1.4396

> <Gold.Chemscore.Internal.Correction>
   9.000000E+99

> <Gold.Chemscore.Hbonds>
donor molecule, donor type, donor heavy atom, donor atom, acceptor molecule, acceptor atom, score
      L1  H     7    28       P1  8028  0.44
      L1  H    10    29       P1  8028  0.90

> <Gold.Chemscore.Hbond.Weighted>
-6.1864

> <Gold.Chemscore.Metal.Weighted>
-0.0000

> <Gold.Chemscore.Lipo.Weighted>
-12.3376

> <Gold.Chemscore.Internal_Hbond.Weighted>
0.0000

> <Gold.Chemscore.DEClash.Weighted>
0.0624

> <Gold.Chemscore.DEInternal.Weighted>
1.9867

> <Gold.Chemscore.Rot.Weighted>
3.6855

> <Gold.Chemscore.Internal.Correction.Weighted>
   9.000000E+99

> <Gold.Protein.RotatedTorsions>
[ 6907 6896 6895 6894 ] final  105.93 input  -60.11 | X-H torsion
[ 7974 7965 7964 7962 ] final    4.00 input  175.53 | X-H torsion
[ 8008 7997 7996 7995 ] final  -66.33 input   59.86 | X-H torsion
[ 10167 10162 10161 10158 ] final   80.91 input  -65.29 | X-H torsion
[ 10718 10713 10712 10709 ] final  -86.13 input   66.30 | X-H torsion
[ 10763 10752 10751 10750 ] final  133.52 input  -60.55 | X-H torsion
[ 11005 11000 10999 10996 ] final  108.61 input  -57.11 | X-H torsion

> <Gold.Protein.ActiveResidues>
 VAL166  LYS551  ARG553  GLY616  TRP617  ASP618  TYR619  PRO620  LYS621  CYS622 
 ASP623  PHE694  ASN695  SER759  ASP760  ASP761  ALA762  ILE779  LEU786  VAL792 
 PHE793  MET794  SER795  GLU796  ALA797  LYS798  CYS799  TRP800  GLU811  SER814 

> <Gold.Protein.RotatedAtoms>
  152.5212  133.9456  159.7647 H   0  0  0  0  0  0  0  0  0  0  0  0  # atno 6907 bound_to 6896
  150.9777  133.6270  159.2734 H   0  0  0  0  0  0  0  0  0  0  0  0  # atno 6908 bound_to 6896
  151.3458  135.0879  159.9439 H   0  0  0  0  0  0  0  0  0  0  0  0  # atno 6909 bound_to 6896
  146.2444  140.0601  142.8369 H   0  0  0  0  0  0  0  0  0  0  0  0  # atno 7974 bound_to 7965
  154.4728  140.0915  156.7186 H   0  0  0  0  0  0  0  0  0  0  0  0  # atno 8008 bound_to 7997
  155.4679  140.3463  155.4303 H   0  0  0  0  0  0  0  0  0  0  0  0  # atno 8009 bound_to 7997
  156.1067  140.1436  156.9383 H   0  0  0  0  0  0  0  0  0  0  0  0  # atno 8010 bound_to 7997
  139.9448  144.6065  150.8217 H   0  0  0  0  0  0  0  0  0  0  0  0  # atno 10167 bound_to 10162
  155.9992  130.4754  150.4667 H   0  0  0  0  0  0  0  0  0  0  0  0  # atno 10718 bound_to 10713
  153.8085  135.3132  155.3398 H   0  0  0  0  0  0  0  0  0  0  0  0  # atno 10763 bound_to 10752
  154.8061  135.4697  154.0399 H   0  0  0  0  0  0  0  0  0  0  0  0  # atno 10764 bound_to 10752
  153.1769  135.6887  153.8619 H   0  0  0  0  0  0  0  0  0  0  0  0  # atno 10765 bound_to 10752
  139.8847  134.9435  156.5999 H   0  0  0  0  0  0  0  0  0  0  0  0  # atno 11005 bound_to 11000
  145.0908  140.9283  143.4770 LP  0  0  0  0  0  0  0  0  0  0  0  0  # atno 17320 bound_to 7965
  145.0773  139.2986  143.5801 LP  0  0  0  0  0  0  0  0  0  0  0  0  # atno 17321 bound_to 7965
  140.7600  143.3142  151.2773 LP  0  0  0  0  0  0  0  0  0  0  0  0  # atno 17342 bound_to 10162
  139.6675  144.0079  152.2732 LP  0  0  0  0  0  0  0  0  0  0  0  0  # atno 17343 bound_to 10162
  157.2686  131.0582  151.2274 LP  0  0  0  0  0  0  0  0  0  0  0  0  # atno 17370 bound_to 10713
  157.3363  130.7010  149.6354 LP  0  0  0  0  0  0  0  0  0  0  0  0  # atno 17371 bound_to 10713
  140.7891  133.8597  155.8631 LP  0  0  0  0  0  0  0  0  0  0  0  0  # atno 17394 bound_to 11000
  140.9693  134.1553  157.4590 LP  0  0  0  0  0  0  0  0  0  0  0  0  # atno 17395 bound_to 11000

$$$$
