AV-unprocessed.smi:588|AV-procd|sdf|3004|dock9
  -GOLD-   2262023513D 1   1.00000     0.00000
 Structure written by MMmdl.
 50 51  0  0  0  0  0  0  0  0  1 V2000
  146.1267  130.5243  152.0537 C   0  0  0  0  0  0  0  0  0  0  0  0
  147.1256  130.8161  153.1778 C   0  0  0  0  0  0  0  0  0  0  0  0
  148.0878  131.9615  152.8216 C   0  0  0  0  0  0  0  0  0  0  0  0
  148.8498  132.4254  153.9642 N   0  0  0  0  0  0  0  0  0  0  0  0
  148.8504  133.7513  154.4071 C   0  0  0  0  0  0  0  0  0  0  0  0
  148.0725  134.6702  153.7179 N   0  0  0  0  0  0  0  0  0  0  0  0
  149.5924  134.1471  155.4841 C   0  0  0  0  0  0  0  0  0  0  0  0
  149.5678  135.4748  155.9477 N   0  0  0  0  0  0  0  0  0  0  0  0
  148.4633  135.8370  156.8489 C   0  0  0  0  0  0  0  0  0  0  0  0
  148.5932  135.1470  158.2161 C   0  0  0  0  0  0  0  0  0  0  0  0
  147.7551  135.8111  159.1462 O   0  0  0  0  0  0  0  0  0  0  0  0
  147.7785  135.2030  160.4257 C   0  0  0  0  0  0  0  0  0  0  0  0
  150.5116  136.3907  155.6020 C   0  0  0  0  0  0  0  0  0  0  0  0
  151.3939  136.1316  154.7813 O   0  0  0  0  0  0  0  0  0  0  0  0
  150.5214  137.7911  156.2648 C   0  0  0  0  0  0  0  0  0  0  0  0
  150.4025  138.9169  155.2110 C   0  0  0  0  0  0  0  0  0  0  0  0
  151.6381  139.8107  155.3678 C   0  0  0  0  0  0  0  0  0  0  0  0
  152.6779  138.9327  156.0561 C   0  0  0  0  0  0  0  0  0  0  0  0
  151.8478  138.0680  157.0032 C   0  0  0  0  0  0  0  0  0  0  0  0
  150.3956  133.1749  156.2378 C   0  0  0  0  0  0  0  0  0  0  0  0
  151.0876  133.4252  157.2238 O   0  0  0  0  0  0  0  0  0  0  0  0
  150.3279  131.8676  155.7635 N   0  0  0  0  0  0  0  0  0  0  0  0
  149.5858  131.4414  154.6677 C   0  0  0  0  0  0  0  0  0  0  0  0
  149.5941  130.2488  154.3609 O   0  0  0  0  0  0  0  0  0  0  0  0
  150.8564  131.1673  156.2632 H   0  0  0  0  0  0  0  0  0  0  0  0
  145.4576  129.7095  152.3306 H   0  0  0  0  0  0  0  0  0  0  0  0
  146.6407  130.2360  151.1365 H   0  0  0  0  0  0  0  0  0  0  0  0
  145.5141  131.3993  151.8349 H   0  0  0  0  0  0  0  0  0  0  0  0
  146.5792  131.0654  154.0881 H   0  0  0  0  0  0  0  0  0  0  0  0
  147.6919  129.9103  153.3969 H   0  0  0  0  0  0  0  0  0  0  0  0
  148.7895  131.6789  152.0348 H   0  0  0  0  0  0  0  0  0  0  0  0
  147.5537  132.8240  152.4241 H   0  0  0  0  0  0  0  0  0  0  0  0
  147.5168  134.4035  152.9177 H   0  0  0  0  0  0  0  0  0  0  0  0
  148.0639  135.6501  153.9624 H   0  0  0  0  0  0  0  0  0  0  0  0
  148.4148  136.9199  156.9761 H   0  0  0  0  0  0  0  0  0  0  0  0
  147.5095  135.5536  156.4012 H   0  0  0  0  0  0  0  0  0  0  0  0
  148.2998  134.0990  158.1374 H   0  0  0  0  0  0  0  0  0  0  0  0
  149.6268  135.1739  158.5640 H   0  0  0  0  0  0  0  0  0  0  0  0
  147.1193  135.7466  161.1024 H   0  0  0  0  0  0  0  0  0  0  0  0
  148.7829  135.2169  160.8508 H   0  0  0  0  0  0  0  0  0  0  0  0
  147.4333  134.1694  160.3775 H   0  0  0  0  0  0  0  0  0  0  0  0
  149.7238  137.8910  156.9999 H   0  0  0  0  0  0  0  0  0  0  0  0
  150.3709  138.5161  154.1961 H   0  0  0  0  0  0  0  0  0  0  0  0
  149.4861  139.4923  155.3456 H   0  0  0  0  0  0  0  0  0  0  0  0
  151.9904  140.2093  154.4161 H   0  0  0  0  0  0  0  0  0  0  0  0
  151.3960  140.6576  156.0113 H   0  0  0  0  0  0  0  0  0  0  0  0
  153.1799  138.3037  155.3196 H   0  0  0  0  0  0  0  0  0  0  0  0
  153.4406  139.5129  156.5761 H   0  0  0  0  0  0  0  0  0  0  0  0
  151.6418  138.6266  157.9173 H   0  0  0  0  0  0  0  0  0  0  0  0
  152.3809  137.1638  157.3015 H   0  0  0  0  0  0  0  0  0  0  0  0
  1  2  1  0  0  0  0
  1 26  1  0  0  0  0
  1 27  1  0  0  0  0
  1 28  1  0  0  0  0
  2  3  1  0  0  0  0
  2 29  1  0  0  0  0
  2 30  1  0  0  0  0
  3  4  1  0  0  0  0
  3 31  1  0  0  0  0
  3 32  1  0  0  0  0
  4 23  1  0  0  0  0
  4  5  1  0  0  0  0
  5  6  1  0  0  0  0
  5  7  2  0  0  0  0
  6 33  1  0  0  0  0
  6 34  1  0  0  0  0
  7  8  1  0  0  0  0
  7 20  1  0  0  0  0
  8  9  1  0  0  0  0
  8 13  1  0  0  0  0
  9 10  1  0  0  0  0
  9 35  1  0  0  0  0
  9 36  1  0  0  0  0
 10 11  1  0  0  0  0
 10 37  1  0  0  0  0
 10 38  1  0  0  0  0
 11 12  1  0  0  0  0
 12 39  1  0  0  0  0
 12 40  1  0  0  0  0
 12 41  1  0  0  0  0
 13 14  2  0  0  0  0
 13 15  1  0  0  0  0
 15 19  1  0  0  0  0
 15 16  1  0  0  0  0
 15 42  1  0  0  0  0
 16 17  1  0  0  0  0
 16 43  1  0  0  0  0
 16 44  1  0  0  0  0
 17 18  1  0  0  0  0
 17 45  1  0  0  0  0
 17 46  1  0  0  0  0
 18 19  1  0  0  0  0
 18 47  1  0  0  0  0
 18 48  1  0  0  0  0
 19 49  1  0  0  0  0
 19 50  1  0  0  0  0
 20 21  2  0  0  0  0
 20 22  1  0  0  0  0
 22 25  1  0  0  0  0
 22 23  1  0  0  0  0
 23 24  2  0  0  0  0
M  END
> <s_m_source_file>
AV-unprocessed.smi

> <i_m_source_file_index>
588

> <i_lp_mmshare_version>
43012

> <i_f3d_flags>
0

> <s_epik_input>
W0NIM11bQ0gyXVtDSDJdbjFjKFtOSDJdKWMoYyg9TylbbkhdYzE9TylOKFtDSDJdW0NIMl1PW0NIM10pQyg9TylbQ0hdMltDSDJdW0NIMl1bQ0gyXVtDSDJdMg==

> <s_epik_cmdline>
J2VwaWtfcHl0aG9uJywgJy1waCcsICc3LjAnLCAnLXRuJywgJzgnLCAnLW1hJywgJzIwMCcsICctbWV0YWxfYmluZGluZycsICctaW1hZScsICc8aW5maWxlLm1hZT4nLCAnLW9tYWUnLCAnPG91dGZpbGUubWFlPic=

> <r_lp_tautomer_probability>
1

> <r_epik_Ionization_Penalty>
2.06963e-05

> <r_epik_Ionization_Penalty_Charging>
5.41733e-06

> <r_epik_Ionization_Penalty_Neutral>
1.52789e-05

> <r_epik_State_Penalty>
-0

> <r_epik_Charging_Adjusted_Penalty>
5.41733e-06

> <i_epik_Tot_Q>
0

> <i_epik_Tot_abs_Q>
0

> <r_epik_Metal_State_Penalty>
-0

> <b_epik_Metal_Only>
0

> <s_epik_Chemistry_Notes>
This compound has an imine and may undergo hydrolysis.

> <s_lp_Force_Field>
OPLS_2005

> <r_lp_Energy>
42.8074

> <b_lp_Chiralities_Consistent>
1

> <s_lp_Variant>
AV-unprocessed.smi:588-1

> <Gold.Version>
5.8.1

> <Gold.Id.Protein>
6NUR|6NUR_protein|mol2

> <Gold.PLP.Fitness>
35.3558

> <Gold.PLP.PLP>
-31.6645

> <Gold.PLP.part.hbond>
-3.0000

> <Gold.PLP.part.metal>
0.0000

> <Gold.PLP.part.buried>
-1.3646

> <Gold.PLP.part.nonpolar>
-28.2913

> <Gold.PLP.part.repulsive>
0.2466

> <Gold.PLP.ligand.clash>
0.0000

> <Gold.PLP.ligand.torsion>
1.7070

> <Gold.PLP.Chemscore.Hbond>
1.6080

> <Gold.PLP.Chemscore.CHOScore>
0.0000

> <Gold.PLP.Chemscore.Metal>
0.0000

> <Gold.Chemscore.Hbonds>
donor molecule, donor type, donor heavy atom, donor atom, acceptor molecule, acceptor atom, score
      P1  H  6896  6907       L1    21  0.60
      P1  H 10752 10765       L1    14  1.00

> <Gold.PLP.Chemscore.Internal.Correction>
2.2813

> <Gold.Rescore>
     Score         DG    S(hbond)    S(metal)    S(lipo)     H(rot)  DE(clash)    DE(int)     intcor
     10.98     -12.94       1.67        0.00      61.37       2.07       0.09       1.87       ----

> <Gold.Chemscore.Fitness>
10.9799

> <Gold.Chemscore.DG>
-12.9377

> <Gold.Chemscore.ZeroCoef>
-5.4800

> <Gold.Chemscore.Hbond>
1.6669

> <Gold.Chemscore.Metal>
0.0000

> <Gold.Chemscore.Lipo>
61.3742

> <Gold.Chemscore.Internal_Hbond>
0.0000

> <Gold.Chemscore.DEClash>
0.0863

> <Gold.Chemscore.DEInternal>
1.8714

> <Gold.Chemscore.Rot>
2.0666

> <Gold.Chemscore.Internal.Correction>
   9.000000E+99

> <Gold.Chemscore.Hbonds>
donor molecule, donor type, donor heavy atom, donor atom, acceptor molecule, acceptor atom, score
      P1  H  6896  6907       L1    21  0.55
      P1  H 10752 10765       L1    14  1.00

> <Gold.Chemscore.Hbond.Weighted>
-5.5674

> <Gold.Chemscore.Metal.Weighted>
-0.0000

> <Gold.Chemscore.Lipo.Weighted>
-7.1808

> <Gold.Chemscore.Internal_Hbond.Weighted>
0.0000

> <Gold.Chemscore.DEClash.Weighted>
0.0863

> <Gold.Chemscore.DEInternal.Weighted>
1.8714

> <Gold.Chemscore.Rot.Weighted>
5.2905

> <Gold.Chemscore.Internal.Correction.Weighted>
   9.000000E+99

> <Gold.Protein.RotatedTorsions>
[ 6907 6896 6895 6894 ] final -169.61 input  -60.11 | X-H torsion
[ 7974 7965 7964 7962 ] final   29.54 input  175.53 | X-H torsion
[ 8008 7997 7996 7995 ] final  155.19 input   59.86 | X-H torsion
[ 10167 10162 10161 10158 ] final -151.54 input  -65.29 | X-H torsion
[ 10718 10713 10712 10709 ] final -172.81 input   66.30 | X-H torsion
[ 10763 10752 10751 10750 ] final  169.90 input  -60.55 | X-H torsion
[ 11005 11000 10999 10996 ] final  -20.26 input  -57.11 | X-H torsion

> <Gold.Protein.ActiveResidues>
 VAL166  LYS551  ARG553  GLY616  TRP617  ASP618  TYR619  PRO620  LYS621  CYS622 
 ASP623  PHE694  ASN695  SER759  ASP760  ASP761  ALA762  ILE779  LEU786  VAL792 
 PHE793  MET794  SER795  GLU796  ALA797  LYS798  CYS799  TRP800  GLU811  SER814 

> <Gold.Protein.RotatedAtoms>
  151.4944  133.3518  159.2858 H   0  0  0  0  0  0  0  0  0  0  0  0  # atno 6907 bound_to 6896
  150.8813  134.8207  159.7238 H   0  0  0  0  0  0  0  0  0  0  0  0  # atno 6908 bound_to 6896
  152.4765  134.4842  159.9727 H   0  0  0  0  0  0  0  0  0  0  0  0  # atno 6909 bound_to 6896
  146.1665  139.6908  142.8997 H   0  0  0  0  0  0  0  0  0  0  0  0  # atno 7974 bound_to 7965
  156.2492  140.1946  156.6762 H   0  0  0  0  0  0  0  0  0  0  0  0  # atno 8008 bound_to 7997
  154.6356  140.0590  156.9810 H   0  0  0  0  0  0  0  0  0  0  0  0  # atno 8009 bound_to 7997
  155.1643  140.3262  155.4408 H   0  0  0  0  0  0  0  0  0  0  0  0  # atno 8010 bound_to 7997
  139.7258  143.8885  152.2519 H   0  0  0  0  0  0  0  0  0  0  0  0  # atno 10167 bound_to 10162
  156.7611  130.9414  151.3118 H   0  0  0  0  0  0  0  0  0  0  0  0  # atno 10718 bound_to 10713
  154.3898  135.2754  155.2161 H   0  0  0  0  0  0  0  0  0  0  0  0  # atno 10763 bound_to 10752
  154.4232  135.5995  153.6026 H   0  0  0  0  0  0  0  0  0  0  0  0  # atno 10764 bound_to 10752
  152.9832  135.5977  154.4152 H   0  0  0  0  0  0  0  0  0  0  0  0  # atno 10765 bound_to 10752
  140.8447  133.7901  155.9899 H   0  0  0  0  0  0  0  0  0  0  0  0  # atno 11005 bound_to 11000
  145.4453  141.0425  143.2835 LP  0  0  0  0  0  0  0  0  0  0  0  0  # atno 17320 bound_to 7965
  144.8100  139.5979  143.7033 LP  0  0  0  0  0  0  0  0  0  0  0  0  # atno 17321 bound_to 7965
  139.8794  144.7026  150.8895 LP  0  0  0  0  0  0  0  0  0  0  0  0  # atno 17342 bound_to 10162
  140.7762  143.3673  151.1714 LP  0  0  0  0  0  0  0  0  0  0  0  0  # atno 17343 bound_to 10162
  157.6734  130.9072  150.0093 LP  0  0  0  0  0  0  0  0  0  0  0  0  # atno 17370 bound_to 10713
  156.1338  130.3643  149.9689 LP  0  0  0  0  0  0  0  0  0  0  0  0  # atno 17371 bound_to 10713
  140.8857  134.2557  157.5121 LP  0  0  0  0  0  0  0  0  0  0  0  0  # atno 17394 bound_to 11000
  139.8703  134.9637  156.4470 LP  0  0  0  0  0  0  0  0  0  0  0  0  # atno 17395 bound_to 11000

$$$$
