AV-unprocessed.smi:658|AV-procd|sdf|3234|dock1
  -GOLD-   22720 0183D 1   1.00000     0.00000
 Structure written by MMmdl.
 37 37  0  0  0  0  0  0  0  0  3 V2000
  146.5161  132.2211  153.3065 C   0  0  0  0  0  0  0  0  0  0  0  0
  147.2198  133.3182  152.4908 C   0  0  2  0  0  0  0  0  0  0  0  0
  147.9699  134.2102  153.4048 N   0  3  0  0  0  0  0  0  0  0  0  0
  149.0880  133.5706  154.1245 C   0  0  0  0  0  0  0  0  0  0  0  0
  149.9772  134.6251  154.7910 C   0  0  0  0  0  0  0  0  0  0  0  0
  149.3859  135.1450  156.1067 C   0  0  0  0  0  0  0  0  0  0  0  0
  149.2802  133.7956  157.3546 S   0  0  0  0  0  0  0  0  0  0  0  0
  148.7230  134.6059  158.6327 N   0  5  0  0  0  0  0  0  0  0  0  0
  148.3018  132.8351  156.8218 O   0  0  0  0  0  0  0  0  0  0  0  0
  150.6575  133.3184  157.5491 O   0  0  0  0  0  0  0  0  0  0  0  0
  146.2412  134.1194  151.5926 C   0  0  2  0  0  0  0  0  0  0  0  0
  145.4380  135.1753  152.3756 C   0  0  0  0  0  0  0  0  0  0  0  0
  145.3727  133.2674  150.7850 N   0  0  0  0  0  0  0  0  0  0  0  0
  145.7362  132.2348  149.9440 C   0  0  0  0  0  0  0  0  0  0  0  0
  144.5907  131.7158  149.4121 C   0  0  0  0  0  0  0  0  0  0  0  0
  143.5599  132.5019  149.9968 C   0  0  0  0  0  0  0  0  0  0  0  0
  144.0293  133.4244  150.8205 N   0  0  0  0  0  0  0  0  0  0  0  0
  145.9597  131.5456  152.6562 H   0  0  0  0  0  0  0  0  0  0  0  0
  145.8151  132.6393  154.0297 H   0  0  0  0  0  0  0  0  0  0  0  0
  147.2399  131.6215  153.8594 H   0  0  0  0  0  0  0  0  0  0  0  0
  147.9288  132.8184  151.8283 H   0  0  0  0  0  0  0  0  0  0  0  0
  148.3423  134.9743  152.8581 H   0  0  0  0  0  0  0  0  0  0  0  0
  148.6887  132.8866  154.8746 H   0  0  0  0  0  0  0  0  0  0  0  0
  149.6758  132.9786  153.4215 H   0  0  0  0  0  0  0  0  0  0  0  0
  150.9644  134.2016  154.9811 H   0  0  0  0  0  0  0  0  0  0  0  0
  150.1254  135.4606  154.1060 H   0  0  0  0  0  0  0  0  0  0  0  0
  150.0020  135.9419  156.5240 H   0  0  0  0  0  0  0  0  0  0  0  0
  148.3826  135.5430  155.9532 H   0  0  0  0  0  0  0  0  0  0  0  0
  147.7311  134.8157  158.4701 H   0  0  0  0  0  0  0  0  0  0  0  0
  146.8564  134.6780  150.8854 H   0  0  0  0  0  0  0  0  0  0  0  0
  146.1026  135.8620  152.9004 H   0  0  0  0  0  0  0  0  0  0  0  0
  144.7805  134.7222  153.1182 H   0  0  0  0  0  0  0  0  0  0  0  0
  144.8168  135.7692  151.7045 H   0  0  0  0  0  0  0  0  0  0  0  0
  146.7694  131.9579  149.7937 H   0  0  0  0  0  0  0  0  0  0  0  0
  144.5025  130.8987  148.7113 H   0  0  0  0  0  0  0  0  0  0  0  0
  142.4923  132.4289  149.8503 H   0  0  0  0  0  0  0  0  0  0  0  0
  147.3258  134.5919  154.0825 H   0  0  0  0  0  0  0  0  0  0  0  0
  1  2  1  0  0  0  0
  1 18  1  0  0  0  0
  1 19  1  0  0  0  0
  1 20  1  0  0  0  0
  2  3  1  0  0  0  0
  2 11  1  0  0  0  0
  2 21  1  0  0  0  0
  3  4  1  0  0  0  0
  3 22  1  0  0  0  0
  3 37  1  0  0  0  0
  4  5  1  0  0  0  0
  4 23  1  0  0  0  0
  4 24  1  0  0  0  0
  5  6  1  0  0  0  0
  5 25  1  0  0  0  0
  5 26  1  0  0  0  0
  6  7  1  0  0  0  0
  6 27  1  0  0  0  0
  6 28  1  0  0  0  0
  7  8  1  0  0  0  0
  7  9  2  0  0  0  0
  7 10  2  0  0  0  0
  8 29  1  0  0  0  0
 11 12  1  0  0  0  0
 11 13  1  0  0  0  0
 11 30  1  0  0  0  0
 12 31  1  0  0  0  0
 12 32  1  0  0  0  0
 12 33  1  0  0  0  0
 13 17  1  0  0  0  0
 13 14  1  0  0  0  0
 14 15  2  0  0  0  0
 14 34  1  0  0  0  0
 15 16  1  0  0  0  0
 15 35  1  0  0  0  0
 16 17  2  0  0  0  0
 16 36  1  0  0  0  0
M  CHG  1   3   1
M  CHG  1   8  -1
M  END
> <s_m_source_file>
AV-unprocessed.smi

> <i_m_source_file_index>
658

> <i_lp_mmshare_version>
43012

> <i_f3d_flags>
0

> <s_epik_input>
bjFbY0hdW2NIXVtjSF1uMVtDQEBIXShbQ0gzXSlbQ0BIXShbQ0gzXSlbTkhdW0NIMl1bQ0gyXVtDSDJdUyg9TykoPU8pW05IMl0=

> <s_epik_cmdline>
J2VwaWtfcHl0aG9uJywgJy1waCcsICc3LjAnLCAnLXRuJywgJzgnLCAnLW1hJywgJzIwMCcsICctbWV0YWxfYmluZGluZycsICctaW1hZScsICc8aW5maWxlLm1hZT4nLCAnLW9tYWUnLCAnPG91dGZpbGUubWFlPic=

> <r_lp_tautomer_probability>
1

> <r_epik_Ionization_Penalty>
4.63642

> <r_epik_Ionization_Penalty_Charging>
4.63641

> <r_epik_Ionization_Penalty_Neutral>
1.08396e-05

> <r_epik_State_Penalty>
4.63466

> <r_epik_Charging_Adjusted_Penalty>
9.27106

> <i_epik_Tot_Q>
0

> <i_epik_Tot_abs_Q>
2

> <r_epik_Metal_State_Penalty>
0.890424

> <b_epik_Metal_Only>
1

> <s_lp_Force_Field>
OPLS_2005

> <r_lp_Energy>
0.307927

> <b_lp_Chiralities_Consistent>
1

> <s_lp_Variant>
AV-unprocessed.smi:658-5

> <Gold.Version>
5.8.1

> <Gold.Id.Protein>
6NUR|6NUR_protein|mol2

> <Gold.PLP.Fitness>
45.4722

> <Gold.PLP.PLP>
-25.6707

> <Gold.PLP.part.hbond>
-3.0000

> <Gold.PLP.part.metal>
0.0000

> <Gold.PLP.part.buried>
-2.3028

> <Gold.PLP.part.nonpolar>
-22.1053

> <Gold.PLP.part.repulsive>
0.1718

> <Gold.PLP.ligand.clash>
0.0000

> <Gold.PLP.ligand.torsion>
0.4108

> <Gold.PLP.Chemscore.Hbond>
4.2292

> <Gold.PLP.Chemscore.CHOScore>
2.5106

> <Gold.PLP.Chemscore.Metal>
0.0000

> <Gold.Chemscore.Hbonds>
donor molecule, donor type, donor heavy atom, donor atom, acceptor molecule, acceptor atom, score
      L1  H     3    22       P1  7948  2.00
      P1  H  6896  6907       L1     8  0.75
      P1  H  6896  6909       L1    10  0.15
      L1  C    14    34       P1 10747  1.00
      L1  C    16    36       P1 10186  0.88
      L1  C    16    36       P1 10952  0.64

> <Gold.PLP.Chemscore.Internal.Correction>
0.4037

> <Gold.Rescore>
     Score         DG    S(hbond)    S(metal)    S(lipo)     H(rot)  DE(clash)    DE(int)     intcor
      9.33     -10.97       1.62        0.00      67.39       3.04       0.04       1.61       ----

> <Gold.Chemscore.Fitness>
9.3265

> <Gold.Chemscore.DG>
-10.9747

> <Gold.Chemscore.ZeroCoef>
-5.4800

> <Gold.Chemscore.Hbond>
1.6152

> <Gold.Chemscore.Metal>
0.0000

> <Gold.Chemscore.Lipo>
67.3892

> <Gold.Chemscore.Internal_Hbond>
0.0000

> <Gold.Chemscore.DEClash>
0.0357

> <Gold.Chemscore.DEInternal>
1.6124

> <Gold.Chemscore.Rot>
3.0409

> <Gold.Chemscore.Internal.Correction>
   9.000000E+99

> <Gold.Chemscore.Hbonds>
donor molecule, donor type, donor heavy atom, donor atom, acceptor molecule, acceptor atom, score
      L1  H     3    22       P1  7948  0.74
      P1  H  6896  6907       L1     8  0.02
      P1  H  6896  6909       L1    10  0.15

> <Gold.Chemscore.Hbond.Weighted>
-5.3949

> <Gold.Chemscore.Metal.Weighted>
-0.0000

> <Gold.Chemscore.Lipo.Weighted>
-7.8845

> <Gold.Chemscore.Internal_Hbond.Weighted>
0.0000

> <Gold.Chemscore.DEClash.Weighted>
0.0357

> <Gold.Chemscore.DEInternal.Weighted>
1.6124

> <Gold.Chemscore.Rot.Weighted>
7.7848

> <Gold.Chemscore.Internal.Correction.Weighted>
   9.000000E+99

> <Gold.Protein.RotatedTorsions>
[ 6907 6896 6895 6894 ] final  -72.22 input  -60.11 | X-H torsion
[ 7974 7965 7964 7962 ] final  -65.66 input  175.53 | X-H torsion
[ 8008 7997 7996 7995 ] final  133.98 input   59.86 | X-H torsion
[ 10167 10162 10161 10158 ] final -171.06 input  -65.29 | X-H torsion
[ 10718 10713 10712 10709 ] final   80.31 input   66.30 | X-H torsion
[ 10763 10752 10751 10750 ] final  175.27 input  -60.55 | X-H torsion
[ 11005 11000 10999 10996 ] final -165.75 input  -57.11 | X-H torsion

> <Gold.Protein.ActiveResidues>
 VAL166  LYS551  ARG553  GLY616  TRP617  ASP618  TYR619  PRO620  LYS621  CYS622 
 ASP623  PHE694  ASN695  SER759  ASP760  ASP761  ALA762  ILE779  LEU786  VAL792 
 PHE793  MET794  SER795  GLU796  ALA797  LYS798  CYS799  TRP800  GLU811  SER814 

> <Gold.Protein.RotatedAtoms>
  150.7179  134.5194  159.5646 H   0  0  0  0  0  0  0  0  0  0  0  0  # atno 6907 bound_to 6896
  152.2753  134.7885  160.0416 H   0  0  0  0  0  0  0  0  0  0  0  0  # atno 6908 bound_to 6896
  151.8551  133.3411  159.3722 H   0  0  0  0  0  0  0  0  0  0  0  0  # atno 6909 bound_to 6896
  145.7515  140.8906  143.0477 H   0  0  0  0  0  0  0  0  0  0  0  0  # atno 7974 bound_to 7965
  156.2996  140.2508  156.3342 H   0  0  0  0  0  0  0  0  0  0  0  0  # atno 8008 bound_to 7997
  154.9116  140.0403  157.1968 H   0  0  0  0  0  0  0  0  0  0  0  0  # atno 8009 bound_to 7997
  154.8399  140.2889  155.5670 H   0  0  0  0  0  0  0  0  0  0  0  0  # atno 8010 bound_to 7997
  139.5825  144.1392  152.1533 H   0  0  0  0  0  0  0  0  0  0  0  0  # atno 10167 bound_to 10162
  157.6802  130.9953  150.2060 H   0  0  0  0  0  0  0  0  0  0  0  0  # atno 10718 bound_to 10713
  154.4653  135.2769  155.1683 H   0  0  0  0  0  0  0  0  0  0  0  0  # atno 10763 bound_to 10752
  154.3454  135.6161  153.5620 H   0  0  0  0  0  0  0  0  0  0  0  0  # atno 10764 bound_to 10752
  152.9858  135.5798  154.5023 H   0  0  0  0  0  0  0  0  0  0  0  0  # atno 10765 bound_to 10752
  140.5722  134.5226  157.5164 H   0  0  0  0  0  0  0  0  0  0  0  0  # atno 11005 bound_to 11000
  144.6849  139.9598  143.7480 LP  0  0  0  0  0  0  0  0  0  0  0  0  # atno 17320 bound_to 7965
  146.0352  139.3371  143.0731 LP  0  0  0  0  0  0  0  0  0  0  0  0  # atno 17321 bound_to 7965
  140.0948  144.5590  150.7029 LP  0  0  0  0  0  0  0  0  0  0  0  0  # atno 17342 bound_to 10162
  140.7101  143.2498  151.4607 LP  0  0  0  0  0  0  0  0  0  0  0  0  # atno 17343 bound_to 10162
  156.2741  130.3725  149.8001 LP  0  0  0  0  0  0  0  0  0  0  0  0  # atno 17370 bound_to 10713
  156.5710  130.8424  151.3356 LP  0  0  0  0  0  0  0  0  0  0  0  0  # atno 17371 bound_to 10713
  139.9356  134.7881  156.0812 LP  0  0  0  0  0  0  0  0  0  0  0  0  # atno 17394 bound_to 11000
  141.1049  133.6664  156.2839 LP  0  0  0  0  0  0  0  0  0  0  0  0  # atno 17395 bound_to 11000

$$$$
