AV-unprocessed.smi:2243|AV-procd|sdf|9063|dock1
  -GOLD-   2272012273D 1   1.00000     0.00000
 Structure written by MMmdl.
 34 35  0  0  0  0  0  0  0  0  1 V2000
  147.1215  140.5144  152.6336 C   0  0  0  0  0  0  0  0  0  0  0  0
  147.2082  139.3954  153.6857 C   0  0  1  0  0  0  0  0  0  0  0  0
  147.1897  138.1131  152.9798 N   0  0  0  0  0  0  0  0  0  0  0  0
  146.1176  137.3258  152.8004 C   0  0  0  0  0  0  0  0  0  0  0  0
  144.9940  137.5878  153.2306 O   0  0  0  0  0  0  0  0  0  0  0  0
  146.4322  136.2245  152.1011 N   0  0  0  0  0  0  0  0  0  0  0  0
  145.5501  135.1778  151.7458 C   0  0  0  0  0  0  0  0  0  0  0  0
  144.2290  135.2793  151.8635 N   0  0  0  0  0  0  0  0  0  0  0  0
  143.7483  134.0570  151.4141 C   0  0  0  0  0  0  0  0  0  0  0  0
  144.8192  133.2819  151.0480 C   0  0  0  0  0  0  0  0  0  0  0  0
  145.9769  133.9831  151.2532 O   0  0  0  0  0  0  0  0  0  0  0  0
  148.4613  139.5027  154.5963 C   0  0  0  0  0  0  0  0  0  0  0  0
  148.9140  140.9627  154.8141 C   0  0  0  0  0  0  0  0  0  0  0  0
  150.2013  141.0329  155.6508 C   0  0  0  0  0  0  0  0  0  0  0  0
  151.2311  140.2785  155.0245 O   0  0  0  0  0  0  0  0  0  0  0  0
  150.9116  138.8967  154.9230 C   0  0  0  0  0  0  0  0  0  0  0  0
  149.6629  138.7066  154.0464 C   0  0  0  0  0  0  0  0  0  0  0  0
  146.9912  141.4936  153.0935 H   0  0  0  0  0  0  0  0  0  0  0  0
  146.2686  140.3621  151.9714 H   0  0  0  0  0  0  0  0  0  0  0  0
  148.0191  140.5497  152.0152 H   0  0  0  0  0  0  0  0  0  0  0  0
  146.3226  139.4786  154.3183 H   0  0  0  0  0  0  0  0  0  0  0  0
  148.0685  137.8054  152.5894 H   0  0  0  0  0  0  0  0  0  0  0  0
  147.3895  136.1214  151.7984 H   0  0  0  0  0  0  0  0  0  0  0  0
  142.6915  133.8356  151.3894 H   0  0  0  0  0  0  0  0  0  0  0  0
  144.9212  132.2827  150.6510 H   0  0  0  0  0  0  0  0  0  0  0  0
  148.2060  139.0870  155.5725 H   0  0  0  0  0  0  0  0  0  0  0  0
  149.0827  141.4436  153.8495 H   0  0  0  0  0  0  0  0  0  0  0  0
  148.1372  141.5393  155.3165 H   0  0  0  0  0  0  0  0  0  0  0  0
  150.5310  142.0678  155.7433 H   0  0  0  0  0  0  0  0  0  0  0  0
  150.0283  140.6636  156.6629 H   0  0  0  0  0  0  0  0  0  0  0  0
  151.7600  138.3720  154.4834 H   0  0  0  0  0  0  0  0  0  0  0  0
  150.7571  138.4730  155.9165 H   0  0  0  0  0  0  0  0  0  0  0  0
  149.4321  137.6431  153.9963 H   0  0  0  0  0  0  0  0  0  0  0  0
  149.8845  139.0276  153.0278 H   0  0  0  0  0  0  0  0  0  0  0  0
  1  2  1  0  0  0  0
  1 18  1  0  0  0  0
  1 19  1  0  0  0  0
  1 20  1  0  0  0  0
  2  3  1  0  0  0  0
  2 12  1  0  0  0  0
  2 21  1  0  0  0  0
  3  4  1  0  0  0  0
  3 22  1  0  0  0  0
  4  5  2  0  0  0  0
  4  6  1  0  0  0  0
  6  7  1  0  0  0  0
  6 23  1  0  0  0  0
  7 11  1  0  0  0  0
  7  8  2  0  0  0  0
  8  9  1  0  0  0  0
  9 10  2  0  0  0  0
  9 24  1  0  0  0  0
 10 11  1  0  0  0  0
 10 25  1  0  0  0  0
 12 17  1  0  0  0  0
 12 13  1  0  0  0  0
 12 26  1  0  0  0  0
 13 14  1  0  0  0  0
 13 27  1  0  0  0  0
 13 28  1  0  0  0  0
 14 15  1  0  0  0  0
 14 29  1  0  0  0  0
 14 30  1  0  0  0  0
 15 16  1  0  0  0  0
 16 17  1  0  0  0  0
 16 31  1  0  0  0  0
 16 32  1  0  0  0  0
 17 33  1  0  0  0  0
 17 34  1  0  0  0  0
M  END
> <s_m_source_file>
AV-unprocessed.smi

> <i_m_source_file_index>
2243

> <i_lp_mmshare_version>
43012

> <i_f3d_flags>
0

> <s_epik_input>
W0NIMl0xW0NIMl1PW0NIMl1bQ0gyXVtDSF0xW0NASF0oW0NIM10pW05IXUMoPU8pW05IXWMybltjSF1bY0hdbzI=

> <s_epik_cmdline>
J2VwaWtfcHl0aG9uJywgJy1waCcsICc3LjAnLCAnLXRuJywgJzgnLCAnLW1hJywgJzIwMCcsICctbWV0YWxfYmluZGluZycsICctaW1hZScsICc8aW5maWxlLm1hZT4nLCAnLW9tYWUnLCAnPG91dGZpbGUubWFlPic=

> <r_lp_tautomer_probability>
0.785861

> <r_epik_Ionization_Penalty>
5.17761e-05

> <r_epik_Ionization_Penalty_Charging>
0

> <r_epik_Ionization_Penalty_Neutral>
5.17761e-05

> <r_epik_State_Penalty>
0.0447104

> <r_epik_Charging_Adjusted_Penalty>
0.0447104

> <i_epik_Tot_Q>
0

> <i_epik_Tot_abs_Q>
0

> <r_epik_Metal_State_Penalty>
0.0593601

> <b_epik_Metal_Only>
0

> <s_lp_Force_Field>
OPLS_2005

> <r_lp_Energy>
9.3246

> <b_lp_Chiralities_Consistent>
1

> <s_lp_Variant>
AV-unprocessed.smi:2243-2

> <Gold.Version>
5.8.1

> <Gold.Id.Protein>
6NUR|6NUR_protein|mol2

> <Gold.PLP.Fitness>
34.9114

> <Gold.PLP.PLP>
-25.4280

> <Gold.PLP.part.hbond>
-2.9332

> <Gold.PLP.part.metal>
0.0000

> <Gold.PLP.part.buried>
-2.6295

> <Gold.PLP.part.nonpolar>
-20.6648

> <Gold.PLP.part.repulsive>
0.6231

> <Gold.PLP.ligand.clash>
0.0000

> <Gold.PLP.ligand.torsion>
1.0419

> <Gold.PLP.Chemscore.Hbond>
2.8640

> <Gold.PLP.Chemscore.CHOScore>
0.9791

> <Gold.PLP.Chemscore.Metal>
0.0000

> <Gold.Chemscore.Hbonds>
donor molecule, donor type, donor heavy atom, donor atom, acceptor molecule, acceptor atom, score
      L1  H     3    22       P1  7948  0.86
      L1  H     6    23       P1  7948  1.00
      P1  H  7989  7998       L1    15  1.00
      L1  C     9    24       P1 10186  0.92

> <Gold.PLP.Chemscore.Internal.Correction>
0.0380

> <Gold.Rescore>
     Score         DG    S(hbond)    S(metal)    S(lipo)     H(rot)  DE(clash)    DE(int)     intcor
     14.49     -17.90       2.57        0.00      61.59       1.32       0.89       2.52       ----

> <Gold.Chemscore.Fitness>
14.4872

> <Gold.Chemscore.DG>
-17.8985

> <Gold.Chemscore.ZeroCoef>
-5.4800

> <Gold.Chemscore.Hbond>
2.5725

> <Gold.Chemscore.Metal>
0.0000

> <Gold.Chemscore.Lipo>
61.5867

> <Gold.Chemscore.Internal_Hbond>
0.0000

> <Gold.Chemscore.DEClash>
0.8901

> <Gold.Chemscore.DEInternal>
2.5212

> <Gold.Chemscore.Rot>
1.3201

> <Gold.Chemscore.Internal.Correction>
   9.000000E+99

> <Gold.Chemscore.Hbonds>
donor molecule, donor type, donor heavy atom, donor atom, acceptor molecule, acceptor atom, score
      L1  H     3    22       P1  7948  0.84
      L1  H     6    23       P1  7948  0.94
      P1  H  7989  7998       L1    15  0.62

> <Gold.Chemscore.Hbond.Weighted>
-8.5922

> <Gold.Chemscore.Metal.Weighted>
-0.0000

> <Gold.Chemscore.Lipo.Weighted>
-7.2056

> <Gold.Chemscore.Internal_Hbond.Weighted>
0.0000

> <Gold.Chemscore.DEClash.Weighted>
0.8901

> <Gold.Chemscore.DEInternal.Weighted>
2.5212

> <Gold.Chemscore.Rot.Weighted>
3.3794

> <Gold.Chemscore.Internal.Correction.Weighted>
   9.000000E+99

> <Gold.Protein.RotatedTorsions>
[ 6907 6896 6895 6894 ] final  -58.40 input  -60.11 | X-H torsion
[ 7974 7965 7964 7962 ] final   64.27 input  175.53 | X-H torsion
[ 8008 7997 7996 7995 ] final   -5.79 input   59.86 | X-H torsion
[ 10167 10162 10161 10158 ] final   51.79 input  -65.29 | X-H torsion
[ 10718 10713 10712 10709 ] final  -24.59 input   66.30 | X-H torsion
[ 10763 10752 10751 10750 ] final  172.40 input  -60.55 | X-H torsion
[ 11005 11000 10999 10996 ] final  -23.77 input  -57.11 | X-H torsion

> <Gold.Protein.ActiveResidues>
 VAL166  LYS551  ARG553  GLY616  TRP617  ASP618  TYR619  PRO620  LYS621  CYS622 
 ASP623  PHE694  ASN695  SER759  ASP760  ASP761  ALA762  ILE779  LEU786  VAL792 
 PHE793  MET794  SER795  GLU796  ALA797  LYS798  CYS799  TRP800  GLU811  SER814 

> <Gold.Protein.RotatedAtoms>
  150.8010  134.7104  159.6599 H   0  0  0  0  0  0  0  0  0  0  0  0  # atno 6907 bound_to 6896
  152.4127  134.6093  160.0031 H   0  0  0  0  0  0  0  0  0  0  0  0  # atno 6908 bound_to 6896
  151.6331  133.3293  159.3149 H   0  0  0  0  0  0  0  0  0  0  0  0  # atno 6909 bound_to 6896
  145.8521  139.3261  143.0869 H   0  0  0  0  0  0  0  0  0  0  0  0  # atno 7974 bound_to 7965
  154.6003  140.2449  155.7801 H   0  0  0  0  0  0  0  0  0  0  0  0  # atno 8008 bound_to 7997
  156.2306  140.2968  156.0132 H   0  0  0  0  0  0  0  0  0  0  0  0  # atno 8009 bound_to 7997
  155.2222  140.0401  157.2940 H   0  0  0  0  0  0  0  0  0  0  0  0  # atno 8010 bound_to 7997
  140.2581  144.3403  150.6326 H   0  0  0  0  0  0  0  0  0  0  0  0  # atno 10167 bound_to 10162
  156.4756  130.4534  149.6842 H   0  0  0  0  0  0  0  0  0  0  0  0  # atno 10718 bound_to 10713
  154.4254  135.2758  155.1947 H   0  0  0  0  0  0  0  0  0  0  0  0  # atno 10763 bound_to 10752
  154.3875  135.6073  153.5828 H   0  0  0  0  0  0  0  0  0  0  0  0  # atno 10764 bound_to 10752
  152.9834  135.5895  154.4557 H   0  0  0  0  0  0  0  0  0  0  0  0  # atno 10765 bound_to 10752
  140.8782  133.7672  156.0270 H   0  0  0  0  0  0  0  0  0  0  0  0  # atno 11005 bound_to 11000
  145.9345  140.9024  143.0339 LP  0  0  0  0  0  0  0  0  0  0  0  0  # atno 17320 bound_to 7965
  144.6729  140.1464  143.7433 LP  0  0  0  0  0  0  0  0  0  0  0  0  # atno 17321 bound_to 7965
  140.5987  143.2167  151.7114 LP  0  0  0  0  0  0  0  0  0  0  0  0  # atno 17342 bound_to 10162
  139.5025  144.3826  152.0360 LP  0  0  0  0  0  0  0  0  0  0  0  0  # atno 17343 bound_to 10162
  156.3574  130.7463  151.2431 LP  0  0  0  0  0  0  0  0  0  0  0  0  # atno 17370 bound_to 10713
  157.7488  131.0360  150.4389 LP  0  0  0  0  0  0  0  0  0  0  0  0  # atno 17371 bound_to 10713
  140.8492  134.2974  157.5282 LP  0  0  0  0  0  0  0  0  0  0  0  0  # atno 17394 bound_to 11000
  139.8717  134.9458  156.3921 LP  0  0  0  0  0  0  0  0  0  0  0  0  # atno 17395 bound_to 11000

$$$$
