AV-unprocessed.smi:1920|AV-procd|sdf|7783|dock5
  -GOLD-   22720 9523D 1   1.00000     0.00000
 Structure written by MMmdl.
 36 37  0  0  0  0  0  0  0  0  1 V2000
  151.3512  137.6262  155.9936 C   0  0  0  0  0  0  0  0  0  0  0  0
  150.2798  138.7323  155.9572 C   0  0  2  0  0  0  0  0  0  0  0  0
  150.3951  139.6451  154.7202 C   0  0  0  0  0  0  0  0  0  0  0  0
  149.1083  140.1293  154.2567 N   0  0  0  0  0  0  0  0  0  0  0  0
  148.1203  139.3941  153.6151 C   0  0  0  0  0  0  0  0  0  0  0  0
  147.0813  140.2629  153.3690 C   0  0  0  0  0  0  0  0  0  0  0  0
  147.4044  141.5289  153.8517 N   0  0  0  0  0  0  0  0  0  0  0  0
  148.6173  141.3715  154.3660 C   0  0  0  0  0  0  0  0  0  0  0  0
  150.3597  139.5529  157.1624 N   0  0  0  0  0  0  0  0  0  0  0  0
  151.4483  140.2157  157.5831 C   0  0  0  0  0  0  0  0  0  0  0  0
  152.5243  140.1998  156.9854 O   0  0  0  0  0  0  0  0  0  0  0  0
  151.2993  141.0209  158.8783 C   0  0  0  0  0  0  0  0  0  0  0  0
  152.4185  142.0642  159.0881 C   0  0  1  0  0  0  0  0  0  0  0  0
  152.2079  143.3420  158.3119 C   0  0  0  0  0  0  0  0  0  0  0  0
  152.2531  144.4257  159.0831 C   0  0  0  0  0  0  0  0  0  0  0  0
  152.5018  144.0943  160.5282 C   0  0  0  0  0  0  0  0  0  0  0  0
  152.5306  142.5497  160.5563 C   0  0  0  0  0  0  0  0  0  0  0  0
  151.2673  136.9599  155.1349 H   0  0  0  0  0  0  0  0  0  0  0  0
  151.2529  137.0089  156.8872 H   0  0  0  0  0  0  0  0  0  0  0  0
  152.3563  138.0490  155.9911 H   0  0  0  0  0  0  0  0  0  0  0  0
  149.2984  138.2549  155.9283 H   0  0  0  0  0  0  0  0  0  0  0  0
  151.0195  140.5109  154.9459 H   0  0  0  0  0  0  0  0  0  0  0  0
  150.8818  139.1144  153.9004 H   0  0  0  0  0  0  0  0  0  0  0  0
  148.2365  138.3437  153.3912 H   0  0  0  0  0  0  0  0  0  0  0  0
  146.1330  140.0753  152.8872 H   0  0  0  0  0  0  0  0  0  0  0  0
  149.1631  142.1803  154.8296 H   0  0  0  0  0  0  0  0  0  0  0  0
  149.5204  139.6252  157.7190 H   0  0  0  0  0  0  0  0  0  0  0  0
  150.3274  141.5172  158.8907 H   0  0  0  0  0  0  0  0  0  0  0  0
  151.2952  140.3175  159.7117 H   0  0  0  0  0  0  0  0  0  0  0  0
  153.3762  141.6458  158.7744 H   0  0  0  0  0  0  0  0  0  0  0  0
  152.0554  143.3505  157.2423 H   0  0  0  0  0  0  0  0  0  0  0  0
  152.1401  145.4423  158.7367 H   0  0  0  0  0  0  0  0  0  0  0  0
  153.4524  144.5212  160.8491 H   0  0  0  0  0  0  0  0  0  0  0  0
  151.7071  144.4972  161.1568 H   0  0  0  0  0  0  0  0  0  0  0  0
  151.6986  142.1782  161.1560 H   0  0  0  0  0  0  0  0  0  0  0  0
  153.4453  142.1819  161.0222 H   0  0  0  0  0  0  0  0  0  0  0  0
  1  2  1  0  0  0  0
  1 18  1  0  0  0  0
  1 19  1  0  0  0  0
  1 20  1  0  0  0  0
  2  3  1  0  0  0  0
  2  9  1  0  0  0  0
  2 21  1  0  0  0  0
  3  4  1  0  0  0  0
  3 22  1  0  0  0  0
  3 23  1  0  0  0  0
  4  8  1  0  0  0  0
  4  5  1  0  0  0  0
  5  6  2  0  0  0  0
  5 24  1  0  0  0  0
  6  7  1  0  0  0  0
  6 25  1  0  0  0  0
  7  8  2  0  0  0  0
  8 26  1  0  0  0  0
  9 10  1  0  0  0  0
  9 27  1  0  0  0  0
 10 11  2  0  0  0  0
 10 12  1  0  0  0  0
 12 13  1  0  0  0  0
 12 28  1  0  0  0  0
 12 29  1  0  0  0  0
 13 17  1  0  0  0  0
 13 14  1  0  0  0  0
 13 30  1  0  0  0  0
 14 15  2  0  0  0  0
 14 31  1  0  0  0  0
 15 16  1  0  0  0  0
 15 32  1  0  0  0  0
 16 17  1  0  0  0  0
 16 33  1  0  0  0  0
 16 34  1  0  0  0  0
 17 35  1  0  0  0  0
 17 36  1  0  0  0  0
M  END
> <s_m_source_file>
AV-unprocessed.smi

> <i_m_source_file_index>
1920

> <i_lp_mmshare_version>
43012

> <i_f3d_flags>
0

> <s_epik_input>
W2NIXTFuW2NIXVtjSF1uMVtDSDJdW0NAQEhdKFtDSDNdKVtOSF1DKD1PKVtDSDJdW0NAQEhdMltDSF09W0NIXVtDSDJdW0NIMl0y

> <s_epik_cmdline>
J2VwaWtfcHl0aG9uJywgJy1waCcsICc3LjAnLCAnLXRuJywgJzgnLCAnLW1hJywgJzIwMCcsICctbWV0YWxfYmluZGluZycsICctaW1hZScsICc8aW5maWxlLm1hZT4nLCAnLW9tYWUnLCAnPG91dGZpbGUubWFlPic=

> <r_lp_tautomer_probability>
1

> <r_epik_Ionization_Penalty>
0.635367

> <r_epik_Ionization_Penalty_Charging>
0.635367

> <r_epik_Ionization_Penalty_Neutral>
2.1249e-08

> <r_epik_State_Penalty>
0.65258

> <r_epik_Charging_Adjusted_Penalty>
1.28795

> <i_epik_Tot_Q>
0

> <i_epik_Tot_abs_Q>
0

> <r_epik_Metal_State_Penalty>
0.310403

> <b_epik_Metal_Only>
0

> <s_lp_Force_Field>
OPLS_2005

> <r_lp_Energy>
18.7511

> <b_lp_Chiralities_Consistent>
1

> <s_lp_Variant>
AV-unprocessed.smi:1920-7

> <Gold.Version>
5.8.1

> <Gold.Id.Protein>
6NUR|6NUR_protein|mol2

> <Gold.PLP.Fitness>
42.6986

> <Gold.PLP.PLP>
-34.7026

> <Gold.PLP.part.hbond>
-1.0000

> <Gold.PLP.part.metal>
0.0000

> <Gold.PLP.part.buried>
1.4739

> <Gold.PLP.part.nonpolar>
-32.6544

> <Gold.PLP.part.repulsive>
0.1750

> <Gold.PLP.ligand.clash>
0.0000

> <Gold.PLP.ligand.torsion>
0.9683

> <Gold.PLP.Chemscore.Hbond>
1.0000

> <Gold.PLP.Chemscore.CHOScore>
2.2929

> <Gold.PLP.Chemscore.Metal>
0.0000

> <Gold.Chemscore.Hbonds>
donor molecule, donor type, donor heavy atom, donor atom, acceptor molecule, acceptor atom, score
      P1  H  7997  8008       L1    11  1.00
      L1  C     5    24       P1  7948  0.60
      L1  C     6    25       P1 10175  1.00
      L1  C     8    26       P1  8028  0.64

> <Gold.PLP.Chemscore.Internal.Correction>
0.0539

> <Gold.Rescore>
     Score         DG    S(hbond)    S(metal)    S(lipo)     H(rot)  DE(clash)    DE(int)     intcor
     12.76     -14.70       0.97        0.00      93.36       1.93       0.23       1.71       ----

> <Gold.Chemscore.Fitness>
12.7571

> <Gold.Chemscore.DG>
-14.6976

> <Gold.Chemscore.ZeroCoef>
-5.4800

> <Gold.Chemscore.Hbond>
0.9693

> <Gold.Chemscore.Metal>
0.0000

> <Gold.Chemscore.Lipo>
93.3566

> <Gold.Chemscore.Internal_Hbond>
0.0000

> <Gold.Chemscore.DEClash>
0.2280

> <Gold.Chemscore.DEInternal>
1.7125

> <Gold.Chemscore.Rot>
1.9306

> <Gold.Chemscore.Internal.Correction>
   9.000000E+99

> <Gold.Chemscore.Hbonds>
donor molecule, donor type, donor heavy atom, donor atom, acceptor molecule, acceptor atom, score
      P1  H  7997  8008       L1    11  0.96

> <Gold.Chemscore.Hbond.Weighted>
-3.2373

> <Gold.Chemscore.Metal.Weighted>
-0.0000

> <Gold.Chemscore.Lipo.Weighted>
-10.9227

> <Gold.Chemscore.Internal_Hbond.Weighted>
0.0000

> <Gold.Chemscore.DEClash.Weighted>
0.2280

> <Gold.Chemscore.DEInternal.Weighted>
1.7125

> <Gold.Chemscore.Rot.Weighted>
4.9424

> <Gold.Chemscore.Internal.Correction.Weighted>
   9.000000E+99

> <Gold.Protein.RotatedTorsions>
[ 6907 6896 6895 6894 ] final    3.28 input  -60.11 | X-H torsion
[ 7974 7965 7964 7962 ] final   63.96 input  175.53 | X-H torsion
[ 8008 7997 7996 7995 ] final  -60.12 input   59.86 | X-H torsion
[ 10167 10162 10161 10158 ] final -175.83 input  -65.29 | X-H torsion
[ 10718 10713 10712 10709 ] final   98.03 input   66.30 | X-H torsion
[ 10763 10752 10751 10750 ] final  138.78 input  -60.55 | X-H torsion
[ 11005 11000 10999 10996 ] final  130.76 input  -57.11 | X-H torsion

> <Gold.Protein.ActiveResidues>
 VAL166  LYS551  ARG553  GLY616  TRP617  ASP618  TYR619  PRO620  LYS621  CYS622 
 ASP623  PHE694  ASN695  SER759  ASP760  ASP761  ALA762  ILE779  LEU786  VAL792 
 PHE793  MET794  SER795  GLU796  ALA797  LYS798  CYS799  TRP800  GLU811  SER814 

> <Gold.Protein.RotatedAtoms>
  151.6225  135.1031  160.0104 H   0  0  0  0  0  0  0  0  0  0  0  0  # atno 6907 bound_to 6896
  152.4150  133.7020  159.6440 H   0  0  0  0  0  0  0  0  0  0  0  0  # atno 6908 bound_to 6896
  150.8039  133.8473  159.3236 H   0  0  0  0  0  0  0  0  0  0  0  0  # atno 6909 bound_to 6896
  145.8557  139.3283  143.0848 H   0  0  0  0  0  0  0  0  0  0  0  0  # atno 7974 bound_to 7965
  154.4384  140.1046  156.6223 H   0  0  0  0  0  0  0  0  0  0  0  0  # atno 8008 bound_to 7997
  155.5694  140.3489  155.4493 H   0  0  0  0  0  0  0  0  0  0  0  0  # atno 8009 bound_to 7997
  156.0401  140.1280  157.0154 H   0  0  0  0  0  0  0  0  0  0  0  0  # atno 8010 bound_to 7997
  139.5560  144.1987  152.1160 H   0  0  0  0  0  0  0  0  0  0  0  0  # atno 10167 bound_to 10162
  157.6903  131.0627  150.4733 H   0  0  0  0  0  0  0  0  0  0  0  0  # atno 10718 bound_to 10713
  153.8953  135.3028  155.3448 H   0  0  0  0  0  0  0  0  0  0  0  0  # atno 10763 bound_to 10752
  154.7696  135.4892  153.9626 H   0  0  0  0  0  0  0  0  0  0  0  0  # atno 10764 bound_to 10752
  153.1275  135.6796  153.9332 H   0  0  0  0  0  0  0  0  0  0  0  0  # atno 10765 bound_to 10752
  139.9691  134.9582  156.9340 H   0  0  0  0  0  0  0  0  0  0  0  0  # atno 11005 bound_to 11000
  145.9306  140.9051  143.0358 LP  0  0  0  0  0  0  0  0  0  0  0  0  # atno 17320 bound_to 7965
  144.6728  140.1413  143.7437 LP  0  0  0  0  0  0  0  0  0  0  0  0  # atno 17321 bound_to 7965
  140.1491  144.5131  150.6698 LP  0  0  0  0  0  0  0  0  0  0  0  0  # atno 17342 bound_to 10162
  140.6833  143.2337  151.5326 LP  0  0  0  0  0  0  0  0  0  0  0  0  # atno 17343 bound_to 10162
  156.5070  130.4130  149.6322 LP  0  0  0  0  0  0  0  0  0  0  0  0  # atno 17370 bound_to 10713
  156.3276  130.7314  151.2237 LP  0  0  0  0  0  0  0  0  0  0  0  0  # atno 17371 bound_to 10713
  140.5333  134.0792  155.7321 LP  0  0  0  0  0  0  0  0  0  0  0  0  # atno 17394 bound_to 11000
  141.1370  133.9204  157.2411 LP  0  0  0  0  0  0  0  0  0  0  0  0  # atno 17395 bound_to 11000

$$$$
