AV-unprocessed.smi:2189|AV-procd|sdf|8886|dock1
  -GOLD-   2272012 83D 1   1.00000     0.00000
 Structure written by MMmdl.
 38 40  0  0  0  0  0  0  0  0  2 V2000
  155.0401  140.0972  159.1661 O   0  0  0  0  0  0  0  0  0  0  0  0
  154.4168  140.5729  160.1242 C   0  0  0  0  0  0  0  0  0  0  0  0
  154.6271  140.2545  161.4385 N   0  5  0  0  0  0  0  0  0  0  0  0
  155.3333  139.0668  161.9278 C   0  0  0  0  0  0  0  0  0  0  0  0
  154.6360  137.7819  161.4219 C   0  0  0  0  0  0  0  0  0  0  0  0
  154.5794  136.6339  162.4287 C   0  0  0  0  0  0  0  0  0  0  0  0
  153.9935  136.8243  163.7011 C   0  0  0  0  0  0  0  0  0  0  0  0
  153.9565  135.7401  164.5981 C   0  0  0  0  0  0  0  0  0  0  0  0
  154.5141  134.5108  164.1988 C   0  0  0  0  0  0  0  0  0  0  0  0
  155.0886  134.4220  162.9155 C   0  0  0  0  0  0  0  0  0  0  0  0
  155.1302  135.4551  162.0473 N   0  0  0  0  0  0  0  0  0  0  0  0
  153.3369  141.5430  159.8611 C   0  0  0  0  0  0  0  0  0  0  0  0
  153.1652  142.5715  160.7327 C   0  0  0  0  0  0  0  0  0  0  0  0
  152.1418  143.5688  160.5422 C   0  0  0  0  0  0  0  0  0  0  0  0
  151.3297  143.4403  159.4878 C   0  0  0  0  0  0  0  0  0  0  0  0
  151.4264  142.3941  158.5718 N   0  0  0  0  0  0  0  0  0  0  0  0
  150.4053  142.3294  157.5322 C   0  0  0  0  0  0  0  0  0  0  0  0
  151.0284  141.9469  156.2023 C   0  0  0  0  0  0  0  0  0  0  0  0
  151.6993  140.2618  156.4330 S   0  0  0  0  0  0  0  0  0  0  0  0
  150.5837  139.3727  156.7930 O   0  0  0  0  0  0  0  0  0  0  0  0
  152.5315  139.9382  155.2641 O   0  0  0  0  0  0  0  0  0  0  0  0
  152.6699  140.5019  157.7765 N   0  0  0  0  0  0  0  0  0  0  0  0
  152.4629  141.4232  158.6751 C   0  0  0  0  0  0  0  0  0  0  0  0
  156.3813  139.0392  161.6265 H   0  0  0  0  0  0  0  0  0  0  0  0
  155.3439  139.0479  163.0179 H   0  0  0  0  0  0  0  0  0  0  0  0
  153.6143  138.0268  161.1298 H   0  0  0  0  0  0  0  0  0  0  0  0
  155.1242  137.4317  160.5112 H   0  0  0  0  0  0  0  0  0  0  0  0
  153.5691  137.7788  163.9759 H   0  0  0  0  0  0  0  0  0  0  0  0
  153.5075  135.8499  165.5740 H   0  0  0  0  0  0  0  0  0  0  0  0
  154.5021  133.6572  164.8598 H   0  0  0  0  0  0  0  0  0  0  0  0
  155.5285  133.4952  162.5776 H   0  0  0  0  0  0  0  0  0  0  0  0
  153.7903  142.6674  161.6089 H   0  0  0  0  0  0  0  0  0  0  0  0
  152.0353  144.3934  161.2308 H   0  0  0  0  0  0  0  0  0  0  0  0
  150.5430  144.1543  159.2920 H   0  0  0  0  0  0  0  0  0  0  0  0
  149.6381  141.6118  157.8245 H   0  0  0  0  0  0  0  0  0  0  0  0
  149.9056  143.2921  157.4214 H   0  0  0  0  0  0  0  0  0  0  0  0
  150.2912  141.9239  155.4004 H   0  0  0  0  0  0  0  0  0  0  0  0
  151.8350  142.6231  155.9166 H   0  0  0  0  0  0  0  0  0  0  0  0
  1  2  2  0  0  0  0
  2  3  1  0  0  0  0
  2 12  1  0  0  0  0
  3  4  1  0  0  0  0
  4  5  1  0  0  0  0
  4 24  1  0  0  0  0
  4 25  1  0  0  0  0
  5  6  1  0  0  0  0
  5 26  1  0  0  0  0
  5 27  1  0  0  0  0
  6 11  1  0  0  0  0
  6  7  2  0  0  0  0
  7  8  1  0  0  0  0
  7 28  1  0  0  0  0
  8  9  2  0  0  0  0
  8 29  1  0  0  0  0
  9 10  1  0  0  0  0
  9 30  1  0  0  0  0
 10 11  2  0  0  0  0
 10 31  1  0  0  0  0
 12 23  1  0  0  0  0
 12 13  2  0  0  0  0
 13 14  1  0  0  0  0
 13 32  1  0  0  0  0
 14 15  2  0  0  0  0
 14 33  1  0  0  0  0
 15 16  1  0  0  0  0
 15 34  1  0  0  0  0
 16 23  1  0  0  0  0
 16 17  1  0  0  0  0
 17 18  1  0  0  0  0
 17 35  1  0  0  0  0
 17 36  1  0  0  0  0
 18 19  1  0  0  0  0
 18 37  1  0  0  0  0
 18 38  1  0  0  0  0
 19 20  2  0  0  0  0
 19 21  2  0  0  0  0
 19 22  1  0  0  0  0
 22 23  2  0  0  0  0
M  CHG  1   3  -1
M  END
> <s_m_source_file>
AV-unprocessed.smi

> <i_m_source_file_index>
2189

> <i_lp_mmshare_version>
43012

> <i_f3d_flags>
0

> <s_epik_input>
W0NIMl0xW0NIMl1TKD1PKSg9TylOPUMoTjEyKUMoPVtDSF1bQ0hdPVtDSF0yKUMoPU8pW05IXVtDSDJdW0NIMl1jM1tjSF1bY0hdW2NIXVtjSF1uMw==

> <s_epik_cmdline>
J2VwaWtfcHl0aG9uJywgJy1waCcsICc3LjAnLCAnLXRuJywgJzgnLCAnLW1hJywgJzIwMCcsICctbWV0YWxfYmluZGluZycsICctaW1hZScsICc8aW5maWxlLm1hZT4nLCAnLW9tYWUnLCAnPG91dGZpbGUubWFlPic=

> <r_epik_Ionization_Penalty>
5.6695

> <r_epik_Ionization_Penalty_Charging>
5.5942

> <r_epik_Ionization_Penalty_Neutral>
0.0753022

> <r_epik_State_Penalty>
5.60818

> <r_epik_Charging_Adjusted_Penalty>
11.2024

> <i_epik_Tot_Q>
-1

> <i_epik_Tot_abs_Q>
1

> <r_epik_Metal_State_Penalty>
1.61782

> <b_epik_Metal_Only>
1

> <s_lp_Force_Field>
OPLS_2005

> <r_lp_Energy>
39.8175

> <b_lp_Chiralities_Consistent>
1

> <s_lp_Variant>
AV-unprocessed.smi:2189-3

> <Gold.Version>
5.8.1

> <Gold.Id.Protein>
6NUR|6NUR_protein|mol2

> <Gold.PLP.Fitness>
51.9372

> <Gold.PLP.PLP>
-46.5023

> <Gold.PLP.part.hbond>
-3.9948

> <Gold.PLP.part.metal>
0.0000

> <Gold.PLP.part.buried>
-1.3800

> <Gold.PLP.part.nonpolar>
-38.8462

> <Gold.PLP.part.repulsive>
0.0022

> <Gold.PLP.ligand.clash>
0.0000

> <Gold.PLP.ligand.torsion>
0.8873

> <Gold.PLP.Chemscore.Hbond>
2.2422

> <Gold.PLP.Chemscore.CHOScore>
0.0000

> <Gold.PLP.Chemscore.Metal>
0.0000

> <Gold.Chemscore.Hbonds>
donor molecule, donor type, donor heavy atom, donor atom, acceptor molecule, acceptor atom, score
      P1  H  7989  7998       L1    21  0.39
      P1  H  7997  8008       L1     1  0.90
      P1  H  7997  8009       L1    21  1.00

> <Gold.PLP.Chemscore.Internal.Correction>
0.4830

> <Gold.Rescore>
     Score         DG    S(hbond)    S(metal)    S(lipo)     H(rot)  DE(clash)    DE(int)     intcor
     18.04     -20.47       1.83        0.00     107.34       1.44       0.09       2.34       ----

> <Gold.Chemscore.Fitness>
18.0449

> <Gold.Chemscore.DG>
-20.4667

> <Gold.Chemscore.ZeroCoef>
-5.4800

> <Gold.Chemscore.Hbond>
1.8331

> <Gold.Chemscore.Metal>
0.0000

> <Gold.Chemscore.Lipo>
107.3414

> <Gold.Chemscore.Internal_Hbond>
0.0000

> <Gold.Chemscore.DEClash>
0.0855

> <Gold.Chemscore.DEInternal>
2.3363

> <Gold.Chemscore.Rot>
1.4433

> <Gold.Chemscore.Internal.Correction>
   9.000000E+99

> <Gold.Chemscore.Hbonds>
donor molecule, donor type, donor heavy atom, donor atom, acceptor molecule, acceptor atom, score
      P1  H  7989  7998       L1    21  0.28
      P1  H  7997  8008       L1     1  0.86
      P1  H  7997  8009       L1    21  0.37

> <Gold.Chemscore.Hbond.Weighted>
-6.1227

> <Gold.Chemscore.Metal.Weighted>
-0.0000

> <Gold.Chemscore.Lipo.Weighted>
-12.5589

> <Gold.Chemscore.Internal_Hbond.Weighted>
0.0000

> <Gold.Chemscore.DEClash.Weighted>
0.0855

> <Gold.Chemscore.DEInternal.Weighted>
2.3363

> <Gold.Chemscore.Rot.Weighted>
3.6949

> <Gold.Chemscore.Internal.Correction.Weighted>
   9.000000E+99

> <Gold.Protein.RotatedTorsions>
[ 6907 6896 6895 6894 ] final  -96.34 input  -60.11 | X-H torsion
[ 7974 7965 7964 7962 ] final  -83.03 input  175.53 | X-H torsion
[ 8008 7997 7996 7995 ] final -140.63 input   59.86 | X-H torsion
[ 10167 10162 10161 10158 ] final   52.30 input  -65.29 | X-H torsion
[ 10718 10713 10712 10709 ] final -133.97 input   66.30 | X-H torsion
[ 10763 10752 10751 10750 ] final  -55.65 input  -60.55 | X-H torsion
[ 11005 11000 10999 10996 ] final -168.76 input  -57.11 | X-H torsion

> <Gold.Protein.ActiveResidues>
 VAL166  LYS551  ARG553  GLY616  TRP617  ASP618  TYR619  PRO620  LYS621  CYS622 
 ASP623  PHE694  ASN695  SER759  ASP760  ASP761  ALA762  ILE779  LEU786  VAL792 
 PHE793  MET794  SER795  GLU796  ALA797  LYS798  CYS799  TRP800  GLU811  SER814 

> <Gold.Protein.RotatedAtoms>
  150.6986  134.1517  159.4142 H   0  0  0  0  0  0  0  0  0  0  0  0  # atno 6907 bound_to 6896
  151.9500  135.0171  160.0550 H   0  0  0  0  0  0  0  0  0  0  0  0  # atno 6908 bound_to 6896
  152.2019  133.4812  159.5100 H   0  0  0  0  0  0  0  0  0  0  0  0  # atno 6909 bound_to 6896
  145.5255  140.9527  143.1632 H   0  0  0  0  0  0  0  0  0  0  0  0  # atno 7974 bound_to 7965
  155.4645  140.0548  157.2987 H   0  0  0  0  0  0  0  0  0  0  0  0  # atno 8008 bound_to 7997
  154.4724  140.2046  155.9917 H   0  0  0  0  0  0  0  0  0  0  0  0  # atno 8009 bound_to 7997
  156.1077  140.3209  155.8033 H   0  0  0  0  0  0  0  0  0  0  0  0  # atno 8010 bound_to 7997
  140.2528  144.3460  150.6342 H   0  0  0  0  0  0  0  0  0  0  0  0  # atno 10167 bound_to 10162
  156.2505  130.7150  151.1048 H   0  0  0  0  0  0  0  0  0  0  0  0  # atno 10718 bound_to 10713
  154.1941  135.6422  153.5068 H   0  0  0  0  0  0  0  0  0  0  0  0  # atno 10763 bound_to 10752
  153.0028  135.5436  154.6384 H   0  0  0  0  0  0  0  0  0  0  0  0  # atno 10764 bound_to 10752
  154.5780  135.2922  155.0734 H   0  0  0  0  0  0  0  0  0  0  0  0  # atno 10765 bound_to 10752
  140.5384  134.5547  157.5093 H   0  0  0  0  0  0  0  0  0  0  0  0  # atno 11005 bound_to 11000
  144.7653  139.6859  143.7217 LP  0  0  0  0  0  0  0  0  0  0  0  0  # atno 17320 bound_to 7965
  146.2078  139.5414  142.9701 LP  0  0  0  0  0  0  0  0  0  0  0  0  # atno 17321 bound_to 7965
  140.6027  143.2167  151.7041 LP  0  0  0  0  0  0  0  0  0  0  0  0  # atno 17342 bound_to 10162
  139.5041  144.3767  152.0416 LP  0  0  0  0  0  0  0  0  0  0  0  0  # atno 17343 bound_to 10162
  157.7212  131.0680  150.6125 LP  0  0  0  0  0  0  0  0  0  0  0  0  # atno 17370 bound_to 10713
  156.6205  130.4404  149.5824 LP  0  0  0  0  0  0  0  0  0  0  0  0  # atno 17371 bound_to 10713
  139.9517  134.7606  156.0434 LP  0  0  0  0  0  0  0  0  0  0  0  0  # atno 17394 bound_to 11000
  141.1241  133.6604  156.3291 LP  0  0  0  0  0  0  0  0  0  0  0  0  # atno 17395 bound_to 11000

$$$$
