AV-unprocessed.smi:49|AV-procd|sdf|468|dock7
  -GOLD-   2262016333D 1   1.00000     0.00000
 Structure written by MMmdl.
 28 29  0  0  0  0  0  0  0  0  2 V2000
  140.0075  137.6239  153.6371 C   0  0  0  0  0  0  0  0  0  0  0  0
  141.1073  137.1239  154.5804 C   0  0  0  0  0  0  0  0  0  0  0  0
  141.8952  136.0041  153.9853 C   0  0  0  0  0  0  0  0  0  0  0  0
  142.5897  136.1291  152.8143 N   0  0  0  0  0  0  0  0  0  0  0  0
  143.0657  134.8922  152.6863 C   0  0  0  0  0  0  0  0  0  0  0  0
  143.9157  134.3861  151.5591 C   0  0  1  0  0  0  0  0  0  0  0  0
  145.2857  133.8472  151.9768 C   0  0  0  0  0  0  0  0  0  0  0  0
  145.5341  132.7597  150.9361 C   0  0  1  0  0  0  0  0  0  0  0  0
  146.4695  131.8010  151.3820 O   0  0  0  0  0  0  0  0  0  0  0  0
  144.1419  132.1546  150.7205 C   0  0  0  0  0  0  0  0  0  0  0  0
  143.1763  133.2387  150.9914 N   0  3  0  0  0  0  0  0  0  0  0  0
  142.6770  134.0953  153.6845 N   0  0  0  0  0  0  0  0  0  0  0  0
  141.9067  134.7950  154.5435 N   0  0  0  0  0  0  0  0  0  0  0  0
  144.0225  135.1499  150.7871 H   0  0  0  0  0  0  0  0  0  0  0  0
  145.8887  133.2120  150.0086 H   0  0  0  0  0  0  0  0  0  0  0  0
  142.8919  133.1164  153.8114 H   0  0  0  0  0  0  0  0  0  0  0  0
  139.4479  138.4411  154.0923 H   0  0  0  0  0  0  0  0  0  0  0  0
  139.3010  136.8279  153.3997 H   0  0  0  0  0  0  0  0  0  0  0  0
  140.4287  137.9893  152.7000 H   0  0  0  0  0  0  0  0  0  0  0  0
  141.7832  137.9436  154.8271 H   0  0  0  0  0  0  0  0  0  0  0  0
  140.6660  136.7931  155.5214 H   0  0  0  0  0  0  0  0  0  0  0  0
  146.0596  134.6150  152.0056 H   0  0  0  0  0  0  0  0  0  0  0  0
  145.2243  133.3943  152.9684 H   0  0  0  0  0  0  0  0  0  0  0  0
  147.2111  131.8039  150.7957 H   0  0  0  0  0  0  0  0  0  0  0  0
  144.0159  131.7440  149.7185 H   0  0  0  0  0  0  0  0  0  0  0  0
  143.9520  131.3549  151.4381 H   0  0  0  0  0  0  0  0  0  0  0  0
  142.4992  132.9127  151.6671 H   0  0  0  0  0  0  0  0  0  0  0  0
  142.7050  133.5191  150.1435 H   0  0  0  0  0  0  0  0  0  0  0  0
  1  2  1  0  0  0  0
  1 17  1  0  0  0  0
  1 18  1  0  0  0  0
  1 19  1  0  0  0  0
  2 20  1  0  0  0  0
  2 21  1  0  0  0  0
  2  3  1  0  0  0  0
  3  4  1  0  0  0  0
  3 13  2  0  0  0  0
  4  5  2  0  0  0  0
  5  6  1  0  0  0  0
  5 12  1  0  0  0  0
  6 14  1  0  0  0  0
  6 11  1  0  0  0  0
  6  7  1  0  0  0  0
  7  8  1  0  0  0  0
  7 22  1  0  0  0  0
  7 23  1  0  0  0  0
  8 15  1  0  0  0  0
  8  9  1  0  0  0  0
  8 10  1  0  0  0  0
  9 24  1  0  0  0  0
 10 11  1  0  0  0  0
 10 25  1  0  0  0  0
 10 26  1  0  0  0  0
 11 27  1  0  0  0  0
 11 28  1  0  0  0  0
 12 13  1  0  0  0  0
 12 16  1  0  0  0  0
M  CHG  1  11   1
M  END
> <s_m_source_file>
AV-unprocessed.smi

> <i_m_source_file_index>
49

> <i_lp_mmshare_version>
43012

> <i_f3d_flags>
0

> <s_epik_input>
W0NIM11bQ0gyXWMxbmMobltuSF0xKVtDQEBIXTJbQ0gyXVtDQEBIXShbT0hdKVtDSDJdW05IXTI=

> <s_epik_cmdline>
J2VwaWtfcHl0aG9uJywgJy1waCcsICc3LjAnLCAnLXRuJywgJzgnLCAnLW1hJywgJzIwMCcsICctbWV0YWxfYmluZGluZycsICctaW1hZScsICc8aW5maWxlLm1hZT4nLCAnLW9tYWUnLCAnPG91dGZpbGUubWFlPic=

> <r_epik_Ionization_Penalty>
0.372103

> <r_epik_Ionization_Penalty_Charging>
0.0688988

> <r_epik_Ionization_Penalty_Neutral>
0.303204

> <r_epik_State_Penalty>
0.737493

> <r_epik_Charging_Adjusted_Penalty>
0.806392

> <i_epik_Tot_Q>
1

> <i_epik_Tot_abs_Q>
1

> <r_epik_Metal_State_Penalty>
1.01235

> <b_epik_Metal_Only>
0

> <s_lp_Force_Field>
OPLS_2005

> <r_lp_Energy>
17.828

> <b_lp_Chiralities_Consistent>
1

> <s_lp_Variant>
AV-unprocessed.smi:49-6

> <Gold.Version>
5.8.1

> <Gold.Id.Protein>
6NUR|6NUR_protein|mol2

> <Gold.PLP.Fitness>
34.7091

> <Gold.PLP.PLP>
-22.1445

> <Gold.PLP.part.hbond>
-4.0000

> <Gold.PLP.part.metal>
0.0000

> <Gold.PLP.part.buried>
-6.0742

> <Gold.PLP.part.nonpolar>
-13.0569

> <Gold.PLP.part.repulsive>
0.3360

> <Gold.PLP.ligand.clash>
0.0000

> <Gold.PLP.ligand.torsion>
0.0174

> <Gold.PLP.Chemscore.Hbond>
4.1933

> <Gold.PLP.Chemscore.CHOScore>
0.0000

> <Gold.PLP.Chemscore.Metal>
0.0000

> <Gold.Chemscore.Hbonds>
donor molecule, donor type, donor heavy atom, donor atom, acceptor molecule, acceptor atom, score
      L1  H     9    24       P1 10747  0.83
      L1  H    11    28       P1 10186  1.60
      L1  H    12    16       P1 10957  0.91
      P1  H 11000 11005       L1    13  0.77

> <Gold.PLP.Chemscore.Internal.Correction>
0.0195

> <Gold.Rescore>
     Score         DG    S(hbond)    S(metal)    S(lipo)     H(rot)  DE(clash)    DE(int)     intcor
     15.95     -16.06       3.24        0.00      39.20       1.89       0.08       0.04       ----

> <Gold.Chemscore.Fitness>
15.9466

> <Gold.Chemscore.DG>
-16.0612

> <Gold.Chemscore.ZeroCoef>
-5.4800

> <Gold.Chemscore.Hbond>
3.2423

> <Gold.Chemscore.Metal>
0.0000

> <Gold.Chemscore.Lipo>
39.1962

> <Gold.Chemscore.Internal_Hbond>
0.0000

> <Gold.Chemscore.DEClash>
0.0785

> <Gold.Chemscore.DEInternal>
0.0361

> <Gold.Chemscore.Rot>
1.8883

> <Gold.Chemscore.Internal.Correction>
   9.000000E+99

> <Gold.Chemscore.Hbonds>
donor molecule, donor type, donor heavy atom, donor atom, acceptor molecule, acceptor atom, score
      L1  H     9    24       P1 10747  0.78
      L1  H    11    28       P1 10186  0.76
      L1  H    12    16       P1 10957  0.89
      P1  H 11000 11005       L1    13  0.75

> <Gold.Chemscore.Hbond.Weighted>
-10.8292

> <Gold.Chemscore.Metal.Weighted>
-0.0000

> <Gold.Chemscore.Lipo.Weighted>
-4.5860

> <Gold.Chemscore.Internal_Hbond.Weighted>
0.0000

> <Gold.Chemscore.DEClash.Weighted>
0.0785

> <Gold.Chemscore.DEInternal.Weighted>
0.0361

> <Gold.Chemscore.Rot.Weighted>
4.8340

> <Gold.Chemscore.Internal.Correction.Weighted>
   9.000000E+99

> <Gold.Protein.RotatedTorsions>
[ 6907 6896 6895 6894 ] final  -70.93 input  -60.11 | X-H torsion
[ 7974 7965 7964 7962 ] final -118.46 input  175.53 | X-H torsion
[ 8008 7997 7996 7995 ] final   60.72 input   59.86 | X-H torsion
[ 10167 10162 10161 10158 ] final  121.13 input  -65.29 | X-H torsion
[ 10718 10713 10712 10709 ] final   28.82 input   66.30 | X-H torsion
[ 10763 10752 10751 10750 ] final   32.18 input  -60.55 | X-H torsion
[ 11005 11000 10999 10996 ] final    0.15 input  -57.11 | X-H torsion

> <Gold.Protein.ActiveResidues>
 VAL166  LYS551  ARG553  GLY616  TRP617  ASP618  TYR619  PRO620  LYS621  CYS622 
 ASP623  PHE694  ASN695  SER759  ASP760  ASP761  ALA762  ILE779  LEU786  VAL792 
 PHE793  MET794  SER795  GLU796  ALA797  LYS798  CYS799  TRP800  GLU811  SER814 

> <Gold.Protein.RotatedAtoms>
  150.7235  134.5382  159.5733 H   0  0  0  0  0  0  0  0  0  0  0  0  # atno 6907 bound_to 6896
  152.2899  134.7731  160.0389 H   0  0  0  0  0  0  0  0  0  0  0  0  # atno 6908 bound_to 6896
  151.8348  133.3379  159.3661 H   0  0  0  0  0  0  0  0  0  0  0  0  # atno 6909 bound_to 6896
  145.0735  140.8376  143.4081 H   0  0  0  0  0  0  0  0  0  0  0  0  # atno 7974 bound_to 7965
  155.5869  140.3492  155.4555 H   0  0  0  0  0  0  0  0  0  0  0  0  # atno 8008 bound_to 7997
  156.0331  140.1279  157.0262 H   0  0  0  0  0  0  0  0  0  0  0  0  # atno 8009 bound_to 7997
  154.4360  140.1039  156.6114 H   0  0  0  0  0  0  0  0  0  0  0  0  # atno 8010 bound_to 7997
  139.5939  144.7035  151.3224 H   0  0  0  0  0  0  0  0  0  0  0  0  # atno 10167 bound_to 10162
  157.2385  130.7057  149.6347 H   0  0  0  0  0  0  0  0  0  0  0  0  # atno 10718 bound_to 10713
  153.0276  135.6420  154.1315 H   0  0  0  0  0  0  0  0  0  0  0  0  # atno 10763 bound_to 10752
  154.1042  135.2857  155.3246 H   0  0  0  0  0  0  0  0  0  0  0  0  # atno 10764 bound_to 10752
  154.6377  135.5470  153.7816 H   0  0  0  0  0  0  0  0  0  0  0  0  # atno 10765 bound_to 10752
  140.6297  133.9586  155.8268 H   0  0  0  0  0  0  0  0  0  0  0  0  # atno 11005 bound_to 11000
  145.1263  139.2660  143.5562 LP  0  0  0  0  0  0  0  0  0  0  0  0  # atno 17320 bound_to 7965
  146.3529  140.0902  142.8613 LP  0  0  0  0  0  0  0  0  0  0  0  0  # atno 17321 bound_to 7965
  140.7195  143.7173  150.7723 LP  0  0  0  0  0  0  0  0  0  0  0  0  # atno 17342 bound_to 10162
  140.0735  143.5038  152.2567 LP  0  0  0  0  0  0  0  0  0  0  0  0  # atno 17343 bound_to 10162
  155.9671  130.4466  150.5546 LP  0  0  0  0  0  0  0  0  0  0  0  0  # atno 17370 bound_to 10713
  157.3404  131.0715  151.1792 LP  0  0  0  0  0  0  0  0  0  0  0  0  # atno 17371 bound_to 10713
  141.0684  134.0242  157.3561 LP  0  0  0  0  0  0  0  0  0  0  0  0  # atno 17394 bound_to 11000
  139.9121  135.0191  156.7733 LP  0  0  0  0  0  0  0  0  0  0  0  0  # atno 17395 bound_to 11000

$$$$
