AV-unprocessed.smi:994|AV-procd|sdf|4343|dock3
  -GOLD-   22720 2243D 1   1.00000     0.00000
 Structure written by MMmdl.
 37 38  0  0  0  0  0  0  0  0  2 V2000
  151.6927  139.1894  157.8341 O   0  0  0  0  0  0  0  0  0  0  0  0
  151.8319  140.2982  157.3161 C   0  0  0  0  0  0  0  0  0  0  0  0
  151.6129  140.5394  156.0134 N   0  0  0  0  0  0  0  0  0  0  0  0
  151.2140  139.5559  155.0066 C   0  0  2  0  0  0  0  0  0  0  0  0
  149.7432  139.1199  155.1911 C   0  0  0  0  0  0  0  0  0  0  0  0
  148.7230  140.0028  154.5152 C   0  0  0  0  0  0  0  0  0  0  0  0
  148.5598  141.3685  154.6252 C   0  0  0  0  0  0  0  0  0  0  0  0
  147.4712  141.6941  153.8361 N   0  0  0  0  0  0  0  0  0  0  0  0
  147.0282  140.5592  153.2942 C   0  0  0  0  0  0  0  0  0  0  0  0
  147.7385  139.4992  153.6559 N   0  0  0  0  0  0  0  0  0  0  0  0
  152.1990  138.3831  155.0070 C   0  0  0  0  0  0  0  0  0  0  0  0
  153.4193  138.6595  154.9865 O   0  0  0  0  0  0  0  0  0  0  0  0
  151.7179  137.2288  155.0246 O   0  5  0  0  0  0  0  0  0  0  0  0
  152.2968  141.4908  158.1611 C   0  0  0  0  0  0  0  0  0  0  0  0
  152.4475  141.0815  159.6421 C   0  0  0  0  0  0  0  0  0  0  0  0
  152.8923  142.2696  160.5101 C   0  0  0  0  0  0  0  0  0  0  0  0
  151.9256  143.4559  160.3674 C   0  0  0  0  0  0  0  0  0  0  0  0
  151.7677  143.8692  158.8956 C   0  0  0  0  0  0  0  0  0  0  0  0
  151.3217  142.6803  158.0284 C   0  0  0  0  0  0  0  0  0  0  0  0
  147.0798  142.6156  153.7028 H   0  0  0  0  0  0  0  0  0  0  0  0
  151.7412  141.4839  155.6802 H   0  0  0  0  0  0  0  0  0  0  0  0
  151.2929  140.0186  154.0206 H   0  0  0  0  0  0  0  0  0  0  0  0
  149.6180  138.1133  154.7901 H   0  0  0  0  0  0  0  0  0  0  0  0
  149.4959  139.0540  156.2516 H   0  0  0  0  0  0  0  0  0  0  0  0
  149.1064  142.1071  155.1928 H   0  0  0  0  0  0  0  0  0  0  0  0
  146.1784  140.5074  152.6297 H   0  0  0  0  0  0  0  0  0  0  0  0
  153.2746  141.8109  157.7957 H   0  0  0  0  0  0  0  0  0  0  0  0
  151.5017  140.6931  160.0239 H   0  0  0  0  0  0  0  0  0  0  0  0
  153.1721  140.2711  159.7347 H   0  0  0  0  0  0  0  0  0  0  0  0
  152.9542  141.9638  161.5548 H   0  0  0  0  0  0  0  0  0  0  0  0
  153.8966  142.5789  160.2183 H   0  0  0  0  0  0  0  0  0  0  0  0
  150.9518  143.1845  160.7770 H   0  0  0  0  0  0  0  0  0  0  0  0
  152.2842  144.3013  160.9553 H   0  0  0  0  0  0  0  0  0  0  0  0
  151.0450  144.6813  158.8128 H   0  0  0  0  0  0  0  0  0  0  0  0
  152.7152  144.2592  158.5214 H   0  0  0  0  0  0  0  0  0  0  0  0
  151.2540  142.9948  156.9860 H   0  0  0  0  0  0  0  0  0  0  0  0
  150.3159  142.3785  158.3252 H   0  0  0  0  0  0  0  0  0  0  0  0
  1  2  2  0  0  0  0
  2  3  1  0  0  0  0
  2 14  1  0  0  0  0
  3  4  1  0  0  0  0
  3 21  1  0  0  0  0
  4  5  1  0  0  0  0
  4 11  1  0  0  0  0
  4 22  1  0  0  0  0
  5  6  1  0  0  0  0
  5 23  1  0  0  0  0
  5 24  1  0  0  0  0
  6 10  1  0  0  0  0
  6  7  2  0  0  0  0
  7  8  1  0  0  0  0
  7 25  1  0  0  0  0
  8 20  1  0  0  0  0
  8  9  1  0  0  0  0
  9 10  2  0  0  0  0
  9 26  1  0  0  0  0
 11 12  2  0  0  0  0
 11 13  1  0  0  0  0
 14 19  1  0  0  0  0
 14 15  1  0  0  0  0
 14 27  1  0  0  0  0
 15 16  1  0  0  0  0
 15 28  1  0  0  0  0
 15 29  1  0  0  0  0
 16 17  1  0  0  0  0
 16 30  1  0  0  0  0
 16 31  1  0  0  0  0
 17 18  1  0  0  0  0
 17 32  1  0  0  0  0
 17 33  1  0  0  0  0
 18 19  1  0  0  0  0
 18 34  1  0  0  0  0
 18 35  1  0  0  0  0
 19 36  1  0  0  0  0
 19 37  1  0  0  0  0
M  CHG  1  13  -1
M  END
> <s_m_source_file>
AV-unprocessed.smi

> <i_m_source_file_index>
994

> <i_lp_mmshare_version>
43012

> <i_f3d_flags>
0

> <s_epik_input>
W0NIMl0xW0NIMl1bQ0gyXVtDSDJdW0NIMl1bQ0hdMUMoPU8pW05IXVtDQEBIXShDKD1PKVtPSF0pW0NIMl1jMltjSF1bbkhdW2NIXW4y

> <s_epik_cmdline>
J2VwaWtfcHl0aG9uJywgJy1waCcsICc3LjAnLCAnLXRuJywgJzgnLCAnLW1hJywgJzIwMCcsICctbWV0YWxfYmluZGluZycsICctaW1hZScsICc8aW5maWxlLm1hZT4nLCAnLW9tYWUnLCAnPG91dGZpbGUubWFlPic=

> <r_lp_tautomer_probability>
0.5

> <r_epik_Ionization_Penalty>
0.836077

> <r_epik_Ionization_Penalty_Charging>
0.836077

> <r_epik_Ionization_Penalty_Neutral>
7.85059e-08

> <r_epik_State_Penalty>
0.938582

> <r_epik_Charging_Adjusted_Penalty>
1.77466

> <i_epik_Tot_Q>
-1

> <i_epik_Tot_abs_Q>
1

> <r_epik_Metal_State_Penalty>
0.523638

> <b_epik_Metal_Only>
0

> <s_lp_Force_Field>
OPLS_2005

> <r_lp_Energy>
9.63069

> <b_lp_Chiralities_Consistent>
1

> <s_lp_Variant>
AV-unprocessed.smi:994-5

> <Gold.Version>
5.8.1

> <Gold.Id.Protein>
6NUR|6NUR_protein|mol2

> <Gold.PLP.Fitness>
52.2139

> <Gold.PLP.PLP>
-36.5619

> <Gold.PLP.part.hbond>
-2.0000

> <Gold.PLP.part.metal>
0.0000

> <Gold.PLP.part.buried>
-4.2621

> <Gold.PLP.part.nonpolar>
-31.1152

> <Gold.PLP.part.repulsive>
1.1599

> <Gold.PLP.ligand.clash>
0.0000

> <Gold.PLP.ligand.torsion>
0.6907

> <Gold.PLP.Chemscore.Hbond>
3.9666

> <Gold.PLP.Chemscore.CHOScore>
1.6823

> <Gold.PLP.Chemscore.Metal>
0.0000

> <Gold.Chemscore.Hbonds>
donor molecule, donor type, donor heavy atom, donor atom, acceptor molecule, acceptor atom, score
      P1  H  7997  8009       L1    12  1.84
      P1  H 10752 10764       L1    13  1.76
      L1  C     7    25       P1  8028  0.69
      L1  C     9    26       P1 10175  1.00

> <Gold.PLP.Chemscore.Internal.Correction>
0.0864

> <Gold.Rescore>
     Score         DG    S(hbond)    S(metal)    S(lipo)     H(rot)  DE(clash)    DE(int)     intcor
     13.71     -14.29       1.78        0.00      82.75       2.66       0.10       0.48       ----

> <Gold.Chemscore.Fitness>
13.7148

> <Gold.Chemscore.DG>
-14.2894

> <Gold.Chemscore.ZeroCoef>
-5.4800

> <Gold.Chemscore.Hbond>
1.7763

> <Gold.Chemscore.Metal>
0.0000

> <Gold.Chemscore.Lipo>
82.7464

> <Gold.Chemscore.Internal_Hbond>
0.0000

> <Gold.Chemscore.DEClash>
0.0966

> <Gold.Chemscore.DEInternal>
0.4780

> <Gold.Chemscore.Rot>
2.6581

> <Gold.Chemscore.Internal.Correction>
   9.000000E+99

> <Gold.Chemscore.Hbonds>
donor molecule, donor type, donor heavy atom, donor atom, acceptor molecule, acceptor atom, score
      P1  H  7997  8009       L1    12  0.84
      P1  H 10752 10764       L1    13  0.79

> <Gold.Chemscore.Hbond.Weighted>
-5.9329

> <Gold.Chemscore.Metal.Weighted>
-0.0000

> <Gold.Chemscore.Lipo.Weighted>
-9.6813

> <Gold.Chemscore.Internal_Hbond.Weighted>
0.0000

> <Gold.Chemscore.DEClash.Weighted>
0.0966

> <Gold.Chemscore.DEInternal.Weighted>
0.4780

> <Gold.Chemscore.Rot.Weighted>
6.8048

> <Gold.Chemscore.Internal.Correction.Weighted>
   9.000000E+99

> <Gold.Protein.RotatedTorsions>
[ 6907 6896 6895 6894 ] final   -0.03 input  -60.11 | X-H torsion
[ 7974 7965 7964 7962 ] final  -96.81 input  175.53 | X-H torsion
[ 8008 7997 7996 7995 ] final -129.26 input   59.86 | X-H torsion
[ 10167 10162 10161 10158 ] final   74.95 input  -65.29 | X-H torsion
[ 10718 10713 10712 10709 ] final   23.28 input   66.30 | X-H torsion
[ 10763 10752 10751 10750 ] final  -66.09 input  -60.55 | X-H torsion
[ 11005 11000 10999 10996 ] final -131.08 input  -57.11 | X-H torsion

> <Gold.Protein.ActiveResidues>
 VAL166  LYS551  ARG553  GLY616  TRP617  ASP618  TYR619  PRO620  LYS621  CYS622 
 ASP623  PHE694  ASN695  SER759  ASP760  ASP761  ALA762  ILE779  LEU786  VAL792 
 PHE793  MET794  SER795  GLU796  ALA797  LYS798  CYS799  TRP800  GLU811  SER814 

> <Gold.Protein.RotatedAtoms>
  151.5688  135.1063  159.9989 H   0  0  0  0  0  0  0  0  0  0  0  0  # atno 6907 bound_to 6896
  152.4411  133.7446  159.6670 H   0  0  0  0  0  0  0  0  0  0  0  0  # atno 6908 bound_to 6896
  150.8317  133.8012  159.3119 H   0  0  0  0  0  0  0  0  0  0  0  0  # atno 6909 bound_to 6896
  145.3419  140.9461  143.2603 H   0  0  0  0  0  0  0  0  0  0  0  0  # atno 7974 bound_to 7965
  155.2763  140.0442  157.3011 H   0  0  0  0  0  0  0  0  0  0  0  0  # atno 8008 bound_to 7997
  154.5623  140.2350  155.8284 H   0  0  0  0  0  0  0  0  0  0  0  0  # atno 8009 bound_to 7997
  156.2057  140.3013  155.9630 H   0  0  0  0  0  0  0  0  0  0  0  0  # atno 8010 bound_to 7997
  140.0082  144.5634  150.7680 H   0  0  0  0  0  0  0  0  0  0  0  0  # atno 10167 bound_to 10162
  157.1640  130.6729  149.6054 H   0  0  0  0  0  0  0  0  0  0  0  0  # atno 10718 bound_to 10713
  154.3546  135.6129  153.5660 H   0  0  0  0  0  0  0  0  0  0  0  0  # atno 10763 bound_to 10752
  152.9796  135.5800  154.4703 H   0  0  0  0  0  0  0  0  0  0  0  0  # atno 10764 bound_to 10752
  154.4431  135.2850  155.1811 H   0  0  0  0  0  0  0  0  0  0  0  0  # atno 10765 bound_to 10752
  140.9290  134.1344  157.4251 H   0  0  0  0  0  0  0  0  0  0  0  0  # atno 11005 bound_to 11000
  144.8783  139.4939  143.6735 LP  0  0  0  0  0  0  0  0  0  0  0  0  # atno 17320 bound_to 7965
  146.3004  139.7408  142.9096 LP  0  0  0  0  0  0  0  0  0  0  0  0  # atno 17321 bound_to 7965
  140.7392  143.2788  151.3661 LP  0  0  0  0  0  0  0  0  0  0  0  0  # atno 17342 bound_to 10162
  139.6224  144.0881  152.2403 LP  0  0  0  0  0  0  0  0  0  0  0  0  # atno 17343 bound_to 10162
  155.9749  130.4702  150.6421 LP  0  0  0  0  0  0  0  0  0  0  0  0  # atno 17370 bound_to 10713
  157.4106  131.0823  151.1224 LP  0  0  0  0  0  0  0  0  0  0  0  0  # atno 17371 bound_to 10713
  139.8792  134.9998  156.5977 LP  0  0  0  0  0  0  0  0  0  0  0  0  # atno 17394 bound_to 11000
  140.7888  133.8600  155.8628 LP  0  0  0  0  0  0  0  0  0  0  0  0  # atno 17395 bound_to 11000

$$$$
