AV-unprocessed.smi:1295|AV-procd|sdf|5401|dock4
  -GOLD-   22720 4563D 1   1.00000     0.00000
 Structure written by MMmdl.
 43 44  0  0  0  0  0  0  0  0  1 V2000
  150.0516  134.7179  154.5385 C   0  0  0  0  0  0  0  0  0  0  0  0
  150.3404  136.1775  154.8188 C   0  0  0  0  0  0  0  0  0  0  0  0
  151.4932  136.7322  154.6351 N   0  0  0  0  0  0  0  0  0  0  0  0
  151.6390  138.0953  154.9271 C   0  0  0  0  0  0  0  0  0  0  0  0
  153.0206  138.6754  154.6777 C   0  0  0  0  0  0  0  0  0  0  0  0
  150.5985  138.8413  155.4016 C   0  0  0  0  0  0  0  0  0  0  0  0
  150.7269  140.3293  155.7236 C   0  0  0  0  0  0  0  0  0  0  0  0
  151.7069  140.6799  156.8457 C   0  0  0  0  0  0  0  0  0  0  0  0
  152.6109  139.8993  157.1438 O   0  0  0  0  0  0  0  0  0  0  0  0
  151.5080  141.8563  157.4604 N   0  0  0  0  0  0  0  0  0  0  0  0
  152.2843  142.3821  158.5822 C   0  0  2  0  0  0  0  0  0  0  0  0
  152.2400  141.3575  159.7330 C   0  0  0  0  0  0  0  0  0  0  0  0
  152.9818  141.8666  160.9770 C   0  0  0  0  0  0  0  0  0  0  0  0
  152.4208  143.2202  161.4327 C   0  0  0  0  0  0  0  0  0  0  0  0
  152.4807  144.2515  160.2961 C   0  0  0  0  0  0  0  0  0  0  0  0
  151.7419  143.7629  159.0330 C   0  0  1  0  0  0  0  0  0  0  0  0
  151.8213  144.8240  157.9206 C   0  0  0  0  0  0  0  0  0  0  0  0
  149.2872  138.1971  155.6100 C   0  0  0  0  0  0  0  0  0  0  0  0
  148.2845  138.7737  156.0287 O   0  0  0  0  0  0  0  0  0  0  0  0
  149.2381  136.8821  155.2996 N   0  0  0  0  0  0  0  0  0  0  0  0
  148.3615  136.3964  155.4221 H   0  0  0  0  0  0  0  0  0  0  0  0
  150.2394  134.4940  153.4879 H   0  0  0  0  0  0  0  0  0  0  0  0
  149.0150  134.4619  154.7620 H   0  0  0  0  0  0  0  0  0  0  0  0
  150.6983  134.0839  155.1458 H   0  0  0  0  0  0  0  0  0  0  0  0
  153.4573  139.0384  155.6080 H   0  0  0  0  0  0  0  0  0  0  0  0
  152.9695  139.5037  153.9709 H   0  0  0  0  0  0  0  0  0  0  0  0
  153.6958  137.9261  154.2625 H   0  0  0  0  0  0  0  0  0  0  0  0
  151.0143  140.8923  154.8350 H   0  0  0  0  0  0  0  0  0  0  0  0
  149.7385  140.7097  155.9836 H   0  0  0  0  0  0  0  0  0  0  0  0
  150.7411  142.4282  157.1371 H   0  0  0  0  0  0  0  0  0  0  0  0
  153.3294  142.5043  158.2911 H   0  0  0  0  0  0  0  0  0  0  0  0
  151.2034  141.1413  159.9967 H   0  0  0  0  0  0  0  0  0  0  0  0
  152.6776  140.4126  159.4080 H   0  0  0  0  0  0  0  0  0  0  0  0
  152.8987  141.1383  161.7840 H   0  0  0  0  0  0  0  0  0  0  0  0
  154.0455  141.9642  160.7560 H   0  0  0  0  0  0  0  0  0  0  0  0
  151.3884  143.0975  161.7624 H   0  0  0  0  0  0  0  0  0  0  0  0
  152.9804  143.5841  162.2948 H   0  0  0  0  0  0  0  0  0  0  0  0
  152.0493  145.1926  160.6391 H   0  0  0  0  0  0  0  0  0  0  0  0
  153.5235  144.4621  160.0536 H   0  0  0  0  0  0  0  0  0  0  0  0
  150.6894  143.6435  159.2951 H   0  0  0  0  0  0  0  0  0  0  0  0
  152.8478  144.9621  157.5797 H   0  0  0  0  0  0  0  0  0  0  0  0
  151.4556  145.7891  158.2722 H   0  0  0  0  0  0  0  0  0  0  0  0
  151.2183  144.5482  157.0555 H   0  0  0  0  0  0  0  0  0  0  0  0
  1  2  1  0  0  0  0
  1 22  1  0  0  0  0
  1 23  1  0  0  0  0
  1 24  1  0  0  0  0
  2 20  1  0  0  0  0
  2  3  2  0  0  0  0
  3  4  1  0  0  0  0
  4  5  1  0  0  0  0
  4  6  2  0  0  0  0
  5 25  1  0  0  0  0
  5 26  1  0  0  0  0
  5 27  1  0  0  0  0
  6  7  1  0  0  0  0
  6 18  1  0  0  0  0
  7  8  1  0  0  0  0
  7 28  1  0  0  0  0
  7 29  1  0  0  0  0
  8  9  2  0  0  0  0
  8 10  1  0  0  0  0
 10 11  1  0  0  0  0
 10 30  1  0  0  0  0
 11 16  1  0  0  0  0
 11 12  1  0  0  0  0
 11 31  1  0  0  0  0
 12 13  1  0  0  0  0
 12 32  1  0  0  0  0
 12 33  1  0  0  0  0
 13 14  1  0  0  0  0
 13 34  1  0  0  0  0
 13 35  1  0  0  0  0
 14 15  1  0  0  0  0
 14 36  1  0  0  0  0
 14 37  1  0  0  0  0
 15 16  1  0  0  0  0
 15 38  1  0  0  0  0
 15 39  1  0  0  0  0
 16 17  1  0  0  0  0
 16 40  1  0  0  0  0
 17 41  1  0  0  0  0
 17 42  1  0  0  0  0
 17 43  1  0  0  0  0
 18 19  2  0  0  0  0
 18 20  1  0  0  0  0
 20 21  1  0  0  0  0
M  END
> <s_m_source_file>
AV-unprocessed.smi

> <i_m_source_file_index>
1295

> <i_lp_mmshare_version>
43012

> <i_f3d_flags>
0

> <s_epik_input>
W0NIM11jMW5jKFtDSDNdKWMoYyg9TylbbkhdMSlbQ0gyXUMoPU8pW05IXVtDQEBIXTJbQ0gyXVtDSDJdW0NIMl1bQ0gyXVtDQEhdMltDSDNd

> <s_epik_cmdline>
J2VwaWtfcHl0aG9uJywgJy1waCcsICc3LjAnLCAnLXRuJywgJzgnLCAnLW1hJywgJzIwMCcsICctbWV0YWxfYmluZGluZycsICctaW1hZScsICc8aW5maWxlLm1hZT4nLCAnLW9tYWUnLCAnPG91dGZpbGUubWFlPic=

> <r_lp_tautomer_probability>
0.839158

> <r_epik_Ionization_Penalty>
0.00037085

> <r_epik_Ionization_Penalty_Charging>
0.000336002

> <r_epik_Ionization_Penalty_Neutral>
3.48485e-05

> <r_epik_State_Penalty>
0.09125

> <r_epik_Charging_Adjusted_Penalty>
0.091586

> <i_epik_Tot_Q>
0

> <i_epik_Tot_abs_Q>
0

> <r_epik_Metal_State_Penalty>
0.251445

> <b_epik_Metal_Only>
0

> <s_lp_Force_Field>
OPLS_2005

> <r_lp_Energy>
11.9109

> <b_lp_Chiralities_Consistent>
1

> <s_lp_Variant>
AV-unprocessed.smi:1295-1

> <Gold.Version>
5.8.1

> <Gold.Id.Protein>
6NUR|6NUR_protein|mol2

> <Gold.PLP.Fitness>
46.5814

> <Gold.PLP.PLP>
-41.2480

> <Gold.PLP.part.hbond>
-2.0000

> <Gold.PLP.part.metal>
0.0000

> <Gold.PLP.part.buried>
-6.3533

> <Gold.PLP.part.nonpolar>
-33.1791

> <Gold.PLP.part.repulsive>
0.2143

> <Gold.PLP.ligand.clash>
0.0000

> <Gold.PLP.ligand.torsion>
0.3357

> <Gold.PLP.Chemscore.Hbond>
2.0000

> <Gold.PLP.Chemscore.CHOScore>
0.0000

> <Gold.PLP.Chemscore.Metal>
0.0000

> <Gold.Chemscore.Hbonds>
donor molecule, donor type, donor heavy atom, donor atom, acceptor molecule, acceptor atom, score
      P1  H  7997  8010       L1     9  1.00
      P1  H 10752 10764       L1     3  1.00

> <Gold.PLP.Chemscore.Internal.Correction>
0.0048

> <Gold.Rescore>
     Score         DG    S(hbond)    S(metal)    S(lipo)     H(rot)  DE(clash)    DE(int)     intcor
     20.04     -21.38       1.92        0.00     113.63       1.48       0.11       1.23       ----

> <Gold.Chemscore.Fitness>
20.0432

> <Gold.Chemscore.DG>
-21.3823

> <Gold.Chemscore.ZeroCoef>
-5.4800

> <Gold.Chemscore.Hbond>
1.9153

> <Gold.Chemscore.Metal>
0.0000

> <Gold.Chemscore.Lipo>
113.6268

> <Gold.Chemscore.Internal_Hbond>
0.0000

> <Gold.Chemscore.DEClash>
0.1094

> <Gold.Chemscore.DEInternal>
1.2296

> <Gold.Chemscore.Rot>
1.4801

> <Gold.Chemscore.Internal.Correction>
   9.000000E+99

> <Gold.Chemscore.Hbonds>
donor molecule, donor type, donor heavy atom, donor atom, acceptor molecule, acceptor atom, score
      P1  H  7997  8010       L1     9  0.95
      P1  H 10752 10764       L1     3  0.91

> <Gold.Chemscore.Hbond.Weighted>
-6.3971

> <Gold.Chemscore.Metal.Weighted>
-0.0000

> <Gold.Chemscore.Lipo.Weighted>
-13.2943

> <Gold.Chemscore.Internal_Hbond.Weighted>
0.0000

> <Gold.Chemscore.DEClash.Weighted>
0.1094

> <Gold.Chemscore.DEInternal.Weighted>
1.2296

> <Gold.Chemscore.Rot.Weighted>
3.7891

> <Gold.Chemscore.Internal.Correction.Weighted>
   9.000000E+99

> <Gold.Protein.RotatedTorsions>
[ 6907 6896 6895 6894 ] final   44.68 input  -60.11 | X-H torsion
[ 7974 7965 7964 7962 ] final   35.79 input  175.53 | X-H torsion
[ 8008 7997 7996 7995 ] final   72.88 input   59.86 | X-H torsion
[ 10167 10162 10161 10158 ] final   65.64 input  -65.29 | X-H torsion
[ 10718 10713 10712 10709 ] final   40.84 input   66.30 | X-H torsion
[ 10763 10752 10751 10750 ] final  -58.96 input  -60.55 | X-H torsion
[ 11005 11000 10999 10996 ] final  -30.19 input  -57.11 | X-H torsion

> <Gold.Protein.ActiveResidues>
 VAL166  LYS551  ARG553  GLY616  TRP617  ASP618  TYR619  PRO620  LYS621  CYS622 
 ASP623  PHE694  ASN695  SER759  ASP760  ASP761  ALA762  ILE779  LEU786  VAL792 
 PHE793  MET794  SER795  GLU796  ALA797  LYS798  CYS799  TRP800  GLU811  SER814 

> <Gold.Protein.RotatedAtoms>
  152.2354  134.8281  160.0467 H   0  0  0  0  0  0  0  0  0  0  0  0  # atno 6907 bound_to 6896
  151.9014  133.3534  159.3840 H   0  0  0  0  0  0  0  0  0  0  0  0  # atno 6908 bound_to 6896
  150.7038  134.4750  159.5487 H   0  0  0  0  0  0  0  0  0  0  0  0  # atno 6909 bound_to 6896
  146.1257  139.6098  142.9260 H   0  0  0  0  0  0  0  0  0  0  0  0  # atno 7974 bound_to 7965
  155.7753  140.3483  155.5269 H   0  0  0  0  0  0  0  0  0  0  0  0  # atno 8008 bound_to 7997
  155.8781  140.0997  157.1525 H   0  0  0  0  0  0  0  0  0  0  0  0  # atno 8009 bound_to 7997
  154.4022  140.1327  156.4150 H   0  0  0  0  0  0  0  0  0  0  0  0  # atno 8010 bound_to 7997
  140.1090  144.4835  150.6989 H   0  0  0  0  0  0  0  0  0  0  0  0  # atno 10167 bound_to 10162
  157.3868  130.7784  149.7237 H   0  0  0  0  0  0  0  0  0  0  0  0  # atno 10718 bound_to 10713
  154.2463  135.6334  153.5224 H   0  0  0  0  0  0  0  0  0  0  0  0  # atno 10763 bound_to 10752
  152.9920  135.5554  154.5856 H   0  0  0  0  0  0  0  0  0  0  0  0  # atno 10764 bound_to 10752
  154.5373  135.2892  155.1101 H   0  0  0  0  0  0  0  0  0  0  0  0  # atno 10765 bound_to 10752
  140.9361  133.7307  156.1007 H   0  0  0  0  0  0  0  0  0  0  0  0  # atno 11005 bound_to 11000
  145.5369  141.0423  143.2352 LP  0  0  0  0  0  0  0  0  0  0  0  0  # atno 17320 bound_to 7965
  144.7640  139.6888  143.7222 LP  0  0  0  0  0  0  0  0  0  0  0  0  # atno 17321 bound_to 7965
  140.6936  143.2390  151.5063 LP  0  0  0  0  0  0  0  0  0  0  0  0  # atno 17342 bound_to 10162
  139.5629  144.2112  152.1720 LP  0  0  0  0  0  0  0  0  0  0  0  0  # atno 17343 bound_to 10162
  155.9788  130.4046  150.3623 LP  0  0  0  0  0  0  0  0  0  0  0  0  # atno 17370 bound_to 10713
  157.1734  131.0374  151.2784 LP  0  0  0  0  0  0  0  0  0  0  0  0  # atno 17371 bound_to 10713
  140.7797  134.3740  157.5490 LP  0  0  0  0  0  0  0  0  0  0  0  0  # atno 17394 bound_to 11000
  139.8808  134.9074  156.2943 LP  0  0  0  0  0  0  0  0  0  0  0  0  # atno 17395 bound_to 11000

$$$$
