AV-unprocessed.smi:45|AV-procd|sdf|413|dock4
  -GOLD-   2262016283D 1   1.00000     0.00000
 Structure written by MMmdl.
 59 62  0  0  0  0  0  0  0  0  2 V2000
  147.3270  126.3440  151.5548 C   0  0  0  0  0  0  0  0  0  0  0  0
  146.5764  127.5464  151.6358 O   0  0  0  0  0  0  0  0  0  0  0  0
  147.0930  128.5882  152.3778 C   0  0  0  0  0  0  0  0  0  0  0  0
  148.3453  128.5384  153.0403 C   0  0  0  0  0  0  0  0  0  0  0  0
  148.8183  129.6515  153.7605 C   0  0  0  0  0  0  0  0  0  0  0  0
  148.0521  130.8307  153.8350 C   0  0  0  0  0  0  0  0  0  0  0  0
  148.6029  132.0363  154.5863 C   0  0  0  0  0  0  0  0  0  0  0  0
  147.7959  132.5102  155.7061 N   0  0  0  0  0  0  0  0  0  0  0  0
  147.2108  133.7863  155.6242 C   0  0  0  0  0  0  0  0  0  0  0  0
  146.4441  134.0603  154.5414 N   0  0  0  0  0  0  0  0  0  0  0  0
  145.8354  135.2467  154.4988 C   0  0  0  0  0  0  0  0  0  0  0  0
  144.9894  135.4506  153.4225 N   0  0  0  0  0  0  0  0  0  0  0  0
  143.8263  134.5829  153.2748 C   0  0  0  0  0  0  0  0  0  0  0  0
  143.5292  134.4879  151.7722 C   0  0  0  0  0  0  0  0  0  0  0  0
  144.3893  135.5843  151.1496 C   0  0  0  0  0  0  0  0  0  0  0  0
  145.5809  135.6434  152.1045 C   0  0  1  0  0  0  0  0  0  0  0  0
  146.4127  136.9360  152.0041 C   0  0  0  0  0  0  0  0  0  0  0  0
  146.4888  137.3698  150.6634 O   0  0  0  0  0  0  0  0  0  0  0  0
  145.9187  136.2162  155.4144 N   0  0  0  0  0  0  0  0  0  0  0  0
  146.6856  135.9648  156.4970 C   0  0  0  0  0  0  0  0  0  0  0  0
  147.3655  134.7367  156.6685 C   0  0  0  0  0  0  0  0  0  0  0  0
  148.1906  134.4678  157.8967 C   0  0  0  0  0  0  0  0  0  0  0  0
  149.1570  133.7035  157.7989 O   0  0  0  0  0  0  0  0  0  0  0  0
  147.6848  135.1049  158.9889 N   0  5  0  0  0  0  0  0  0  0  0  0
  148.3777  136.1826  159.6962 C   0  0  0  0  0  0  0  0  0  0  0  0
  147.6413  136.6037  160.9640 C   0  0  0  0  0  0  0  0  0  0  0  0
  148.3548  136.6353  162.0962 N   0  0  0  0  0  0  0  0  0  0  0  0
  147.7161  137.0435  163.2139 C   0  0  0  0  0  0  0  0  0  0  0  0
  146.3579  137.4185  163.1975 C   0  0  0  0  0  0  0  0  0  0  0  0
  145.7058  137.3399  161.9509 C   0  0  0  0  0  0  0  0  0  0  0  0
  146.3488  136.9300  160.8364 N   0  0  0  0  0  0  0  0  0  0  0  0
  146.7916  130.8768  153.2020 C   0  0  0  0  0  0  0  0  0  0  0  0
  146.3216  129.7678  152.4725 C   0  0  0  0  0  0  0  0  0  0  0  0
  144.7917  129.8693  151.6784 Cl  0  0  0  0  0  0  0  0  0  0  0  0
  146.2314  134.7897  151.9060 H   0  0  0  0  0  0  0  0  0  0  0  0
  146.8067  125.6390  150.9067 H   0  0  0  0  0  0  0  0  0  0  0  0
  147.4344  125.8745  152.5335 H   0  0  0  0  0  0  0  0  0  0  0  0
  148.3147  126.5185  151.1258 H   0  0  0  0  0  0  0  0  0  0  0  0
  148.9711  127.6602  153.0011 H   0  0  0  0  0  0  0  0  0  0  0  0
  149.7826  129.6013  154.2445 H   0  0  0  0  0  0  0  0  0  0  0  0
  149.5894  131.7749  154.9689 H   0  0  0  0  0  0  0  0  0  0  0  0
  148.7516  132.8636  153.8912 H   0  0  0  0  0  0  0  0  0  0  0  0
  147.2269  131.8079  156.1580 H   0  0  0  0  0  0  0  0  0  0  0  0
  143.9904  133.5956  153.7083 H   0  0  0  0  0  0  0  0  0  0  0  0
  142.9876  135.0399  153.8005 H   0  0  0  0  0  0  0  0  0  0  0  0
  143.8489  133.5143  151.3984 H   0  0  0  0  0  0  0  0  0  0  0  0
  142.4695  134.6032  151.5433 H   0  0  0  0  0  0  0  0  0  0  0  0
  144.6778  135.3648  150.1213 H   0  0  0  0  0  0  0  0  0  0  0  0
  143.8477  136.5315  151.1568 H   0  0  0  0  0  0  0  0  0  0  0  0
  145.9820  137.7276  152.6178 H   0  0  0  0  0  0  0  0  0  0  0  0
  147.4303  136.7689  152.3582 H   0  0  0  0  0  0  0  0  0  0  0  0
  145.6707  137.7856  150.4373 H   0  0  0  0  0  0  0  0  0  0  0  0
  146.7465  136.7516  157.2349 H   0  0  0  0  0  0  0  0  0  0  0  0
  149.4017  135.9087  159.9573 H   0  0  0  0  0  0  0  0  0  0  0  0
  148.4826  137.0610  159.0581 H   0  0  0  0  0  0  0  0  0  0  0  0
  148.2931  137.0739  164.1262 H   0  0  0  0  0  0  0  0  0  0  0  0
  145.8458  137.7468  164.0893 H   0  0  0  0  0  0  0  0  0  0  0  0
  144.6647  137.6068  161.8474 H   0  0  0  0  0  0  0  0  0  0  0  0
  146.1875  131.7716  153.2545 H   0  0  0  0  0  0  0  0  0  0  0  0
  1  2  1  0  0  0  0
  1 36  1  0  0  0  0
  1 37  1  0  0  0  0
  1 38  1  0  0  0  0
  2  3  1  0  0  0  0
  3 33  1  0  0  0  0
  3  4  2  0  0  0  0
  4  5  1  0  0  0  0
  4 39  1  0  0  0  0
  5  6  2  0  0  0  0
  5 40  1  0  0  0  0
  6  7  1  0  0  0  0
  6 32  1  0  0  0  0
  7  8  1  0  0  0  0
  7 41  1  0  0  0  0
  7 42  1  0  0  0  0
  8  9  1  0  0  0  0
  8 43  1  0  0  0  0
  9 21  1  0  0  0  0
  9 10  2  0  0  0  0
 10 11  1  0  0  0  0
 11 12  1  0  0  0  0
 11 19  2  0  0  0  0
 12 16  1  0  0  0  0
 12 13  1  0  0  0  0
 13 14  1  0  0  0  0
 13 44  1  0  0  0  0
 13 45  1  0  0  0  0
 14 15  1  0  0  0  0
 14 46  1  0  0  0  0
 14 47  1  0  0  0  0
 15 16  1  0  0  0  0
 15 48  1  0  0  0  0
 15 49  1  0  0  0  0
 16 35  1  0  0  0  0
 16 17  1  0  0  0  0
 17 18  1  0  0  0  0
 17 50  1  0  0  0  0
 17 51  1  0  0  0  0
 18 52  1  0  0  0  0
 19 20  1  0  0  0  0
 20 21  2  0  0  0  0
 20 53  1  0  0  0  0
 21 22  1  0  0  0  0
 22 23  2  0  0  0  0
 22 24  1  0  0  0  0
 24 25  1  0  0  0  0
 25 26  1  0  0  0  0
 25 54  1  0  0  0  0
 25 55  1  0  0  0  0
 26 31  1  0  0  0  0
 26 27  2  0  0  0  0
 27 28  1  0  0  0  0
 28 29  2  0  0  0  0
 28 56  1  0  0  0  0
 29 30  1  0  0  0  0
 29 57  1  0  0  0  0
 30 31  2  0  0  0  0
 30 58  1  0  0  0  0
 32 33  2  0  0  0  0
 32 59  1  0  0  0  0
 33 34  1  0  0  0  0
M  CHG  1  24  -1
M  END
> <s_m_source_file>
AV-unprocessed.smi

> <i_m_source_file_index>
45

> <i_lp_mmshare_version>
43012

> <i_f3d_flags>
0

> <s_epik_input>
W0NIM11PYzFbY0hdW2NIXWMoW2NIXWMxQ2wpW0NIMl1bTkhdYzJuYyhOM1tDSDJdW0NIMl1bQ0gyXVtDQEhdM1tDSDJdW09IXSluW2NIXWMyQyg9TylbTkhdW0NIMl1jNG5bY0hdW2NIXVtjSF1uNA==

> <s_epik_cmdline>
J2VwaWtfcHl0aG9uJywgJy1waCcsICc3LjAnLCAnLXRuJywgJzgnLCAnLW1hJywgJzIwMCcsICctbWV0YWxfYmluZGluZycsICctaW1hZScsICc8aW5maWxlLm1hZT4nLCAnLW9tYWUnLCAnPG91dGZpbGUubWFlPic=

> <r_lp_tautomer_probability>
1

> <r_epik_Ionization_Penalty>
7.35269

> <r_epik_Ionization_Penalty_Charging>
6.82087

> <r_epik_Ionization_Penalty_Neutral>
0.53182

> <r_epik_State_Penalty>
6.85781

> <r_epik_Charging_Adjusted_Penalty>
13.6787

> <i_epik_Tot_Q>
-1

> <i_epik_Tot_abs_Q>
1

> <r_epik_Metal_State_Penalty>
2.8146

> <b_epik_Metal_Only>
1

> <s_epik_Chemistry_Notes>
This compound contains an electron-poor aromatic ring that is susceptible to covalent hydrolysis at low pH, typically resulting in measured values for nitrogen ring protonation that are around two units higher than predicted values.

> <s_lp_Force_Field>
OPLS_2005

> <r_lp_Energy>
41.892

> <b_lp_Chiralities_Consistent>
1

> <s_lp_Variant>
AV-unprocessed.smi:45-7

> <Gold.Version>
5.8.1

> <Gold.Id.Protein>
6NUR|6NUR_protein|mol2

> <Gold.PLP.Fitness>
51.4915

> <Gold.PLP.PLP>
-42.3600

> <Gold.PLP.part.hbond>
-5.4009

> <Gold.PLP.part.metal>
0.0000

> <Gold.PLP.part.buried>
-0.5677

> <Gold.PLP.part.nonpolar>
-36.2892

> <Gold.PLP.part.repulsive>
0.2055

> <Gold.PLP.ligand.clash>
0.0000

> <Gold.PLP.ligand.torsion>
1.8967

> <Gold.PLP.Chemscore.Hbond>
4.0000

> <Gold.PLP.Chemscore.CHOScore>
0.0000

> <Gold.PLP.Chemscore.Metal>
0.0000

> <Gold.Chemscore.Hbonds>
donor molecule, donor type, donor heavy atom, donor atom, acceptor molecule, acceptor atom, score
      L1  H    18    52       P1 10171  0.94
      P1  H  6896  6909       L1    23  0.63
      P1  H  6931  6943       L1    27  0.43
      P1  H  6934  6947       L1    31  0.01
      P1  H  7954  7966       L1    18  1.00

> <Gold.PLP.Chemscore.Internal.Correction>
0.9249

> <Gold.Rescore>
     Score         DG    S(hbond)    S(metal)    S(lipo)     H(rot)  DE(clash)    DE(int)     intcor
     14.40     -20.82       3.38        0.00     107.94       3.36       2.92       3.50       ----

> <Gold.Chemscore.Fitness>
14.4038

> <Gold.Chemscore.DG>
-20.8156

> <Gold.Chemscore.ZeroCoef>
-5.4800

> <Gold.Chemscore.Hbond>
3.3825

> <Gold.Chemscore.Metal>
0.0000

> <Gold.Chemscore.Lipo>
107.9430

> <Gold.Chemscore.Internal_Hbond>
0.0000

> <Gold.Chemscore.DEClash>
2.9159

> <Gold.Chemscore.DEInternal>
3.4958

> <Gold.Chemscore.Rot>
3.3560

> <Gold.Chemscore.Internal.Correction>
   9.000000E+99

> <Gold.Chemscore.Hbonds>
donor molecule, donor type, donor heavy atom, donor atom, acceptor molecule, acceptor atom, score
      L1  H    18    52       P1 10171  0.90
      P1  H  6896  6909       L1    23  0.55
      P1  H  7954  7966       L1    18  0.93

> <Gold.Chemscore.Hbond.Weighted>
-11.2975

> <Gold.Chemscore.Metal.Weighted>
-0.0000

> <Gold.Chemscore.Lipo.Weighted>
-12.6293

> <Gold.Chemscore.Internal_Hbond.Weighted>
0.0000

> <Gold.Chemscore.DEClash.Weighted>
2.9159

> <Gold.Chemscore.DEInternal.Weighted>
3.4958

> <Gold.Chemscore.Rot.Weighted>
8.5912

> <Gold.Chemscore.Internal.Correction.Weighted>
   9.000000E+99

> <Gold.Protein.RotatedTorsions>
[ 6907 6896 6895 6894 ] final   14.78 input  -60.11 | X-H torsion
[ 7974 7965 7964 7962 ] final  156.06 input  175.53 | X-H torsion
[ 8008 7997 7996 7995 ] final -162.47 input   59.86 | X-H torsion
[ 10167 10162 10161 10158 ] final   19.05 input  -65.29 | X-H torsion
[ 10718 10713 10712 10709 ] final   90.28 input   66.30 | X-H torsion
[ 10763 10752 10751 10750 ] final -167.54 input  -60.55 | X-H torsion
[ 11005 11000 10999 10996 ] final   39.80 input  -57.11 | X-H torsion

> <Gold.Protein.ActiveResidues>
 VAL166  LYS551  ARG553  GLY616  TRP617  ASP618  TYR619  PRO620  LYS621  CYS622 
 ASP623  PHE694  ASN695  SER759  ASP760  ASP761  ALA762  ILE779  LEU786  VAL792 
 PHE793  MET794  SER795  GLU796  ALA797  LYS798  CYS799  TRP800  GLU811  SER814 

> <Gold.Protein.RotatedAtoms>
  151.8076  135.0690  160.0408 H   0  0  0  0  0  0  0  0  0  0  0  0  # atno 6907 bound_to 6896
  152.3043  133.5683  159.5647 H   0  0  0  0  0  0  0  0  0  0  0  0  # atno 6908 bound_to 6896
  150.7289  134.0161  159.3728 H   0  0  0  0  0  0  0  0  0  0  0  0  # atno 6909 bound_to 6896
  144.7986  139.7152  143.6191 H   0  0  0  0  0  0  0  0  0  0  0  0  # atno 7974 bound_to 7965
  155.8072  140.0900  157.1924 H   0  0  0  0  0  0  0  0  0  0  0  0  # atno 8008 bound_to 7997
  154.3980  140.1461  156.3403 H   0  0  0  0  0  0  0  0  0  0  0  0  # atno 8009 bound_to 7997
  155.8402  140.3439  155.5630 H   0  0  0  0  0  0  0  0  0  0  0  0  # atno 8010 bound_to 7997
  140.5608  143.9341  150.6641 H   0  0  0  0  0  0  0  0  0  0  0  0  # atno 10167 bound_to 10162
  157.6958  131.0364  150.3553 H   0  0  0  0  0  0  0  0  0  0  0  0  # atno 10718 bound_to 10713
  154.6721  135.2941  154.9728 H   0  0  0  0  0  0  0  0  0  0  0  0  # atno 10763 bound_to 10752
  154.0752  135.6612  153.4834 H   0  0  0  0  0  0  0  0  0  0  0  0  # atno 10764 bound_to 10752
  153.0493  135.5184  154.7722 H   0  0  0  0  0  0  0  0  0  0  0  0  # atno 10765 bound_to 10752
  140.1993  134.3890  155.8104 H   0  0  0  0  0  0  0  0  0  0  0  0  # atno 11005 bound_to 11000
  146.2262  139.5727  142.9586 LP  0  0  0  0  0  0  0  0  0  0  0  0  # atno 17320 bound_to 7965
  145.5609  141.0404  143.2226 LP  0  0  0  0  0  0  0  0  0  0  0  0  # atno 17321 bound_to 7965
  140.2791  143.3402  152.1167 LP  0  0  0  0  0  0  0  0  0  0  0  0  # atno 17342 bound_to 10162
  139.5069  144.6822  151.5979 LP  0  0  0  0  0  0  0  0  0  0  0  0  # atno 17343 bound_to 10162
  156.3996  130.3913  149.6969 LP  0  0  0  0  0  0  0  0  0  0  0  0  # atno 17370 bound_to 10713
  156.4291  130.7806  151.2825 LP  0  0  0  0  0  0  0  0  0  0  0  0  # atno 17371 bound_to 10713
  141.2227  133.7086  156.8230 LP  0  0  0  0  0  0  0  0  0  0  0  0  # atno 17394 bound_to 11000
  140.2072  134.8854  157.3234 LP  0  0  0  0  0  0  0  0  0  0  0  0  # atno 17395 bound_to 11000

$$$$
