AV-unprocessed.smi:1673|AV-procd|sdf|6711|dock7
  -GOLD-   22720 7453D 1   1.00000     0.00000
 Structure written by MMmdl.
 39 40  0  0  0  0  0  0  0  0  1 V2000
  148.9517  137.0857  159.3450 C   0  0  0  0  0  0  0  0  0  0  0  0
  149.4863  137.4921  157.9996 C   0  0  0  0  0  0  0  0  0  0  0  0
  149.3489  136.6620  156.9760 N   0  0  0  0  0  0  0  0  0  0  0  0
  149.9913  137.2609  155.8814 O   0  0  0  0  0  0  0  0  0  0  0  0
  150.5070  138.4549  156.2737 C   0  0  0  0  0  0  0  0  0  0  0  0
  151.2496  139.2433  155.2483 C   0  0  0  0  0  0  0  0  0  0  0  0
  150.1936  138.6589  157.5849 C   0  0  0  0  0  0  0  0  0  0  0  0
  150.5935  139.7885  158.3416 N   0  0  0  0  0  0  0  0  0  0  0  0
  151.7801  140.4120  158.2922 C   0  0  0  0  0  0  0  0  0  0  0  0
  152.7386  140.0463  157.6125 O   0  0  0  0  0  0  0  0  0  0  0  0
  151.7982  141.4851  159.0955 N   0  0  0  0  0  0  0  0  0  0  0  0
  152.9233  142.4032  159.2842 C   0  0  2  0  0  0  0  0  0  0  0  0
  153.5524  142.1770  160.6736 C   0  0  0  0  0  0  0  0  0  0  0  0
  152.6328  142.6490  161.8134 C   0  0  0  0  0  0  0  0  0  0  0  0
  152.2208  144.1166  161.6246 C   0  0  0  0  0  0  0  0  0  0  0  0
  151.5738  144.3453  160.2492 C   0  0  0  0  0  0  0  0  0  0  0  0
  152.4982  143.8838  159.1034 C   0  0  2  0  0  0  0  0  0  0  0  0
  151.8791  144.1743  157.7254 C   0  0  0  0  0  0  0  0  0  0  0  0
  149.5690  137.4801  160.1520 H   0  0  0  0  0  0  0  0  0  0  0  0
  148.9303  136.0010  159.4548 H   0  0  0  0  0  0  0  0  0  0  0  0
  147.9350  137.4518  159.4885 H   0  0  0  0  0  0  0  0  0  0  0  0
  151.7267  140.1160  155.6938 H   0  0  0  0  0  0  0  0  0  0  0  0
  150.5743  139.5902  154.4665 H   0  0  0  0  0  0  0  0  0  0  0  0
  152.0254  138.6364  154.7815 H   0  0  0  0  0  0  0  0  0  0  0  0
  149.9372  140.1108  159.0376 H   0  0  0  0  0  0  0  0  0  0  0  0
  150.9587  141.6963  159.6147 H   0  0  0  0  0  0  0  0  0  0  0  0
  153.6938  142.1794  158.5442 H   0  0  0  0  0  0  0  0  0  0  0  0
  153.8038  141.1241  160.8076 H   0  0  0  0  0  0  0  0  0  0  0  0
  154.4958  142.7216  160.7311 H   0  0  0  0  0  0  0  0  0  0  0  0
  151.7420  142.0212  161.8553 H   0  0  0  0  0  0  0  0  0  0  0  0
  153.1387  142.5267  162.7715 H   0  0  0  0  0  0  0  0  0  0  0  0
  151.5302  144.4127  162.4145 H   0  0  0  0  0  0  0  0  0  0  0  0
  153.0975  144.7577  161.7257 H   0  0  0  0  0  0  0  0  0  0  0  0
  150.6234  143.8122  160.1990 H   0  0  0  0  0  0  0  0  0  0  0  0
  151.3368  145.4032  160.1323 H   0  0  0  0  0  0  0  0  0  0  0  0
  153.4080  144.4832  159.1654 H   0  0  0  0  0  0  0  0  0  0  0  0
  150.9199  143.6723  157.5978 H   0  0  0  0  0  0  0  0  0  0  0  0
  152.5381  143.8442  156.9220 H   0  0  0  0  0  0  0  0  0  0  0  0
  151.7088  145.2429  157.5923 H   0  0  0  0  0  0  0  0  0  0  0  0
  1  2  1  0  0  0  0
  1 19  1  0  0  0  0
  1 20  1  0  0  0  0
  1 21  1  0  0  0  0
  2  7  1  0  0  0  0
  2  3  2  0  0  0  0
  3  4  1  0  0  0  0
  4  5  1  0  0  0  0
  5  6  1  0  0  0  0
  5  7  2  0  0  0  0
  6 22  1  0  0  0  0
  6 23  1  0  0  0  0
  6 24  1  0  0  0  0
  7  8  1  0  0  0  0
  8  9  1  0  0  0  0
  8 25  1  0  0  0  0
  9 10  2  0  0  0  0
  9 11  1  0  0  0  0
 11 12  1  0  0  0  0
 11 26  1  0  0  0  0
 12 17  1  0  0  0  0
 12 13  1  0  0  0  0
 12 27  1  0  0  0  0
 13 14  1  0  0  0  0
 13 28  1  0  0  0  0
 13 29  1  0  0  0  0
 14 15  1  0  0  0  0
 14 30  1  0  0  0  0
 14 31  1  0  0  0  0
 15 16  1  0  0  0  0
 15 32  1  0  0  0  0
 15 33  1  0  0  0  0
 16 17  1  0  0  0  0
 16 34  1  0  0  0  0
 16 35  1  0  0  0  0
 17 18  1  0  0  0  0
 17 36  1  0  0  0  0
 18 37  1  0  0  0  0
 18 38  1  0  0  0  0
 18 39  1  0  0  0  0
M  END
> <s_m_source_file>
AV-unprocessed.smi

> <i_m_source_file_index>
1673

> <i_lp_mmshare_version>
43012

> <i_f3d_flags>
0

> <s_epik_input>
W0NIM11jMW5vYyhbQ0gzXSljMVtOSF1DKD1PKVtOSF1bQ0BASF0yW0NIMl1bQ0gyXVtDSDJdW0NIMl1bQ0BIXTJbQ0gzXQ==

> <s_epik_cmdline>
J2VwaWtfcHl0aG9uJywgJy1waCcsICc3LjAnLCAnLXRuJywgJzgnLCAnLW1hJywgJzIwMCcsICctbWV0YWxfYmluZGluZycsICctaW1hZScsICc8aW5maWxlLm1hZT4nLCAnLW9tYWUnLCAnPG91dGZpbGUubWFlPic=

> <r_lp_tautomer_probability>
1

> <r_epik_Ionization_Penalty>
4.01865e-05

> <r_epik_Ionization_Penalty_Charging>
0

> <r_epik_Ionization_Penalty_Neutral>
4.01865e-05

> <r_epik_State_Penalty>
-0

> <r_epik_Charging_Adjusted_Penalty>
0

> <i_epik_Tot_Q>
0

> <i_epik_Tot_abs_Q>
0

> <r_epik_Metal_State_Penalty>
-0

> <b_epik_Metal_Only>
0

> <s_lp_Force_Field>
OPLS_2005

> <r_lp_Energy>
11.4641

> <b_lp_Chiralities_Consistent>
1

> <s_lp_Variant>
AV-unprocessed.smi:1673-3

> <Gold.Version>
5.8.1

> <Gold.Id.Protein>
6NUR|6NUR_protein|mol2

> <Gold.PLP.Fitness>
40.6492

> <Gold.PLP.PLP>
-38.2707

> <Gold.PLP.part.hbond>
-1.0000

> <Gold.PLP.part.metal>
0.0000

> <Gold.PLP.part.buried>
-4.3597

> <Gold.PLP.part.nonpolar>
-33.2541

> <Gold.PLP.part.repulsive>
0.3363

> <Gold.PLP.ligand.clash>
0.0000

> <Gold.PLP.ligand.torsion>
0.4319

> <Gold.PLP.Chemscore.Hbond>
1.0000

> <Gold.PLP.Chemscore.CHOScore>
0.0000

> <Gold.PLP.Chemscore.Metal>
0.0000

> <Gold.Chemscore.Hbonds>
donor molecule, donor type, donor heavy atom, donor atom, acceptor molecule, acceptor atom, score
      P1  H  7997  8009       L1    10  1.00

> <Gold.PLP.Chemscore.Internal.Correction>
0.2424

> <Gold.Rescore>
     Score         DG    S(hbond)    S(metal)    S(lipo)     H(rot)  DE(clash)    DE(int)     intcor
     18.03     -18.59       0.99        0.00     105.64       1.00       0.03       0.53       ----

> <Gold.Chemscore.Fitness>
18.0297

> <Gold.Chemscore.DG>
-18.5859

> <Gold.Chemscore.ZeroCoef>
-5.4800

> <Gold.Chemscore.Hbond>
0.9898

> <Gold.Chemscore.Metal>
0.0000

> <Gold.Chemscore.Lipo>
105.6418

> <Gold.Chemscore.Internal_Hbond>
0.0000

> <Gold.Chemscore.DEClash>
0.0306

> <Gold.Chemscore.DEInternal>
0.5256

> <Gold.Chemscore.Rot>
1.0000

> <Gold.Chemscore.Internal.Correction>
   9.000000E+99

> <Gold.Chemscore.Hbonds>
donor molecule, donor type, donor heavy atom, donor atom, acceptor molecule, acceptor atom, score
      P1  H  7997  8009       L1    10  0.98

> <Gold.Chemscore.Hbond.Weighted>
-3.3058

> <Gold.Chemscore.Metal.Weighted>
-0.0000

> <Gold.Chemscore.Lipo.Weighted>
-12.3601

> <Gold.Chemscore.Internal_Hbond.Weighted>
0.0000

> <Gold.Chemscore.DEClash.Weighted>
0.0306

> <Gold.Chemscore.DEInternal.Weighted>
0.5256

> <Gold.Chemscore.Rot.Weighted>
2.5600

> <Gold.Chemscore.Internal.Correction.Weighted>
   9.000000E+99

> <Gold.Protein.RotatedTorsions>
[ 6907 6896 6895 6894 ] final  -89.27 input  -60.11 | X-H torsion
[ 7974 7965 7964 7962 ] final -164.35 input  175.53 | X-H torsion
[ 8008 7997 7996 7995 ] final  168.37 input   59.86 | X-H torsion
[ 10167 10162 10161 10158 ] final  -61.71 input  -65.29 | X-H torsion
[ 10718 10713 10712 10709 ] final  149.16 input   66.30 | X-H torsion
[ 10763 10752 10751 10750 ] final   62.36 input  -60.55 | X-H torsion
[ 11005 11000 10999 10996 ] final   -9.52 input  -57.11 | X-H torsion

> <Gold.Protein.ActiveResidues>
 VAL166  LYS551  ARG553  GLY616  TRP617  ASP618  TYR619  PRO620  LYS621  CYS622 
 ASP623  PHE694  ASN695  SER759  ASP760  ASP761  ALA762  ILE779  LEU786  VAL792 
 PHE793  MET794  SER795  GLU796  ALA797  LYS798  CYS799  TRP800  GLU811  SER814 

> <Gold.Protein.RotatedAtoms>
  150.6873  134.2613  159.4550 H   0  0  0  0  0  0  0  0  0  0  0  0  # atno 6907 bound_to 6896
  152.0543  134.9632  160.0584 H   0  0  0  0  0  0  0  0  0  0  0  0  # atno 6908 bound_to 6896
  152.1084  133.4252  159.4656 H   0  0  0  0  0  0  0  0  0  0  0  0  # atno 6909 bound_to 6896
  144.7299  140.2973  143.6210 H   0  0  0  0  0  0  0  0  0  0  0  0  # atno 7974 bound_to 7965
  156.1552  140.1592  156.8704 H   0  0  0  0  0  0  0  0  0  0  0  0  # atno 8008 bound_to 7997
  154.5108  140.0801  156.8023 H   0  0  0  0  0  0  0  0  0  0  0  0  # atno 8009 bound_to 7997
  155.3816  140.3405  155.4249 H   0  0  0  0  0  0  0  0  0  0  0  0  # atno 8010 bound_to 7997
  140.5987  143.2356  151.5977 H   0  0  0  0  0  0  0  0  0  0  0  0  # atno 10167 bound_to 10162
  157.2996  131.0868  151.1400 H   0  0  0  0  0  0  0  0  0  0  0  0  # atno 10718 bound_to 10713
  152.9980  135.5468  154.6181 H   0  0  0  0  0  0  0  0  0  0  0  0  # atno 10763 bound_to 10752
  154.5486  135.2825  155.1031 H   0  0  0  0  0  0  0  0  0  0  0  0  # atno 10764 bound_to 10752
  154.2280  135.6438  153.5218 H   0  0  0  0  0  0  0  0  0  0  0  0  # atno 10765 bound_to 10752
  140.7350  133.8717  155.8923 H   0  0  0  0  0  0  0  0  0  0  0  0  # atno 11005 bound_to 11000
  145.7795  139.1886  143.2166 LP  0  0  0  0  0  0  0  0  0  0  0  0  # atno 17320 bound_to 7965
  146.0845  140.7726  142.9625 LP  0  0  0  0  0  0  0  0  0  0  0  0  # atno 17321 bound_to 7965
  139.5276  144.3012  152.1072 LP  0  0  0  0  0  0  0  0  0  0  0  0  # atno 17342 bound_to 10162
  140.2189  144.4487  150.6351 LP  0  0  0  0  0  0  0  0  0  0  0  0  # atno 17343 bound_to 10162
  157.2764  130.6729  149.6044 LP  0  0  0  0  0  0  0  0  0  0  0  0  # atno 17370 bound_to 10713
  155.9671  130.4463  150.5536 LP  0  0  0  0  0  0  0  0  0  0  0  0  # atno 17371 bound_to 10713
  140.9887  134.1308  157.4428 LP  0  0  0  0  0  0  0  0  0  0  0  0  # atno 17394 bound_to 11000
  139.8818  135.0033  156.6182 LP  0  0  0  0  0  0  0  0  0  0  0  0  # atno 17395 bound_to 11000

$$$$
