AV-unprocessed.smi:2172|AV-procd|sdf|8836|dock2
  -GOLD-   2272012 33D 1   1.00000     0.00000
 Structure written by MMmdl.
 37 39  0  0  0  0  0  0  0  0  2 V2000
  150.8167  140.1689  154.8462 O   0  0  0  0  0  0  0  0  0  0  0  0
  149.8904  140.6141  155.8122 C   0  0  0  0  0  0  0  0  0  0  0  0
  150.5094  141.5441  156.8031 C   0  0  0  0  0  0  0  0  0  0  0  0
  150.4774  142.9049  156.7401 N   0  3  0  0  0  0  0  0  0  0  0  0
  151.1807  143.4454  157.8166 C   0  0  0  0  0  0  0  0  0  0  0  0
  151.4281  144.7687  158.1682 C   0  0  0  0  0  0  0  0  0  0  0  0
  152.1956  144.9816  159.3319 C   0  0  0  0  0  0  0  0  0  0  0  0
  152.6820  143.9023  160.0971 C   0  0  0  0  0  0  0  0  0  0  0  0
  152.4205  142.5652  159.7329 C   0  0  0  0  0  0  0  0  0  0  0  0
  151.6631  142.3614  158.5788 C   0  0  0  0  0  0  0  0  0  0  0  0
  151.2259  141.2071  157.9150 N   0  0  0  0  0  0  0  0  0  0  0  0
  151.5832  139.8801  158.4452 C   0  0  0  0  0  0  0  0  0  0  0  0
  153.1083  139.6803  158.5558 C   0  0  2  0  0  0  0  0  0  0  0  0
  153.5459  138.9809  157.4093 O   0  0  0  0  0  0  0  0  0  0  0  0
  153.5091  138.9831  159.8483 C   0  0  0  0  0  0  0  0  0  0  0  0
  154.2578  139.6821  160.8196 C   0  0  0  0  0  0  0  0  0  0  0  0
  154.6040  139.0587  162.0340 C   0  0  0  0  0  0  0  0  0  0  0  0
  154.2054  137.7312  162.2834 C   0  0  0  0  0  0  0  0  0  0  0  0
  154.6249  136.9690  163.7731 Cl  0  0  0  0  0  0  0  0  0  0  0  0
  153.4611  137.0274  161.3169 C   0  0  0  0  0  0  0  0  0  0  0  0
  153.1136  137.6511  160.1031 C   0  0  0  0  0  0  0  0  0  0  0  0
  150.4653  139.3996  154.4240 H   0  0  0  0  0  0  0  0  0  0  0  0
  149.0676  141.1204  155.3070 H   0  0  0  0  0  0  0  0  0  0  0  0
  149.4660  139.7519  156.3264 H   0  0  0  0  0  0  0  0  0  0  0  0
  151.0581  145.5972  157.5822 H   0  0  0  0  0  0  0  0  0  0  0  0
  152.4168  145.9923  159.6429 H   0  0  0  0  0  0  0  0  0  0  0  0
  153.2689  144.1029  160.9818 H   0  0  0  0  0  0  0  0  0  0  0  0
  152.8047  141.7501  160.3274 H   0  0  0  0  0  0  0  0  0  0  0  0
  151.0898  139.7190  159.4035 H   0  0  0  0  0  0  0  0  0  0  0  0
  151.1587  139.1410  157.7653 H   0  0  0  0  0  0  0  0  0  0  0  0
  153.5973  140.6544  158.5227 H   0  0  0  0  0  0  0  0  0  0  0  0
  152.8300  138.9365  156.7937 H   0  0  0  0  0  0  0  0  0  0  0  0
  154.5594  140.7039  160.6404 H   0  0  0  0  0  0  0  0  0  0  0  0
  155.1733  139.6016  162.7741 H   0  0  0  0  0  0  0  0  0  0  0  0
  153.1526  136.0098  161.5065 H   0  0  0  0  0  0  0  0  0  0  0  0
  152.5331  137.1063  159.3730 H   0  0  0  0  0  0  0  0  0  0  0  0
  150.0139  143.4238  156.0055 H   0  0  0  0  0  0  0  0  0  0  0  0
  1  2  1  0  0  0  0
  1 22  1  0  0  0  0
  2  3  1  0  0  0  0
  2 23  1  0  0  0  0
  2 24  1  0  0  0  0
  3 11  1  0  0  0  0
  3  4  2  0  0  0  0
  4  5  1  0  0  0  0
  4 37  1  0  0  0  0
  5 10  2  0  0  0  0
  5  6  1  0  0  0  0
  6  7  2  0  0  0  0
  6 25  1  0  0  0  0
  7  8  1  0  0  0  0
  7 26  1  0  0  0  0
  8  9  2  0  0  0  0
  8 27  1  0  0  0  0
  9 10  1  0  0  0  0
  9 28  1  0  0  0  0
 10 11  1  0  0  0  0
 11 12  1  0  0  0  0
 12 13  1  0  0  0  0
 12 29  1  0  0  0  0
 12 30  1  0  0  0  0
 13 14  1  0  0  0  0
 13 15  1  0  0  0  0
 13 31  1  0  0  0  0
 14 32  1  0  0  0  0
 15 21  1  0  0  0  0
 15 16  2  0  0  0  0
 16 17  1  0  0  0  0
 16 33  1  0  0  0  0
 17 18  2  0  0  0  0
 17 34  1  0  0  0  0
 18 19  1  0  0  0  0
 18 20  1  0  0  0  0
 20 21  2  0  0  0  0
 20 35  1  0  0  0  0
 21 36  1  0  0  0  0
M  CHG  1   4   1
M  END
> <s_m_source_file>
AV-unprocessed.smi

> <i_m_source_file_index>
2172

> <i_lp_mmshare_version>
43012

> <i_f3d_flags>
0

> <s_epik_input>
W2NIXTFbY0hdW2NIXVtjSF1jKGMxMiluKGMobjIpW0NIMl1bT0hdKVtDSDJdW0NASF0oW09IXSljM1tjSF1bY0hdYyhDbClbY0hdW2NIXTM=

> <s_epik_cmdline>
J2VwaWtfcHl0aG9uJywgJy1waCcsICc3LjAnLCAnLXRuJywgJzgnLCAnLW1hJywgJzIwMCcsICctbWV0YWxfYmluZGluZycsICctaW1hZScsICc8aW5maWxlLm1hZT4nLCAnLW9tYWUnLCAnPG91dGZpbGUubWFlPic=

> <r_epik_Ionization_Penalty>
1.35643

> <r_epik_Ionization_Penalty_Charging>
1.35557

> <r_epik_Ionization_Penalty_Neutral>
0.000858184

> <r_epik_State_Penalty>
1.43401

> <r_epik_Charging_Adjusted_Penalty>
2.78958

> <i_epik_Tot_Q>
1

> <i_epik_Tot_abs_Q>
1

> <r_epik_Metal_State_Penalty>
5.47166

> <b_epik_Metal_Only>
0

> <s_lp_Force_Field>
OPLS_2005

> <r_lp_Energy>
15.2583

> <b_lp_Chiralities_Consistent>
1

> <s_lp_Variant>
AV-unprocessed.smi:2172-3

> <Gold.Version>
5.8.1

> <Gold.Id.Protein>
6NUR|6NUR_protein|mol2

> <Gold.PLP.Fitness>
57.1802

> <Gold.PLP.PLP>
-47.6479

> <Gold.PLP.part.hbond>
-2.9713

> <Gold.PLP.part.metal>
0.0000

> <Gold.PLP.part.buried>
-5.9879

> <Gold.PLP.part.nonpolar>
-38.8002

> <Gold.PLP.part.repulsive>
0.0442

> <Gold.PLP.ligand.clash>
0.0000

> <Gold.PLP.ligand.torsion>
0.9304

> <Gold.PLP.Chemscore.Hbond>
3.7920

> <Gold.PLP.Chemscore.CHOScore>
0.0000

> <Gold.PLP.Chemscore.Metal>
0.0000

> <Gold.Chemscore.Hbonds>
donor molecule, donor type, donor heavy atom, donor atom, acceptor molecule, acceptor atom, score
      L1  H     4    37       P1  8028  1.79
      P1  H  7989  7998       L1     1  0.95
      P1  H  7997  8008       L1    14  0.91

> <Gold.PLP.Chemscore.Internal.Correction>
0.0170

> <Gold.Rescore>
     Score         DG    S(hbond)    S(metal)    S(lipo)     H(rot)  DE(clash)    DE(int)     intcor
     18.89     -19.81       1.67        0.00     133.93       2.70       0.03       0.90       ----

> <Gold.Chemscore.Fitness>
18.8866

> <Gold.Chemscore.DG>
-19.8146

> <Gold.Chemscore.ZeroCoef>
-5.4800

> <Gold.Chemscore.Hbond>
1.6667

> <Gold.Chemscore.Metal>
0.0000

> <Gold.Chemscore.Lipo>
133.9337

> <Gold.Chemscore.Internal_Hbond>
0.0000

> <Gold.Chemscore.DEClash>
0.0317

> <Gold.Chemscore.DEInternal>
0.8964

> <Gold.Chemscore.Rot>
2.6963

> <Gold.Chemscore.Internal.Correction>
   9.000000E+99

> <Gold.Chemscore.Hbonds>
donor molecule, donor type, donor heavy atom, donor atom, acceptor molecule, acceptor atom, score
      L1  H     4    37       P1  8028  0.88
      P1  H  7989  7998       L1     1  0.22
      P1  H  7997  8008       L1    14  0.09

> <Gold.Chemscore.Hbond.Weighted>
-5.5668

> <Gold.Chemscore.Metal.Weighted>
-0.0000

> <Gold.Chemscore.Lipo.Weighted>
-15.6702

> <Gold.Chemscore.Internal_Hbond.Weighted>
0.0000

> <Gold.Chemscore.DEClash.Weighted>
0.0317

> <Gold.Chemscore.DEInternal.Weighted>
0.8964

> <Gold.Chemscore.Rot.Weighted>
6.9024

> <Gold.Chemscore.Internal.Correction.Weighted>
   9.000000E+99

> <Gold.Protein.RotatedTorsions>
[ 6907 6896 6895 6894 ] final    4.28 input  -60.11 | X-H torsion
[ 7974 7965 7964 7962 ] final -170.97 input  175.53 | X-H torsion
[ 8008 7997 7996 7995 ] final  -71.52 input   59.86 | X-H torsion
[ 10167 10162 10161 10158 ] final  120.83 input  -65.29 | X-H torsion
[ 10718 10713 10712 10709 ] final  -22.17 input   66.30 | X-H torsion
[ 10763 10752 10751 10750 ] final   24.83 input  -60.55 | X-H torsion
[ 11005 11000 10999 10996 ] final   37.32 input  -57.11 | X-H torsion

> <Gold.Protein.ActiveResidues>
 VAL166  LYS551  ARG553  GLY616  TRP617  ASP618  TYR619  PRO620  LYS621  CYS622 
 ASP623  PHE694  ASN695  SER759  ASP760  ASP761  ALA762  ILE779  LEU786  VAL792 
 PHE793  MET794  SER795  GLU796  ALA797  LYS798  CYS799  TRP800  GLU811  SER814 

> <Gold.Protein.RotatedAtoms>
  151.6388  135.1015  160.0136 H   0  0  0  0  0  0  0  0  0  0  0  0  # atno 6907 bound_to 6896
  152.4066  133.6894  159.6370 H   0  0  0  0  0  0  0  0  0  0  0  0  # atno 6908 bound_to 6896
  150.7959  133.8616  159.3274 H   0  0  0  0  0  0  0  0  0  0  0  0  # atno 6909 bound_to 6896
  144.7163  140.1992  143.6340 H   0  0  0  0  0  0  0  0  0  0  0  0  # atno 7974 bound_to 7965
  154.5094  140.0814  156.7960 H   0  0  0  0  0  0  0  0  0  0  0  0  # atno 8008 bound_to 7997
  155.3819  140.3428  155.4229 H   0  0  0  0  0  0  0  0  0  0  0  0  # atno 8009 bound_to 7997
  156.1555  140.1572  156.8687 H   0  0  0  0  0  0  0  0  0  0  0  0  # atno 8010 bound_to 7997
  139.5957  144.7041  151.3182 H   0  0  0  0  0  0  0  0  0  0  0  0  # atno 10167 bound_to 10162
  156.5082  130.4604  149.6663 H   0  0  0  0  0  0  0  0  0  0  0  0  # atno 10718 bound_to 10713
  153.0735  135.6596  154.0196 H   0  0  0  0  0  0  0  0  0  0  0  0  # atno 10763 bound_to 10752
  153.9836  135.2953  155.3419 H   0  0  0  0  0  0  0  0  0  0  0  0  # atno 10764 bound_to 10752
  154.7117  135.5202  153.8746 H   0  0  0  0  0  0  0  0  0  0  0  0  # atno 10765 bound_to 10752
  140.2237  134.3610  155.7994 H   0  0  0  0  0  0  0  0  0  0  0  0  # atno 11005 bound_to 11000
  145.8695  139.2265  143.1669 LP  0  0  0  0  0  0  0  0  0  0  0  0  # atno 17320 bound_to 7965
  146.0098  140.8446  142.9977 LP  0  0  0  0  0  0  0  0  0  0  0  0  # atno 17321 bound_to 7965
  140.7210  143.7136  150.7750 LP  0  0  0  0  0  0  0  0  0  0  0  0  # atno 17342 bound_to 10162
  140.0702  143.5069  152.2584 LP  0  0  0  0  0  0  0  0  0  0  0  0  # atno 17343 bound_to 10162
  156.3266  130.7309  151.2231 LP  0  0  0  0  0  0  0  0  0  0  0  0  # atno 17370 bound_to 10713
  157.7454  131.0441  150.4777 LP  0  0  0  0  0  0  0  0  0  0  0  0  # atno 17371 bound_to 10713
  141.2222  133.7207  156.8617 LP  0  0  0  0  0  0  0  0  0  0  0  0  # atno 17394 bound_to 11000
  140.1823  134.9024  157.2963 LP  0  0  0  0  0  0  0  0  0  0  0  0  # atno 17395 bound_to 11000

$$$$
