AV-unprocessed.smi:199|AV-procd|sdf|1573|dock8
  -GOLD-   2262019453D 1   1.00000     0.00000
 Structure written by MMmdl.
 51 55  0  0  0  0  0  0  0  0  1 V2000
  152.8273  138.4731  154.6126 C   0  0  0  0  0  0  0  0  0  0  0  0
  152.1254  138.4790  155.9803 C   0  0  1  0  0  0  0  0  0  0  0  0
  152.9559  139.0793  156.9737 O   0  0  0  0  0  0  0  0  0  0  0  0
  152.2712  140.1545  157.6010 C   0  0  0  0  0  0  0  0  0  0  0  0
  150.7959  139.8114  157.4400 C   0  0  0  0  0  0  0  0  0  0  0  0
  150.7526  139.1876  156.0521 C   0  0  1  0  0  0  0  0  0  0  0  0
  150.6724  140.2327  155.0956 O   0  0  0  0  0  0  0  0  0  0  0  0
  149.5620  138.2247  155.8300 C   0  0  0  0  0  0  0  0  0  0  0  0
  149.1759  137.4954  157.0282 N   0  0  0  0  0  0  0  0  0  0  0  0
  149.9862  136.6990  157.8042 C   0  0  0  0  0  0  0  0  0  0  0  0
  149.4039  136.1537  158.8363 N   0  0  0  0  0  0  0  0  0  0  0  0
  148.0872  136.5940  158.7625 C   0  0  0  0  0  0  0  0  0  0  0  0
  146.9188  136.3852  159.5518 C   0  0  0  0  0  0  0  0  0  0  0  0
  146.8894  135.6046  160.6653 N   0  0  0  0  0  0  0  0  0  0  0  0
  147.7473  135.8780  161.8076 C   0  0  2  0  0  0  0  0  0  0  0  0
  147.5383  134.6250  162.6756 C   0  0  0  0  0  0  0  0  0  0  0  0
  146.0579  134.3110  162.4003 C   0  0  0  0  0  0  0  0  0  0  0  0
  145.6742  135.4641  161.4548 C   0  0  1  0  0  0  0  0  0  0  0  0
  145.5799  136.7678  162.2870 C   0  0  2  0  0  0  0  0  0  0  0  0
  144.7825  137.8952  161.6036 C   0  0  0  0  0  0  0  0  0  0  0  0
  143.4568  137.4749  161.3630 O   0  0  0  0  0  0  0  0  0  0  0  0
  147.0751  137.0858  162.4927 C   0  0  0  0  0  0  0  0  0  0  0  0
  145.7849  137.0286  159.1652 N   0  0  0  0  0  0  0  0  0  0  0  0
  145.7787  137.7965  158.0726 C   0  0  0  0  0  0  0  0  0  0  0  0
  146.7830  138.0655  157.2376 N   0  0  0  0  0  0  0  0  0  0  0  0
  147.9303  137.4419  157.6286 C   0  0  0  0  0  0  0  0  0  0  0  0
  152.1931  138.0229  153.8486 H   0  0  0  0  0  0  0  0  0  0  0  0
  153.7524  137.8984  154.6568 H   0  0  0  0  0  0  0  0  0  0  0  0
  153.0854  139.4812  154.2874 H   0  0  0  0  0  0  0  0  0  0  0  0
  152.0011  137.4433  156.2989 H   0  0  0  0  0  0  0  0  0  0  0  0
  152.5678  140.2640  158.6442 H   0  0  0  0  0  0  0  0  0  0  0  0
  152.5103  141.0820  157.0791 H   0  0  0  0  0  0  0  0  0  0  0  0
  150.5164  139.0737  158.1936 H   0  0  0  0  0  0  0  0  0  0  0  0
  150.1398  140.6752  157.5566 H   0  0  0  0  0  0  0  0  0  0  0  0
  150.3026  140.9953  155.5138 H   0  0  0  0  0  0  0  0  0  0  0  0
  148.6938  138.7726  155.4610 H   0  0  0  0  0  0  0  0  0  0  0  0
  149.8091  137.4927  155.0601 H   0  0  0  0  0  0  0  0  0  0  0  0
  151.0317  136.5389  157.5833 H   0  0  0  0  0  0  0  0  0  0  0  0
  148.7969  136.0461  161.5637 H   0  0  0  0  0  0  0  0  0  0  0  0
  148.1733  133.8048  162.3380 H   0  0  0  0  0  0  0  0  0  0  0  0
  147.7462  134.8051  163.7310 H   0  0  0  0  0  0  0  0  0  0  0  0
  145.9594  133.3490  161.8957 H   0  0  0  0  0  0  0  0  0  0  0  0
  145.4523  134.2793  163.3068 H   0  0  0  0  0  0  0  0  0  0  0  0
  144.7674  135.2405  160.8955 H   0  0  0  0  0  0  0  0  0  0  0  0
  145.1022  136.5536  163.2445 H   0  0  0  0  0  0  0  0  0  0  0  0
  144.7595  138.8009  162.2085 H   0  0  0  0  0  0  0  0  0  0  0  0
  145.2406  138.1566  160.6493 H   0  0  0  0  0  0  0  0  0  0  0  0
  142.9683  137.5443  162.1691 H   0  0  0  0  0  0  0  0  0  0  0  0
  147.3449  137.1758  163.5455 H   0  0  0  0  0  0  0  0  0  0  0  0
  147.3566  138.0165  161.9985 H   0  0  0  0  0  0  0  0  0  0  0  0
  144.8339  138.2625  157.8335 H   0  0  0  0  0  0  0  0  0  0  0  0
  1  2  1  0  0  0  0
  1 27  1  0  0  0  0
  1 28  1  0  0  0  0
  1 29  1  0  0  0  0
  2  6  1  0  0  0  0
  2  3  1  0  0  0  0
  2 30  1  0  0  0  0
  3  4  1  0  0  0  0
  4  5  1  0  0  0  0
  4 31  1  0  0  0  0
  4 32  1  0  0  0  0
  5  6  1  0  0  0  0
  5 33  1  0  0  0  0
  5 34  1  0  0  0  0
  6  7  1  0  0  0  0
  6  8  1  0  0  0  0
  7 35  1  0  0  0  0
  8  9  1  0  0  0  0
  8 36  1  0  0  0  0
  8 37  1  0  0  0  0
  9 26  1  0  0  0  0
  9 10  1  0  0  0  0
 10 11  2  0  0  0  0
 10 38  1  0  0  0  0
 11 12  1  0  0  0  0
 12 26  2  0  0  0  0
 12 13  1  0  0  0  0
 13 14  1  0  0  0  0
 13 23  2  0  0  0  0
 14 18  1  0  0  0  0
 14 15  1  0  0  0  0
 15 22  1  0  0  0  0
 15 16  1  0  0  0  0
 15 39  1  0  0  0  0
 16 17  1  0  0  0  0
 16 40  1  0  0  0  0
 16 41  1  0  0  0  0
 17 18  1  0  0  0  0
 17 42  1  0  0  0  0
 17 43  1  0  0  0  0
 18 19  1  0  0  0  0
 18 44  1  0  0  0  0
 19 20  1  0  0  0  0
 19 22  1  0  0  0  0
 19 45  1  0  0  0  0
 20 21  1  0  0  0  0
 20 46  1  0  0  0  0
 20 47  1  0  0  0  0
 21 48  1  0  0  0  0
 22 49  1  0  0  0  0
 22 50  1  0  0  0  0
 23 24  1  0  0  0  0
 24 25  2  0  0  0  0
 24 51  1  0  0  0  0
 25 26  1  0  0  0  0
M  END
> <s_m_source_file>
AV-unprocessed.smi

> <i_m_source_file_index>
199

> <i_lp_mmshare_version>
43012

> <i_f3d_flags>
0

> <s_epik_input>
W0NIMl0xW0NIMl1PW0NAQEhdKFtDSDNdKVtDQEBdMShbT0hdKVtDSDJdbihbY0hdbjIpYyhjMjMpbltjSF1uYzNOKFtDQEBIXTQ1KVtDQEhdKFtDSDJdW0NIMl00KVtDQEhdKFtDSDJdNSlbQ0gyXVtPSF0=

> <s_epik_cmdline>
J2VwaWtfcHl0aG9uJywgJy1waCcsICc3LjAnLCAnLXRuJywgJzgnLCAnLW1hJywgJzIwMCcsICctbWV0YWxfYmluZGluZycsICctaW1hZScsICc8aW5maWxlLm1hZT4nLCAnLW9tYWUnLCAnPG91dGZpbGUubWFlPic=

> <r_lp_tautomer_probability>
1

> <r_epik_Ionization_Penalty>
0.00583903

> <r_epik_Ionization_Penalty_Charging>
0

> <r_epik_Ionization_Penalty_Neutral>
0.00583903

> <r_epik_State_Penalty>
-0

> <r_epik_Charging_Adjusted_Penalty>
0

> <i_epik_Tot_Q>
0

> <i_epik_Tot_abs_Q>
0

> <r_epik_Metal_State_Penalty>
-0

> <b_epik_Metal_Only>
0

> <s_lp_Force_Field>
OPLS_2005

> <r_lp_Energy>
83.8114

> <b_lp_Chiralities_Consistent>
1

> <s_lp_Variant>
AV-unprocessed.smi:199-14

> <Gold.Version>
5.8.1

> <Gold.Id.Protein>
6NUR|6NUR_protein|mol2

> <Gold.PLP.Fitness>
43.8319

> <Gold.PLP.PLP>
-35.7294

> <Gold.PLP.part.hbond>
-3.0000

> <Gold.PLP.part.metal>
0.0000

> <Gold.PLP.part.buried>
-4.5320

> <Gold.PLP.part.nonpolar>
-26.7549

> <Gold.PLP.part.repulsive>
0.0000

> <Gold.PLP.ligand.clash>
0.0000

> <Gold.PLP.ligand.torsion>
0.4475

> <Gold.PLP.Chemscore.Hbond>
2.9913

> <Gold.PLP.Chemscore.CHOScore>
0.0000

> <Gold.PLP.Chemscore.Metal>
0.0000

> <Gold.Chemscore.Hbonds>
donor molecule, donor type, donor heavy atom, donor atom, acceptor molecule, acceptor atom, score
      P1  H  6896  6908       L1    11  0.75
      P1  H  7989  7998       L1     7  1.00
      P1  H  7997  8008       L1     3  0.65

> <Gold.PLP.Chemscore.Internal.Correction>
0.0237

> <Gold.Rescore>
     Score         DG    S(hbond)    S(metal)    S(lipo)     H(rot)  DE(clash)    DE(int)     intcor
     14.45     -16.69       2.62        0.00      88.33       3.07       0.32       1.91       ----

> <Gold.Chemscore.Fitness>
14.4541

> <Gold.Chemscore.DG>
-16.6889

> <Gold.Chemscore.ZeroCoef>
-5.4800

> <Gold.Chemscore.Hbond>
2.6172

> <Gold.Chemscore.Metal>
0.0000

> <Gold.Chemscore.Lipo>
88.3254

> <Gold.Chemscore.Internal_Hbond>
0.0000

> <Gold.Chemscore.DEClash>
0.3216

> <Gold.Chemscore.DEInternal>
1.9132

> <Gold.Chemscore.Rot>
3.0729

> <Gold.Chemscore.Internal.Correction>
   9.000000E+99

> <Gold.Chemscore.Hbonds>
donor molecule, donor type, donor heavy atom, donor atom, acceptor molecule, acceptor atom, score
      P1  H  6896  6908       L1    11  0.37
      P1  H  7989  7998       L1     7  0.54
      P1  H  7997  8008       L1     3  0.06

> <Gold.Chemscore.Hbond.Weighted>
-8.7416

> <Gold.Chemscore.Metal.Weighted>
-0.0000

> <Gold.Chemscore.Lipo.Weighted>
-10.3341

> <Gold.Chemscore.Internal_Hbond.Weighted>
0.0000

> <Gold.Chemscore.DEClash.Weighted>
0.3216

> <Gold.Chemscore.DEInternal.Weighted>
1.9132

> <Gold.Chemscore.Rot.Weighted>
7.8667

> <Gold.Chemscore.Internal.Correction.Weighted>
   9.000000E+99

> <Gold.Protein.RotatedTorsions>
[ 6907 6896 6895 6894 ] final -163.58 input  -60.11 | X-H torsion
[ 7974 7965 7964 7962 ] final   -7.30 input  175.53 | X-H torsion
[ 8008 7997 7996 7995 ] final  -59.00 input   59.86 | X-H torsion
[ 10167 10162 10161 10158 ] final -125.67 input  -65.29 | X-H torsion
[ 10718 10713 10712 10709 ] final   76.16 input   66.30 | X-H torsion
[ 10763 10752 10751 10750 ] final  169.99 input  -60.55 | X-H torsion
[ 11005 11000 10999 10996 ] final  145.88 input  -57.11 | X-H torsion

> <Gold.Protein.ActiveResidues>
 VAL166  LYS551  ARG553  GLY616  TRP617  ASP618  TYR619  PRO620  LYS621  CYS622 
 ASP623  PHE694  ASN695  SER759  ASP760  ASP761  ALA762  ILE779  LEU786  VAL792 
 PHE793  MET794  SER795  GLU796  ALA797  LYS798  CYS799  TRP800  GLU811  SER814 

> <Gold.Protein.RotatedAtoms>
  151.3982  133.3766  159.2728 H   0  0  0  0  0  0  0  0  0  0  0  0  # atno 6907 bound_to 6896
  150.9453  134.8860  159.7648 H   0  0  0  0  0  0  0  0  0  0  0  0  # atno 6908 bound_to 6896
  152.5089  134.3935  159.9444 H   0  0  0  0  0  0  0  0  0  0  0  0  # atno 6909 bound_to 6896
  146.2310  140.2299  142.8340 H   0  0  0  0  0  0  0  0  0  0  0  0  # atno 7974 bound_to 7965
  154.4333  140.1071  156.6047 H   0  0  0  0  0  0  0  0  0  0  0  0  # atno 8008 bound_to 7997
  155.5874  140.3491  155.4538 H   0  0  0  0  0  0  0  0  0  0  0  0  # atno 8009 bound_to 7997
  156.0273  140.1252  157.0285 H   0  0  0  0  0  0  0  0  0  0  0  0  # atno 8010 bound_to 7997
  139.9796  143.5757  152.2383 H   0  0  0  0  0  0  0  0  0  0  0  0  # atno 10167 bound_to 10162
  157.6662  130.9761  150.1456 H   0  0  0  0  0  0  0  0  0  0  0  0  # atno 10718 bound_to 10713
  154.3911  135.2754  155.2154 H   0  0  0  0  0  0  0  0  0  0  0  0  # atno 10763 bound_to 10752
  154.4220  135.5998  153.6019 H   0  0  0  0  0  0  0  0  0  0  0  0  # atno 10764 bound_to 10752
  152.9832  135.5975  154.4166 H   0  0  0  0  0  0  0  0  0  0  0  0  # atno 10765 bound_to 10752
  140.0748  134.9131  157.1404 H   0  0  0  0  0  0  0  0  0  0  0  0  # atno 11005 bound_to 11000
  144.9566  140.8232  143.5539 LP  0  0  0  0  0  0  0  0  0  0  0  0  # atno 17320 bound_to 7965
  145.2266  139.2134  143.5065 LP  0  0  0  0  0  0  0  0  0  0  0  0  # atno 17321 bound_to 7965
  139.6420  144.7655  151.2320 LP  0  0  0  0  0  0  0  0  0  0  0  0  # atno 17342 bound_to 10162
  140.7494  143.6302  150.8430 LP  0  0  0  0  0  0  0  0  0  0  0  0  # atno 17343 bound_to 10162
  156.2268  130.3678  149.8491 LP  0  0  0  0  0  0  0  0  0  0  0  0  # atno 17370 bound_to 10713
  156.6329  130.8673  151.3499 LP  0  0  0  0  0  0  0  0  0  0  0  0  # atno 17371 bound_to 10713
  140.3574  134.2532  155.7191 LP  0  0  0  0  0  0  0  0  0  0  0  0  # atno 17394 bound_to 11000
  141.2025  133.7935  157.0386 LP  0  0  0  0  0  0  0  0  0  0  0  0  # atno 17395 bound_to 11000

$$$$
