AV-unprocessed.smi:72|AV-procd|sdf|742|dock5
  -GOLD-   2262017 73D 1   1.00000     0.00000
 Structure written by MMmdl.
 28 29  0  0  0  0  0  0  0  0  2 V2000
  154.4446  137.9513  155.0361 N   0  0  0  0  0  0  0  0  0  0  0  0
  153.2269  138.2710  154.9652 C   0  0  0  0  0  0  0  0  0  0  0  0
  152.2803  137.3789  154.3317 N   0  0  0  0  0  0  0  0  0  0  0  0
  151.0420  137.7607  154.2631 C   0  0  0  0  0  0  0  0  0  0  0  0
  150.6044  139.0473  154.7876 N   0  0  0  0  0  0  0  0  0  0  0  0
  149.1547  139.4770  154.7181 C   0  0  1  0  0  0  0  0  0  0  0  0
  148.7138  139.8349  155.9970 O   0  0  0  0  0  0  0  0  0  0  0  0
  148.0303  141.0836  155.9485 C   0  0  1  0  0  0  0  0  0  0  0  0
  148.1407  141.7900  157.3084 C   0  0  0  0  0  0  0  0  0  0  0  0
  149.4723  142.1970  157.5406 O   0  0  0  0  0  0  0  0  0  0  0  0
  148.7580  141.8139  154.8196 C   0  0  2  0  0  0  0  0  0  0  0  0
  148.0235  142.9020  154.2906 O   0  0  0  0  0  0  0  0  0  0  0  0
  149.0063  140.7042  153.8046 C   0  0  2  0  0  0  0  0  0  0  0  0
  147.9295  140.5332  152.9016 O   0  0  0  0  0  0  0  0  0  0  0  0
  151.5476  139.8867  155.4372 C   0  0  0  0  0  0  0  0  0  0  0  0
  151.1473  140.9467  155.9193 O   0  0  0  0  0  0  0  0  0  0  0  0
  152.8455  139.4784  155.5082 N   0  5  0  0  0  0  0  0  0  0  0  0
  148.5922  138.6024  154.3870 H   0  0  0  0  0  0  0  0  0  0  0  0
  146.9885  140.9163  155.6676 H   0  0  0  0  0  0  0  0  0  0  0  0
  149.7188  142.1812  155.1835 H   0  0  0  0  0  0  0  0  0  0  0  0
  149.9148  140.8824  153.2272 H   0  0  0  0  0  0  0  0  0  0  0  0
  155.0058  138.6502  155.5006 H   0  0  0  0  0  0  0  0  0  0  0  0
  150.2594  137.1455  153.8180 H   0  0  0  0  0  0  0  0  0  0  0  0
  147.4658  142.6445  157.3668 H   0  0  0  0  0  0  0  0  0  0  0  0
  147.8653  141.1047  158.1104 H   0  0  0  0  0  0  0  0  0  0  0  0
  150.0493  141.4888  157.2991 H   0  0  0  0  0  0  0  0  0  0  0  0
  147.1025  142.7104  154.3795 H   0  0  0  0  0  0  0  0  0  0  0  0
  148.2861  140.3330  152.0493 H   0  0  0  0  0  0  0  0  0  0  0  0
  1  2  2  0  0  0  0
  1 22  1  0  0  0  0
  2 17  1  0  0  0  0
  2  3  1  0  0  0  0
  3  4  2  0  0  0  0
  4  5  1  0  0  0  0
  4 23  1  0  0  0  0
  5  6  1  0  0  0  0
  5 15  1  0  0  0  0
  6 18  1  0  0  0  0
  6 13  1  0  0  0  0
  6  7  1  0  0  0  0
  7  8  1  0  0  0  0
  8 19  1  0  0  0  0
  8  9  1  0  0  0  0
  8 11  1  0  0  0  0
  9 10  1  0  0  0  0
  9 24  1  0  0  0  0
  9 25  1  0  0  0  0
 10 26  1  0  0  0  0
 11 20  1  0  0  0  0
 11 12  1  0  0  0  0
 11 13  1  0  0  0  0
 12 27  1  0  0  0  0
 13 21  1  0  0  0  0
 13 14  1  0  0  0  0
 14 28  1  0  0  0  0
 15 16  2  0  0  0  0
 15 17  1  0  0  0  0
M  CHG  1  17  -1
M  END
> <s_m_source_file>
AV-unprocessed.smi

> <i_m_source_file_index>
72

> <i_lp_mmshare_version>
43012

> <i_f3d_flags>
0

> <s_epik_input>
W05IMl1jMW5bY0hdbihjKD1PKW4xKVtDQEBIXTJPW0NASF0oW0NIMl1bT0hdKVtDQEBIXShbT0hdKVtDQEhdMltPSF0=

> <s_epik_cmdline>
J2VwaWtfcHl0aG9uJywgJy1waCcsICc3LjAnLCAnLXRuJywgJzgnLCAnLW1hJywgJzIwMCcsICctbWV0YWxfYmluZGluZycsICctaW1hZScsICc8aW5maWxlLm1hZT4nLCAnLW9tYWUnLCAnPG91dGZpbGUubWFlPic=

> <r_lp_tautomer_probability>
7.17554e-07

> <r_epik_Ionization_Penalty>
12.8705

> <r_epik_Ionization_Penalty_Charging>
5.64144

> <r_epik_Ionization_Penalty_Neutral>
7.22905

> <r_epik_State_Penalty>
3.30104

> <r_epik_Charging_Adjusted_Penalty>
8.94249

> <i_epik_Tot_Q>
-1

> <i_epik_Tot_abs_Q>
1

> <r_epik_Metal_State_Penalty>
0.529074

> <b_epik_Metal_Only>
1

> <s_epik_Chemistry_Notes>
This compound contains an acetal/aminal-like group ( X-CH(R)-Y where X, Y are N, S, or O) that may be acid/base labile, releasing an aldehyde.

> <s_lp_Force_Field>
OPLS_2005

> <r_lp_Energy>
36.1714

> <b_lp_Chiralities_Consistent>
1

> <s_lp_Variant>
AV-unprocessed.smi:72-80

> <Gold.Version>
5.8.1

> <Gold.Id.Protein>
6NUR|6NUR_protein|mol2

> <Gold.PLP.Fitness>
44.1669

> <Gold.PLP.PLP>
-27.0644

> <Gold.PLP.part.hbond>
-8.2449

> <Gold.PLP.part.metal>
0.0000

> <Gold.PLP.part.buried>
1.2803

> <Gold.PLP.part.nonpolar>
-21.0120

> <Gold.PLP.part.repulsive>
0.1549

> <Gold.PLP.ligand.clash>
0.0000

> <Gold.PLP.ligand.torsion>
0.1754

> <Gold.PLP.Chemscore.Hbond>
4.7680

> <Gold.PLP.Chemscore.CHOScore>
1.0425

> <Gold.PLP.Chemscore.Metal>
0.0000

> <Gold.Chemscore.Hbonds>
donor molecule, donor type, donor heavy atom, donor atom, acceptor molecule, acceptor atom, score
      L1  H    14    28       P1  7957  0.98
      P1  H  7997  8009       L1    17  2.00
      P1  H  8022  8030       L1    12  0.92
      P1  H 10752 10765       L1     3  0.75
      L1  C     4    23       P1  7948  0.95
      L1  C     4    23       P1  7949  0.09

> <Gold.PLP.Chemscore.Internal.Correction>
0.0217

> <Gold.Rescore>
     Score         DG    S(hbond)    S(metal)    S(lipo)     H(rot)  DE(clash)    DE(int)     intcor
      0.60      -7.20       2.86        0.00      21.54       4.04       1.02       5.58       ----

> <Gold.Chemscore.Fitness>
0.5977

> <Gold.Chemscore.DG>
-7.2000

> <Gold.Chemscore.ZeroCoef>
-5.4800

> <Gold.Chemscore.Hbond>
2.8571

> <Gold.Chemscore.Metal>
0.0000

> <Gold.Chemscore.Lipo>
21.5406

> <Gold.Chemscore.Internal_Hbond>
0.0000

> <Gold.Chemscore.DEClash>
1.0183

> <Gold.Chemscore.DEInternal>
5.5840

> <Gold.Chemscore.Rot>
4.0403

> <Gold.Chemscore.Internal.Correction>
   9.000000E+99

> <Gold.Chemscore.Hbonds>
donor molecule, donor type, donor heavy atom, donor atom, acceptor molecule, acceptor atom, score
      L1  H    14    28       P1  7957  0.92
      P1  H  7997  8009       L1    17  0.25
      P1  H  8022  8030       L1    12  0.80
      P1  H 10752 10765       L1     3  0.53

> <Gold.Chemscore.Hbond.Weighted>
-9.5428

> <Gold.Chemscore.Metal.Weighted>
-0.0000

> <Gold.Chemscore.Lipo.Weighted>
-2.5202

> <Gold.Chemscore.Internal_Hbond.Weighted>
0.0000

> <Gold.Chemscore.DEClash.Weighted>
1.0183

> <Gold.Chemscore.DEInternal.Weighted>
5.5840

> <Gold.Chemscore.Rot.Weighted>
10.3431

> <Gold.Chemscore.Internal.Correction.Weighted>
   9.000000E+99

> <Gold.Protein.RotatedTorsions>
[ 6907 6896 6895 6894 ] final  -20.19 input  -60.11 | X-H torsion
[ 7974 7965 7964 7962 ] final  -67.49 input  175.53 | X-H torsion
[ 8008 7997 7996 7995 ] final -131.26 input   59.86 | X-H torsion
[ 10167 10162 10161 10158 ] final  167.61 input  -65.29 | X-H torsion
[ 10718 10713 10712 10709 ] final   -2.77 input   66.30 | X-H torsion
[ 10763 10752 10751 10750 ] final  167.04 input  -60.55 | X-H torsion
[ 11005 11000 10999 10996 ] final  104.86 input  -57.11 | X-H torsion

> <Gold.Protein.ActiveResidues>
 VAL166  LYS551  ARG553  GLY616  TRP617  ASP618  TYR619  PRO620  LYS621  CYS622 
 ASP623  PHE694  ASN695  SER759  ASP760  ASP761  ALA762  ILE779  LEU786  VAL792 
 PHE793  MET794  SER795  GLU796  ALA797  LYS798  CYS799  TRP800  GLU811  SER814 

> <Gold.Protein.RotatedAtoms>
  151.2519  135.0625  159.9064 H   0  0  0  0  0  0  0  0  0  0  0  0  # atno 6907 bound_to 6896
  152.5379  134.0323  159.8041 H   0  0  0  0  0  0  0  0  0  0  0  0  # atno 6908 bound_to 6896
  151.0533  133.5556  159.2671 H   0  0  0  0  0  0  0  0  0  0  0  0  # atno 6909 bound_to 6896
  145.7285  140.9007  143.0592 H   0  0  0  0  0  0  0  0  0  0  0  0  # atno 7974 bound_to 7965
  155.3093  140.0456  157.3034 H   0  0  0  0  0  0  0  0  0  0  0  0  # atno 8008 bound_to 7997
  154.5442  140.2297  155.8557 H   0  0  0  0  0  0  0  0  0  0  0  0  # atno 8009 bound_to 7997
  156.1909  140.3051  155.9336 H   0  0  0  0  0  0  0  0  0  0  0  0  # atno 8010 bound_to 7997
  139.4949  144.3903  151.9524 H   0  0  0  0  0  0  0  0  0  0  0  0  # atno 10167 bound_to 10162
  156.7859  130.5346  149.5743 H   0  0  0  0  0  0  0  0  0  0  0  0  # atno 10718 bound_to 10713
  154.3480  135.2753  155.2387 H   0  0  0  0  0  0  0  0  0  0  0  0  # atno 10763 bound_to 10752
  154.4629  135.5902  153.6272 H   0  0  0  0  0  0  0  0  0  0  0  0  # atno 10764 bound_to 10752
  152.9852  135.6069  154.3687 H   0  0  0  0  0  0  0  0  0  0  0  0  # atno 10765 bound_to 10752
  139.8796  134.9315  156.5426 H   0  0  0  0  0  0  0  0  0  0  0  0  # atno 11005 bound_to 11000
  144.6898  139.9299  143.7471 LP  0  0  0  0  0  0  0  0  0  0  0  0  # atno 17320 bound_to 7965
  146.0559  139.3556  143.0611 LP  0  0  0  0  0  0  0  0  0  0  0  0  # atno 17321 bound_to 7965
  140.3341  144.3282  150.5981 LP  0  0  0  0  0  0  0  0  0  0  0  0  # atno 17342 bound_to 10162
  140.5621  143.2191  151.7747 LP  0  0  0  0  0  0  0  0  0  0  0  0  # atno 17343 bound_to 10162
  156.1189  130.6095  151.0163 LP  0  0  0  0  0  0  0  0  0  0  0  0  # atno 17370 bound_to 10713
  157.6624  131.0878  150.7808 LP  0  0  0  0  0  0  0  0  0  0  0  0  # atno 17371 bound_to 10713
  140.8299  133.8287  155.8974 LP  0  0  0  0  0  0  0  0  0  0  0  0  # atno 17394 bound_to 11000
  140.9339  134.1987  157.4845 LP  0  0  0  0  0  0  0  0  0  0  0  0  # atno 17395 bound_to 11000

$$$$
