AV-unprocessed.smi:1978|AV-procd|sdf|8014|dock1
  -GOLD-   2272010203D 1   1.00000     0.00000
 Structure written by MMmdl.
 44 45  0  0  0  0  0  0  0  0  3 V2000
  146.2483  133.8640  161.8708 C   0  0  0  0  0  0  0  0  0  0  0  0
  146.9713  135.0638  161.3626 C   0  0  0  0  0  0  0  0  0  0  0  0
  147.8067  135.2660  160.3004 C   0  0  0  0  0  0  0  0  0  0  0  0
  148.1352  136.6438  160.4073 C   0  0  0  0  0  0  0  0  0  0  0  0
  149.0038  137.2554  159.4648 N   0  0  0  0  0  0  0  0  0  0  0  0
  148.8740  137.3374  158.1279 C   0  0  0  0  0  0  0  0  0  0  0  0
  147.8841  136.8539  157.5658 O   0  0  0  0  0  0  0  0  0  0  0  0
  149.9218  137.9853  157.5485 N   0  5  0  0  0  0  0  0  0  0  0  0
  150.7105  139.0307  158.1997 C   0  0  0  0  0  0  0  0  0  0  0  0
  150.6848  140.3432  157.3547 C   0  0  2  0  0  0  0  0  0  0  0  0
  151.1045  140.0180  155.8877 C   0  0  0  0  0  0  0  0  0  0  0  0
  151.5185  141.4153  158.0138 N   0  3  2  0  0  0  0  0  0  0  0  0
  151.7682  141.2107  159.4781 C   0  0  0  0  0  0  0  0  0  0  0  0
  152.9319  142.0931  159.9597 C   0  0  0  0  0  0  0  0  0  0  0  0
  152.6708  143.5754  159.6675 C   0  0  0  0  0  0  0  0  0  0  0  0
  152.3090  143.7710  158.1868 C   0  0  0  0  0  0  0  0  0  0  0  0
  151.1586  142.8450  157.7350 C   0  0  2  0  0  0  0  0  0  0  0  0
  149.8048  143.2776  158.3495 C   0  0  0  0  0  0  0  0  0  0  0  0
  147.5502  137.2293  161.4419 N   0  0  0  0  0  0  0  0  0  0  0  0
  146.8020  136.2201  162.0592 O   0  0  0  0  0  0  0  0  0  0  0  0
  146.4393  132.9969  161.2384 H   0  0  0  0  0  0  0  0  0  0  0  0
  145.1726  134.0399  161.8878 H   0  0  0  0  0  0  0  0  0  0  0  0
  146.5688  133.6210  162.8840 H   0  0  0  0  0  0  0  0  0  0  0  0
  148.1303  134.5434  159.5662 H   0  0  0  0  0  0  0  0  0  0  0  0
  149.8338  137.6808  159.8500 H   0  0  0  0  0  0  0  0  0  0  0  0
  150.3233  139.2309  159.1981 H   0  0  0  0  0  0  0  0  0  0  0  0
  151.7469  138.7280  158.3541 H   0  0  0  0  0  0  0  0  0  0  0  0
  149.6625  140.7247  157.3207 H   0  0  0  0  0  0  0  0  0  0  0  0
  150.4828  139.2416  155.4360 H   0  0  0  0  0  0  0  0  0  0  0  0
  152.1403  139.6796  155.8177 H   0  0  0  0  0  0  0  0  0  0  0  0
  151.0003  140.8705  155.2210 H   0  0  0  0  0  0  0  0  0  0  0  0
  150.8644  141.4182  160.0501 H   0  0  0  0  0  0  0  0  0  0  0  0
  152.0219  140.1781  159.7121 H   0  0  0  0  0  0  0  0  0  0  0  0
  153.0931  141.9482  161.0284 H   0  0  0  0  0  0  0  0  0  0  0  0
  153.8521  141.7804  159.4641 H   0  0  0  0  0  0  0  0  0  0  0  0
  151.8669  143.9421  160.3057 H   0  0  0  0  0  0  0  0  0  0  0  0
  153.5518  144.1671  159.9189 H   0  0  0  0  0  0  0  0  0  0  0  0
  152.0501  144.8142  158.0018 H   0  0  0  0  0  0  0  0  0  0  0  0
  153.1908  143.5665  157.5778 H   0  0  0  0  0  0  0  0  0  0  0  0
  151.0948  142.9862  156.6570 H   0  0  0  0  0  0  0  0  0  0  0  0
  149.5196  144.2648  157.9848 H   0  0  0  0  0  0  0  0  0  0  0  0
  149.8382  143.3405  159.4361 H   0  0  0  0  0  0  0  0  0  0  0  0
  148.9931  142.5962  158.1023 H   0  0  0  0  0  0  0  0  0  0  0  0
  152.4214  141.3013  157.5756 H   0  0  0  0  0  0  0  0  0  0  0  0
  1  2  1  0  0  0  0
  1 21  1  0  0  0  0
  1 22  1  0  0  0  0
  1 23  1  0  0  0  0
  2 20  1  0  0  0  0
  2  3  2  0  0  0  0
  3  4  1  0  0  0  0
  3 24  1  0  0  0  0
  4  5  1  0  0  0  0
  4 19  2  0  0  0  0
  5  6  1  0  0  0  0
  5 25  1  0  0  0  0
  6  7  2  0  0  0  0
  6  8  1  0  0  0  0
  8  9  1  0  0  0  0
  9 10  1  0  0  0  0
  9 26  1  0  0  0  0
  9 27  1  0  0  0  0
 10 11  1  0  0  0  0
 10 12  1  0  0  0  0
 10 28  1  0  0  0  0
 11 29  1  0  0  0  0
 11 30  1  0  0  0  0
 11 31  1  0  0  0  0
 12 17  1  0  0  0  0
 12 13  1  0  0  0  0
 12 44  1  0  0  0  0
 13 14  1  0  0  0  0
 13 32  1  0  0  0  0
 13 33  1  0  0  0  0
 14 15  1  0  0  0  0
 14 34  1  0  0  0  0
 14 35  1  0  0  0  0
 15 16  1  0  0  0  0
 15 36  1  0  0  0  0
 15 37  1  0  0  0  0
 16 17  1  0  0  0  0
 16 38  1  0  0  0  0
 16 39  1  0  0  0  0
 17 18  1  0  0  0  0
 17 40  1  0  0  0  0
 18 41  1  0  0  0  0
 18 42  1  0  0  0  0
 18 43  1  0  0  0  0
 19 20  1  0  0  0  0
M  CHG  1   8  -1
M  CHG  1  12   1
M  END
> <s_m_source_file>
AV-unprocessed.smi

> <i_m_source_file_index>
1978

> <i_lp_mmshare_version>
43012

> <i_f3d_flags>
0

> <s_epik_input>
W0NIM11jMVtjSF1jKG5vMSlbTkhdQyg9TylbTkhdW0NIMl1bQ0BIXShbQ0gzXSlOMltDSDJdW0NIMl1bQ0gyXVtDSDJdW0NASF0yW0NIM10=

> <s_epik_cmdline>
J2VwaWtfcHl0aG9uJywgJy1waCcsICc3LjAnLCAnLXRuJywgJzgnLCAnLW1hJywgJzIwMCcsICctbWV0YWxfYmluZGluZycsICctaW1hZScsICc8aW5maWxlLm1hZT4nLCAnLW9tYWUnLCAnPG91dGZpbGUubWFlPic=

> <r_epik_Ionization_Penalty>
6.7666

> <r_epik_Ionization_Penalty_Charging>
6.7666

> <r_epik_Ionization_Penalty_Neutral>
5.77131e-06

> <r_epik_State_Penalty>
6.79217

> <r_epik_Charging_Adjusted_Penalty>
13.5588

> <i_epik_Tot_Q>
0

> <i_epik_Tot_abs_Q>
2

> <r_epik_Metal_State_Penalty>
2.72569

> <b_epik_Metal_Only>
1

> <s_lp_Force_Field>
OPLS_2005

> <r_lp_Energy>
25.8045

> <b_lp_Chiralities_Consistent>
1

> <s_lp_Variant>
AV-unprocessed.smi:1978-23

> <Gold.Version>
5.8.1

> <Gold.Id.Protein>
6NUR|6NUR_protein|mol2

> <Gold.PLP.Fitness>
37.4210

> <Gold.PLP.PLP>
-35.8767

> <Gold.PLP.part.hbond>
-2.0000

> <Gold.PLP.part.metal>
0.0000

> <Gold.PLP.part.buried>
-4.0700

> <Gold.PLP.part.nonpolar>
-29.9645

> <Gold.PLP.part.repulsive>
0.3127

> <Gold.PLP.ligand.clash>
0.3782

> <Gold.PLP.ligand.torsion>
1.5253

> <Gold.PLP.Chemscore.Hbond>
1.6180

> <Gold.PLP.Chemscore.CHOScore>
0.0000

> <Gold.PLP.Chemscore.Metal>
0.0000

> <Gold.Chemscore.Hbonds>
donor molecule, donor type, donor heavy atom, donor atom, acceptor molecule, acceptor atom, score
      P1  H  6931  6943       L1    19  0.70
      P1  H  6934  6947       L1    19  0.85

> <Gold.PLP.Chemscore.Internal.Correction>
0.1191

> <Gold.Rescore>
     Score         DG    S(hbond)    S(metal)    S(lipo)     H(rot)  DE(clash)    DE(int)     intcor
     15.36     -17.45       1.44        0.00      94.34       1.52       0.01       2.09       ----

> <Gold.Chemscore.Fitness>
15.3563

> <Gold.Chemscore.DG>
-17.4526

> <Gold.Chemscore.ZeroCoef>
-5.4800

> <Gold.Chemscore.Hbond>
1.4442

> <Gold.Chemscore.Metal>
0.0000

> <Gold.Chemscore.Lipo>
94.3380

> <Gold.Chemscore.Internal_Hbond>
0.0000

> <Gold.Chemscore.DEClash>
0.0073

> <Gold.Chemscore.DEInternal>
2.0890

> <Gold.Chemscore.Rot>
1.5190

> <Gold.Chemscore.Internal.Correction>
   9.000000E+99

> <Gold.Chemscore.Hbonds>
donor molecule, donor type, donor heavy atom, donor atom, acceptor molecule, acceptor atom, score
      P1  H  6931  6943       L1    19  0.09
      P1  H  6934  6947       L1    19  0.50

> <Gold.Chemscore.Hbond.Weighted>
-4.8237

> <Gold.Chemscore.Metal.Weighted>
-0.0000

> <Gold.Chemscore.Lipo.Weighted>
-11.0375

> <Gold.Chemscore.Internal_Hbond.Weighted>
0.0000

> <Gold.Chemscore.DEClash.Weighted>
0.0073

> <Gold.Chemscore.DEInternal.Weighted>
2.0890

> <Gold.Chemscore.Rot.Weighted>
3.8886

> <Gold.Chemscore.Internal.Correction.Weighted>
   9.000000E+99

> <Gold.Protein.RotatedTorsions>
[ 6907 6896 6895 6894 ] final   30.47 input  -60.11 | X-H torsion
[ 7974 7965 7964 7962 ] final  -86.59 input  175.53 | X-H torsion
[ 8008 7997 7996 7995 ] final  -69.39 input   59.86 | X-H torsion
[ 10167 10162 10161 10158 ] final  -67.19 input  -65.29 | X-H torsion
[ 10718 10713 10712 10709 ] final    8.83 input   66.30 | X-H torsion
[ 10763 10752 10751 10750 ] final -140.71 input  -60.55 | X-H torsion
[ 11005 11000 10999 10996 ] final -127.04 input  -57.11 | X-H torsion

> <Gold.Protein.ActiveResidues>
 VAL166  LYS551  ARG553  GLY616  TRP617  ASP618  TYR619  PRO620  LYS621  CYS622 
 ASP623  PHE694  ASN695  SER759  ASP760  ASP761  ALA762  ILE779  LEU786  VAL792 
 PHE793  MET794  SER795  GLU796  ALA797  LYS798  CYS799  TRP800  GLU811  SER814 

> <Gold.Protein.RotatedAtoms>
  152.0465  134.9680  160.0574 H   0  0  0  0  0  0  0  0  0  0  0  0  # atno 6907 bound_to 6896
  152.1098  133.4289  159.4634 H   0  0  0  0  0  0  0  0  0  0  0  0  # atno 6908 bound_to 6896
  150.6843  134.2581  159.4581 H   0  0  0  0  0  0  0  0  0  0  0  0  # atno 6909 bound_to 6896
  145.4778  140.9558  143.1881 H   0  0  0  0  0  0  0  0  0  0  0  0  # atno 7974 bound_to 7965
  154.4935  140.0854  156.7646 H   0  0  0  0  0  0  0  0  0  0  0  0  # atno 8008 bound_to 7997
  155.4172  140.3444  155.4250 H   0  0  0  0  0  0  0  0  0  0  0  0  # atno 8009 bound_to 7997
  156.1362  140.1516  156.8978 H   0  0  0  0  0  0  0  0  0  0  0  0  # atno 8010 bound_to 7997
  140.5601  143.2312  151.6744 H   0  0  0  0  0  0  0  0  0  0  0  0  # atno 10167 bound_to 10162
  156.9574  130.5920  149.5660 H   0  0  0  0  0  0  0  0  0  0  0  0  # atno 10718 bound_to 10713
  154.8570  135.3545  154.5750 H   0  0  0  0  0  0  0  0  0  0  0  0  # atno 10763 bound_to 10752
  153.6362  135.7000  153.5262 H   0  0  0  0  0  0  0  0  0  0  0  0  # atno 10764 bound_to 10752
  153.3008  135.4207  155.1210 H   0  0  0  0  0  0  0  0  0  0  0  0  # atno 10765 bound_to 10752
  140.9632  134.0907  157.3946 H   0  0  0  0  0  0  0  0  0  0  0  0  # atno 11005 bound_to 11000
  144.7907  139.6335  143.7115 LP  0  0  0  0  0  0  0  0  0  0  0  0  # atno 17320 bound_to 7965
  146.2359  139.5904  142.9524 LP  0  0  0  0  0  0  0  0  0  0  0  0  # atno 17321 bound_to 7965
  139.5066  144.3675  152.0502 LP  0  0  0  0  0  0  0  0  0  0  0  0  # atno 17342 bound_to 10162
  140.2801  144.3869  150.6122 LP  0  0  0  0  0  0  0  0  0  0  0  0  # atno 17343 bound_to 10162
  156.0337  130.5426  150.8598 LP  0  0  0  0  0  0  0  0  0  0  0  0  # atno 17370 bound_to 10713
  157.5681  131.0946  150.9459 LP  0  0  0  0  0  0  0  0  0  0  0  0  # atno 17371 bound_to 10713
  139.8885  135.0098  156.6626 LP  0  0  0  0  0  0  0  0  0  0  0  0  # atno 17394 bound_to 11000
  140.7437  133.8956  155.8296 LP  0  0  0  0  0  0  0  0  0  0  0  0  # atno 17395 bound_to 11000

$$$$
