AV-unprocessed.smi:1088|AV-procd|sdf|4730|dock7
  -GOLD-   22720 3263D 1   1.00000     0.00000
 Structure written by MMmdl.
 48 49  0  0  0  0  0  0  0  0  2 V2000
  144.5163  132.7036  150.3165 C   0  0  0  0  0  0  0  0  0  0  0  0
  144.7764  133.6403  151.3472 O   0  0  0  0  0  0  0  0  0  0  0  0
  146.1509  133.7055  151.6875 C   0  0  0  0  0  0  0  0  0  0  0  0
  146.2794  133.9138  153.2030 C   0  0  0  0  0  0  0  0  0  0  0  0
  147.6968  134.0049  153.6324 N   0  3  2  0  0  0  0  0  0  0  0  0
  148.6046  132.9689  153.0866 C   0  0  0  0  0  0  0  0  0  0  0  0
  149.7081  132.7559  154.1322 C   0  0  0  0  0  0  0  0  0  0  0  0
  149.4557  133.8224  155.1972 C   0  0  0  0  0  0  0  0  0  0  0  0
  147.9524  134.1037  155.0895 C   0  0  2  0  0  0  0  0  0  0  0  0
  147.0928  133.1258  155.9343 C   0  0  0  0  0  0  0  0  0  0  0  0
  147.5411  133.0544  157.3198 N   0  0  0  0  0  0  0  0  0  0  0  0
  146.9317  132.3688  158.3017 C   0  0  0  0  0  0  0  0  0  0  0  0
  145.9128  131.7053  158.1135 O   0  0  0  0  0  0  0  0  0  0  0  0
  147.5317  132.4348  159.7166 C   0  0  0  0  0  0  0  0  0  0  0  0
  147.5597  133.7794  160.3120 N   0  0  0  0  0  0  0  0  0  0  0  0
  146.7922  134.0464  161.4313 C   0  0  0  0  0  0  0  0  0  0  0  0
  146.7430  135.2564  162.0296 C   0  0  0  0  0  0  0  0  0  0  0  0
  147.5207  136.3779  161.5168 C   0  0  0  0  0  0  0  0  0  0  0  0
  147.4870  137.5021  162.0181 O   0  0  0  0  0  0  0  0  0  0  0  0
  148.3100  136.0733  160.3816 N   0  0  0  0  0  0  0  0  0  0  0  0
  149.1069  137.1261  159.7866 C   0  0  0  0  0  0  0  0  0  0  0  0
  148.3446  134.8097  159.7510 C   0  0  0  0  0  0  0  0  0  0  0  0
  149.0190  134.6047  158.7390 O   0  0  0  0  0  0  0  0  0  0  0  0
  143.4497  132.6917  150.0932 H   0  0  0  0  0  0  0  0  0  0  0  0
  144.8085  131.6963  150.6159 H   0  0  0  0  0  0  0  0  0  0  0  0
  145.0487  132.9657  149.4013 H   0  0  0  0  0  0  0  0  0  0  0  0
  146.6397  132.7714  151.4073 H   0  0  0  0  0  0  0  0  0  0  0  0
  146.6478  134.5064  151.1387 H   0  0  0  0  0  0  0  0  0  0  0  0
  145.7604  134.8331  153.4777 H   0  0  0  0  0  0  0  0  0  0  0  0
  145.7833  133.0981  153.7305 H   0  0  0  0  0  0  0  0  0  0  0  0
  148.0717  132.0332  152.9108 H   0  0  0  0  0  0  0  0  0  0  0  0
  149.0140  133.3047  152.1333 H   0  0  0  0  0  0  0  0  0  0  0  0
  149.6134  131.7621  154.5719 H   0  0  0  0  0  0  0  0  0  0  0  0
  150.7082  132.8331  153.7046 H   0  0  0  0  0  0  0  0  0  0  0  0
  149.7841  133.5150  156.1904 H   0  0  0  0  0  0  0  0  0  0  0  0
  150.0102  134.7260  154.9398 H   0  0  0  0  0  0  0  0  0  0  0  0
  147.7407  135.1253  155.4077 H   0  0  0  0  0  0  0  0  0  0  0  0
  146.0419  133.4178  155.9293 H   0  0  0  0  0  0  0  0  0  0  0  0
  147.1341  132.1196  155.5162 H   0  0  0  0  0  0  0  0  0  0  0  0
  148.3778  133.5683  157.5558 H   0  0  0  0  0  0  0  0  0  0  0  0
  146.9539  131.7682  160.3582 H   0  0  0  0  0  0  0  0  0  0  0  0
  148.5362  132.0091  159.6913 H   0  0  0  0  0  0  0  0  0  0  0  0
  146.1942  133.2484  161.8471 H   0  0  0  0  0  0  0  0  0  0  0  0
  146.1166  135.3981  162.8981 H   0  0  0  0  0  0  0  0  0  0  0  0
  150.0819  136.7126  159.5231 H   0  0  0  0  0  0  0  0  0  0  0  0
  149.2618  137.9392  160.4955 H   0  0  0  0  0  0  0  0  0  0  0  0
  148.5669  137.4718  158.9042 H   0  0  0  0  0  0  0  0  0  0  0  0
  148.0399  134.8792  153.2596 H   0  0  0  0  0  0  0  0  0  0  0  0
  1  2  1  0  0  0  0
  1 24  1  0  0  0  0
  1 25  1  0  0  0  0
  1 26  1  0  0  0  0
  2  3  1  0  0  0  0
  3  4  1  0  0  0  0
  3 27  1  0  0  0  0
  3 28  1  0  0  0  0
  4  5  1  0  0  0  0
  4 29  1  0  0  0  0
  4 30  1  0  0  0  0
  5  9  1  0  0  0  0
  5  6  1  0  0  0  0
  5 48  1  0  0  0  0
  6  7  1  0  0  0  0
  6 31  1  0  0  0  0
  6 32  1  0  0  0  0
  7  8  1  0  0  0  0
  7 33  1  0  0  0  0
  7 34  1  0  0  0  0
  8  9  1  0  0  0  0
  8 35  1  0  0  0  0
  8 36  1  0  0  0  0
  9 10  1  0  0  0  0
  9 37  1  0  0  0  0
 10 11  1  0  0  0  0
 10 38  1  0  0  0  0
 10 39  1  0  0  0  0
 11 12  1  0  0  0  0
 11 40  1  0  0  0  0
 12 13  2  0  0  0  0
 12 14  1  0  0  0  0
 14 15  1  0  0  0  0
 14 41  1  0  0  0  0
 14 42  1  0  0  0  0
 15 22  1  0  0  0  0
 15 16  1  0  0  0  0
 16 17  2  0  0  0  0
 16 43  1  0  0  0  0
 17 18  1  0  0  0  0
 17 44  1  0  0  0  0
 18 19  2  0  0  0  0
 18 20  1  0  0  0  0
 20 21  1  0  0  0  0
 20 22  1  0  0  0  0
 21 45  1  0  0  0  0
 21 46  1  0  0  0  0
 21 47  1  0  0  0  0
 22 23  2  0  0  0  0
M  CHG  1   5   1
M  END
> <s_m_source_file>
AV-unprocessed.smi

> <i_m_source_file_index>
1088

> <i_lp_mmshare_version>
43012

> <i_f3d_flags>
0

> <s_epik_input>
W0NIM11PW0NIMl1bQ0gyXU4xW0NIMl1bQ0gyXVtDSDJdW0NASF0xW0NIMl1bTkhdQyg9TylbQ0gyXW4yW2NIXVtjSF1jKD1PKW4oW0NIM10pYzI9Tw==

> <s_epik_cmdline>
J2VwaWtfcHl0aG9uJywgJy1waCcsICc3LjAnLCAnLXRuJywgJzgnLCAnLW1hJywgJzIwMCcsICctbWV0YWxfYmluZGluZycsICctaW1hZScsICc8aW5maWxlLm1hZT4nLCAnLW9tYWUnLCAnPG91dGZpbGUubWFlPic=

> <r_lp_tautomer_probability>
1

> <r_epik_Ionization_Penalty>
0.0127388

> <r_epik_Ionization_Penalty_Charging>
0.0127387

> <r_epik_Ionization_Penalty_Neutral>
8.26414e-08

> <r_epik_State_Penalty>
0.00987716

> <r_epik_Charging_Adjusted_Penalty>
0.0226159

> <i_epik_Tot_Q>
1

> <i_epik_Tot_abs_Q>
1

> <r_epik_Metal_State_Penalty>
0.00987836

> <b_epik_Metal_Only>
0

> <s_lp_Force_Field>
OPLS_2005

> <r_lp_Energy>
40.6263

> <b_lp_Chiralities_Consistent>
1

> <s_lp_Variant>
AV-unprocessed.smi:1088-3

> <Gold.Version>
5.8.1

> <Gold.Id.Protein>
6NUR|6NUR_protein|mol2

> <Gold.PLP.Fitness>
46.5428

> <Gold.PLP.PLP>
-33.7634

> <Gold.PLP.part.hbond>
-4.0000

> <Gold.PLP.part.metal>
0.0000

> <Gold.PLP.part.buried>
-3.9912

> <Gold.PLP.part.nonpolar>
-25.9019

> <Gold.PLP.part.repulsive>
0.2137

> <Gold.PLP.ligand.clash>
0.0000

> <Gold.PLP.ligand.torsion>
0.3916

> <Gold.PLP.Chemscore.Hbond>
4.4557

> <Gold.PLP.Chemscore.CHOScore>
0.0000

> <Gold.PLP.Chemscore.Metal>
0.0000

> <Gold.Chemscore.Hbonds>
donor molecule, donor type, donor heavy atom, donor atom, acceptor molecule, acceptor atom, score
      L1  H     5    48       P1  7948  1.53
      P1  H  6896  6908       L1    23  1.00
      P1  H  6931  6943       L1    19  0.77
      P1  H  6934  6947       L1    19  0.59

> <Gold.PLP.Chemscore.Internal.Correction>
0.1955

> <Gold.Rescore>
     Score         DG    S(hbond)    S(metal)    S(lipo)     H(rot)  DE(clash)    DE(int)     intcor
     15.44     -17.58       3.47        0.00      60.61       2.57       0.03       2.11       ----

> <Gold.Chemscore.Fitness>
15.4422

> <Gold.Chemscore.DG>
-17.5840

> <Gold.Chemscore.ZeroCoef>
-5.4800

> <Gold.Chemscore.Hbond>
3.4701

> <Gold.Chemscore.Metal>
0.0000

> <Gold.Chemscore.Lipo>
60.6066

> <Gold.Chemscore.Internal_Hbond>
0.0000

> <Gold.Chemscore.DEClash>
0.0287

> <Gold.Chemscore.DEInternal>
2.1132

> <Gold.Chemscore.Rot>
2.5692

> <Gold.Chemscore.Internal.Correction>
   9.000000E+99

> <Gold.Chemscore.Hbonds>
donor molecule, donor type, donor heavy atom, donor atom, acceptor molecule, acceptor atom, score
      L1  H     5    48       P1  7948  0.72
      P1  H  6896  6908       L1    23  0.40
      P1  H  6931  6943       L1    19  0.59
      P1  H  6934  6947       L1    19  0.59

> <Gold.Chemscore.Hbond.Weighted>
-11.5902

> <Gold.Chemscore.Metal.Weighted>
-0.0000

> <Gold.Chemscore.Lipo.Weighted>
-7.0910

> <Gold.Chemscore.Internal_Hbond.Weighted>
0.0000

> <Gold.Chemscore.DEClash.Weighted>
0.0287

> <Gold.Chemscore.DEInternal.Weighted>
2.1132

> <Gold.Chemscore.Rot.Weighted>
6.5772

> <Gold.Chemscore.Internal.Correction.Weighted>
   9.000000E+99

> <Gold.Protein.RotatedTorsions>
[ 6907 6896 6895 6894 ] final  147.45 input  -60.11 | X-H torsion
[ 7974 7965 7964 7962 ] final   46.17 input  175.53 | X-H torsion
[ 8008 7997 7996 7995 ] final    7.52 input   59.86 | X-H torsion
[ 10167 10162 10161 10158 ] final  156.85 input  -65.29 | X-H torsion
[ 10718 10713 10712 10709 ] final  140.65 input   66.30 | X-H torsion
[ 10763 10752 10751 10750 ] final  131.95 input  -60.55 | X-H torsion
[ 11005 11000 10999 10996 ] final   57.02 input  -57.11 | X-H torsion

> <Gold.Protein.ActiveResidues>
 VAL166  LYS551  ARG553  GLY616  TRP617  ASP618  TYR619  PRO620  LYS621  CYS622 
 ASP623  PHE694  ASN695  SER759  ASP760  ASP761  ALA762  ILE779  LEU786  VAL792 
 PHE793  MET794  SER795  GLU796  ALA797  LYS798  CYS799  TRP800  GLU811  SER814 

> <Gold.Protein.RotatedAtoms>
  152.1545  133.4543  159.4829 H   0  0  0  0  0  0  0  0  0  0  0  0  # atno 6907 bound_to 6896
  150.6899  134.2147  159.4382 H   0  0  0  0  0  0  0  0  0  0  0  0  # atno 6908 bound_to 6896
  152.0046  134.9909  160.0617 H   0  0  0  0  0  0  0  0  0  0  0  0  # atno 6909 bound_to 6896
  146.0414  139.4884  142.9776 H   0  0  0  0  0  0  0  0  0  0  0  0  # atno 7974 bound_to 7965
  154.7550  140.2774  155.6261 H   0  0  0  0  0  0  0  0  0  0  0  0  # atno 8008 bound_to 7997
  156.2903  140.2671  156.2240 H   0  0  0  0  0  0  0  0  0  0  0  0  # atno 8009 bound_to 7997
  155.0089  140.0372  157.2381 H   0  0  0  0  0  0  0  0  0  0  0  0  # atno 8010 bound_to 7997
  139.4822  144.4971  151.8223 H   0  0  0  0  0  0  0  0  0  0  0  0  # atno 10167 bound_to 10162
  157.4008  131.1016  151.0553 H   0  0  0  0  0  0  0  0  0  0  0  0  # atno 10718 bound_to 10713
  153.7828  135.3166  155.3368 H   0  0  0  0  0  0  0  0  0  0  0  0  # atno 10763 bound_to 10752
  154.8155  135.4639  154.0635 H   0  0  0  0  0  0  0  0  0  0  0  0  # atno 10764 bound_to 10752
  153.1928  135.6911  153.8416 H   0  0  0  0  0  0  0  0  0  0  0  0  # atno 10765 bound_to 10752
  140.0485  134.5771  155.9293 H   0  0  0  0  0  0  0  0  0  0  0  0  # atno 11005 bound_to 11000
  145.6879  141.0173  143.1571 LP  0  0  0  0  0  0  0  0  0  0  0  0  # atno 17320 bound_to 7965
  144.7076  139.8498  143.7425 LP  0  0  0  0  0  0  0  0  0  0  0  0  # atno 17321 bound_to 7965
  140.4461  144.1920  150.5894 LP  0  0  0  0  0  0  0  0  0  0  0  0  # atno 17342 bound_to 10162
  140.4633  143.2440  151.9190 LP  0  0  0  0  0  0  0  0  0  0  0  0  # atno 17343 bound_to 10162
  157.1553  130.6202  149.5594 LP  0  0  0  0  0  0  0  0  0  0  0  0  # atno 17370 bound_to 10713
  155.9823  130.4835  150.6873 LP  0  0  0  0  0  0  0  0  0  0  0  0  # atno 17371 bound_to 10713
  141.1918  133.6573  156.5475 LP  0  0  0  0  0  0  0  0  0  0  0  0  # atno 17394 bound_to 11000
  140.3956  134.7402  157.4748 LP  0  0  0  0  0  0  0  0  0  0  0  0  # atno 17395 bound_to 11000

$$$$
