AV-unprocessed.smi:2696|AV-procd|sdf|10413|dock1
  -GOLD-   2272014453D 1   1.00000     0.00000
 Structure written by MMmdl.
 43 44  0  0  0  0  0  0  0  0  1 V2000
  152.4970  144.6725  158.0995 C   0  0  0  0  0  0  0  0  0  0  0  0
  151.6640  143.6384  158.8719 C   0  0  0  0  0  0  0  0  0  0  0  0
  152.5159  142.8744  159.8982 C   0  0  0  0  0  0  0  0  0  0  0  0
  150.9373  142.6891  157.9286 C   0  0  0  0  0  0  0  0  0  0  0  0
  151.5948  141.8905  157.0539 C   0  0  0  0  0  0  0  0  0  0  0  0
  150.8634  140.9744  156.1793 C   0  0  0  0  0  0  0  0  0  0  0  0
  151.4289  140.2561  155.3554 O   0  0  0  0  0  0  0  0  0  0  0  0
  149.5095  140.9685  156.3541 N   0  0  0  0  0  0  0  0  0  0  0  0
  148.6480  140.0393  155.5923 C   0  0  0  0  0  0  0  0  0  0  0  0
  148.3172  140.4981  154.1380 C   0  0  1  0  0  0  0  0  0  0  0  0
  147.6889  141.9079  154.1588 C   0  0  0  0  0  0  0  0  0  0  0  0
  149.5542  140.7242  153.4853 O   0  0  0  0  0  0  0  0  0  0  0  0
  147.4243  139.5021  153.3808 C   0  0  0  0  0  0  0  0  0  0  0  0
  147.1611  139.6600  151.9993 C   0  0  0  0  0  0  0  0  0  0  0  0
  146.3757  138.7188  151.3084 C   0  0  0  0  0  0  0  0  0  0  0  0
  145.8473  137.6064  151.9875 C   0  0  0  0  0  0  0  0  0  0  0  0
  146.1036  137.4262  153.3619 C   0  0  0  0  0  0  0  0  0  0  0  0
  145.5329  136.2117  154.0793 C   0  0  0  0  0  0  0  0  0  0  0  0
  145.8258  136.2197  155.3803 F   0  0  0  0  0  0  0  0  0  0  0  0
  144.2077  136.2012  153.9411 F   0  0  0  0  0  0  0  0  0  0  0  0
  146.0296  135.0956  153.5456 F   0  0  0  0  0  0  0  0  0  0  0  0
  146.8861  138.3786  154.0509 C   0  0  0  0  0  0  0  0  0  0  0  0
  148.8713  141.8498  157.2519 C   0  0  0  0  0  0  0  0  0  0  0  0
  149.5410  142.6632  158.0041 N   0  0  0  0  0  0  0  0  0  0  0  0
  151.8749  145.2313  157.3996 H   0  0  0  0  0  0  0  0  0  0  0  0
  153.2979  144.1997  157.5303 H   0  0  0  0  0  0  0  0  0  0  0  0
  152.9548  145.3920  158.7789 H   0  0  0  0  0  0  0  0  0  0  0  0
  150.9056  144.1884  159.4318 H   0  0  0  0  0  0  0  0  0  0  0  0
  151.9102  142.1565  160.4524 H   0  0  0  0  0  0  0  0  0  0  0  0
  152.9606  143.5575  160.6223 H   0  0  0  0  0  0  0  0  0  0  0  0
  153.3285  142.3267  159.4203 H   0  0  0  0  0  0  0  0  0  0  0  0
  152.6734  141.9163  157.0015 H   0  0  0  0  0  0  0  0  0  0  0  0
  149.1483  139.0706  155.5341 H   0  0  0  0  0  0  0  0  0  0  0  0
  147.7343  139.8192  156.1483 H   0  0  0  0  0  0  0  0  0  0  0  0
  146.7440  141.9317  154.7010 H   0  0  0  0  0  0  0  0  0  0  0  0
  147.4951  142.2707  153.1482 H   0  0  0  0  0  0  0  0  0  0  0  0
  148.3464  142.6293  154.6461 H   0  0  0  0  0  0  0  0  0  0  0  0
  149.6900  140.0386  152.8493 H   0  0  0  0  0  0  0  0  0  0  0  0
  147.5679  140.4949  151.4484 H   0  0  0  0  0  0  0  0  0  0  0  0
  146.1833  138.8480  150.2536 H   0  0  0  0  0  0  0  0  0  0  0  0
  145.2477  136.8865  151.4500 H   0  0  0  0  0  0  0  0  0  0  0  0
  147.0947  138.2336  155.0996 H   0  0  0  0  0  0  0  0  0  0  0  0
  147.7821  141.7896  157.2780 H   0  0  0  0  0  0  0  0  0  0  0  0
  1  2  1  0  0  0  0
  1 25  1  0  0  0  0
  1 26  1  0  0  0  0
  1 27  1  0  0  0  0
  2  3  1  0  0  0  0
  2  4  1  0  0  0  0
  2 28  1  0  0  0  0
  3 29  1  0  0  0  0
  3 30  1  0  0  0  0
  3 31  1  0  0  0  0
  4 24  1  0  0  0  0
  4  5  2  0  0  0  0
  5  6  1  0  0  0  0
  5 32  1  0  0  0  0
  6  7  2  0  0  0  0
  6  8  1  0  0  0  0
  8  9  1  0  0  0  0
  8 23  1  0  0  0  0
  9 10  1  0  0  0  0
  9 33  1  0  0  0  0
  9 34  1  0  0  0  0
 10 11  1  0  0  0  0
 10 12  1  0  0  0  0
 10 13  1  0  0  0  0
 11 35  1  0  0  0  0
 11 36  1  0  0  0  0
 11 37  1  0  0  0  0
 12 38  1  0  0  0  0
 13 22  1  0  0  0  0
 13 14  2  0  0  0  0
 14 15  1  0  0  0  0
 14 39  1  0  0  0  0
 15 16  2  0  0  0  0
 15 40  1  0  0  0  0
 16 17  1  0  0  0  0
 16 41  1  0  0  0  0
 17 18  1  0  0  0  0
 17 22  2  0  0  0  0
 18 19  1  0  0  0  0
 18 20  1  0  0  0  0
 18 21  1  0  0  0  0
 22 42  1  0  0  0  0
 23 24  2  0  0  0  0
 23 43  1  0  0  0  0
M  END
> <s_m_source_file>
AV-unprocessed.smi

> <i_m_source_file_index>
2696

> <i_lp_mmshare_version>
43012

> <i_f3d_flags>
0

> <s_epik_input>
W0NIM11bQ0hdKFtDSDNdKWMxW2NIXWMoPU8pbihbY0hdbjEpW0NIMl1bQ0BAXShbQ0gzXSkoW09IXSljMltjSF1bY0hdW2NIXWMoQyhGKShGKUYpW2NIXTI=

> <s_epik_cmdline>
J2VwaWtfcHl0aG9uJywgJy1waCcsICc3LjAnLCAnLXRuJywgJzgnLCAnLW1hJywgJzIwMCcsICctbWV0YWxfYmluZGluZycsICctaW1hZScsICc8aW5maWxlLm1hZT4nLCAnLW9tYWUnLCAnPG91dGZpbGUubWFlPic=

> <r_lp_tautomer_probability>
1

> <r_epik_Ionization_Penalty>
2.71388e-05

> <r_epik_Ionization_Penalty_Charging>
4.19927e-06

> <r_epik_Ionization_Penalty_Neutral>
2.29395e-05

> <r_epik_State_Penalty>
-0

> <r_epik_Charging_Adjusted_Penalty>
4.19927e-06

> <i_epik_Tot_Q>
0

> <i_epik_Tot_abs_Q>
0

> <r_epik_Metal_State_Penalty>
-0

> <b_epik_Metal_Only>
0

> <s_lp_Force_Field>
OPLS_2005

> <r_lp_Energy>
19.4026

> <b_lp_Chiralities_Consistent>
1

> <s_lp_Variant>
AV-unprocessed.smi:2696-1

> <Gold.Version>
5.8.1

> <Gold.Id.Protein>
6NUR|6NUR_protein|mol2

> <Gold.PLP.Fitness>
48.6565

> <Gold.PLP.PLP>
-41.3792

> <Gold.PLP.part.hbond>
-3.6057

> <Gold.PLP.part.metal>
0.0000

> <Gold.PLP.part.buried>
1.2064

> <Gold.PLP.part.nonpolar>
-40.2466

> <Gold.PLP.part.repulsive>
0.1803

> <Gold.PLP.ligand.clash>
0.0643

> <Gold.PLP.ligand.torsion>
0.4831

> <Gold.PLP.Chemscore.Hbond>
2.6480

> <Gold.PLP.Chemscore.CHOScore>
0.0000

> <Gold.PLP.Chemscore.Metal>
0.0000

> <Gold.Chemscore.Hbonds>
donor molecule, donor type, donor heavy atom, donor atom, acceptor molecule, acceptor atom, score
      L1  H    12    38       P1  7957  0.64
      P1  H  7989  7998       L1     7  0.98
      P1  H  8011  8017       L1    12  0.93

> <Gold.PLP.Chemscore.Internal.Correction>
0.3639

> <Gold.Rescore>
     Score         DG    S(hbond)    S(metal)    S(lipo)     H(rot)  DE(clash)    DE(int)     intcor
     15.05     -19.51       1.84        0.00     116.25       2.23       3.08       1.39       ----

> <Gold.Chemscore.Fitness>
15.0456

> <Gold.Chemscore.DG>
-19.5091

> <Gold.Chemscore.ZeroCoef>
-5.4800

> <Gold.Chemscore.Hbond>
1.8383

> <Gold.Chemscore.Metal>
0.0000

> <Gold.Chemscore.Lipo>
116.2470

> <Gold.Chemscore.Internal_Hbond>
0.0000

> <Gold.Chemscore.DEClash>
3.0759

> <Gold.Chemscore.DEInternal>
1.3876

> <Gold.Chemscore.Rot>
2.2312

> <Gold.Chemscore.Internal.Correction>
   9.000000E+99

> <Gold.Chemscore.Hbonds>
donor molecule, donor type, donor heavy atom, donor atom, acceptor molecule, acceptor atom, score
      L1  H    12    38       P1  7957  0.64
      P1  H  7989  7998       L1     7  0.89
      P1  H  8011  8017       L1    12  0.26

> <Gold.Chemscore.Hbond.Weighted>
-6.1400

> <Gold.Chemscore.Metal.Weighted>
-0.0000

> <Gold.Chemscore.Lipo.Weighted>
-13.6009

> <Gold.Chemscore.Internal_Hbond.Weighted>
0.0000

> <Gold.Chemscore.DEClash.Weighted>
3.0759

> <Gold.Chemscore.DEInternal.Weighted>
1.3876

> <Gold.Chemscore.Rot.Weighted>
5.7118

> <Gold.Chemscore.Internal.Correction.Weighted>
   9.000000E+99

> <Gold.Protein.RotatedTorsions>
[ 6907 6896 6895 6894 ] final   73.33 input  -60.11 | X-H torsion
[ 7974 7965 7964 7962 ] final  112.74 input  175.53 | X-H torsion
[ 8008 7997 7996 7995 ] final  -75.11 input   59.86 | X-H torsion
[ 10167 10162 10161 10158 ] final   11.43 input  -65.29 | X-H torsion
[ 10718 10713 10712 10709 ] final    7.43 input   66.30 | X-H torsion
[ 10763 10752 10751 10750 ] final  -72.46 input  -60.55 | X-H torsion
[ 11005 11000 10999 10996 ] final -167.68 input  -57.11 | X-H torsion

> <Gold.Protein.ActiveResidues>
 VAL166  LYS551  ARG553  GLY616  TRP617  ASP618  TYR619  PRO620  LYS621  CYS622 
 ASP623  PHE694  ASN695  SER759  ASP760  ASP761  ALA762  ILE779  LEU786  VAL792 
 PHE793  MET794  SER795  GLU796  ALA797  LYS798  CYS799  TRP800  GLU811  SER814 

> <Gold.Protein.RotatedAtoms>
  152.4917  134.4438  159.9551 H   0  0  0  0  0  0  0  0  0  0  0  0  # atno 6907 bound_to 6896
  151.4424  133.3634  159.2791 H   0  0  0  0  0  0  0  0  0  0  0  0  # atno 6908 bound_to 6896
  150.9078  134.8518  159.7465 H   0  0  0  0  0  0  0  0  0  0  0  0  # atno 6909 bound_to 6896
  145.2257  139.2842  143.4194 H   0  0  0  0  0  0  0  0  0  0  0  0  # atno 7974 bound_to 7965
  154.5388  140.0749  156.8475 H   0  0  0  0  0  0  0  0  0  0  0  0  # atno 8008 bound_to 7997
  155.3222  140.3397  155.4223 H   0  0  0  0  0  0  0  0  0  0  0  0  # atno 8009 bound_to 7997
  156.1855  140.1667  156.8180 H   0  0  0  0  0  0  0  0  0  0  0  0  # atno 8010 bound_to 7997
  140.6132  143.8363  150.7089 H   0  0  0  0  0  0  0  0  0  0  0  0  # atno 10167 bound_to 10162
  156.9369  130.5846  149.5651 H   0  0  0  0  0  0  0  0  0  0  0  0  # atno 10718 bound_to 10713
  154.4460  135.5929  153.6160 H   0  0  0  0  0  0  0  0  0  0  0  0  # atno 10763 bound_to 10752
  152.9809  135.6009  154.3663 H   0  0  0  0  0  0  0  0  0  0  0  0  # atno 10764 bound_to 10752
  154.3519  135.2841  155.2346 H   0  0  0  0  0  0  0  0  0  0  0  0  # atno 10765 bound_to 10752
  140.5506  134.5432  157.5121 H   0  0  0  0  0  0  0  0  0  0  0  0  # atno 11005 bound_to 11000
  146.3365  140.2577  142.8601 LP  0  0  0  0  0  0  0  0  0  0  0  0  # atno 17320 bound_to 7965
  144.9723  140.8381  143.5447 LP  0  0  0  0  0  0  0  0  0  0  0  0  # atno 17321 bound_to 7965
  140.1936  143.4016  152.1845 LP  0  0  0  0  0  0  0  0  0  0  0  0  # atno 17342 bound_to 10162
  139.5378  144.7227  151.4835 LP  0  0  0  0  0  0  0  0  0  0  0  0  # atno 17343 bound_to 10162
  156.0422  130.5503  150.8797 LP  0  0  0  0  0  0  0  0  0  0  0  0  # atno 17370 bound_to 10713
  157.5811  131.0946  150.9270 LP  0  0  0  0  0  0  0  0  0  0  0  0  # atno 17371 bound_to 10713
  139.9457  134.7706  156.0567 LP  0  0  0  0  0  0  0  0  0  0  0  0  # atno 17394 bound_to 11000
  141.1174  133.6623  156.3128 LP  0  0  0  0  0  0  0  0  0  0  0  0  # atno 17395 bound_to 11000

$$$$
