AV-unprocessed.smi:157|AV-procd|sdf|1297|dock7
  -GOLD-   2262018583D 1   1.00000     0.00000
 Structure written by MMmdl.
 35 37  0  0  0  0  0  0  0  0  1 V2000
  144.9039  136.2903  151.0304 O   0  0  0  0  0  0  0  0  0  0  0  0
  144.3369  135.1621  150.3995 C   0  0  0  0  0  0  0  0  0  0  0  0
  145.2204  133.9284  150.6372 C   0  0  1  0  0  0  0  0  0  0  0  0
  145.2319  133.6008  152.0233 O   0  0  0  0  0  0  0  0  0  0  0  0
  145.5138  132.2422  152.1929 C   0  0  2  0  0  0  0  0  0  0  0  0
  146.9181  132.0944  152.6996 N   0  0  0  0  0  0  0  0  0  0  0  0
  147.8060  133.0746  152.9180 C   0  0  0  0  0  0  0  0  0  0  0  0
  148.9824  132.6626  153.3598 N   0  0  0  0  0  0  0  0  0  0  0  0
  148.8447  131.2785  153.4422 C   0  0  0  0  0  0  0  0  0  0  0  0
  147.5701  130.9058  153.0404 C   0  0  0  0  0  0  0  0  0  0  0  0
  146.8764  129.7186  152.9021 N   0  0  0  0  0  0  0  0  0  0  0  0
  147.3257  128.6753  153.5255 C   0  0  0  0  0  0  0  0  0  0  0  0
  148.4846  128.5066  154.2699 N   0  0  0  0  0  0  0  0  0  0  0  0
  149.7969  128.9280  153.8099 C   0  0  0  0  0  0  0  0  0  0  0  0
  150.0132  130.4448  153.8821 C   0  0  2  0  0  0  0  0  0  0  0  0
  150.3048  130.8117  155.2153 O   0  0  0  0  0  0  0  0  0  0  0  0
  145.3810  131.5767  150.8176 C   0  0  0  0  0  0  0  0  0  0  0  0
  144.6656  132.6462  150.0158 C   0  0  2  0  0  0  0  0  0  0  0  0
  144.9686  132.5372  148.6400 O   0  0  0  0  0  0  0  0  0  0  0  0
  146.2421  134.0962  150.2897 H   0  0  0  0  0  0  0  0  0  0  0  0
  144.8761  131.8136  152.9668 H   0  0  0  0  0  0  0  0  0  0  0  0
  150.8915  130.6962  153.2867 H   0  0  0  0  0  0  0  0  0  0  0  0
  143.5879  132.5768  150.1726 H   0  0  0  0  0  0  0  0  0  0  0  0
  144.5654  137.0686  150.6150 H   0  0  0  0  0  0  0  0  0  0  0  0
  143.3196  134.9965  150.7553 H   0  0  0  0  0  0  0  0  0  0  0  0
  144.2755  135.3803  149.3329 H   0  0  0  0  0  0  0  0  0  0  0  0
  147.5912  134.1190  152.7461 H   0  0  0  0  0  0  0  0  0  0  0  0
  146.7402  127.7558  153.4843 H   0  0  0  0  0  0  0  0  0  0  0  0
  148.5513  127.7057  154.8815 H   0  0  0  0  0  0  0  0  0  0  0  0
  150.5723  128.3985  154.3644 H   0  0  0  0  0  0  0  0  0  0  0  0
  149.8939  128.6082  152.7712 H   0  0  0  0  0  0  0  0  0  0  0  0
  149.4963  131.0645  155.6350 H   0  0  0  0  0  0  0  0  0  0  0  0
  146.3716  131.3732  150.4061 H   0  0  0  0  0  0  0  0  0  0  0  0
  144.8271  130.6399  150.8854 H   0  0  0  0  0  0  0  0  0  0  0  0
  145.1026  133.4058  148.2922 H   0  0  0  0  0  0  0  0  0  0  0  0
  1  2  1  0  0  0  0
  1 24  1  0  0  0  0
  2  3  1  0  0  0  0
  2 25  1  0  0  0  0
  2 26  1  0  0  0  0
  3 20  1  0  0  0  0
  3 18  1  0  0  0  0
  3  4  1  0  0  0  0
  4  5  1  0  0  0  0
  5 21  1  0  0  0  0
  5  6  1  0  0  0  0
  5 17  1  0  0  0  0
  6 10  1  0  0  0  0
  6  7  1  0  0  0  0
  7  8  2  0  0  0  0
  7 27  1  0  0  0  0
  8  9  1  0  0  0  0
  9 15  1  0  0  0  0
  9 10  2  0  0  0  0
 10 11  1  0  0  0  0
 11 12  2  0  0  0  0
 12 13  1  0  0  0  0
 12 28  1  0  0  0  0
 13 14  1  0  0  0  0
 13 29  1  0  0  0  0
 14 15  1  0  0  0  0
 14 30  1  0  0  0  0
 14 31  1  0  0  0  0
 15 22  1  0  0  0  0
 15 16  1  0  0  0  0
 16 32  1  0  0  0  0
 17 18  1  0  0  0  0
 17 33  1  0  0  0  0
 17 34  1  0  0  0  0
 18 23  1  0  0  0  0
 18 19  1  0  0  0  0
 19 35  1  0  0  0  0
M  END
> <s_m_source_file>
AV-unprocessed.smi

> <i_m_source_file_index>
157

> <i_lp_mmshare_version>
43012

> <i_f3d_flags>
0

> <s_epik_input>
W09IXVtDSDJdW0NASF0xT1tDQEhdKFtDSDJdW0NAQEhdMVtPSF0pbihbY0hdbjIpYyhjMjMpTj1bQ0hdW05IXVtDSDJdW0NASF0zW09IXQ==

> <s_epik_cmdline>
J2VwaWtfcHl0aG9uJywgJy1waCcsICc3LjAnLCAnLXRuJywgJzgnLCAnLW1hJywgJzIwMCcsICctbWV0YWxfYmluZGluZycsICctaW1hZScsICc8aW5maWxlLm1hZT4nLCAnLW9tYWUnLCAnPG91dGZpbGUubWFlPic=

> <r_lp_tautomer_probability>
1

> <r_epik_Ionization_Penalty>
0.0357149

> <r_epik_Ionization_Penalty_Charging>
0.0355056

> <r_epik_Ionization_Penalty_Neutral>
0.000209255

> <r_epik_State_Penalty>
0.0296046

> <r_epik_Charging_Adjusted_Penalty>
0.0651102

> <i_epik_Tot_Q>
0

> <i_epik_Tot_abs_Q>
0

> <r_epik_Metal_State_Penalty>
3.03559e-05

> <b_epik_Metal_Only>
0

> <s_epik_Chemistry_Notes>
This compound has an imine and may undergo hydrolysis. This compound contains an acetal/aminal-like group ( X-CH(R)-Y where X, Y are N, S, or O) that may be acid/base labile, releasing an aldehyde.

> <s_lp_Force_Field>
OPLS_2005

> <r_lp_Energy>
44.0158

> <b_lp_Chiralities_Consistent>
1

> <s_lp_Variant>
AV-unprocessed.smi:157-7

> <Gold.Version>
5.8.1

> <Gold.Id.Protein>
6NUR|6NUR_protein|mol2

> <Gold.PLP.Fitness>
39.6568

> <Gold.PLP.PLP>
-30.7241

> <Gold.PLP.part.hbond>
-3.0000

> <Gold.PLP.part.metal>
0.0000

> <Gold.PLP.part.buried>
-4.2318

> <Gold.PLP.part.nonpolar>
-22.1778

> <Gold.PLP.part.repulsive>
0.3935

> <Gold.PLP.ligand.clash>
0.0000

> <Gold.PLP.ligand.torsion>
0.0407

> <Gold.PLP.Chemscore.Hbond>
2.0000

> <Gold.PLP.Chemscore.CHOScore>
0.9983

> <Gold.PLP.Chemscore.Metal>
0.0000

> <Gold.Chemscore.Hbonds>
donor molecule, donor type, donor heavy atom, donor atom, acceptor molecule, acceptor atom, score
      L1  H     1    24       P1 10171  1.00
      L1  H    19    35       P1  7921  1.00
      L1  C     7    27       P1  7948  0.77

> <Gold.PLP.Chemscore.Internal.Correction>
0.0191

> <Gold.Rescore>
     Score         DG    S(hbond)    S(metal)    S(lipo)     H(rot)  DE(clash)    DE(int)     intcor
      7.66      -7.81       1.81        0.00      47.95       3.64       0.01       0.14       ----

> <Gold.Chemscore.Fitness>
7.6622

> <Gold.Chemscore.DG>
-7.8126

> <Gold.Chemscore.ZeroCoef>
-5.4800

> <Gold.Chemscore.Hbond>
1.8057

> <Gold.Chemscore.Metal>
0.0000

> <Gold.Chemscore.Lipo>
47.9506

> <Gold.Chemscore.Internal_Hbond>
0.0000

> <Gold.Chemscore.DEClash>
0.0131

> <Gold.Chemscore.DEInternal>
0.1373

> <Gold.Chemscore.Rot>
3.6362

> <Gold.Chemscore.Internal.Correction>
   9.000000E+99

> <Gold.Chemscore.Hbonds>
donor molecule, donor type, donor heavy atom, donor atom, acceptor molecule, acceptor atom, score
      L1  H     1    24       P1 10171  1.00
      L1  H    19    35       P1  7921  0.54

> <Gold.Chemscore.Hbond.Weighted>
-6.0311

> <Gold.Chemscore.Metal.Weighted>
-0.0000

> <Gold.Chemscore.Lipo.Weighted>
-5.6102

> <Gold.Chemscore.Internal_Hbond.Weighted>
0.0000

> <Gold.Chemscore.DEClash.Weighted>
0.0131

> <Gold.Chemscore.DEInternal.Weighted>
0.1373

> <Gold.Chemscore.Rot.Weighted>
9.3087

> <Gold.Chemscore.Internal.Correction.Weighted>
   9.000000E+99

> <Gold.Protein.RotatedTorsions>
[ 6907 6896 6895 6894 ] final   52.08 input  -60.11 | X-H torsion
[ 7974 7965 7964 7962 ] final  -14.25 input  175.53 | X-H torsion
[ 8008 7997 7996 7995 ] final  121.00 input   59.86 | X-H torsion
[ 10167 10162 10161 10158 ] final -107.68 input  -65.29 | X-H torsion
[ 10718 10713 10712 10709 ] final  129.23 input   66.30 | X-H torsion
[ 10763 10752 10751 10750 ] final  -76.99 input  -60.55 | X-H torsion
[ 11005 11000 10999 10996 ] final  178.39 input  -57.11 | X-H torsion

> <Gold.Protein.ActiveResidues>
 VAL166  LYS551  ARG553  GLY616  TRP617  ASP618  TYR619  PRO620  LYS621  CYS622 
 ASP623  PHE694  ASN695  SER759  ASP760  ASP761  ALA762  ILE779  LEU786  VAL792 
 PHE793  MET794  SER795  GLU796  ALA797  LYS798  CYS799  TRP800  GLU811  SER814 

> <Gold.Protein.RotatedAtoms>
  152.3194  134.7399  160.0317 H   0  0  0  0  0  0  0  0  0  0  0  0  # atno 6907 bound_to 6896
  151.7852  133.3348  159.3491 H   0  0  0  0  0  0  0  0  0  0  0  0  # atno 6908 bound_to 6896
  150.7362  134.5825  159.5990 H   0  0  0  0  0  0  0  0  0  0  0  0  # atno 6909 bound_to 6896
  146.2082  140.3321  142.8400 H   0  0  0  0  0  0  0  0  0  0  0  0  # atno 7974 bound_to 7965
  156.2667  140.2818  156.1239 H   0  0  0  0  0  0  0  0  0  0  0  0  # atno 8008 bound_to 7997
  155.1126  140.0391  157.2746 H   0  0  0  0  0  0  0  0  0  0  0  0  # atno 8009 bound_to 7997
  154.6731  140.2592  155.6992 H   0  0  0  0  0  0  0  0  0  0  0  0  # atno 8010 bound_to 7997
  140.1743  143.4017  152.1330 H   0  0  0  0  0  0  0  0  0  0  0  0  # atno 10167 bound_to 10162
  157.5173  131.1097  150.9205 H   0  0  0  0  0  0  0  0  0  0  0  0  # atno 10718 bound_to 10713
  154.5071  135.5779  153.6576 H   0  0  0  0  0  0  0  0  0  0  0  0  # atno 10763 bound_to 10752
  152.9890  135.6149  154.2927 H   0  0  0  0  0  0  0  0  0  0  0  0  # atno 10764 bound_to 10752
  154.2839  135.2850  155.2664 H   0  0  0  0  0  0  0  0  0  0  0  0  # atno 10765 bound_to 10752
  140.3946  134.6831  157.4527 H   0  0  0  0  0  0  0  0  0  0  0  0  # atno 11005 bound_to 11000
  144.8845  140.7443  143.5966 LP  0  0  0  0  0  0  0  0  0  0  0  0  # atno 17320 bound_to 7965
  145.3242  139.1779  143.4571 LP  0  0  0  0  0  0  0  0  0  0  0  0  # atno 17321 bound_to 7965
  139.5324  144.7173  151.5010 LP  0  0  0  0  0  0  0  0  0  0  0  0  # atno 17342 bound_to 10162
  140.6561  143.8596  150.6837 LP  0  0  0  0  0  0  0  0  0  0  0  0  # atno 17343 bound_to 10162
  156.9827  130.5533  149.5297 LP  0  0  0  0  0  0  0  0  0  0  0  0  # atno 17370 bound_to 10713
  156.0329  130.5419  150.8581 LP  0  0  0  0  0  0  0  0  0  0  0  0  # atno 17371 bound_to 10713
  140.0381  134.6307  155.9017 LP  0  0  0  0  0  0  0  0  0  0  0  0  # atno 17394 bound_to 11000
  141.1878  133.6561  156.5299 LP  0  0  0  0  0  0  0  0  0  0  0  0  # atno 17395 bound_to 11000

$$$$
