AV-unprocessed.smi:1713|AV-procd|sdf|6906|dock2
  -GOLD-   22720 8113D 1   1.00000     0.00000
 Structure written by MMmdl.
 38 39  0  0  0  0  0  0  0  0  1 V2000
  145.8645  143.2290  153.4717 C   0  0  0  0  0  0  0  0  0  0  0  0
  147.0710  142.3507  153.8266 C   0  0  0  0  0  0  0  0  0  0  0  0
  146.7288  140.9414  153.8477 N   0  0  0  0  0  0  0  0  0  0  0  0
  147.2181  139.9315  153.0431 C   0  0  0  0  0  0  0  0  0  0  0  0
  146.5864  138.7942  153.4478 C   0  0  0  0  0  0  0  0  0  0  0  0
  146.7898  137.5104  152.8831 N   0  0  0  0  0  0  0  0  0  0  0  0
  145.8992  136.5088  152.8020 C   0  0  0  0  0  0  0  0  0  0  0  0
  144.7484  136.5487  153.2371 O   0  0  0  0  0  0  0  0  0  0  0  0
  146.4236  135.4396  152.1860 N   0  0  0  0  0  0  0  0  0  0  0  0
  145.7271  134.1792  151.9457 C   0  0  2  0  0  0  0  0  0  0  0  0
  146.6255  132.9849  152.3245 C   0  0  0  0  0  0  0  0  0  0  0  0
  145.9382  131.6424  152.0201 C   0  0  0  0  0  0  0  0  0  0  0  0
  145.4657  131.5443  150.5573 C   0  0  2  0  0  0  0  0  0  0  0  0
  146.5797  131.4348  149.6936 O   0  0  0  0  0  0  0  0  0  0  0  0
  144.6055  132.7580  150.1571 C   0  0  0  0  0  0  0  0  0  0  0  0
  145.3030  134.0943  150.4681 C   0  0  0  0  0  0  0  0  0  0  0  0
  145.7179  139.1873  154.5049 C   0  0  0  0  0  0  0  0  0  0  0  0
  145.8104  140.4882  154.7368 N   0  0  0  0  0  0  0  0  0  0  0  0
  146.1364  144.2845  153.4882 H   0  0  0  0  0  0  0  0  0  0  0  0
  145.0493  143.0841  154.1811 H   0  0  0  0  0  0  0  0  0  0  0  0
  145.4868  143.0003  152.4747 H   0  0  0  0  0  0  0  0  0  0  0  0
  147.8776  142.5038  153.1084 H   0  0  0  0  0  0  0  0  0  0  0  0
  147.4614  142.6299  154.8060 H   0  0  0  0  0  0  0  0  0  0  0  0
  147.9552  140.1074  152.2733 H   0  0  0  0  0  0  0  0  0  0  0  0
  147.7076  137.3371  152.5006 H   0  0  0  0  0  0  0  0  0  0  0  0
  147.3786  135.4978  151.8641 H   0  0  0  0  0  0  0  0  0  0  0  0
  144.8232  134.1475  152.5574 H   0  0  0  0  0  0  0  0  0  0  0  0
  147.5682  133.0431  151.7785 H   0  0  0  0  0  0  0  0  0  0  0  0
  146.8822  133.0289  153.3836 H   0  0  0  0  0  0  0  0  0  0  0  0
  146.6087  130.8156  152.2575 H   0  0  0  0  0  0  0  0  0  0  0  0
  145.0762  131.5325  152.6792 H   0  0  0  0  0  0  0  0  0  0  0  0
  144.8784  130.6338  150.4340 H   0  0  0  0  0  0  0  0  0  0  0  0
  147.3525  131.2870  150.2171 H   0  0  0  0  0  0  0  0  0  0  0  0
  144.3469  132.7071  149.0988 H   0  0  0  0  0  0  0  0  0  0  0  0
  143.6611  132.7184  150.7015 H   0  0  0  0  0  0  0  0  0  0  0  0
  144.6335  134.9198  150.2243 H   0  0  0  0  0  0  0  0  0  0  0  0
  146.1766  134.2073  149.8245 H   0  0  0  0  0  0  0  0  0  0  0  0
  145.0356  138.5983  155.0993 H   0  0  0  0  0  0  0  0  0  0  0  0
  1  2  1  0  0  0  0
  1 19  1  0  0  0  0
  1 20  1  0  0  0  0
  1 21  1  0  0  0  0
  2  3  1  0  0  0  0
  2 22  1  0  0  0  0
  2 23  1  0  0  0  0
  3 18  1  0  0  0  0
  3  4  1  0  0  0  0
  4  5  2  0  0  0  0
  4 24  1  0  0  0  0
  5  6  1  0  0  0  0
  5 17  1  0  0  0  0
  6  7  1  0  0  0  0
  6 25  1  0  0  0  0
  7  8  2  0  0  0  0
  7  9  1  0  0  0  0
  9 10  1  0  0  0  0
  9 26  1  0  0  0  0
 10 16  1  0  0  0  0
 10 11  1  0  0  0  0
 10 27  1  0  0  0  0
 11 12  1  0  0  0  0
 11 28  1  0  0  0  0
 11 29  1  0  0  0  0
 12 13  1  0  0  0  0
 12 30  1  0  0  0  0
 12 31  1  0  0  0  0
 13 14  1  0  0  0  0
 13 15  1  0  0  0  0
 13 32  1  0  0  0  0
 14 33  1  0  0  0  0
 15 16  1  0  0  0  0
 15 34  1  0  0  0  0
 15 35  1  0  0  0  0
 16 36  1  0  0  0  0
 16 37  1  0  0  0  0
 17 18  2  0  0  0  0
 17 38  1  0  0  0  0
M  END
> <s_m_source_file>
AV-unprocessed.smi

> <i_m_source_file_index>
1713

> <i_lp_mmshare_version>
43012

> <i_f3d_flags>
0

> <s_epik_input>
W0NIM11bQ0gyXW4xW2NIXWMoW2NIXW4xKVtOSF1DKD1PKVtOSF1bQ0BASF0yW0NIMl1bQ0gyXVtDQEBIXShbT0hdKVtDSDJdW0NIMl0y

> <s_epik_cmdline>
J2VwaWtfcHl0aG9uJywgJy1waCcsICc3LjAnLCAnLXRuJywgJzgnLCAnLW1hJywgJzIwMCcsICctbWV0YWxfYmluZGluZycsICctaW1hZScsICc8aW5maWxlLm1hZT4nLCAnLW9tYWUnLCAnPG91dGZpbGUubWFlPic=

> <r_lp_tautomer_probability>
1

> <r_epik_Ionization_Penalty>
0.000190859

> <r_epik_Ionization_Penalty_Charging>
0

> <r_epik_Ionization_Penalty_Neutral>
0.000190859

> <r_epik_State_Penalty>
-0

> <r_epik_Charging_Adjusted_Penalty>
0

> <i_epik_Tot_Q>
0

> <i_epik_Tot_abs_Q>
0

> <r_epik_Metal_State_Penalty>
-0

> <b_epik_Metal_Only>
0

> <s_lp_Force_Field>
OPLS_2005

> <r_lp_Energy>
14.03

> <b_lp_Chiralities_Consistent>
1

> <s_lp_Variant>
AV-unprocessed.smi:1713-2

> <Gold.Version>
5.8.1

> <Gold.Id.Protein>
6NUR|6NUR_protein|mol2

> <Gold.PLP.Fitness>
42.9763

> <Gold.PLP.PLP>
-31.7333

> <Gold.PLP.part.hbond>
-3.0000

> <Gold.PLP.part.metal>
0.0000

> <Gold.PLP.part.buried>
-4.2304

> <Gold.PLP.part.nonpolar>
-24.2515

> <Gold.PLP.part.repulsive>
0.2570

> <Gold.PLP.ligand.clash>
0.0000

> <Gold.PLP.ligand.torsion>
0.3823

> <Gold.PLP.Chemscore.Hbond>
3.0000

> <Gold.PLP.Chemscore.CHOScore>
1.0000

> <Gold.PLP.Chemscore.Metal>
0.0000

> <Gold.Chemscore.Hbonds>
donor molecule, donor type, donor heavy atom, donor atom, acceptor molecule, acceptor atom, score
      L1  H     6    25       P1  7948  1.00
      L1  H     9    26       P1  7948  1.00
      L1  H    14    33       P1 10747  0.94
      L1  C     4    24       P1  7957  0.86

> <Gold.PLP.Chemscore.Internal.Correction>
0.0076

> <Gold.Rescore>
     Score         DG    S(hbond)    S(metal)    S(lipo)     H(rot)  DE(clash)    DE(int)     intcor
     18.44     -18.90       2.89        0.00      68.97       1.69       0.04       0.41       ----

> <Gold.Chemscore.Fitness>
18.4435

> <Gold.Chemscore.DG>
-18.9009

> <Gold.Chemscore.ZeroCoef>
-5.4800

> <Gold.Chemscore.Hbond>
2.8938

> <Gold.Chemscore.Metal>
0.0000

> <Gold.Chemscore.Lipo>
68.9735

> <Gold.Chemscore.Internal_Hbond>
0.0000

> <Gold.Chemscore.DEClash>
0.0431

> <Gold.Chemscore.DEInternal>
0.4143

> <Gold.Chemscore.Rot>
1.6853

> <Gold.Chemscore.Internal.Correction>
   9.000000E+99

> <Gold.Chemscore.Hbonds>
donor molecule, donor type, donor heavy atom, donor atom, acceptor molecule, acceptor atom, score
      L1  H     6    25       P1  7948  0.96
      L1  H     9    26       P1  7948  0.97
      L1  H    14    33       P1 10747  0.91

> <Gold.Chemscore.Hbond.Weighted>
-9.6654

> <Gold.Chemscore.Metal.Weighted>
-0.0000

> <Gold.Chemscore.Lipo.Weighted>
-8.0699

> <Gold.Chemscore.Internal_Hbond.Weighted>
0.0000

> <Gold.Chemscore.DEClash.Weighted>
0.0431

> <Gold.Chemscore.DEInternal.Weighted>
0.4143

> <Gold.Chemscore.Rot.Weighted>
4.3144

> <Gold.Chemscore.Internal.Correction.Weighted>
   9.000000E+99

> <Gold.Protein.RotatedTorsions>
[ 6907 6896 6895 6894 ] final -161.24 input  -60.11 | X-H torsion
[ 7974 7965 7964 7962 ] final   99.54 input  175.53 | X-H torsion
[ 8008 7997 7996 7995 ] final   85.65 input   59.86 | X-H torsion
[ 10167 10162 10161 10158 ] final -144.47 input  -65.29 | X-H torsion
[ 10718 10713 10712 10709 ] final  -12.03 input   66.30 | X-H torsion
[ 10763 10752 10751 10750 ] final  115.32 input  -60.55 | X-H torsion
[ 11005 11000 10999 10996 ] final  173.47 input  -57.11 | X-H torsion

> <Gold.Protein.ActiveResidues>
 VAL166  LYS551  ARG553  GLY616  TRP617  ASP618  TYR619  PRO620  LYS621  CYS622 
 ASP623  PHE694  ASN695  SER759  ASP760  ASP761  ALA762  ILE779  LEU786  VAL792 
 PHE793  MET794  SER795  GLU796  ALA797  LYS798  CYS799  TRP800  GLU811  SER814 

> <Gold.Protein.RotatedAtoms>
  151.3616  133.3887  159.2690 H   0  0  0  0  0  0  0  0  0  0  0  0  # atno 6907 bound_to 6896
  150.9721  134.9093  159.7805 H   0  0  0  0  0  0  0  0  0  0  0  0  # atno 6908 bound_to 6896
  152.5188  134.3578  159.9326 H   0  0  0  0  0  0  0  0  0  0  0  0  # atno 6909 bound_to 6896
  145.3975  139.2353  143.3318 H   0  0  0  0  0  0  0  0  0  0  0  0  # atno 7974 bound_to 7965
  155.9528  140.3399  155.6422 H   0  0  0  0  0  0  0  0  0  0  0  0  # atno 8008 bound_to 7997
  155.6898  140.0747  157.2471 H   0  0  0  0  0  0  0  0  0  0  0  0  # atno 8009 bound_to 7997
  154.4125  140.1659  156.2061 H   0  0  0  0  0  0  0  0  0  0  0  0  # atno 8010 bound_to 7997
  139.7896  143.7985  152.2648 H   0  0  0  0  0  0  0  0  0  0  0  0  # atno 10167 bound_to 10162
  156.6504  130.4953  149.6064 H   0  0  0  0  0  0  0  0  0  0  0  0  # atno 10718 bound_to 10713
  153.5204  135.3599  155.2629 H   0  0  0  0  0  0  0  0  0  0  0  0  # atno 10763 bound_to 10752
  154.8735  135.4044  154.3266 H   0  0  0  0  0  0  0  0  0  0  0  0  # atno 10764 bound_to 10752
  153.3935  135.7072  153.6544 H   0  0  0  0  0  0  0  0  0  0  0  0  # atno 10765 bound_to 10752
  140.3408  134.7278  157.4201 H   0  0  0  0  0  0  0  0  0  0  0  0  # atno 11005 bound_to 11000
  146.2768  140.4668  142.8792 LP  0  0  0  0  0  0  0  0  0  0  0  0  # atno 17320 bound_to 7965
  144.8397  140.6837  143.6237 LP  0  0  0  0  0  0  0  0  0  0  0  0  # atno 17321 bound_to 7965
  139.8072  144.7350  150.9745 LP  0  0  0  0  0  0  0  0  0  0  0  0  # atno 17342 bound_to 10162
  140.7820  143.4286  151.0729 LP  0  0  0  0  0  0  0  0  0  0  0  0  # atno 17343 bound_to 10162
  156.2089  130.6666  151.1248 LP  0  0  0  0  0  0  0  0  0  0  0  0  # atno 17370 bound_to 10713
  157.7143  131.0718  150.6387 LP  0  0  0  0  0  0  0  0  0  0  0  0  # atno 17371 bound_to 10713
  140.0783  134.5767  155.8568 LP  0  0  0  0  0  0  0  0  0  0  0  0  # atno 17394 bound_to 11000
  141.2039  133.6635  156.6089 LP  0  0  0  0  0  0  0  0  0  0  0  0  # atno 17395 bound_to 11000

$$$$
