AV-unprocessed.smi:1644|AV-procd|sdf|6594|dock3
  -GOLD-   22720 7293D 1   1.00000     0.00000
 Structure written by MMmdl.
 48 50  0  0  0  0  0  0  0  0  2 V2000
  157.3076  145.6030  169.3791 C   0  0  0  0  0  0  0  0  0  0  0  0
  156.2381  144.6649  168.8088 C   0  0  0  0  0  0  0  0  0  0  0  0
  156.7601  143.8375  167.6248 C   0  0  0  0  0  0  0  0  0  0  0  0
  155.7049  142.8839  167.0302 C   0  0  2  0  0  0  0  0  0  0  0  0
  155.4557  141.7544  167.9015 N   0  5  0  0  0  0  0  0  0  0  0  0
  155.6847  140.6148  167.2083 C   0  0  0  0  0  0  0  0  0  0  0  0
  155.5374  139.4645  167.6195 O   0  0  0  0  0  0  0  0  0  0  0  0
  156.1050  140.8828  165.9568 N   0  0  0  0  0  0  0  0  0  0  0  0
  156.3648  139.8777  164.9177 C   0  0  0  0  0  0  0  0  0  0  0  0
  155.9821  140.3168  163.4861 C   0  0  1  0  0  0  0  0  0  0  0  0
  157.1815  140.6730  162.8299 O   0  0  0  0  0  0  0  0  0  0  0  0
  155.2849  139.2372  162.6294 C   0  0  0  0  0  0  0  0  0  0  0  0
  154.7872  139.7276  161.3551 N   0  0  0  0  0  0  0  0  0  0  0  0
  154.8617  139.1046  160.1621 C   0  0  0  0  0  0  0  0  0  0  0  0
  154.2823  139.6994  159.1240 N   0  0  0  0  0  0  0  0  0  0  0  0
  153.7647  140.8397  159.7116 C   0  0  0  0  0  0  0  0  0  0  0  0
  153.0231  141.9020  159.1492 C   0  0  0  0  0  0  0  0  0  0  0  0
  152.5992  142.9900  159.9446 C   0  0  0  0  0  0  0  0  0  0  0  0
  151.8226  144.1211  159.2946 C   0  0  0  0  0  0  0  0  0  0  0  0
  152.9053  143.0195  161.3287 C   0  0  0  0  0  0  0  0  0  0  0  0
  152.4722  144.1838  162.2008 C   0  0  0  0  0  0  0  0  0  0  0  0
  153.6318  141.9591  161.9092 C   0  0  0  0  0  0  0  0  0  0  0  0
  154.0618  140.8882  161.1055 C   0  0  0  0  0  0  0  0  0  0  0  0
  156.1764  142.2039  165.7605 C   0  0  0  0  0  0  0  0  0  0  0  0
  156.5345  142.7976  164.7423 O   0  0  0  0  0  0  0  0  0  0  0  0
  156.9142  146.1753  170.2191 H   0  0  0  0  0  0  0  0  0  0  0  0
  157.6521  146.3108  168.6248 H   0  0  0  0  0  0  0  0  0  0  0  0
  158.1732  145.0423  169.7330 H   0  0  0  0  0  0  0  0  0  0  0  0
  155.8886  143.9985  169.5980 H   0  0  0  0  0  0  0  0  0  0  0  0
  155.3742  145.2510  168.4938 H   0  0  0  0  0  0  0  0  0  0  0  0
  157.1142  144.5226  166.8528 H   0  0  0  0  0  0  0  0  0  0  0  0
  157.6297  143.2674  167.9458 H   0  0  0  0  0  0  0  0  0  0  0  0
  154.7950  143.4375  166.7945 H   0  0  0  0  0  0  0  0  0  0  0  0
  157.4302  139.6421  164.9499 H   0  0  0  0  0  0  0  0  0  0  0  0
  155.8584  138.9405  165.1560 H   0  0  0  0  0  0  0  0  0  0  0  0
  155.3772  141.2227  163.5177 H   0  0  0  0  0  0  0  0  0  0  0  0
  157.6693  139.8840  162.6504 H   0  0  0  0  0  0  0  0  0  0  0  0
  155.9903  138.4381  162.3966 H   0  0  0  0  0  0  0  0  0  0  0  0
  154.4706  138.7735  163.1869 H   0  0  0  0  0  0  0  0  0  0  0  0
  155.3598  138.1528  160.0504 H   0  0  0  0  0  0  0  0  0  0  0  0
  152.7938  141.8795  158.0943 H   0  0  0  0  0  0  0  0  0  0  0  0
  150.8254  144.1978  159.7281 H   0  0  0  0  0  0  0  0  0  0  0  0
  151.7117  143.9620  158.2216 H   0  0  0  0  0  0  0  0  0  0  0  0
  152.3376  145.0711  159.4385 H   0  0  0  0  0  0  0  0  0  0  0  0
  152.7803  144.0403  163.2368 H   0  0  0  0  0  0  0  0  0  0  0  0
  151.3876  144.2919  162.1853 H   0  0  0  0  0  0  0  0  0  0  0  0
  152.9200  145.1120  161.8450 H   0  0  0  0  0  0  0  0  0  0  0  0
  153.8757  141.9742  162.9611 H   0  0  0  0  0  0  0  0  0  0  0  0
  1  2  1  0  0  0  0
  1 26  1  0  0  0  0
  1 27  1  0  0  0  0
  1 28  1  0  0  0  0
  2  3  1  0  0  0  0
  2 29  1  0  0  0  0
  2 30  1  0  0  0  0
  3  4  1  0  0  0  0
  3 31  1  0  0  0  0
  3 32  1  0  0  0  0
  4 24  1  0  0  0  0
  4  5  1  0  0  0  0
  4 33  1  0  0  0  0
  5  6  1  0  0  0  0
  6  7  2  0  0  0  0
  6  8  1  0  0  0  0
  8  9  1  0  0  0  0
  8 24  1  0  0  0  0
  9 10  1  0  0  0  0
  9 34  1  0  0  0  0
  9 35  1  0  0  0  0
 10 11  1  0  0  0  0
 10 12  1  0  0  0  0
 10 36  1  0  0  0  0
 11 37  1  0  0  0  0
 12 13  1  0  0  0  0
 12 38  1  0  0  0  0
 12 39  1  0  0  0  0
 13 23  1  0  0  0  0
 13 14  1  0  0  0  0
 14 15  2  0  0  0  0
 14 40  1  0  0  0  0
 15 16  1  0  0  0  0
 16 23  2  0  0  0  0
 16 17  1  0  0  0  0
 17 18  2  0  0  0  0
 17 41  1  0  0  0  0
 18 19  1  0  0  0  0
 18 20  1  0  0  0  0
 19 42  1  0  0  0  0
 19 43  1  0  0  0  0
 19 44  1  0  0  0  0
 20 21  1  0  0  0  0
 20 22  2  0  0  0  0
 21 45  1  0  0  0  0
 21 46  1  0  0  0  0
 21 47  1  0  0  0  0
 22 23  1  0  0  0  0
 22 48  1  0  0  0  0
 24 25  2  0  0  0  0
M  CHG  1   5  -1
M  END
> <s_m_source_file>
AV-unprocessed.smi

> <i_m_source_file_index>
1644

> <i_lp_mmshare_version>
43012

> <i_f3d_flags>
0

> <s_epik_input>
W0NIM11bQ0gyXVtDSDJdW0NAQEhdMVtOSF1DKD1PKU4oQzE9TylbQ0gyXVtDQEhdKFtPSF0pW0NIMl1uKFtjSF1uMiljKGMyMylbY0hdYyhbQ0gzXSljKFtjSF0zKVtDSDNd

> <s_epik_cmdline>
J2VwaWtfcHl0aG9uJywgJy1waCcsICc3LjAnLCAnLXRuJywgJzgnLCAnLW1hJywgJzIwMCcsICctbWV0YWxfYmluZGluZycsICctaW1hZScsICc8aW5maWxlLm1hZT4nLCAnLW9tYWUnLCAnPG91dGZpbGUubWFlPic=

> <r_lp_tautomer_probability>
1

> <r_epik_Ionization_Penalty>
5.95212

> <r_epik_Ionization_Penalty_Charging>
5.84419

> <r_epik_Ionization_Penalty_Neutral>
0.107924

> <r_epik_State_Penalty>
5.94088

> <r_epik_Charging_Adjusted_Penalty>
11.7851

> <i_epik_Tot_Q>
-1

> <i_epik_Tot_abs_Q>
1

> <r_epik_Metal_State_Penalty>
1.99095

> <b_epik_Metal_Only>
1

> <s_lp_Force_Field>
OPLS_2005

> <r_lp_Energy>
16.2411

> <b_lp_Chiralities_Consistent>
1

> <s_lp_Variant>
AV-unprocessed.smi:1644-11

> <Gold.Version>
5.8.1

> <Gold.Id.Protein>
6NUR|6NUR_protein|mol2

> <Gold.PLP.Fitness>
53.1033

> <Gold.PLP.PLP>
-52.3602

> <Gold.PLP.part.hbond>
-3.8060

> <Gold.PLP.part.metal>
0.0000

> <Gold.PLP.part.buried>
-5.5283

> <Gold.PLP.part.nonpolar>
-42.7749

> <Gold.PLP.part.repulsive>
0.2500

> <Gold.PLP.ligand.clash>
0.0000

> <Gold.PLP.ligand.torsion>
1.2432

> <Gold.PLP.Chemscore.Hbond>
1.0000

> <Gold.PLP.Chemscore.CHOScore>
0.0000

> <Gold.PLP.Chemscore.Metal>
0.0000

> <Gold.Chemscore.Hbonds>
donor molecule, donor type, donor heavy atom, donor atom, acceptor molecule, acceptor atom, score
      P1  H  7997  8009       L1    15  1.00

> <Gold.PLP.Chemscore.Internal.Correction>
0.2296

> <Gold.Rescore>
     Score         DG    S(hbond)    S(metal)    S(lipo)     H(rot)  DE(clash)    DE(int)     intcor
      8.84     -16.78       0.93        0.00     127.92       2.65       4.53       3.41       ----

> <Gold.Chemscore.Fitness>
8.8430

> <Gold.Chemscore.DG>
-16.7766

> <Gold.Chemscore.ZeroCoef>
-5.4800

> <Gold.Chemscore.Hbond>
0.9313

> <Gold.Chemscore.Metal>
0.0000

> <Gold.Chemscore.Lipo>
127.9187

> <Gold.Chemscore.Internal_Hbond>
0.0000

> <Gold.Chemscore.DEClash>
4.5273

> <Gold.Chemscore.DEInternal>
3.4063

> <Gold.Chemscore.Rot>
2.6486

> <Gold.Chemscore.Internal.Correction>
   9.000000E+99

> <Gold.Chemscore.Hbonds>
donor molecule, donor type, donor heavy atom, donor atom, acceptor molecule, acceptor atom, score
      P1  H  7997  8009       L1    15  0.80

> <Gold.Chemscore.Hbond.Weighted>
-3.1106

> <Gold.Chemscore.Metal.Weighted>
-0.0000

> <Gold.Chemscore.Lipo.Weighted>
-14.9665

> <Gold.Chemscore.Internal_Hbond.Weighted>
0.0000

> <Gold.Chemscore.DEClash.Weighted>
4.5273

> <Gold.Chemscore.DEInternal.Weighted>
3.4063

> <Gold.Chemscore.Rot.Weighted>
6.7804

> <Gold.Chemscore.Internal.Correction.Weighted>
   9.000000E+99

> <Gold.Protein.RotatedTorsions>
[ 6907 6896 6895 6894 ] final   71.53 input  -60.11 | X-H torsion
[ 7974 7965 7964 7962 ] final  -94.48 input  175.53 | X-H torsion
[ 8008 7997 7996 7995 ] final  113.02 input   59.86 | X-H torsion
[ 10167 10162 10161 10158 ] final  -88.91 input  -65.29 | X-H torsion
[ 10718 10713 10712 10709 ] final  171.81 input   66.30 | X-H torsion
[ 10763 10752 10751 10750 ] final   64.40 input  -60.55 | X-H torsion
[ 11005 11000 10999 10996 ] final   37.63 input  -57.11 | X-H torsion

> <Gold.Protein.ActiveResidues>
 VAL166  LYS551  ARG553  GLY616  TRP617  ASP618  TYR619  PRO620  LYS621  CYS622 
 ASP623  PHE694  ASN695  SER759  ASP760  ASP761  ALA762  ILE779  LEU786  VAL792 
 PHE793  MET794  SER795  GLU796  ALA797  LYS798  CYS799  TRP800  GLU811  SER814 

> <Gold.Protein.RotatedAtoms>
  152.4815  134.4706  159.9633 H   0  0  0  0  0  0  0  0  0  0  0  0  # atno 6907 bound_to 6896
  151.4710  133.3563  159.2831 H   0  0  0  0  0  0  0  0  0  0  0  0  # atno 6908 bound_to 6896
  150.8892  134.8319  159.7342 H   0  0  0  0  0  0  0  0  0  0  0  0  # atno 6909 bound_to 6896
  145.3727  140.9507  143.2438 H   0  0  0  0  0  0  0  0  0  0  0  0  # atno 7974 bound_to 7965
  156.2231  140.2988  156.0000 H   0  0  0  0  0  0  0  0  0  0  0  0  # atno 8008 bound_to 7997
  155.2429  140.0423  157.2994 H   0  0  0  0  0  0  0  0  0  0  0  0  # atno 8009 bound_to 7997
  154.5872  140.2391  155.7979 H   0  0  0  0  0  0  0  0  0  0  0  0  # atno 8010 bound_to 7997
  140.3700  143.2799  151.9511 H   0  0  0  0  0  0  0  0  0  0  0  0  # atno 10167 bound_to 10162
  156.9881  131.0139  151.2864 H   0  0  0  0  0  0  0  0  0  0  0  0  # atno 10718 bound_to 10713
  153.0054  135.5394  154.6505 H   0  0  0  0  0  0  0  0  0  0  0  0  # atno 10763 bound_to 10752
  154.5738  135.2844  155.0803 H   0  0  0  0  0  0  0  0  0  0  0  0  # atno 10764 bound_to 10752
  154.1958  135.6492  153.5125 H   0  0  0  0  0  0  0  0  0  0  0  0  # atno 10765 bound_to 10752
  140.2207  134.3645  155.8006 H   0  0  0  0  0  0  0  0  0  0  0  0  # atno 11005 bound_to 11000
  144.8564  139.5243  143.6832 LP  0  0  0  0  0  0  0  0  0  0  0  0  # atno 17320 bound_to 7965
  146.2878  139.7052  142.9183 LP  0  0  0  0  0  0  0  0  0  0  0  0  # atno 17321 bound_to 7965
  139.4805  144.5915  151.7763 LP  0  0  0  0  0  0  0  0  0  0  0  0  # atno 17342 bound_to 10162
  140.5042  144.1123  150.5978 LP  0  0  0  0  0  0  0  0  0  0  0  0  # atno 17343 bound_to 10162
  157.5479  130.8162  149.8108 LP  0  0  0  0  0  0  0  0  0  0  0  0  # atno 17370 bound_to 10713
  156.0218  130.3793  150.1940 LP  0  0  0  0  0  0  0  0  0  0  0  0  # atno 17371 bound_to 10713
  141.2223  133.7192  156.8570 LP  0  0  0  0  0  0  0  0  0  0  0  0  # atno 17394 bound_to 11000
  140.1853  134.9004  157.2997 LP  0  0  0  0  0  0  0  0  0  0  0  0  # atno 17395 bound_to 11000

$$$$
