AV-unprocessed.smi:1517|AV-procd|sdf|6120|dock3
  -GOLD-   22720 6253D 1   1.00000     0.00000
 Structure written by MMmdl.
 42 44  0  0  0  0  0  0  0  0  2 V2000
  149.5065  140.0377  153.5839 O   0  0  0  0  0  0  0  0  0  0  0  0
  148.4828  140.7290  154.2638 C   0  0  0  0  0  0  0  0  0  0  0  0
  149.1065  141.7745  155.1943 C   0  0  0  0  0  0  0  0  0  0  0  0
  150.0835  141.1748  156.0876 N   0  0  0  0  0  0  0  0  0  0  0  0
  150.6029  141.9655  157.1180 C   0  0  0  0  0  0  0  0  0  0  0  0
  150.5991  143.3245  157.1622 N   0  3  0  0  0  0  0  0  0  0  0  0
  151.1878  143.7267  158.3646 C   0  0  0  0  0  0  0  0  0  0  0  0
  151.4169  144.9974  158.8831 C   0  0  0  0  0  0  0  0  0  0  0  0
  152.0348  145.0631  160.1493 C   0  0  0  0  0  0  0  0  0  0  0  0
  152.3995  143.8960  160.8518 C   0  0  0  0  0  0  0  0  0  0  0  0
  152.1645  142.6116  160.3185 C   0  0  0  0  0  0  0  0  0  0  0  0
  151.5563  142.5527  159.0653 C   0  0  0  0  0  0  0  0  0  0  0  0
  151.1764  141.4798  158.2496 N   0  0  0  0  0  0  0  0  0  0  0  0
  151.3988  140.0995  158.7053 C   0  0  0  0  0  0  0  0  0  0  0  0
  152.8916  139.7137  158.6990 C   0  0  2  0  0  0  0  0  0  0  0  0
  153.1623  139.0362  157.4891 O   0  0  0  0  0  0  0  0  0  0  0  0
  153.2759  138.8927  159.9256 C   0  0  0  0  0  0  0  0  0  0  0  0
  152.7639  137.5870  160.0988 C   0  0  0  0  0  0  0  0  0  0  0  0
  153.0912  136.8399  161.2465 C   0  0  0  0  0  0  0  0  0  0  0  0
  153.9287  137.3942  162.2324 C   0  0  0  0  0  0  0  0  0  0  0  0
  154.2375  136.6787  163.3396 F   0  0  0  0  0  0  0  0  0  0  0  0
  154.4406  138.6951  162.0687 C   0  0  0  0  0  0  0  0  0  0  0  0
  154.1163  139.4439  160.9205 C   0  0  0  0  0  0  0  0  0  0  0  0
  154.6023  140.7018  160.7892 F   0  0  0  0  0  0  0  0  0  0  0  0
  149.2698  139.9710  152.6711 H   0  0  0  0  0  0  0  0  0  0  0  0
  147.8282  141.2026  153.5317 H   0  0  0  0  0  0  0  0  0  0  0  0
  147.8830  140.0147  154.8287 H   0  0  0  0  0  0  0  0  0  0  0  0
  149.5903  142.5552  154.6058 H   0  0  0  0  0  0  0  0  0  0  0  0
  148.3258  142.2517  155.7886 H   0  0  0  0  0  0  0  0  0  0  0  0
  150.0722  140.1716  156.2052 H   0  0  0  0  0  0  0  0  0  0  0  0
  151.1361  145.8937  158.3497 H   0  0  0  0  0  0  0  0  0  0  0  0
  152.2312  146.0292  160.5918 H   0  0  0  0  0  0  0  0  0  0  0  0
  152.8688  143.9872  161.8207 H   0  0  0  0  0  0  0  0  0  0  0  0
  152.4457  141.7241  160.8660 H   0  0  0  0  0  0  0  0  0  0  0  0
  150.9793  140.0033  159.7078 H   0  0  0  0  0  0  0  0  0  0  0  0
  150.8187  139.4322  158.0664 H   0  0  0  0  0  0  0  0  0  0  0  0
  153.4949  140.6216  158.6761 H   0  0  0  0  0  0  0  0  0  0  0  0
  152.9025  138.1326  157.5856 H   0  0  0  0  0  0  0  0  0  0  0  0
  152.1094  137.1554  159.3555 H   0  0  0  0  0  0  0  0  0  0  0  0
  152.6943  135.8433  161.3731 H   0  0  0  0  0  0  0  0  0  0  0  0
  155.0794  139.1216  162.8281 H   0  0  0  0  0  0  0  0  0  0  0  0
  150.2236  143.9216  156.4368 H   0  0  0  0  0  0  0  0  0  0  0  0
  1  2  1  0  0  0  0
  1 25  1  0  0  0  0
  2  3  1  0  0  0  0
  2 26  1  0  0  0  0
  2 27  1  0  0  0  0
  3  4  1  0  0  0  0
  3 28  1  0  0  0  0
  3 29  1  0  0  0  0
  4  5  1  0  0  0  0
  4 30  1  0  0  0  0
  5 13  1  0  0  0  0
  5  6  2  0  0  0  0
  6  7  1  0  0  0  0
  6 42  1  0  0  0  0
  7 12  2  0  0  0  0
  7  8  1  0  0  0  0
  8  9  2  0  0  0  0
  8 31  1  0  0  0  0
  9 10  1  0  0  0  0
  9 32  1  0  0  0  0
 10 11  2  0  0  0  0
 10 33  1  0  0  0  0
 11 12  1  0  0  0  0
 11 34  1  0  0  0  0
 12 13  1  0  0  0  0
 13 14  1  0  0  0  0
 14 15  1  0  0  0  0
 14 35  1  0  0  0  0
 14 36  1  0  0  0  0
 15 16  1  0  0  0  0
 15 17  1  0  0  0  0
 15 37  1  0  0  0  0
 16 38  1  0  0  0  0
 17 23  1  0  0  0  0
 17 18  2  0  0  0  0
 18 19  1  0  0  0  0
 18 39  1  0  0  0  0
 19 20  2  0  0  0  0
 19 40  1  0  0  0  0
 20 21  1  0  0  0  0
 20 22  1  0  0  0  0
 22 23  2  0  0  0  0
 22 41  1  0  0  0  0
 23 24  1  0  0  0  0
M  CHG  1   6   1
M  END
> <s_m_source_file>
AV-unprocessed.smi

> <i_m_source_file_index>
1517

> <i_lp_mmshare_version>
43012

> <i_f3d_flags>
0

> <s_epik_input>
W09IXVtDSDJdW0NIMl1bTkhdYyhuMSluKGMoYzEyKVtjSF1bY0hdW2NIXVtjSF0yKVtDSDJdW0NASF0oW09IXSljM1tjSF1bY0hdYyhGKVtjSF1jM0Y=

> <s_epik_cmdline>
J2VwaWtfcHl0aG9uJywgJy1waCcsICc3LjAnLCAnLXRuJywgJzgnLCAnLW1hJywgJzIwMCcsICctbWV0YWxfYmluZGluZycsICctaW1hZScsICc8aW5maWxlLm1hZT4nLCAnLW9tYWUnLCAnPG91dGZpbGUubWFlPic=

> <r_epik_Ionization_Penalty>
0.0688096

> <r_epik_Ionization_Penalty_Charging>
0.0688055

> <r_epik_Ionization_Penalty_Neutral>
4.12262e-06

> <r_epik_State_Penalty>
0.0602293

> <r_epik_Charging_Adjusted_Penalty>
0.129035

> <i_epik_Tot_Q>
1

> <i_epik_Tot_abs_Q>
1

> <r_epik_Metal_State_Penalty>
2.77411

> <b_epik_Metal_Only>
0

> <s_lp_Force_Field>
OPLS_2005

> <r_lp_Energy>
18.8563

> <b_lp_Chiralities_Consistent>
1

> <s_lp_Variant>
AV-unprocessed.smi:1517-1

> <Gold.Version>
5.8.1

> <Gold.Id.Protein>
6NUR|6NUR_protein|mol2

> <Gold.PLP.Fitness>
66.8770

> <Gold.PLP.PLP>
-54.3052

> <Gold.PLP.part.hbond>
-3.7183

> <Gold.PLP.part.metal>
0.0000

> <Gold.PLP.part.buried>
-6.1543

> <Gold.PLP.part.nonpolar>
-45.9504

> <Gold.PLP.part.repulsive>
0.0916

> <Gold.PLP.ligand.clash>
0.0000

> <Gold.PLP.ligand.torsion>
0.7855

> <Gold.PLP.Chemscore.Hbond>
4.6978

> <Gold.PLP.Chemscore.CHOScore>
0.0000

> <Gold.PLP.Chemscore.Metal>
0.0000

> <Gold.Chemscore.Hbonds>
donor molecule, donor type, donor heavy atom, donor atom, acceptor molecule, acceptor atom, score
      L1  H     1    25       P1  7957  1.00
      L1  H     6    42       P1  8028  2.00
      P1  H  7989  7998       L1     1  0.26
      P1  H  7997  8010       L1    16  0.80

> <Gold.PLP.Chemscore.Internal.Correction>
0.0493

> <Gold.Rescore>
     Score         DG    S(hbond)    S(metal)    S(lipo)     H(rot)  DE(clash)    DE(int)     intcor
     21.71     -22.45       2.92        0.00     133.75       3.29       0.09       0.66       ----

> <Gold.Chemscore.Fitness>
21.7096

> <Gold.Chemscore.DG>
-22.4538

> <Gold.Chemscore.ZeroCoef>
-5.4800

> <Gold.Chemscore.Hbond>
2.9166

> <Gold.Chemscore.Metal>
0.0000

> <Gold.Chemscore.Lipo>
133.7454

> <Gold.Chemscore.Internal_Hbond>
0.0000

> <Gold.Chemscore.DEClash>
0.0872

> <Gold.Chemscore.DEInternal>
0.6570

> <Gold.Chemscore.Rot>
3.2874

> <Gold.Chemscore.Internal.Correction>
   9.000000E+99

> <Gold.Chemscore.Hbonds>
donor molecule, donor type, donor heavy atom, donor atom, acceptor molecule, acceptor atom, score
      L1  H     1    25       P1  7957  0.92
      L1  H     6    42       P1  8028  0.96
      P1  H  7989  7998       L1     1  0.09
      P1  H  7997  8010       L1    16  0.12

> <Gold.Chemscore.Hbond.Weighted>
-9.7414

> <Gold.Chemscore.Metal.Weighted>
-0.0000

> <Gold.Chemscore.Lipo.Weighted>
-15.6482

> <Gold.Chemscore.Internal_Hbond.Weighted>
0.0000

> <Gold.Chemscore.DEClash.Weighted>
0.0872

> <Gold.Chemscore.DEInternal.Weighted>
0.6570

> <Gold.Chemscore.Rot.Weighted>
8.4158

> <Gold.Chemscore.Internal.Correction.Weighted>
   9.000000E+99

> <Gold.Protein.RotatedTorsions>
[ 6907 6896 6895 6894 ] final  -78.56 input  -60.11 | X-H torsion
[ 7974 7965 7964 7962 ] final  167.92 input  175.53 | X-H torsion
[ 8008 7997 7996 7995 ] final   30.24 input   59.86 | X-H torsion
[ 10167 10162 10161 10158 ] final   -0.62 input  -65.29 | X-H torsion
[ 10718 10713 10712 10709 ] final -176.07 input   66.30 | X-H torsion
[ 10763 10752 10751 10750 ] final   37.61 input  -60.55 | X-H torsion
[ 11005 11000 10999 10996 ] final  133.79 input  -57.11 | X-H torsion

> <Gold.Protein.ActiveResidues>
 VAL166  LYS551  ARG553  GLY616  TRP617  ASP618  TYR619  PRO620  LYS621  CYS622 
 ASP623  PHE694  ASN695  SER759  ASP760  ASP761  ALA762  ILE779  LEU786  VAL792 
 PHE793  MET794  SER795  GLU796  ALA797  LYS798  CYS799  TRP800  GLU811  SER814 

> <Gold.Protein.RotatedAtoms>
  150.6970  134.4254  159.5223 H   0  0  0  0  0  0  0  0  0  0  0  0  # atno 6907 bound_to 6896
  152.1990  134.8602  160.0519 H   0  0  0  0  0  0  0  0  0  0  0  0  # atno 6908 bound_to 6896
  151.9529  133.3636  159.4043 H   0  0  0  0  0  0  0  0  0  0  0  0  # atno 6909 bound_to 6896
  144.7407  139.8832  143.6398 H   0  0  0  0  0  0  0  0  0  0  0  0  # atno 7974 bound_to 7965
  155.0872  140.3216  155.4584 H   0  0  0  0  0  0  0  0  0  0  0  0  # atno 8008 bound_to 7997
  156.2752  140.2084  156.5946 H   0  0  0  0  0  0  0  0  0  0  0  0  # atno 8009 bound_to 7997
  154.6932  140.0514  157.0371 H   0  0  0  0  0  0  0  0  0  0  0  0  # atno 8010 bound_to 7997
  140.6775  143.6872  150.8057 H   0  0  0  0  0  0  0  0  0  0  0  0  # atno 10167 bound_to 10162
  156.8092  130.9580  151.3116 H   0  0  0  0  0  0  0  0  0  0  0  0  # atno 10718 bound_to 10713
  153.0031  135.6273  154.2172 H   0  0  0  0  0  0  0  0  0  0  0  0  # atno 10763 bound_to 10752
  154.1915  135.2808  155.3022 H   0  0  0  0  0  0  0  0  0  0  0  0  # atno 10764 bound_to 10752
  154.5755  135.5663  153.7195 H   0  0  0  0  0  0  0  0  0  0  0  0  # atno 10765 bound_to 10752
  139.9874  134.9527  156.9774 H   0  0  0  0  0  0  0  0  0  0  0  0  # atno 11005 bound_to 11000
  146.1196  139.4212  143.0236 LP  0  0  0  0  0  0  0  0  0  0  0  0  # atno 17320 bound_to 7965
  145.7324  141.0038  143.1345 LP  0  0  0  0  0  0  0  0  0  0  0  0  # atno 17321 bound_to 7965
  140.0567  143.5195  152.2647 LP  0  0  0  0  0  0  0  0  0  0  0  0  # atno 17342 bound_to 10162
  139.6077  144.7600  151.3024 LP  0  0  0  0  0  0  0  0  0  0  0  0  # atno 17343 bound_to 10162
  157.6514  130.8888  149.9641 LP  0  0  0  0  0  0  0  0  0  0  0  0  # atno 17370 bound_to 10713
  156.1054  130.3653  150.0142 LP  0  0  0  0  0  0  0  0  0  0  0  0  # atno 17371 bound_to 10713
  140.4976  134.1130  155.7244 LP  0  0  0  0  0  0  0  0  0  0  0  0  # atno 17394 bound_to 11000
  141.1536  133.8923  157.2035 LP  0  0  0  0  0  0  0  0  0  0  0  0  # atno 17395 bound_to 11000

$$$$
