AV-unprocessed.smi:102|AV-procd|sdf|956|dock1
  -GOLD-   2262017493D 1   1.00000     0.00000
 Structure written by MMmdl.
 44 45  0  0  0  0  0  0  0  0  1 V2000
  150.4360  134.4170  155.3114 C   0  0  0  0  0  0  0  0  0  0  0  0
  149.7702  134.0910  156.6416 C   0  0  0  0  0  0  0  0  0  0  0  0
  150.2628  133.2777  157.4241 O   0  0  0  0  0  0  0  0  0  0  0  0
  148.6309  134.7823  156.8282 O   0  0  0  0  0  0  0  0  0  0  0  0
  147.8942  134.6430  158.0354 C   0  0  0  0  0  0  0  0  0  0  0  0
  148.4467  135.5713  159.1339 C   0  0  1  0  0  0  0  0  0  0  0  0
  149.8337  135.8042  158.9277 O   0  0  0  0  0  0  0  0  0  0  0  0
  149.9856  136.9062  158.0957 C   0  0  2  0  0  0  0  0  0  0  0  0
  151.3233  137.5447  158.3657 N   0  0  0  0  0  0  0  0  0  0  0  0
  151.4121  138.8364  158.8660 C   0  0  0  0  0  0  0  0  0  0  0  0
  152.5942  139.4511  159.1070 C   0  0  0  0  0  0  0  0  0  0  0  0
  152.6037  140.7045  159.5915 F   0  0  0  0  0  0  0  0  0  0  0  0
  153.8568  138.7693  158.8358 C   0  0  0  0  0  0  0  0  0  0  0  0
  154.9764  139.2405  159.0256 O   0  0  0  0  0  0  0  0  0  0  0  0
  153.7166  137.4804  158.3115 N   0  0  0  0  0  0  0  0  0  0  0  0
  152.5044  136.8371  158.0538 C   0  0  0  0  0  0  0  0  0  0  0  0
  152.4980  135.7071  157.5673 O   0  0  0  0  0  0  0  0  0  0  0  0
  148.8515  137.8737  158.4281 C   0  0  1  0  0  0  0  0  0  0  0  0
  148.3585  138.4788  157.2411 O   0  0  0  0  0  0  0  0  0  0  0  0
  147.3556  139.3689  157.3070 C   0  0  0  0  0  0  0  0  0  0  0  0
  146.9631  139.9018  155.9358 C   0  0  0  0  0  0  0  0  0  0  0  0
  146.7827  139.7408  158.3313 O   0  0  0  0  0  0  0  0  0  0  0  0
  147.8069  136.9695  159.0780 C   0  0  2  0  0  0  0  0  0  0  0  0
  147.5104  137.4624  160.3785 O   0  0  0  0  0  0  0  0  0  0  0  0
  146.9460  136.6584  161.2965 C   0  0  0  0  0  0  0  0  0  0  0  0
  146.9204  137.2889  162.6822 C   0  0  0  0  0  0  0  0  0  0  0  0
  146.4941  135.5314  161.0935 O   0  0  0  0  0  0  0  0  0  0  0  0
  154.5639  136.9753  158.0957 H   0  0  0  0  0  0  0  0  0  0  0  0
  150.8450  135.4271  155.3317 H   0  0  0  0  0  0  0  0  0  0  0  0
  149.7137  134.3511  154.4976 H   0  0  0  0  0  0  0  0  0  0  0  0
  151.2484  133.7187  155.1089 H   0  0  0  0  0  0  0  0  0  0  0  0
  146.8256  134.7954  157.8775 H   0  0  0  0  0  0  0  0  0  0  0  0
  148.0101  133.6078  158.3570 H   0  0  0  0  0  0  0  0  0  0  0  0
  148.2937  135.1043  160.1077 H   0  0  0  0  0  0  0  0  0  0  0  0
  149.9831  136.5531  157.0619 H   0  0  0  0  0  0  0  0  0  0  0  0
  150.5058  139.3887  159.0689 H   0  0  0  0  0  0  0  0  0  0  0  0
  149.2222  138.6138  159.1403 H   0  0  0  0  0  0  0  0  0  0  0  0
  147.8296  140.3336  155.4345 H   0  0  0  0  0  0  0  0  0  0  0  0
  146.1979  140.6727  156.0288 H   0  0  0  0  0  0  0  0  0  0  0  0
  146.5687  139.0965  155.3160 H   0  0  0  0  0  0  0  0  0  0  0  0
  146.8998  136.9512  158.4711 H   0  0  0  0  0  0  0  0  0  0  0  0
  146.4050  138.2491  162.6533 H   0  0  0  0  0  0  0  0  0  0  0  0
  147.9365  137.4511  163.0422 H   0  0  0  0  0  0  0  0  0  0  0  0
  146.4028  136.6400  163.3890 H   0  0  0  0  0  0  0  0  0  0  0  0
  1  2  1  0  0  0  0
  1 29  1  0  0  0  0
  1 30  1  0  0  0  0
  1 31  1  0  0  0  0
  2  3  2  0  0  0  0
  2  4  1  0  0  0  0
  4  5  1  0  0  0  0
  5  6  1  0  0  0  0
  5 32  1  0  0  0  0
  5 33  1  0  0  0  0
  6 23  1  0  0  0  0
  6  7  1  0  0  0  0
  6 34  1  0  0  0  0
  7  8  1  0  0  0  0
  8  9  1  0  0  0  0
  8 18  1  0  0  0  0
  8 35  1  0  0  0  0
  9 16  1  0  0  0  0
  9 10  1  0  0  0  0
 10 11  2  0  0  0  0
 10 36  1  0  0  0  0
 11 12  1  0  0  0  0
 11 13  1  0  0  0  0
 13 14  2  0  0  0  0
 13 15  1  0  0  0  0
 15 28  1  0  0  0  0
 15 16  1  0  0  0  0
 16 17  2  0  0  0  0
 18 19  1  0  0  0  0
 18 23  1  0  0  0  0
 18 37  1  0  0  0  0
 19 20  1  0  0  0  0
 20 21  1  0  0  0  0
 20 22  2  0  0  0  0
 21 38  1  0  0  0  0
 21 39  1  0  0  0  0
 21 40  1  0  0  0  0
 23 24  1  0  0  0  0
 23 41  1  0  0  0  0
 24 25  1  0  0  0  0
 25 26  1  0  0  0  0
 25 27  2  0  0  0  0
 26 42  1  0  0  0  0
 26 43  1  0  0  0  0
 26 44  1  0  0  0  0
M  END
> <s_m_source_file>
AV-unprocessed.smi

> <i_m_source_file_index>
102

> <i_lp_mmshare_version>
43012

> <i_f3d_flags>
0

> <s_epik_input>
W0NIM11DKD1PKU9bQ0gyXVtDQEBIXTFPW0NASF0oW0NAQEhdKE9DKD1PKVtDSDNdKVtDQEhdMU9DKD1PKVtDSDNdKW4yW2NIXWMoRiljKD1PKVtuSF1jMj1P

> <s_epik_cmdline>
J2VwaWtfcHl0aG9uJywgJy1waCcsICc3LjAnLCAnLXRuJywgJzgnLCAnLW1hJywgJzIwMCcsICctbWV0YWxfYmluZGluZycsICctaW1hZScsICc8aW5maWxlLm1hZT4nLCAnLW9tYWUnLCAnPG91dGZpbGUubWFlPic=

> <r_lp_tautomer_probability>
0.999537

> <r_epik_Ionization_Penalty>
0.058267

> <r_epik_Ionization_Penalty_Charging>
0.058267

> <r_epik_Ionization_Penalty_Neutral>
6.57791e-16

> <r_epik_State_Penalty>
0.0503774

> <r_epik_Charging_Adjusted_Penalty>
0.108644

> <i_epik_Tot_Q>
0

> <i_epik_Tot_abs_Q>
0

> <r_epik_Metal_State_Penalty>
2.6644

> <b_epik_Metal_Only>
0

> <s_epik_Chemistry_Notes>
This compound has an ester and may undergo hydrolysis at high or low pH. This compound contains an acetal/aminal-like group ( X-CH(R)-Y where X, Y are N, S, or O) that may be acid/base labile, releasing an aldehyde.

> <s_lp_Force_Field>
OPLS_2005

> <r_lp_Energy>
12.7651

> <b_lp_Chiralities_Consistent>
1

> <s_lp_Variant>
AV-unprocessed.smi:102-12

> <Gold.Version>
5.8.1

> <Gold.Id.Protein>
6NUR|6NUR_protein|mol2

> <Gold.PLP.Fitness>
36.6306

> <Gold.PLP.PLP>
-29.6416

> <Gold.PLP.part.hbond>
-6.5696

> <Gold.PLP.part.metal>
0.0000

> <Gold.PLP.part.buried>
-4.0128

> <Gold.PLP.part.nonpolar>
-19.8322

> <Gold.PLP.part.repulsive>
0.1246

> <Gold.PLP.ligand.clash>
0.0000

> <Gold.PLP.ligand.torsion>
0.7857

> <Gold.PLP.Chemscore.Hbond>
2.8080

> <Gold.PLP.Chemscore.CHOScore>
0.0000

> <Gold.PLP.Chemscore.Metal>
0.0000

> <Gold.Chemscore.Hbonds>
donor molecule, donor type, donor heavy atom, donor atom, acceptor molecule, acceptor atom, score
      P1  H  6896  6907       L1     3  0.74
      P1  H  6896  6908       L1     7  1.00
      P1  H  7997  8010       L1    14  0.95

> <Gold.PLP.Chemscore.Internal.Correction>
0.1363

> <Gold.Rescore>
     Score         DG    S(hbond)    S(metal)    S(lipo)     H(rot)  DE(clash)    DE(int)     intcor
      3.10      -8.23       2.77        0.00      33.17       4.05       0.11       5.02       ----

> <Gold.Chemscore.Fitness>
3.0999

> <Gold.Chemscore.DG>
-8.2310

> <Gold.Chemscore.ZeroCoef>
-5.4800

> <Gold.Chemscore.Hbond>
2.7673

> <Gold.Chemscore.Metal>
0.0000

> <Gold.Chemscore.Lipo>
33.1739

> <Gold.Chemscore.Internal_Hbond>
0.0000

> <Gold.Chemscore.DEClash>
0.1142

> <Gold.Chemscore.DEInternal>
5.0169

> <Gold.Chemscore.Rot>
4.0520

> <Gold.Chemscore.Internal.Correction>
   9.000000E+99

> <Gold.Chemscore.Hbonds>
donor molecule, donor type, donor heavy atom, donor atom, acceptor molecule, acceptor atom, score
      P1  H  6896  6907       L1     3  0.70
      P1  H  6896  6908       L1     7  0.93
      P1  H  7997  8010       L1    14  0.22

> <Gold.Chemscore.Hbond.Weighted>
-9.2428

> <Gold.Chemscore.Metal.Weighted>
-0.0000

> <Gold.Chemscore.Lipo.Weighted>
-3.8813

> <Gold.Chemscore.Internal_Hbond.Weighted>
0.0000

> <Gold.Chemscore.DEClash.Weighted>
0.1142

> <Gold.Chemscore.DEInternal.Weighted>
5.0169

> <Gold.Chemscore.Rot.Weighted>
10.3732

> <Gold.Chemscore.Internal.Correction.Weighted>
   9.000000E+99

> <Gold.Protein.RotatedTorsions>
[ 6907 6896 6895 6894 ] final -158.19 input  -60.11 | X-H torsion
[ 7974 7965 7964 7962 ] final  165.58 input  175.53 | X-H torsion
[ 8008 7997 7996 7995 ] final   -7.36 input   59.86 | X-H torsion
[ 10167 10162 10161 10158 ] final    5.50 input  -65.29 | X-H torsion
[ 10718 10713 10712 10709 ] final -177.55 input   66.30 | X-H torsion
[ 10763 10752 10751 10750 ] final -105.98 input  -60.55 | X-H torsion
[ 11005 11000 10999 10996 ] final   57.87 input  -57.11 | X-H torsion

> <Gold.Protein.ActiveResidues>
 VAL166  LYS551  ARG553  GLY616  TRP617  ASP618  TYR619  PRO620  LYS621  CYS622 
 ASP623  PHE694  ASN695  SER759  ASP760  ASP761  ALA762  ILE779  LEU786  VAL792 
 PHE793  MET794  SER795  GLU796  ALA797  LYS798  CYS799  TRP800  GLU811  SER814 

> <Gold.Protein.RotatedAtoms>
  151.3143  133.4067  159.2649 H   0  0  0  0  0  0  0  0  0  0  0  0  # atno 6907 bound_to 6896
  151.0087  134.9380  159.8005 H   0  0  0  0  0  0  0  0  0  0  0  0  # atno 6908 bound_to 6896
  152.5295  134.3108  159.9165 H   0  0  0  0  0  0  0  0  0  0  0  0  # atno 6909 bound_to 6896
  144.7497  139.8491  143.6370 H   0  0  0  0  0  0  0  0  0  0  0  0  # atno 7974 bound_to 7965
  154.5846  140.2409  155.8005 H   0  0  0  0  0  0  0  0  0  0  0  0  # atno 8008 bound_to 7997
  156.2204  140.2999  155.9894 H   0  0  0  0  0  0  0  0  0  0  0  0  # atno 8009 bound_to 7997
  155.2480  140.0409  157.2974 H   0  0  0  0  0  0  0  0  0  0  0  0  # atno 8010 bound_to 7997
  140.6478  143.7618  150.7527 H   0  0  0  0  0  0  0  0  0  0  0  0  # atno 10167 bound_to 10162
  156.8312  130.9654  151.3106 H   0  0  0  0  0  0  0  0  0  0  0  0  # atno 10718 bound_to 10713
  154.7982  135.4729  154.0213 H   0  0  0  0  0  0  0  0  0  0  0  0  # atno 10763 bound_to 10752
  153.1738  135.6829  153.8578 H   0  0  0  0  0  0  0  0  0  0  0  0  # atno 10764 bound_to 10752
  153.8151  135.3212  155.3382 H   0  0  0  0  0  0  0  0  0  0  0  0  # atno 10765 bound_to 10752
  140.0420  134.5860  155.9370 H   0  0  0  0  0  0  0  0  0  0  0  0  # atno 11005 bound_to 11000
  146.1428  139.4490  143.0098 LP  0  0  0  0  0  0  0  0  0  0  0  0  # atno 17320 bound_to 7965
  145.6991  141.0141  143.1514 LP  0  0  0  0  0  0  0  0  0  0  0  0  # atno 17321 bound_to 7965
  140.1263  143.4566  152.2282 LP  0  0  0  0  0  0  0  0  0  0  0  0  # atno 17342 bound_to 10162
  139.5690  144.7452  151.3942 LP  0  0  0  0  0  0  0  0  0  0  0  0  # atno 17343 bound_to 10162
  157.6406  130.8802  149.9441 LP  0  0  0  0  0  0  0  0  0  0  0  0  # atno 17370 bound_to 10713
  156.0933  130.3661  150.0353 LP  0  0  0  0  0  0  0  0  0  0  0  0  # atno 17371 bound_to 10713
  141.1888  133.6563  156.5339 LP  0  0  0  0  0  0  0  0  0  0  0  0  # atno 17394 bound_to 11000
  140.4054  134.7320  157.4804 LP  0  0  0  0  0  0  0  0  0  0  0  0  # atno 17395 bound_to 11000

$$$$
