AV-unprocessed.smi:798|AV-procd|sdf|3771|dock10
  -GOLD-   22720 1203D 1   1.00000     0.00000
 Structure written by MMmdl.
 34 36  0  0  0  0  0  0  0  0  1 V2000
  144.1413  138.0765  155.9878 O   0  0  0  0  0  0  0  0  0  0  0  0
  143.9617  138.7480  154.9714 C   0  0  0  0  0  0  0  0  0  0  0  0
  142.8654  138.7047  154.1942 N   0  0  0  0  0  0  0  0  0  0  0  0
  141.7136  137.8872  154.3431 C   0  0  0  0  0  0  0  0  0  0  0  0
  141.5534  137.0004  155.3380 N   0  0  0  0  0  0  0  0  0  0  0  0
  140.3413  136.3288  155.2456 N   0  0  0  0  0  0  0  0  0  0  0  0
  139.6354  136.7353  154.1866 C   0  0  0  0  0  0  0  0  0  0  0  0
  140.3822  137.9793  153.1988 S   0  0  0  0  0  0  0  0  0  0  0  0
  144.8568  139.6274  154.5002 N   0  0  0  0  0  0  0  0  0  0  0  0
  146.1587  139.9013  155.1037 C   0  0  2  0  0  0  0  0  0  0  0  0
  146.2879  141.3987  155.4603 C   0  0  1  0  0  0  0  0  0  0  0  0
  147.4630  141.5732  156.4393 C   0  0  0  0  0  0  0  0  0  0  0  0
  148.6873  141.3501  155.5318 C   0  0  0  0  0  0  0  0  0  0  0  0
  148.0512  141.0612  154.1547 C   0  0  2  0  0  0  0  0  0  0  0  0
  146.8580  142.0079  154.1820 C   0  0  0  0  0  0  0  0  0  0  0  0
  147.3364  139.6872  154.1179 C   0  0  1  0  0  0  0  0  0  0  0  0
  148.2083  138.4566  154.4344 C   0  0  0  0  0  0  0  0  0  0  0  0
  149.3086  138.3934  153.5518 O   0  0  0  0  0  0  0  0  0  0  0  0
  142.8572  139.3222  153.3957 H   0  0  0  0  0  0  0  0  0  0  0  0
  138.6685  136.2985  153.9858 H   0  0  0  0  0  0  0  0  0  0  0  0
  144.6287  140.1388  153.6603 H   0  0  0  0  0  0  0  0  0  0  0  0
  146.2676  139.2925  156.0037 H   0  0  0  0  0  0  0  0  0  0  0  0
  145.3625  141.8531  155.8166 H   0  0  0  0  0  0  0  0  0  0  0  0
  147.4747  142.5803  156.8579 H   0  0  0  0  0  0  0  0  0  0  0  0
  147.4247  140.8674  157.2699 H   0  0  0  0  0  0  0  0  0  0  0  0
  149.2907  142.2579  155.4868 H   0  0  0  0  0  0  0  0  0  0  0  0
  149.3373  140.5517  155.8866 H   0  0  0  0  0  0  0  0  0  0  0  0
  148.7330  141.2186  153.3185 H   0  0  0  0  0  0  0  0  0  0  0  0
  146.1992  141.9027  153.3182 H   0  0  0  0  0  0  0  0  0  0  0  0
  147.1382  143.0574  154.2888 H   0  0  0  0  0  0  0  0  0  0  0  0
  146.9393  139.5543  153.1091 H   0  0  0  0  0  0  0  0  0  0  0  0
  148.5636  138.4597  155.4640 H   0  0  0  0  0  0  0  0  0  0  0  0
  147.6223  137.5457  154.3110 H   0  0  0  0  0  0  0  0  0  0  0  0
  149.1609  137.6897  152.9386 H   0  0  0  0  0  0  0  0  0  0  0  0
  1  2  2  0  0  0  0
  2  3  1  0  0  0  0
  2  9  1  0  0  0  0
  3  4  1  0  0  0  0
  3 19  1  0  0  0  0
  4  8  1  0  0  0  0
  4  5  2  0  0  0  0
  5  6  1  0  0  0  0
  6  7  2  0  0  0  0
  7  8  1  0  0  0  0
  7 20  1  0  0  0  0
  9 10  1  0  0  0  0
  9 21  1  0  0  0  0
 10 16  1  0  0  0  0
 10 11  1  0  0  0  0
 10 22  1  0  0  0  0
 11 15  1  0  0  0  0
 11 12  1  0  0  0  0
 11 23  1  0  0  0  0
 12 13  1  0  0  0  0
 12 24  1  0  0  0  0
 12 25  1  0  0  0  0
 13 14  1  0  0  0  0
 13 26  1  0  0  0  0
 13 27  1  0  0  0  0
 14 15  1  0  0  0  0
 14 16  1  0  0  0  0
 14 28  1  0  0  0  0
 15 29  1  0  0  0  0
 15 30  1  0  0  0  0
 16 17  1  0  0  0  0
 16 31  1  0  0  0  0
 17 18  1  0  0  0  0
 17 32  1  0  0  0  0
 17 33  1  0  0  0  0
 18 34  1  0  0  0  0
M  END
> <s_m_source_file>
AV-unprocessed.smi

> <i_m_source_file_index>
798

> <i_lp_mmshare_version>
43012

> <i_f3d_flags>
0

> <s_epik_input>
W0NIMl0xW0NIMl1bQ0BASF0oW0NIMl0yKVtDQEBIXShbQ0gyXVtPSF0pW0NAQEhdKFtDQEhdMTIpW05IXUMoPU8pW05IXWMzbm5bY0hdczM=

> <s_epik_cmdline>
J2VwaWtfcHl0aG9uJywgJy1waCcsICc3LjAnLCAnLXRuJywgJzgnLCAnLW1hJywgJzIwMCcsICctbWV0YWxfYmluZGluZycsICctaW1hZScsICc8aW5maWxlLm1hZT4nLCAnLW9tYWUnLCAnPG91dGZpbGUubWFlPic=

> <r_lp_tautomer_probability>
1

> <r_epik_Ionization_Penalty>
0.000329046

> <r_epik_Ionization_Penalty_Charging>
0

> <r_epik_Ionization_Penalty_Neutral>
0.000329046

> <r_epik_State_Penalty>
-0

> <r_epik_Charging_Adjusted_Penalty>
0

> <i_epik_Tot_Q>
0

> <i_epik_Tot_abs_Q>
0

> <r_epik_Metal_State_Penalty>
0.173433

> <b_epik_Metal_Only>
0

> <s_lp_Force_Field>
OPLS_2005

> <r_lp_Energy>
48.5099

> <b_lp_Chiralities_Consistent>
1

> <s_lp_Variant>
AV-unprocessed.smi:798-3

> <Gold.Version>
5.8.1

> <Gold.Id.Protein>
6NUR|6NUR_protein|mol2

> <Gold.PLP.Fitness>
36.1714

> <Gold.PLP.PLP>
-24.6664

> <Gold.PLP.part.hbond>
-4.8006

> <Gold.PLP.part.metal>
0.0000

> <Gold.PLP.part.buried>
-4.2807

> <Gold.PLP.part.nonpolar>
-16.5619

> <Gold.PLP.part.repulsive>
0.0675

> <Gold.PLP.ligand.clash>
0.0000

> <Gold.PLP.ligand.torsion>
0.0163

> <Gold.PLP.Chemscore.Hbond>
3.8400

> <Gold.PLP.Chemscore.CHOScore>
0.0000

> <Gold.PLP.Chemscore.Metal>
0.0000

> <Gold.Chemscore.Hbonds>
donor molecule, donor type, donor heavy atom, donor atom, acceptor molecule, acceptor atom, score
      L1  H     3    19       P1 10175  0.99
      L1  H     9    21       P1 10175  1.00
      L1  H    18    34       P1  7948  1.00
      P1  H 11000 11005       L1     6  0.83

> <Gold.PLP.Chemscore.Internal.Correction>
0.0176

> <Gold.Rescore>
     Score         DG    S(hbond)    S(metal)    S(lipo)     H(rot)  DE(clash)    DE(int)     intcor
     17.25     -18.63       3.70        0.00      49.21       1.94       0.07       1.31       ----

> <Gold.Chemscore.Fitness>
17.2458

> <Gold.Chemscore.DG>
-18.6297

> <Gold.Chemscore.ZeroCoef>
-5.4800

> <Gold.Chemscore.Hbond>
3.7034

> <Gold.Chemscore.Metal>
0.0000

> <Gold.Chemscore.Lipo>
49.2087

> <Gold.Chemscore.Internal_Hbond>
0.0000

> <Gold.Chemscore.DEClash>
0.0728

> <Gold.Chemscore.DEInternal>
1.3111

> <Gold.Chemscore.Rot>
1.9442

> <Gold.Chemscore.Internal.Correction>
   9.000000E+99

> <Gold.Chemscore.Hbonds>
donor molecule, donor type, donor heavy atom, donor atom, acceptor molecule, acceptor atom, score
      L1  H     3    19       P1 10175  0.94
      L1  H     9    21       P1 10175  0.92
      L1  H    18    34       P1  7948  0.99
      P1  H 11000 11005       L1     6  0.82

> <Gold.Chemscore.Hbond.Weighted>
-12.3694

> <Gold.Chemscore.Metal.Weighted>
-0.0000

> <Gold.Chemscore.Lipo.Weighted>
-5.7574

> <Gold.Chemscore.Internal_Hbond.Weighted>
0.0000

> <Gold.Chemscore.DEClash.Weighted>
0.0728

> <Gold.Chemscore.DEInternal.Weighted>
1.3111

> <Gold.Chemscore.Rot.Weighted>
4.9771

> <Gold.Chemscore.Internal.Correction.Weighted>
   9.000000E+99

> <Gold.Protein.RotatedTorsions>
[ 6907 6896 6895 6894 ] final    0.04 input  -60.11 | X-H torsion
[ 7974 7965 7964 7962 ] final  155.34 input  175.53 | X-H torsion
[ 8008 7997 7996 7995 ] final  -29.82 input   59.86 | X-H torsion
[ 10167 10162 10161 10158 ] final   74.53 input  -65.29 | X-H torsion
[ 10718 10713 10712 10709 ] final -137.84 input   66.30 | X-H torsion
[ 10763 10752 10751 10750 ] final  -30.71 input  -60.55 | X-H torsion
[ 11005 11000 10999 10996 ] final   77.94 input  -57.11 | X-H torsion

> <Gold.Protein.ActiveResidues>
 VAL166  LYS551  ARG553  GLY616  TRP617  ASP618  TYR619  PRO620  LYS621  CYS622 
 ASP623  PHE694  ASN695  SER759  ASP760  ASP761  ALA762  ILE779  LEU786  VAL792 
 PHE793  MET794  SER795  GLU796  ALA797  LYS798  CYS799  TRP800  GLU811  SER814 

> <Gold.Protein.RotatedAtoms>
  151.5700  135.1063  159.9992 H   0  0  0  0  0  0  0  0  0  0  0  0  # atno 6907 bound_to 6896
  152.4405  133.7435  159.6665 H   0  0  0  0  0  0  0  0  0  0  0  0  # atno 6908 bound_to 6896
  150.8310  133.8022  159.3122 H   0  0  0  0  0  0  0  0  0  0  0  0  # atno 6909 bound_to 6896
  144.8031  139.7055  143.6173 H   0  0  0  0  0  0  0  0  0  0  0  0  # atno 7974 bound_to 7965
  154.4274  140.1808  156.1309 H   0  0  0  0  0  0  0  0  0  0  0  0  # atno 8008 bound_to 7997
  156.0068  140.3354  155.6875 H   0  0  0  0  0  0  0  0  0  0  0  0  # atno 8009 bound_to 7997
  155.6166  140.0655  157.2681 H   0  0  0  0  0  0  0  0  0  0  0  0  # atno 8010 bound_to 7997
  140.0127  144.5601  150.7645 H   0  0  0  0  0  0  0  0  0  0  0  0  # atno 10167 bound_to 10162
  156.2926  130.7384  151.1414 H   0  0  0  0  0  0  0  0  0  0  0  0  # atno 10718 bound_to 10713
  153.7854  135.6902  153.4881 H   0  0  0  0  0  0  0  0  0  0  0  0  # atno 10763 bound_to 10752
  153.1784  135.4515  154.9994 H   0  0  0  0  0  0  0  0  0  0  0  0  # atno 10764 bound_to 10752
  154.8065  135.3359  154.7354 H   0  0  0  0  0  0  0  0  0  0  0  0  # atno 10765 bound_to 10752
  139.9233  134.7723  156.1586 H   0  0  0  0  0  0  0  0  0  0  0  0  # atno 11005 bound_to 11000
  146.2317  139.5826  142.9551 LP  0  0  0  0  0  0  0  0  0  0  0  0  # atno 17320 bound_to 7965
  145.5504  141.0414  143.2281 LP  0  0  0  0  0  0  0  0  0  0  0  0  # atno 17321 bound_to 7965
  140.7375  143.2766  151.3724 LP  0  0  0  0  0  0  0  0  0  0  0  0  # atno 17342 bound_to 10162
  139.6194  144.0938  152.2376 LP  0  0  0  0  0  0  0  0  0  0  0  0  # atno 17343 bound_to 10162
  157.7347  131.0580  150.5512 LP  0  0  0  0  0  0  0  0  0  0  0  0  # atno 17370 bound_to 10713
  156.5630  130.4260  149.6054 LP  0  0  0  0  0  0  0  0  0  0  0  0  # atno 17371 bound_to 10713
  141.0772  133.6770  156.2260 LP  0  0  0  0  0  0  0  0  0  0  0  0  # atno 17394 bound_to 11000
  140.6409  134.5167  157.5569 LP  0  0  0  0  0  0  0  0  0  0  0  0  # atno 17395 bound_to 11000

$$$$
