AV-unprocessed.smi:1323|AV-procd|sdf|5468|dock5
  -GOLD-   22720 5 43D 1   1.00000     0.00000
 Structure written by MMmdl.
 45 46  0  0  0  0  0  0  0  0  1 V2000
  153.1183  141.3314  160.4373 C   0  0  0  0  0  0  0  0  0  0  0  0
  152.2725  142.3927  159.7157 C   0  0  1  0  0  0  0  0  0  0  0  0
  153.1064  143.6618  159.4461 C   0  0  0  0  0  0  0  0  0  0  0  0
  152.2894  144.7382  158.7153 C   0  0  0  0  0  0  0  0  0  0  0  0
  151.7110  144.1910  157.4036 C   0  0  0  0  0  0  0  0  0  0  0  0
  150.8678  142.9358  157.6617 C   0  0  0  0  0  0  0  0  0  0  0  0
  151.6686  141.8439  158.4034 C   0  0  2  0  0  0  0  0  0  0  0  0
  150.7813  140.7839  158.7353 O   0  0  0  0  0  0  0  0  0  0  0  0
  151.3934  139.5034  158.7940 C   0  0  0  0  0  0  0  0  0  0  0  0
  150.7009  138.5736  157.7845 C   0  0  0  0  0  0  0  0  0  0  0  0
  149.4049  138.1110  158.2734 N   0  0  0  0  0  0  0  0  0  0  0  0
  149.1346  136.8691  158.7043 C   0  0  0  0  0  0  0  0  0  0  0  0
  149.9852  135.9838  158.7933 O   0  0  0  0  0  0  0  0  0  0  0  0
  147.6830  136.5846  159.1072 C   0  0  0  0  0  0  0  0  0  0  0  0
  147.6032  135.6898  160.2737 N   0  0  0  0  0  0  0  0  0  0  0  0
  147.7506  134.3103  160.0238 C   0  0  0  0  0  0  0  0  0  0  0  0
  147.7138  133.4003  161.0100 C   0  0  0  0  0  0  0  0  0  0  0  0
  147.5199  133.8670  162.3620 C   0  0  0  0  0  0  0  0  0  0  0  0
  147.3721  135.1829  162.6126 C   0  0  0  0  0  0  0  0  0  0  0  0
  147.3999  136.1802  161.5363 C   0  0  0  0  0  0  0  0  0  0  0  0
  147.2502  137.3817  161.7584 O   0  0  0  0  0  0  0  0  0  0  0  0
  153.9492  140.9975  159.8151 H   0  0  0  0  0  0  0  0  0  0  0  0
  152.5222  140.4552  160.6932 H   0  0  0  0  0  0  0  0  0  0  0  0
  153.5345  141.7251  161.3648 H   0  0  0  0  0  0  0  0  0  0  0  0
  151.4503  142.6696  160.3777 H   0  0  0  0  0  0  0  0  0  0  0  0
  153.4825  144.0671  160.3861 H   0  0  0  0  0  0  0  0  0  0  0  0
  153.9828  143.4067  158.8488 H   0  0  0  0  0  0  0  0  0  0  0  0
  151.4787  145.0841  159.3580 H   0  0  0  0  0  0  0  0  0  0  0  0
  152.9155  145.6074  158.5115 H   0  0  0  0  0  0  0  0  0  0  0  0
  151.1018  144.9540  156.9181 H   0  0  0  0  0  0  0  0  0  0  0  0
  152.5214  143.9533  156.7134 H   0  0  0  0  0  0  0  0  0  0  0  0
  150.0000  143.2065  158.2610 H   0  0  0  0  0  0  0  0  0  0  0  0
  150.4791  142.5603  156.7153 H   0  0  0  0  0  0  0  0  0  0  0  0
  152.4797  141.4789  157.7697 H   0  0  0  0  0  0  0  0  0  0  0  0
  152.4614  139.5528  158.5811 H   0  0  0  0  0  0  0  0  0  0  0  0
  151.2968  139.1094  159.8063 H   0  0  0  0  0  0  0  0  0  0  0  0
  150.5742  139.0809  156.8271 H   0  0  0  0  0  0  0  0  0  0  0  0
  151.3266  137.7008  157.5962 H   0  0  0  0  0  0  0  0  0  0  0  0
  148.6459  138.7760  158.2418 H   0  0  0  0  0  0  0  0  0  0  0  0
  147.1849  137.5320  159.3200 H   0  0  0  0  0  0  0  0  0  0  0  0
  147.1405  136.1662  158.2576 H   0  0  0  0  0  0  0  0  0  0  0  0
  147.9032  134.0435  158.9882 H   0  0  0  0  0  0  0  0  0  0  0  0
  147.8346  132.3481  160.7990 H   0  0  0  0  0  0  0  0  0  0  0  0
  147.4963  133.1583  163.1766 H   0  0  0  0  0  0  0  0  0  0  0  0
  147.2305  135.5141  163.6309 H   0  0  0  0  0  0  0  0  0  0  0  0
  1  2  1  0  0  0  0
  1 22  1  0  0  0  0
  1 23  1  0  0  0  0
  1 24  1  0  0  0  0
  2  7  1  0  0  0  0
  2  3  1  0  0  0  0
  2 25  1  0  0  0  0
  3  4  1  0  0  0  0
  3 26  1  0  0  0  0
  3 27  1  0  0  0  0
  4  5  1  0  0  0  0
  4 28  1  0  0  0  0
  4 29  1  0  0  0  0
  5  6  1  0  0  0  0
  5 30  1  0  0  0  0
  5 31  1  0  0  0  0
  6  7  1  0  0  0  0
  6 32  1  0  0  0  0
  6 33  1  0  0  0  0
  7  8  1  0  0  0  0
  7 34  1  0  0  0  0
  8  9  1  0  0  0  0
  9 10  1  0  0  0  0
  9 35  1  0  0  0  0
  9 36  1  0  0  0  0
 10 11  1  0  0  0  0
 10 37  1  0  0  0  0
 10 38  1  0  0  0  0
 11 12  1  0  0  0  0
 11 39  1  0  0  0  0
 12 13  2  0  0  0  0
 12 14  1  0  0  0  0
 14 15  1  0  0  0  0
 14 40  1  0  0  0  0
 14 41  1  0  0  0  0
 15 20  1  0  0  0  0
 15 16  1  0  0  0  0
 16 17  2  0  0  0  0
 16 42  1  0  0  0  0
 17 18  1  0  0  0  0
 17 43  1  0  0  0  0
 18 19  2  0  0  0  0
 18 44  1  0  0  0  0
 19 20  1  0  0  0  0
 19 45  1  0  0  0  0
 20 21  2  0  0  0  0
M  END
> <s_m_source_file>
AV-unprocessed.smi

> <i_m_source_file_index>
1323

> <i_lp_mmshare_version>
43012

> <i_f3d_flags>
0

> <s_epik_input>
W0NIM11bQ0BASF0xW0NIMl1bQ0gyXVtDSDJdW0NIMl1bQ0BIXTFPW0NIMl1bQ0gyXVtOSF1DKD1PKVtDSDJdbjJbY0hdW2NIXVtjSF1bY0hdYzI9Tw==

> <s_epik_cmdline>
J2VwaWtfcHl0aG9uJywgJy1waCcsICc3LjAnLCAnLXRuJywgJzgnLCAnLW1hJywgJzIwMCcsICctbWV0YWxfYmluZGluZycsICctaW1hZScsICc8aW5maWxlLm1hZT4nLCAnLW9tYWUnLCAnPG91dGZpbGUubWFlPic=

> <r_lp_tautomer_probability>
1

> <r_epik_Ionization_Penalty>
4.02412e-07

> <r_epik_Ionization_Penalty_Charging>
3.74552e-07

> <r_epik_Ionization_Penalty_Neutral>
2.78599e-08

> <r_epik_State_Penalty>
-0

> <r_epik_Charging_Adjusted_Penalty>
3.74552e-07

> <i_epik_Tot_Q>
0

> <i_epik_Tot_abs_Q>
0

> <r_epik_Metal_State_Penalty>
-0

> <b_epik_Metal_Only>
0

> <s_lp_Force_Field>
OPLS_2005

> <r_lp_Energy>
20.2591

> <b_lp_Chiralities_Consistent>
1

> <s_lp_Variant>
AV-unprocessed.smi:1323-4

> <Gold.Version>
5.8.1

> <Gold.Id.Protein>
6NUR|6NUR_protein|mol2

> <Gold.PLP.Fitness>
53.7051

> <Gold.PLP.PLP>
-49.1314

> <Gold.PLP.part.hbond>
-3.0000

> <Gold.PLP.part.metal>
0.0000

> <Gold.PLP.part.buried>
-5.0859

> <Gold.PLP.part.nonpolar>
-41.7990

> <Gold.PLP.part.repulsive>
0.1480

> <Gold.PLP.ligand.clash>
0.0000

> <Gold.PLP.ligand.torsion>
1.5055

> <Gold.PLP.Chemscore.Hbond>
2.5040

> <Gold.PLP.Chemscore.CHOScore>
0.0000

> <Gold.PLP.Chemscore.Metal>
0.0000

> <Gold.Chemscore.Hbonds>
donor molecule, donor type, donor heavy atom, donor atom, acceptor molecule, acceptor atom, score
      P1  H  6896  6909       L1    13  1.00
      P1  H  6931  6943       L1    21  0.78
      P1  H  6934  6947       L1    21  0.82

> <Gold.PLP.Chemscore.Internal.Correction>
0.0728

> <Gold.Rescore>
     Score         DG    S(hbond)    S(metal)    S(lipo)     H(rot)  DE(clash)    DE(int)     intcor
     21.37     -23.14       2.64        0.00     117.90       1.94       0.09       1.69       ----

> <Gold.Chemscore.Fitness>
21.3706

> <Gold.Chemscore.DG>
-23.1428

> <Gold.Chemscore.ZeroCoef>
-5.4800

> <Gold.Chemscore.Hbond>
2.6450

> <Gold.Chemscore.Metal>
0.0000

> <Gold.Chemscore.Lipo>
117.9026

> <Gold.Chemscore.Internal_Hbond>
0.0000

> <Gold.Chemscore.DEClash>
0.0868

> <Gold.Chemscore.DEInternal>
1.6854

> <Gold.Chemscore.Rot>
1.9398

> <Gold.Chemscore.Internal.Correction>
   9.000000E+99

> <Gold.Chemscore.Hbonds>
donor molecule, donor type, donor heavy atom, donor atom, acceptor molecule, acceptor atom, score
      P1  H  6896  6909       L1    13  1.00
      P1  H  6931  6943       L1    21  0.56
      P1  H  6934  6947       L1    21  0.81

> <Gold.Chemscore.Hbond.Weighted>
-8.8342

> <Gold.Chemscore.Metal.Weighted>
-0.0000

> <Gold.Chemscore.Lipo.Weighted>
-13.7946

> <Gold.Chemscore.Internal_Hbond.Weighted>
0.0000

> <Gold.Chemscore.DEClash.Weighted>
0.0868

> <Gold.Chemscore.DEInternal.Weighted>
1.6854

> <Gold.Chemscore.Rot.Weighted>
4.9659

> <Gold.Chemscore.Internal.Correction.Weighted>
   9.000000E+99

> <Gold.Protein.RotatedTorsions>
[ 6907 6896 6895 6894 ] final   64.37 input  -60.11 | X-H torsion
[ 7974 7965 7964 7962 ] final   25.44 input  175.53 | X-H torsion
[ 8008 7997 7996 7995 ] final  171.48 input   59.86 | X-H torsion
[ 10167 10162 10161 10158 ] final   45.77 input  -65.29 | X-H torsion
[ 10718 10713 10712 10709 ] final  -15.93 input   66.30 | X-H torsion
[ 10763 10752 10751 10750 ] final -125.46 input  -60.55 | X-H torsion
[ 11005 11000 10999 10996 ] final   32.42 input  -57.11 | X-H torsion

> <Gold.Protein.ActiveResidues>
 VAL166  LYS551  ARG553  GLY616  TRP617  ASP618  TYR619  PRO620  LYS621  CYS622 
 ASP623  PHE694  ASN695  SER759  ASP760  ASP761  ALA762  ILE779  LEU786  VAL792 
 PHE793  MET794  SER795  GLU796  ALA797  LYS798  CYS799  TRP800  GLU811  SER814 

> <Gold.Protein.RotatedAtoms>
  152.4326  134.5748  159.9931 H   0  0  0  0  0  0  0  0  0  0  0  0  # atno 6907 bound_to 6896
  151.5867  133.3365  159.3027 H   0  0  0  0  0  0  0  0  0  0  0  0  # atno 6908 bound_to 6896
  150.8221  134.7469  159.6846 H   0  0  0  0  0  0  0  0  0  0  0  0  # atno 6909 bound_to 6896
  146.1888  139.7466  142.8847 H   0  0  0  0  0  0  0  0  0  0  0  0  # atno 7974 bound_to 7965
  156.1267  140.1511  156.9125 H   0  0  0  0  0  0  0  0  0  0  0  0  # atno 8008 bound_to 7997
  154.4877  140.0860  156.7565 H   0  0  0  0  0  0  0  0  0  0  0  0  # atno 8009 bound_to 7997
  155.4330  140.3428  155.4284 H   0  0  0  0  0  0  0  0  0  0  0  0  # atno 8010 bound_to 7997
  140.3207  144.2708  150.6183 H   0  0  0  0  0  0  0  0  0  0  0  0  # atno 10167 bound_to 10162
  156.5948  130.4808  149.6264 H   0  0  0  0  0  0  0  0  0  0  0  0  # atno 10718 bound_to 10713
  154.8736  135.4028  154.3272 H   0  0  0  0  0  0  0  0  0  0  0  0  # atno 10763 bound_to 10752
  153.4091  135.7020  153.6377 H   0  0  0  0  0  0  0  0  0  0  0  0  # atno 10764 bound_to 10752
  153.5087  135.3712  155.2546 H   0  0  0  0  0  0  0  0  0  0  0  0  # atno 10765 bound_to 10752
  140.2737  134.3053  155.7820 H   0  0  0  0  0  0  0  0  0  0  0  0  # atno 11005 bound_to 11000
  145.3856  141.0365  143.3153 LP  0  0  0  0  0  0  0  0  0  0  0  0  # atno 17320 bound_to 7965
  144.8448  139.5415  143.6884 LP  0  0  0  0  0  0  0  0  0  0  0  0  # atno 17321 bound_to 7965
  140.5486  143.2210  151.7966 LP  0  0  0  0  0  0  0  0  0  0  0  0  # atno 17342 bound_to 10162
  139.4875  144.4507  151.9657 LP  0  0  0  0  0  0  0  0  0  0  0  0  # atno 17343 bound_to 10162
  156.2519  130.6912  151.1652 LP  0  0  0  0  0  0  0  0  0  0  0  0  # atno 17370 bound_to 10713
  157.7294  131.0624  150.5773 LP  0  0  0  0  0  0  0  0  0  0  0  0  # atno 17371 bound_to 10713
  141.2173  133.7482  156.9373 LP  0  0  0  0  0  0  0  0  0  0  0  0  # atno 17394 bound_to 11000
  140.1349  134.9332  157.2388 LP  0  0  0  0  0  0  0  0  0  0  0  0  # atno 17395 bound_to 11000

$$$$
