AV-unprocessed.smi:2079|AV-procd|sdf|8484|dock10
  -GOLD-   2272011193D 1   1.00000     0.00000
 Structure written by MMmdl.
 41 42  0  0  0  0  0  0  0  0  3 V2000
  152.0456  140.3956  158.2925 C   0  0  0  0  0  0  0  0  0  0  0  0
  151.4674  140.2123  156.9314 C   0  0  0  0  0  0  0  0  0  0  0  0
  150.1937  140.2916  156.4430 C   0  0  0  0  0  0  0  0  0  0  0  0
  150.3595  139.9970  155.0633 C   0  0  0  0  0  0  0  0  0  0  0  0
  149.2417  139.9755  154.1877 N   0  0  0  0  0  0  0  0  0  0  0  0
  147.9337  139.8949  154.4930 C   0  0  0  0  0  0  0  0  0  0  0  0
  147.5707  139.8128  155.6727 O   0  0  0  0  0  0  0  0  0  0  0  0
  147.1429  139.9116  153.3841 N   0  5  0  0  0  0  0  0  0  0  0  0
  146.8380  138.7437  152.5588 C   0  0  0  0  0  0  0  0  0  0  0  0
  146.2770  137.6007  153.4295 C   0  0  0  0  0  0  0  0  0  0  0  0
  146.3084  136.2941  152.7176 N   0  3  1  0  0  0  0  0  0  0  0  0
  146.2922  135.1054  153.6186 C   0  0  0  0  0  0  0  0  0  0  0  0
  146.5677  133.8143  152.8306 C   0  0  0  0  0  0  0  0  0  0  0  0
  145.5736  133.6460  151.6747 C   0  0  0  0  0  0  0  0  0  0  0  0
  145.5773  134.9002  150.7871 C   0  0  0  0  0  0  0  0  0  0  0  0
  145.3232  136.1873  151.5998 C   0  0  1  0  0  0  0  0  0  0  0  0
  143.8551  136.3099  152.0638 C   0  0  0  0  0  0  0  0  0  0  0  0
  151.6228  139.7631  154.7394 N   0  0  0  0  0  0  0  0  0  0  0  0
  152.3386  139.8986  155.9346 O   0  0  0  0  0  0  0  0  0  0  0  0
  151.3046  140.8061  158.9787 H   0  0  0  0  0  0  0  0  0  0  0  0
  152.8946  141.0786  158.2639 H   0  0  0  0  0  0  0  0  0  0  0  0
  152.3901  139.4433  158.6959 H   0  0  0  0  0  0  0  0  0  0  0  0
  149.2893  140.5205  156.9870 H   0  0  0  0  0  0  0  0  0  0  0  0
  149.4576  140.0422  153.2042 H   0  0  0  0  0  0  0  0  0  0  0  0
  146.1229  138.9730  151.7675 H   0  0  0  0  0  0  0  0  0  0  0  0
  147.7311  138.3886  152.0445 H   0  0  0  0  0  0  0  0  0  0  0  0
  146.8148  137.5248  154.3759 H   0  0  0  0  0  0  0  0  0  0  0  0
  145.2463  137.8514  153.6849 H   0  0  0  0  0  0  0  0  0  0  0  0
  147.0524  135.2105  154.3930 H   0  0  0  0  0  0  0  0  0  0  0  0
  145.3358  135.0390  154.1378 H   0  0  0  0  0  0  0  0  0  0  0  0
  147.5847  133.8381  152.4369 H   0  0  0  0  0  0  0  0  0  0  0  0
  146.5144  132.9524  153.4963 H   0  0  0  0  0  0  0  0  0  0  0  0
  145.8320  132.7672  151.0833 H   0  0  0  0  0  0  0  0  0  0  0  0
  144.5731  133.4677  152.0695 H   0  0  0  0  0  0  0  0  0  0  0  0
  146.5447  134.9783  150.2888 H   0  0  0  0  0  0  0  0  0  0  0  0
  144.8365  134.7998  149.9932 H   0  0  0  0  0  0  0  0  0  0  0  0
  145.5154  137.0239  150.9262 H   0  0  0  0  0  0  0  0  0  0  0  0
  143.1781  136.2620  151.2106 H   0  0  0  0  0  0  0  0  0  0  0  0
  143.6663  137.2586  152.5659 H   0  0  0  0  0  0  0  0  0  0  0  0
  143.5664  135.5132  152.7485 H   0  0  0  0  0  0  0  0  0  0  0  0
  147.2111  136.2791  152.2646 H   0  0  0  0  0  0  0  0  0  0  0  0
  1  2  1  0  0  0  0
  1 20  1  0  0  0  0
  1 21  1  0  0  0  0
  1 22  1  0  0  0  0
  2 19  1  0  0  0  0
  2  3  2  0  0  0  0
  3  4  1  0  0  0  0
  3 23  1  0  0  0  0
  4  5  1  0  0  0  0
  4 18  2  0  0  0  0
  5  6  1  0  0  0  0
  5 24  1  0  0  0  0
  6  7  2  0  0  0  0
  6  8  1  0  0  0  0
  8  9  1  0  0  0  0
  9 10  1  0  0  0  0
  9 25  1  0  0  0  0
  9 26  1  0  0  0  0
 10 11  1  0  0  0  0
 10 27  1  0  0  0  0
 10 28  1  0  0  0  0
 11 16  1  0  0  0  0
 11 12  1  0  0  0  0
 11 41  1  0  0  0  0
 12 13  1  0  0  0  0
 12 29  1  0  0  0  0
 12 30  1  0  0  0  0
 13 14  1  0  0  0  0
 13 31  1  0  0  0  0
 13 32  1  0  0  0  0
 14 15  1  0  0  0  0
 14 33  1  0  0  0  0
 14 34  1  0  0  0  0
 15 16  1  0  0  0  0
 15 35  1  0  0  0  0
 15 36  1  0  0  0  0
 16 17  1  0  0  0  0
 16 37  1  0  0  0  0
 17 38  1  0  0  0  0
 17 39  1  0  0  0  0
 17 40  1  0  0  0  0
 18 19  1  0  0  0  0
M  CHG  1   8  -1
M  CHG  1  11   1
M  END
> <s_m_source_file>
AV-unprocessed.smi

> <i_m_source_file_index>
2079

> <i_lp_mmshare_version>
43012

> <i_f3d_flags>
0

> <s_epik_input>
W0NIM11jMVtjSF1jKG5vMSlbTkhdQyg9TylbTkhdW0NIMl1bQ0gyXU4yW0NIMl1bQ0gyXVtDSDJdW0NIMl1bQ0BIXTJbQ0gzXQ==

> <s_epik_cmdline>
J2VwaWtfcHl0aG9uJywgJy1waCcsICc3LjAnLCAnLXRuJywgJzgnLCAnLW1hJywgJzIwMCcsICctbWV0YWxfYmluZGluZycsICctaW1hZScsICc8aW5maWxlLm1hZT4nLCAnLW9tYWUnLCAnPG91dGZpbGUubWFlPic=

> <r_epik_Ionization_Penalty>
6.7666

> <r_epik_Ionization_Penalty_Charging>
6.7666

> <r_epik_Ionization_Penalty_Neutral>
5.77131e-06

> <r_epik_State_Penalty>
6.79217

> <r_epik_Charging_Adjusted_Penalty>
13.5588

> <i_epik_Tot_Q>
0

> <i_epik_Tot_abs_Q>
2

> <r_epik_Metal_State_Penalty>
2.72569

> <b_epik_Metal_Only>
1

> <s_lp_Force_Field>
OPLS_2005

> <r_lp_Energy>
14.7698

> <b_lp_Chiralities_Consistent>
1

> <s_lp_Variant>
AV-unprocessed.smi:2079-10

> <Gold.Version>
5.8.1

> <Gold.Id.Protein>
6NUR|6NUR_protein|mol2

> <Gold.PLP.Fitness>
40.4408

> <Gold.PLP.PLP>
-27.8895

> <Gold.PLP.part.hbond>
-3.9904

> <Gold.PLP.part.metal>
0.0000

> <Gold.PLP.part.buried>
-3.9030

> <Gold.PLP.part.nonpolar>
-20.7320

> <Gold.PLP.part.repulsive>
0.4085

> <Gold.PLP.ligand.clash>
0.0000

> <Gold.PLP.ligand.torsion>
1.0283

> <Gold.PLP.Chemscore.Hbond>
4.8500

> <Gold.PLP.Chemscore.CHOScore>
0.0000

> <Gold.PLP.Chemscore.Metal>
0.0000

> <Gold.Chemscore.Hbonds>
donor molecule, donor type, donor heavy atom, donor atom, acceptor molecule, acceptor atom, score
      L1  H     5    24       P1  7957  0.96
      L1  H    11    41       P1  7948  2.00
      P1  H  7989  7998       L1    18  0.75
      P1  H  7997  8009       L1    19  0.93

> <Gold.PLP.Chemscore.Internal.Correction>
0.0579

> <Gold.Rescore>
     Score         DG    S(hbond)    S(metal)    S(lipo)     H(rot)  DE(clash)    DE(int)     intcor
     15.90     -18.54       3.18        0.00      54.49       1.54       0.23       2.41       ----

> <Gold.Chemscore.Fitness>
15.8996

> <Gold.Chemscore.DG>
-18.5392

> <Gold.Chemscore.ZeroCoef>
-5.4800

> <Gold.Chemscore.Hbond>
3.1821

> <Gold.Chemscore.Metal>
0.0000

> <Gold.Chemscore.Lipo>
54.4913

> <Gold.Chemscore.Internal_Hbond>
0.0000

> <Gold.Chemscore.DEClash>
0.2294

> <Gold.Chemscore.DEInternal>
2.4101

> <Gold.Chemscore.Rot>
1.5409

> <Gold.Chemscore.Internal.Correction>
   9.000000E+99

> <Gold.Chemscore.Hbonds>
donor molecule, donor type, donor heavy atom, donor atom, acceptor molecule, acceptor atom, score
      L1  H     5    24       P1  7957  0.90
      L1  H    11    41       P1  7948  1.00
      P1  H  7989  7998       L1    18  0.09
      P1  H  7997  8009       L1    19  0.88

> <Gold.Chemscore.Hbond.Weighted>
-10.6283

> <Gold.Chemscore.Metal.Weighted>
-0.0000

> <Gold.Chemscore.Lipo.Weighted>
-6.3755

> <Gold.Chemscore.Internal_Hbond.Weighted>
0.0000

> <Gold.Chemscore.DEClash.Weighted>
0.2294

> <Gold.Chemscore.DEInternal.Weighted>
2.4101

> <Gold.Chemscore.Rot.Weighted>
3.9446

> <Gold.Chemscore.Internal.Correction.Weighted>
   9.000000E+99

> <Gold.Protein.RotatedTorsions>
[ 6907 6896 6895 6894 ] final -152.36 input  -60.11 | X-H torsion
[ 7974 7965 7964 7962 ] final   25.57 input  175.53 | X-H torsion
[ 8008 7997 7996 7995 ] final -145.86 input   59.86 | X-H torsion
[ 10167 10162 10161 10158 ] final  136.34 input  -65.29 | X-H torsion
[ 10718 10713 10712 10709 ] final  116.09 input   66.30 | X-H torsion
[ 10763 10752 10751 10750 ] final  177.69 input  -60.55 | X-H torsion
[ 11005 11000 10999 10996 ] final   59.25 input  -57.11 | X-H torsion

> <Gold.Protein.ActiveResidues>
 VAL166  LYS551  ARG553  GLY616  TRP617  ASP618  TYR619  PRO620  LYS621  CYS622 
 ASP623  PHE694  ASN695  SER759  ASP760  ASP761  ALA762  ILE779  LEU786  VAL792 
 PHE793  MET794  SER795  GLU796  ALA797  LYS798  CYS799  TRP800  GLU811  SER814 

> <Gold.Protein.RotatedAtoms>
  151.2266  133.4473  159.2602 H   0  0  0  0  0  0  0  0  0  0  0  0  # atno 6907 bound_to 6896
  151.0834  134.9872  159.8377 H   0  0  0  0  0  0  0  0  0  0  0  0  # atno 6908 bound_to 6896
  152.5427  134.2204  159.8838 H   0  0  0  0  0  0  0  0  0  0  0  0  # atno 6909 bound_to 6896
  146.1882  139.7448  142.8851 H   0  0  0  0  0  0  0  0  0  0  0  0  # atno 7974 bound_to 7965
  155.5500  140.0616  157.2852 H   0  0  0  0  0  0  0  0  0  0  0  0  # atno 8008 bound_to 7997
  154.4424  140.1904  156.0721 H   0  0  0  0  0  0  0  0  0  0  0  0  # atno 8009 bound_to 7997
  156.0523  140.3283  155.7369 H   0  0  0  0  0  0  0  0  0  0  0  0  # atno 8010 bound_to 7997
  139.5183  144.6470  151.5412 H   0  0  0  0  0  0  0  0  0  0  0  0  # atno 10167 bound_to 10162
  157.6182  131.1021  150.7423 H   0  0  0  0  0  0  0  0  0  0  0  0  # atno 10718 bound_to 10713
  154.4978  135.2782  155.1445 H   0  0  0  0  0  0  0  0  0  0  0  0  # atno 10763 bound_to 10752
  154.3091  135.6232  153.5461 H   0  0  0  0  0  0  0  0  0  0  0  0  # atno 10764 bound_to 10752
  152.9897  135.5715  154.5414 H   0  0  0  0  0  0  0  0  0  0  0  0  # atno 10765 bound_to 10752
  140.0318  134.6001  155.9497 H   0  0  0  0  0  0  0  0  0  0  0  0  # atno 11005 bound_to 11000
  145.3874  141.0367  143.3143 LP  0  0  0  0  0  0  0  0  0  0  0  0  # atno 17320 bound_to 7965
  144.8436  139.5432  143.6889 LP  0  0  0  0  0  0  0  0  0  0  0  0  # atno 17321 bound_to 7965
  140.6259  143.9170  150.6564 LP  0  0  0  0  0  0  0  0  0  0  0  0  # atno 17342 bound_to 10162
  140.2459  143.3629  152.1447 LP  0  0  0  0  0  0  0  0  0  0  0  0  # atno 17343 bound_to 10162
  156.7786  130.4852  149.5405 LP  0  0  0  0  0  0  0  0  0  0  0  0  # atno 17370 bound_to 10713
  156.1314  130.6180  151.0338 LP  0  0  0  0  0  0  0  0  0  0  0  0  # atno 17371 bound_to 10713
  141.1835  133.6551  156.5119 LP  0  0  0  0  0  0  0  0  0  0  0  0  # atno 17394 bound_to 11000
  140.4213  134.7184  157.4891 LP  0  0  0  0  0  0  0  0  0  0  0  0  # atno 17395 bound_to 11000

$$$$
