AV-unprocessed.smi:1645|AV-procd|sdf|6613|dock4
  -GOLD-   22720 7313D 1   1.00000     0.00000
 Structure written by MMmdl.
 56 59  0  0  0  0  0  0  0  0  3 V2000
  146.6559  137.6139  155.3937 O   0  0  0  0  0  0  0  0  0  0  0  0
  147.3560  137.4384  154.3969 C   0  0  0  0  0  0  0  0  0  0  0  0
  148.5938  137.9319  154.2204 N   0  0  0  0  0  0  0  0  0  0  0  0
  149.3252  138.8121  155.0639 C   0  0  0  0  0  0  0  0  0  0  0  0
  150.6352  139.1601  154.6752 C   0  0  0  0  0  0  0  0  0  0  0  0
  151.3912  140.0491  155.4665 C   0  0  0  0  0  0  0  0  0  0  0  0
  150.8281  140.5997  156.6455 C   0  0  0  0  0  0  0  0  0  0  0  0
  151.5070  141.4986  157.5001 N   0  0  0  0  0  0  0  0  0  0  0  0
  151.9034  140.9727  158.8110 C   0  0  0  0  0  0  0  0  0  0  0  0
  152.9690  141.8595  159.4772 C   0  0  0  0  0  0  0  0  0  0  0  0
  152.5123  143.3230  159.5369 C   0  0  0  0  0  0  0  0  0  0  0  0
  152.1552  143.8125  158.1273 C   0  0  0  0  0  0  0  0  0  0  0  0
  151.0987  142.9050  157.4744 C   0  0  0  0  0  0  0  0  0  0  0  0
  149.5630  140.2395  156.9721 N   0  3  0  0  0  0  0  0  0  0  0  0
  148.8048  139.3904  156.2457 C   0  0  0  0  0  0  0  0  0  0  0  0
  146.9735  136.6973  153.3472 N   0  0  0  0  0  0  0  0  0  0  0  0
  145.6882  136.0150  153.2229 C   0  0  1  0  0  0  0  0  0  0  0  0
  144.5168  136.9700  153.0248 C   0  0  0  0  0  0  0  0  0  0  0  0
  143.4451  136.0466  152.4434 C   0  0  0  0  0  0  0  0  0  0  0  0
  144.1699  135.0571  151.6138 N   0  3  2  0  0  0  0  0  0  0  0  0
  143.5648  133.7030  151.5941 C   0  0  0  0  0  0  0  0  0  0  0  0
  144.3861  132.7561  150.6998 C   0  0  0  0  0  0  0  0  0  0  0  0
  145.8914  132.7582  151.0394 C   0  0  0  0  0  0  0  0  0  0  0  0
  146.2324  133.7111  152.1960 C   0  0  0  0  0  0  0  0  0  0  0  0
  145.6141  135.1111  151.9802 C   0  0  2  0  0  0  0  0  0  0  0  0
  149.0791  137.6274  153.3892 H   0  0  0  0  0  0  0  0  0  0  0  0
  151.0653  138.7494  153.7732 H   0  0  0  0  0  0  0  0  0  0  0  0
  152.3890  140.3020  155.1416 H   0  0  0  0  0  0  0  0  0  0  0  0
  151.0172  140.9175  159.4444 H   0  0  0  0  0  0  0  0  0  0  0  0
  152.2996  139.9602  158.7372 H   0  0  0  0  0  0  0  0  0  0  0  0
  153.1833  141.4928  160.4814 H   0  0  0  0  0  0  0  0  0  0  0  0
  153.9027  141.7913  158.9174 H   0  0  0  0  0  0  0  0  0  0  0  0
  151.6452  143.4147  160.1923 H   0  0  0  0  0  0  0  0  0  0  0  0
  153.2979  143.9458  159.9658 H   0  0  0  0  0  0  0  0  0  0  0  0
  151.7899  144.8388  158.1682 H   0  0  0  0  0  0  0  0  0  0  0  0
  153.0538  143.8279  157.5090 H   0  0  0  0  0  0  0  0  0  0  0  0
  150.9522  143.2386  156.4468 H   0  0  0  0  0  0  0  0  0  0  0  0
  150.1438  143.0090  157.9914 H   0  0  0  0  0  0  0  0  0  0  0  0
  147.8124  139.2256  156.6369 H   0  0  0  0  0  0  0  0  0  0  0  0
  147.6148  136.6041  152.5728 H   0  0  0  0  0  0  0  0  0  0  0  0
  145.4840  135.4259  154.1200 H   0  0  0  0  0  0  0  0  0  0  0  0
  144.2005  137.4547  153.9491 H   0  0  0  0  0  0  0  0  0  0  0  0
  144.7725  137.7472  152.3027 H   0  0  0  0  0  0  0  0  0  0  0  0
  142.9279  135.5394  153.2596 H   0  0  0  0  0  0  0  0  0  0  0  0
  142.6982  136.5866  151.8608 H   0  0  0  0  0  0  0  0  0  0  0  0
  143.5091  133.3073  152.6096 H   0  0  0  0  0  0  0  0  0  0  0  0
  142.5402  133.7692  151.2262 H   0  0  0  0  0  0  0  0  0  0  0  0
  143.9884  131.7437  150.7783 H   0  0  0  0  0  0  0  0  0  0  0  0
  144.2570  133.0478  149.6566 H   0  0  0  0  0  0  0  0  0  0  0  0
  146.2223  131.7487  151.2853 H   0  0  0  0  0  0  0  0  0  0  0  0
  146.4568  133.0528  150.1544 H   0  0  0  0  0  0  0  0  0  0  0  0
  145.8695  133.2829  153.1314 H   0  0  0  0  0  0  0  0  0  0  0  0
  147.3146  133.7897  152.3021 H   0  0  0  0  0  0  0  0  0  0  0  0
  146.1187  135.5988  151.1443 H   0  0  0  0  0  0  0  0  0  0  0  0
  144.1247  135.3960  150.6633 H   0  0  0  0  0  0  0  0  0  0  0  0
  149.1553  140.6361  157.8189 H   0  0  0  0  0  0  0  0  0  0  0  0
  1  2  2  0  0  0  0
  2  3  1  0  0  0  0
  2 16  1  0  0  0  0
  3  4  1  0  0  0  0
  3 26  1  0  0  0  0
  4 15  1  0  0  0  0
  4  5  2  0  0  0  0
  5  6  1  0  0  0  0
  5 27  1  0  0  0  0
  6  7  2  0  0  0  0
  6 28  1  0  0  0  0
  7  8  1  0  0  0  0
  7 14  1  0  0  0  0
  8 13  1  0  0  0  0
  8  9  1  0  0  0  0
  9 10  1  0  0  0  0
  9 29  1  0  0  0  0
  9 30  1  0  0  0  0
 10 11  1  0  0  0  0
 10 31  1  0  0  0  0
 10 32  1  0  0  0  0
 11 12  1  0  0  0  0
 11 33  1  0  0  0  0
 11 34  1  0  0  0  0
 12 13  1  0  0  0  0
 12 35  1  0  0  0  0
 12 36  1  0  0  0  0
 13 37  1  0  0  0  0
 13 38  1  0  0  0  0
 14 15  2  0  0  0  0
 14 56  1  0  0  0  0
 15 39  1  0  0  0  0
 16 17  1  0  0  0  0
 16 40  1  0  0  0  0
 17 25  1  0  0  0  0
 17 18  1  0  0  0  0
 17 41  1  0  0  0  0
 18 19  1  0  0  0  0
 18 42  1  0  0  0  0
 18 43  1  0  0  0  0
 19 20  1  0  0  0  0
 19 44  1  0  0  0  0
 19 45  1  0  0  0  0
 20 25  1  0  0  0  0
 20 21  1  0  0  0  0
 20 55  1  0  0  0  0
 21 22  1  0  0  0  0
 21 46  1  0  0  0  0
 21 47  1  0  0  0  0
 22 23  1  0  0  0  0
 22 48  1  0  0  0  0
 22 49  1  0  0  0  0
 23 24  1  0  0  0  0
 23 50  1  0  0  0  0
 23 51  1  0  0  0  0
 24 25  1  0  0  0  0
 24 52  1  0  0  0  0
 24 53  1  0  0  0  0
 25 54  1  0  0  0  0
M  CHG  1  14   1
M  CHG  1  20   1
M  END
> <s_m_source_file>
AV-unprocessed.smi

> <i_m_source_file_index>
1645

> <i_lp_mmshare_version>
43012

> <i_f3d_flags>
0

> <s_epik_input>
W0NIMl0xW0NIMl1bQ0gyXVtDSDJdW0NASF0oTjEyKVtDQEBIXShbQ0gyXVtDSDJdMilbTkhdQyg9TylbTkhdYzNbY0hdW2NIXWMobltjSF0zKU40W0NIMl1bQ0gyXVtDSDJdW0NIMl1bQ0gyXTQ=

> <s_epik_cmdline>
J2VwaWtfcHl0aG9uJywgJy1waCcsICc3LjAnLCAnLXRuJywgJzgnLCAnLW1hJywgJzIwMCcsICctbWV0YWxfYmluZGluZycsICctaW1hZScsICc8aW5maWxlLm1hZT4nLCAnLW9tYWUnLCAnPG91dGZpbGUubWFlPic=

> <r_lp_tautomer_probability>
0.999994

> <r_epik_Ionization_Penalty>
1.26838

> <r_epik_Ionization_Penalty_Charging>
1.26836

> <r_epik_Ionization_Penalty_Neutral>
1.95562e-05

> <r_epik_State_Penalty>
1.33841

> <r_epik_Charging_Adjusted_Penalty>
2.60677

> <i_epik_Tot_Q>
2

> <i_epik_Tot_abs_Q>
2

> <r_epik_Metal_State_Penalty>
1.40601

> <b_epik_Metal_Only>
0

> <s_lp_Force_Field>
OPLS_2005

> <r_lp_Energy>
63.6988

> <b_lp_Chiralities_Consistent>
1

> <s_lp_Variant>
AV-unprocessed.smi:1645-14

> <Gold.Version>
5.8.1

> <Gold.Id.Protein>
6NUR|6NUR_protein|mol2

> <Gold.PLP.Fitness>
48.1231

> <Gold.PLP.PLP>
-42.7676

> <Gold.PLP.part.hbond>
-1.8898

> <Gold.PLP.part.metal>
0.0000

> <Gold.PLP.part.buried>
-5.7334

> <Gold.PLP.part.nonpolar>
-36.3619

> <Gold.PLP.part.repulsive>
0.0796

> <Gold.PLP.ligand.clash>
0.0000

> <Gold.PLP.ligand.torsion>
0.3334

> <Gold.PLP.Chemscore.Hbond>
1.8337

> <Gold.PLP.Chemscore.CHOScore>
0.0000

> <Gold.PLP.Chemscore.Metal>
0.0000

> <Gold.Chemscore.Hbonds>
donor molecule, donor type, donor heavy atom, donor atom, acceptor molecule, acceptor atom, score
      L1  H     3    26       P1  7948  0.80
      L1  H    16    40       P1  7948  1.00

> <Gold.PLP.Chemscore.Internal.Correction>
0.5214

> <Gold.Rescore>
     Score         DG    S(hbond)    S(metal)    S(lipo)     H(rot)  DE(clash)    DE(int)     intcor
     20.17     -21.77       1.88        0.00     111.55       1.18       0.06       1.54       ----

> <Gold.Chemscore.Fitness>
20.1720

> <Gold.Chemscore.DG>
-21.7710

> <Gold.Chemscore.ZeroCoef>
-5.4800

> <Gold.Chemscore.Hbond>
1.8768

> <Gold.Chemscore.Metal>
0.0000

> <Gold.Chemscore.Lipo>
111.5533

> <Gold.Chemscore.Internal_Hbond>
0.0000

> <Gold.Chemscore.DEClash>
0.0563

> <Gold.Chemscore.DEInternal>
1.5427

> <Gold.Chemscore.Rot>
1.1833

> <Gold.Chemscore.Internal.Correction>
   9.000000E+99

> <Gold.Chemscore.Hbonds>
donor molecule, donor type, donor heavy atom, donor atom, acceptor molecule, acceptor atom, score
      L1  H     3    26       P1  7948  0.76
      L1  H    16    40       P1  7948  0.95

> <Gold.Chemscore.Hbond.Weighted>
-6.2686

> <Gold.Chemscore.Metal.Weighted>
-0.0000

> <Gold.Chemscore.Lipo.Weighted>
-13.0517

> <Gold.Chemscore.Internal_Hbond.Weighted>
0.0000

> <Gold.Chemscore.DEClash.Weighted>
0.0563

> <Gold.Chemscore.DEInternal.Weighted>
1.5427

> <Gold.Chemscore.Rot.Weighted>
3.0293

> <Gold.Chemscore.Internal.Correction.Weighted>
   9.000000E+99

> <Gold.Protein.RotatedTorsions>
[ 6907 6896 6895 6894 ] final  124.16 input  -60.11 | X-H torsion
[ 7974 7965 7964 7962 ] final  -83.31 input  175.53 | X-H torsion
[ 8008 7997 7996 7995 ] final  -26.71 input   59.86 | X-H torsion
[ 10167 10162 10161 10158 ] final  -75.04 input  -65.29 | X-H torsion
[ 10718 10713 10712 10709 ] final   76.12 input   66.30 | X-H torsion
[ 10763 10752 10751 10750 ] final -161.47 input  -60.55 | X-H torsion
[ 11005 11000 10999 10996 ] final  -24.76 input  -57.11 | X-H torsion

> <Gold.Protein.ActiveResidues>
 VAL166  LYS551  ARG553  GLY616  TRP617  ASP618  TYR619  PRO620  LYS621  CYS622 
 ASP623  PHE694  ASN695  SER759  ASP760  ASP761  ALA762  ILE779  LEU786  VAL792 
 PHE793  MET794  SER795  GLU796  ALA797  LYS798  CYS799  TRP800  GLU811  SER814 

> <Gold.Protein.RotatedAtoms>
  152.4101  133.6950  159.6390 H   0  0  0  0  0  0  0  0  0  0  0  0  # atno 6907 bound_to 6896
  150.7982  133.8639  159.3248 H   0  0  0  0  0  0  0  0  0  0  0  0  # atno 6908 bound_to 6896
  151.6383  135.1017  160.0187 H   0  0  0  0  0  0  0  0  0  0  0  0  # atno 6909 bound_to 6896
  145.5217  140.9530  143.1651 H   0  0  0  0  0  0  0  0  0  0  0  0  # atno 7974 bound_to 7965
  154.4412  140.1892  156.0818 H   0  0  0  0  0  0  0  0  0  0  0  0  # atno 8008 bound_to 7997
  156.0433  140.3317  155.7242 H   0  0  0  0  0  0  0  0  0  0  0  0  # atno 8009 bound_to 7997
  155.5667  140.0609  157.2807 H   0  0  0  0  0  0  0  0  0  0  0  0  # atno 8010 bound_to 7997
  140.4976  143.2367  151.7804 H   0  0  0  0  0  0  0  0  0  0  0  0  # atno 10167 bound_to 10162
  157.6661  130.9759  150.1451 H   0  0  0  0  0  0  0  0  0  0  0  0  # atno 10718 bound_to 10713
  154.7301  135.3044  154.8906 H   0  0  0  0  0  0  0  0  0  0  0  0  # atno 10763 bound_to 10752
  153.9752  135.6737  153.4752 H   0  0  0  0  0  0  0  0  0  0  0  0  # atno 10764 bound_to 10752
  153.0910  135.4959  154.8610 H   0  0  0  0  0  0  0  0  0  0  0  0  # atno 10765 bound_to 10752
  140.8875  133.7611  156.0379 H   0  0  0  0  0  0  0  0  0  0  0  0  # atno 11005 bound_to 11000
  144.7672  139.6817  143.7210 LP  0  0  0  0  0  0  0  0  0  0  0  0  # atno 17320 bound_to 7965
  146.2102  139.5453  142.9686 LP  0  0  0  0  0  0  0  0  0  0  0  0  # atno 17321 bound_to 7965
  139.4865  144.4565  151.9592 LP  0  0  0  0  0  0  0  0  0  0  0  0  # atno 17342 bound_to 10162
  140.3653  144.2922  150.5927 LP  0  0  0  0  0  0  0  0  0  0  0  0  # atno 17343 bound_to 10162
  156.2264  130.3678  149.8495 LP  0  0  0  0  0  0  0  0  0  0  0  0  # atno 17370 bound_to 10713
  156.6334  130.8675  151.3500 LP  0  0  0  0  0  0  0  0  0  0  0  0  # atno 17371 bound_to 10713
  140.8387  134.3092  157.5321 LP  0  0  0  0  0  0  0  0  0  0  0  0  # atno 17394 bound_to 11000
  139.8726  134.9404  156.3768 LP  0  0  0  0  0  0  0  0  0  0  0  0  # atno 17395 bound_to 11000

$$$$
