AV-unprocessed.smi:3336|AV-procd|sdf|12856|dock8
  -GOLD-   2272019253D 1   1.00000     0.00000
 Structure written by MMmdl.
 42 43  0  0  0  0  0  0  0  0  2 V2000
  150.9450  138.3323  154.4422 C   0  0  0  0  0  0  0  0  0  0  0  0
  149.5979  139.0785  154.5093 C   0  0  1  0  0  0  0  0  0  0  0  0
  149.7718  140.5916  154.7535 C   0  0  0  0  0  0  0  0  0  0  0  0
  150.4164  140.8927  156.0193 N   0  0  0  0  0  0  0  0  0  0  0  0
  150.0502  141.8271  156.9652 C   0  0  0  0  0  0  0  0  0  0  0  0
  150.9551  141.7491  157.9846 C   0  0  0  0  0  0  0  0  0  0  0  0
  151.8510  140.7267  157.5644 C   0  0  0  0  0  0  0  0  0  0  0  0
  151.5266  140.2171  156.3868 N   0  0  0  0  0  0  0  0  0  0  0  0
  148.8220  138.8806  153.2626 N   0  3  0  0  0  0  0  0  0  0  0  0
  147.3637  139.1529  153.3264 C   0  0  1  0  0  0  0  0  0  0  0  0
  147.0901  140.6660  153.2087 C   0  0  0  0  0  0  0  0  0  0  0  0
  146.6276  138.3916  152.2038 C   0  0  0  0  0  0  0  0  0  0  0  0
  146.8225  138.7467  151.0396 O   0  0  0  0  0  0  0  0  0  0  0  0
  145.7876  137.3687  152.5054 N   0  0  0  0  0  0  0  0  0  0  0  0
  145.5324  136.9321  153.8831 C   0  0  0  0  0  0  0  0  0  0  0  0
  146.0304  135.4851  154.0406 C   0  0  0  0  0  0  0  0  0  0  0  0
  145.3579  134.6495  153.1032 O   0  0  0  0  0  0  0  0  0  0  0  0
  145.5629  135.0533  151.7525 C   0  0  0  0  0  0  0  0  0  0  0  0
  145.0755  136.5016  151.5584 C   0  0  0  0  0  0  0  0  0  0  0  0
  151.5043  138.4343  155.3723 H   0  0  0  0  0  0  0  0  0  0  0  0
  151.5701  138.7191  153.6369 H   0  0  0  0  0  0  0  0  0  0  0  0
  150.8129  137.2642  154.2742 H   0  0  0  0  0  0  0  0  0  0  0  0
  149.0266  138.6783  155.3466 H   0  0  0  0  0  0  0  0  0  0  0  0
  150.3516  141.0426  153.9460 H   0  0  0  0  0  0  0  0  0  0  0  0
  148.7996  141.0863  154.7484 H   0  0  0  0  0  0  0  0  0  0  0  0
  149.1860  142.4623  156.8365 H   0  0  0  0  0  0  0  0  0  0  0  0
  150.9756  142.3343  158.8922 H   0  0  0  0  0  0  0  0  0  0  0  0
  152.7212  140.3425  158.0760 H   0  0  0  0  0  0  0  0  0  0  0  0
  149.2063  139.4797  152.5461 H   0  0  0  0  0  0  0  0  0  0  0  0
  147.0111  138.7799  154.2856 H   0  0  0  0  0  0  0  0  0  0  0  0
  146.0228  140.8863  153.2061 H   0  0  0  0  0  0  0  0  0  0  0  0
  147.5084  141.0737  152.2874 H   0  0  0  0  0  0  0  0  0  0  0  0
  147.5214  141.2221  154.0402 H   0  0  0  0  0  0  0  0  0  0  0  0
  146.0099  137.5659  154.6313 H   0  0  0  0  0  0  0  0  0  0  0  0
  144.4618  136.9840  154.0862 H   0  0  0  0  0  0  0  0  0  0  0  0
  147.1095  135.4254  153.8901 H   0  0  0  0  0  0  0  0  0  0  0  0
  145.8265  135.1218  155.0478 H   0  0  0  0  0  0  0  0  0  0  0  0
  146.6186  134.9592  151.4938 H   0  0  0  0  0  0  0  0  0  0  0  0
  145.0124  134.3786  151.0966 H   0  0  0  0  0  0  0  0  0  0  0  0
  144.0039  136.5639  151.7543 H   0  0  0  0  0  0  0  0  0  0  0  0
  145.2035  136.7772  150.5145 H   0  0  0  0  0  0  0  0  0  0  0  0
  148.9532  137.9227  152.9692 H   0  0  0  0  0  0  0  0  0  0  0  0
  1  2  1  0  0  0  0
  1 20  1  0  0  0  0
  1 21  1  0  0  0  0
  1 22  1  0  0  0  0
  2  3  1  0  0  0  0
  2  9  1  0  0  0  0
  2 23  1  0  0  0  0
  3  4  1  0  0  0  0
  3 24  1  0  0  0  0
  3 25  1  0  0  0  0
  4  8  1  0  0  0  0
  4  5  1  0  0  0  0
  5  6  2  0  0  0  0
  5 26  1  0  0  0  0
  6  7  1  0  0  0  0
  6 27  1  0  0  0  0
  7  8  2  0  0  0  0
  7 28  1  0  0  0  0
  9 10  1  0  0  0  0
  9 29  1  0  0  0  0
  9 42  1  0  0  0  0
 10 11  1  0  0  0  0
 10 12  1  0  0  0  0
 10 30  1  0  0  0  0
 11 31  1  0  0  0  0
 11 32  1  0  0  0  0
 11 33  1  0  0  0  0
 12 13  2  0  0  0  0
 12 14  1  0  0  0  0
 14 19  1  0  0  0  0
 14 15  1  0  0  0  0
 15 16  1  0  0  0  0
 15 34  1  0  0  0  0
 15 35  1  0  0  0  0
 16 17  1  0  0  0  0
 16 36  1  0  0  0  0
 16 37  1  0  0  0  0
 17 18  1  0  0  0  0
 18 19  1  0  0  0  0
 18 38  1  0  0  0  0
 18 39  1  0  0  0  0
 19 40  1  0  0  0  0
 19 41  1  0  0  0  0
M  CHG  1   9   1
M  END
> <s_m_source_file>
AV-unprocessed.smi

> <i_m_source_file_index>
3336

> <i_lp_mmshare_version>
43012

> <i_f3d_flags>
0

> <s_epik_input>
bjFbY0hdW2NIXVtjSF1uMVtDSDJdW0NAQEhdKFtDSDNdKVtOSF1bQ0BIXShbQ0gzXSlDKD1PKU4yW0NIMl1bQ0gyXU9bQ0gyXVtDSDJdMg==

> <s_epik_cmdline>
J2VwaWtfcHl0aG9uJywgJy1waCcsICc3LjAnLCAnLXRuJywgJzgnLCAnLW1hJywgJzIwMCcsICctbWV0YWxfYmluZGluZycsICctaW1hZScsICc8aW5maWxlLm1hZT4nLCAnLW9tYWUnLCAnPG91dGZpbGUubWFlPic=

> <r_lp_tautomer_probability>
1

> <r_epik_Ionization_Penalty>
0.200288

> <r_epik_Ionization_Penalty_Charging>
0.200285

> <r_epik_Ionization_Penalty_Neutral>
3.37705e-06

> <r_epik_State_Penalty>
0.190126

> <r_epik_Charging_Adjusted_Penalty>
0.39041

> <i_epik_Tot_Q>
1

> <i_epik_Tot_abs_Q>
1

> <r_epik_Metal_State_Penalty>
0.190133

> <b_epik_Metal_Only>
0

> <s_lp_Force_Field>
OPLS_2005

> <r_lp_Energy>
28.672

> <b_lp_Chiralities_Consistent>
1

> <s_lp_Variant>
AV-unprocessed.smi:3336-4

> <Gold.Version>
5.8.1

> <Gold.Id.Protein>
6NUR|6NUR_protein|mol2

> <Gold.PLP.Fitness>
47.5191

> <Gold.PLP.PLP>
-33.7699

> <Gold.PLP.part.hbond>
-2.9577

> <Gold.PLP.part.metal>
0.0000

> <Gold.PLP.part.buried>
-2.6954

> <Gold.PLP.part.nonpolar>
-28.9621

> <Gold.PLP.part.repulsive>
0.9685

> <Gold.PLP.ligand.clash>
0.0000

> <Gold.PLP.ligand.torsion>
0.6332

> <Gold.PLP.Chemscore.Hbond>
3.9760

> <Gold.PLP.Chemscore.CHOScore>
1.0000

> <Gold.PLP.Chemscore.Metal>
0.0000

> <Gold.Chemscore.Hbonds>
donor molecule, donor type, donor heavy atom, donor atom, acceptor molecule, acceptor atom, score
      L1  H     9    29       P1  7957  1.00
      L1  H     9    42       P1  7948  2.00
      P1  H  7954  7966       L1    13  0.93
      L1  C     5    26       P1  8028  0.92

> <Gold.PLP.Chemscore.Internal.Correction>
0.0876

> <Gold.Rescore>
     Score         DG    S(hbond)    S(metal)    S(lipo)     H(rot)  DE(clash)    DE(int)     intcor
     16.00     -18.33       2.94        0.00      66.64       1.85       0.45       1.88       ----

> <Gold.Chemscore.Fitness>
16.0037

> <Gold.Chemscore.DG>
-18.3343

> <Gold.Chemscore.ZeroCoef>
-5.4800

> <Gold.Chemscore.Hbond>
2.9353

> <Gold.Chemscore.Metal>
0.0000

> <Gold.Chemscore.Lipo>
66.6419

> <Gold.Chemscore.Internal_Hbond>
0.0000

> <Gold.Chemscore.DEClash>
0.4485

> <Gold.Chemscore.DEInternal>
1.8821

> <Gold.Chemscore.Rot>
1.8541

> <Gold.Chemscore.Internal.Correction>
   9.000000E+99

> <Gold.Chemscore.Hbonds>
donor molecule, donor type, donor heavy atom, donor atom, acceptor molecule, acceptor atom, score
      L1  H     9    29       P1  7957  0.94
      L1  H     9    42       P1  7948  0.96
      P1  H  7954  7966       L1    13  0.89

> <Gold.Chemscore.Hbond.Weighted>
-9.8038

> <Gold.Chemscore.Metal.Weighted>
-0.0000

> <Gold.Chemscore.Lipo.Weighted>
-7.7971

> <Gold.Chemscore.Internal_Hbond.Weighted>
0.0000

> <Gold.Chemscore.DEClash.Weighted>
0.4485

> <Gold.Chemscore.DEInternal.Weighted>
1.8821

> <Gold.Chemscore.Rot.Weighted>
4.7465

> <Gold.Chemscore.Internal.Correction.Weighted>
   9.000000E+99

> <Gold.Protein.RotatedTorsions>
[ 6907 6896 6895 6894 ] final -136.59 input  -60.11 | X-H torsion
[ 7974 7965 7964 7962 ] final  -21.60 input  175.53 | X-H torsion
[ 8008 7997 7996 7995 ] final   99.22 input   59.86 | X-H torsion
[ 10167 10162 10161 10158 ] final  -65.25 input  -65.29 | X-H torsion
[ 10718 10713 10712 10709 ] final  -16.11 input   66.30 | X-H torsion
[ 10763 10752 10751 10750 ] final   16.12 input  -60.55 | X-H torsion
[ 11005 11000 10999 10996 ] final   77.46 input  -57.11 | X-H torsion

> <Gold.Protein.ActiveResidues>
 VAL166  LYS551  ARG553  GLY616  TRP617  ASP618  TYR619  PRO620  LYS621  CYS622 
 ASP623  PHE694  ASN695  SER759  ASP760  ASP761  ALA762  ILE779  LEU786  VAL792 
 PHE793  MET794  SER795  GLU796  ALA797  LYS798  CYS799  TRP800  GLU811  SER814 

> <Gold.Protein.RotatedAtoms>
  151.0119  133.5957  159.2681 H   0  0  0  0  0  0  0  0  0  0  0  0  # atno 6907 bound_to 6896
  151.3105  135.0792  159.9280 H   0  0  0  0  0  0  0  0  0  0  0  0  # atno 6908 bound_to 6896
  152.5302  133.9785  159.7849 H   0  0  0  0  0  0  0  0  0  0  0  0  # atno 6909 bound_to 6896
  146.1724  140.4363  142.8527 H   0  0  0  0  0  0  0  0  0  0  0  0  # atno 7974 bound_to 7965
  156.1083  140.3232  155.8037 H   0  0  0  0  0  0  0  0  0  0  0  0  # atno 8008 bound_to 7997
  155.4717  140.0547  157.2996 H   0  0  0  0  0  0  0  0  0  0  0  0  # atno 8009 bound_to 7997
  154.4742  140.2025  155.9933 H   0  0  0  0  0  0  0  0  0  0  0  0  # atno 8010 bound_to 7997
  140.5743  143.2320  151.6475 H   0  0  0  0  0  0  0  0  0  0  0  0  # atno 10167 bound_to 10162
  156.5922  130.4802  149.6274 H   0  0  0  0  0  0  0  0  0  0  0  0  # atno 10718 bound_to 10713
  153.1461  135.6769  153.8953 H   0  0  0  0  0  0  0  0  0  0  0  0  # atno 10763 bound_to 10752
  153.8394  135.3107  155.3426 H   0  0  0  0  0  0  0  0  0  0  0  0  # atno 10764 bound_to 10752
  154.7826  135.4880  153.9961 H   0  0  0  0  0  0  0  0  0  0  0  0  # atno 10765 bound_to 10752
  139.9254  134.7684  156.1524 H   0  0  0  0  0  0  0  0  0  0  0  0  # atno 11005 bound_to 11000
  144.8183  140.6506  143.6370 LP  0  0  0  0  0  0  0  0  0  0  0  0  # atno 17320 bound_to 7965
  145.4305  139.1550  143.4025 LP  0  0  0  0  0  0  0  0  0  0  0  0  # atno 17321 bound_to 7965
  139.5134  144.3444  152.0710 LP  0  0  0  0  0  0  0  0  0  0  0  0  # atno 17342 bound_to 10162
  140.2586  144.4092  150.6194 LP  0  0  0  0  0  0  0  0  0  0  0  0  # atno 17343 bound_to 10162
  156.2540  130.6923  151.1671 LP  0  0  0  0  0  0  0  0  0  0  0  0  # atno 17370 bound_to 10713
  157.7301  131.0619  150.5744 LP  0  0  0  0  0  0  0  0  0  0  0  0  # atno 17371 bound_to 10713
  141.0807  133.6755  156.2330 LP  0  0  0  0  0  0  0  0  0  0  0  0  # atno 17394 bound_to 11000
  140.6353  134.5222  157.5564 LP  0  0  0  0  0  0  0  0  0  0  0  0  # atno 17395 bound_to 11000

$$$$
