AV-unprocessed.smi:2540|AV-procd|sdf|9987|dock7
  -GOLD-   2272014 33D 1   1.00000     0.00000
 Structure written by MMmdl.
 28 29  0  0  0  0  0  0  0  0  2 V2000
  150.7079  138.2135  154.4251 C   0  0  0  0  0  0  0  0  0  0  0  0
  151.1982  139.5254  154.6377 O   0  0  0  0  0  0  0  0  0  0  0  0
  152.1208  139.5950  155.7128 C   0  0  0  0  0  0  0  0  0  0  0  0
  151.3693  139.7990  157.0361 C   0  0  0  0  0  0  0  0  0  0  0  0
  151.1983  141.2211  157.3688 N   0  0  0  0  0  0  0  0  0  0  0  0
  150.5022  142.2042  156.7424 C   0  0  0  0  0  0  0  0  0  0  0  0
  149.7559  142.0491  155.5758 N   0  0  0  0  0  0  0  0  0  0  0  0
  150.6427  143.3693  157.4236 N   0  3  0  0  0  0  0  0  0  0  0  0
  151.4641  143.1314  158.5299 C   0  0  0  0  0  0  0  0  0  0  0  0
  151.9108  143.9905  159.5293 C   0  0  0  0  0  0  0  0  0  0  0  0
  152.7479  143.4325  160.5177 C   0  0  0  0  0  0  0  0  0  0  0  0
  153.1114  142.0706  160.4904 C   0  0  0  0  0  0  0  0  0  0  0  0
  152.6521  141.2057  159.4755 C   0  0  0  0  0  0  0  0  0  0  0  0
  151.8241  141.7615  158.5005 C   0  0  0  0  0  0  0  0  0  0  0  0
  150.0053  138.2155  153.5918 H   0  0  0  0  0  0  0  0  0  0  0  0
  150.1837  137.8410  155.3061 H   0  0  0  0  0  0  0  0  0  0  0  0
  151.5176  137.5244  154.1817 H   0  0  0  0  0  0  0  0  0  0  0  0
  152.7092  138.6772  155.7584 H   0  0  0  0  0  0  0  0  0  0  0  0
  152.8164  140.4202  155.5538 H   0  0  0  0  0  0  0  0  0  0  0  0
  150.3766  139.3526  156.9734 H   0  0  0  0  0  0  0  0  0  0  0  0
  151.8797  139.2977  157.8583 H   0  0  0  0  0  0  0  0  0  0  0  0
  149.2598  142.8215  155.1548 H   0  0  0  0  0  0  0  0  0  0  0  0
  149.6871  141.1552  155.1106 H   0  0  0  0  0  0  0  0  0  0  0  0
  151.6366  145.0349  159.5528 H   0  0  0  0  0  0  0  0  0  0  0  0
  153.1208  144.0627  161.3121 H   0  0  0  0  0  0  0  0  0  0  0  0
  153.7577  141.6805  161.2634 H   0  0  0  0  0  0  0  0  0  0  0  0
  152.9427  140.1657  159.4617 H   0  0  0  0  0  0  0  0  0  0  0  0
  150.2186  144.2479  157.1555 H   0  0  0  0  0  0  0  0  0  0  0  0
  1  2  1  0  0  0  0
  1 15  1  0  0  0  0
  1 16  1  0  0  0  0
  1 17  1  0  0  0  0
  2  3  1  0  0  0  0
  3  4  1  0  0  0  0
  3 18  1  0  0  0  0
  3 19  1  0  0  0  0
  4  5  1  0  0  0  0
  4 20  1  0  0  0  0
  4 21  1  0  0  0  0
  5 14  1  0  0  0  0
  5  6  1  0  0  0  0
  6  7  1  0  0  0  0
  6  8  2  0  0  0  0
  7 22  1  0  0  0  0
  7 23  1  0  0  0  0
  8  9  1  0  0  0  0
  8 28  1  0  0  0  0
  9 14  2  0  0  0  0
  9 10  1  0  0  0  0
 10 11  2  0  0  0  0
 10 24  1  0  0  0  0
 11 12  1  0  0  0  0
 11 25  1  0  0  0  0
 12 13  2  0  0  0  0
 12 26  1  0  0  0  0
 13 14  1  0  0  0  0
 13 27  1  0  0  0  0
M  CHG  1   8   1
M  END
> <s_m_source_file>
AV-unprocessed.smi

> <i_m_source_file_index>
2540

> <i_lp_mmshare_version>
43012

> <i_f3d_flags>
0

> <s_epik_input>
W0NIM11PW0NIMl1bQ0gyXW4oYyhuMSlbTkgyXSljKGMxMilbY0hdW2NIXVtjSF1bY0hdMg==

> <s_epik_cmdline>
J2VwaWtfcHl0aG9uJywgJy1waCcsICc3LjAnLCAnLXRuJywgJzgnLCAnLW1hJywgJzIwMCcsICctbWV0YWxfYmluZGluZycsICctaW1hZScsICc8aW5maWxlLm1hZT4nLCAnLW9tYWUnLCAnPG91dGZpbGUubWFlPic=

> <r_epik_Ionization_Penalty>
0.266071

> <r_epik_Ionization_Penalty_Charging>
0.266069

> <r_epik_Ionization_Penalty_Neutral>
1.55827e-06

> <r_epik_State_Penalty>
0.258006

> <r_epik_Charging_Adjusted_Penalty>
0.524075

> <i_epik_Tot_Q>
1

> <i_epik_Tot_abs_Q>
1

> <r_epik_Metal_State_Penalty>
3.73495

> <b_epik_Metal_Only>
0

> <s_lp_Force_Field>
OPLS_2005

> <r_lp_Energy>
14.4512

> <b_lp_Chiralities_Consistent>
1

> <s_lp_Variant>
AV-unprocessed.smi:2540-1

> <Gold.Version>
5.8.1

> <Gold.Id.Protein>
6NUR|6NUR_protein|mol2

> <Gold.PLP.Fitness>
44.8350

> <Gold.PLP.PLP>
-34.1694

> <Gold.PLP.part.hbond>
-3.0000

> <Gold.PLP.part.metal>
0.0000

> <Gold.PLP.part.buried>
-4.4048

> <Gold.PLP.part.nonpolar>
-27.5444

> <Gold.PLP.part.repulsive>
0.2555

> <Gold.PLP.ligand.clash>
0.0000

> <Gold.PLP.ligand.torsion>
0.3749

> <Gold.PLP.Chemscore.Hbond>
3.8042

> <Gold.PLP.Chemscore.CHOScore>
0.0000

> <Gold.PLP.Chemscore.Metal>
0.0000

> <Gold.Chemscore.Hbonds>
donor molecule, donor type, donor heavy atom, donor atom, acceptor molecule, acceptor atom, score
      L1  H     7    22       P1  8028  1.47
      L1  H     8    28       P1  8028  1.30
      P1  H  7989  7998       L1     2  1.00

> <Gold.PLP.Chemscore.Internal.Correction>
0.0026

> <Gold.Rescore>
     Score         DG    S(hbond)    S(metal)    S(lipo)     H(rot)  DE(clash)    DE(int)     intcor
     18.02     -18.36       2.12        0.00      82.32       1.49       0.00       0.33       ----

> <Gold.Chemscore.Fitness>
18.0209

> <Gold.Chemscore.DG>
-18.3605

> <Gold.Chemscore.ZeroCoef>
-5.4800

> <Gold.Chemscore.Hbond>
2.1177

> <Gold.Chemscore.Metal>
0.0000

> <Gold.Chemscore.Lipo>
82.3242

> <Gold.Chemscore.Internal_Hbond>
0.0000

> <Gold.Chemscore.DEClash>
0.0048

> <Gold.Chemscore.DEInternal>
0.3348

> <Gold.Chemscore.Rot>
1.4940

> <Gold.Chemscore.Internal.Correction>
   9.000000E+99

> <Gold.Chemscore.Hbonds>
donor molecule, donor type, donor heavy atom, donor atom, acceptor molecule, acceptor atom, score
      L1  H     7    22       P1  8028  0.70
      L1  H     8    28       P1  8028  0.51
      P1  H  7989  7998       L1     2  0.55

> <Gold.Chemscore.Hbond.Weighted>
-7.0733

> <Gold.Chemscore.Metal.Weighted>
-0.0000

> <Gold.Chemscore.Lipo.Weighted>
-9.6319

> <Gold.Chemscore.Internal_Hbond.Weighted>
0.0000

> <Gold.Chemscore.DEClash.Weighted>
0.0048

> <Gold.Chemscore.DEInternal.Weighted>
0.3348

> <Gold.Chemscore.Rot.Weighted>
3.8247

> <Gold.Chemscore.Internal.Correction.Weighted>
   9.000000E+99

> <Gold.Protein.RotatedTorsions>
[ 6907 6896 6895 6894 ] final -157.67 input  -60.11 | X-H torsion
[ 7974 7965 7964 7962 ] final -123.73 input  175.53 | X-H torsion
[ 8008 7997 7996 7995 ] final  -24.77 input   59.86 | X-H torsion
[ 10167 10162 10161 10158 ] final   58.39 input  -65.29 | X-H torsion
[ 10718 10713 10712 10709 ] final  -20.02 input   66.30 | X-H torsion
[ 10763 10752 10751 10750 ] final  -51.57 input  -60.55 | X-H torsion
[ 11005 11000 10999 10996 ] final  116.88 input  -57.11 | X-H torsion

> <Gold.Protein.ActiveResidues>
 VAL166  LYS551  ARG553  GLY616  TRP617  ASP618  TYR619  PRO620  LYS621  CYS622 
 ASP623  PHE694  ASN695  SER759  ASP760  ASP761  ALA762  ILE779  LEU786  VAL792 
 PHE793  MET794  SER795  GLU796  ALA797  LYS798  CYS799  TRP800  GLU811  SER814 

> <Gold.Protein.RotatedAtoms>
  151.3064  133.4099  159.2643 H   0  0  0  0  0  0  0  0  0  0  0  0  # atno 6907 bound_to 6896
  151.0151  134.9427  159.8039 H   0  0  0  0  0  0  0  0  0  0  0  0  # atno 6908 bound_to 6896
  152.5310  134.3028  159.9137 H   0  0  0  0  0  0  0  0  0  0  0  0  # atno 6909 bound_to 6896
  145.0156  140.7944  143.4412 H   0  0  0  0  0  0  0  0  0  0  0  0  # atno 7974 bound_to 7965
  154.4511  140.1944  156.0516 H   0  0  0  0  0  0  0  0  0  0  0  0  # atno 8008 bound_to 7997
  156.0650  140.3292  155.7479 H   0  0  0  0  0  0  0  0  0  0  0  0  # atno 8009 bound_to 7997
  155.5353  140.0581  157.2871 H   0  0  0  0  0  0  0  0  0  0  0  0  # atno 8010 bound_to 7997
  140.1877  144.4117  150.6585 H   0  0  0  0  0  0  0  0  0  0  0  0  # atno 10167 bound_to 10162
  156.5376  130.4670  149.6515 H   0  0  0  0  0  0  0  0  0  0  0  0  # atno 10718 bound_to 10713
  154.1287  135.6523  153.4917 H   0  0  0  0  0  0  0  0  0  0  0  0  # atno 10763 bound_to 10752
  153.0202  135.5287  154.7023 H   0  0  0  0  0  0  0  0  0  0  0  0  # atno 10764 bound_to 10752
  154.6251  135.2969  155.0251 H   0  0  0  0  0  0  0  0  0  0  0  0  # atno 10765 bound_to 10752
  139.9056  134.9603  156.7266 H   0  0  0  0  0  0  0  0  0  0  0  0  # atno 11005 bound_to 11000
  145.1964  139.2274  143.5215 LP  0  0  0  0  0  0  0  0  0  0  0  0  # atno 17320 bound_to 7965
  146.3477  140.1772  142.8589 LP  0  0  0  0  0  0  0  0  0  0  0  0  # atno 17321 bound_to 7965
  140.6477  143.2217  151.6149 LP  0  0  0  0  0  0  0  0  0  0  0  0  # atno 17342 bound_to 10162
  139.5269  144.3032  152.1055 LP  0  0  0  0  0  0  0  0  0  0  0  0  # atno 17343 bound_to 10162
  156.3001  130.7172  151.2042 LP  0  0  0  0  0  0  0  0  0  0  0  0  # atno 17370 bound_to 10713
  157.7411  131.0508  150.5121 LP  0  0  0  0  0  0  0  0  0  0  0  0  # atno 17371 bound_to 10713
  140.6958  133.9349  155.7994 LP  0  0  0  0  0  0  0  0  0  0  0  0  # atno 17394 bound_to 11000
  141.0408  134.0624  157.3904 LP  0  0  0  0  0  0  0  0  0  0  0  0  # atno 17395 bound_to 11000

$$$$
