AV-unprocessed.smi:670|AV-procd|sdf|3267|dock7
  -GOLD-   22720 0223D 1   1.00000     0.00000
 Structure written by MMmdl.
 44 45  0  0  0  0  0  0  0  0  2 V2000
  153.6520  141.8509  159.8998 C   0  0  0  0  0  0  0  0  0  0  0  0
  152.9865  143.2320  159.8021 C   0  0  2  0  0  0  0  0  0  0  0  0
  152.2741  143.6128  161.1154 C   0  0  0  0  0  0  0  0  0  0  0  0
  151.6525  145.0160  161.0345 C   0  0  0  0  0  0  0  0  0  0  0  0
  150.6970  145.1359  159.8378 C   0  0  0  0  0  0  0  0  0  0  0  0
  151.3966  144.7530  158.5226 C   0  0  0  0  0  0  0  0  0  0  0  0
  152.0274  143.3499  158.5938 C   0  0  2  0  0  0  0  0  0  0  0  0
  150.9700  142.4054  158.7171 O   0  0  0  0  0  0  0  0  0  0  0  0
  150.0240  142.4400  157.6594 C   0  0  0  0  0  0  0  0  0  0  0  0
  150.7728  142.3960  156.3199 C   0  0  0  0  0  0  0  0  0  0  0  0
  151.4515  141.1202  156.1247 N   0  0  0  0  0  0  0  0  0  0  0  0
  152.1072  140.7514  155.0139 C   0  0  0  0  0  0  0  0  0  0  0  0
  152.2077  141.4656  154.0159 O   0  0  0  0  0  0  0  0  0  0  0  0
  152.7664  139.3682  155.0436 C   0  0  0  0  0  0  0  0  0  0  0  0
  153.6452  139.2006  156.2083 N   0  0  0  0  0  0  0  0  0  0  0  0
  154.6710  140.2344  156.3218 N   0  5  0  0  0  0  0  0  0  0  0  0
  155.5301  140.2032  157.3749 C   0  0  0  0  0  0  0  0  0  0  0  0
  156.4087  141.0456  157.5434 O   0  0  0  0  0  0  0  0  0  0  0  0
  155.3956  139.1208  158.3354 C   0  0  0  0  0  0  0  0  0  0  0  0
  154.4492  138.1714  158.1976 C   0  0  0  0  0  0  0  0  0  0  0  0
  153.5028  138.1684  157.0883 C   0  0  0  0  0  0  0  0  0  0  0  0
  152.6390  137.3017  156.9562 O   0  0  0  0  0  0  0  0  0  0  0  0
  152.9206  141.0705  160.1100 H   0  0  0  0  0  0  0  0  0  0  0  0
  154.3930  141.8299  160.6992 H   0  0  0  0  0  0  0  0  0  0  0  0
  154.1614  141.5916  158.9714 H   0  0  0  0  0  0  0  0  0  0  0  0
  153.7886  143.9551  159.6466 H   0  0  0  0  0  0  0  0  0  0  0  0
  151.4967  142.8813  161.3403 H   0  0  0  0  0  0  0  0  0  0  0  0
  152.9795  143.5755  161.9462 H   0  0  0  0  0  0  0  0  0  0  0  0
  151.1188  145.2388  161.9589 H   0  0  0  0  0  0  0  0  0  0  0  0
  152.4435  145.7616  160.9471 H   0  0  0  0  0  0  0  0  0  0  0  0
  149.8330  144.4890  159.9952 H   0  0  0  0  0  0  0  0  0  0  0  0
  150.3111  146.1532  159.7708 H   0  0  0  0  0  0  0  0  0  0  0  0
  150.6867  144.8006  157.6962 H   0  0  0  0  0  0  0  0  0  0  0  0
  152.1727  145.4870  158.3015 H   0  0  0  0  0  0  0  0  0  0  0  0
  152.5885  143.1869  157.6712 H   0  0  0  0  0  0  0  0  0  0  0  0
  149.3581  141.5800  157.7416 H   0  0  0  0  0  0  0  0  0  0  0  0
  149.4045  143.3355  157.7195 H   0  0  0  0  0  0  0  0  0  0  0  0
  150.0735  142.5452  155.4970 H   0  0  0  0  0  0  0  0  0  0  0  0
  151.4956  143.2116  156.2657 H   0  0  0  0  0  0  0  0  0  0  0  0
  151.4175  140.4609  156.8891 H   0  0  0  0  0  0  0  0  0  0  0  0
  151.9909  138.6003  155.0414 H   0  0  0  0  0  0  0  0  0  0  0  0
  153.3227  139.2172  154.1162 H   0  0  0  0  0  0  0  0  0  0  0  0
  156.0707  139.0762  159.1774 H   0  0  0  0  0  0  0  0  0  0  0  0
  154.3865  137.3853  158.9352 H   0  0  0  0  0  0  0  0  0  0  0  0
  1  2  1  0  0  0  0
  1 23  1  0  0  0  0
  1 24  1  0  0  0  0
  1 25  1  0  0  0  0
  2  7  1  0  0  0  0
  2  3  1  0  0  0  0
  2 26  1  0  0  0  0
  3  4  1  0  0  0  0
  3 27  1  0  0  0  0
  3 28  1  0  0  0  0
  4  5  1  0  0  0  0
  4 29  1  0  0  0  0
  4 30  1  0  0  0  0
  5  6  1  0  0  0  0
  5 31  1  0  0  0  0
  5 32  1  0  0  0  0
  6  7  1  0  0  0  0
  6 33  1  0  0  0  0
  6 34  1  0  0  0  0
  7  8  1  0  0  0  0
  7 35  1  0  0  0  0
  8  9  1  0  0  0  0
  9 10  1  0  0  0  0
  9 36  1  0  0  0  0
  9 37  1  0  0  0  0
 10 11  1  0  0  0  0
 10 38  1  0  0  0  0
 10 39  1  0  0  0  0
 11 12  1  0  0  0  0
 11 40  1  0  0  0  0
 12 13  2  0  0  0  0
 12 14  1  0  0  0  0
 14 41  1  0  0  0  0
 14 42  1  0  0  0  0
 14 15  1  0  0  0  0
 15 16  1  0  0  0  0
 15 21  1  0  0  0  0
 16 17  1  0  0  0  0
 17 18  2  0  0  0  0
 17 19  1  0  0  0  0
 19 43  1  0  0  0  0
 19 20  2  0  0  0  0
 20 44  1  0  0  0  0
 20 21  1  0  0  0  0
 21 22  2  0  0  0  0
M  CHG  1  16  -1
M  END
> <s_m_source_file>
AV-unprocessed.smi

> <i_m_source_file_index>
670

> <i_lp_mmshare_version>
43012

> <i_f3d_flags>
0

> <s_epik_input>
W0NIM11bQ0BASF0xW0NIMl1bQ0gyXVtDSDJdW0NIMl1bQ0BIXTFPW0NIMl1bQ0gyXVtOSF1DKD1PKVtDSDJdbjJbbkhdYyg9TylbY0hdW2NIXWMyPU8=

> <s_epik_cmdline>
J2VwaWtfcHl0aG9uJywgJy1waCcsICc3LjAnLCAnLXRuJywgJzgnLCAnLW1hJywgJzIwMCcsICctbWV0YWxfYmluZGluZycsICctaW1hZScsICc8aW5maWxlLm1hZT4nLCAnLW9tYWUnLCAnPG91dGZpbGUubWFlPic=

> <r_lp_tautomer_probability>
1

> <r_epik_Ionization_Penalty>
0.0975638

> <r_epik_Ionization_Penalty_Charging>
0.0975637

> <r_epik_Ionization_Penalty_Neutral>
2.78599e-08

> <r_epik_State_Penalty>
0.0343507

> <r_epik_Charging_Adjusted_Penalty>
0.131914

> <i_epik_Tot_Q>
-1

> <i_epik_Tot_abs_Q>
1

> <r_epik_Metal_State_Penalty>
0.0343507

> <b_epik_Metal_Only>
0

> <s_lp_Force_Field>
OPLS_2005

> <r_lp_Energy>
29.4365

> <b_lp_Chiralities_Consistent>
1

> <s_lp_Variant>
AV-unprocessed.smi:670-3

> <Gold.Version>
5.8.1

> <Gold.Id.Protein>
6NUR|6NUR_protein|mol2

> <Gold.PLP.Fitness>
57.1922

> <Gold.PLP.PLP>
-46.0759

> <Gold.PLP.part.hbond>
-4.0000

> <Gold.PLP.part.metal>
0.0000

> <Gold.PLP.part.buried>
-6.0444

> <Gold.PLP.part.nonpolar>
-37.0416

> <Gold.PLP.part.repulsive>
0.1533

> <Gold.PLP.ligand.clash>
0.0000

> <Gold.PLP.ligand.torsion>
0.1144

> <Gold.PLP.Chemscore.Hbond>
3.7680

> <Gold.PLP.Chemscore.CHOScore>
0.0000

> <Gold.PLP.Chemscore.Metal>
0.0000

> <Gold.PLP.Chemscore.Internal.Correction>
0.0411

> <Gold.Rescore>
     Score         DG    S(hbond)    S(metal)    S(lipo)     H(rot)  DE(clash)    DE(int)     intcor
     19.78     -20.09       2.35        0.00     111.24       2.45       0.08       0.23       ----

> <Gold.Chemscore.Fitness>
19.7818

> <Gold.Chemscore.DG>
-20.0885

> <Gold.Chemscore.ZeroCoef>
-5.4800

> <Gold.Chemscore.Hbond>
2.3540

> <Gold.Chemscore.Metal>
0.0000

> <Gold.Chemscore.Lipo>
111.2430

> <Gold.Chemscore.Internal_Hbond>
0.0000

> <Gold.Chemscore.DEClash>
0.0805

> <Gold.Chemscore.DEInternal>
0.2262

> <Gold.Chemscore.Rot>
2.4490

> <Gold.Chemscore.Internal.Correction>
   9.000000E+99

> <Gold.Chemscore.Hbond.Weighted>
-7.8625

> <Gold.Chemscore.Metal.Weighted>
-0.0000

> <Gold.Chemscore.Lipo.Weighted>
-13.0154

> <Gold.Chemscore.Internal_Hbond.Weighted>
0.0000

> <Gold.Chemscore.DEClash.Weighted>
0.0805

> <Gold.Chemscore.DEInternal.Weighted>
0.2262

> <Gold.Chemscore.Rot.Weighted>
6.2694

> <Gold.Chemscore.Internal.Correction.Weighted>
   9.000000E+99

> <Gold.Protein.RotatedTorsions>
[ 6907 6896 6895 6894 ] final   92.34 input  -60.11 | X-H torsion
[ 7974 7965 7964 7962 ] final  179.01 input  175.53 | X-H torsion
[ 8008 7997 7996 7995 ] final   37.45 input   59.86 | X-H torsion
[ 10167 10162 10161 10158 ] final  159.49 input  -65.29 | X-H torsion
[ 10718 10713 10712 10709 ] final  176.98 input   66.30 | X-H torsion
[ 10763 10752 10751 10750 ] final   19.50 input  -60.55 | X-H torsion
[ 11005 11000 10999 10996 ] final  -33.22 input  -57.11 | X-H torsion

> <Gold.Protein.ActiveResidues>
 VAL166  LYS551  ARG553  GLY616  TRP617  ASP618  TYR619  PRO620  LYS621  CYS622 
 ASP623  PHE694  ASN695  SER759  ASP760  ASP761  ALA762  ILE779  LEU786  VAL792 
 PHE793  MET794  SER795  GLU796  ALA797  LYS798  CYS799  TRP800  GLU811  SER814 

> <Gold.Protein.RotatedAtoms>
  152.5452  134.1517  159.8520 H   0  0  0  0  0  0  0  0  0  0  0  0  # atno 6907 bound_to 6896
  151.1543  133.4879  159.2602 H   0  0  0  0  0  0  0  0  0  0  0  0  # atno 6908 bound_to 6896
  151.1439  135.0204  159.8693 H   0  0  0  0  0  0  0  0  0  0  0  0  # atno 6909 bound_to 6896
  144.7150  140.0484  143.6436 H   0  0  0  0  0  0  0  0  0  0  0  0  # atno 7974 bound_to 7965
  155.2040  140.3318  155.4339 H   0  0  0  0  0  0  0  0  0  0  0  0  # atno 8008 bound_to 7997
  156.2396  140.1889  156.7075 H   0  0  0  0  0  0  0  0  0  0  0  0  # atno 8009 bound_to 7997
  154.6122  140.0607  156.9494 H   0  0  0  0  0  0  0  0  0  0  0  0  # atno 8010 bound_to 7997
  139.4833  144.4725  151.8556 H   0  0  0  0  0  0  0  0  0  0  0  0  # atno 10167 bound_to 10162
  156.9121  130.9913  151.3019 H   0  0  0  0  0  0  0  0  0  0  0  0  # atno 10718 bound_to 10713
  153.1157  135.6707  153.9422 H   0  0  0  0  0  0  0  0  0  0  0  0  # atno 10763 bound_to 10752
  153.8952  135.3042  155.3449 H   0  0  0  0  0  0  0  0  0  0  0  0  # atno 10764 bound_to 10752
  154.7574  135.5005  153.9477 H   0  0  0  0  0  0  0  0  0  0  0  0  # atno 10765 bound_to 10752
  140.9617  133.7160  156.1380 H   0  0  0  0  0  0  0  0  0  0  0  0  # atno 11005 bound_to 11000
  145.9965  139.3056  143.0953 LP  0  0  0  0  0  0  0  0  0  0  0  0  # atno 17320 bound_to 7965
  145.8843  140.9343  143.0585 LP  0  0  0  0  0  0  0  0  0  0  0  0  # atno 17321 bound_to 7965
  140.4195  144.2262  150.5887 LP  0  0  0  0  0  0  0  0  0  0  0  0  # atno 17342 bound_to 10162
  140.4888  143.2354  151.8849 LP  0  0  0  0  0  0  0  0  0  0  0  0  # atno 17343 bound_to 10162
  157.5961  130.8478  149.8731 LP  0  0  0  0  0  0  0  0  0  0  0  0  # atno 17370 bound_to 10713
  156.0531  130.3713  150.1155 LP  0  0  0  0  0  0  0  0  0  0  0  0  # atno 17371 bound_to 10713
  140.7458  134.4100  157.5548 LP  0  0  0  0  0  0  0  0  0  0  0  0  # atno 17394 bound_to 11000
  139.8880  134.8867  156.2496 LP  0  0  0  0  0  0  0  0  0  0  0  0  # atno 17395 bound_to 11000

$$$$
