AV-unprocessed.smi:492|AV-procd|sdf|2710|dock2
  -GOLD-   2262023153D 1   1.00000     0.00000
 Structure written by MMmdl.
 47 49  0  0  0  0  0  0  0  0  2 V2000
  145.5268  131.7239  152.9934 C   0  0  0  0  0  0  0  0  0  0  0  0
  145.5305  132.9947  153.6274 O   0  0  0  0  0  0  0  0  0  0  0  0
  146.7375  133.4995  154.0619 C   0  0  0  0  0  0  0  0  0  0  0  0
  147.9786  132.8289  153.9217 C   0  0  0  0  0  0  0  0  0  0  0  0
  149.1665  133.4186  154.3964 C   0  0  0  0  0  0  0  0  0  0  0  0
  149.1364  134.6864  155.0109 C   0  0  0  0  0  0  0  0  0  0  0  0
  150.4159  135.3089  155.5367 C   0  0  0  0  0  0  0  0  0  0  0  0
  150.3933  136.7236  155.4421 O   0  0  0  0  0  0  0  0  0  0  0  0
  151.6867  137.2949  155.3279 C   0  0  0  0  0  0  0  0  0  0  0  0
  151.5838  138.8266  155.3992 C   0  0  2  0  0  0  0  0  0  0  0  0
  152.8156  139.3872  154.9916 O   0  0  0  0  0  0  0  0  0  0  0  0
  151.1407  139.3516  156.7805 C   0  0  0  0  0  0  0  0  0  0  0  0
  151.0975  140.8209  156.8432 N   0  0  0  0  0  0  0  0  0  0  0  0
  150.3946  141.7089  156.0840 C   0  0  0  0  0  0  0  0  0  0  0  0
  149.4642  141.3824  154.9646 C   0  0  0  0  0  0  0  0  0  0  0  0
  150.6994  142.9579  156.5363 N   0  3  0  0  0  0  0  0  0  0  0  0
  151.6071  142.8690  157.5928 C   0  0  0  0  0  0  0  0  0  0  0  0
  152.2046  143.8598  158.3658 C   0  0  0  0  0  0  0  0  0  0  0  0
  153.0955  143.4280  159.3703 C   0  0  0  0  0  0  0  0  0  0  0  0
  153.3634  142.0588  159.5748 C   0  0  0  0  0  0  0  0  0  0  0  0
  152.7507  141.0632  158.7856 C   0  0  0  0  0  0  0  0  0  0  0  0
  151.8695  141.4983  157.7952 C   0  0  0  0  0  0  0  0  0  0  0  0
  147.9036  135.3533  155.1611 C   0  0  0  0  0  0  0  0  0  0  0  0
  146.7168  134.7635  154.6860 C   0  0  0  0  0  0  0  0  0  0  0  0
  144.5060  131.4660  152.7117 H   0  0  0  0  0  0  0  0  0  0  0  0
  145.8912  130.9427  153.6619 H   0  0  0  0  0  0  0  0  0  0  0  0
  146.1282  131.7308  152.0834 H   0  0  0  0  0  0  0  0  0  0  0  0
  148.0463  131.8585  153.4543 H   0  0  0  0  0  0  0  0  0  0  0  0
  150.1030  132.8916  154.2853 H   0  0  0  0  0  0  0  0  0  0  0  0
  150.5425  135.0065  156.5772 H   0  0  0  0  0  0  0  0  0  0  0  0
  151.2674  134.9187  154.9769 H   0  0  0  0  0  0  0  0  0  0  0  0
  152.3499  136.9159  156.1075 H   0  0  0  0  0  0  0  0  0  0  0  0
  152.1178  137.0065  154.3680 H   0  0  0  0  0  0  0  0  0  0  0  0
  150.8504  139.1468  154.6585 H   0  0  0  0  0  0  0  0  0  0  0  0
  152.9052  139.2616  154.0593 H   0  0  0  0  0  0  0  0  0  0  0  0
  150.1393  138.9866  157.0105 H   0  0  0  0  0  0  0  0  0  0  0  0
  151.7846  138.9807  157.5775 H   0  0  0  0  0  0  0  0  0  0  0  0
  149.0460  142.2933  154.5356 H   0  0  0  0  0  0  0  0  0  0  0  0
  148.6447  140.7605  155.3253 H   0  0  0  0  0  0  0  0  0  0  0  0
  149.9938  140.8420  154.1799 H   0  0  0  0  0  0  0  0  0  0  0  0
  152.0023  144.9095  158.2101 H   0  0  0  0  0  0  0  0  0  0  0  0
  153.5840  144.1613  159.9956 H   0  0  0  0  0  0  0  0  0  0  0  0
  154.0537  141.7652  160.3524 H   0  0  0  0  0  0  0  0  0  0  0  0
  152.9680  140.0183  158.9499 H   0  0  0  0  0  0  0  0  0  0  0  0
  147.8620  136.3199  155.6414 H   0  0  0  0  0  0  0  0  0  0  0  0
  145.7791  135.2864  154.8047 H   0  0  0  0  0  0  0  0  0  0  0  0
  150.3151  143.8089  156.1463 H   0  0  0  0  0  0  0  0  0  0  0  0
  1  2  1  0  0  0  0
  1 25  1  0  0  0  0
  1 26  1  0  0  0  0
  1 27  1  0  0  0  0
  2  3  1  0  0  0  0
  3 24  1  0  0  0  0
  3  4  2  0  0  0  0
  4  5  1  0  0  0  0
  4 28  1  0  0  0  0
  5  6  2  0  0  0  0
  5 29  1  0  0  0  0
  6  7  1  0  0  0  0
  6 23  1  0  0  0  0
  7  8  1  0  0  0  0
  7 30  1  0  0  0  0
  7 31  1  0  0  0  0
  8  9  1  0  0  0  0
  9 10  1  0  0  0  0
  9 32  1  0  0  0  0
  9 33  1  0  0  0  0
 10 11  1  0  0  0  0
 10 12  1  0  0  0  0
 10 34  1  0  0  0  0
 11 35  1  0  0  0  0
 12 13  1  0  0  0  0
 12 36  1  0  0  0  0
 12 37  1  0  0  0  0
 13 22  1  0  0  0  0
 13 14  1  0  0  0  0
 14 15  1  0  0  0  0
 14 16  2  0  0  0  0
 15 38  1  0  0  0  0
 15 39  1  0  0  0  0
 15 40  1  0  0  0  0
 16 17  1  0  0  0  0
 16 47  1  0  0  0  0
 17 22  2  0  0  0  0
 17 18  1  0  0  0  0
 18 19  2  0  0  0  0
 18 41  1  0  0  0  0
 19 20  1  0  0  0  0
 19 42  1  0  0  0  0
 20 21  2  0  0  0  0
 20 43  1  0  0  0  0
 21 22  1  0  0  0  0
 21 44  1  0  0  0  0
 23 24  2  0  0  0  0
 23 45  1  0  0  0  0
 24 46  1  0  0  0  0
M  CHG  1  16   1
M  END
> <s_m_source_file>
AV-unprocessed.smi

> <i_m_source_file_index>
492

> <i_lp_mmshare_version>
43012

> <i_f3d_flags>
0

> <s_epik_input>
W0NIM11PYzFbY0hdW2NIXWMoW2NIXVtjSF0xKVtDSDJdT1tDSDJdW0NASF0oW09IXSlbQ0gyXW4oYyhuMilbQ0gzXSljKGMyMylbY0hdW2NIXVtjSF1bY0hdMw==

> <s_epik_cmdline>
J2VwaWtfcHl0aG9uJywgJy1waCcsICc3LjAnLCAnLXRuJywgJzgnLCAnLW1hJywgJzIwMCcsICctbWV0YWxfYmluZGluZycsICctaW1hZScsICc8aW5maWxlLm1hZT4nLCAnLW9tYWUnLCAnPG91dGZpbGUubWFlPic=

> <r_lp_tautomer_probability>
1

> <r_epik_Ionization_Penalty>
0.952

> <r_epik_Ionization_Penalty_Charging>
0.951999

> <r_epik_Ionization_Penalty_Neutral>
9.7482e-07

> <r_epik_State_Penalty>
0.996343

> <r_epik_Charging_Adjusted_Penalty>
1.94834

> <i_epik_Tot_Q>
1

> <i_epik_Tot_abs_Q>
1

> <r_epik_Metal_State_Penalty>
4.96724

> <b_epik_Metal_Only>
0

> <s_lp_Force_Field>
OPLS_2005

> <r_lp_Energy>
22.3556

> <b_lp_Chiralities_Consistent>
1

> <s_lp_Variant>
AV-unprocessed.smi:492-3

> <Gold.Version>
5.8.1

> <Gold.Id.Protein>
6NUR|6NUR_protein|mol2

> <Gold.PLP.Fitness>
56.1864

> <Gold.PLP.PLP>
-48.2204

> <Gold.PLP.part.hbond>
-2.7989

> <Gold.PLP.part.metal>
0.0000

> <Gold.PLP.part.buried>
-3.2928

> <Gold.PLP.part.nonpolar>
-42.5034

> <Gold.PLP.part.repulsive>
0.3360

> <Gold.PLP.ligand.clash>
0.0000

> <Gold.PLP.ligand.torsion>
0.6093

> <Gold.PLP.Chemscore.Hbond>
3.0000

> <Gold.PLP.Chemscore.CHOScore>
0.0000

> <Gold.PLP.Chemscore.Metal>
0.0000

> <Gold.Chemscore.Hbonds>
donor molecule, donor type, donor heavy atom, donor atom, acceptor molecule, acceptor atom, score
      L1  H    16    47       P1  8028  1.98
      P1  H  7997  8010       L1    11  0.86

> <Gold.PLP.Chemscore.Internal.Correction>
0.1846

> <Gold.Rescore>
     Score         DG    S(hbond)    S(metal)    S(lipo)     H(rot)  DE(clash)    DE(int)     intcor
     19.30     -20.02       1.86        0.00     125.80       2.50       0.02       0.69       ----

> <Gold.Chemscore.Fitness>
19.2990

> <Gold.Chemscore.DG>
-20.0155

> <Gold.Chemscore.ZeroCoef>
-5.4800

> <Gold.Chemscore.Hbond>
1.8642

> <Gold.Chemscore.Metal>
0.0000

> <Gold.Chemscore.Lipo>
125.8008

> <Gold.Chemscore.Internal_Hbond>
0.0000

> <Gold.Chemscore.DEClash>
0.0240

> <Gold.Chemscore.DEInternal>
0.6925

> <Gold.Chemscore.Rot>
2.5038

> <Gold.Chemscore.Internal.Correction>
   9.000000E+99

> <Gold.Chemscore.Hbonds>
donor molecule, donor type, donor heavy atom, donor atom, acceptor molecule, acceptor atom, score
      L1  H    16    47       P1  8028  0.93
      P1  H  7997  8010       L1    11  0.82

> <Gold.Chemscore.Hbond.Weighted>
-6.2266

> <Gold.Chemscore.Metal.Weighted>
-0.0000

> <Gold.Chemscore.Lipo.Weighted>
-14.7187

> <Gold.Chemscore.Internal_Hbond.Weighted>
0.0000

> <Gold.Chemscore.DEClash.Weighted>
0.0240

> <Gold.Chemscore.DEInternal.Weighted>
0.6925

> <Gold.Chemscore.Rot.Weighted>
6.4098

> <Gold.Chemscore.Internal.Correction.Weighted>
   9.000000E+99

> <Gold.Protein.RotatedTorsions>
[ 6907 6896 6895 6894 ] final  -74.62 input  -60.11 | X-H torsion
[ 7974 7965 7964 7962 ] final    0.55 input  175.53 | X-H torsion
[ 8008 7997 7996 7995 ] final   84.96 input   59.86 | X-H torsion
[ 10167 10162 10161 10158 ] final  119.40 input  -65.29 | X-H torsion
[ 10718 10713 10712 10709 ] final   40.21 input   66.30 | X-H torsion
[ 10763 10752 10751 10750 ] final -154.28 input  -60.55 | X-H torsion
[ 11005 11000 10999 10996 ] final  147.89 input  -57.11 | X-H torsion

> <Gold.Protein.ActiveResidues>
 VAL166  LYS551  ARG553  GLY616  TRP617  ASP618  TYR619  PRO620  LYS621  CYS622 
 ASP623  PHE694  ASN695  SER759  ASP760  ASP761  ALA762  ILE779  LEU786  VAL792 
 PHE793  MET794  SER795  GLU796  ALA797  LYS798  CYS799  TRP800  GLU811  SER814 

> <Gold.Protein.RotatedAtoms>
  150.7087  134.4843  159.5484 H   0  0  0  0  0  0  0  0  0  0  0  0  # atno 6907 bound_to 6896
  152.2473  134.8165  160.0460 H   0  0  0  0  0  0  0  0  0  0  0  0  # atno 6908 bound_to 6896
  151.8925  133.3484  159.3840 H   0  0  0  0  0  0  0  0  0  0  0  0  # atno 6909 bound_to 6896
  146.2435  140.1121  142.8343 H   0  0  0  0  0  0  0  0  0  0  0  0  # atno 7974 bound_to 7965
  155.9438  140.3406  155.6349 H   0  0  0  0  0  0  0  0  0  0  0  0  # atno 8008 bound_to 7997
  155.7006  140.0760  157.2430 H   0  0  0  0  0  0  0  0  0  0  0  0  # atno 8009 bound_to 7997
  154.4108  140.1640  156.2174 H   0  0  0  0  0  0  0  0  0  0  0  0  # atno 8010 bound_to 7997
  139.6048  144.7067  151.2978 H   0  0  0  0  0  0  0  0  0  0  0  0  # atno 10167 bound_to 10162
  157.3795  130.7746  149.7182 H   0  0  0  0  0  0  0  0  0  0  0  0  # atno 10718 bound_to 10713
  154.7870  135.3193  154.7864 H   0  0  0  0  0  0  0  0  0  0  0  0  # atno 10763 bound_to 10752
  153.8562  135.6857  153.4791 H   0  0  0  0  0  0  0  0  0  0  0  0  # atno 10764 bound_to 10752
  153.1525  135.4693  154.9596 H   0  0  0  0  0  0  0  0  0  0  0  0  # atno 10765 bound_to 10752
  140.0914  134.9039  157.1656 H   0  0  0  0  0  0  0  0  0  0  0  0  # atno 11005 bound_to 11000
  145.0478  140.8995  143.5013 LP  0  0  0  0  0  0  0  0  0  0  0  0  # atno 17320 bound_to 7965
  145.1213  139.2692  143.5587 LP  0  0  0  0  0  0  0  0  0  0  0  0  # atno 17321 bound_to 7965
  140.7277  143.6956  150.7886 LP  0  0  0  0  0  0  0  0  0  0  0  0  # atno 17342 bound_to 10162
  140.0540  143.5221  152.2660 LP  0  0  0  0  0  0  0  0  0  0  0  0  # atno 17343 bound_to 10162
  155.9772  130.4065  150.3724 LP  0  0  0  0  0  0  0  0  0  0  0  0  # atno 17370 bound_to 10713
  157.1826  131.0396  151.2741 LP  0  0  0  0  0  0  0  0  0  0  0  0  # atno 17371 bound_to 10713
  140.3347  134.2770  155.7222 LP  0  0  0  0  0  0  0  0  0  0  0  0  # atno 17394 bound_to 11000
  141.2079  133.7793  157.0092 LP  0  0  0  0  0  0  0  0  0  0  0  0  # atno 17395 bound_to 11000

$$$$
