AV-unprocessed.smi:444|AV-procd|sdf|2587|dock5
  -GOLD-   2262022583D 1   1.00000     0.00000
 Structure written by MMmdl.
 45 46  0  0  0  0  0  0  0  0  1 V2000
  151.2633  145.1624  158.9275 C   0  0  0  0  0  0  0  0  0  0  0  0
  151.9811  143.8733  159.2708 C   0  0  0  0  0  0  0  0  0  0  0  0
  152.6530  143.7405  160.5011 C   0  0  0  0  0  0  0  0  0  0  0  0
  153.3152  142.5398  160.8135 C   0  0  0  0  0  0  0  0  0  0  0  0
  153.3097  141.4655  159.8996 C   0  0  0  0  0  0  0  0  0  0  0  0
  154.0293  140.1774  160.2530 C   0  0  0  0  0  0  0  0  0  0  0  0
  152.6382  141.5848  158.6606 C   0  0  0  0  0  0  0  0  0  0  0  0
  152.6713  140.4964  157.8128 O   0  0  0  0  0  0  0  0  0  0  0  0
  151.9027  140.5417  156.6177 C   0  0  0  0  0  0  0  0  0  0  0  0
  151.9039  139.1442  155.9738 C   0  0  2  0  0  0  0  0  0  0  0  0
  153.2376  138.8707  155.5901 O   0  0  0  0  0  0  0  0  0  0  0  0
  151.0184  139.0914  154.7086 C   0  0  0  0  0  0  0  0  0  0  0  0
  149.5960  139.2689  155.0270 N   0  0  0  0  0  0  0  0  0  0  0  0
  149.0532  138.2382  155.7701 N   0  0  0  0  0  0  0  0  0  0  0  0
  147.8109  138.2466  156.1268 C   0  0  0  0  0  0  0  0  0  0  0  0
  147.3306  137.0697  156.9326 C   0  0  0  0  0  0  0  0  0  0  0  0
  146.9565  139.3658  155.7431 C   0  0  0  0  0  0  0  0  0  0  0  0
  145.5031  139.3248  156.1950 C   0  0  0  0  0  0  0  0  0  0  0  0
  147.4990  140.3673  155.0063 C   0  0  0  0  0  0  0  0  0  0  0  0
  146.7396  141.4981  154.5796 C   0  0  0  0  0  0  0  0  0  0  0  0
  146.1312  142.4260  154.2495 N   0  0  0  0  0  0  0  0  0  0  0  0
  148.9042  140.3606  154.5931 C   0  0  0  0  0  0  0  0  0  0  0  0
  149.4227  141.2483  153.9146 O   0  0  0  0  0  0  0  0  0  0  0  0
  151.9730  142.8003  158.3569 C   0  0  0  0  0  0  0  0  0  0  0  0
  151.5831  145.9783  159.5765 H   0  0  0  0  0  0  0  0  0  0  0  0
  150.1866  145.0353  159.0415 H   0  0  0  0  0  0  0  0  0  0  0  0
  151.4685  145.4513  157.8963 H   0  0  0  0  0  0  0  0  0  0  0  0
  152.6634  144.5569  161.2085 H   0  0  0  0  0  0  0  0  0  0  0  0
  153.8281  142.4473  161.7597 H   0  0  0  0  0  0  0  0  0  0  0  0
  154.7918  139.9520  159.5067 H   0  0  0  0  0  0  0  0  0  0  0  0
  153.3232  139.3470  160.2854 H   0  0  0  0  0  0  0  0  0  0  0  0
  154.5176  140.2453  161.2259 H   0  0  0  0  0  0  0  0  0  0  0  0
  150.8821  140.8196  156.8853 H   0  0  0  0  0  0  0  0  0  0  0  0
  152.2810  141.2914  155.9201 H   0  0  0  0  0  0  0  0  0  0  0  0
  151.5640  138.4072  156.7030 H   0  0  0  0  0  0  0  0  0  0  0  0
  153.2294  138.4779  154.7304 H   0  0  0  0  0  0  0  0  0  0  0  0
  151.3033  139.9003  154.0331 H   0  0  0  0  0  0  0  0  0  0  0  0
  151.2021  138.1804  154.1353 H   0  0  0  0  0  0  0  0  0  0  0  0
  146.4749  136.5939  156.4529 H   0  0  0  0  0  0  0  0  0  0  0  0
  147.0282  137.3837  157.9319 H   0  0  0  0  0  0  0  0  0  0  0  0
  148.1065  136.3107  157.0463 H   0  0  0  0  0  0  0  0  0  0  0  0
  144.9625  140.2330  155.9295 H   0  0  0  0  0  0  0  0  0  0  0  0
  145.4390  139.2141  157.2781 H   0  0  0  0  0  0  0  0  0  0  0  0
  144.9842  138.4851  155.7316 H   0  0  0  0  0  0  0  0  0  0  0  0
  151.4463  142.9339  157.4244 H   0  0  0  0  0  0  0  0  0  0  0  0
  1  2  1  0  0  0  0
  1 25  1  0  0  0  0
  1 26  1  0  0  0  0
  1 27  1  0  0  0  0
  2 24  1  0  0  0  0
  2  3  2  0  0  0  0
  3  4  1  0  0  0  0
  3 28  1  0  0  0  0
  4  5  2  0  0  0  0
  4 29  1  0  0  0  0
  5  6  1  0  0  0  0
  5  7  1  0  0  0  0
  6 30  1  0  0  0  0
  6 31  1  0  0  0  0
  6 32  1  0  0  0  0
  7  8  1  0  0  0  0
  7 24  2  0  0  0  0
  8  9  1  0  0  0  0
  9 10  1  0  0  0  0
  9 33  1  0  0  0  0
  9 34  1  0  0  0  0
 10 11  1  0  0  0  0
 10 12  1  0  0  0  0
 10 35  1  0  0  0  0
 11 36  1  0  0  0  0
 12 13  1  0  0  0  0
 12 37  1  0  0  0  0
 12 38  1  0  0  0  0
 13 22  1  0  0  0  0
 13 14  1  0  0  0  0
 14 15  2  0  0  0  0
 15 16  1  0  0  0  0
 15 17  1  0  0  0  0
 16 39  1  0  0  0  0
 16 40  1  0  0  0  0
 16 41  1  0  0  0  0
 17 18  1  0  0  0  0
 17 19  2  0  0  0  0
 18 42  1  0  0  0  0
 18 43  1  0  0  0  0
 18 44  1  0  0  0  0
 19 20  1  0  0  0  0
 19 22  1  0  0  0  0
 20 21  3  0  0  0  0
 22 23  2  0  0  0  0
 24 45  1  0  0  0  0
M  END
> <s_m_source_file>
AV-unprocessed.smi

> <i_m_source_file_index>
444

> <i_lp_mmshare_version>
43012

> <i_f3d_flags>
0

> <s_epik_input>
W0NIM11jMVtjSF1bY0hdYyhbQ0gzXSljKFtjSF0xKU9bQ0gyXVtDQEhdKFtPSF0pW0NIMl1uMm5jKFtDSDNdKWMoW0NIM10pYyhDI04pYzI9Tw==

> <s_epik_cmdline>
J2VwaWtfcHl0aG9uJywgJy1waCcsICc3LjAnLCAnLXRuJywgJzgnLCAnLW1hJywgJzIwMCcsICctbWV0YWxfYmluZGluZycsICctaW1hZScsICc8aW5maWxlLm1hZT4nLCAnLW9tYWUnLCAnPG91dGZpbGUubWFlPic=

> <r_lp_tautomer_probability>
1

> <r_epik_Ionization_Penalty>
1.17331e-07

> <r_epik_Ionization_Penalty_Charging>
1.57223e-10

> <r_epik_Ionization_Penalty_Neutral>
1.17174e-07

> <r_epik_State_Penalty>
-0

> <r_epik_Charging_Adjusted_Penalty>
1.57223e-10

> <i_epik_Tot_Q>
0

> <i_epik_Tot_abs_Q>
0

> <r_epik_Metal_State_Penalty>
-0

> <b_epik_Metal_Only>
0

> <s_lp_Force_Field>
OPLS_2005

> <r_lp_Energy>
32.4723

> <b_lp_Chiralities_Consistent>
1

> <s_lp_Variant>
AV-unprocessed.smi:444-1

> <Gold.Version>
5.8.1

> <Gold.Id.Protein>
6NUR|6NUR_protein|mol2

> <Gold.PLP.Fitness>
50.0168

> <Gold.PLP.PLP>
-44.0561

> <Gold.PLP.part.hbond>
-3.8550

> <Gold.PLP.part.metal>
0.0000

> <Gold.PLP.part.buried>
-5.6333

> <Gold.PLP.part.nonpolar>
-36.3204

> <Gold.PLP.part.repulsive>
1.8689

> <Gold.PLP.ligand.clash>
0.0000

> <Gold.PLP.ligand.torsion>
0.1163

> <Gold.PLP.Chemscore.Hbond>
2.0602

> <Gold.PLP.Chemscore.CHOScore>
0.0000

> <Gold.PLP.Chemscore.Metal>
0.0000

> <Gold.Chemscore.Hbonds>
donor molecule, donor type, donor heavy atom, donor atom, acceptor molecule, acceptor atom, score
      P1  H  7989  7998       L1    23  0.14
      P1  H  7997  8008       L1    11  1.00
      P1  H  8011  8017       L1    23  0.82

> <Gold.PLP.Chemscore.Internal.Correction>
0.0129

> <Gold.Rescore>
     Score         DG    S(hbond)    S(metal)    S(lipo)     H(rot)  DE(clash)    DE(int)     intcor
     18.60     -19.06       1.84        0.00     113.75       2.29       0.33       0.14       ----

> <Gold.Chemscore.Fitness>
18.5955

> <Gold.Chemscore.DG>
-19.0615

> <Gold.Chemscore.ZeroCoef>
-5.4800

> <Gold.Chemscore.Hbond>
1.8371

> <Gold.Chemscore.Metal>
0.0000

> <Gold.Chemscore.Lipo>
113.7524

> <Gold.Chemscore.Internal_Hbond>
0.0000

> <Gold.Chemscore.DEClash>
0.3290

> <Gold.Chemscore.DEInternal>
0.1370

> <Gold.Chemscore.Rot>
2.2905

> <Gold.Chemscore.Internal.Correction>
   9.000000E+99

> <Gold.Chemscore.Hbonds>
donor molecule, donor type, donor heavy atom, donor atom, acceptor molecule, acceptor atom, score
      P1  H  7989  7998       L1    23  0.12
      P1  H  7997  8008       L1    11  0.76
      P1  H  8011  8017       L1    23  0.78

> <Gold.Chemscore.Hbond.Weighted>
-6.1360

> <Gold.Chemscore.Metal.Weighted>
-0.0000

> <Gold.Chemscore.Lipo.Weighted>
-13.3090

> <Gold.Chemscore.Internal_Hbond.Weighted>
0.0000

> <Gold.Chemscore.DEClash.Weighted>
0.3290

> <Gold.Chemscore.DEInternal.Weighted>
0.1370

> <Gold.Chemscore.Rot.Weighted>
5.8636

> <Gold.Chemscore.Internal.Correction.Weighted>
   9.000000E+99

> <Gold.Protein.RotatedTorsions>
[ 6907 6896 6895 6894 ] final  -58.65 input  -60.11 | X-H torsion
[ 7974 7965 7964 7962 ] final   37.83 input  175.53 | X-H torsion
[ 8008 7997 7996 7995 ] final  -36.53 input   59.86 | X-H torsion
[ 10167 10162 10161 10158 ] final -103.92 input  -65.29 | X-H torsion
[ 10718 10713 10712 10709 ] final  -69.56 input   66.30 | X-H torsion
[ 10763 10752 10751 10750 ] final   79.98 input  -60.55 | X-H torsion
[ 11005 11000 10999 10996 ] final  169.06 input  -57.11 | X-H torsion

> <Gold.Protein.ActiveResidues>
 VAL166  LYS551  ARG553  GLY616  TRP617  ASP618  TYR619  PRO620  LYS621  CYS622 
 ASP623  PHE694  ASN695  SER759  ASP760  ASP761  ALA762  ILE779  LEU786  VAL792 
 PHE793  MET794  SER795  GLU796  ALA797  LYS798  CYS799  TRP800  GLU811  SER814 

> <Gold.Protein.RotatedAtoms>
  150.7991  134.7071  159.6582 H   0  0  0  0  0  0  0  0  0  0  0  0  # atno 6907 bound_to 6896
  152.4106  134.6128  160.0040 H   0  0  0  0  0  0  0  0  0  0  0  0  # atno 6908 bound_to 6896
  151.6372  133.3291  159.3158 H   0  0  0  0  0  0  0  0  0  0  0  0  # atno 6909 bound_to 6896
  146.1108  139.5846  142.9353 H   0  0  0  0  0  0  0  0  0  0  0  0  # atno 7974 bound_to 7965
  154.4071  140.1628  156.2389 H   0  0  0  0  0  0  0  0  0  0  0  0  # atno 8008 bound_to 7997
  155.9218  140.3420  155.6156 H   0  0  0  0  0  0  0  0  0  0  0  0  # atno 8009 bound_to 7997
  155.7212  140.0768  157.2320 H   0  0  0  0  0  0  0  0  0  0  0  0  # atno 8010 bound_to 7997
  140.2149  143.3719  152.1019 H   0  0  0  0  0  0  0  0  0  0  0  0  # atno 10167 bound_to 10162
  156.0449  130.4315  150.2166 H   0  0  0  0  0  0  0  0  0  0  0  0  # atno 10718 bound_to 10713
  153.0997  135.4819  154.8843 H   0  0  0  0  0  0  0  0  0  0  0  0  # atno 10763 bound_to 10752
  154.7364  135.3072  154.8806 H   0  0  0  0  0  0  0  0  0  0  0  0  # atno 10764 bound_to 10752
  153.9427  135.6832  153.4797 H   0  0  0  0  0  0  0  0  0  0  0  0  # atno 10765 bound_to 10752
  140.2938  134.7652  157.3860 H   0  0  0  0  0  0  0  0  0  0  0  0  # atno 11005 bound_to 11000
  145.5667  141.0398  143.2196 LP  0  0  0  0  0  0  0  0  0  0  0  0  # atno 17320 bound_to 7965
  144.7510  139.7195  143.7273 LP  0  0  0  0  0  0  0  0  0  0  0  0  # atno 17321 bound_to 7965
  139.5166  144.6980  151.5576 LP  0  0  0  0  0  0  0  0  0  0  0  0  # atno 17342 bound_to 10162
  140.6297  143.9100  150.6595 LP  0  0  0  0  0  0  0  0  0  0  0  0  # atno 17343 bound_to 10162
  157.0257  130.9992  151.3327 LP  0  0  0  0  0  0  0  0  0  0  0  0  # atno 17370 bound_to 10713
  157.5313  130.8060  149.7920 LP  0  0  0  0  0  0  0  0  0  0  0  0  # atno 17371 bound_to 10713
  140.1171  134.5268  155.8215 LP  0  0  0  0  0  0  0  0  0  0  0  0  # atno 17394 bound_to 11000
  141.2141  133.6744  156.6798 LP  0  0  0  0  0  0  0  0  0  0  0  0  # atno 17395 bound_to 11000

$$$$
