AV-unprocessed.smi:2299|AV-procd|sdf|9228|dock3
  -GOLD-   2272012443D 1   1.00000     0.00000
 Structure written by MMmdl.
 43 44  0  0  0  0  0  0  0  0  2 V2000
  150.4421  144.8324  159.5382 C   0  0  0  0  0  0  0  0  0  0  0  0
  151.7395  144.2636  158.9446 C   0  0  0  0  0  0  0  0  0  0  0  0
  152.4504  145.2866  158.0471 C   0  0  0  0  0  0  0  0  0  0  0  0
  151.4895  142.9747  158.2112 C   0  0  0  0  0  0  0  0  0  0  0  0
  150.7181  142.8499  157.1235 N   0  3  0  0  0  0  0  0  0  0  0  0
  150.6959  141.5517  156.6951 C   0  0  0  0  0  0  0  0  0  0  0  0
  151.4965  140.8482  157.5549 C   0  0  0  0  0  0  0  0  0  0  0  0
  151.9768  141.7465  158.4745 N   0  0  0  0  0  0  0  0  0  0  0  0
  152.8839  141.4293  159.5897 C   0  0  0  0  0  0  0  0  0  0  0  0
  153.4502  140.0054  159.5209 C   0  0  0  0  0  0  0  0  0  0  0  0
  153.7097  139.4749  158.4398 O   0  0  0  0  0  0  0  0  0  0  0  0
  153.6373  139.3959  160.7022 N   0  0  0  0  0  0  0  0  0  0  0  0
  154.1814  138.0484  160.8890 C   0  0  2  0  0  0  0  0  0  0  0  0
  154.3469  137.8214  162.4094 C   0  0  0  0  0  0  0  0  0  0  0  0
  154.3870  136.3381  162.8159 C   0  0  0  0  0  0  0  0  0  0  0  0
  155.5979  135.5534  162.2889 C   0  0  0  0  0  0  0  0  0  0  0  0
  155.6623  135.4723  160.7542 C   0  0  0  0  0  0  0  0  0  0  0  0
  156.1513  136.7092  160.1593 N   0  0  0  0  0  0  0  0  0  0  0  0
  155.5602  137.9131  160.2006 C   0  0  0  0  0  0  0  0  0  0  0  0
  156.1111  138.8936  159.6996 O   0  0  0  0  0  0  0  0  0  0  0  0
  149.9739  144.1141  160.2127 H   0  0  0  0  0  0  0  0  0  0  0  0
  149.7192  145.0801  158.7601 H   0  0  0  0  0  0  0  0  0  0  0  0
  150.6375  145.7400  160.1100 H   0  0  0  0  0  0  0  0  0  0  0  0
  152.4013  144.0350  159.7784 H   0  0  0  0  0  0  0  0  0  0  0  0
  153.3963  144.8914  157.6753 H   0  0  0  0  0  0  0  0  0  0  0  0
  152.6702  146.2033  158.5951 H   0  0  0  0  0  0  0  0  0  0  0  0
  151.8386  145.5540  157.1849 H   0  0  0  0  0  0  0  0  0  0  0  0
  150.1274  141.2348  155.8329 H   0  0  0  0  0  0  0  0  0  0  0  0
  151.7544  139.7992  157.5800 H   0  0  0  0  0  0  0  0  0  0  0  0
  153.7082  142.1432  159.5646 H   0  0  0  0  0  0  0  0  0  0  0  0
  152.3551  141.5887  160.5299 H   0  0  0  0  0  0  0  0  0  0  0  0
  153.4048  139.9077  161.5410 H   0  0  0  0  0  0  0  0  0  0  0  0
  153.4818  137.3208  160.4738 H   0  0  0  0  0  0  0  0  0  0  0  0
  155.2289  138.3407  162.7891 H   0  0  0  0  0  0  0  0  0  0  0  0
  153.4992  138.2702  162.9299 H   0  0  0  0  0  0  0  0  0  0  0  0
  154.3843  136.2774  163.9047 H   0  0  0  0  0  0  0  0  0  0  0  0
  153.4680  135.8486  162.4905 H   0  0  0  0  0  0  0  0  0  0  0  0
  156.5227  135.9770  162.6832 H   0  0  0  0  0  0  0  0  0  0  0  0
  155.5416  134.5393  162.6856 H   0  0  0  0  0  0  0  0  0  0  0  0
  156.3566  134.6826  160.4666 H   0  0  0  0  0  0  0  0  0  0  0  0
  154.6948  135.1988  160.3308 H   0  0  0  0  0  0  0  0  0  0  0  0
  157.0451  136.6542  159.6922 H   0  0  0  0  0  0  0  0  0  0  0  0
  150.2176  143.6129  156.6854 H   0  0  0  0  0  0  0  0  0  0  0  0
  1  2  1  0  0  0  0
  1 21  1  0  0  0  0
  1 22  1  0  0  0  0
  1 23  1  0  0  0  0
  2  3  1  0  0  0  0
  2  4  1  0  0  0  0
  2 24  1  0  0  0  0
  3 25  1  0  0  0  0
  3 26  1  0  0  0  0
  3 27  1  0  0  0  0
  4  8  1  0  0  0  0
  4  5  2  0  0  0  0
  5  6  1  0  0  0  0
  5 43  1  0  0  0  0
  6  7  2  0  0  0  0
  6 28  1  0  0  0  0
  7  8  1  0  0  0  0
  7 29  1  0  0  0  0
  8  9  1  0  0  0  0
  9 10  1  0  0  0  0
  9 30  1  0  0  0  0
  9 31  1  0  0  0  0
 10 11  2  0  0  0  0
 10 12  1  0  0  0  0
 12 13  1  0  0  0  0
 12 32  1  0  0  0  0
 13 19  1  0  0  0  0
 13 14  1  0  0  0  0
 13 33  1  0  0  0  0
 14 15  1  0  0  0  0
 14 34  1  0  0  0  0
 14 35  1  0  0  0  0
 15 16  1  0  0  0  0
 15 36  1  0  0  0  0
 15 37  1  0  0  0  0
 16 17  1  0  0  0  0
 16 38  1  0  0  0  0
 16 39  1  0  0  0  0
 17 18  1  0  0  0  0
 17 40  1  0  0  0  0
 17 41  1  0  0  0  0
 18 19  1  0  0  0  0
 18 42  1  0  0  0  0
 19 20  2  0  0  0  0
M  CHG  1   5   1
M  END
> <s_m_source_file>
AV-unprocessed.smi

> <i_m_source_file_index>
2299

> <i_lp_mmshare_version>
43012

> <i_f3d_flags>
0

> <s_epik_input>
W0NIM11bQ0hdKFtDSDNdKWMxbltjSF1bY0hdbjFbQ0gyXUMoPU8pW05IXVtDQEBIXTJbQ0gyXVtDSDJdW0NIMl1bQ0gyXVtOSF1DMj1P

> <s_epik_cmdline>
J2VwaWtfcHl0aG9uJywgJy1waCcsICc3LjAnLCAnLXRuJywgJzgnLCAnLW1hJywgJzIwMCcsICctbWV0YWxfYmluZGluZycsICctaW1hZScsICc8aW5maWxlLm1hZT4nLCAnLW9tYWUnLCAnPG91dGZpbGUubWFlPic=

> <r_lp_tautomer_probability>
1

> <r_epik_Ionization_Penalty>
0.292878

> <r_epik_Ionization_Penalty_Charging>
0

> <r_epik_Ionization_Penalty_Neutral>
0.292878

> <r_epik_State_Penalty>
0.286008

> <r_epik_Charging_Adjusted_Penalty>
0.286008

> <i_epik_Tot_Q>
1

> <i_epik_Tot_abs_Q>
1

> <r_epik_Metal_State_Penalty>
0.563502

> <b_epik_Metal_Only>
0

> <s_lp_Force_Field>
OPLS_2005

> <r_lp_Energy>
16.2332

> <b_lp_Chiralities_Consistent>
1

> <s_lp_Variant>
AV-unprocessed.smi:2299-1

> <Gold.Version>
5.8.1

> <Gold.Id.Protein>
6NUR|6NUR_protein|mol2

> <Gold.PLP.Fitness>
41.8292

> <Gold.PLP.PLP>
-33.7275

> <Gold.PLP.part.hbond>
-2.0000

> <Gold.PLP.part.metal>
0.0000

> <Gold.PLP.part.buried>
-5.3517

> <Gold.PLP.part.nonpolar>
-26.5822

> <Gold.PLP.part.repulsive>
0.0818

> <Gold.PLP.ligand.clash>
0.0000

> <Gold.PLP.ligand.torsion>
0.4729

> <Gold.PLP.Chemscore.Hbond>
3.0000

> <Gold.PLP.Chemscore.CHOScore>
0.0000

> <Gold.PLP.Chemscore.Metal>
0.0000

> <Gold.Chemscore.Hbonds>
donor molecule, donor type, donor heavy atom, donor atom, acceptor molecule, acceptor atom, score
      L1  H     5    43       P1  8028  2.00
      P1  H  7997  8009       L1    11  1.00

> <Gold.PLP.Chemscore.Internal.Correction>
0.0476

> <Gold.Rescore>
     Score         DG    S(hbond)    S(metal)    S(lipo)     H(rot)  DE(clash)    DE(int)     intcor
     15.05     -17.39       1.96        0.00      84.18       1.75       0.25       2.09       ----

> <Gold.Chemscore.Fitness>
15.0467

> <Gold.Chemscore.DG>
-17.3897

> <Gold.Chemscore.ZeroCoef>
-5.4800

> <Gold.Chemscore.Hbond>
1.9590

> <Gold.Chemscore.Metal>
0.0000

> <Gold.Chemscore.Lipo>
84.1760

> <Gold.Chemscore.Internal_Hbond>
0.0000

> <Gold.Chemscore.DEClash>
0.2492

> <Gold.Chemscore.DEInternal>
2.0937

> <Gold.Chemscore.Rot>
1.7508

> <Gold.Chemscore.Internal.Correction>
   9.000000E+99

> <Gold.Chemscore.Hbonds>
donor molecule, donor type, donor heavy atom, donor atom, acceptor molecule, acceptor atom, score
      L1  H     5    43       P1  8028  0.96
      P1  H  7997  8009       L1    11  1.00

> <Gold.Chemscore.Hbond.Weighted>
-6.5432

> <Gold.Chemscore.Metal.Weighted>
-0.0000

> <Gold.Chemscore.Lipo.Weighted>
-9.8486

> <Gold.Chemscore.Internal_Hbond.Weighted>
0.0000

> <Gold.Chemscore.DEClash.Weighted>
0.2492

> <Gold.Chemscore.DEInternal.Weighted>
2.0937

> <Gold.Chemscore.Rot.Weighted>
4.4821

> <Gold.Chemscore.Internal.Correction.Weighted>
   9.000000E+99

> <Gold.Protein.RotatedTorsions>
[ 6907 6896 6895 6894 ] final  -91.29 input  -60.11 | X-H torsion
[ 7974 7965 7964 7962 ] final -147.45 input  175.53 | X-H torsion
[ 8008 7997 7996 7995 ] final  154.08 input   59.86 | X-H torsion
[ 10167 10162 10161 10158 ] final   57.79 input  -65.29 | X-H torsion
[ 10718 10713 10712 10709 ] final   53.61 input   66.30 | X-H torsion
[ 10763 10752 10751 10750 ] final -108.89 input  -60.55 | X-H torsion
[ 11005 11000 10999 10996 ] final  107.86 input  -57.11 | X-H torsion

> <Gold.Protein.ActiveResidues>
 VAL166  LYS551  ARG553  GLY616  TRP617  ASP618  TYR619  PRO620  LYS621  CYS622 
 ASP623  PHE694  ASN695  SER759  ASP760  ASP761  ALA762  ILE779  LEU786  VAL792 
 PHE793  MET794  SER795  GLU796  ALA797  LYS798  CYS799  TRP800  GLU811  SER814 

> <Gold.Protein.RotatedAtoms>
  150.6891  134.2299  159.4430 H   0  0  0  0  0  0  0  0  0  0  0  0  # atno 6907 bound_to 6896
  152.0250  134.9798  160.0580 H   0  0  0  0  0  0  0  0  0  0  0  0  # atno 6908 bound_to 6896
  152.1360  133.4401  159.4780 H   0  0  0  0  0  0  0  0  0  0  0  0  # atno 6909 bound_to 6896
  144.8093  140.5325  143.5654 H   0  0  0  0  0  0  0  0  0  0  0  0  # atno 7974 bound_to 7965
  156.2549  140.1976  156.6591 H   0  0  0  0  0  0  0  0  0  0  0  0  # atno 8008 bound_to 7997
  154.6478  140.0575  156.9946 H   0  0  0  0  0  0  0  0  0  0  0  0  # atno 8009 bound_to 7997
  155.1464  140.3247  155.4443 H   0  0  0  0  0  0  0  0  0  0  0  0  # atno 8010 bound_to 7997
  140.1942  144.4054  150.6557 H   0  0  0  0  0  0  0  0  0  0  0  0  # atno 10167 bound_to 10162
  157.5183  130.8547  149.8524 H   0  0  0  0  0  0  0  0  0  0  0  0  # atno 10718 bound_to 10713
  154.8162  135.4621  154.0649 H   0  0  0  0  0  0  0  0  0  0  0  0  # atno 10763 bound_to 10752
  153.2040  135.6873  153.8202 H   0  0  0  0  0  0  0  0  0  0  0  0  # atno 10764 bound_to 10752
  153.7676  135.3275  155.3324 H   0  0  0  0  0  0  0  0  0  0  0  0  # atno 10765 bound_to 10752
  139.8835  134.9413  156.5884 H   0  0  0  0  0  0  0  0  0  0  0  0  # atno 11005 bound_to 11000
  145.5363  139.1475  143.3471 LP  0  0  0  0  0  0  0  0  0  0  0  0  # atno 17320 bound_to 7965
  146.2389  140.5503  142.8943 LP  0  0  0  0  0  0  0  0  0  0  0  0  # atno 17321 bound_to 7965
  140.6435  143.2208  151.6238 LP  0  0  0  0  0  0  0  0  0  0  0  0  # atno 17342 bound_to 10162
  139.5243  144.3107  152.0995 LP  0  0  0  0  0  0  0  0  0  0  0  0  # atno 17343 bound_to 10162
  156.0335  130.3758  150.1622 LP  0  0  0  0  0  0  0  0  0  0  0  0  # atno 17370 bound_to 10713
  156.9811  130.9864  151.3437 LP  0  0  0  0  0  0  0  0  0  0  0  0  # atno 17371 bound_to 10713
  140.7974  133.8533  155.8697 LP  0  0  0  0  0  0  0  0  0  0  0  0  # atno 17394 bound_to 11000
  140.9623  134.1639  157.4644 LP  0  0  0  0  0  0  0  0  0  0  0  0  # atno 17395 bound_to 11000

$$$$
