AV-unprocessed.smi:3161|AV-procd|sdf|12059|dock7
  -GOLD-   2272017483D 1   1.00000     0.00000
 Structure written by MMmdl.
 40 41  0  0  0  0  0  0  0  0  1 V2000
  148.7929  140.9849  156.2991 C   0  0  0  0  0  0  0  0  0  0  0  0
  149.8964  140.2458  156.9993 C   0  0  0  0  0  0  0  0  0  0  0  0
  150.8973  139.4140  156.4215 C   0  0  0  0  0  0  0  0  0  0  0  0
  151.7289  138.9104  157.3187 N   0  0  0  0  0  0  0  0  0  0  0  0
  151.2865  139.3958  158.4984 N   0  0  0  0  0  0  0  0  0  0  0  0
  151.9694  139.0416  159.7308 C   0  0  0  0  0  0  0  0  0  0  0  0
  153.4700  139.3941  159.6953 C   0  0  2  0  0  0  0  0  0  0  0  0
  154.1525  138.9541  161.0033 C   0  0  0  0  0  0  0  0  0  0  0  0
  153.6469  140.8295  159.4481 N   0  0  0  0  0  0  0  0  0  0  0  0
  153.0824  141.7221  160.4584 C   0  0  0  0  0  0  0  0  0  0  0  0
  152.7659  143.0975  159.8543 C   0  0  2  0  0  0  0  0  0  0  0  0
  152.1485  144.0500  160.8962 C   0  0  0  0  0  0  0  0  0  0  0  0
  151.7629  145.3833  160.2450 C   0  0  0  0  0  0  0  0  0  0  0  0
  150.8691  145.1248  159.0276 C   0  0  0  0  0  0  0  0  0  0  0  0
  151.5330  144.1098  158.0840 C   0  0  0  0  0  0  0  0  0  0  0  0
  151.8305  142.9109  158.7932 O   0  0  0  0  0  0  0  0  0  0  0  0
  150.1836  140.2065  158.3345 C   0  0  0  0  0  0  0  0  0  0  0  0
  148.7269  140.7120  155.2455 H   0  0  0  0  0  0  0  0  0  0  0  0
  148.9423  142.0638  156.3428 H   0  0  0  0  0  0  0  0  0  0  0  0
  147.8210  140.7756  156.7460 H   0  0  0  0  0  0  0  0  0  0  0  0
  151.0441  139.1640  155.3811 H   0  0  0  0  0  0  0  0  0  0  0  0
  151.4760  139.5326  160.5718 H   0  0  0  0  0  0  0  0  0  0  0  0
  151.8404  137.9688  159.8800 H   0  0  0  0  0  0  0  0  0  0  0  0
  153.9258  138.8343  158.8776 H   0  0  0  0  0  0  0  0  0  0  0  0
  153.9526  137.9027  161.2116 H   0  0  0  0  0  0  0  0  0  0  0  0
  153.7911  139.5327  161.8543 H   0  0  0  0  0  0  0  0  0  0  0  0
  155.2356  139.0638  160.9566 H   0  0  0  0  0  0  0  0  0  0  0  0
  153.2744  141.0717  158.5350 H   0  0  0  0  0  0  0  0  0  0  0  0
  152.1756  141.3033  160.8940 H   0  0  0  0  0  0  0  0  0  0  0  0
  153.7987  141.8399  161.2721 H   0  0  0  0  0  0  0  0  0  0  0  0
  153.6842  143.5409  159.4637 H   0  0  0  0  0  0  0  0  0  0  0  0
  151.2634  143.5897  161.3373 H   0  0  0  0  0  0  0  0  0  0  0  0
  152.8502  144.2247  161.7123 H   0  0  0  0  0  0  0  0  0  0  0  0
  151.2527  146.0255  160.9635 H   0  0  0  0  0  0  0  0  0  0  0  0
  152.6636  145.9138  159.9335 H   0  0  0  0  0  0  0  0  0  0  0  0
  149.9041  144.7376  159.3567 H   0  0  0  0  0  0  0  0  0  0  0  0
  150.6694  146.0577  158.4996 H   0  0  0  0  0  0  0  0  0  0  0  0
  150.8628  143.8732  157.2575 H   0  0  0  0  0  0  0  0  0  0  0  0
  152.4436  144.5218  157.6466 H   0  0  0  0  0  0  0  0  0  0  0  0
  149.6984  140.6821  159.1741 H   0  0  0  0  0  0  0  0  0  0  0  0
  1  2  1  0  0  0  0
  1 18  1  0  0  0  0
  1 19  1  0  0  0  0
  1 20  1  0  0  0  0
  2 17  2  0  0  0  0
  2  3  1  0  0  0  0
  3  4  2  0  0  0  0
  3 21  1  0  0  0  0
  4  5  1  0  0  0  0
  5  6  1  0  0  0  0
  5 17  1  0  0  0  0
  6  7  1  0  0  0  0
  6 22  1  0  0  0  0
  6 23  1  0  0  0  0
  7  8  1  0  0  0  0
  7  9  1  0  0  0  0
  7 24  1  0  0  0  0
  8 25  1  0  0  0  0
  8 26  1  0  0  0  0
  8 27  1  0  0  0  0
  9 10  1  0  0  0  0
  9 28  1  0  0  0  0
 10 11  1  0  0  0  0
 10 29  1  0  0  0  0
 10 30  1  0  0  0  0
 11 16  1  0  0  0  0
 11 12  1  0  0  0  0
 11 31  1  0  0  0  0
 12 13  1  0  0  0  0
 12 32  1  0  0  0  0
 12 33  1  0  0  0  0
 13 14  1  0  0  0  0
 13 34  1  0  0  0  0
 13 35  1  0  0  0  0
 14 15  1  0  0  0  0
 14 36  1  0  0  0  0
 14 37  1  0  0  0  0
 15 16  1  0  0  0  0
 15 38  1  0  0  0  0
 15 39  1  0  0  0  0
 17 40  1  0  0  0  0
M  END
> <s_m_source_file>
AV-unprocessed.smi

> <i_m_source_file_index>
3161

> <i_lp_mmshare_version>
43012

> <i_f3d_flags>
0

> <s_epik_input>
W0NIM11jMVtjSF1ubihbY0hdMSlbQ0gyXVtDQEhdKFtDSDNdKVtOSF1bQ0gyXVtDQEBIXTJbQ0gyXVtDSDJdW0NIMl1bQ0gyXU8y

> <s_epik_cmdline>
J2VwaWtfcHl0aG9uJywgJy1waCcsICc3LjAnLCAnLXRuJywgJzgnLCAnLW1hJywgJzIwMCcsICctbWV0YWxfYmluZGluZycsICctaW1hZScsICc8aW5maWxlLm1hZT4nLCAnLW9tYWUnLCAnPG91dGZpbGUubWFlPic=

> <r_lp_tautomer_probability>
1

> <r_epik_Ionization_Penalty>
2.51986

> <r_epik_Ionization_Penalty_Charging>
0

> <r_epik_Ionization_Penalty_Neutral>
2.51986

> <r_epik_State_Penalty>
2.68614

> <r_epik_Charging_Adjusted_Penalty>
2.68614

> <i_epik_Tot_Q>
0

> <i_epik_Tot_abs_Q>
0

> <r_epik_Metal_State_Penalty>
2.68606

> <b_epik_Metal_Only>
0

> <s_lp_Force_Field>
OPLS_2005

> <r_lp_Energy>
14.7371

> <b_lp_Chiralities_Consistent>
1

> <s_lp_Variant>
AV-unprocessed.smi:3161-5

> <Gold.Version>
5.8.1

> <Gold.Id.Protein>
6NUR|6NUR_protein|mol2

> <Gold.PLP.Fitness>
45.7686

> <Gold.PLP.PLP>
-43.0577

> <Gold.PLP.part.hbond>
-1.0389

> <Gold.PLP.part.metal>
0.0000

> <Gold.PLP.part.buried>
-4.2165

> <Gold.PLP.part.nonpolar>
-36.4625

> <Gold.PLP.part.repulsive>
0.0060

> <Gold.PLP.ligand.clash>
0.0000

> <Gold.PLP.ligand.torsion>
0.1558

> <Gold.PLP.Chemscore.Hbond>
1.0000

> <Gold.PLP.Chemscore.CHOScore>
0.0000

> <Gold.PLP.Chemscore.Metal>
0.0000

> <Gold.PLP.Chemscore.Internal.Correction>
0.0224

> <Gold.Rescore>
     Score         DG    S(hbond)    S(metal)    S(lipo)     H(rot)  DE(clash)    DE(int)     intcor
     17.62     -18.13       0.95        0.00     114.05       1.50       0.16       0.35       ----

> <Gold.Chemscore.Fitness>
17.6174

> <Gold.Chemscore.DG>
-18.1328

> <Gold.Chemscore.ZeroCoef>
-5.4800

> <Gold.Chemscore.Hbond>
0.9451

> <Gold.Chemscore.Metal>
0.0000

> <Gold.Chemscore.Lipo>
114.0496

> <Gold.Chemscore.Internal_Hbond>
0.0000

> <Gold.Chemscore.DEClash>
0.1621

> <Gold.Chemscore.DEInternal>
0.3532

> <Gold.Chemscore.Rot>
1.5030

> <Gold.Chemscore.Internal.Correction>
   9.000000E+99

> <Gold.Chemscore.Hbond.Weighted>
-3.1567

> <Gold.Chemscore.Metal.Weighted>
-0.0000

> <Gold.Chemscore.Lipo.Weighted>
-13.3438

> <Gold.Chemscore.Internal_Hbond.Weighted>
0.0000

> <Gold.Chemscore.DEClash.Weighted>
0.1621

> <Gold.Chemscore.DEInternal.Weighted>
0.3532

> <Gold.Chemscore.Rot.Weighted>
3.8477

> <Gold.Chemscore.Internal.Correction.Weighted>
   9.000000E+99

> <Gold.Protein.RotatedTorsions>
[ 6907 6896 6895 6894 ] final   77.41 input  -60.11 | X-H torsion
[ 7974 7965 7964 7962 ] final -171.27 input  175.53 | X-H torsion
[ 8008 7997 7996 7995 ] final  178.17 input   59.86 | X-H torsion
[ 10167 10162 10161 10158 ] final -151.67 input  -65.29 | X-H torsion
[ 10718 10713 10712 10709 ] final   72.64 input   66.30 | X-H torsion
[ 10763 10752 10751 10750 ] final  123.62 input  -60.55 | X-H torsion
[ 11005 11000 10999 10996 ] final  103.68 input  -57.11 | X-H torsion

> <Gold.Protein.ActiveResidues>
 VAL166  LYS551  ARG553  GLY616  TRP617  ASP618  TYR619  PRO620  LYS621  CYS622 
 ASP623  PHE694  ASN695  SER759  ASP760  ASP761  ALA762  ILE779  LEU786  VAL792 
 PHE793  MET794  SER795  GLU796  ALA797  LYS798  CYS799  TRP800  GLU811  SER814 

> <Gold.Protein.RotatedAtoms>
  152.5116  134.3821  159.9354 H   0  0  0  0  0  0  0  0  0  0  0  0  # atno 6907 bound_to 6896
  151.3778  133.3825  159.2714 H   0  0  0  0  0  0  0  0  0  0  0  0  # atno 6908 bound_to 6896
  150.9528  134.8946  159.7741 H   0  0  0  0  0  0  0  0  0  0  0  0  # atno 6909 bound_to 6896
  144.7159  140.1947  143.6345 H   0  0  0  0  0  0  0  0  0  0  0  0  # atno 7974 bound_to 7965
  156.0576  140.1340  156.9978 H   0  0  0  0  0  0  0  0  0  0  0  0  # atno 8008 bound_to 7997
  154.4465  140.0998  156.6540 H   0  0  0  0  0  0  0  0  0  0  0  0  # atno 8009 bound_to 7997
  155.5427  140.3461  155.4453 H   0  0  0  0  0  0  0  0  0  0  0  0  # atno 8010 bound_to 7997
  139.7247  143.8901  152.2515 H   0  0  0  0  0  0  0  0  0  0  0  0  # atno 10167 bound_to 10162
  157.6510  130.9589  150.0957 H   0  0  0  0  0  0  0  0  0  0  0  0  # atno 10718 bound_to 10713
  153.6484  135.3367  155.3092 H   0  0  0  0  0  0  0  0  0  0  0  0  # atno 10763 bound_to 10752
  154.8543  135.4335  154.1930 H   0  0  0  0  0  0  0  0  0  0  0  0  # atno 10764 bound_to 10752
  153.2867  135.7013  153.7407 H   0  0  0  0  0  0  0  0  0  0  0  0  # atno 10765 bound_to 10752
  139.8785  134.9272  156.5247 H   0  0  0  0  0  0  0  0  0  0  0  0  # atno 11005 bound_to 11000
  145.8736  139.2285  143.1647 LP  0  0  0  0  0  0  0  0  0  0  0  0  # atno 17320 bound_to 7965
  146.0062  140.8477  142.9994 LP  0  0  0  0  0  0  0  0  0  0  0  0  # atno 17321 bound_to 7965
  139.8807  144.7019  150.8881 LP  0  0  0  0  0  0  0  0  0  0  0  0  # atno 17342 bound_to 10162
  140.7760  143.3663  151.1732 LP  0  0  0  0  0  0  0  0  0  0  0  0  # atno 17343 bound_to 10162
  156.1893  130.3654  149.8931 LP  0  0  0  0  0  0  0  0  0  0  0  0  # atno 17370 bound_to 10713
  156.6863  130.8878  151.3582 LP  0  0  0  0  0  0  0  0  0  0  0  0  # atno 17371 bound_to 10713
  140.8425  133.8194  155.9088 LP  0  0  0  0  0  0  0  0  0  0  0  0  # atno 17394 bound_to 11000
  140.9224  134.2125  157.4918 LP  0  0  0  0  0  0  0  0  0  0  0  0  # atno 17395 bound_to 11000

$$$$
