AV-unprocessed.smi:3212|AV-procd|sdf|12278|dock9
  -GOLD-   2272018113D 1   1.00000     0.00000
 Structure written by MMmdl.
 40 40  0  0  0  0  0  0  0  0  2 V2000
  146.5430  138.9806  151.0626 C   0  0  0  0  0  0  0  0  0  0  0  0
  146.6778  138.8076  152.5830 C   0  0  2  0  0  0  0  0  0  0  0  0
  148.0879  138.5153  152.9275 N   0  3  0  0  0  0  0  0  0  0  0  0
  148.4603  138.7629  154.3382 C   0  0  0  0  0  0  0  0  0  0  0  0
  149.5488  139.8421  154.4541 C   0  0  0  0  0  0  0  0  0  0  0  0
  150.8235  139.2954  154.8844 N   0  0  0  0  0  0  0  0  0  0  0  0
  151.5829  138.3156  154.2798 C   0  0  0  0  0  0  0  0  0  0  0  0
  152.6950  138.1305  155.0501 C   0  0  0  0  0  0  0  0  0  0  0  0
  152.5253  139.0554  156.1177 C   0  0  0  0  0  0  0  0  0  0  0  0
  151.4035  139.7504  156.0163 N   0  0  0  0  0  0  0  0  0  0  0  0
  145.7251  137.7083  153.0733 C   0  0  0  0  0  0  0  0  0  0  0  0
  146.1773  136.6733  153.5638 O   0  0  0  0  0  0  0  0  0  0  0  0
  144.4117  137.9537  152.9185 N   0  0  0  0  0  0  0  0  0  0  0  0
  143.2741  137.1020  153.2858 C   0  0  0  0  0  0  0  0  0  0  0  0
  143.4230  136.7805  154.7834 C   0  0  0  0  0  0  0  0  0  0  0  0
  143.2984  135.7830  152.4852 C   0  0  0  0  0  0  0  0  0  0  0  0
  141.9417  137.8478  153.0633 C   0  0  0  0  0  0  0  0  0  0  0  0
  145.5186  139.2252  150.7783 H   0  0  0  0  0  0  0  0  0  0  0  0
  146.8281  138.0727  150.5291 H   0  0  0  0  0  0  0  0  0  0  0  0
  147.1811  139.7888  150.7039 H   0  0  0  0  0  0  0  0  0  0  0  0
  146.4019  139.7522  153.0554 H   0  0  0  0  0  0  0  0  0  0  0  0
  148.2829  137.5511  152.6976 H   0  0  0  0  0  0  0  0  0  0  0  0
  147.5793  139.0618  154.9078 H   0  0  0  0  0  0  0  0  0  0  0  0
  148.8249  137.8352  154.7803 H   0  0  0  0  0  0  0  0  0  0  0  0
  149.6963  140.3198  153.4846 H   0  0  0  0  0  0  0  0  0  0  0  0
  149.2448  140.6296  155.1453 H   0  0  0  0  0  0  0  0  0  0  0  0
  151.2727  137.8364  153.3628 H   0  0  0  0  0  0  0  0  0  0  0  0
  153.5071  137.4400  154.8770 H   0  0  0  0  0  0  0  0  0  0  0  0
  153.1783  139.2400  156.9580 H   0  0  0  0  0  0  0  0  0  0  0  0
  144.1662  138.8356  152.4922 H   0  0  0  0  0  0  0  0  0  0  0  0
  142.6098  136.1453  155.1364 H   0  0  0  0  0  0  0  0  0  0  0  0
  143.4149  137.6880  155.3886 H   0  0  0  0  0  0  0  0  0  0  0  0
  144.3581  136.2575  154.9877 H   0  0  0  0  0  0  0  0  0  0  0  0
  144.2516  135.2655  152.5995 H   0  0  0  0  0  0  0  0  0  0  0  0
  143.1368  135.9454  151.4197 H   0  0  0  0  0  0  0  0  0  0  0  0
  142.5154  135.1043  152.8253 H   0  0  0  0  0  0  0  0  0  0  0  0
  141.0979  137.2576  153.4223 H   0  0  0  0  0  0  0  0  0  0  0  0
  141.7583  138.0561  152.0091 H   0  0  0  0  0  0  0  0  0  0  0  0
  141.9250  138.7997  153.5955 H   0  0  0  0  0  0  0  0  0  0  0  0
  148.6756  139.1050  152.3551 H   0  0  0  0  0  0  0  0  0  0  0  0
  1  2  1  0  0  0  0
  1 18  1  0  0  0  0
  1 19  1  0  0  0  0
  1 20  1  0  0  0  0
  2  3  1  0  0  0  0
  2 11  1  0  0  0  0
  2 21  1  0  0  0  0
  3  4  1  0  0  0  0
  3 22  1  0  0  0  0
  3 40  1  0  0  0  0
  4  5  1  0  0  0  0
  4 23  1  0  0  0  0
  4 24  1  0  0  0  0
  5  6  1  0  0  0  0
  5 25  1  0  0  0  0
  5 26  1  0  0  0  0
  6 10  1  0  0  0  0
  6  7  1  0  0  0  0
  7  8  2  0  0  0  0
  7 27  1  0  0  0  0
  8  9  1  0  0  0  0
  8 28  1  0  0  0  0
  9 10  2  0  0  0  0
  9 29  1  0  0  0  0
 11 12  2  0  0  0  0
 11 13  1  0  0  0  0
 13 14  1  0  0  0  0
 13 30  1  0  0  0  0
 14 15  1  0  0  0  0
 14 16  1  0  0  0  0
 14 17  1  0  0  0  0
 15 31  1  0  0  0  0
 15 32  1  0  0  0  0
 15 33  1  0  0  0  0
 16 34  1  0  0  0  0
 16 35  1  0  0  0  0
 16 36  1  0  0  0  0
 17 37  1  0  0  0  0
 17 38  1  0  0  0  0
 17 39  1  0  0  0  0
M  CHG  1   3   1
M  END
> <s_m_source_file>
AV-unprocessed.smi

> <i_m_source_file_index>
3212

> <i_lp_mmshare_version>
43012

> <i_f3d_flags>
0

> <s_epik_input>
W0NIM11DKFtDSDNdKShbQ0gzXSlbTkhdQyg9TylbQ0BIXShbQ0gzXSlbTkhdW0NIMl1bQ0gyXW4xW2NIXVtjSF1bY0hdbjE=

> <s_epik_cmdline>
J2VwaWtfcHl0aG9uJywgJy1waCcsICc3LjAnLCAnLXRuJywgJzgnLCAnLW1hJywgJzIwMCcsICctbWV0YWxfYmluZGluZycsICctaW1hZScsICc8aW5maWxlLm1hZT4nLCAnLW9tYWUnLCAnPG91dGZpbGUubWFlPic=

> <r_lp_tautomer_probability>
1

> <r_epik_Ionization_Penalty>
0.198377

> <r_epik_Ionization_Penalty_Charging>
0.198374

> <r_epik_Ionization_Penalty_Neutral>
3.0924e-06

> <r_epik_State_Penalty>
0.188176

> <r_epik_Charging_Adjusted_Penalty>
0.38655

> <i_epik_Tot_Q>
1

> <i_epik_Tot_abs_Q>
1

> <r_epik_Metal_State_Penalty>
0.188456

> <b_epik_Metal_Only>
0

> <s_lp_Force_Field>
OPLS_2005

> <r_lp_Energy>
6.00749

> <b_lp_Chiralities_Consistent>
1

> <s_lp_Variant>
AV-unprocessed.smi:3212-1

> <Gold.Version>
5.8.1

> <Gold.Id.Protein>
6NUR|6NUR_protein|mol2

> <Gold.PLP.Fitness>
43.6954

> <Gold.PLP.PLP>
-30.6392

> <Gold.PLP.part.hbond>
-3.1775

> <Gold.PLP.part.metal>
0.0000

> <Gold.PLP.part.buried>
1.8690

> <Gold.PLP.part.nonpolar>
-28.2249

> <Gold.PLP.part.repulsive>
0.1701

> <Gold.PLP.ligand.clash>
0.0000

> <Gold.PLP.ligand.torsion>
0.9813

> <Gold.PLP.Chemscore.Hbond>
4.0000

> <Gold.PLP.Chemscore.CHOScore>
0.9940

> <Gold.PLP.Chemscore.Metal>
0.0000

> <Gold.Chemscore.Hbonds>
donor molecule, donor type, donor heavy atom, donor atom, acceptor molecule, acceptor atom, score
      L1  H     3    22       P1  7948  2.00
      L1  H     3    40       P1  7957  1.00
      L1  H    13    30       P1 10175  1.00
      L1  C     7    27       P1  7949  0.75

> <Gold.PLP.Chemscore.Internal.Correction>
0.0368

> <Gold.Rescore>
     Score         DG    S(hbond)    S(metal)    S(lipo)     H(rot)  DE(clash)    DE(int)     intcor
     16.84     -18.30       2.99        0.00      69.41       2.07       0.54       0.92       ----

> <Gold.Chemscore.Fitness>
16.8355

> <Gold.Chemscore.DG>
-18.3035

> <Gold.Chemscore.ZeroCoef>
-5.4800

> <Gold.Chemscore.Hbond>
2.9915

> <Gold.Chemscore.Metal>
0.0000

> <Gold.Chemscore.Lipo>
69.4052

> <Gold.Chemscore.Internal_Hbond>
0.0000

> <Gold.Chemscore.DEClash>
0.5430

> <Gold.Chemscore.DEInternal>
0.9250

> <Gold.Chemscore.Rot>
2.0659

> <Gold.Chemscore.Internal.Correction>
   9.000000E+99

> <Gold.Chemscore.Hbonds>
donor molecule, donor type, donor heavy atom, donor atom, acceptor molecule, acceptor atom, score
      L1  H     3    22       P1  7948  0.99
      L1  H     3    40       P1  7957  1.00
      L1  H    13    30       P1 10175  0.99

> <Gold.Chemscore.Hbond.Weighted>
-9.9917

> <Gold.Chemscore.Metal.Weighted>
-0.0000

> <Gold.Chemscore.Lipo.Weighted>
-8.1204

> <Gold.Chemscore.Internal_Hbond.Weighted>
0.0000

> <Gold.Chemscore.DEClash.Weighted>
0.5430

> <Gold.Chemscore.DEInternal.Weighted>
0.9250

> <Gold.Chemscore.Rot.Weighted>
5.2886

> <Gold.Chemscore.Internal.Correction.Weighted>
   9.000000E+99

> <Gold.Protein.RotatedTorsions>
[ 6907 6896 6895 6894 ] final   99.67 input  -60.11 | X-H torsion
[ 7974 7965 7964 7962 ] final  170.69 input  175.53 | X-H torsion
[ 8008 7997 7996 7995 ] final -167.32 input   59.86 | X-H torsion
[ 10167 10162 10161 10158 ] final  139.12 input  -65.29 | X-H torsion
[ 10718 10713 10712 10709 ] final -172.82 input   66.30 | X-H torsion
[ 10763 10752 10751 10750 ] final  172.68 input  -60.55 | X-H torsion
[ 11005 11000 10999 10996 ] final  178.36 input  -57.11 | X-H torsion

> <Gold.Protein.ActiveResidues>
 VAL166  LYS551  ARG553  GLY616  TRP617  ASP618  TYR619  PRO620  LYS621  CYS622 
 ASP623  PHE694  ASN695  SER759  ASP760  ASP761  ALA762  ILE779  LEU786  VAL792 
 PHE793  MET794  SER795  GLU796  ALA797  LYS798  CYS799  TRP800  GLU811  SER814 

> <Gold.Protein.RotatedAtoms>
  152.5387  134.0393  159.8059 H   0  0  0  0  0  0  0  0  0  0  0  0  # atno 6907 bound_to 6896
  151.0551  133.5583  159.2646 H   0  0  0  0  0  0  0  0  0  0  0  0  # atno 6908 bound_to 6896
  151.2503  135.0627  159.9113 H   0  0  0  0  0  0  0  0  0  0  0  0  # atno 6909 bound_to 6896
  144.7316  139.9238  143.6421 H   0  0  0  0  0  0  0  0  0  0  0  0  # atno 7974 bound_to 7965
  155.8761  140.1001  157.1517 H   0  0  0  0  0  0  0  0  0  0  0  0  # atno 8008 bound_to 7997
  154.4001  140.1338  156.4202 H   0  0  0  0  0  0  0  0  0  0  0  0  # atno 8009 bound_to 7997
  155.7695  140.3461  155.5242 H   0  0  0  0  0  0  0  0  0  0  0  0  # atno 8010 bound_to 7997
  139.5089  144.6314  151.5809 H   0  0  0  0  0  0  0  0  0  0  0  0  # atno 10167 bound_to 10162
  156.7612  130.9414  151.3118 H   0  0  0  0  0  0  0  0  0  0  0  0  # atno 10718 bound_to 10713
  154.4295  135.2759  155.1922 H   0  0  0  0  0  0  0  0  0  0  0  0  # atno 10763 bound_to 10752
  154.3834  135.6082  153.5807 H   0  0  0  0  0  0  0  0  0  0  0  0  # atno 10764 bound_to 10752
  152.9835  135.5886  154.4604 H   0  0  0  0  0  0  0  0  0  0  0  0  # atno 10765 bound_to 10752
  140.3943  134.6834  157.4525 H   0  0  0  0  0  0  0  0  0  0  0  0  # atno 11005 bound_to 11000
  146.0909  139.3899  143.0406 LP  0  0  0  0  0  0  0  0  0  0  0  0  # atno 17320 bound_to 7965
  145.7712  140.9895  143.1148 LP  0  0  0  0  0  0  0  0  0  0  0  0  # atno 17321 bound_to 7965
  140.6047  143.9545  150.6411 LP  0  0  0  0  0  0  0  0  0  0  0  0  # atno 17342 bound_to 10162
  140.2768  143.3417  152.1187 LP  0  0  0  0  0  0  0  0  0  0  0  0  # atno 17343 bound_to 10162
  157.6733  130.9071  150.0092 LP  0  0  0  0  0  0  0  0  0  0  0  0  # atno 17370 bound_to 10713
  156.1338  130.3643  149.9690 LP  0  0  0  0  0  0  0  0  0  0  0  0  # atno 17371 bound_to 10713
  140.0383  134.6304  155.9014 LP  0  0  0  0  0  0  0  0  0  0  0  0  # atno 17394 bound_to 11000
  141.1880  133.6561  156.5304 LP  0  0  0  0  0  0  0  0  0  0  0  0  # atno 17395 bound_to 11000

$$$$
