AV-unprocessed.smi:1118|AV-procd|sdf|4815|dock1
  -GOLD-   22720 3363D 1   1.00000     0.00000
 Structure written by MMmdl.
 45 46  0  0  0  0  0  0  0  0  2 V2000
  145.4946  136.0174  151.0452 C   0  0  0  0  0  0  0  0  0  0  0  0
  145.8986  136.7945  152.1592 O   0  0  0  0  0  0  0  0  0  0  0  0
  144.8005  137.3728  152.8453 C   0  0  0  0  0  0  0  0  0  0  0  0
  145.2910  137.9341  154.1889 C   0  0  0  0  0  0  0  0  0  0  0  0
  145.8371  139.3100  154.0682 N   0  3  2  0  0  0  0  0  0  0  0  0
  147.1969  139.3196  153.4707 C   0  0  0  0  0  0  0  0  0  0  0  0
  147.6809  140.7575  153.2231 C   0  0  0  0  0  0  0  0  0  0  0  0
  147.6797  141.5960  154.5186 C   0  0  2  0  0  0  0  0  0  0  0  0
  148.7865  141.2164  155.5309 C   0  0  0  0  0  0  0  0  0  0  0  0
  149.6070  142.3678  155.8906 N   0  0  0  0  0  0  0  0  0  0  0  0
  150.7359  142.3243  156.6158 C   0  0  0  0  0  0  0  0  0  0  0  0
  151.1691  141.3013  157.1461 O   0  0  0  0  0  0  0  0  0  0  0  0
  151.5209  143.6308  156.7230 C   0  0  0  0  0  0  0  0  0  0  0  0
  151.6314  144.0426  158.1109 N   0  0  0  0  0  0  0  0  0  0  0  0
  150.9702  145.0678  158.7551 C   0  0  0  0  0  0  0  0  0  0  0  0
  151.3805  145.0610  160.0575 C   0  0  0  0  0  0  0  0  0  0  0  0
  152.3040  143.9802  160.1158 C   0  0  0  0  0  0  0  0  0  0  0  0
  152.4518  143.3717  158.9499 N   0  0  0  0  0  0  0  0  0  0  0  0
  146.2738  141.5283  155.1432 C   0  0  0  0  0  0  0  0  0  0  0  0
  145.7891  140.0788  155.3410 C   0  0  0  0  0  0  0  0  0  0  0  0
  146.3724  135.6013  150.5505 H   0  0  0  0  0  0  0  0  0  0  0  0
  144.9530  136.6226  150.3168 H   0  0  0  0  0  0  0  0  0  0  0  0
  144.8573  135.1873  151.3534 H   0  0  0  0  0  0  0  0  0  0  0  0
  144.3268  138.1425  152.2357 H   0  0  0  0  0  0  0  0  0  0  0  0
  144.0459  136.6068  153.0307 H   0  0  0  0  0  0  0  0  0  0  0  0
  144.4854  137.9232  154.9245 H   0  0  0  0  0  0  0  0  0  0  0  0
  146.0621  137.2636  154.5706 H   0  0  0  0  0  0  0  0  0  0  0  0
  147.8902  138.7859  154.1220 H   0  0  0  0  0  0  0  0  0  0  0  0
  147.1838  138.7845  152.5207 H   0  0  0  0  0  0  0  0  0  0  0  0
  148.6662  140.7488  152.7573 H   0  0  0  0  0  0  0  0  0  0  0  0
  147.0203  141.2296  152.4945 H   0  0  0  0  0  0  0  0  0  0  0  0
  147.8615  142.6335  154.2339 H   0  0  0  0  0  0  0  0  0  0  0  0
  148.3285  140.8409  156.4463 H   0  0  0  0  0  0  0  0  0  0  0  0
  149.4032  140.4011  155.1518 H   0  0  0  0  0  0  0  0  0  0  0  0
  149.3364  143.2582  155.4977 H   0  0  0  0  0  0  0  0  0  0  0  0
  152.5187  143.5179  156.2956 H   0  0  0  0  0  0  0  0  0  0  0  0
  151.0150  144.4159  156.1595 H   0  0  0  0  0  0  0  0  0  0  0  0
  150.2691  145.7074  158.2390 H   0  0  0  0  0  0  0  0  0  0  0  0
  151.0674  145.7263  160.8485 H   0  0  0  0  0  0  0  0  0  0  0  0
  152.8668  143.6215  160.9649 H   0  0  0  0  0  0  0  0  0  0  0  0
  146.2563  142.0616  156.0942 H   0  0  0  0  0  0  0  0  0  0  0  0
  145.5691  142.0494  154.4936 H   0  0  0  0  0  0  0  0  0  0  0  0
  144.7707  140.1056  155.7259 H   0  0  0  0  0  0  0  0  0  0  0  0
  146.3917  139.5737  156.0967 H   0  0  0  0  0  0  0  0  0  0  0  0
  145.2419  139.7931  153.4099 H   0  0  0  0  0  0  0  0  0  0  0  0
  1  2  1  0  0  0  0
  1 21  1  0  0  0  0
  1 22  1  0  0  0  0
  1 23  1  0  0  0  0
  2  3  1  0  0  0  0
  3  4  1  0  0  0  0
  3 24  1  0  0  0  0
  3 25  1  0  0  0  0
  4  5  1  0  0  0  0
  4 26  1  0  0  0  0
  4 27  1  0  0  0  0
  5 20  1  0  0  0  0
  5  6  1  0  0  0  0
  5 45  1  0  0  0  0
  6  7  1  0  0  0  0
  6 28  1  0  0  0  0
  6 29  1  0  0  0  0
  7  8  1  0  0  0  0
  7 30  1  0  0  0  0
  7 31  1  0  0  0  0
  8  9  1  0  0  0  0
  8 19  1  0  0  0  0
  8 32  1  0  0  0  0
  9 10  1  0  0  0  0
  9 33  1  0  0  0  0
  9 34  1  0  0  0  0
 10 11  1  0  0  0  0
 10 35  1  0  0  0  0
 11 12  2  0  0  0  0
 11 13  1  0  0  0  0
 13 14  1  0  0  0  0
 13 36  1  0  0  0  0
 13 37  1  0  0  0  0
 14 18  1  0  0  0  0
 14 15  1  0  0  0  0
 15 16  2  0  0  0  0
 15 38  1  0  0  0  0
 16 17  1  0  0  0  0
 16 39  1  0  0  0  0
 17 18  2  0  0  0  0
 17 40  1  0  0  0  0
 19 20  1  0  0  0  0
 19 41  1  0  0  0  0
 19 42  1  0  0  0  0
 20 43  1  0  0  0  0
 20 44  1  0  0  0  0
M  CHG  1   5   1
M  END
> <s_m_source_file>
AV-unprocessed.smi

> <i_m_source_file_index>
1118

> <i_lp_mmshare_version>
43012

> <i_f3d_flags>
0

> <s_epik_input>
W0NIM11PW0NIMl1bQ0gyXU4xW0NIMl1bQ0gyXVtDSF0oW0NIMl1bQ0gyXTEpW0NIMl1bTkhdQyg9TylbQ0gyXW4yW2NIXVtjSF1bY0hdbjI=

> <s_epik_cmdline>
J2VwaWtfcHl0aG9uJywgJy1waCcsICc3LjAnLCAnLXRuJywgJzgnLCAnLW1hJywgJzIwMCcsICctbWV0YWxfYmluZGluZycsICctaW1hZScsICc8aW5maWxlLm1hZT4nLCAnLW9tYWUnLCAnPG91dGZpbGUubWFlPic=

> <r_lp_tautomer_probability>
1

> <r_epik_Ionization_Penalty>
0.00991549

> <r_epik_Ionization_Penalty_Charging>
0.00990284

> <r_epik_Ionization_Penalty_Neutral>
1.26554e-05

> <r_epik_State_Penalty>
0.00754525

> <r_epik_Charging_Adjusted_Penalty>
0.0174481

> <i_epik_Tot_Q>
1

> <i_epik_Tot_abs_Q>
1

> <r_epik_Metal_State_Penalty>
0.00754527

> <b_epik_Metal_Only>
0

> <s_lp_Force_Field>
OPLS_2005

> <r_lp_Energy>
20.3216

> <b_lp_Chiralities_Consistent>
1

> <s_lp_Variant>
AV-unprocessed.smi:1118-2

> <Gold.Version>
5.8.1

> <Gold.Id.Protein>
6NUR|6NUR_protein|mol2

> <Gold.PLP.Fitness>
45.7815

> <Gold.PLP.PLP>
-35.9730

> <Gold.PLP.part.hbond>
-1.7995

> <Gold.PLP.part.metal>
0.0000

> <Gold.PLP.part.buried>
-3.3082

> <Gold.PLP.part.nonpolar>
-32.9955

> <Gold.PLP.part.repulsive>
0.5571

> <Gold.PLP.ligand.clash>
0.0000

> <Gold.PLP.ligand.torsion>
1.2843

> <Gold.PLP.Chemscore.Hbond>
3.0000

> <Gold.PLP.Chemscore.CHOScore>
0.9991

> <Gold.PLP.Chemscore.Metal>
0.0000

> <Gold.Chemscore.Hbonds>
donor molecule, donor type, donor heavy atom, donor atom, acceptor molecule, acceptor atom, score
      L1  H     5    45       P1 10175  2.00
      L1  H    10    35       P1  8028  1.00
      L1  C    15    38       P1  8029  0.96

> <Gold.PLP.Chemscore.Internal.Correction>
0.3797

> <Gold.Rescore>
     Score         DG    S(hbond)    S(metal)    S(lipo)     H(rot)  DE(clash)    DE(int)     intcor
     14.58     -16.62       1.96        0.00      87.79       2.22       0.67       1.37       ----

> <Gold.Chemscore.Fitness>
14.5787

> <Gold.Chemscore.DG>
-16.6226

> <Gold.Chemscore.ZeroCoef>
-5.4800

> <Gold.Chemscore.Hbond>
1.9599

> <Gold.Chemscore.Metal>
0.0000

> <Gold.Chemscore.Lipo>
87.7867

> <Gold.Chemscore.Internal_Hbond>
0.0000

> <Gold.Chemscore.DEClash>
0.6733

> <Gold.Chemscore.DEInternal>
1.3706

> <Gold.Chemscore.Rot>
2.2166

> <Gold.Chemscore.Internal.Correction>
   9.000000E+99

> <Gold.Chemscore.Hbonds>
donor molecule, donor type, donor heavy atom, donor atom, acceptor molecule, acceptor atom, score
      L1  H     5    45       P1 10175  0.99
      L1  H    10    35       P1  8028  0.90

> <Gold.Chemscore.Hbond.Weighted>
-6.5461

> <Gold.Chemscore.Metal.Weighted>
-0.0000

> <Gold.Chemscore.Lipo.Weighted>
-10.2710

> <Gold.Chemscore.Internal_Hbond.Weighted>
0.0000

> <Gold.Chemscore.DEClash.Weighted>
0.6733

> <Gold.Chemscore.DEInternal.Weighted>
1.3706

> <Gold.Chemscore.Rot.Weighted>
5.6745

> <Gold.Chemscore.Internal.Correction.Weighted>
   9.000000E+99

> <Gold.Protein.RotatedTorsions>
[ 6907 6896 6895 6894 ] final  128.69 input  -60.11 | X-H torsion
[ 7974 7965 7964 7962 ] final   -2.56 input  175.53 | X-H torsion
[ 8008 7997 7996 7995 ] final  164.28 input   59.86 | X-H torsion
[ 10167 10162 10161 10158 ] final -111.17 input  -65.29 | X-H torsion
[ 10718 10713 10712 10709 ] final  -98.70 input   66.30 | X-H torsion
[ 10763 10752 10751 10750 ] final   15.79 input  -60.55 | X-H torsion
[ 11005 11000 10999 10996 ] final -118.28 input  -57.11 | X-H torsion

> <Gold.Protein.ActiveResidues>
 VAL166  LYS551  ARG553  GLY616  TRP617  ASP618  TYR619  PRO620  LYS621  CYS622 
 ASP623  PHE694  ASN695  SER759  ASP760  ASP761  ALA762  ILE779  LEU786  VAL792 
 PHE793  MET794  SER795  GLU796  ALA797  LYS798  CYS799  TRP800  GLU811  SER814 

> <Gold.Protein.RotatedAtoms>
  152.3695  133.6400  159.6076 H   0  0  0  0  0  0  0  0  0  0  0  0  # atno 6907 bound_to 6896
  150.7658  133.9293  159.3431 H   0  0  0  0  0  0  0  0  0  0  0  0  # atno 6908 bound_to 6896
  151.7118  135.0912  160.0320 H   0  0  0  0  0  0  0  0  0  0  0  0  # atno 6909 bound_to 6896
  146.2403  140.1589  142.8333 H   0  0  0  0  0  0  0  0  0  0  0  0  # atno 7974 bound_to 7965
  156.1892  140.1701  156.8125 H   0  0  0  0  0  0  0  0  0  0  0  0  # atno 8008 bound_to 7997
  154.5451  140.0729  156.8607 H   0  0  0  0  0  0  0  0  0  0  0  0  # atno 8009 bound_to 7997
  155.3138  140.3369  155.4245 H   0  0  0  0  0  0  0  0  0  0  0  0  # atno 8010 bound_to 7997
  140.1365  143.4316  152.1592 H   0  0  0  0  0  0  0  0  0  0  0  0  # atno 10167 bound_to 10162
  156.0114  130.5250  150.6562 H   0  0  0  0  0  0  0  0  0  0  0  0  # atno 10718 bound_to 10713
  153.1492  135.6775  153.8908 H   0  0  0  0  0  0  0  0  0  0  0  0  # atno 10763 bound_to 10752
  153.8340  135.3114  155.3422 H   0  0  0  0  0  0  0  0  0  0  0  0  # atno 10764 bound_to 10752
  154.7849  135.4868  154.0009 H   0  0  0  0  0  0  0  0  0  0  0  0  # atno 10765 bound_to 10752
  141.0297  134.0000  157.3162 H   0  0  0  0  0  0  0  0  0  0  0  0  # atno 11005 bound_to 11000
  145.0106  140.8710  143.5226 LP  0  0  0  0  0  0  0  0  0  0  0  0  # atno 17320 bound_to 7965
  145.1622  139.2452  143.5386 LP  0  0  0  0  0  0  0  0  0  0  0  0  # atno 17321 bound_to 7965
  139.5493  144.7325  151.4484 LP  0  0  0  0  0  0  0  0  0  0  0  0  # atno 17342 bound_to 10162
  140.6786  143.8133  150.7091 LP  0  0  0  0  0  0  0  0  0  0  0  0  # atno 17343 bound_to 10162
  157.4313  131.0849  151.1035 LP  0  0  0  0  0  0  0  0  0  0  0  0  # atno 17370 bound_to 10713
  157.1607  130.6224  149.5610 LP  0  0  0  0  0  0  0  0  0  0  0  0  # atno 17371 bound_to 10713
  139.9199  135.0200  156.8026 LP  0  0  0  0  0  0  0  0  0  0  0  0  # atno 17394 bound_to 11000
  140.6429  133.9802  155.7716 LP  0  0  0  0  0  0  0  0  0  0  0  0  # atno 17395 bound_to 11000

$$$$
