AV-unprocessed.smi:774|AV-procd|sdf|3694|dock8
  -GOLD-   22720 1113D 1   1.00000     0.00000
 Structure written by MMmdl.
 37 38  0  0  0  0  0  0  0  0  1 V2000
  154.5161  139.5263  161.3229 C   0  0  0  0  0  0  0  0  0  0  0  0
  153.5841  140.7392  161.2628 C   0  0  0  0  0  0  0  0  0  0  0  0
  153.0237  141.0629  159.5682 S   0  0  0  0  0  0  0  0  0  0  0  0
  152.0859  142.5986  159.8176 C   0  0  1  0  0  0  0  0  0  0  0  0
  152.8552  143.6514  160.6138 C   0  0  0  0  0  0  0  0  0  0  0  0
  152.1570  144.9689  160.2747 C   0  0  0  0  0  0  0  0  0  0  0  0
  151.5976  144.7998  158.8497 C   0  0  2  0  0  0  0  0  0  0  0  0
  150.1980  145.2140  158.7876 N   0  0  0  0  0  0  0  0  0  0  0  0
  149.2301  144.7870  159.6108 C   0  0  0  0  0  0  0  0  0  0  0  0
  149.4215  143.9928  160.5317 O   0  0  0  0  0  0  0  0  0  0  0  0
  148.0496  145.3548  159.3104 N   0  0  0  0  0  0  0  0  0  0  0  0
  146.7845  145.1197  159.9121 C   0  0  0  0  0  0  0  0  0  0  0  0
  146.6131  144.5390  161.1918 C   0  0  0  0  0  0  0  0  0  0  0  0
  145.3066  144.3317  161.6743 C   0  0  0  0  0  0  0  0  0  0  0  0
  144.2212  144.7062  160.8587 C   0  0  0  0  0  0  0  0  0  0  0  0
  144.3699  145.2479  159.6314 N   0  0  0  0  0  0  0  0  0  0  0  0
  145.6255  145.4419  159.1746 C   0  0  0  0  0  0  0  0  0  0  0  0
  151.7578  143.3071  158.5004 C   0  0  0  0  0  0  0  0  0  0  0  0
  154.8482  139.3424  162.3448 H   0  0  0  0  0  0  0  0  0  0  0  0
  155.4026  139.6818  160.7078 H   0  0  0  0  0  0  0  0  0  0  0  0
  154.0144  138.6257  160.9683 H   0  0  0  0  0  0  0  0  0  0  0  0
  152.7146  140.5745  161.8997 H   0  0  0  0  0  0  0  0  0  0  0  0
  154.1013  141.6197  161.6433 H   0  0  0  0  0  0  0  0  0  0  0  0
  151.1534  142.3649  160.3332 H   0  0  0  0  0  0  0  0  0  0  0  0
  152.8609  143.4514  161.6856 H   0  0  0  0  0  0  0  0  0  0  0  0
  153.8920  143.6900  160.2764 H   0  0  0  0  0  0  0  0  0  0  0  0
  151.3493  145.1365  160.9892 H   0  0  0  0  0  0  0  0  0  0  0  0
  152.8351  145.8194  160.3523 H   0  0  0  0  0  0  0  0  0  0  0  0
  152.1933  145.3983  158.1578 H   0  0  0  0  0  0  0  0  0  0  0  0
  149.9504  145.8719  158.0632 H   0  0  0  0  0  0  0  0  0  0  0  0
  148.0658  146.0698  158.5977 H   0  0  0  0  0  0  0  0  0  0  0  0
  147.4514  144.2362  161.8001 H   0  0  0  0  0  0  0  0  0  0  0  0
  145.1410  143.8905  162.6461 H   0  0  0  0  0  0  0  0  0  0  0  0
  143.2064  144.5605  161.1984 H   0  0  0  0  0  0  0  0  0  0  0  0
  145.7065  145.8737  158.1875 H   0  0  0  0  0  0  0  0  0  0  0  0
  152.5913  143.1970  157.8051 H   0  0  0  0  0  0  0  0  0  0  0  0
  150.8806  142.8786  158.0137 H   0  0  0  0  0  0  0  0  0  0  0  0
  1  2  1  0  0  0  0
  1 19  1  0  0  0  0
  1 20  1  0  0  0  0
  1 21  1  0  0  0  0
  2  3  1  0  0  0  0
  2 22  1  0  0  0  0
  2 23  1  0  0  0  0
  3  4  1  0  0  0  0
  4 18  1  0  0  0  0
  4  5  1  0  0  0  0
  4 24  1  0  0  0  0
  5  6  1  0  0  0  0
  5 25  1  0  0  0  0
  5 26  1  0  0  0  0
  6  7  1  0  0  0  0
  6 27  1  0  0  0  0
  6 28  1  0  0  0  0
  7  8  1  0  0  0  0
  7 18  1  0  0  0  0
  7 29  1  0  0  0  0
  8  9  1  0  0  0  0
  8 30  1  0  0  0  0
  9 10  2  0  0  0  0
  9 11  1  0  0  0  0
 11 12  1  0  0  0  0
 11 31  1  0  0  0  0
 12 17  1  0  0  0  0
 12 13  2  0  0  0  0
 13 14  1  0  0  0  0
 13 32  1  0  0  0  0
 14 15  2  0  0  0  0
 14 33  1  0  0  0  0
 15 16  1  0  0  0  0
 15 34  1  0  0  0  0
 16 17  2  0  0  0  0
 17 35  1  0  0  0  0
 18 36  1  0  0  0  0
 18 37  1  0  0  0  0
M  END
> <s_m_source_file>
AV-unprocessed.smi

> <i_m_source_file_index>
774

> <i_lp_mmshare_version>
43012

> <i_f3d_flags>
0

> <s_epik_input>
W0NIM11bQ0gyXVNbQ0BASF0xW0NIMl1bQ0gyXVtDQEhdKFtDSDJdMSlbTkhdQyg9TylbTkhdYzJbY0hdW2NIXVtjSF1uW2NIXTI=

> <s_epik_cmdline>
J2VwaWtfcHl0aG9uJywgJy1waCcsICc3LjAnLCAnLXRuJywgJzgnLCAnLW1hJywgJzIwMCcsICctbWV0YWxfYmluZGluZycsICctaW1hZScsICc8aW5maWxlLm1hZT4nLCAnLW9tYWUnLCAnPG91dGZpbGUubWFlPic=

> <r_epik_Ionization_Penalty>
0.00485718

> <r_epik_Ionization_Penalty_Charging>
0

> <r_epik_Ionization_Penalty_Neutral>
0.00485718

> <r_epik_State_Penalty>
0.00349461

> <r_epik_Charging_Adjusted_Penalty>
0.00349461

> <i_epik_Tot_Q>
0

> <i_epik_Tot_abs_Q>
0

> <r_epik_Metal_State_Penalty>
-0

> <b_epik_Metal_Only>
0

> <s_lp_Force_Field>
OPLS_2005

> <r_lp_Energy>
19.7013

> <b_lp_Chiralities_Consistent>
1

> <s_lp_Variant>
AV-unprocessed.smi:774-4

> <Gold.Version>
5.8.1

> <Gold.Id.Protein>
6NUR|6NUR_protein|mol2

> <Gold.PLP.Fitness>
45.7965

> <Gold.PLP.PLP>
-39.1351

> <Gold.PLP.part.hbond>
-2.5219

> <Gold.PLP.part.metal>
0.0000

> <Gold.PLP.part.buried>
-6.2103

> <Gold.PLP.part.nonpolar>
-30.1509

> <Gold.PLP.part.repulsive>
0.6134

> <Gold.PLP.ligand.clash>
0.0000

> <Gold.PLP.ligand.torsion>
0.2292

> <Gold.PLP.Chemscore.Hbond>
1.9122

> <Gold.PLP.Chemscore.CHOScore>
0.4567

> <Gold.PLP.Chemscore.Metal>
0.0000

> <Gold.Chemscore.Hbonds>
donor molecule, donor type, donor heavy atom, donor atom, acceptor molecule, acceptor atom, score
      L1  H     8    30       P1  8029  0.28
      L1  H    11    31       P1  8029  0.29
      P1  H  6933  6944       L1    10  0.40
      L1  C    17    35       P1  8029  0.75

> <Gold.PLP.Chemscore.Internal.Correction>
0.0134

> <Gold.Rescore>
     Score         DG    S(hbond)    S(metal)    S(lipo)     H(rot)  DE(clash)    DE(int)     intcor
     17.75     -20.61       1.54        0.00     113.74       1.30       0.21       2.65       ----

> <Gold.Chemscore.Fitness>
17.7452

> <Gold.Chemscore.DG>
-20.6053

> <Gold.Chemscore.ZeroCoef>
-5.4800

> <Gold.Chemscore.Hbond>
1.5436

> <Gold.Chemscore.Metal>
0.0000

> <Gold.Chemscore.Lipo>
113.7432

> <Gold.Chemscore.Internal_Hbond>
0.0000

> <Gold.Chemscore.DEClash>
0.2102

> <Gold.Chemscore.DEInternal>
2.6499

> <Gold.Chemscore.Rot>
1.3041

> <Gold.Chemscore.Internal.Correction>
   9.000000E+99

> <Gold.Chemscore.Hbonds>
donor molecule, donor type, donor heavy atom, donor atom, acceptor molecule, acceptor atom, score
      L1  H     8    30       P1  8029  0.10
      L1  H    11    31       P1  8029  0.30
      P1  H  6933  6944       L1    10  0.38

> <Gold.Chemscore.Hbond.Weighted>
-5.1557

> <Gold.Chemscore.Metal.Weighted>
-0.0000

> <Gold.Chemscore.Lipo.Weighted>
-13.3080

> <Gold.Chemscore.Internal_Hbond.Weighted>
0.0000

> <Gold.Chemscore.DEClash.Weighted>
0.2102

> <Gold.Chemscore.DEInternal.Weighted>
2.6499

> <Gold.Chemscore.Rot.Weighted>
3.3384

> <Gold.Chemscore.Internal.Correction.Weighted>
   9.000000E+99

> <Gold.Protein.RotatedTorsions>
[ 6907 6896 6895 6894 ] final   68.71 input  -60.11 | X-H torsion
[ 7974 7965 7964 7962 ] final -111.98 input  175.53 | X-H torsion
[ 8008 7997 7996 7995 ] final  102.73 input   59.86 | X-H torsion
[ 10167 10162 10161 10158 ] final  114.86 input  -65.29 | X-H torsion
[ 10718 10713 10712 10709 ] final  127.07 input   66.30 | X-H torsion
[ 10763 10752 10751 10750 ] final  129.20 input  -60.55 | X-H torsion
[ 11005 11000 10999 10996 ] final  174.51 input  -57.11 | X-H torsion

> <Gold.Protein.ActiveResidues>
 VAL166  LYS551  ARG553  GLY616  TRP617  ASP618  TYR619  PRO620  LYS621  CYS622 
 ASP623  PHE694  ASN695  SER759  ASP760  ASP761  ALA762  ILE779  LEU786  VAL792 
 PHE793  MET794  SER795  GLU796  ALA797  LYS798  CYS799  TRP800  GLU811  SER814 

> <Gold.Protein.RotatedAtoms>
  152.4638  134.5123  159.9757 H   0  0  0  0  0  0  0  0  0  0  0  0  # atno 6907 bound_to 6896
  151.5165  133.3469  159.2902 H   0  0  0  0  0  0  0  0  0  0  0  0  # atno 6908 bound_to 6896
  150.8613  134.7994  159.7147 H   0  0  0  0  0  0  0  0  0  0  0  0  # atno 6909 bound_to 6896
  145.1496  140.8822  143.3654 H   0  0  0  0  0  0  0  0  0  0  0  0  # atno 7974 bound_to 7965
  156.1420  140.3176  155.8510 H   0  0  0  0  0  0  0  0  0  0  0  0  # atno 8008 bound_to 7997
  155.4137  140.0507  157.3047 H   0  0  0  0  0  0  0  0  0  0  0  0  # atno 8009 bound_to 7997
  154.4984  140.2119  155.9411 H   0  0  0  0  0  0  0  0  0  0  0  0  # atno 8010 bound_to 7997
  139.6358  144.7119  151.2337 H   0  0  0  0  0  0  0  0  0  0  0  0  # atno 10167 bound_to 10162
  157.5365  131.1097  150.8927 H   0  0  0  0  0  0  0  0  0  0  0  0  # atno 10718 bound_to 10713
  153.7379  135.3228  155.3298 H   0  0  0  0  0  0  0  0  0  0  0  0  # atno 10763 bound_to 10752
  154.8304  135.4537  154.1056 H   0  0  0  0  0  0  0  0  0  0  0  0  # atno 10764 bound_to 10752
  153.2222  135.6949  153.8068 H   0  0  0  0  0  0  0  0  0  0  0  0  # atno 10765 bound_to 10752
  140.3521  134.7186  157.4275 H   0  0  0  0  0  0  0  0  0  0  0  0  # atno 11005 bound_to 11000
  145.0445  139.3232  143.5960 LP  0  0  0  0  0  0  0  0  0  0  0  0  # atno 17320 bound_to 7965
  146.3496  139.9831  142.8693 LP  0  0  0  0  0  0  0  0  0  0  0  0  # atno 17321 bound_to 7965
  140.7464  143.6398  150.8345 LP  0  0  0  0  0  0  0  0  0  0  0  0  # atno 17342 bound_to 10162
  140.0029  143.5725  152.2868 LP  0  0  0  0  0  0  0  0  0  0  0  0  # atno 17343 bound_to 10162
  156.9493  130.5413  149.5282 LP  0  0  0  0  0  0  0  0  0  0  0  0  # atno 17370 bound_to 10713
  156.0462  130.5538  150.8887 LP  0  0  0  0  0  0  0  0  0  0  0  0  # atno 17371 bound_to 10713
  140.0695  134.5883  155.8658 LP  0  0  0  0  0  0  0  0  0  0  0  0  # atno 17394 bound_to 11000
  141.2009  133.6615  156.5922 LP  0  0  0  0  0  0  0  0  0  0  0  0  # atno 17395 bound_to 11000

$$$$
