AV-unprocessed.smi:2519|AV-procd|sdf|9905|dock6
  -GOLD-   2272013543D 1   1.00000     0.00000
 Structure written by MMmdl.
 43 44  0  0  0  0  0  0  0  0  1 V2000
  147.7042  134.7604  154.3053 C   0  0  0  0  0  0  0  0  0  0  0  0
  147.7267  136.1898  154.0377 N   0  0  0  0  0  0  0  0  0  0  0  0
  147.4701  137.1390  154.9525 C   0  0  0  0  0  0  0  0  0  0  0  0
  147.1794  136.8823  156.1218 O   0  0  0  0  0  0  0  0  0  0  0  0
  147.5341  138.5627  154.4630 C   0  0  0  0  0  0  0  0  0  0  0  0
  147.0041  138.9009  153.1980 C   0  0  0  0  0  0  0  0  0  0  0  0
  147.0725  140.2392  152.7719 C   0  0  0  0  0  0  0  0  0  0  0  0
  147.6646  141.1937  153.6192 C   0  0  0  0  0  0  0  0  0  0  0  0
  148.1727  140.7853  154.8709 C   0  0  0  0  0  0  0  0  0  0  0  0
  148.7505  141.8185  155.6539 N   0  0  0  0  0  0  0  0  0  0  0  0
  149.2691  141.7368  156.8957 C   0  0  0  0  0  0  0  0  0  0  0  0
  149.3305  140.7052  157.5628 O   0  0  0  0  0  0  0  0  0  0  0  0
  149.7368  142.9036  157.3771 N   0  0  0  0  0  0  0  0  0  0  0  0
  150.3577  143.1698  158.6766 C   0  0  2  0  0  0  0  0  0  0  0  0
  150.8742  144.6212  158.7460 C   0  0  0  0  0  0  0  0  0  0  0  0
  151.5987  144.8915  160.0727 C   0  0  0  0  0  0  0  0  0  0  0  0
  152.7405  143.8888  160.3003 C   0  0  0  0  0  0  0  0  0  0  0  0
  152.2369  142.4312  160.2439 C   0  0  2  0  0  0  0  0  0  0  0  0
  153.3721  141.4164  160.4901 C   0  0  0  0  0  0  0  0  0  0  0  0
  154.4408  141.7104  159.7488 F   0  0  0  0  0  0  0  0  0  0  0  0
  153.7228  141.4274  161.7760 F   0  0  0  0  0  0  0  0  0  0  0  0
  152.9590  140.1868  160.1827 F   0  0  0  0  0  0  0  0  0  0  0  0
  151.5094  142.1733  158.9065 C   0  0  0  0  0  0  0  0  0  0  0  0
  148.0998  139.4927  155.2704 N   0  0  0  0  0  0  0  0  0  0  0  0
  147.9587  134.2092  153.4001 H   0  0  0  0  0  0  0  0  0  0  0  0
  146.7136  134.4416  154.6318 H   0  0  0  0  0  0  0  0  0  0  0  0
  148.4276  134.4991  155.0785 H   0  0  0  0  0  0  0  0  0  0  0  0
  147.9561  136.4859  153.0993 H   0  0  0  0  0  0  0  0  0  0  0  0
  146.5525  138.1554  152.5597 H   0  0  0  0  0  0  0  0  0  0  0  0
  146.6768  140.5293  151.8099 H   0  0  0  0  0  0  0  0  0  0  0  0
  147.7258  142.2264  153.3074 H   0  0  0  0  0  0  0  0  0  0  0  0
  148.7701  142.7306  155.2225 H   0  0  0  0  0  0  0  0  0  0  0  0
  149.6496  143.7027  156.7658 H   0  0  0  0  0  0  0  0  0  0  0  0
  149.6260  143.0128  159.4712 H   0  0  0  0  0  0  0  0  0  0  0  0
  151.5572  144.8101  157.9164 H   0  0  0  0  0  0  0  0  0  0  0  0
  150.0497  145.3258  158.6324 H   0  0  0  0  0  0  0  0  0  0  0  0
  151.9909  145.9088  160.0794 H   0  0  0  0  0  0  0  0  0  0  0  0
  150.8871  144.8294  160.8970 H   0  0  0  0  0  0  0  0  0  0  0  0
  153.5134  144.0429  159.5464 H   0  0  0  0  0  0  0  0  0  0  0  0
  153.2080  144.0879  161.2650 H   0  0  0  0  0  0  0  0  0  0  0  0
  151.5084  142.3029  161.0460 H   0  0  0  0  0  0  0  0  0  0  0  0
  151.1161  141.1561  158.8899 H   0  0  0  0  0  0  0  0  0  0  0  0
  152.2225  142.2397  158.0834 H   0  0  0  0  0  0  0  0  0  0  0  0
  1  2  1  0  0  0  0
  1 25  1  0  0  0  0
  1 26  1  0  0  0  0
  1 27  1  0  0  0  0
  2  3  1  0  0  0  0
  2 28  1  0  0  0  0
  3  4  2  0  0  0  0
  3  5  1  0  0  0  0
  5 24  1  0  0  0  0
  5  6  2  0  0  0  0
  6  7  1  0  0  0  0
  6 29  1  0  0  0  0
  7  8  2  0  0  0  0
  7 30  1  0  0  0  0
  8  9  1  0  0  0  0
  8 31  1  0  0  0  0
  9 10  1  0  0  0  0
  9 24  2  0  0  0  0
 10 11  1  0  0  0  0
 10 32  1  0  0  0  0
 11 12  2  0  0  0  0
 11 13  1  0  0  0  0
 13 14  1  0  0  0  0
 13 33  1  0  0  0  0
 14 23  1  0  0  0  0
 14 15  1  0  0  0  0
 14 34  1  0  0  0  0
 15 16  1  0  0  0  0
 15 35  1  0  0  0  0
 15 36  1  0  0  0  0
 16 17  1  0  0  0  0
 16 37  1  0  0  0  0
 16 38  1  0  0  0  0
 17 18  1  0  0  0  0
 17 39  1  0  0  0  0
 17 40  1  0  0  0  0
 18 19  1  0  0  0  0
 18 23  1  0  0  0  0
 18 41  1  0  0  0  0
 19 20  1  0  0  0  0
 19 21  1  0  0  0  0
 19 22  1  0  0  0  0
 23 42  1  0  0  0  0
 23 43  1  0  0  0  0
M  END
> <s_m_source_file>
AV-unprocessed.smi

> <i_m_source_file_index>
2519

> <i_lp_mmshare_version>
43012

> <i_f3d_flags>
0

> <s_epik_input>
W0NIM11bTkhdQyg9TyljMVtjSF1bY0hdW2NIXWMobjEpW05IXUMoPU8pW05IXVtDQEBIXTJbQ0gyXVtDSDJdW0NIMl1bQ0BASF0oQyhGKShGKUYpW0NIMl0y

> <s_epik_cmdline>
J2VwaWtfcHl0aG9uJywgJy1waCcsICc3LjAnLCAnLXRuJywgJzgnLCAnLW1hJywgJzIwMCcsICctbWV0YWxfYmluZGluZycsICctaW1hZScsICc8aW5maWxlLm1hZT4nLCAnLW9tYWUnLCAnPG91dGZpbGUubWFlPic=

> <r_lp_tautomer_probability>
1

> <r_epik_Ionization_Penalty>
3.74915e-05

> <r_epik_Ionization_Penalty_Charging>
0

> <r_epik_Ionization_Penalty_Neutral>
3.74915e-05

> <r_epik_State_Penalty>
-0

> <r_epik_Charging_Adjusted_Penalty>
0

> <i_epik_Tot_Q>
0

> <i_epik_Tot_abs_Q>
0

> <r_epik_Metal_State_Penalty>
-0

> <b_epik_Metal_Only>
0

> <s_lp_Force_Field>
OPLS_2005

> <r_lp_Energy>
27.0484

> <b_lp_Chiralities_Consistent>
1

> <s_lp_Variant>
AV-unprocessed.smi:2519-3

> <Gold.Version>
5.8.1

> <Gold.Id.Protein>
6NUR|6NUR_protein|mol2

> <Gold.PLP.Fitness>
47.4487

> <Gold.PLP.PLP>
-41.2307

> <Gold.PLP.part.hbond>
-3.0000

> <Gold.PLP.part.metal>
0.0000

> <Gold.PLP.part.buried>
-3.7345

> <Gold.PLP.part.nonpolar>
-34.3102

> <Gold.PLP.part.repulsive>
0.2003

> <Gold.PLP.ligand.clash>
0.0000

> <Gold.PLP.ligand.torsion>
1.0072

> <Gold.PLP.Chemscore.Hbond>
2.7369

> <Gold.PLP.Chemscore.CHOScore>
0.0000

> <Gold.PLP.Chemscore.Metal>
0.0000

> <Gold.Chemscore.Hbonds>
donor molecule, donor type, donor heavy atom, donor atom, acceptor molecule, acceptor atom, score
      L1  H     2    28       P1  7948  0.88
      L1  H    10    32       P1  8028  0.86
      L1  H    13    33       P1  8028  1.00

> <Gold.PLP.Chemscore.Internal.Correction>
0.0218

> <Gold.Rescore>
     Score         DG    S(hbond)    S(metal)    S(lipo)     H(rot)  DE(clash)    DE(int)     intcor
     19.54     -23.18       2.58        0.00      99.51       1.00       0.30       3.35       ----

> <Gold.Chemscore.Fitness>
19.5396

> <Gold.Chemscore.DG>
-23.1837

> <Gold.Chemscore.ZeroCoef>
-5.4800

> <Gold.Chemscore.Hbond>
2.5811

> <Gold.Chemscore.Metal>
0.0000

> <Gold.Chemscore.Lipo>
99.5108

> <Gold.Chemscore.Internal_Hbond>
0.0000

> <Gold.Chemscore.DEClash>
0.2950

> <Gold.Chemscore.DEInternal>
3.3490

> <Gold.Chemscore.Rot>
1.0000

> <Gold.Chemscore.Internal.Correction>
   9.000000E+99

> <Gold.Chemscore.Hbonds>
donor molecule, donor type, donor heavy atom, donor atom, acceptor molecule, acceptor atom, score
      L1  H     2    28       P1  7948  0.86
      L1  H    10    32       P1  8028  0.79
      L1  H    13    33       P1  8028  0.98

> <Gold.Chemscore.Hbond.Weighted>
-8.6209

> <Gold.Chemscore.Metal.Weighted>
-0.0000

> <Gold.Chemscore.Lipo.Weighted>
-11.6428

> <Gold.Chemscore.Internal_Hbond.Weighted>
0.0000

> <Gold.Chemscore.DEClash.Weighted>
0.2950

> <Gold.Chemscore.DEInternal.Weighted>
3.3490

> <Gold.Chemscore.Rot.Weighted>
2.5600

> <Gold.Chemscore.Internal.Correction.Weighted>
   9.000000E+99

> <Gold.Protein.RotatedTorsions>
[ 6907 6896 6895 6894 ] final   78.56 input  -60.11 | X-H torsion
[ 7974 7965 7964 7962 ] final  -94.57 input  175.53 | X-H torsion
[ 8008 7997 7996 7995 ] final -121.60 input   59.86 | X-H torsion
[ 10167 10162 10161 10158 ] final   97.74 input  -65.29 | X-H torsion
[ 10718 10713 10712 10709 ] final  -63.32 input   66.30 | X-H torsion
[ 10763 10752 10751 10750 ] final -106.54 input  -60.55 | X-H torsion
[ 11005 11000 10999 10996 ] final  -87.07 input  -57.11 | X-H torsion

> <Gold.Protein.ActiveResidues>
 VAL166  LYS551  ARG553  GLY616  TRP617  ASP618  TYR619  PRO620  LYS621  CYS622 
 ASP623  PHE694  ASN695  SER759  ASP760  ASP761  ALA762  ILE779  LEU786  VAL792 
 PHE793  MET794  SER795  GLU796  ALA797  LYS798  CYS799  TRP800  GLU811  SER814 

> <Gold.Protein.RotatedAtoms>
  152.5164  134.3645  159.9296 H   0  0  0  0  0  0  0  0  0  0  0  0  # atno 6907 bound_to 6896
  151.3598  133.3887  159.2696 H   0  0  0  0  0  0  0  0  0  0  0  0  # atno 6908 bound_to 6896
  150.9661  134.9061  159.7818 H   0  0  0  0  0  0  0  0  0  0  0  0  # atno 6909 bound_to 6896
  145.3716  140.9506  143.2444 H   0  0  0  0  0  0  0  0  0  0  0  0  # atno 7974 bound_to 7965
  155.1506  140.0403  157.2820 H   0  0  0  0  0  0  0  0  0  0  0  0  # atno 8008 bound_to 7997
  154.6407  140.2546  155.7299 H   0  0  0  0  0  0  0  0  0  0  0  0  # atno 8009 bound_to 7997
  156.2531  140.2856  156.0799 H   0  0  0  0  0  0  0  0  0  0  0  0  # atno 8010 bound_to 7997
  139.7773  144.6901  151.0072 H   0  0  0  0  0  0  0  0  0  0  0  0  # atno 10167 bound_to 10162
  156.0799  130.4219  150.1260 H   0  0  0  0  0  0  0  0  0  0  0  0  # atno 10718 bound_to 10713
  154.8018  135.4708  154.0295 H   0  0  0  0  0  0  0  0  0  0  0  0  # atno 10763 bound_to 10752
  153.1795  135.6838  153.8505 H   0  0  0  0  0  0  0  0  0  0  0  0  # atno 10764 bound_to 10752
  153.8060  135.3223  155.3373 H   0  0  0  0  0  0  0  0  0  0  0  0  # atno 10765 bound_to 10752
  141.1622  133.7490  156.9253 H   0  0  0  0  0  0  0  0  0  0  0  0  # atno 11005 bound_to 11000
  144.8572  139.5231  143.6829 LP  0  0  0  0  0  0  0  0  0  0  0  0  # atno 17320 bound_to 7965
  146.2883  139.7066  142.9179 LP  0  0  0  0  0  0  0  0  0  0  0  0  # atno 17321 bound_to 7965
  140.7817  143.4522  151.0396 LP  0  0  0  0  0  0  0  0  0  0  0  0  # atno 17342 bound_to 10162
  139.8204  143.7828  152.3176 LP  0  0  0  0  0  0  0  0  0  0  0  0  # atno 17343 bound_to 10162
  156.9293  130.9708  151.3535 LP  0  0  0  0  0  0  0  0  0  0  0  0  # atno 17370 bound_to 10713
  157.5911  130.8444  149.8660 LP  0  0  0  0  0  0  0  0  0  0  0  0  # atno 17371 bound_to 10713
  140.1423  134.9285  157.2483 LP  0  0  0  0  0  0  0  0  0  0  0  0  # atno 17394 bound_to 11000
  140.2821  134.3337  155.7340 LP  0  0  0  0  0  0  0  0  0  0  0  0  # atno 17395 bound_to 11000

$$$$
