AV-unprocessed.smi:965|AV-procd|sdf|4282|dock8
  -GOLD-   22720 2193D 1   1.00000     0.00000
 Structure written by MMmdl.
 29 30  0  0  0  0  0  0  0  0  2 V2000
  150.5958  138.7062  154.4365 C   0  0  0  0  0  0  0  0  0  0  0  0
  152.0277  139.0601  154.8511 C   0  0  0  0  0  0  0  0  0  0  0  0
  152.0810  139.8133  156.1381 C   0  0  0  0  0  0  0  0  0  0  0  0
  151.4341  140.9365  156.4394 N   0  0  0  0  0  0  0  0  0  0  0  0
  151.9083  141.1850  157.6923 C   0  0  0  0  0  0  0  0  0  0  0  0
  151.4798  142.3667  158.5071 C   0  0  1  0  0  0  0  0  0  0  0  0
  152.6726  143.2474  158.9255 C   0  0  0  0  0  0  0  0  0  0  0  0
  152.1875  144.4512  159.7479 C   0  0  0  0  0  0  0  0  0  0  0  0
  151.1004  145.2325  158.9908 C   0  0  0  0  0  0  0  0  0  0  0  0
  149.9727  144.3453  158.6307 N   0  3  0  0  0  0  0  0  0  0  0  0
  150.3852  143.1918  157.8005 C   0  0  0  0  0  0  0  0  0  0  0  0
  152.7895  140.3093  158.1607 N   0  0  0  0  0  0  0  0  0  0  0  0
  152.9210  139.3880  157.1119 O   0  0  0  0  0  0  0  0  0  0  0  0
  150.5878  138.1600  153.4932 H   0  0  0  0  0  0  0  0  0  0  0  0
  149.9909  139.6041  154.3070 H   0  0  0  0  0  0  0  0  0  0  0  0
  150.1124  138.0811  155.1879 H   0  0  0  0  0  0  0  0  0  0  0  0
  152.6215  138.1510  154.9512 H   0  0  0  0  0  0  0  0  0  0  0  0
  152.5021  139.6604  154.0741 H   0  0  0  0  0  0  0  0  0  0  0  0
  151.0376  141.9786  159.4271 H   0  0  0  0  0  0  0  0  0  0  0  0
  153.3901  142.6643  159.5043 H   0  0  0  0  0  0  0  0  0  0  0  0
  153.2014  143.6040  158.0404 H   0  0  0  0  0  0  0  0  0  0  0  0
  151.7926  144.1066  160.7046 H   0  0  0  0  0  0  0  0  0  0  0  0
  153.0270  145.1076  159.9786 H   0  0  0  0  0  0  0  0  0  0  0  0
  150.7266  146.0522  159.6051 H   0  0  0  0  0  0  0  0  0  0  0  0
  151.5130  145.6761  158.0836 H   0  0  0  0  0  0  0  0  0  0  0  0
  149.5551  143.9965  159.4817 H   0  0  0  0  0  0  0  0  0  0  0  0
  150.7437  143.5607  156.8384 H   0  0  0  0  0  0  0  0  0  0  0  0
  149.5110  142.5720  157.5993 H   0  0  0  0  0  0  0  0  0  0  0  0
  149.2817  144.8815  158.1253 H   0  0  0  0  0  0  0  0  0  0  0  0
  1  2  1  0  0  0  0
  1 14  1  0  0  0  0
  1 15  1  0  0  0  0
  1 16  1  0  0  0  0
  2  3  1  0  0  0  0
  2 17  1  0  0  0  0
  2 18  1  0  0  0  0
  3 13  1  0  0  0  0
  3  4  2  0  0  0  0
  4  5  1  0  0  0  0
  5  6  1  0  0  0  0
  5 12  2  0  0  0  0
  6 11  1  0  0  0  0
  6  7  1  0  0  0  0
  6 19  1  0  0  0  0
  7  8  1  0  0  0  0
  7 20  1  0  0  0  0
  7 21  1  0  0  0  0
  8  9  1  0  0  0  0
  8 22  1  0  0  0  0
  8 23  1  0  0  0  0
  9 10  1  0  0  0  0
  9 24  1  0  0  0  0
  9 25  1  0  0  0  0
 10 11  1  0  0  0  0
 10 26  1  0  0  0  0
 10 29  1  0  0  0  0
 11 27  1  0  0  0  0
 11 28  1  0  0  0  0
 12 13  1  0  0  0  0
M  CHG  1  10   1
M  END
> <s_m_source_file>
AV-unprocessed.smi

> <i_m_source_file_index>
965

> <i_lp_mmshare_version>
43012

> <i_f3d_flags>
0

> <s_epik_input>
W0NIM11bQ0gyXWMxbmMobm8xKVtDQEBIXTJbQ0gyXVtDSDJdW0NIMl1bTkhdW0NIMl0y

> <s_epik_cmdline>
J2VwaWtfcHl0aG9uJywgJy1waCcsICc3LjAnLCAnLXRuJywgJzgnLCAnLW1hJywgJzIwMCcsICctbWV0YWxfYmluZGluZycsICctaW1hZScsICc8aW5maWxlLm1hZT4nLCAnLW9tYWUnLCAnPG91dGZpbGUubWFlPic=

> <r_lp_tautomer_probability>
1

> <r_epik_Ionization_Penalty>
0.000532935

> <r_epik_Ionization_Penalty_Charging>
0.000532935

> <r_epik_Ionization_Penalty_Neutral>
3.47051e-13

> <r_epik_State_Penalty>
0.000332992

> <r_epik_Charging_Adjusted_Penalty>
0.000865928

> <i_epik_Tot_Q>
1

> <i_epik_Tot_abs_Q>
1

> <r_epik_Metal_State_Penalty>
-0

> <b_epik_Metal_Only>
0

> <s_lp_Force_Field>
OPLS_2005

> <r_lp_Energy>
5.49554

> <b_lp_Chiralities_Consistent>
1

> <s_lp_Variant>
AV-unprocessed.smi:965-2

> <Gold.Version>
5.8.1

> <Gold.Id.Protein>
6NUR|6NUR_protein|mol2

> <Gold.PLP.Fitness>
36.6127

> <Gold.PLP.PLP>
-28.7776

> <Gold.PLP.part.hbond>
-3.5201

> <Gold.PLP.part.metal>
0.0000

> <Gold.PLP.part.buried>
-1.3731

> <Gold.PLP.part.nonpolar>
-24.1100

> <Gold.PLP.part.repulsive>
0.1419

> <Gold.PLP.ligand.clash>
0.0000

> <Gold.PLP.ligand.torsion>
0.0827

> <Gold.PLP.Chemscore.Hbond>
2.6500

> <Gold.PLP.Chemscore.CHOScore>
0.0000

> <Gold.PLP.Chemscore.Metal>
0.0000

> <Gold.Chemscore.Hbonds>
donor molecule, donor type, donor heavy atom, donor atom, acceptor molecule, acceptor atom, score
      L1  H    10    29       P1  8029  2.00
      P1  H  7997  8010       L1    13  0.60

> <Gold.PLP.Chemscore.Internal.Correction>
0.0505

> <Gold.Rescore>
     Score         DG    S(hbond)    S(metal)    S(lipo)     H(rot)  DE(clash)    DE(int)     intcor
     13.19     -13.26       0.87        0.00      68.62       1.24       0.03       0.04       ----

> <Gold.Chemscore.Fitness>
13.1927

> <Gold.Chemscore.DG>
-13.2567

> <Gold.Chemscore.ZeroCoef>
-5.4800

> <Gold.Chemscore.Hbond>
0.8744

> <Gold.Chemscore.Metal>
0.0000

> <Gold.Chemscore.Lipo>
68.6208

> <Gold.Chemscore.Internal_Hbond>
0.0000

> <Gold.Chemscore.DEClash>
0.0265

> <Gold.Chemscore.DEInternal>
0.0375

> <Gold.Chemscore.Rot>
1.2392

> <Gold.Chemscore.Internal.Correction>
   9.000000E+99

> <Gold.Chemscore.Hbonds>
donor molecule, donor type, donor heavy atom, donor atom, acceptor molecule, acceptor atom, score
      L1  H    10    29       P1  8029  0.25
      P1  H  7997  8010       L1    13  0.01

> <Gold.Chemscore.Hbond.Weighted>
-2.9204

> <Gold.Chemscore.Metal.Weighted>
-0.0000

> <Gold.Chemscore.Lipo.Weighted>
-8.0286

> <Gold.Chemscore.Internal_Hbond.Weighted>
0.0000

> <Gold.Chemscore.DEClash.Weighted>
0.0265

> <Gold.Chemscore.DEInternal.Weighted>
0.0375

> <Gold.Chemscore.Rot.Weighted>
3.1723

> <Gold.Chemscore.Internal.Correction.Weighted>
   9.000000E+99

> <Gold.Protein.RotatedTorsions>
[ 6907 6896 6895 6894 ] final -165.29 input  -60.11 | X-H torsion
[ 7974 7965 7964 7962 ] final  106.30 input  175.53 | X-H torsion
[ 8008 7997 7996 7995 ] final   60.85 input   59.86 | X-H torsion
[ 10167 10162 10161 10158 ] final    7.10 input  -65.29 | X-H torsion
[ 10718 10713 10712 10709 ] final   53.93 input   66.30 | X-H torsion
[ 10763 10752 10751 10750 ] final  -21.08 input  -60.55 | X-H torsion
[ 11005 11000 10999 10996 ] final   70.54 input  -57.11 | X-H torsion

> <Gold.Protein.ActiveResidues>
 VAL166  LYS551  ARG553  GLY616  TRP617  ASP618  TYR619  PRO620  LYS621  CYS622 
 ASP623  PHE694  ASN695  SER759  ASP760  ASP761  ALA762  ILE779  LEU786  VAL792 
 PHE793  MET794  SER795  GLU796  ALA797  LYS798  CYS799  TRP800  GLU811  SER814 

> <Gold.Protein.RotatedAtoms>
  151.4254  133.3686  159.2761 H   0  0  0  0  0  0  0  0  0  0  0  0  # atno 6907 bound_to 6896
  150.9263  134.8681  159.7533 H   0  0  0  0  0  0  0  0  0  0  0  0  # atno 6908 bound_to 6896
  152.5006  134.4196  159.9528 H   0  0  0  0  0  0  0  0  0  0  0  0  # atno 6909 bound_to 6896
  145.3085  139.2547  143.3776 H   0  0  0  0  0  0  0  0  0  0  0  0  # atno 7974 bound_to 7965
  155.5889  140.3492  155.4561 H   0  0  0  0  0  0  0  0  0  0  0  0  # atno 8008 bound_to 7997
  156.0317  140.1276  157.0276 H   0  0  0  0  0  0  0  0  0  0  0  0  # atno 8009 bound_to 7997
  154.4355  140.1042  156.6094 H   0  0  0  0  0  0  0  0  0  0  0  0  # atno 8010 bound_to 7997
  140.6391  143.7817  150.7402 H   0  0  0  0  0  0  0  0  0  0  0  0  # atno 10167 bound_to 10162
  157.5211  130.8565  149.8560 H   0  0  0  0  0  0  0  0  0  0  0  0  # atno 10718 bound_to 10713
  153.6305  135.6989  153.5277 H   0  0  0  0  0  0  0  0  0  0  0  0  # atno 10763 bound_to 10752
  153.2864  135.4170  155.1125 H   0  0  0  0  0  0  0  0  0  0  0  0  # atno 10764 bound_to 10752
  154.8523  135.3614  154.5847 H   0  0  0  0  0  0  0  0  0  0  0  0  # atno 10765 bound_to 10752
  139.9592  134.7090  156.0684 H   0  0  0  0  0  0  0  0  0  0  0  0  # atno 11005 bound_to 11000
  146.3126  140.3615  142.8665 LP  0  0  0  0  0  0  0  0  0  0  0  0  # atno 17320 bound_to 7965
  144.9035  140.7672  143.5852 LP  0  0  0  0  0  0  0  0  0  0  0  0  # atno 17321 bound_to 7965
  140.1444  143.4412  152.2172 LP  0  0  0  0  0  0  0  0  0  0  0  0  # atno 17342 bound_to 10162
  139.5600  144.7399  151.4181 LP  0  0  0  0  0  0  0  0  0  0  0  0  # atno 17343 bound_to 10162
  156.0354  130.3753  150.1575 LP  0  0  0  0  0  0  0  0  0  0  0  0  # atno 17370 bound_to 10713
  156.9762  130.9850  151.3447 LP  0  0  0  0  0  0  0  0  0  0  0  0  # atno 17371 bound_to 10713
  141.1267  133.6597  156.3356 LP  0  0  0  0  0  0  0  0  0  0  0  0  # atno 17394 bound_to 11000
  140.5539  134.6001  157.5415 LP  0  0  0  0  0  0  0  0  0  0  0  0  # atno 17395 bound_to 11000

$$$$
