AV-unprocessed.smi:197|AV-procd|sdf|1549|dock10
  -GOLD-   2262019413D 1   1.00000     0.00000
 Structure written by MMmdl.
 54 57  0  0  0  0  0  0  0  0  1 V2000
  149.4081  140.6572  154.7937 C   0  0  0  0  0  0  0  0  0  0  0  0
  150.3682  139.8586  154.1182 O   0  0  0  0  0  0  0  0  0  0  0  0
  150.6659  138.6317  154.7703 C   0  0  0  0  0  0  0  0  0  0  0  0
  151.8005  138.7945  155.7984 C   0  0  0  0  0  0  0  0  0  0  0  0
  151.9444  137.5863  156.7570 C   0  0  1  0  0  0  0  0  0  0  0  0
  153.4156  137.2203  157.0530 C   0  0  0  0  0  0  0  0  0  0  0  0
  154.0208  138.2242  157.8615 O   0  0  0  0  0  0  0  0  0  0  0  0
  153.3828  138.3389  159.1285 C   0  0  0  0  0  0  0  0  0  0  0  0
  151.9131  138.7423  158.9322 C   0  0  0  0  0  0  0  0  0  0  0  0
  151.2465  137.8029  158.0301 N   0  0  0  0  0  0  0  0  0  0  0  0
  149.8875  137.8372  157.9686 C   0  0  0  0  0  0  0  0  0  0  0  0
  149.2712  138.8413  157.2880 N   0  0  0  0  0  0  0  0  0  0  0  0
  147.9414  138.8631  157.1662 C   0  0  0  0  0  0  0  0  0  0  0  0
  147.0475  137.9914  157.6342 N   0  0  0  0  0  0  0  0  0  0  0  0
  147.6541  136.9892  158.3313 C   0  0  0  0  0  0  0  0  0  0  0  0
  149.0527  136.8426  158.5557 C   0  0  0  0  0  0  0  0  0  0  0  0
  149.2865  135.7108  159.3289 N   0  0  0  0  0  0  0  0  0  0  0  0
  148.1009  135.2035  159.5245 C   0  0  0  0  0  0  0  0  0  0  0  0
  147.0646  135.8968  158.9425 N   0  0  0  0  0  0  0  0  0  0  0  0
  145.6555  135.5406  158.9683 C   0  0  0  0  0  0  0  0  0  0  0  0
  145.0859  135.4144  160.4024 C   0  0  1  0  0  0  0  0  0  0  0  0
  145.3792  136.6098  161.1082 O   0  0  0  0  0  0  0  0  0  0  0  0
  143.5780  135.2162  160.4138 C   0  0  0  0  0  0  0  0  0  0  0  0
  143.3433  134.5414  161.7583 C   0  0  0  0  0  0  0  0  0  0  0  0
  144.4547  133.6711  161.9119 O   0  0  0  0  0  0  0  0  0  0  0  0
  145.5787  134.1739  161.1905 C   0  0  2  0  0  0  0  0  0  0  0  0
  146.7719  134.3783  162.1417 C   0  0  0  0  0  0  0  0  0  0  0  0
  149.2059  141.5525  154.2060 H   0  0  0  0  0  0  0  0  0  0  0  0
  149.7583  140.9793  155.7739 H   0  0  0  0  0  0  0  0  0  0  0  0
  148.4661  140.1222  154.9188 H   0  0  0  0  0  0  0  0  0  0  0  0
  149.7702  138.2134  155.2329 H   0  0  0  0  0  0  0  0  0  0  0  0
  150.9718  137.9283  153.9967 H   0  0  0  0  0  0  0  0  0  0  0  0
  152.7407  138.9822  155.2790 H   0  0  0  0  0  0  0  0  0  0  0  0
  151.6026  139.6888  156.3873 H   0  0  0  0  0  0  0  0  0  0  0  0
  151.5082  136.7240  156.2574 H   0  0  0  0  0  0  0  0  0  0  0  0
  153.4707  136.2580  157.5649 H   0  0  0  0  0  0  0  0  0  0  0  0
  153.9895  137.1076  156.1343 H   0  0  0  0  0  0  0  0  0  0  0  0
  153.4568  137.3955  159.6719 H   0  0  0  0  0  0  0  0  0  0  0  0
  153.9031  139.0898  159.7227 H   0  0  0  0  0  0  0  0  0  0  0  0
  151.4110  138.7566  159.9005 H   0  0  0  0  0  0  0  0  0  0  0  0
  151.8540  139.7510  158.5221 H   0  0  0  0  0  0  0  0  0  0  0  0
  147.5366  139.6926  156.6054 H   0  0  0  0  0  0  0  0  0  0  0  0
  147.9496  134.2944  160.0884 H   0  0  0  0  0  0  0  0  0  0  0  0
  145.1002  136.2895  158.4020 H   0  0  0  0  0  0  0  0  0  0  0  0
  145.5326  134.5998  158.4303 H   0  0  0  0  0  0  0  0  0  0  0  0
  144.5719  136.9539  161.4592 H   0  0  0  0  0  0  0  0  0  0  0  0
  143.0114  136.1403  160.2919 H   0  0  0  0  0  0  0  0  0  0  0  0
  143.2790  134.5351  159.6159 H   0  0  0  0  0  0  0  0  0  0  0  0
  143.3505  135.2753  162.5653 H   0  0  0  0  0  0  0  0  0  0  0  0
  142.3991  133.9982  161.7995 H   0  0  0  0  0  0  0  0  0  0  0  0
  145.8367  133.3869  160.4818 H   0  0  0  0  0  0  0  0  0  0  0  0
  147.6422  134.7687  161.6147 H   0  0  0  0  0  0  0  0  0  0  0  0
  147.0642  133.4335  162.5996 H   0  0  0  0  0  0  0  0  0  0  0  0
  146.5296  135.0695  162.9490 H   0  0  0  0  0  0  0  0  0  0  0  0
  1  2  1  0  0  0  0
  1 28  1  0  0  0  0
  1 29  1  0  0  0  0
  1 30  1  0  0  0  0
  2  3  1  0  0  0  0
  3  4  1  0  0  0  0
  3 31  1  0  0  0  0
  3 32  1  0  0  0  0
  4  5  1  0  0  0  0
  4 33  1  0  0  0  0
  4 34  1  0  0  0  0
  5 10  1  0  0  0  0
  5  6  1  0  0  0  0
  5 35  1  0  0  0  0
  6  7  1  0  0  0  0
  6 36  1  0  0  0  0
  6 37  1  0  0  0  0
  7  8  1  0  0  0  0
  8  9  1  0  0  0  0
  8 38  1  0  0  0  0
  8 39  1  0  0  0  0
  9 10  1  0  0  0  0
  9 40  1  0  0  0  0
  9 41  1  0  0  0  0
 10 11  1  0  0  0  0
 11 16  1  0  0  0  0
 11 12  2  0  0  0  0
 12 13  1  0  0  0  0
 13 14  2  0  0  0  0
 13 42  1  0  0  0  0
 14 15  1  0  0  0  0
 15 19  1  0  0  0  0
 15 16  2  0  0  0  0
 16 17  1  0  0  0  0
 17 18  2  0  0  0  0
 18 19  1  0  0  0  0
 18 43  1  0  0  0  0
 19 20  1  0  0  0  0
 20 21  1  0  0  0  0
 20 44  1  0  0  0  0
 20 45  1  0  0  0  0
 21 26  1  0  0  0  0
 21 22  1  0  0  0  0
 21 23  1  0  0  0  0
 22 46  1  0  0  0  0
 23 24  1  0  0  0  0
 23 47  1  0  0  0  0
 23 48  1  0  0  0  0
 24 25  1  0  0  0  0
 24 49  1  0  0  0  0
 24 50  1  0  0  0  0
 25 26  1  0  0  0  0
 26 27  1  0  0  0  0
 26 51  1  0  0  0  0
 27 52  1  0  0  0  0
 27 53  1  0  0  0  0
 27 54  1  0  0  0  0
M  END
> <s_m_source_file>
AV-unprocessed.smi

> <i_m_source_file_index>
197

> <i_lp_mmshare_version>
43012

> <i_f3d_flags>
0

> <s_epik_input>
W0NIM11PW0NIMl1bQ0gyXVtDQEBIXTFbQ0gyXU9bQ0gyXVtDSDJdTjFjKG5bY0hdbjIpYyhjMjMpbltjSF1uM1tDSDJdW0NAQF00KFtPSF0pW0NIMl1bQ0gyXU9bQ0BIXTRbQ0gzXQ==

> <s_epik_cmdline>
J2VwaWtfcHl0aG9uJywgJy1waCcsICc3LjAnLCAnLXRuJywgJzgnLCAnLW1hJywgJzIwMCcsICctbWV0YWxfYmluZGluZycsICctaW1hZScsICc8aW5maWxlLm1hZT4nLCAnLW9tYWUnLCAnPG91dGZpbGUubWFlPic=

> <r_lp_tautomer_probability>
1

> <r_epik_Ionization_Penalty>
0.000106218

> <r_epik_Ionization_Penalty_Charging>
0

> <r_epik_Ionization_Penalty_Neutral>
0.000106218

> <r_epik_State_Penalty>
-0

> <r_epik_Charging_Adjusted_Penalty>
0

> <i_epik_Tot_Q>
0

> <i_epik_Tot_abs_Q>
0

> <r_epik_Metal_State_Penalty>
-0

> <b_epik_Metal_Only>
0

> <s_lp_Force_Field>
OPLS_2005

> <r_lp_Energy>
41.5492

> <b_lp_Chiralities_Consistent>
1

> <s_lp_Variant>
AV-unprocessed.smi:197-6

> <Gold.Version>
5.8.1

> <Gold.Id.Protein>
6NUR|6NUR_protein|mol2

> <Gold.PLP.Fitness>
46.0353

> <Gold.PLP.PLP>
-36.3668

> <Gold.PLP.part.hbond>
-3.9277

> <Gold.PLP.part.metal>
0.0000

> <Gold.PLP.part.buried>
-6.7956

> <Gold.PLP.part.nonpolar>
-27.1347

> <Gold.PLP.part.repulsive>
0.3748

> <Gold.PLP.ligand.clash>
0.0000

> <Gold.PLP.ligand.torsion>
1.0229

> <Gold.PLP.Chemscore.Hbond>
3.7120

> <Gold.PLP.Chemscore.CHOScore>
0.0000

> <Gold.PLP.Chemscore.Metal>
0.0000

> <Gold.Chemscore.Hbonds>
donor molecule, donor type, donor heavy atom, donor atom, acceptor molecule, acceptor atom, score
      P1  H  6896  6908       L1    17  1.00
      P1  H  7989  7998       L1     2  1.00
      P1  H  7997  8010       L1     7  0.95

> <Gold.PLP.Chemscore.Internal.Correction>
0.5784

> <Gold.Rescore>
     Score         DG    S(hbond)    S(metal)    S(lipo)     H(rot)  DE(clash)    DE(int)     intcor
     14.95     -17.21       3.13        0.00      72.99       2.84       0.10       2.16       ----

> <Gold.Chemscore.Fitness>
14.9514

> <Gold.Chemscore.DG>
-17.2106

> <Gold.Chemscore.ZeroCoef>
-5.4800

> <Gold.Chemscore.Hbond>
3.1288

> <Gold.Chemscore.Metal>
0.0000

> <Gold.Chemscore.Lipo>
72.9898

> <Gold.Chemscore.Internal_Hbond>
0.0000

> <Gold.Chemscore.DEClash>
0.1004

> <Gold.Chemscore.DEInternal>
2.1587

> <Gold.Chemscore.Rot>
2.8358

> <Gold.Chemscore.Internal.Correction>
   9.000000E+99

> <Gold.Chemscore.Hbonds>
donor molecule, donor type, donor heavy atom, donor atom, acceptor molecule, acceptor atom, score
      P1  H  6896  6908       L1    17  0.97
      P1  H  7989  7998       L1     2  0.73
      P1  H  7997  8010       L1     7  0.75

> <Gold.Chemscore.Hbond.Weighted>
-10.4503

> <Gold.Chemscore.Metal.Weighted>
-0.0000

> <Gold.Chemscore.Lipo.Weighted>
-8.5398

> <Gold.Chemscore.Internal_Hbond.Weighted>
0.0000

> <Gold.Chemscore.DEClash.Weighted>
0.1004

> <Gold.Chemscore.DEInternal.Weighted>
2.1587

> <Gold.Chemscore.Rot.Weighted>
7.2596

> <Gold.Chemscore.Internal.Correction.Weighted>
   9.000000E+99

> <Gold.Protein.RotatedTorsions>
[ 6907 6896 6895 6894 ] final  178.31 input  -60.11 | X-H torsion
[ 7974 7965 7964 7962 ] final  -20.93 input  175.53 | X-H torsion
[ 8008 7997 7996 7995 ] final   23.95 input   59.86 | X-H torsion
[ 10167 10162 10161 10158 ] final   49.78 input  -65.29 | X-H torsion
[ 10718 10713 10712 10709 ] final  162.01 input   66.30 | X-H torsion
[ 10763 10752 10751 10750 ] final   53.31 input  -60.55 | X-H torsion
[ 11005 11000 10999 10996 ] final -136.14 input  -57.11 | X-H torsion

> <Gold.Protein.ActiveResidues>
 VAL166  LYS551  ARG553  GLY616  TRP617  ASP618  TYR619  PRO620  LYS621  CYS622 
 ASP623  PHE694  ASN695  SER759  ASP760  ASP761  ALA762  ILE779  LEU786  VAL792 
 PHE793  MET794  SER795  GLU796  ALA797  LYS798  CYS799  TRP800  GLU811  SER814 

> <Gold.Protein.RotatedAtoms>
  151.6898  133.3311  159.3239 H   0  0  0  0  0  0  0  0  0  0  0  0  # atno 6907 bound_to 6896
  150.7784  134.6708  159.6400 H   0  0  0  0  0  0  0  0  0  0  0  0  # atno 6908 bound_to 6896
  152.3834  134.6559  160.0187 H   0  0  0  0  0  0  0  0  0  0  0  0  # atno 6909 bound_to 6896
  146.1761  140.4270  142.8513 H   0  0  0  0  0  0  0  0  0  0  0  0  # atno 7974 bound_to 7965
  154.9887  140.3111  155.4915 H   0  0  0  0  0  0  0  0  0  0  0  0  # atno 8008 bound_to 7997
  156.2943  140.2253  156.4931 H   0  0  0  0  0  0  0  0  0  0  0  0  # atno 8009 bound_to 7997
  154.7723  140.0451  157.1049 H   0  0  0  0  0  0  0  0  0  0  0  0  # atno 8010 bound_to 7997
  140.2793  144.3175  150.6268 H   0  0  0  0  0  0  0  0  0  0  0  0  # atno 10167 bound_to 10162
  157.1285  131.0510  151.2382 H   0  0  0  0  0  0  0  0  0  0  0  0  # atno 10718 bound_to 10713
  152.9794  135.5783  154.4721 H   0  0  0  0  0  0  0  0  0  0  0  0  # atno 10763 bound_to 10752
  154.4282  135.2773  155.1932 H   0  0  0  0  0  0  0  0  0  0  0  0  # atno 10764 bound_to 10752
  154.3651  135.6180  153.5765 H   0  0  0  0  0  0  0  0  0  0  0  0  # atno 10765 bound_to 10752
  140.8832  134.1905  157.4577 H   0  0  0  0  0  0  0  0  0  0  0  0  # atno 11005 bound_to 11000
  144.8239  140.6595  143.6335 LP  0  0  0  0  0  0  0  0  0  0  0  0  # atno 17320 bound_to 7965
  145.4207  139.1564  143.4075 LP  0  0  0  0  0  0  0  0  0  0  0  0  # atno 17321 bound_to 7965
  140.5825  143.2172  151.7402 LP  0  0  0  0  0  0  0  0  0  0  0  0  # atno 17342 bound_to 10162
  139.4967  144.4059  152.0132 LP  0  0  0  0  0  0  0  0  0  0  0  0  # atno 17343 bound_to 10162
  157.4413  130.7546  149.7072 LP  0  0  0  0  0  0  0  0  0  0  0  0  # atno 17370 bound_to 10713
  155.9813  130.4021  150.3480 LP  0  0  0  0  0  0  0  0  0  0  0  0  # atno 17371 bound_to 10713
  139.8722  134.9826  156.5165 LP  0  0  0  0  0  0  0  0  0  0  0  0  # atno 17394 bound_to 11000
  140.8436  133.8186  155.9099 LP  0  0  0  0  0  0  0  0  0  0  0  0  # atno 17395 bound_to 11000

$$$$
