AV-unprocessed.smi:2460|AV-procd|sdf|9715|dock10
  -GOLD-   2272013353D 1   1.00000     0.00000
 Structure written by MMmdl.
 46 48  0  0  0  0  0  0  0  0  1 V2000
  137.1301  139.8782  153.9167 C   0  0  0  0  0  0  0  0  0  0  0  0
  138.0258  138.6684  154.2327 C   0  0  0  0  0  0  0  0  0  0  0  0
  137.1902  137.3879  154.3826 C   0  0  0  0  0  0  0  0  0  0  0  0
  139.1565  138.5084  153.2086 C   0  0  0  0  0  0  0  0  0  0  0  0
  140.2840  139.3249  153.8085 C   0  0  2  0  0  0  0  0  0  0  0  0
  141.5889  138.8827  153.3207 N   0  0  0  0  0  0  0  0  0  0  0  0
  141.9412  137.6073  153.1105 C   0  0  0  0  0  0  0  0  0  0  0  0
  141.2037  136.6503  153.3444 O   0  0  0  0  0  0  0  0  0  0  0  0
  143.1789  137.5250  152.5946 N   0  0  0  0  0  0  0  0  0  0  0  0
  143.8839  136.3589  152.1954 C   0  0  0  0  0  0  0  0  0  0  0  0
  143.2422  135.1056  152.2820 C   0  0  0  0  0  0  0  0  0  0  0  0
  143.8551  133.9608  151.9121 N   0  0  0  0  0  0  0  0  0  0  0  0
  145.1065  134.0670  151.4567 C   0  0  0  0  0  0  0  0  0  0  0  0
  145.7736  132.7999  151.0203 C   0  0  0  0  0  0  0  0  0  0  0  0
  145.3689  132.1145  149.7311 C   0  0  0  0  0  0  0  0  0  0  0  0
  145.0271  131.4814  151.0509 C   0  0  0  0  0  0  0  0  0  0  0  0
  145.8037  135.1958  151.3004 N   0  0  0  0  0  0  0  0  0  0  0  0
  145.1995  136.3457  151.6701 C   0  0  0  0  0  0  0  0  0  0  0  0
  140.0796  139.1115  155.3245 C   0  0  0  0  0  0  0  0  0  0  0  0
  140.7448  137.8354  155.8830 C   0  0  0  0  0  0  0  0  0  0  0  0
  140.4899  140.3424  156.1481 C   0  0  0  0  0  0  0  0  0  0  0  0
  138.6721  138.9343  155.4766 O   0  0  0  0  0  0  0  0  0  0  0  0
  136.6089  139.7471  152.9682 H   0  0  0  0  0  0  0  0  0  0  0  0
  137.7096  140.7995  153.8522 H   0  0  0  0  0  0  0  0  0  0  0  0
  136.3765  140.0209  154.6916 H   0  0  0  0  0  0  0  0  0  0  0  0
  136.6958  137.1282  153.4464 H   0  0  0  0  0  0  0  0  0  0  0  0
  136.4196  137.5076  155.1446 H   0  0  0  0  0  0  0  0  0  0  0  0
  137.8128  136.5420  154.6757 H   0  0  0  0  0  0  0  0  0  0  0  0
  139.4537  137.4612  153.1333 H   0  0  0  0  0  0  0  0  0  0  0  0
  138.8794  138.8409  152.2077 H   0  0  0  0  0  0  0  0  0  0  0  0
  140.1162  140.3724  153.5495 H   0  0  0  0  0  0  0  0  0  0  0  0
  142.2584  139.6044  153.0978 H   0  0  0  0  0  0  0  0  0  0  0  0
  143.6367  138.4014  152.3908 H   0  0  0  0  0  0  0  0  0  0  0  0
  142.2327  135.0169  152.6559 H   0  0  0  0  0  0  0  0  0  0  0  0
  146.8279  132.7932  151.2903 H   0  0  0  0  0  0  0  0  0  0  0  0
  144.5519  132.5492  149.1585 H   0  0  0  0  0  0  0  0  0  0  0  0
  146.1576  131.6529  149.1406 H   0  0  0  0  0  0  0  0  0  0  0  0
  145.5860  130.5953  151.3441 H   0  0  0  0  0  0  0  0  0  0  0  0
  143.9825  131.4948  151.3560 H   0  0  0  0  0  0  0  0  0  0  0  0
  145.7767  137.2445  151.5194 H   0  0  0  0  0  0  0  0  0  0  0  0
  141.8326  137.9029  155.8537 H   0  0  0  0  0  0  0  0  0  0  0  0
  140.4505  136.9486  155.3214 H   0  0  0  0  0  0  0  0  0  0  0  0
  140.4590  137.6705  156.9221 H   0  0  0  0  0  0  0  0  0  0  0  0
  141.5615  140.5284  156.0759 H   0  0  0  0  0  0  0  0  0  0  0  0
  140.2486  140.2088  157.2028 H   0  0  0  0  0  0  0  0  0  0  0  0
  139.9726  141.2384  155.8043 H   0  0  0  0  0  0  0  0  0  0  0  0
  1  2  1  0  0  0  0
  1 23  1  0  0  0  0
  1 24  1  0  0  0  0
  1 25  1  0  0  0  0
  2 22  1  0  0  0  0
  2  3  1  0  0  0  0
  2  4  1  0  0  0  0
  3 26  1  0  0  0  0
  3 27  1  0  0  0  0
  3 28  1  0  0  0  0
  4  5  1  0  0  0  0
  4 29  1  0  0  0  0
  4 30  1  0  0  0  0
  5  6  1  0  0  0  0
  5 19  1  0  0  0  0
  5 31  1  0  0  0  0
  6  7  1  0  0  0  0
  6 32  1  0  0  0  0
  7  8  2  0  0  0  0
  7  9  1  0  0  0  0
  9 10  1  0  0  0  0
  9 33  1  0  0  0  0
 10 18  1  0  0  0  0
 10 11  2  0  0  0  0
 11 12  1  0  0  0  0
 11 34  1  0  0  0  0
 12 13  2  0  0  0  0
 13 14  1  0  0  0  0
 13 17  1  0  0  0  0
 14 16  1  0  0  0  0
 14 15  1  0  0  0  0
 14 35  1  0  0  0  0
 15 16  1  0  0  0  0
 15 36  1  0  0  0  0
 15 37  1  0  0  0  0
 16 38  1  0  0  0  0
 16 39  1  0  0  0  0
 17 18  2  0  0  0  0
 18 40  1  0  0  0  0
 19 20  1  0  0  0  0
 19 21  1  0  0  0  0
 19 22  1  0  0  0  0
 20 41  1  0  0  0  0
 20 42  1  0  0  0  0
 20 43  1  0  0  0  0
 21 44  1  0  0  0  0
 21 45  1  0  0  0  0
 21 46  1  0  0  0  0
M  END
> <s_m_source_file>
AV-unprocessed.smi

> <i_m_source_file_index>
2460

> <i_lp_mmshare_version>
43012

> <i_f3d_flags>
0

> <s_epik_input>
W0NIM11DMShbQ0gzXSlbQ0gyXVtDQEhdKEMoTzEpKFtDSDNdKVtDSDNdKVtOSF1DKD1PKVtOSF1jMltjSF1uYyhuW2NIXTIpW0NIXTNbQ0gyXVtDSDJdMw==

> <s_epik_cmdline>
J2VwaWtfcHl0aG9uJywgJy1waCcsICc3LjAnLCAnLXRuJywgJzgnLCAnLW1hJywgJzIwMCcsICctbWV0YWxfYmluZGluZycsICctaW1hZScsICc8aW5maWxlLm1hZT4nLCAnLW9tYWUnLCAnPG91dGZpbGUubWFlPic=

> <r_lp_tautomer_probability>
1

> <r_epik_Ionization_Penalty>
2.38399e-05

> <r_epik_Ionization_Penalty_Charging>
0

> <r_epik_Ionization_Penalty_Neutral>
2.38399e-05

> <r_epik_State_Penalty>
-0

> <r_epik_Charging_Adjusted_Penalty>
0

> <i_epik_Tot_Q>
0

> <i_epik_Tot_abs_Q>
0

> <r_epik_Metal_State_Penalty>
-0

> <b_epik_Metal_Only>
0

> <s_lp_Force_Field>
OPLS_2005

> <r_lp_Energy>
17.9428

> <b_lp_Chiralities_Consistent>
1

> <s_lp_Variant>
AV-unprocessed.smi:2460-2

> <Gold.Version>
5.8.1

> <Gold.Id.Protein>
6NUR|6NUR_protein|mol2

> <Gold.PLP.Fitness>
39.4393

> <Gold.PLP.PLP>
-34.1413

> <Gold.PLP.part.hbond>
-3.5512

> <Gold.PLP.part.metal>
0.0000

> <Gold.PLP.part.buried>
-5.9895

> <Gold.PLP.part.nonpolar>
-26.3048

> <Gold.PLP.part.repulsive>
0.5454

> <Gold.PLP.ligand.clash>
0.0000

> <Gold.PLP.ligand.torsion>
0.4426

> <Gold.PLP.Chemscore.Hbond>
1.9920

> <Gold.PLP.Chemscore.CHOScore>
0.0260

> <Gold.PLP.Chemscore.Metal>
0.0000

> <Gold.Chemscore.Hbonds>
donor molecule, donor type, donor heavy atom, donor atom, acceptor molecule, acceptor atom, score
      L1  H     6    32       P1 10175  1.00
      L1  H     9    33       P1 10175  0.98
      L1  C    18    40       P1 10171  0.04

> <Gold.PLP.Chemscore.Internal.Correction>
0.1292

> <Gold.Rescore>
     Score         DG    S(hbond)    S(metal)    S(lipo)     H(rot)  DE(clash)    DE(int)     intcor
     14.81     -18.67       1.86        0.00      85.44       1.18       0.45       3.41       ----

> <Gold.Chemscore.Fitness>
14.8111

> <Gold.Chemscore.DG>
-18.6655

> <Gold.Chemscore.ZeroCoef>
-5.4800

> <Gold.Chemscore.Hbond>
1.8580

> <Gold.Chemscore.Metal>
0.0000

> <Gold.Chemscore.Lipo>
85.4420

> <Gold.Chemscore.Internal_Hbond>
0.0000

> <Gold.Chemscore.DEClash>
0.4457

> <Gold.Chemscore.DEInternal>
3.4087

> <Gold.Chemscore.Rot>
1.1785

> <Gold.Chemscore.Internal.Correction>
   9.000000E+99

> <Gold.Chemscore.Hbonds>
donor molecule, donor type, donor heavy atom, donor atom, acceptor molecule, acceptor atom, score
      L1  H     6    32       P1 10175  0.91
      L1  H     9    33       P1 10175  0.87

> <Gold.Chemscore.Hbond.Weighted>
-6.2057

> <Gold.Chemscore.Metal.Weighted>
-0.0000

> <Gold.Chemscore.Lipo.Weighted>
-9.9967

> <Gold.Chemscore.Internal_Hbond.Weighted>
0.0000

> <Gold.Chemscore.DEClash.Weighted>
0.4457

> <Gold.Chemscore.DEInternal.Weighted>
3.4087

> <Gold.Chemscore.Rot.Weighted>
3.0169

> <Gold.Chemscore.Internal.Correction.Weighted>
   9.000000E+99

> <Gold.Protein.RotatedTorsions>
[ 6907 6896 6895 6894 ] final  -31.39 input  -60.11 | X-H torsion
[ 7974 7965 7964 7962 ] final  143.51 input  175.53 | X-H torsion
[ 8008 7997 7996 7995 ] final  -97.90 input   59.86 | X-H torsion
[ 10167 10162 10161 10158 ] final  -66.56 input  -65.29 | X-H torsion
[ 10718 10713 10712 10709 ] final  150.78 input   66.30 | X-H torsion
[ 10763 10752 10751 10750 ] final   13.84 input  -60.55 | X-H torsion
[ 11005 11000 10999 10996 ] final  177.60 input  -57.11 | X-H torsion

> <Gold.Protein.ActiveResidues>
 VAL166  LYS551  ARG553  GLY616  TRP617  ASP618  TYR619  PRO620  LYS621  CYS622 
 ASP623  PHE694  ASN695  SER759  ASP760  ASP761  ALA762  ILE779  LEU786  VAL792 
 PHE793  MET794  SER795  GLU796  ALA797  LYS798  CYS799  TRP800  GLU811  SER814 

> <Gold.Protein.RotatedAtoms>
  151.0927  134.9926  159.8410 H   0  0  0  0  0  0  0  0  0  0  0  0  # atno 6907 bound_to 6896
  152.5430  134.2046  159.8736 H   0  0  0  0  0  0  0  0  0  0  0  0  # atno 6908 bound_to 6896
  151.2083  133.4526  159.2631 H   0  0  0  0  0  0  0  0  0  0  0  0  # atno 6909 bound_to 6896
  144.8914  139.5553  143.5796 H   0  0  0  0  0  0  0  0  0  0  0  0  # atno 7974 bound_to 7965
  154.7939  140.0459  157.1222 H   0  0  0  0  0  0  0  0  0  0  0  0  # atno 8008 bound_to 7997
  154.9558  140.3071  155.5034 H   0  0  0  0  0  0  0  0  0  0  0  0  # atno 8009 bound_to 7997
  156.2953  140.2279  156.4640 H   0  0  0  0  0  0  0  0  0  0  0  0  # atno 8010 bound_to 7997
  140.5647  143.2314  151.6657 H   0  0  0  0  0  0  0  0  0  0  0  0  # atno 10167 bound_to 10162
  157.2790  131.0832  151.1545 H   0  0  0  0  0  0  0  0  0  0  0  0  # atno 10718 bound_to 10713
  153.1681  135.6807  153.8646 H   0  0  0  0  0  0  0  0  0  0  0  0  # atno 10763 bound_to 10752
  153.8019  135.3154  155.3392 H   0  0  0  0  0  0  0  0  0  0  0  0  # atno 10764 bound_to 10752
  154.7979  135.4796  154.0297 H   0  0  0  0  0  0  0  0  0  0  0  0  # atno 10765 bound_to 10752
  140.3858  134.6906  157.4478 H   0  0  0  0  0  0  0  0  0  0  0  0  # atno 11005 bound_to 11000
  146.3056  139.7569  142.9059 LP  0  0  0  0  0  0  0  0  0  0  0  0  # atno 17320 bound_to 7965
  145.3776  141.0353  143.3196 LP  0  0  0  0  0  0  0  0  0  0  0  0  # atno 17321 bound_to 7965
  139.5087  144.3601  152.0570 LP  0  0  0  0  0  0  0  0  0  0  0  0  # atno 17342 bound_to 10162
  140.2732  144.3941  150.6144 LP  0  0  0  0  0  0  0  0  0  0  0  0  # atno 17343 bound_to 10162
  157.2986  130.6832  149.6152 LP  0  0  0  0  0  0  0  0  0  0  0  0  # atno 17370 bound_to 10713
  155.9664  130.4399  150.5276 LP  0  0  0  0  0  0  0  0  0  0  0  0  # atno 17371 bound_to 10713
  140.0443  134.6221  155.8940 LP  0  0  0  0  0  0  0  0  0  0  0  0  # atno 17394 bound_to 11000
  141.1908  133.6569  156.5427 LP  0  0  0  0  0  0  0  0  0  0  0  0  # atno 17395 bound_to 11000

$$$$
