AV-unprocessed.smi:2147|AV-procd|sdf|8742|dock6
  -GOLD-   2272011513D 1   1.00000     0.00000
 Structure written by MMmdl.
 41 43  0  0  0  0  0  0  0  0  1 V2000
  149.9680  132.1433  158.6382 C   0  0  0  0  0  0  0  0  0  0  0  0
  149.3207  133.5089  158.4140 C   0  0  0  0  0  0  0  0  0  0  0  0
  148.2687  133.7672  158.9978 O   0  0  0  0  0  0  0  0  0  0  0  0
  150.0048  134.4600  157.4922 C   0  0  0  0  0  0  0  0  0  0  0  0
  151.1785  134.1039  156.7883 C   0  0  0  0  0  0  0  0  0  0  0  0
  151.7988  135.0254  155.9228 C   0  0  0  0  0  0  0  0  0  0  0  0
  151.2681  136.3172  155.7383 C   0  0  0  0  0  0  0  0  0  0  0  0
  151.9375  137.1529  154.8705 O   0  0  0  0  0  0  0  0  0  0  0  0
  151.4225  138.4625  154.6674 C   0  0  0  0  0  0  0  0  0  0  0  0
  152.0416  139.4132  155.7022 C   0  0  2  0  0  0  0  0  0  0  0  0
  153.4076  139.0788  155.8494 O   0  0  0  0  0  0  0  0  0  0  0  0
  151.3328  139.3366  157.0687 C   0  0  0  0  0  0  0  0  0  0  0  0
  151.9116  140.2387  158.0486 N   0  0  0  0  0  0  0  0  0  0  0  0
  152.7843  139.9222  159.0245 C   0  0  0  0  0  0  0  0  0  0  0  0
  153.1945  140.9072  159.8184 N   0  0  0  0  0  0  0  0  0  0  0  0
  152.5095  141.9909  159.2959 C   0  0  0  0  0  0  0  0  0  0  0  0
  152.5043  143.3488  159.6880 C   0  0  0  0  0  0  0  0  0  0  0  0
  151.7130  144.2892  158.9958 C   0  0  0  0  0  0  0  0  0  0  0  0
  150.9151  143.8876  157.9048 C   0  0  0  0  0  0  0  0  0  0  0  0
  150.9038  142.5404  157.4956 C   0  0  0  0  0  0  0  0  0  0  0  0
  151.6965  141.6056  158.1873 C   0  0  0  0  0  0  0  0  0  0  0  0
  150.0943  136.6760  156.4451 C   0  0  0  0  0  0  0  0  0  0  0  0
  149.4719  135.7558  157.3104 C   0  0  0  0  0  0  0  0  0  0  0  0
  150.0426  131.5963  157.6982 H   0  0  0  0  0  0  0  0  0  0  0  0
  149.3730  131.5486  159.3318 H   0  0  0  0  0  0  0  0  0  0  0  0
  150.9671  132.2578  159.0588 H   0  0  0  0  0  0  0  0  0  0  0  0
  151.6228  133.1257  156.8955 H   0  0  0  0  0  0  0  0  0  0  0  0
  152.6941  134.7355  155.3925 H   0  0  0  0  0  0  0  0  0  0  0  0
  151.6454  138.8146  153.6586 H   0  0  0  0  0  0  0  0  0  0  0  0
  150.3377  138.4451  154.7882 H   0  0  0  0  0  0  0  0  0  0  0  0
  151.9929  140.4343  155.3218 H   0  0  0  0  0  0  0  0  0  0  0  0
  153.5201  138.1698  155.6159 H   0  0  0  0  0  0  0  0  0  0  0  0
  150.2766  139.5862  156.9604 H   0  0  0  0  0  0  0  0  0  0  0  0
  151.3715  138.3207  157.4640 H   0  0  0  0  0  0  0  0  0  0  0  0
  153.1383  138.9104  159.1597 H   0  0  0  0  0  0  0  0  0  0  0  0
  153.1107  143.6677  160.5229 H   0  0  0  0  0  0  0  0  0  0  0  0
  151.7180  145.3244  159.3041 H   0  0  0  0  0  0  0  0  0  0  0  0
  150.3112  144.6148  157.3819 H   0  0  0  0  0  0  0  0  0  0  0  0
  150.2922  142.2288  156.6616 H   0  0  0  0  0  0  0  0  0  0  0  0
  149.6485  137.6537  156.3421 H   0  0  0  0  0  0  0  0  0  0  0  0
  148.5766  136.0600  157.8335 H   0  0  0  0  0  0  0  0  0  0  0  0
  1  2  1  0  0  0  0
  1 24  1  0  0  0  0
  1 25  1  0  0  0  0
  1 26  1  0  0  0  0
  2  3  2  0  0  0  0
  2  4  1  0  0  0  0
  4 23  1  0  0  0  0
  4  5  2  0  0  0  0
  5  6  1  0  0  0  0
  5 27  1  0  0  0  0
  6  7  2  0  0  0  0
  6 28  1  0  0  0  0
  7  8  1  0  0  0  0
  7 22  1  0  0  0  0
  8  9  1  0  0  0  0
  9 10  1  0  0  0  0
  9 29  1  0  0  0  0
  9 30  1  0  0  0  0
 10 11  1  0  0  0  0
 10 12  1  0  0  0  0
 10 31  1  0  0  0  0
 11 32  1  0  0  0  0
 12 13  1  0  0  0  0
 12 33  1  0  0  0  0
 12 34  1  0  0  0  0
 13 21  1  0  0  0  0
 13 14  1  0  0  0  0
 14 15  2  0  0  0  0
 14 35  1  0  0  0  0
 15 16  1  0  0  0  0
 16 21  2  0  0  0  0
 16 17  1  0  0  0  0
 17 18  2  0  0  0  0
 17 36  1  0  0  0  0
 18 19  1  0  0  0  0
 18 37  1  0  0  0  0
 19 20  2  0  0  0  0
 19 38  1  0  0  0  0
 20 21  1  0  0  0  0
 20 39  1  0  0  0  0
 22 23  2  0  0  0  0
 22 40  1  0  0  0  0
 23 41  1  0  0  0  0
M  END
> <s_m_source_file>
AV-unprocessed.smi

> <i_m_source_file_index>
2147

> <i_lp_mmshare_version>
43012

> <i_f3d_flags>
0

> <s_epik_input>
W0NIM11DKD1PKWMxW2NIXVtjSF1jKFtjSF1bY0hdMSlPW0NIMl1bQ0BIXShbT0hdKVtDSDJdbihbY0hdbjIpYyhjMjMpW2NIXVtjSF1bY0hdW2NIXTM=

> <s_epik_cmdline>
J2VwaWtfcHl0aG9uJywgJy1waCcsICc3LjAnLCAnLXRuJywgJzgnLCAnLW1hJywgJzIwMCcsICctbWV0YWxfYmluZGluZycsICctaW1hZScsICc8aW5maWxlLm1hZT4nLCAnLW9tYWUnLCAnPG91dGZpbGUubWFlPic=

> <r_lp_tautomer_probability>
0.99995

> <r_epik_Ionization_Penalty>
0.0583018

> <r_epik_Ionization_Penalty_Charging>
0

> <r_epik_Ionization_Penalty_Neutral>
0.0583018

> <r_epik_State_Penalty>
0.0504087

> <r_epik_Charging_Adjusted_Penalty>
0.0504087

> <i_epik_Tot_Q>
0

> <i_epik_Tot_abs_Q>
0

> <r_epik_Metal_State_Penalty>
5.26129e-05

> <b_epik_Metal_Only>
0

> <s_lp_Force_Field>
OPLS_2005

> <r_lp_Energy>
19.9149

> <b_lp_Chiralities_Consistent>
1

> <s_lp_Variant>
AV-unprocessed.smi:2147-1

> <Gold.Version>
5.8.1

> <Gold.Id.Protein>
6NUR|6NUR_protein|mol2

> <Gold.PLP.Fitness>
44.6448

> <Gold.PLP.PLP>
-39.9598

> <Gold.PLP.part.hbond>
-2.0000

> <Gold.PLP.part.metal>
0.0000

> <Gold.PLP.part.buried>
-5.8818

> <Gold.PLP.part.nonpolar>
-32.6164

> <Gold.PLP.part.repulsive>
0.1223

> <Gold.PLP.ligand.clash>
0.0000

> <Gold.PLP.ligand.torsion>
0.6688

> <Gold.PLP.Chemscore.Hbond>
1.9913

> <Gold.PLP.Chemscore.CHOScore>
0.0000

> <Gold.PLP.Chemscore.Metal>
0.0000

> <Gold.Chemscore.Hbonds>
donor molecule, donor type, donor heavy atom, donor atom, acceptor molecule, acceptor atom, score
      P1  H  7997  8010       L1    11  0.81
      P1  H 10752 10764       L1     8  0.24

> <Gold.PLP.Chemscore.Internal.Correction>
0.0489

> <Gold.Rescore>
     Score         DG    S(hbond)    S(metal)    S(lipo)     H(rot)  DE(clash)    DE(int)     intcor
     16.13     -16.79       1.60        0.00     103.56       2.40       0.00       0.66       ----

> <Gold.Chemscore.Fitness>
16.1347

> <Gold.Chemscore.DG>
-16.7934

> <Gold.Chemscore.ZeroCoef>
-5.4800

> <Gold.Chemscore.Hbond>
1.5995

> <Gold.Chemscore.Metal>
0.0000

> <Gold.Chemscore.Lipo>
103.5575

> <Gold.Chemscore.Internal_Hbond>
0.0000

> <Gold.Chemscore.DEClash>
0.0000

> <Gold.Chemscore.DEInternal>
0.6587

> <Gold.Chemscore.Rot>
2.4005

> <Gold.Chemscore.Internal.Correction>
   9.000000E+99

> <Gold.Chemscore.Hbonds>
donor molecule, donor type, donor heavy atom, donor atom, acceptor molecule, acceptor atom, score
      P1  H  7997  8010       L1    11  0.77

> <Gold.Chemscore.Hbond.Weighted>
-5.3425

> <Gold.Chemscore.Metal.Weighted>
-0.0000

> <Gold.Chemscore.Lipo.Weighted>
-12.1162

> <Gold.Chemscore.Internal_Hbond.Weighted>
0.0000

> <Gold.Chemscore.DEClash.Weighted>
0.0000

> <Gold.Chemscore.DEInternal.Weighted>
0.6587

> <Gold.Chemscore.Rot.Weighted>
6.1453

> <Gold.Chemscore.Internal.Correction.Weighted>
   9.000000E+99

> <Gold.Protein.RotatedTorsions>
[ 6907 6896 6895 6894 ] final  151.67 input  -60.11 | X-H torsion
[ 7974 7965 7964 7962 ] final  -11.37 input  175.53 | X-H torsion
[ 8008 7997 7996 7995 ] final   82.94 input   59.86 | X-H torsion
[ 10167 10162 10161 10158 ] final -162.18 input  -65.29 | X-H torsion
[ 10718 10713 10712 10709 ] final  -82.06 input   66.30 | X-H torsion
[ 10763 10752 10751 10750 ] final  -67.17 input  -60.55 | X-H torsion
[ 11005 11000 10999 10996 ] final  159.37 input  -57.11 | X-H torsion

> <Gold.Protein.ActiveResidues>
 VAL166  LYS551  ARG553  GLY616  TRP617  ASP618  TYR619  PRO620  LYS621  CYS622 
 ASP623  PHE694  ASN695  SER759  ASP760  ASP761  ALA762  ILE779  LEU786  VAL792 
 PHE793  MET794  SER795  GLU796  ALA797  LYS798  CYS799  TRP800  GLU811  SER814 

> <Gold.Protein.RotatedAtoms>
  152.0975  133.4232  159.4571 H   0  0  0  0  0  0  0  0  0  0  0  0  # atno 6907 bound_to 6896
  150.6863  134.2800  159.4632 H   0  0  0  0  0  0  0  0  0  0  0  0  # atno 6908 bound_to 6896
  152.0657  134.9565  160.0625 H   0  0  0  0  0  0  0  0  0  0  0  0  # atno 6909 bound_to 6896
  146.2190  140.2900  142.8368 H   0  0  0  0  0  0  0  0  0  0  0  0  # atno 7974 bound_to 7965
  155.9173  140.3423  155.6145 H   0  0  0  0  0  0  0  0  0  0  0  0  # atno 8008 bound_to 7997
  155.7316  140.0796  157.2305 H   0  0  0  0  0  0  0  0  0  0  0  0  # atno 8009 bound_to 7997
  154.4064  140.1587  156.2502 H   0  0  0  0  0  0  0  0  0  0  0  0  # atno 8010 bound_to 7997
  139.6411  144.0259  152.2092 H   0  0  0  0  0  0  0  0  0  0  0  0  # atno 10167 bound_to 10162
  156.0039  130.4622  150.4047 H   0  0  0  0  0  0  0  0  0  0  0  0  # atno 10718 bound_to 10713
  154.3706  135.6096  153.5738 H   0  0  0  0  0  0  0  0  0  0  0  0  # atno 10763 bound_to 10752
  152.9790  135.5837  154.4526 H   0  0  0  0  0  0  0  0  0  0  0  0  # atno 10764 bound_to 10752
  154.4279  135.2847  155.1909 H   0  0  0  0  0  0  0  0  0  0  0  0  # atno 10765 bound_to 10752
  140.1955  134.8376  157.2960 H   0  0  0  0  0  0  0  0  0  0  0  0  # atno 11005 bound_to 11000
  144.9134  140.7783  143.5793 LP  0  0  0  0  0  0  0  0  0  0  0  0  # atno 17320 bound_to 7965
  145.2832  139.1910  143.4780 LP  0  0  0  0  0  0  0  0  0  0  0  0  # atno 17321 bound_to 7965
  139.9948  144.6335  150.7782 LP  0  0  0  0  0  0  0  0  0  0  0  0  # atno 17342 bound_to 10162
  140.7491  143.2933  151.3272 LP  0  0  0  0  0  0  0  0  0  0  0  0  # atno 17343 bound_to 10162
  157.2114  131.0461  151.2597 LP  0  0  0  0  0  0  0  0  0  0  0  0  # atno 17370 bound_to 10713
  157.3885  130.7269  149.6681 LP  0  0  0  0  0  0  0  0  0  0  0  0  # atno 17371 bound_to 10713
  140.2112  134.4136  155.7612 LP  0  0  0  0  0  0  0  0  0  0  0  0  # atno 17394 bound_to 11000
  141.2227  133.7119  156.8341 LP  0  0  0  0  0  0  0  0  0  0  0  0  # atno 17395 bound_to 11000

$$$$
