AV-unprocessed.smi:119|AV-procd|sdf|1134|dock4
  -GOLD-   2262018263D 1   1.00000     0.00000
 Structure written by MMmdl.
 51 54  0  0  0  0  0  0  0  0  1 V2000
  152.6226  142.5136  159.9756 C   0  0  0  0  0  0  0  0  0  0  0  0
  152.3294  141.4196  158.9407 C   0  0  1  0  0  0  0  0  0  0  0  0
  152.7140  140.0280  159.4830 C   0  0  0  0  0  0  0  0  0  0  0  0
  152.6902  138.9006  158.4338 C   0  0  0  0  0  0  0  0  0  0  0  0
  151.3268  138.5637  158.0121 N   0  0  0  0  0  0  0  0  0  0  0  0
  150.5609  137.7150  158.7434 C   0  0  0  0  0  0  0  0  0  0  0  0
  150.9968  137.1328  159.7393 O   0  0  0  0  0  0  0  0  0  0  0  0
  149.0924  137.4800  158.3205 C   0  0  0  0  0  0  0  0  0  0  0  0
  148.5269  136.2189  158.8479 N   0  0  0  0  0  0  0  0  0  0  0  0
  148.5236  135.0691  158.0200 C   0  0  0  0  0  0  0  0  0  0  0  0
  148.9654  135.1075  156.8707 O   0  0  0  0  0  0  0  0  0  0  0  0
  147.9796  133.8589  158.6260 C   0  0  0  0  0  0  0  0  0  0  0  0
  147.9425  132.7181  157.9168 F   0  0  0  0  0  0  0  0  0  0  0  0
  147.5171  133.8635  159.8932 C   0  0  0  0  0  0  0  0  0  0  0  0
  147.5240  134.9948  160.6887 N   0  0  0  0  0  0  0  0  0  0  0  0
  147.0147  134.9620  162.1131 C   0  0  2  0  0  0  0  0  0  0  0  0
  146.5043  133.5591  162.4609 C   0  0  0  0  0  0  0  0  0  0  0  0
  145.0284  133.6795  162.1492 C   0  0  0  0  0  0  0  0  0  0  0  0
  144.7468  135.1230  162.5509 C   0  0  0  0  0  0  0  0  0  0  0  0
  145.9355  135.8442  162.2348 O   0  0  0  0  0  0  0  0  0  0  0  0
  148.0467  136.2029  160.1796 C   0  0  0  0  0  0  0  0  0  0  0  0
  148.0950  137.2147  160.8833 O   0  0  0  0  0  0  0  0  0  0  0  0
  150.8308  139.2336  156.8642 C   0  0  0  0  0  0  0  0  0  0  0  0
  150.7134  138.5321  155.6440 C   0  0  0  0  0  0  0  0  0  0  0  0
  150.2200  139.1845  154.4980 C   0  0  0  0  0  0  0  0  0  0  0  0
  149.8426  140.5391  154.5662 C   0  0  0  0  0  0  0  0  0  0  0  0
  149.9623  141.2439  155.7795 C   0  0  0  0  0  0  0  0  0  0  0  0
  150.4626  140.5985  156.9276 C   0  0  0  0  0  0  0  0  0  0  0  0
  150.5856  141.5143  158.4346 S   0  0  0  0  0  0  0  0  0  0  0  0
  153.6776  142.5239  160.2503 H   0  0  0  0  0  0  0  0  0  0  0  0
  152.0417  142.3627  160.8860 H   0  0  0  0  0  0  0  0  0  0  0  0
  152.3761  143.5005  159.5827 H   0  0  0  0  0  0  0  0  0  0  0  0
  152.9320  141.6309  158.0566 H   0  0  0  0  0  0  0  0  0  0  0  0
  153.7278  140.0831  159.8808 H   0  0  0  0  0  0  0  0  0  0  0  0
  152.0794  139.7687  160.3317 H   0  0  0  0  0  0  0  0  0  0  0  0
  153.2800  139.1956  157.5645 H   0  0  0  0  0  0  0  0  0  0  0  0
  153.1933  138.0170  158.8304 H   0  0  0  0  0  0  0  0  0  0  0  0
  148.4718  138.3150  158.6493 H   0  0  0  0  0  0  0  0  0  0  0  0
  149.0367  137.5170  157.2320 H   0  0  0  0  0  0  0  0  0  0  0  0
  147.1344  132.9358  160.2915 H   0  0  0  0  0  0  0  0  0  0  0  0
  147.8408  135.3026  162.7397 H   0  0  0  0  0  0  0  0  0  0  0  0
  147.0161  132.7765  161.8990 H   0  0  0  0  0  0  0  0  0  0  0  0
  146.6576  133.3872  163.5271 H   0  0  0  0  0  0  0  0  0  0  0  0
  144.8564  133.5422  161.0810 H   0  0  0  0  0  0  0  0  0  0  0  0
  144.4153  132.9581  162.6897 H   0  0  0  0  0  0  0  0  0  0  0  0
  143.8785  135.5395  162.0399 H   0  0  0  0  0  0  0  0  0  0  0  0
  144.5737  135.1907  163.6258 H   0  0  0  0  0  0  0  0  0  0  0  0
  150.9997  137.4919  155.5858 H   0  0  0  0  0  0  0  0  0  0  0  0
  150.1297  138.6452  153.5665 H   0  0  0  0  0  0  0  0  0  0  0  0
  149.4616  141.0389  153.6879 H   0  0  0  0  0  0  0  0  0  0  0  0
  149.6707  142.2829  155.8256 H   0  0  0  0  0  0  0  0  0  0  0  0
  1  2  1  0  0  0  0
  1 30  1  0  0  0  0
  1 31  1  0  0  0  0
  1 32  1  0  0  0  0
  2 29  1  0  0  0  0
  2  3  1  0  0  0  0
  2 33  1  0  0  0  0
  3  4  1  0  0  0  0
  3 34  1  0  0  0  0
  3 35  1  0  0  0  0
  4  5  1  0  0  0  0
  4 36  1  0  0  0  0
  4 37  1  0  0  0  0
  5  6  1  0  0  0  0
  5 23  1  0  0  0  0
  6  7  2  0  0  0  0
  6  8  1  0  0  0  0
  8  9  1  0  0  0  0
  8 38  1  0  0  0  0
  8 39  1  0  0  0  0
  9 21  1  0  0  0  0
  9 10  1  0  0  0  0
 10 11  2  0  0  0  0
 10 12  1  0  0  0  0
 12 13  1  0  0  0  0
 12 14  2  0  0  0  0
 14 15  1  0  0  0  0
 14 40  1  0  0  0  0
 15 16  1  0  0  0  0
 15 21  1  0  0  0  0
 16 20  1  0  0  0  0
 16 17  1  0  0  0  0
 16 41  1  0  0  0  0
 17 18  1  0  0  0  0
 17 42  1  0  0  0  0
 17 43  1  0  0  0  0
 18 19  1  0  0  0  0
 18 44  1  0  0  0  0
 18 45  1  0  0  0  0
 19 20  1  0  0  0  0
 19 46  1  0  0  0  0
 19 47  1  0  0  0  0
 21 22  2  0  0  0  0
 23 28  2  0  0  0  0
 23 24  1  0  0  0  0
 24 25  2  0  0  0  0
 24 48  1  0  0  0  0
 25 26  1  0  0  0  0
 25 49  1  0  0  0  0
 26 27  2  0  0  0  0
 26 50  1  0  0  0  0
 27 28  1  0  0  0  0
 27 51  1  0  0  0  0
 28 29  1  0  0  0  0
M  END
> <s_m_source_file>
AV-unprocessed.smi

> <i_m_source_file_index>
119

> <i_lp_mmshare_version>
43012

> <i_f3d_flags>
0

> <s_epik_input>
W2NIXTFbY0hdW2NIXVtjSF1jKGMxMilTW0NASF0oW0NIM10pW0NIMl1bQ0gyXU4yQyg9TylbQ0gyXW4zYyg9TyljKEYpW2NIXW4oYzM9TylbQ0BASF00W0NIMl1bQ0gyXVtDSDJdTzQ=

> <s_epik_cmdline>
J2VwaWtfcHl0aG9uJywgJy1waCcsICc3LjAnLCAnLXRuJywgJzgnLCAnLW1hJywgJzIwMCcsICctbWV0YWxfYmluZGluZycsICctaW1hZScsICc8aW5maWxlLm1hZT4nLCAnLW9tYWUnLCAnPG91dGZpbGUubWFlPic=

> <r_lp_tautomer_probability>
1

> <r_epik_Ionization_Penalty>
1.68882e-06

> <r_epik_Ionization_Penalty_Charging>
3.67303e-09

> <r_epik_Ionization_Penalty_Neutral>
1.68515e-06

> <r_epik_State_Penalty>
-0

> <r_epik_Charging_Adjusted_Penalty>
3.67303e-09

> <i_epik_Tot_Q>
0

> <i_epik_Tot_abs_Q>
0

> <r_epik_Metal_State_Penalty>
-0

> <b_epik_Metal_Only>
0

> <s_epik_Chemistry_Notes>
This compound contains an acetal/aminal-like group ( X-CH(R)-Y where X, Y are N, S, or O) that may be acid/base labile, releasing an aldehyde.

> <s_lp_Force_Field>
OPLS_2005

> <r_lp_Energy>
49.252

> <b_lp_Chiralities_Consistent>
1

> <s_lp_Variant>
AV-unprocessed.smi:119-2

> <Gold.Version>
5.8.1

> <Gold.Id.Protein>
6NUR|6NUR_protein|mol2

> <Gold.PLP.Fitness>
54.9398

> <Gold.PLP.PLP>
-48.6157

> <Gold.PLP.part.hbond>
-2.9926

> <Gold.PLP.part.metal>
0.0000

> <Gold.PLP.part.buried>
-4.2962

> <Gold.PLP.part.nonpolar>
-41.8853

> <Gold.PLP.part.repulsive>
0.0000

> <Gold.PLP.ligand.clash>
0.0000

> <Gold.PLP.ligand.torsion>
0.6290

> <Gold.PLP.Chemscore.Hbond>
2.5196

> <Gold.PLP.Chemscore.CHOScore>
0.0000

> <Gold.PLP.Chemscore.Metal>
0.0000

> <Gold.Chemscore.Hbonds>
donor molecule, donor type, donor heavy atom, donor atom, acceptor molecule, acceptor atom, score
      P1  H  6896  6907       L1     7  1.00
      P1  H  6931  6943       L1    22  0.90
      P1  H  6934  6947       L1    22  0.69

> <Gold.PLP.Chemscore.Internal.Correction>
0.0231

> <Gold.Rescore>
     Score         DG    S(hbond)    S(metal)    S(lipo)     H(rot)  DE(clash)    DE(int)     intcor
     21.15     -22.09       2.53        0.00     103.16       1.53       0.01       0.92       ----

> <Gold.Chemscore.Fitness>
21.1541

> <Gold.Chemscore.DG>
-22.0902

> <Gold.Chemscore.ZeroCoef>
-5.4800

> <Gold.Chemscore.Hbond>
2.5295

> <Gold.Chemscore.Metal>
0.0000

> <Gold.Chemscore.Lipo>
103.1609

> <Gold.Chemscore.Internal_Hbond>
0.0000

> <Gold.Chemscore.DEClash>
0.0149

> <Gold.Chemscore.DEInternal>
0.9212

> <Gold.Chemscore.Rot>
1.5266

> <Gold.Chemscore.Internal.Correction>
   9.000000E+99

> <Gold.Chemscore.Hbonds>
donor molecule, donor type, donor heavy atom, donor atom, acceptor molecule, acceptor atom, score
      P1  H  6896  6907       L1     7  0.94
      P1  H  6931  6943       L1    22  0.88
      P1  H  6934  6947       L1    22  0.66

> <Gold.Chemscore.Hbond.Weighted>
-8.4484

> <Gold.Chemscore.Metal.Weighted>
-0.0000

> <Gold.Chemscore.Lipo.Weighted>
-12.0698

> <Gold.Chemscore.Internal_Hbond.Weighted>
0.0000

> <Gold.Chemscore.DEClash.Weighted>
0.0149

> <Gold.Chemscore.DEInternal.Weighted>
0.9212

> <Gold.Chemscore.Rot.Weighted>
3.9081

> <Gold.Chemscore.Internal.Correction.Weighted>
   9.000000E+99

> <Gold.Protein.RotatedTorsions>
[ 6907 6896 6895 6894 ] final  -10.73 input  -60.11 | X-H torsion
[ 7974 7965 7964 7962 ] final  -34.74 input  175.53 | X-H torsion
[ 8008 7997 7996 7995 ] final  145.95 input   59.86 | X-H torsion
[ 10167 10162 10161 10158 ] final  -18.64 input  -65.29 | X-H torsion
[ 10718 10713 10712 10709 ] final  -59.21 input   66.30 | X-H torsion
[ 10763 10752 10751 10750 ] final   72.12 input  -60.55 | X-H torsion
[ 11005 11000 10999 10996 ] final   17.18 input  -57.11 | X-H torsion

> <Gold.Protein.ActiveResidues>
 VAL166  LYS551  ARG553  GLY616  TRP617  ASP618  TYR619  PRO620  LYS621  CYS622 
 ASP623  PHE694  ASN695  SER759  ASP760  ASP761  ALA762  ILE779  LEU786  VAL792 
 PHE793  MET794  SER795  GLU796  ALA797  LYS798  CYS799  TRP800  GLU811  SER814 

> <Gold.Protein.RotatedAtoms>
  151.3973  135.0965  159.9544 H   0  0  0  0  0  0  0  0  0  0  0  0  # atno 6907 bound_to 6896
  152.5061  133.8922  159.7410 H   0  0  0  0  0  0  0  0  0  0  0  0  # atno 6908 bound_to 6896
  150.9388  133.6624  159.2823 H   0  0  0  0  0  0  0  0  0  0  0  0  # atno 6909 bound_to 6896
  146.0805  140.6075  142.8910 H   0  0  0  0  0  0  0  0  0  0  0  0  # atno 7974 bound_to 7965
  156.2869  140.2195  156.5298 H   0  0  0  0  0  0  0  0  0  0  0  0  # atno 8008 bound_to 7997
  154.7458  140.0484  157.0873 H   0  0  0  0  0  0  0  0  0  0  0  0  # atno 8009 bound_to 7997
  155.0172  140.3120  155.4810 H   0  0  0  0  0  0  0  0  0  0  0  0  # atno 8010 bound_to 7997
  140.7261  143.4896  151.0009 H   0  0  0  0  0  0  0  0  0  0  0  0  # atno 10167 bound_to 10162
  156.1078  130.4178  150.0684 H   0  0  0  0  0  0  0  0  0  0  0  0  # atno 10718 bound_to 10713
  153.0439  135.5112  154.7695 H   0  0  0  0  0  0  0  0  0  0  0  0  # atno 10763 bound_to 10752
  154.6611  135.2939  154.9868 H   0  0  0  0  0  0  0  0  0  0  0  0  # atno 10764 bound_to 10752
  154.0719  135.6676  153.4878 H   0  0  0  0  0  0  0  0  0  0  0  0  # atno 10765 bound_to 10752
  140.4388  134.1343  155.7688 H   0  0  0  0  0  0  0  0  0  0  0  0  # atno 11005 bound_to 11000
  144.7290  140.4613  143.6952 LP  0  0  0  0  0  0  0  0  0  0  0  0  # atno 17320 bound_to 7965
  145.6227  139.1526  143.3013 LP  0  0  0  0  0  0  0  0  0  0  0  0  # atno 17321 bound_to 7965
  139.8600  143.7327  152.3174 LP  0  0  0  0  0  0  0  0  0  0  0  0  # atno 17342 bound_to 10162
  139.7539  144.7526  151.0465 LP  0  0  0  0  0  0  0  0  0  0  0  0  # atno 17343 bound_to 10162
  156.8655  130.9506  151.3614 LP  0  0  0  0  0  0  0  0  0  0  0  0  # atno 17370 bound_to 10713
  157.6257  130.8689  149.9185 LP  0  0  0  0  0  0  0  0  0  0  0  0  # atno 17371 bound_to 10713
  141.1714  133.8600  157.1557 LP  0  0  0  0  0  0  0  0  0  0  0  0  # atno 17394 bound_to 11000
  140.0084  134.9998  157.0342 LP  0  0  0  0  0  0  0  0  0  0  0  0  # atno 17395 bound_to 11000

$$$$
