AV-unprocessed.smi:1626|AV-procd|sdf|6512|dock1
  -GOLD-   22720 7183D 1   1.00000     0.00000
 Structure written by MMmdl.
 49 51  0  0  0  0  0  0  0  0  3 V2000
  152.7803  141.8444  161.3321 C   0  0  0  0  0  0  0  0  0  0  0  0
  152.3316  141.3671  159.9614 C   0  0  0  0  0  0  0  0  0  0  0  0
  151.3897  142.1457  159.2513 C   0  0  0  0  0  0  0  0  0  0  0  0
  151.0019  141.6854  157.9986 C   0  0  0  0  0  0  0  0  0  0  0  0
  150.1138  142.2182  157.0616 N   0  3  0  0  0  0  0  0  0  0  0  0
  150.0633  141.4060  155.9697 C   0  0  0  0  0  0  0  0  0  0  0  0
  150.8968  140.3549  156.2018 N   0  0  0  0  0  0  0  0  0  0  0  0
  151.2209  139.1992  155.3553 C   0  0  0  0  0  0  0  0  0  0  0  0
  149.9930  138.3327  155.0053 C   0  0  2  0  0  0  0  0  0  0  0  0
  150.4123  137.3827  154.0468 O   0  0  0  0  0  0  0  0  0  0  0  0
  148.8125  139.1474  154.4302 C   0  0  0  0  0  0  0  0  0  0  0  0
  147.8718  138.3173  153.6342 N   0  3  2  0  0  0  0  0  0  0  0  0
  147.0198  139.1396  152.7369 C   0  0  0  0  0  0  0  0  0  0  0  0
  146.1614  138.2547  151.8151 C   0  0  0  0  0  0  0  0  0  0  0  0
  145.3128  137.2483  152.6092 C   0  0  2  0  0  0  0  0  0  0  0  0
  144.2871  137.9240  153.3087 O   0  0  0  0  0  0  0  0  0  0  0  0
  146.1974  136.4624  153.5911 C   0  0  0  0  0  0  0  0  0  0  0  0
  147.0530  137.3957  154.4673 C   0  0  0  0  0  0  0  0  0  0  0  0
  151.5130  140.4934  157.4500 C   0  0  0  0  0  0  0  0  0  0  0  0
  152.4426  139.7149  158.1349 C   0  0  0  0  0  0  0  0  0  0  0  0
  152.8514  140.1674  159.4097 C   0  0  0  0  0  0  0  0  0  0  0  0
  153.8656  139.3401  160.1811 C   0  0  0  0  0  0  0  0  0  0  0  0
  152.3169  142.7960  161.5955 H   0  0  0  0  0  0  0  0  0  0  0  0
  153.8612  141.9846  161.3550 H   0  0  0  0  0  0  0  0  0  0  0  0
  152.5083  141.1180  162.0982 H   0  0  0  0  0  0  0  0  0  0  0  0
  150.9921  143.0616  159.6641 H   0  0  0  0  0  0  0  0  0  0  0  0
  149.4679  141.5664  155.0821 H   0  0  0  0  0  0  0  0  0  0  0  0
  151.6835  139.5844  154.4452 H   0  0  0  0  0  0  0  0  0  0  0  0
  151.9842  138.6088  155.8647 H   0  0  0  0  0  0  0  0  0  0  0  0
  149.6855  137.7903  155.8978 H   0  0  0  0  0  0  0  0  0  0  0  0
  149.8035  137.3815  153.3242 H   0  0  0  0  0  0  0  0  0  0  0  0
  148.2504  139.6399  155.2245 H   0  0  0  0  0  0  0  0  0  0  0  0
  149.2195  139.9477  153.8099 H   0  0  0  0  0  0  0  0  0  0  0  0
  146.3852  139.7953  153.3353 H   0  0  0  0  0  0  0  0  0  0  0  0
  147.6480  139.7849  152.1214 H   0  0  0  0  0  0  0  0  0  0  0  0
  145.5224  138.8757  151.1860 H   0  0  0  0  0  0  0  0  0  0  0  0
  146.8180  137.7094  151.1360 H   0  0  0  0  0  0  0  0  0  0  0  0
  144.8304  136.5562  151.9184 H   0  0  0  0  0  0  0  0  0  0  0  0
  144.3283  138.8438  153.0926 H   0  0  0  0  0  0  0  0  0  0  0  0
  145.5845  135.8139  154.2186 H   0  0  0  0  0  0  0  0  0  0  0  0
  146.8573  135.8023  153.0265 H   0  0  0  0  0  0  0  0  0  0  0  0
  147.6925  136.7872  155.1052 H   0  0  0  0  0  0  0  0  0  0  0  0
  146.4132  137.9772  155.1330 H   0  0  0  0  0  0  0  0  0  0  0  0
  152.8418  138.8042  157.7132 H   0  0  0  0  0  0  0  0  0  0  0  0
  154.1527  138.4445  159.6294 H   0  0  0  0  0  0  0  0  0  0  0  0
  153.4534  139.0231  161.1394 H   0  0  0  0  0  0  0  0  0  0  0  0
  154.7701  139.9198  160.3673 H   0  0  0  0  0  0  0  0  0  0  0  0
  148.4410  137.7445  153.0281 H   0  0  0  0  0  0  0  0  0  0  0  0
  149.5863  143.0772  157.1546 H   0  0  0  0  0  0  0  0  0  0  0  0
  1  2  1  0  0  0  0
  1 23  1  0  0  0  0
  1 24  1  0  0  0  0
  1 25  1  0  0  0  0
  2 21  1  0  0  0  0
  2  3  2  0  0  0  0
  3  4  1  0  0  0  0
  3 26  1  0  0  0  0
  4 19  2  0  0  0  0
  4  5  1  0  0  0  0
  5  6  2  0  0  0  0
  5 49  1  0  0  0  0
  6  7  1  0  0  0  0
  6 27  1  0  0  0  0
  7  8  1  0  0  0  0
  7 19  1  0  0  0  0
  8  9  1  0  0  0  0
  8 28  1  0  0  0  0
  8 29  1  0  0  0  0
  9 10  1  0  0  0  0
  9 11  1  0  0  0  0
  9 30  1  0  0  0  0
 10 31  1  0  0  0  0
 11 12  1  0  0  0  0
 11 32  1  0  0  0  0
 11 33  1  0  0  0  0
 12 18  1  0  0  0  0
 12 13  1  0  0  0  0
 12 48  1  0  0  0  0
 13 14  1  0  0  0  0
 13 34  1  0  0  0  0
 13 35  1  0  0  0  0
 14 15  1  0  0  0  0
 14 36  1  0  0  0  0
 14 37  1  0  0  0  0
 15 16  1  0  0  0  0
 15 17  1  0  0  0  0
 15 38  1  0  0  0  0
 16 39  1  0  0  0  0
 17 18  1  0  0  0  0
 17 40  1  0  0  0  0
 17 41  1  0  0  0  0
 18 42  1  0  0  0  0
 18 43  1  0  0  0  0
 19 20  1  0  0  0  0
 20 21  2  0  0  0  0
 20 44  1  0  0  0  0
 21 22  1  0  0  0  0
 22 45  1  0  0  0  0
 22 46  1  0  0  0  0
 22 47  1  0  0  0  0
M  CHG  1   5   1
M  CHG  1  12   1
M  END
> <s_m_source_file>
AV-unprocessed.smi

> <i_m_source_file_index>
1626

> <i_lp_mmshare_version>
43012

> <i_f3d_flags>
0

> <s_epik_input>
W0NIM11jKFtjSF0xKWMoW0NIM10pW2NIXWMoYzEyKW4oW2NIXW4yKVtDSDJdW0NASF0oW09IXSlbQ0gyXU4zW0NIMl1bQ0gyXVtDSF0oW09IXSlbQ0gyXVtDSDJdMw==

> <s_epik_cmdline>
J2VwaWtfcHl0aG9uJywgJy1waCcsICc3LjAnLCAnLXRuJywgJzgnLCAnLW1hJywgJzIwMCcsICctbWV0YWxfYmluZGluZycsICctaW1hZScsICc8aW5maWxlLm1hZT4nLCAnLW9tYWUnLCAnPG91dGZpbGUubWFlPic=

> <r_epik_Ionization_Penalty>
1.19369

> <r_epik_Ionization_Penalty_Charging>
1.19369

> <r_epik_Ionization_Penalty_Neutral>
1.68219e-06

> <r_epik_State_Penalty>
1.27429

> <r_epik_Charging_Adjusted_Penalty>
2.46798

> <i_epik_Tot_Q>
2

> <i_epik_Tot_abs_Q>
2

> <r_epik_Metal_State_Penalty>
5.29157

> <b_epik_Metal_Only>
0

> <s_lp_Force_Field>
OPLS_2005

> <r_lp_Energy>
35.0493

> <b_lp_Chiralities_Consistent>
1

> <s_lp_Variant>
AV-unprocessed.smi:1626-7

> <Gold.Version>
5.8.1

> <Gold.Id.Protein>
6NUR|6NUR_protein|mol2

> <Gold.PLP.Fitness>
61.1707

> <Gold.PLP.PLP>
-43.8386

> <Gold.PLP.part.hbond>
-4.8631

> <Gold.PLP.part.metal>
0.0000

> <Gold.PLP.part.buried>
-1.6491

> <Gold.PLP.part.nonpolar>
-37.5031

> <Gold.PLP.part.repulsive>
0.0893

> <Gold.PLP.ligand.clash>
0.0000

> <Gold.PLP.ligand.torsion>
0.3674

> <Gold.PLP.Chemscore.Hbond>
5.9833

> <Gold.PLP.Chemscore.CHOScore>
0.0000

> <Gold.PLP.Chemscore.Metal>
0.0000

> <Gold.Chemscore.Hbonds>
donor molecule, donor type, donor heavy atom, donor atom, acceptor molecule, acceptor atom, score
      L1  H     5    49       P1  8028  0.39
      L1  H    10    31       P1  7948  0.88
      L1  H    12    48       P1  7948  2.00
      L1  H    16    39       P1 10175  1.00

> <Gold.PLP.Chemscore.Internal.Correction>
0.1170

> <Gold.Rescore>
     Score         DG    S(hbond)    S(metal)    S(lipo)     H(rot)  DE(clash)    DE(int)     intcor
     21.46     -21.93       3.40        0.00     103.44       2.74       0.11       0.36       ----

> <Gold.Chemscore.Fitness>
21.4646

> <Gold.Chemscore.DG>
-21.9335

> <Gold.Chemscore.ZeroCoef>
-5.4800

> <Gold.Chemscore.Hbond>
3.4017

> <Gold.Chemscore.Metal>
0.0000

> <Gold.Chemscore.Lipo>
103.4382

> <Gold.Chemscore.Internal_Hbond>
0.0000

> <Gold.Chemscore.DEClash>
0.1137

> <Gold.Chemscore.DEInternal>
0.3553

> <Gold.Chemscore.Rot>
2.7384

> <Gold.Chemscore.Internal.Correction>
   9.000000E+99

> <Gold.Chemscore.Hbonds>
donor molecule, donor type, donor heavy atom, donor atom, acceptor molecule, acceptor atom, score
      L1  H     5    49       P1  8028  0.18
      L1  H    10    31       P1  7948  0.46
      L1  H    12    48       P1  7948  0.98
      L1  H    16    39       P1 10175  0.98

> <Gold.Chemscore.Hbond.Weighted>
-11.3616

> <Gold.Chemscore.Metal.Weighted>
-0.0000

> <Gold.Chemscore.Lipo.Weighted>
-12.1023

> <Gold.Chemscore.Internal_Hbond.Weighted>
0.0000

> <Gold.Chemscore.DEClash.Weighted>
0.1137

> <Gold.Chemscore.DEInternal.Weighted>
0.3553

> <Gold.Chemscore.Rot.Weighted>
7.0103

> <Gold.Chemscore.Internal.Correction.Weighted>
   9.000000E+99

> <Gold.Protein.RotatedTorsions>
[ 6907 6896 6895 6894 ] final  -12.01 input  -60.11 | X-H torsion
[ 7974 7965 7964 7962 ] final  -32.72 input  175.53 | X-H torsion
[ 8008 7997 7996 7995 ] final   76.72 input   59.86 | X-H torsion
[ 10167 10162 10161 10158 ] final   70.51 input  -65.29 | X-H torsion
[ 10718 10713 10712 10709 ] final  -95.77 input   66.30 | X-H torsion
[ 10763 10752 10751 10750 ] final  -85.86 input  -60.55 | X-H torsion
[ 11005 11000 10999 10996 ] final  139.99 input  -57.11 | X-H torsion

> <Gold.Protein.ActiveResidues>
 VAL166  LYS551  ARG553  GLY616  TRP617  ASP618  TYR619  PRO620  LYS621  CYS622 
 ASP623  PHE694  ASN695  SER759  ASP760  ASP761  ALA762  ILE779  LEU786  VAL792 
 PHE793  MET794  SER795  GLU796  ALA797  LYS798  CYS799  TRP800  GLU811  SER814 

> <Gold.Protein.RotatedAtoms>
  151.3772  135.0933  159.9484 H   0  0  0  0  0  0  0  0  0  0  0  0  # atno 6907 bound_to 6896
  152.5118  133.9107  159.7497 H   0  0  0  0  0  0  0  0  0  0  0  0  # atno 6908 bound_to 6896
  150.9533  133.6470  159.2797 H   0  0  0  0  0  0  0  0  0  0  0  0  # atno 6909 bound_to 6896
  146.0968  140.5827  142.8839 H   0  0  0  0  0  0  0  0  0  0  0  0  # atno 7974 bound_to 7965
  155.8313  140.3466  155.5574 H   0  0  0  0  0  0  0  0  0  0  0  0  # atno 8008 bound_to 7997
  155.8239  140.0917  157.1853 H   0  0  0  0  0  0  0  0  0  0  0  0  # atno 8009 bound_to 7997
  154.4004  140.1425  156.3520 H   0  0  0  0  0  0  0  0  0  0  0  0  # atno 8010 bound_to 7997
  140.0562  144.5271  150.7327 H   0  0  0  0  0  0  0  0  0  0  0  0  # atno 10167 bound_to 10162
  156.0049  130.5123  150.6126 H   0  0  0  0  0  0  0  0  0  0  0  0  # atno 10718 bound_to 10713
  154.6159  135.5470  153.7523 H   0  0  0  0  0  0  0  0  0  0  0  0  # atno 10763 bound_to 10752
  153.0216  135.6401  154.1510 H   0  0  0  0  0  0  0  0  0  0  0  0  # atno 10764 bound_to 10752
  154.1447  135.2906  155.3131 H   0  0  0  0  0  0  0  0  0  0  0  0  # atno 10765 bound_to 10752
  140.0295  134.9359  157.0634 H   0  0  0  0  0  0  0  0  0  0  0  0  # atno 11005 bound_to 11000
  144.7401  140.4919  143.6875 LP  0  0  0  0  0  0  0  0  0  0  0  0  # atno 17320 bound_to 7965
  145.5933  139.1497  143.3170 LP  0  0  0  0  0  0  0  0  0  0  0  0  # atno 17321 bound_to 7965
  140.7193  143.2574  151.4330 LP  0  0  0  0  0  0  0  0  0  0  0  0  # atno 17342 bound_to 10162
  139.5922  144.1474  152.2102 LP  0  0  0  0  0  0  0  0  0  0  0  0  # atno 17343 bound_to 10162
  157.3956  131.0802  151.1355 LP  0  0  0  0  0  0  0  0  0  0  0  0  # atno 17370 bound_to 10713
  157.2032  130.6404  149.5746 LP  0  0  0  0  0  0  0  0  0  0  0  0  # atno 17371 bound_to 10713
  140.4250  134.1841  155.7166 LP  0  0  0  0  0  0  0  0  0  0  0  0  # atno 17394 bound_to 11000
  141.1822  133.8389  157.1216 LP  0  0  0  0  0  0  0  0  0  0  0  0  # atno 17395 bound_to 11000

$$$$
