AV-unprocessed.smi:1644|AV-procd|sdf|6598|dock7
  -GOLD-   22720 7303D 1   1.00000     0.00000
 Structure written by MMmdl.
 49 51  0  0  0  0  0  0  0  0  3 V2000
  146.7961  135.3070  162.8459 C   0  0  0  0  0  0  0  0  0  0  0  0
  148.0572  135.6947  162.0657 C   0  0  0  0  0  0  0  0  0  0  0  0
  147.7361  136.4489  160.7650 C   0  0  0  0  0  0  0  0  0  0  0  0
  148.7835  136.2219  159.6538 C   0  0  2  0  0  0  0  0  0  0  0  0
  150.0824  136.7384  160.0341 N   0  5  0  0  0  0  0  0  0  0  0  0
  150.4584  137.6752  159.1332 C   0  0  0  0  0  0  0  0  0  0  0  0
  151.5111  138.3124  159.1329 O   0  0  0  0  0  0  0  0  0  0  0  0
  149.5162  137.8399  158.1846 N   0  0  0  0  0  0  0  0  0  0  0  0
  149.5993  138.7737  157.0553 C   0  0  0  0  0  0  0  0  0  0  0  0
  150.8326  138.5178  156.1650 C   0  0  1  0  0  0  0  0  0  0  0  0
  150.3958  138.4819  154.8208 O   0  0  0  0  0  0  0  0  0  0  0  0
  151.9444  139.5744  156.3392 C   0  0  0  0  0  0  0  0  0  0  0  0
  151.4205  140.9161  156.6280 N   0  0  0  0  0  0  0  0  0  0  0  0
  150.5627  141.6861  155.9062 C   0  0  0  0  0  0  0  0  0  0  0  0
  150.3850  142.8517  156.5877 N   0  3  0  0  0  0  0  0  0  0  0  0
  151.1404  142.8245  157.7621 C   0  0  0  0  0  0  0  0  0  0  0  0
  151.2874  143.7680  158.7722 C   0  0  0  0  0  0  0  0  0  0  0  0
  152.1381  143.4325  159.8498 C   0  0  0  0  0  0  0  0  0  0  0  0
  152.3225  144.4418  160.9703 C   0  0  0  0  0  0  0  0  0  0  0  0
  152.8061  142.1813  159.8903 C   0  0  0  0  0  0  0  0  0  0  0  0
  153.7145  141.8283  161.0556 C   0  0  0  0  0  0  0  0  0  0  0  0
  152.6440  141.2359  158.8528 C   0  0  0  0  0  0  0  0  0  0  0  0
  151.8057  141.5838  157.7961 C   0  0  0  0  0  0  0  0  0  0  0  0
  148.4789  137.0266  158.4065 C   0  0  0  0  0  0  0  0  0  0  0  0
  147.4517  136.9177  157.7360 O   0  0  0  0  0  0  0  0  0  0  0  0
  147.0542  134.7721  163.7600 H   0  0  0  0  0  0  0  0  0  0  0  0
  146.1492  134.6604  162.2526 H   0  0  0  0  0  0  0  0  0  0  0  0
  146.2217  136.1898  163.1279 H   0  0  0  0  0  0  0  0  0  0  0  0
  148.6947  136.3093  162.7021 H   0  0  0  0  0  0  0  0  0  0  0  0
  148.6285  134.7952  161.8346 H   0  0  0  0  0  0  0  0  0  0  0  0
  146.7583  136.1192  160.4105 H   0  0  0  0  0  0  0  0  0  0  0  0
  147.6349  137.5155  160.9743 H   0  0  0  0  0  0  0  0  0  0  0  0
  148.8175  135.1664  159.3805 H   0  0  0  0  0  0  0  0  0  0  0  0
  148.6898  138.6800  156.4590 H   0  0  0  0  0  0  0  0  0  0  0  0
  149.6042  139.8053  157.4115 H   0  0  0  0  0  0  0  0  0  0  0  0
  151.2423  137.5328  156.3920 H   0  0  0  0  0  0  0  0  0  0  0  0
  150.1684  137.5901  154.6054 H   0  0  0  0  0  0  0  0  0  0  0  0
  152.6467  139.2840  157.1206 H   0  0  0  0  0  0  0  0  0  0  0  0
  152.5292  139.6582  155.4227 H   0  0  0  0  0  0  0  0  0  0  0  0
  150.1072  141.4201  154.9632 H   0  0  0  0  0  0  0  0  0  0  0  0
  150.7735  144.7173  158.7359 H   0  0  0  0  0  0  0  0  0  0  0  0
  153.3744  144.7074  161.0780 H   0  0  0  0  0  0  0  0  0  0  0  0
  151.9699  144.0314  161.9169 H   0  0  0  0  0  0  0  0  0  0  0  0
  151.7665  145.3599  160.7766 H   0  0  0  0  0  0  0  0  0  0  0  0
  154.1345  140.8280  160.9447 H   0  0  0  0  0  0  0  0  0  0  0  0
  153.1616  141.8546  161.9949 H   0  0  0  0  0  0  0  0  0  0  0  0
  154.5443  142.5326  161.1205 H   0  0  0  0  0  0  0  0  0  0  0  0
  153.1482  140.2814  158.8866 H   0  0  0  0  0  0  0  0  0  0  0  0
  149.7912  143.6076  156.2718 H   0  0  0  0  0  0  0  0  0  0  0  0
  1  2  1  0  0  0  0
  1 26  1  0  0  0  0
  1 27  1  0  0  0  0
  1 28  1  0  0  0  0
  2  3  1  0  0  0  0
  2 29  1  0  0  0  0
  2 30  1  0  0  0  0
  3  4  1  0  0  0  0
  3 31  1  0  0  0  0
  3 32  1  0  0  0  0
  4 24  1  0  0  0  0
  4  5  1  0  0  0  0
  4 33  1  0  0  0  0
  5  6  1  0  0  0  0
  6  7  2  0  0  0  0
  6  8  1  0  0  0  0
  8  9  1  0  0  0  0
  8 24  1  0  0  0  0
  9 10  1  0  0  0  0
  9 34  1  0  0  0  0
  9 35  1  0  0  0  0
 10 11  1  0  0  0  0
 10 12  1  0  0  0  0
 10 36  1  0  0  0  0
 11 37  1  0  0  0  0
 12 13  1  0  0  0  0
 12 38  1  0  0  0  0
 12 39  1  0  0  0  0
 13 23  1  0  0  0  0
 13 14  1  0  0  0  0
 14 15  2  0  0  0  0
 14 40  1  0  0  0  0
 15 16  1  0  0  0  0
 15 49  1  0  0  0  0
 16 23  2  0  0  0  0
 16 17  1  0  0  0  0
 17 18  2  0  0  0  0
 17 41  1  0  0  0  0
 18 19  1  0  0  0  0
 18 20  1  0  0  0  0
 19 42  1  0  0  0  0
 19 43  1  0  0  0  0
 19 44  1  0  0  0  0
 20 21  1  0  0  0  0
 20 22  2  0  0  0  0
 21 45  1  0  0  0  0
 21 46  1  0  0  0  0
 21 47  1  0  0  0  0
 22 23  1  0  0  0  0
 22 48  1  0  0  0  0
 24 25  2  0  0  0  0
M  CHG  1   5  -1
M  CHG  1  15   1
M  END
> <s_m_source_file>
AV-unprocessed.smi

> <i_m_source_file_index>
1644

> <i_lp_mmshare_version>
43012

> <i_f3d_flags>
0

> <s_epik_input>
W0NIM11bQ0gyXVtDSDJdW0NAQEhdMVtOSF1DKD1PKU4oQzE9TylbQ0gyXVtDQEhdKFtPSF0pW0NIMl1uKFtjSF1uMiljKGMyMylbY0hdYyhbQ0gzXSljKFtjSF0zKVtDSDNd

> <s_epik_cmdline>
J2VwaWtfcHl0aG9uJywgJy1waCcsICc3LjAnLCAnLXRuJywgJzgnLCAnLW1hJywgJzIwMCcsICctbWV0YWxfYmluZGluZycsICctaW1hZScsICc8aW5maWxlLm1hZT4nLCAnLW9tYWUnLCAnPG91dGZpbGUubWFlPic=

> <r_lp_tautomer_probability>
1

> <r_epik_Ionization_Penalty>
6.86868

> <r_epik_Ionization_Penalty_Charging>
6.86868

> <r_epik_Ionization_Penalty_Neutral>
5.84798e-07

> <r_epik_State_Penalty>
6.92818

> <r_epik_Charging_Adjusted_Penalty>
13.7969

> <i_epik_Tot_Q>
0

> <i_epik_Tot_abs_Q>
2

> <r_epik_Metal_State_Penalty>
2.98017

> <b_epik_Metal_Only>
1

> <s_lp_Force_Field>
OPLS_2005

> <r_lp_Energy>
19.1239

> <b_lp_Chiralities_Consistent>
1

> <s_lp_Variant>
AV-unprocessed.smi:1644-15

> <Gold.Version>
5.8.1

> <Gold.Id.Protein>
6NUR|6NUR_protein|mol2

> <Gold.PLP.Fitness>
57.7914

> <Gold.PLP.PLP>
-48.0760

> <Gold.PLP.part.hbond>
-2.4251

> <Gold.PLP.part.metal>
0.0000

> <Gold.PLP.part.buried>
-7.8297

> <Gold.PLP.part.nonpolar>
-39.1622

> <Gold.PLP.part.repulsive>
0.0651

> <Gold.PLP.ligand.clash>
0.0000

> <Gold.PLP.ligand.torsion>
1.1870

> <Gold.PLP.Chemscore.Hbond>
4.0000

> <Gold.PLP.Chemscore.CHOScore>
0.0000

> <Gold.PLP.Chemscore.Metal>
0.0000

> <Gold.Chemscore.Hbonds>
donor molecule, donor type, donor heavy atom, donor atom, acceptor molecule, acceptor atom, score
      L1  H    15    49       P1  8028  2.00
      P1  H  6896  6907       L1     5  1.60

> <Gold.PLP.Chemscore.Internal.Correction>
0.0895

> <Gold.Rescore>
     Score         DG    S(hbond)    S(metal)    S(lipo)     H(rot)  DE(clash)    DE(int)     intcor
     19.18     -20.54       2.77        0.00     109.28       2.72       0.18       1.18       ----

> <Gold.Chemscore.Fitness>
19.1826

> <Gold.Chemscore.DG>
-20.5415

> <Gold.Chemscore.ZeroCoef>
-5.4800

> <Gold.Chemscore.Hbond>
2.7695

> <Gold.Chemscore.Metal>
0.0000

> <Gold.Chemscore.Lipo>
109.2837

> <Gold.Chemscore.Internal_Hbond>
0.0000

> <Gold.Chemscore.DEClash>
0.1774

> <Gold.Chemscore.DEInternal>
1.1815

> <Gold.Chemscore.Rot>
2.7245

> <Gold.Chemscore.Internal.Correction>
   9.000000E+99

> <Gold.Chemscore.Hbonds>
donor molecule, donor type, donor heavy atom, donor atom, acceptor molecule, acceptor atom, score
      L1  H    15    49       P1  8028  0.96
      P1  H  6896  6907       L1     5  0.10

> <Gold.Chemscore.Hbond.Weighted>
-9.2501

> <Gold.Chemscore.Metal.Weighted>
-0.0000

> <Gold.Chemscore.Lipo.Weighted>
-12.7862

> <Gold.Chemscore.Internal_Hbond.Weighted>
0.0000

> <Gold.Chemscore.DEClash.Weighted>
0.1774

> <Gold.Chemscore.DEInternal.Weighted>
1.1815

> <Gold.Chemscore.Rot.Weighted>
6.9748

> <Gold.Chemscore.Internal.Correction.Weighted>
   9.000000E+99

> <Gold.Protein.RotatedTorsions>
[ 6907 6896 6895 6894 ] final  -33.12 input  -60.11 | X-H torsion
[ 7974 7965 7964 7962 ] final   87.01 input  175.53 | X-H torsion
[ 8008 7997 7996 7995 ] final   94.07 input   59.86 | X-H torsion
[ 10167 10162 10161 10158 ] final  -69.33 input  -65.29 | X-H torsion
[ 10718 10713 10712 10709 ] final  -81.52 input   66.30 | X-H torsion
[ 10763 10752 10751 10750 ] final  110.40 input  -60.55 | X-H torsion
[ 11005 11000 10999 10996 ] final -166.92 input  -57.11 | X-H torsion

> <Gold.Protein.ActiveResidues>
 VAL166  LYS551  ARG553  GLY616  TRP617  ASP618  TYR619  PRO620  LYS621  CYS622 
 ASP623  PHE694  ASN695  SER759  ASP760  ASP761  ALA762  ILE779  LEU786  VAL792 
 PHE793  MET794  SER795  GLU796  ALA797  LYS798  CYS799  TRP800  GLU811  SER814 

> <Gold.Protein.RotatedAtoms>
  151.0697  134.9790  159.8302 H   0  0  0  0  0  0  0  0  0  0  0  0  # atno 6907 bound_to 6896
  152.5407  134.2314  159.8836 H   0  0  0  0  0  0  0  0  0  0  0  0  # atno 6908 bound_to 6896
  151.2338  133.4392  159.2638 H   0  0  0  0  0  0  0  0  0  0  0  0  # atno 6909 bound_to 6896
  145.5646  139.2307  143.2440 H   0  0  0  0  0  0  0  0  0  0  0  0  # atno 7974 bound_to 7965
  156.0538  140.3304  155.7381 H   0  0  0  0  0  0  0  0  0  0  0  0  # atno 8008 bound_to 7997
  155.5560  140.0614  157.2857 H   0  0  0  0  0  0  0  0  0  0  0  0  # atno 8009 bound_to 7997
  154.4448  140.1885  156.0723 H   0  0  0  0  0  0  0  0  0  0  0  0  # atno 8010 bound_to 7997
  140.5439  143.2314  151.7039 H   0  0  0  0  0  0  0  0  0  0  0  0  # atno 10167 bound_to 10162
  156.0049  130.4606  150.3965 H   0  0  0  0  0  0  0  0  0  0  0  0  # atno 10718 bound_to 10713
  153.4484  135.3749  155.2269 H   0  0  0  0  0  0  0  0  0  0  0  0  # atno 10763 bound_to 10752
  154.8756  135.3880  154.4067 H   0  0  0  0  0  0  0  0  0  0  0  0  # atno 10764 bound_to 10752
  153.4623  135.7087  153.6106 H   0  0  0  0  0  0  0  0  0  0  0  0  # atno 10765 bound_to 10752
  140.5590  134.5352  157.5139 H   0  0  0  0  0  0  0  0  0  0  0  0  # atno 11005 bound_to 11000
  146.1827  140.6471  142.9182 LP  0  0  0  0  0  0  0  0  0  0  0  0  # atno 17320 bound_to 7965
  144.7466  140.5085  143.6831 LP  0  0  0  0  0  0  0  0  0  0  0  0  # atno 17321 bound_to 7965
  139.4999  144.3926  152.0264 LP  0  0  0  0  0  0  0  0  0  0  0  0  # atno 17342 bound_to 10162
  140.3037  144.3617  150.6053 LP  0  0  0  0  0  0  0  0  0  0  0  0  # atno 17343 bound_to 10162
  157.2037  131.0444  151.2637 LP  0  0  0  0  0  0  0  0  0  0  0  0  # atno 17370 bound_to 10713
  157.3952  130.7303  149.6727 LP  0  0  0  0  0  0  0  0  0  0  0  0  # atno 17371 bound_to 10713
  139.9417  134.7775  156.0662 LP  0  0  0  0  0  0  0  0  0  0  0  0  # atno 17394 bound_to 11000
  141.1126  133.6638  156.3015 LP  0  0  0  0  0  0  0  0  0  0  0  0  # atno 17395 bound_to 11000

$$$$
