AV-unprocessed.smi:1472|AV-procd|sdf|5965|dock10
  -GOLD-   22720 6 53D 1   1.00000     0.00000
 Structure written by MMmdl.
 42 43  0  0  0  0  0  0  0  0  2 V2000
  151.2171  137.9654  158.4607 C   0  0  0  0  0  0  0  0  0  0  0  0
  152.2397  139.4248  158.0045 S   0  0  0  0  0  0  0  0  0  0  0  0
  151.7244  140.5931  158.7345 O   0  0  0  0  0  0  0  0  0  0  0  0
  153.6560  139.0501  158.1358 O   0  0  0  0  0  0  0  0  0  0  0  0
  151.9085  139.6637  156.3126 N   0  0  0  0  0  0  0  0  0  0  0  0
  151.6657  138.4991  155.4390 C   0  0  0  0  0  0  0  0  0  0  0  0
  150.1653  138.3022  155.1564 C   0  0  0  0  0  0  0  0  0  0  0  0
  149.5208  139.5824  154.5930 C   0  0  0  0  0  0  0  0  0  0  0  0
  148.0112  139.4205  154.3118 C   0  0  0  0  0  0  0  0  0  0  0  0
  147.7140  138.2573  153.4808 N   0  0  0  0  0  0  0  0  0  0  0  0
  146.4884  137.7573  153.2677 C   0  0  0  0  0  0  0  0  0  0  0  0
  145.4687  138.2241  153.7745 O   0  0  0  0  0  0  0  0  0  0  0  0
  146.5311  136.6876  152.4542 N   0  0  0  0  0  0  0  0  0  0  0  0
  145.4500  135.9132  151.9509 C   0  0  0  0  0  0  0  0  0  0  0  0
  144.2461  135.9119  152.6902 C   0  0  0  0  0  0  0  0  0  0  0  0
  143.1534  135.1428  152.2402 C   0  0  0  0  0  0  0  0  0  0  0  0
  143.2672  134.4075  151.1135 N   0  3  0  0  0  0  0  0  0  0  0  0
  144.4006  134.3659  150.3808 C   0  0  0  0  0  0  0  0  0  0  0  0
  145.5266  135.1137  150.7816 C   0  0  0  0  0  0  0  0  0  0  0  0
  149.7811  140.7373  155.5733 C   0  0  0  0  0  0  0  0  0  0  0  0
  151.2834  140.9188  155.8510 C   0  0  0  0  0  0  0  0  0  0  0  0
  151.3589  137.7493  159.5191 H   0  0  0  0  0  0  0  0  0  0  0  0
  151.5281  137.0988  157.8801 H   0  0  0  0  0  0  0  0  0  0  0  0
  150.1650  138.1775  158.2806 H   0  0  0  0  0  0  0  0  0  0  0  0
  152.1955  138.6587  154.4991 H   0  0  0  0  0  0  0  0  0  0  0  0
  152.0905  137.5984  155.8811 H   0  0  0  0  0  0  0  0  0  0  0  0
  150.0459  137.4776  154.4532 H   0  0  0  0  0  0  0  0  0  0  0  0
  149.6492  138.0001  156.0669 H   0  0  0  0  0  0  0  0  0  0  0  0
  150.0183  139.8278  153.6534 H   0  0  0  0  0  0  0  0  0  0  0  0
  147.4675  139.3116  155.2506 H   0  0  0  0  0  0  0  0  0  0  0  0
  147.6169  140.3187  153.8333 H   0  0  0  0  0  0  0  0  0  0  0  0
  148.4992  137.8078  153.0328 H   0  0  0  0  0  0  0  0  0  0  0  0
  147.4522  136.3662  152.1941 H   0  0  0  0  0  0  0  0  0  0  0  0
  144.1544  136.4980  153.5934 H   0  0  0  0  0  0  0  0  0  0  0  0
  142.2000  135.0923  152.7455 H   0  0  0  0  0  0  0  0  0  0  0  0
  144.3764  133.7340  149.5049 H   0  0  0  0  0  0  0  0  0  0  0  0
  146.4283  135.0481  150.1920 H   0  0  0  0  0  0  0  0  0  0  0  0
  149.3773  141.6653  155.1671 H   0  0  0  0  0  0  0  0  0  0  0  0
  149.2476  140.5593  156.5063 H   0  0  0  0  0  0  0  0  0  0  0  0
  151.4419  141.7134  156.5795 H   0  0  0  0  0  0  0  0  0  0  0  0
  151.7868  141.2366  154.9371 H   0  0  0  0  0  0  0  0  0  0  0  0
  142.4653  133.8565  150.8058 H   0  0  0  0  0  0  0  0  0  0  0  0
  1  2  1  0  0  0  0
  1 22  1  0  0  0  0
  1 23  1  0  0  0  0
  1 24  1  0  0  0  0
  2  3  2  0  0  0  0
  2  4  2  0  0  0  0
  2  5  1  0  0  0  0
  5 21  1  0  0  0  0
  5  6  1  0  0  0  0
  6  7  1  0  0  0  0
  6 25  1  0  0  0  0
  6 26  1  0  0  0  0
  7  8  1  0  0  0  0
  7 27  1  0  0  0  0
  7 28  1  0  0  0  0
  8  9  1  0  0  0  0
  8 20  1  0  0  0  0
  8 29  1  0  0  0  0
  9 10  1  0  0  0  0
  9 30  1  0  0  0  0
  9 31  1  0  0  0  0
 10 11  1  0  0  0  0
 10 32  1  0  0  0  0
 11 12  2  0  0  0  0
 11 13  1  0  0  0  0
 13 14  1  0  0  0  0
 13 33  1  0  0  0  0
 14 19  1  0  0  0  0
 14 15  2  0  0  0  0
 15 16  1  0  0  0  0
 15 34  1  0  0  0  0
 16 17  2  0  0  0  0
 16 35  1  0  0  0  0
 17 18  1  0  0  0  0
 17 42  1  0  0  0  0
 18 19  2  0  0  0  0
 18 36  1  0  0  0  0
 19 37  1  0  0  0  0
 20 21  1  0  0  0  0
 20 38  1  0  0  0  0
 20 39  1  0  0  0  0
 21 40  1  0  0  0  0
 21 41  1  0  0  0  0
M  CHG  1  17   1
M  END
> <s_m_source_file>
AV-unprocessed.smi

> <i_m_source_file_index>
1472

> <i_lp_mmshare_version>
43012

> <i_f3d_flags>
0

> <s_epik_input>
W0NIM11TKD1PKSg9TylOMVtDSDJdW0NIMl1bQ0hdKFtDSDJdW0NIMl0xKVtDSDJdW05IXUMoPU8pW05IXWMyW2NIXVtjSF1uW2NIXVtjSF0y

> <s_epik_cmdline>
J2VwaWtfcHl0aG9uJywgJy1waCcsICc3LjAnLCAnLXRuJywgJzgnLCAnLW1hJywgJzIwMCcsICctbWV0YWxfYmluZGluZycsICctaW1hZScsICc8aW5maWxlLm1hZT4nLCAnLW9tYWUnLCAnPG91dGZpbGUubWFlPic=

> <r_epik_Ionization_Penalty>
1.02593

> <r_epik_Ionization_Penalty_Charging>
1.02591

> <r_epik_Ionization_Penalty_Neutral>
2.05222e-05

> <r_epik_State_Penalty>
1.07662

> <r_epik_Charging_Adjusted_Penalty>
2.10252

> <i_epik_Tot_Q>
1

> <i_epik_Tot_abs_Q>
1

> <r_epik_Metal_State_Penalty>
1.17465

> <b_epik_Metal_Only>
0

> <s_lp_Force_Field>
OPLS_2005

> <r_lp_Energy>
12.5629

> <b_lp_Chiralities_Consistent>
1

> <s_lp_Variant>
AV-unprocessed.smi:1472-2

> <Gold.Version>
5.8.1

> <Gold.Id.Protein>
6NUR|6NUR_protein|mol2

> <Gold.PLP.Fitness>
43.2219

> <Gold.PLP.PLP>
-31.6953

> <Gold.PLP.part.hbond>
-3.9862

> <Gold.PLP.part.metal>
0.0000

> <Gold.PLP.part.buried>
-4.4485

> <Gold.PLP.part.nonpolar>
-24.4870

> <Gold.PLP.part.repulsive>
0.2178

> <Gold.PLP.ligand.clash>
0.0000

> <Gold.PLP.ligand.torsion>
1.3116

> <Gold.PLP.Chemscore.Hbond>
4.0320

> <Gold.PLP.Chemscore.CHOScore>
0.0000

> <Gold.PLP.Chemscore.Metal>
0.0000

> <Gold.Chemscore.Hbonds>
donor molecule, donor type, donor heavy atom, donor atom, acceptor molecule, acceptor atom, score
      L1  H    10    32       P1  7948  0.85
      L1  H    13    33       P1  7948  0.99
      L1  H    17    42       P1 10186  1.09
      P1  H  7997  8009       L1     4  1.00

> <Gold.PLP.Chemscore.Internal.Correction>
2.0538

> <Gold.Rescore>
     Score         DG    S(hbond)    S(metal)    S(lipo)     H(rot)  DE(clash)    DE(int)     intcor
     17.69     -20.82       3.30        0.00      65.46       1.30       0.49       2.64       ----

> <Gold.Chemscore.Fitness>
17.6934

> <Gold.Chemscore.DG>
-20.8226

> <Gold.Chemscore.ZeroCoef>
-5.4800

> <Gold.Chemscore.Hbond>
3.2994

> <Gold.Chemscore.Metal>
0.0000

> <Gold.Chemscore.Lipo>
65.4589

> <Gold.Chemscore.Internal_Hbond>
0.0000

> <Gold.Chemscore.DEClash>
0.4858

> <Gold.Chemscore.DEInternal>
2.6434

> <Gold.Chemscore.Rot>
1.3031

> <Gold.Chemscore.Internal.Correction>
   9.000000E+99

> <Gold.Chemscore.Hbonds>
donor molecule, donor type, donor heavy atom, donor atom, acceptor molecule, acceptor atom, score
      L1  H    10    32       P1  7948  0.80
      L1  H    13    33       P1  7948  0.92
      L1  H    17    42       P1 10186  0.36
      P1  H  7997  8009       L1     4  0.95

> <Gold.Chemscore.Hbond.Weighted>
-11.0199

> <Gold.Chemscore.Metal.Weighted>
-0.0000

> <Gold.Chemscore.Lipo.Weighted>
-7.6587

> <Gold.Chemscore.Internal_Hbond.Weighted>
0.0000

> <Gold.Chemscore.DEClash.Weighted>
0.4858

> <Gold.Chemscore.DEInternal.Weighted>
2.6434

> <Gold.Chemscore.Rot.Weighted>
3.3359

> <Gold.Chemscore.Internal.Correction.Weighted>
   9.000000E+99

> <Gold.Protein.RotatedTorsions>
[ 6907 6896 6895 6894 ] final   91.79 input  -60.11 | X-H torsion
[ 7974 7965 7964 7962 ] final   24.03 input  175.53 | X-H torsion
[ 8008 7997 7996 7995 ] final  134.53 input   59.86 | X-H torsion
[ 10167 10162 10161 10158 ] final  108.29 input  -65.29 | X-H torsion
[ 10718 10713 10712 10709 ] final  -19.81 input   66.30 | X-H torsion
[ 10763 10752 10751 10750 ] final -144.12 input  -60.55 | X-H torsion
[ 11005 11000 10999 10996 ] final -120.90 input  -57.11 | X-H torsion

> <Gold.Protein.ActiveResidues>
 VAL166  LYS551  ARG553  GLY616  TRP617  ASP618  TYR619  PRO620  LYS621  CYS622 
 ASP623  PHE694  ASN695  SER759  ASP760  ASP761  ALA762  ILE779  LEU786  VAL792 
 PHE793  MET794  SER795  GLU796  ALA797  LYS798  CYS799  TRP800  GLU811  SER814 

> <Gold.Protein.RotatedAtoms>
  152.5451  134.1602  159.8554 H   0  0  0  0  0  0  0  0  0  0  0  0  # atno 6907 bound_to 6896
  151.1621  133.4831  159.2601 H   0  0  0  0  0  0  0  0  0  0  0  0  # atno 6908 bound_to 6896
  151.1362  135.0167  159.8660 H   0  0  0  0  0  0  0  0  0  0  0  0  # atno 6909 bound_to 6896
  146.1957  139.7662  142.8799 H   0  0  0  0  0  0  0  0  0  0  0  0  # atno 7974 bound_to 7965
  156.2999  140.2494  156.3432 H   0  0  0  0  0  0  0  0  0  0  0  0  # atno 8008 bound_to 7997
  154.9035  140.0405  157.1926 H   0  0  0  0  0  0  0  0  0  0  0  0  # atno 8009 bound_to 7997
  154.8476  140.2901  155.5623 H   0  0  0  0  0  0  0  0  0  0  0  0  # atno 8010 bound_to 7997
  139.6858  144.7113  151.1435 H   0  0  0  0  0  0  0  0  0  0  0  0  # atno 10167 bound_to 10162
  156.5405  130.4677  149.6501 H   0  0  0  0  0  0  0  0  0  0  0  0  # atno 10718 bound_to 10713
  154.8441  135.3449  154.6296 H   0  0  0  0  0  0  0  0  0  0  0  0  # atno 10763 bound_to 10752
  153.6905  135.6975  153.5096 H   0  0  0  0  0  0  0  0  0  0  0  0  # atno 10764 bound_to 10752
  153.2598  135.4326  155.0838 H   0  0  0  0  0  0  0  0  0  0  0  0  # atno 10765 bound_to 10752
  141.0109  134.0265  157.3414 H   0  0  0  0  0  0  0  0  0  0  0  0  # atno 11005 bound_to 11000
  145.3651  141.0333  143.3262 LP  0  0  0  0  0  0  0  0  0  0  0  0  # atno 17320 bound_to 7965
  144.8575  139.5227  143.6827 LP  0  0  0  0  0  0  0  0  0  0  0  0  # atno 17321 bound_to 7965
  140.7667  143.5631  150.9077 LP  0  0  0  0  0  0  0  0  0  0  0  0  # atno 17342 bound_to 10162
  139.9306  143.6497  152.3077 LP  0  0  0  0  0  0  0  0  0  0  0  0  # atno 17343 bound_to 10162
  156.2976  130.7159  151.2023 LP  0  0  0  0  0  0  0  0  0  0  0  0  # atno 17370 bound_to 10713
  157.7406  131.0515  150.5154 LP  0  0  0  0  0  0  0  0  0  0  0  0  # atno 17371 bound_to 10713
  139.9089  135.0186  156.7609 LP  0  0  0  0  0  0  0  0  0  0  0  0  # atno 17394 bound_to 11000
  140.6734  133.9539  155.7869 LP  0  0  0  0  0  0  0  0  0  0  0  0  # atno 17395 bound_to 11000

$$$$
