AV-unprocessed.smi:443|AV-procd|sdf|2585|dock3
  -GOLD-   2262022573D 1   1.00000     0.00000
 Structure written by MMmdl.
 48 49  0  0  0  0  0  0  0  0  1 V2000
  145.5565  143.6438  153.5976 C   0  0  0  0  0  0  0  0  0  0  0  0
  145.6062  142.5626  154.6432 C   0  0  0  0  0  0  0  0  0  0  0  0
  146.7442  141.9761  154.8170 N   0  0  0  0  0  0  0  0  0  0  0  0
  146.8975  140.9563  155.7353 N   0  0  0  0  0  0  0  0  0  0  0  0
  148.2440  140.3696  155.7621 C   0  0  0  0  0  0  0  0  0  0  0  0
  149.3234  141.3944  156.1776 C   0  0  2  0  0  0  0  0  0  0  0  0
  149.7857  142.1034  155.0469 O   0  0  0  0  0  0  0  0  0  0  0  0
  150.5266  140.7975  156.9303 C   0  0  0  0  0  0  0  0  0  0  0  0
  151.3315  141.8437  157.4616 O   0  0  0  0  0  0  0  0  0  0  0  0
  152.0738  141.6042  158.5996 C   0  0  0  0  0  0  0  0  0  0  0  0
  152.5853  140.3220  158.9286 C   0  0  0  0  0  0  0  0  0  0  0  0
  153.3488  140.1272  160.0936 C   0  0  0  0  0  0  0  0  0  0  0  0
  153.6130  141.2088  160.9492 C   0  0  0  0  0  0  0  0  0  0  0  0
  153.1085  142.4837  160.6389 C   0  0  0  0  0  0  0  0  0  0  0  0
  152.3385  142.6938  159.4728 C   0  0  0  0  0  0  0  0  0  0  0  0
  151.8092  144.1040  159.2011 C   0  0  0  0  0  0  0  0  0  0  0  0
  152.4193  144.7388  157.9388 C   0  0  0  0  0  0  0  0  0  0  0  0
  151.9234  145.0206  160.4290 C   0  0  0  0  0  0  0  0  0  0  0  0
  145.9059  140.4849  156.5433 C   0  0  0  0  0  0  0  0  0  0  0  0
  146.0857  139.5694  157.3476 O   0  0  0  0  0  0  0  0  0  0  0  0
  144.6214  141.1626  156.3519 C   0  0  0  0  0  0  0  0  0  0  0  0
  143.5545  140.6986  157.1789 C   0  0  0  0  0  0  0  0  0  0  0  0
  142.6767  140.3365  157.8411 N   0  0  0  0  0  0  0  0  0  0  0  0
  144.4565  142.1591  155.4461 C   0  0  0  0  0  0  0  0  0  0  0  0
  143.1425  142.8891  155.2032 C   0  0  0  0  0  0  0  0  0  0  0  0
  145.3191  144.6076  154.0479 H   0  0  0  0  0  0  0  0  0  0  0  0
  144.7968  143.4231  152.8475 H   0  0  0  0  0  0  0  0  0  0  0  0
  146.5087  143.7487  153.0758 H   0  0  0  0  0  0  0  0  0  0  0  0
  148.2657  139.5146  156.4398 H   0  0  0  0  0  0  0  0  0  0  0  0
  148.4846  139.9550  154.7813 H   0  0  0  0  0  0  0  0  0  0  0  0
  148.8654  142.1424  156.8257 H   0  0  0  0  0  0  0  0  0  0  0  0
  149.4838  142.9967  155.1085 H   0  0  0  0  0  0  0  0  0  0  0  0
  150.1901  140.1250  157.7211 H   0  0  0  0  0  0  0  0  0  0  0  0
  151.1150  140.2092  156.2249 H   0  0  0  0  0  0  0  0  0  0  0  0
  152.4089  139.4624  158.3007 H   0  0  0  0  0  0  0  0  0  0  0  0
  153.7331  139.1458  160.3301 H   0  0  0  0  0  0  0  0  0  0  0  0
  154.2000  141.0615  161.8438 H   0  0  0  0  0  0  0  0  0  0  0  0
  153.3175  143.3043  161.3093 H   0  0  0  0  0  0  0  0  0  0  0  0
  150.7418  144.0099  158.9972 H   0  0  0  0  0  0  0  0  0  0  0  0
  152.2755  144.0947  157.0710 H   0  0  0  0  0  0  0  0  0  0  0  0
  153.4872  144.9280  158.0398 H   0  0  0  0  0  0  0  0  0  0  0  0
  151.9439  145.6948  157.7183 H   0  0  0  0  0  0  0  0  0  0  0  0
  151.4092  144.5890  161.2878 H   0  0  0  0  0  0  0  0  0  0  0  0
  151.4716  145.9932  160.2321 H   0  0  0  0  0  0  0  0  0  0  0  0
  152.9587  145.1957  160.7132 H   0  0  0  0  0  0  0  0  0  0  0  0
  142.3549  142.5577  155.8792 H   0  0  0  0  0  0  0  0  0  0  0  0
  142.7942  142.7188  154.1840 H   0  0  0  0  0  0  0  0  0  0  0  0
  143.2666  143.9624  155.3496 H   0  0  0  0  0  0  0  0  0  0  0  0
  1  2  1  0  0  0  0
  1 26  1  0  0  0  0
  1 27  1  0  0  0  0
  1 28  1  0  0  0  0
  2 24  1  0  0  0  0
  2  3  2  0  0  0  0
  3  4  1  0  0  0  0
  4  5  1  0  0  0  0
  4 19  1  0  0  0  0
  5  6  1  0  0  0  0
  5 29  1  0  0  0  0
  5 30  1  0  0  0  0
  6  7  1  0  0  0  0
  6  8  1  0  0  0  0
  6 31  1  0  0  0  0
  7 32  1  0  0  0  0
  8  9  1  0  0  0  0
  8 33  1  0  0  0  0
  8 34  1  0  0  0  0
  9 10  1  0  0  0  0
 10 15  1  0  0  0  0
 10 11  2  0  0  0  0
 11 12  1  0  0  0  0
 11 35  1  0  0  0  0
 12 13  2  0  0  0  0
 12 36  1  0  0  0  0
 13 14  1  0  0  0  0
 13 37  1  0  0  0  0
 14 15  2  0  0  0  0
 14 38  1  0  0  0  0
 15 16  1  0  0  0  0
 16 17  1  0  0  0  0
 16 18  1  0  0  0  0
 16 39  1  0  0  0  0
 17 40  1  0  0  0  0
 17 41  1  0  0  0  0
 17 42  1  0  0  0  0
 18 43  1  0  0  0  0
 18 44  1  0  0  0  0
 18 45  1  0  0  0  0
 19 20  2  0  0  0  0
 19 21  1  0  0  0  0
 21 22  1  0  0  0  0
 21 24  2  0  0  0  0
 22 23  3  0  0  0  0
 24 25  1  0  0  0  0
 25 46  1  0  0  0  0
 25 47  1  0  0  0  0
 25 48  1  0  0  0  0
M  END
> <s_m_source_file>
AV-unprocessed.smi

> <i_m_source_file_index>
443

> <i_lp_mmshare_version>
43012

> <i_f3d_flags>
0

> <s_epik_input>
TiNDYyhjMVtDSDNdKWMoPU8pbihuYzFbQ0gzXSlbQ0gyXVtDQEhdKFtPSF0pW0NIMl1PYzJbY0hdW2NIXVtjSF1bY0hdYzJbQ0hdKFtDSDNdKVtDSDNd

> <s_epik_cmdline>
J2VwaWtfcHl0aG9uJywgJy1waCcsICc3LjAnLCAnLXRuJywgJzgnLCAnLW1hJywgJzIwMCcsICctbWV0YWxfYmluZGluZycsICctaW1hZScsICc8aW5maWxlLm1hZT4nLCAnLW9tYWUnLCAnPG91dGZpbGUubWFlPic=

> <r_lp_tautomer_probability>
1

> <r_epik_Ionization_Penalty>
1.17331e-07

> <r_epik_Ionization_Penalty_Charging>
1.57223e-10

> <r_epik_Ionization_Penalty_Neutral>
1.17174e-07

> <r_epik_State_Penalty>
-0

> <r_epik_Charging_Adjusted_Penalty>
1.57223e-10

> <i_epik_Tot_Q>
0

> <i_epik_Tot_abs_Q>
0

> <r_epik_Metal_State_Penalty>
-0

> <b_epik_Metal_Only>
0

> <s_lp_Force_Field>
OPLS_2005

> <r_lp_Energy>
30.066

> <b_lp_Chiralities_Consistent>
1

> <s_lp_Variant>
AV-unprocessed.smi:443-1

> <Gold.Version>
5.8.1

> <Gold.Id.Protein>
6NUR|6NUR_protein|mol2

> <Gold.PLP.Fitness>
44.9137

> <Gold.PLP.PLP>
-43.9366

> <Gold.PLP.part.hbond>
-1.9330

> <Gold.PLP.part.metal>
0.0000

> <Gold.PLP.part.buried>
-5.2940

> <Gold.PLP.part.nonpolar>
-37.2575

> <Gold.PLP.part.repulsive>
0.1811

> <Gold.PLP.ligand.clash>
0.0000

> <Gold.PLP.ligand.torsion>
1.1309

> <Gold.PLP.Chemscore.Hbond>
1.0000

> <Gold.PLP.Chemscore.CHOScore>
0.0000

> <Gold.PLP.Chemscore.Metal>
0.0000

> <Gold.Chemscore.Hbonds>
donor molecule, donor type, donor heavy atom, donor atom, acceptor molecule, acceptor atom, score
      L1  H     7    32       P1  8028  1.00

> <Gold.PLP.Chemscore.Internal.Correction>
0.2389

> <Gold.Rescore>
     Score         DG    S(hbond)    S(metal)    S(lipo)     H(rot)  DE(clash)    DE(int)     intcor
     16.22     -17.70       1.00        0.00     128.59       2.41       0.38       1.10       ----

> <Gold.Chemscore.Fitness>
16.2174

> <Gold.Chemscore.DG>
-17.6981

> <Gold.Chemscore.ZeroCoef>
-5.4800

> <Gold.Chemscore.Hbond>
0.9997

> <Gold.Chemscore.Metal>
0.0000

> <Gold.Chemscore.Lipo>
128.5864

> <Gold.Chemscore.Internal_Hbond>
0.0000

> <Gold.Chemscore.DEClash>
0.3790

> <Gold.Chemscore.DEInternal>
1.1017

> <Gold.Chemscore.Rot>
2.4084

> <Gold.Chemscore.Internal.Correction>
   9.000000E+99

> <Gold.Chemscore.Hbonds>
donor molecule, donor type, donor heavy atom, donor atom, acceptor molecule, acceptor atom, score
      L1  H     7    32       P1  8028  1.00

> <Gold.Chemscore.Hbond.Weighted>
-3.3390

> <Gold.Chemscore.Metal.Weighted>
-0.0000

> <Gold.Chemscore.Lipo.Weighted>
-15.0446

> <Gold.Chemscore.Internal_Hbond.Weighted>
0.0000

> <Gold.Chemscore.DEClash.Weighted>
0.3790

> <Gold.Chemscore.DEInternal.Weighted>
1.1017

> <Gold.Chemscore.Rot.Weighted>
6.1655

> <Gold.Chemscore.Internal.Correction.Weighted>
   9.000000E+99

> <Gold.Protein.RotatedTorsions>
[ 6907 6896 6895 6894 ] final   33.90 input  -60.11 | X-H torsion
[ 7974 7965 7964 7962 ] final  -88.25 input  175.53 | X-H torsion
[ 8008 7997 7996 7995 ] final  -90.49 input   59.86 | X-H torsion
[ 10167 10162 10161 10158 ] final  136.94 input  -65.29 | X-H torsion
[ 10718 10713 10712 10709 ] final -131.28 input   66.30 | X-H torsion
[ 10763 10752 10751 10750 ] final  -55.03 input  -60.55 | X-H torsion
[ 11005 11000 10999 10996 ] final   19.20 input  -57.11 | X-H torsion

> <Gold.Protein.ActiveResidues>
 VAL166  LYS551  ARG553  GLY616  TRP617  ASP618  TYR619  PRO620  LYS621  CYS622 
 ASP623  PHE694  ASN695  SER759  ASP760  ASP761  ALA762  ILE779  LEU786  VAL792 
 PHE793  MET794  SER795  GLU796  ALA797  LYS798  CYS799  TRP800  GLU811  SER814 

> <Gold.Protein.RotatedAtoms>
  152.0950  134.9381  160.0570 H   0  0  0  0  0  0  0  0  0  0  0  0  # atno 6907 bound_to 6896
  152.0618  133.4060  159.4429 H   0  0  0  0  0  0  0  0  0  0  0  0  # atno 6908 bound_to 6896
  150.6838  134.3112  159.4790 H   0  0  0  0  0  0  0  0  0  0  0  0  # atno 6909 bound_to 6896
  145.4557  140.9561  143.1997 H   0  0  0  0  0  0  0  0  0  0  0  0  # atno 7974 bound_to 7965
  154.6992  140.0530  157.0441 H   0  0  0  0  0  0  0  0  0  0  0  0  # atno 8008 bound_to 7997
  155.0709  140.3199  155.4612 H   0  0  0  0  0  0  0  0  0  0  0  0  # atno 8009 bound_to 7997
  156.2754  140.2082  156.5836 H   0  0  0  0  0  0  0  0  0  0  0  0  # atno 8010 bound_to 7997
  139.5162  144.6437  151.5499 H   0  0  0  0  0  0  0  0  0  0  0  0  # atno 10167 bound_to 10162
  156.2229  130.6989  151.0775 H   0  0  0  0  0  0  0  0  0  0  0  0  # atno 10718 bound_to 10713
  154.1842  135.6438  153.5042 H   0  0  0  0  0  0  0  0  0  0  0  0  # atno 10763 bound_to 10752
  153.0051  135.5413  154.6482 H   0  0  0  0  0  0  0  0  0  0  0  0  # atno 10764 bound_to 10752
  154.5854  135.2929  155.0663 H   0  0  0  0  0  0  0  0  0  0  0  0  # atno 10765 bound_to 10752
  140.4164  134.1565  155.7670 H   0  0  0  0  0  0  0  0  0  0  0  0  # atno 11005 bound_to 11000
  144.8034  139.6098  143.7061 LP  0  0  0  0  0  0  0  0  0  0  0  0  # atno 17320 bound_to 7965
  146.2479  139.6138  142.9447 LP  0  0  0  0  0  0  0  0  0  0  0  0  # atno 17321 bound_to 7965
  140.6214  143.9252  150.6529 LP  0  0  0  0  0  0  0  0  0  0  0  0  # atno 17342 bound_to 10162
  140.2526  143.3582  152.1392 LP  0  0  0  0  0  0  0  0  0  0  0  0  # atno 17343 bound_to 10162
  157.7096  131.0740  150.6547 LP  0  0  0  0  0  0  0  0  0  0  0  0  # atno 17370 bound_to 10713
  156.6611  130.4512  149.5687 LP  0  0  0  0  0  0  0  0  0  0  0  0  # atno 17371 bound_to 10713
  141.1801  133.8431  157.1287 LP  0  0  0  0  0  0  0  0  0  0  0  0  # atno 17394 bound_to 11000
  140.0231  134.9936  157.0632 LP  0  0  0  0  0  0  0  0  0  0  0  0  # atno 17395 bound_to 11000

$$$$
