AV-unprocessed.smi:3164|AV-procd|sdf|12081|dock9
  -GOLD-   2272017513D 1   1.00000     0.00000
 Structure written by MMmdl.
 40 41  0  0  0  0  0  0  0  0  3 V2000
  149.0619  138.9115  154.2599 C   0  0  0  0  0  0  0  0  0  0  0  0
  149.1599  140.3756  154.0563 N   0  3  1  0  0  0  0  0  0  0  0  0
  147.8559  141.0762  154.1271 C   0  0  0  0  0  0  0  0  0  0  0  0
  147.4101  141.2845  155.5861 C   0  0  0  0  0  0  0  0  0  0  0  0
  148.4288  141.9721  156.3029 O   0  0  0  0  0  0  0  0  0  0  0  0
  149.6475  141.2372  156.3598 C   0  0  2  0  0  0  0  0  0  0  0  0
  150.6436  142.0315  157.2186 C   0  0  0  0  0  0  0  0  0  0  0  0
  151.0646  143.2774  156.5458 N   0  3  0  0  0  0  0  0  0  0  0  0
  151.8883  144.1645  157.3898 C   0  0  0  0  0  0  0  0  0  0  0  0
  151.4391  144.1073  158.8562 C   0  0  0  0  0  0  0  0  0  0  0  0
  152.2779  143.1434  159.6734 C   0  0  0  0  0  0  0  0  0  0  0  0
  152.4381  143.3237  161.0639 C   0  0  0  0  0  0  0  0  0  0  0  0
  153.2349  142.4027  161.7715 C   0  0  0  0  0  0  0  0  0  0  0  0
  153.8378  141.3444  161.0646 C   0  0  0  0  0  0  0  0  0  0  0  0
  153.6164  141.2529  159.6761 C   0  0  0  0  0  0  0  0  0  0  0  0
  152.8549  142.1312  158.9879 N   0  0  0  0  0  0  0  0  0  0  0  0
  150.1700  141.0348  154.9196 C   0  0  0  0  0  0  0  0  0  0  0  0
  148.7113  138.6607  155.2609 H   0  0  0  0  0  0  0  0  0  0  0  0
  150.0337  138.4395  154.1127 H   0  0  0  0  0  0  0  0  0  0  0  0
  148.3712  138.4715  153.5399 H   0  0  0  0  0  0  0  0  0  0  0  0
  147.9625  142.0475  153.6421 H   0  0  0  0  0  0  0  0  0  0  0  0
  147.0984  140.5309  153.5627 H   0  0  0  0  0  0  0  0  0  0  0  0
  146.4976  141.8800  155.6153 H   0  0  0  0  0  0  0  0  0  0  0  0
  147.1811  140.3351  156.0724 H   0  0  0  0  0  0  0  0  0  0  0  0
  149.4705  140.2685  156.8305 H   0  0  0  0  0  0  0  0  0  0  0  0
  150.1799  142.2930  158.1708 H   0  0  0  0  0  0  0  0  0  0  0  0
  151.5193  141.4215  157.4452 H   0  0  0  0  0  0  0  0  0  0  0  0
  151.5965  143.0344  155.7216 H   0  0  0  0  0  0  0  0  0  0  0  0
  152.9343  143.8652  157.3072 H   0  0  0  0  0  0  0  0  0  0  0  0
  151.8145  145.1875  157.0177 H   0  0  0  0  0  0  0  0  0  0  0  0
  151.4950  145.1006  159.3039 H   0  0  0  0  0  0  0  0  0  0  0  0
  150.3934  143.8015  158.9167 H   0  0  0  0  0  0  0  0  0  0  0  0
  151.9642  144.1460  161.5795 H   0  0  0  0  0  0  0  0  0  0  0  0
  153.3811  142.5060  162.8365 H   0  0  0  0  0  0  0  0  0  0  0  0
  154.4549  140.6194  161.5744 H   0  0  0  0  0  0  0  0  0  0  0  0
  154.0633  140.4540  159.1031 H   0  0  0  0  0  0  0  0  0  0  0  0
  151.0969  140.4596  154.9182 H   0  0  0  0  0  0  0  0  0  0  0  0
  150.4085  142.0045  154.4799 H   0  0  0  0  0  0  0  0  0  0  0  0
  150.2403  143.7869  156.2602 H   0  0  0  0  0  0  0  0  0  0  0  0
  149.4862  140.4843  153.1060 H   0  0  0  0  0  0  0  0  0  0  0  0
  1  2  1  0  0  0  0
  1 18  1  0  0  0  0
  1 19  1  0  0  0  0
  1 20  1  0  0  0  0
  2 17  1  0  0  0  0
  2  3  1  0  0  0  0
  2 40  1  0  0  0  0
  3  4  1  0  0  0  0
  3 21  1  0  0  0  0
  3 22  1  0  0  0  0
  4  5  1  0  0  0  0
  4 23  1  0  0  0  0
  4 24  1  0  0  0  0
  5  6  1  0  0  0  0
  6  7  1  0  0  0  0
  6 17  1  0  0  0  0
  6 25  1  0  0  0  0
  7  8  1  0  0  0  0
  7 26  1  0  0  0  0
  7 27  1  0  0  0  0
  8  9  1  0  0  0  0
  8 28  1  0  0  0  0
  8 39  1  0  0  0  0
  9 10  1  0  0  0  0
  9 29  1  0  0  0  0
  9 30  1  0  0  0  0
 10 11  1  0  0  0  0
 10 31  1  0  0  0  0
 10 32  1  0  0  0  0
 11 16  1  0  0  0  0
 11 12  2  0  0  0  0
 12 13  1  0  0  0  0
 12 33  1  0  0  0  0
 13 14  2  0  0  0  0
 13 34  1  0  0  0  0
 14 15  1  0  0  0  0
 14 35  1  0  0  0  0
 15 16  2  0  0  0  0
 15 36  1  0  0  0  0
 17 37  1  0  0  0  0
 17 38  1  0  0  0  0
M  CHG  1   2   1
M  CHG  1   8   1
M  END
> <s_m_source_file>
AV-unprocessed.smi

> <i_m_source_file_index>
3164

> <i_lp_mmshare_version>
43012

> <i_f3d_flags>
0

> <s_epik_input>
W0NIM11OMVtDSDJdW0NIMl1PW0NASF0oW0NIMl0xKVtDSDJdW05IXVtDSDJdW0NIMl1jMltjSF1bY0hdW2NIXVtjSF1uMg==

> <s_epik_cmdline>
J2VwaWtfcHl0aG9uJywgJy1waCcsICc3LjAnLCAnLXRuJywgJzgnLCAnLW1hJywgJzIwMCcsICctbWV0YWxfYmluZGluZycsICctaW1hZScsICc8aW5maWxlLm1hZT4nLCAnLW9tYWUnLCAnPG91dGZpbGUubWFlPic=

> <r_epik_Ionization_Penalty>
0.294944

> <r_epik_Ionization_Penalty_Charging>
0.29381

> <r_epik_Ionization_Penalty_Neutral>
0.00113372

> <r_epik_State_Penalty>
0.271365

> <r_epik_Charging_Adjusted_Penalty>
0.565175

> <i_epik_Tot_Q>
2

> <i_epik_Tot_abs_Q>
2

> <r_epik_Metal_State_Penalty>
0.271365

> <b_epik_Metal_Only>
0

> <s_lp_Force_Field>
OPLS_2005

> <r_lp_Energy>
22.4387

> <b_lp_Chiralities_Consistent>
1

> <s_lp_Variant>
AV-unprocessed.smi:3164-3

> <Gold.Version>
5.8.1

> <Gold.Id.Protein>
6NUR|6NUR_protein|mol2

> <Gold.PLP.Fitness>
47.2014

> <Gold.PLP.PLP>
-39.8294

> <Gold.PLP.part.hbond>
-2.0000

> <Gold.PLP.part.metal>
0.0000

> <Gold.PLP.part.buried>
-4.4364

> <Gold.PLP.part.nonpolar>
-34.9830

> <Gold.PLP.part.repulsive>
1.7140

> <Gold.PLP.ligand.clash>
0.0000

> <Gold.PLP.ligand.torsion>
0.8018

> <Gold.PLP.Chemscore.Hbond>
2.9913

> <Gold.PLP.Chemscore.CHOScore>
0.0000

> <Gold.PLP.Chemscore.Metal>
0.0000

> <Gold.Chemscore.Hbonds>
donor molecule, donor type, donor heavy atom, donor atom, acceptor molecule, acceptor atom, score
      L1  H     2    40       P1  7957  1.00
      L1  H     8    39       P1  8028  2.00

> <Gold.PLP.Chemscore.Internal.Correction>
0.0019

> <Gold.Rescore>
     Score         DG    S(hbond)    S(metal)    S(lipo)     H(rot)  DE(clash)    DE(int)     intcor
     18.02     -21.60       1.97        0.00     117.58       1.65       1.36       2.22       ----

> <Gold.Chemscore.Fitness>
18.0216

> <Gold.Chemscore.DG>
-21.6013

> <Gold.Chemscore.ZeroCoef>
-5.4800

> <Gold.Chemscore.Hbond>
1.9692

> <Gold.Chemscore.Metal>
0.0000

> <Gold.Chemscore.Lipo>
117.5750

> <Gold.Chemscore.Internal_Hbond>
0.0000

> <Gold.Chemscore.DEClash>
1.3555

> <Gold.Chemscore.DEInternal>
2.2242

> <Gold.Chemscore.Rot>
1.6454

> <Gold.Chemscore.Internal.Correction>
   9.000000E+99

> <Gold.Chemscore.Hbonds>
donor molecule, donor type, donor heavy atom, donor atom, acceptor molecule, acceptor atom, score
      L1  H     2    40       P1  7957  0.95
      L1  H     8    39       P1  8028  1.00

> <Gold.Chemscore.Hbond.Weighted>
-6.5773

> <Gold.Chemscore.Metal.Weighted>
-0.0000

> <Gold.Chemscore.Lipo.Weighted>
-13.7563

> <Gold.Chemscore.Internal_Hbond.Weighted>
0.0000

> <Gold.Chemscore.DEClash.Weighted>
1.3555

> <Gold.Chemscore.DEInternal.Weighted>
2.2242

> <Gold.Chemscore.Rot.Weighted>
4.2122

> <Gold.Chemscore.Internal.Correction.Weighted>
   9.000000E+99

> <Gold.Protein.RotatedTorsions>
[ 6907 6896 6895 6894 ] final  167.31 input  -60.11 | X-H torsion
[ 7974 7965 7964 7962 ] final  151.32 input  175.53 | X-H torsion
[ 8008 7997 7996 7995 ] final   19.12 input   59.86 | X-H torsion
[ 10167 10162 10161 10158 ] final  -39.70 input  -65.29 | X-H torsion
[ 10718 10713 10712 10709 ] final   91.24 input   66.30 | X-H torsion
[ 10763 10752 10751 10750 ] final  131.24 input  -60.55 | X-H torsion
[ 11005 11000 10999 10996 ] final    7.85 input  -57.11 | X-H torsion

> <Gold.Protein.ActiveResidues>
 VAL166  LYS551  ARG553  GLY616  TRP617  ASP618  TYR619  PRO620  LYS621  CYS622 
 ASP623  PHE694  ASN695  SER759  ASP760  ASP761  ALA762  ILE779  LEU786  VAL792 
 PHE793  MET794  SER795  GLU796  ALA797  LYS798  CYS799  TRP800  GLU811  SER814 

> <Gold.Protein.RotatedAtoms>
  151.8653  133.3465  159.3716 H   0  0  0  0  0  0  0  0  0  0  0  0  # atno 6907 bound_to 6896
  150.7167  134.5166  159.5642 H   0  0  0  0  0  0  0  0  0  0  0  0  # atno 6908 bound_to 6896
  152.2687  134.7956  160.0469 H   0  0  0  0  0  0  0  0  0  0  0  0  # atno 6909 bound_to 6896
  144.8301  139.6522  143.6062 H   0  0  0  0  0  0  0  0  0  0  0  0  # atno 7974 bound_to 7965
  154.9161  140.3021  155.5240 H   0  0  0  0  0  0  0  0  0  0  0  0  # atno 8008 bound_to 7997
  156.3012  140.2380  156.4142 H   0  0  0  0  0  0  0  0  0  0  0  0  # atno 8009 bound_to 7997
  154.8377  140.0415  157.1509 H   0  0  0  0  0  0  0  0  0  0  0  0  # atno 8010 bound_to 7997
  140.7056  143.3198  151.2820 H   0  0  0  0  0  0  0  0  0  0  0  0  # atno 10167 bound_to 10162
  157.6960  131.0400  150.3700 H   0  0  0  0  0  0  0  0  0  0  0  0  # atno 10718 bound_to 10713
  153.7711  135.3182  155.3352 H   0  0  0  0  0  0  0  0  0  0  0  0  # atno 10763 bound_to 10752
  154.8196  135.4612  154.0743 H   0  0  0  0  0  0  0  0  0  0  0  0  # atno 10764 bound_to 10752
  153.2003  135.6921  153.8324 H   0  0  0  0  0  0  0  0  0  0  0  0  # atno 10765 bound_to 10752
  140.5436  134.0350  155.7912 H   0  0  0  0  0  0  0  0  0  0  0  0  # atno 11005 bound_to 11000
  146.2604  139.6398  142.9365 LP  0  0  0  0  0  0  0  0  0  0  0  0  # atno 17320 bound_to 7965
  145.4914  141.0438  143.2591 LP  0  0  0  0  0  0  0  0  0  0  0  0  # atno 17321 bound_to 7965
  139.6648  144.0124  152.2716 LP  0  0  0  0  0  0  0  0  0  0  0  0  # atno 17342 bound_to 10162
  139.9704  144.6498  150.7995 LP  0  0  0  0  0  0  0  0  0  0  0  0  # atno 17343 bound_to 10162
  156.4126  130.3937  149.6881 LP  0  0  0  0  0  0  0  0  0  0  0  0  # atno 17370 bound_to 10713
  156.4159  130.7745  151.2760 LP  0  0  0  0  0  0  0  0  0  0  0  0  # atno 17371 bound_to 10713
  141.1213  133.9457  157.2725 LP  0  0  0  0  0  0  0  0  0  0  0  0  # atno 17394 bound_to 11000
  139.9491  135.0179  156.8941 LP  0  0  0  0  0  0  0  0  0  0  0  0  # atno 17395 bound_to 11000

$$$$
