AV-unprocessed.smi:2889|AV-procd|sdf|11109|dock10
  -GOLD-   2272015573D 1   1.00000     0.00000
 Structure written by MMmdl.
 36 37  0  0  0  0  0  0  0  0  1 V2000
  151.7937  145.8807  160.1211 C   0  0  0  0  0  0  0  0  0  0  0  0
  151.2934  144.1885  159.7039 S   0  0  0  0  0  0  0  0  0  0  0  0
  152.6786  143.2225  160.3889 C   0  0  1  0  0  0  0  0  0  0  0  0
  152.4714  142.9715  161.8946 C   0  0  0  0  0  0  0  0  0  0  0  0
  153.6345  142.1770  162.5058 C   0  0  0  0  0  0  0  0  0  0  0  0
  153.8388  140.8457  161.7707 C   0  0  0  0  0  0  0  0  0  0  0  0
  154.0662  141.0662  160.2665 C   0  0  0  0  0  0  0  0  0  0  0  0
  152.9466  141.9066  159.6156 C   0  0  1  0  0  0  0  0  0  0  0  0
  151.7154  141.1180  159.4671 N   0  0  0  0  0  0  0  0  0  0  0  0
  151.6626  139.8211  158.3270 S   0  0  0  0  0  0  0  0  0  0  0  0
  152.9956  139.7006  157.7154 O   0  0  0  0  0  0  0  0  0  0  0  0
  151.0522  138.6708  159.0106 O   0  0  0  0  0  0  0  0  0  0  0  0
  150.4768  140.4573  157.0637 C   0  0  0  0  0  0  0  0  0  0  0  0
  150.3358  139.4699  155.9397 C   0  0  0  0  0  0  0  0  0  0  0  0
  149.8943  138.1195  156.0037 C   0  0  0  0  0  0  0  0  0  0  0  0
  149.9534  137.7023  154.7057 C   0  0  0  0  0  0  0  0  0  0  0  0
  150.4039  138.7015  153.9060 O   0  0  0  0  0  0  0  0  0  0  0  0
  150.6506  139.8246  154.7038 N   0  0  0  0  0  0  0  0  0  0  0  0
  150.9951  146.5768  159.8657 H   0  0  0  0  0  0  0  0  0  0  0  0
  152.6842  146.1703  159.5637 H   0  0  0  0  0  0  0  0  0  0  0  0
  152.0005  145.9683  161.1877 H   0  0  0  0  0  0  0  0  0  0  0  0
  153.5651  143.8504  160.2880 H   0  0  0  0  0  0  0  0  0  0  0  0
  152.3664  143.9227  162.4173 H   0  0  0  0  0  0  0  0  0  0  0  0
  151.5382  142.4295  162.0537 H   0  0  0  0  0  0  0  0  0  0  0  0
  154.5496  142.7684  162.4565 H   0  0  0  0  0  0  0  0  0  0  0  0
  153.4417  141.9915  163.5627 H   0  0  0  0  0  0  0  0  0  0  0  0
  154.6881  140.3124  162.1981 H   0  0  0  0  0  0  0  0  0  0  0  0
  152.9679  140.2062  161.9199 H   0  0  0  0  0  0  0  0  0  0  0  0
  155.0150  141.5870  160.1323 H   0  0  0  0  0  0  0  0  0  0  0  0
  154.1809  140.1087  159.7580 H   0  0  0  0  0  0  0  0  0  0  0  0
  153.2858  142.1759  158.6162 H   0  0  0  0  0  0  0  0  0  0  0  0
  151.3541  140.8257  160.3747 H   0  0  0  0  0  0  0  0  0  0  0  0
  149.5181  140.6201  157.5565 H   0  0  0  0  0  0  0  0  0  0  0  0
  150.8311  141.4240  156.7069 H   0  0  0  0  0  0  0  0  0  0  0  0
  149.5760  137.5503  156.8643 H   0  0  0  0  0  0  0  0  0  0  0  0
  149.7212  136.7687  154.2150 H   0  0  0  0  0  0  0  0  0  0  0  0
  1  2  1  0  0  0  0
  1 19  1  0  0  0  0
  1 20  1  0  0  0  0
  1 21  1  0  0  0  0
  2  3  1  0  0  0  0
  3  8  1  0  0  0  0
  3  4  1  0  0  0  0
  3 22  1  0  0  0  0
  4  5  1  0  0  0  0
  4 23  1  0  0  0  0
  4 24  1  0  0  0  0
  5  6  1  0  0  0  0
  5 25  1  0  0  0  0
  5 26  1  0  0  0  0
  6  7  1  0  0  0  0
  6 27  1  0  0  0  0
  6 28  1  0  0  0  0
  7  8  1  0  0  0  0
  7 29  1  0  0  0  0
  7 30  1  0  0  0  0
  8  9  1  0  0  0  0
  8 31  1  0  0  0  0
  9 10  1  0  0  0  0
  9 32  1  0  0  0  0
 10 11  2  0  0  0  0
 10 12  2  0  0  0  0
 10 13  1  0  0  0  0
 13 14  1  0  0  0  0
 13 33  1  0  0  0  0
 13 34  1  0  0  0  0
 14 18  2  0  0  0  0
 14 15  1  0  0  0  0
 15 16  2  0  0  0  0
 15 35  1  0  0  0  0
 16 17  1  0  0  0  0
 16 36  1  0  0  0  0
 17 18  1  0  0  0  0
M  END
> <s_m_source_file>
AV-unprocessed.smi

> <i_m_source_file_index>
2889

> <i_lp_mmshare_version>
43012

> <i_f3d_flags>
0

> <s_epik_input>
W0NIM11TW0NAQEhdMVtDSDJdW0NIMl1bQ0gyXVtDSDJdW0NASF0xW05IXVMoPU8pKD1PKVtDSDJdYzJbY0hdW2NIXW9uMg==

> <s_epik_cmdline>
J2VwaWtfcHl0aG9uJywgJy1waCcsICc3LjAnLCAnLXRuJywgJzgnLCAnLW1hJywgJzIwMCcsICctbWV0YWxfYmluZGluZycsICctaW1hZScsICc8aW5maWxlLm1hZT4nLCAnLW9tYWUnLCAnPG91dGZpbGUubWFlPic=

> <r_lp_tautomer_probability>
1

> <r_epik_Ionization_Penalty>
0.000229547

> <r_epik_Ionization_Penalty_Charging>
0

> <r_epik_Ionization_Penalty_Neutral>
0.000229547

> <r_epik_State_Penalty>
-0

> <r_epik_Charging_Adjusted_Penalty>
0

> <i_epik_Tot_Q>
0

> <i_epik_Tot_abs_Q>
0

> <r_epik_Metal_State_Penalty>
0.145979

> <b_epik_Metal_Only>
0

> <s_lp_Force_Field>
OPLS_2005

> <r_lp_Energy>
4.05076

> <b_lp_Chiralities_Consistent>
1

> <s_lp_Variant>
AV-unprocessed.smi:2889-2

> <Gold.Version>
5.8.1

> <Gold.Id.Protein>
6NUR|6NUR_protein|mol2

> <Gold.PLP.Fitness>
46.5887

> <Gold.PLP.PLP>
-38.5417

> <Gold.PLP.part.hbond>
-2.0000

> <Gold.PLP.part.metal>
0.0000

> <Gold.PLP.part.buried>
-3.3686

> <Gold.PLP.part.nonpolar>
-33.0209

> <Gold.PLP.part.repulsive>
0.3220

> <Gold.PLP.ligand.clash>
0.0000

> <Gold.PLP.ligand.torsion>
0.5554

> <Gold.PLP.Chemscore.Hbond>
2.0000

> <Gold.PLP.Chemscore.CHOScore>
0.9975

> <Gold.PLP.Chemscore.Metal>
0.0000

> <Gold.Chemscore.Hbonds>
donor molecule, donor type, donor heavy atom, donor atom, acceptor molecule, acceptor atom, score
      P1  H  7989  7998       L1    18  1.00
      P1  H  7997  8010       L1    11  1.00
      L1  C    16    36       P1  7948  1.00

> <Gold.PLP.Chemscore.Internal.Correction>
0.1652

> <Gold.Rescore>
     Score         DG    S(hbond)    S(metal)    S(lipo)     H(rot)  DE(clash)    DE(int)     intcor
     18.94     -19.33       1.82        0.00     105.88       1.81       0.05       0.35       ----

> <Gold.Chemscore.Fitness>
18.9352

> <Gold.Chemscore.DG>
-19.3281

> <Gold.Chemscore.ZeroCoef>
-5.4800

> <Gold.Chemscore.Hbond>
1.8212

> <Gold.Chemscore.Metal>
0.0000

> <Gold.Chemscore.Lipo>
105.8814

> <Gold.Chemscore.Internal_Hbond>
0.0000

> <Gold.Chemscore.DEClash>
0.0477

> <Gold.Chemscore.DEInternal>
0.3452

> <Gold.Chemscore.Rot>
1.8058

> <Gold.Chemscore.Internal.Correction>
   9.000000E+99

> <Gold.Chemscore.Hbonds>
donor molecule, donor type, donor heavy atom, donor atom, acceptor molecule, acceptor atom, score
      P1  H  7989  7998       L1    18  0.26
      P1  H  7997  8010       L1    11  0.98

> <Gold.Chemscore.Hbond.Weighted>
-6.0828

> <Gold.Chemscore.Metal.Weighted>
-0.0000

> <Gold.Chemscore.Lipo.Weighted>
-12.3881

> <Gold.Chemscore.Internal_Hbond.Weighted>
0.0000

> <Gold.Chemscore.DEClash.Weighted>
0.0477

> <Gold.Chemscore.DEInternal.Weighted>
0.3452

> <Gold.Chemscore.Rot.Weighted>
4.6228

> <Gold.Chemscore.Internal.Correction.Weighted>
   9.000000E+99

> <Gold.Protein.RotatedTorsions>
[ 6907 6896 6895 6894 ] final   -2.82 input  -60.11 | X-H torsion
[ 7974 7965 7964 7962 ] final   -6.69 input  175.53 | X-H torsion
[ 8008 7997 7996 7995 ] final   60.20 input   59.86 | X-H torsion
[ 10167 10162 10161 10158 ] final   49.42 input  -65.29 | X-H torsion
[ 10718 10713 10712 10709 ] final   29.98 input   66.30 | X-H torsion
[ 10763 10752 10751 10750 ] final -122.09 input  -60.55 | X-H torsion
[ 11005 11000 10999 10996 ] final   74.22 input  -57.11 | X-H torsion

> <Gold.Protein.ActiveResidues>
 VAL166  LYS551  ARG553  GLY616  TRP617  ASP618  TYR619  PRO620  LYS621  CYS622 
 ASP623  PHE694  ASN695  SER759  ASP760  ASP761  ALA762  ILE779  LEU786  VAL792 
 PHE793  MET794  SER795  GLU796  ALA797  LYS798  CYS799  TRP800  GLU811  SER814 

> <Gold.Protein.RotatedAtoms>
  151.5238  135.1067  159.9884 H   0  0  0  0  0  0  0  0  0  0  0  0  # atno 6907 bound_to 6896
  152.4609  133.7816  159.6864 H   0  0  0  0  0  0  0  0  0  0  0  0  # atno 6908 bound_to 6896
  150.8571  133.7635  159.3030 H   0  0  0  0  0  0  0  0  0  0  0  0  # atno 6909 bound_to 6896
  146.2325  140.2207  142.8337 H   0  0  0  0  0  0  0  0  0  0  0  0  # atno 7974 bound_to 7965
  155.5785  140.3491  155.4534 H   0  0  0  0  0  0  0  0  0  0  0  0  # atno 8008 bound_to 7997
  156.0391  140.1292  157.0201 H   0  0  0  0  0  0  0  0  0  0  0  0  # atno 8009 bound_to 7997
  154.4384  140.1028  156.6196 H   0  0  0  0  0  0  0  0  0  0  0  0  # atno 8010 bound_to 7997
  140.2830  144.3134  150.6259 H   0  0  0  0  0  0  0  0  0  0  0  0  # atno 10167 bound_to 10162
  157.2536  130.7127  149.6418 H   0  0  0  0  0  0  0  0  0  0  0  0  # atno 10718 bound_to 10713
  154.8682  135.4145  154.2726 H   0  0  0  0  0  0  0  0  0  0  0  0  # atno 10763 bound_to 10752
  153.3633  135.7004  153.6700 H   0  0  0  0  0  0  0  0  0  0  0  0  # atno 10764 bound_to 10752
  153.5592  135.3613  155.2764 H   0  0  0  0  0  0  0  0  0  0  0  0  # atno 10765 bound_to 10752
  139.9401  134.7414  156.1121 H   0  0  0  0  0  0  0  0  0  0  0  0  # atno 11005 bound_to 11000
  144.9634  140.8297  143.5499 LP  0  0  0  0  0  0  0  0  0  0  0  0  # atno 17320 bound_to 7965
  145.2181  139.2172  143.5108 LP  0  0  0  0  0  0  0  0  0  0  0  0  # atno 17321 bound_to 7965
  140.5796  143.2174  151.7453 LP  0  0  0  0  0  0  0  0  0  0  0  0  # atno 17342 bound_to 10162
  139.4957  144.4100  152.0091 LP  0  0  0  0  0  0  0  0  0  0  0  0  # atno 17343 bound_to 10162
  155.9665  130.4420  150.5362 LP  0  0  0  0  0  0  0  0  0  0  0  0  # atno 17370 bound_to 10713
  157.3251  131.0689  151.1903 LP  0  0  0  0  0  0  0  0  0  0  0  0  # atno 17371 bound_to 10713
  141.1032  133.6669  156.2803 LP  0  0  0  0  0  0  0  0  0  0  0  0  # atno 17394 bound_to 11000
  140.5973  134.5590  157.5511 LP  0  0  0  0  0  0  0  0  0  0  0  0  # atno 17395 bound_to 11000

$$$$
