AV-unprocessed.smi:1644|AV-procd|sdf|6588|dock1
  -GOLD-   22720 7283D 1   1.00000     0.00000
 Structure written by MMmdl.
 50 52  0  0  0  0  0  0  0  0  2 V2000
  147.7058  136.2781  163.1541 C   0  0  0  0  0  0  0  0  0  0  0  0
  147.3708  134.8612  162.6758 C   0  0  0  0  0  0  0  0  0  0  0  0
  146.0524  134.8023  161.8880 C   0  0  0  0  0  0  0  0  0  0  0  0
  146.2173  135.1724  160.4009 C   0  0  2  0  0  0  0  0  0  0  0  0
  147.1720  134.3244  159.7149 N   0  0  0  0  0  0  0  0  0  0  0  0
  148.1977  135.0145  159.2002 C   0  0  0  0  0  0  0  0  0  0  0  0
  149.1409  134.5261  158.5800 O   0  0  0  0  0  0  0  0  0  0  0  0
  148.0186  136.3169  159.4870 N   0  0  0  0  0  0  0  0  0  0  0  0
  148.9501  137.3839  159.1073 C   0  0  0  0  0  0  0  0  0  0  0  0
  148.5290  138.0734  157.7933 C   0  0  2  0  0  0  0  0  0  0  0  0
  147.8474  137.1312  156.9879 O   0  0  0  0  0  0  0  0  0  0  0  0
  149.7490  138.6002  157.0121 C   0  0  0  0  0  0  0  0  0  0  0  0
  149.8983  140.0596  157.1052 N   0  0  0  0  0  0  0  0  0  0  0  0
  149.2212  141.0427  156.4526 C   0  0  0  0  0  0  0  0  0  0  0  0
  149.7226  142.2365  156.8736 N   0  3  0  0  0  0  0  0  0  0  0  0
  150.7368  142.0125  157.8070 C   0  0  0  0  0  0  0  0  0  0  0  0
  151.5402  142.9037  158.5082 C   0  0  0  0  0  0  0  0  0  0  0  0
  152.4954  142.3531  159.3925 C   0  0  0  0  0  0  0  0  0  0  0  0
  153.3931  143.2996  160.1712 C   0  0  0  0  0  0  0  0  0  0  0  0
  152.6184  140.9484  159.5514 C   0  0  0  0  0  0  0  0  0  0  0  0
  153.6500  140.3665  160.5031 C   0  0  0  0  0  0  0  0  0  0  0  0
  151.7904  140.0589  158.8300 C   0  0  0  0  0  0  0  0  0  0  0  0
  150.8550  140.6175  157.9618 C   0  0  0  0  0  0  0  0  0  0  0  0
  146.9015  136.5115  160.1996 C   0  0  0  0  0  0  0  0  0  0  0  0
  146.4754  137.5780  160.6424 O   0  0  0  0  0  0  0  0  0  0  0  0
  148.6404  136.2877  163.7153 H   0  0  0  0  0  0  0  0  0  0  0  0
  146.9231  136.6694  163.8046 H   0  0  0  0  0  0  0  0  0  0  0  0
  147.8161  136.9620  162.3122 H   0  0  0  0  0  0  0  0  0  0  0  0
  148.1905  134.4919  162.0587 H   0  0  0  0  0  0  0  0  0  0  0  0
  147.3100  134.1967  163.5384 H   0  0  0  0  0  0  0  0  0  0  0  0
  145.6438  133.7933  161.9610 H   0  0  0  0  0  0  0  0  0  0  0  0
  145.3196  135.4611  162.3572 H   0  0  0  0  0  0  0  0  0  0  0  0
  145.2600  135.1610  159.8781 H   0  0  0  0  0  0  0  0  0  0  0  0
  147.0645  133.3229  159.6437 H   0  0  0  0  0  0  0  0  0  0  0  0
  148.9664  138.1175  159.9154 H   0  0  0  0  0  0  0  0  0  0  0  0
  149.9746  137.0119  159.0420 H   0  0  0  0  0  0  0  0  0  0  0  0
  147.8583  138.9084  158.0015 H   0  0  0  0  0  0  0  0  0  0  0  0
  147.7213  136.3408  157.4906 H   0  0  0  0  0  0  0  0  0  0  0  0
  150.6629  138.1636  157.4171 H   0  0  0  0  0  0  0  0  0  0  0  0
  149.7097  138.3047  155.9633 H   0  0  0  0  0  0  0  0  0  0  0  0
  148.4299  140.9012  155.7303 H   0  0  0  0  0  0  0  0  0  0  0  0
  151.4412  143.9718  158.3808 H   0  0  0  0  0  0  0  0  0  0  0  0
  153.2390  143.1778  161.2436 H   0  0  0  0  0  0  0  0  0  0  0  0
  153.1876  144.3412  159.9214 H   0  0  0  0  0  0  0  0  0  0  0  0
  154.4423  143.1048  159.9469 H   0  0  0  0  0  0  0  0  0  0  0  0
  153.5964  139.2778  160.5324 H   0  0  0  0  0  0  0  0  0  0  0  0
  153.4875  140.7336  161.5167 H   0  0  0  0  0  0  0  0  0  0  0  0
  154.6574  140.6425  160.1909 H   0  0  0  0  0  0  0  0  0  0  0  0
  151.8907  138.9899  158.9454 H   0  0  0  0  0  0  0  0  0  0  0  0
  149.3964  143.1361  156.5444 H   0  0  0  0  0  0  0  0  0  0  0  0
  1  2  1  0  0  0  0
  1 26  1  0  0  0  0
  1 27  1  0  0  0  0
  1 28  1  0  0  0  0
  2  3  1  0  0  0  0
  2 29  1  0  0  0  0
  2 30  1  0  0  0  0
  3  4  1  0  0  0  0
  3 31  1  0  0  0  0
  3 32  1  0  0  0  0
  4 24  1  0  0  0  0
  4  5  1  0  0  0  0
  4 33  1  0  0  0  0
  5  6  1  0  0  0  0
  5 34  1  0  0  0  0
  6  7  2  0  0  0  0
  6  8  1  0  0  0  0
  8  9  1  0  0  0  0
  8 24  1  0  0  0  0
  9 10  1  0  0  0  0
  9 35  1  0  0  0  0
  9 36  1  0  0  0  0
 10 11  1  0  0  0  0
 10 12  1  0  0  0  0
 10 37  1  0  0  0  0
 11 38  1  0  0  0  0
 12 13  1  0  0  0  0
 12 39  1  0  0  0  0
 12 40  1  0  0  0  0
 13 23  1  0  0  0  0
 13 14  1  0  0  0  0
 14 15  2  0  0  0  0
 14 41  1  0  0  0  0
 15 16  1  0  0  0  0
 15 50  1  0  0  0  0
 16 23  2  0  0  0  0
 16 17  1  0  0  0  0
 17 18  2  0  0  0  0
 17 42  1  0  0  0  0
 18 19  1  0  0  0  0
 18 20  1  0  0  0  0
 19 43  1  0  0  0  0
 19 44  1  0  0  0  0
 19 45  1  0  0  0  0
 20 21  1  0  0  0  0
 20 22  2  0  0  0  0
 21 46  1  0  0  0  0
 21 47  1  0  0  0  0
 21 48  1  0  0  0  0
 22 23  1  0  0  0  0
 22 49  1  0  0  0  0
 24 25  2  0  0  0  0
M  CHG  1  15   1
M  END
> <s_m_source_file>
AV-unprocessed.smi

> <i_m_source_file_index>
1644

> <i_lp_mmshare_version>
43012

> <i_f3d_flags>
0

> <s_epik_input>
W0NIM11bQ0gyXVtDSDJdW0NAQEhdMVtOSF1DKD1PKU4oQzE9TylbQ0gyXVtDQEhdKFtPSF0pW0NIMl1uKFtjSF1uMiljKGMyMylbY0hdYyhbQ0gzXSljKFtjSF0zKVtDSDNd

> <s_epik_cmdline>
J2VwaWtfcHl0aG9uJywgJy1waCcsICc3LjAnLCAnLXRuJywgJzgnLCAnLW1hJywgJzIwMCcsICctbWV0YWxfYmluZGluZycsICctaW1hZScsICc8aW5maWxlLm1hZT4nLCAnLW9tYWUnLCAnPG91dGZpbGUubWFlPic=

> <r_lp_tautomer_probability>
1

> <r_epik_Ionization_Penalty>
1.06742

> <r_epik_Ionization_Penalty_Charging>
1.06736

> <r_epik_Ionization_Penalty_Neutral>
5.56132e-05

> <r_epik_State_Penalty>
1.12163

> <r_epik_Charging_Adjusted_Penalty>
2.18899

> <i_epik_Tot_Q>
1

> <i_epik_Tot_abs_Q>
1

> <r_epik_Metal_State_Penalty>
1.26636

> <b_epik_Metal_Only>
0

> <s_lp_Force_Field>
OPLS_2005

> <r_lp_Energy>
29.1926

> <b_lp_Chiralities_Consistent>
1

> <s_lp_Variant>
AV-unprocessed.smi:1644-5

> <Gold.Version>
5.8.1

> <Gold.Id.Protein>
6NUR|6NUR_protein|mol2

> <Gold.PLP.Fitness>
50.4905

> <Gold.PLP.PLP>
-41.8235

> <Gold.PLP.part.hbond>
-3.0000

> <Gold.PLP.part.metal>
0.0000

> <Gold.PLP.part.buried>
-6.5283

> <Gold.PLP.part.nonpolar>
-33.2936

> <Gold.PLP.part.repulsive>
0.0820

> <Gold.PLP.ligand.clash>
0.0000

> <Gold.PLP.ligand.torsion>
1.7453

> <Gold.PLP.Chemscore.Hbond>
4.0000

> <Gold.PLP.Chemscore.CHOScore>
0.0000

> <Gold.PLP.Chemscore.Metal>
0.0000

> <Gold.Chemscore.Hbonds>
donor molecule, donor type, donor heavy atom, donor atom, acceptor molecule, acceptor atom, score
      L1  H    15    50       P1  8028  2.00
      P1  H  6896  6908       L1     7  1.00
      P1  H  6934  6947       L1    25  1.00

> <Gold.PLP.Chemscore.Internal.Correction>
0.1576

> <Gold.Rescore>
     Score         DG    S(hbond)    S(metal)    S(lipo)     H(rot)  DE(clash)    DE(int)     intcor
     19.04     -20.60       2.94        0.00     106.49       2.80       0.04       1.53       ----

> <Gold.Chemscore.Fitness>
19.0360

> <Gold.Chemscore.DG>
-20.5996

> <Gold.Chemscore.ZeroCoef>
-5.4800

> <Gold.Chemscore.Hbond>
2.9398

> <Gold.Chemscore.Metal>
0.0000

> <Gold.Chemscore.Lipo>
106.4853

> <Gold.Chemscore.Internal_Hbond>
0.0000

> <Gold.Chemscore.DEClash>
0.0369

> <Gold.Chemscore.DEInternal>
1.5267

> <Gold.Chemscore.Rot>
2.7961

> <Gold.Chemscore.Internal.Correction>
   9.000000E+99

> <Gold.Chemscore.Hbonds>
donor molecule, donor type, donor heavy atom, donor atom, acceptor molecule, acceptor atom, score
      L1  H    15    50       P1  8028  1.00
      P1  H  6896  6908       L1     7  0.98
      P1  H  6934  6947       L1    25  0.99

> <Gold.Chemscore.Hbond.Weighted>
-9.8189

> <Gold.Chemscore.Metal.Weighted>
-0.0000

> <Gold.Chemscore.Lipo.Weighted>
-12.4588

> <Gold.Chemscore.Internal_Hbond.Weighted>
0.0000

> <Gold.Chemscore.DEClash.Weighted>
0.0369

> <Gold.Chemscore.DEInternal.Weighted>
1.5267

> <Gold.Chemscore.Rot.Weighted>
7.1580

> <Gold.Chemscore.Internal.Correction.Weighted>
   9.000000E+99

> <Gold.Protein.RotatedTorsions>
[ 6907 6896 6895 6894 ] final  133.26 input  -60.11 | X-H torsion
[ 7974 7965 7964 7962 ] final   67.59 input  175.53 | X-H torsion
[ 8008 7997 7996 7995 ] final -164.91 input   59.86 | X-H torsion
[ 10167 10162 10161 10158 ] final  -89.39 input  -65.29 | X-H torsion
[ 10718 10713 10712 10709 ] final -134.45 input   66.30 | X-H torsion
[ 10763 10752 10751 10750 ] final  -55.16 input  -60.55 | X-H torsion
[ 11005 11000 10999 10996 ] final  -19.96 input  -57.11 | X-H torsion

> <Gold.Protein.ActiveResidues>
 VAL166  LYS551  ARG553  GLY616  TRP617  ASP618  TYR619  PRO620  LYS621  CYS622 
 ASP623  PHE694  ASN695  SER759  ASP760  ASP761  ALA762  ILE779  LEU786  VAL792 
 PHE793  MET794  SER795  GLU796  ALA797  LYS798  CYS799  TRP800  GLU811  SER814 

> <Gold.Protein.RotatedAtoms>
  152.3238  133.5883  159.5762 H   0  0  0  0  0  0  0  0  0  0  0  0  # atno 6907 bound_to 6896
  150.7385  133.9971  159.3635 H   0  0  0  0  0  0  0  0  0  0  0  0  # atno 6908 bound_to 6896
  151.7853  135.0751  160.0430 H   0  0  0  0  0  0  0  0  0  0  0  0  # atno 6909 bound_to 6896
  145.8128  139.3041  143.1089 H   0  0  0  0  0  0  0  0  0  0  0  0  # atno 7974 bound_to 7965
  155.8423  140.0950  157.1727 H   0  0  0  0  0  0  0  0  0  0  0  0  # atno 8008 bound_to 7997
  154.3982  140.1398  156.3805 H   0  0  0  0  0  0  0  0  0  0  0  0  # atno 8009 bound_to 7997
  155.8051  140.3451  155.5427 H   0  0  0  0  0  0  0  0  0  0  0  0  # atno 8010 bound_to 7997
  140.3653  143.2821  151.9565 H   0  0  0  0  0  0  0  0  0  0  0  0  # atno 10167 bound_to 10162
  156.2556  130.7179  151.1094 H   0  0  0  0  0  0  0  0  0  0  0  0  # atno 10718 bound_to 10713
  154.1864  135.6435  153.5048 H   0  0  0  0  0  0  0  0  0  0  0  0  # atno 10763 bound_to 10752
  153.0046  135.5418  154.6461 H   0  0  0  0  0  0  0  0  0  0  0  0  # atno 10764 bound_to 10752
  154.5838  135.2927  155.0678 H   0  0  0  0  0  0  0  0  0  0  0  0  # atno 10765 bound_to 10752
  140.8418  133.7921  155.9869 H   0  0  0  0  0  0  0  0  0  0  0  0  # atno 11005 bound_to 11000
  145.9759  140.8722  143.0139 LP  0  0  0  0  0  0  0  0  0  0  0  0  # atno 17320 bound_to 7965
  144.6755  140.2011  143.7387 LP  0  0  0  0  0  0  0  0  0  0  0  0  # atno 17321 bound_to 7965
  139.4809  144.5956  151.7696 LP  0  0  0  0  0  0  0  0  0  0  0  0  # atno 17342 bound_to 10162
  140.5087  144.1059  150.5989 LP  0  0  0  0  0  0  0  0  0  0  0  0  # atno 17343 bound_to 10162
  157.7231  131.0668  150.6050 LP  0  0  0  0  0  0  0  0  0  0  0  0  # atno 17370 bound_to 10713
  156.6134  130.4386  149.5850 LP  0  0  0  0  0  0  0  0  0  0  0  0  # atno 17371 bound_to 10713
  140.8887  134.2522  157.5106 LP  0  0  0  0  0  0  0  0  0  0  0  0  # atno 17394 bound_to 11000
  139.8703  134.9651  156.4517 LP  0  0  0  0  0  0  0  0  0  0  0  0  # atno 17395 bound_to 11000

$$$$
