AV-unprocessed.smi:2243|AV-procd|sdf|9064|dock5
  -GOLD-   2272012273D 1   1.00000     0.00000
 Structure written by MMmdl.
 35 36  0  0  0  0  0  0  0  0  2 V2000
  152.0599  145.5030  159.4898 C   0  0  0  0  0  0  0  0  0  0  0  0
  151.5465  144.3293  158.6378 C   0  0  2  0  0  0  0  0  0  0  0  0
  150.0844  144.3952  158.6130 N   0  0  0  0  0  0  0  0  0  0  0  0
  149.2713  144.2543  159.6717 C   0  0  0  0  0  0  0  0  0  0  0  0
  149.6665  144.0564  160.8211 O   0  0  0  0  0  0  0  0  0  0  0  0
  147.9809  144.3590  159.3193 N   0  0  0  0  0  0  0  0  0  0  0  0
  146.8760  144.2601  160.1961 C   0  0  0  0  0  0  0  0  0  0  0  0
  145.6451  144.6699  159.8934 N   0  3  0  0  0  0  0  0  0  0  0  0
  144.8231  144.4257  160.9657 C   0  0  0  0  0  0  0  0  0  0  0  0
  145.6214  143.8499  161.9248 C   0  0  0  0  0  0  0  0  0  0  0  0
  146.9151  143.7391  161.4556 O   0  0  0  0  0  0  0  0  0  0  0  0
  152.0220  142.9435  159.1508 C   0  0  0  0  0  0  0  0  0  0  0  0
  153.5416  142.8995  159.4126 C   0  0  0  0  0  0  0  0  0  0  0  0
  153.9975  141.4952  159.8414 C   0  0  0  0  0  0  0  0  0  0  0  0
  153.6323  140.5407  158.8529 O   0  0  0  0  0  0  0  0  0  0  0  0
  152.2248  140.4514  158.6723 C   0  0  0  0  0  0  0  0  0  0  0  0
  151.6716  141.7974  158.1772 C   0  0  0  0  0  0  0  0  0  0  0  0
  153.1447  145.5933  159.4422 H   0  0  0  0  0  0  0  0  0  0  0  0
  151.7780  145.3891  160.5369 H   0  0  0  0  0  0  0  0  0  0  0  0
  151.6503  146.4505  159.1373 H   0  0  0  0  0  0  0  0  0  0  0  0
  151.9392  144.4653  157.6286 H   0  0  0  0  0  0  0  0  0  0  0  0
  149.6623  144.5560  157.7100 H   0  0  0  0  0  0  0  0  0  0  0  0
  145.3269  145.0942  159.0310 H   0  0  0  0  0  0  0  0  0  0  0  0
  143.7733  144.6805  160.9402 H   0  0  0  0  0  0  0  0  0  0  0  0
  145.4412  143.4852  162.9257 H   0  0  0  0  0  0  0  0  0  0  0  0
  151.5151  142.7408  160.0956 H   0  0  0  0  0  0  0  0  0  0  0  0
  154.0809  143.1934  158.5112 H   0  0  0  0  0  0  0  0  0  0  0  0
  153.8220  143.6090  160.1906 H   0  0  0  0  0  0  0  0  0  0  0  0
  155.0807  141.4759  159.9632 H   0  0  0  0  0  0  0  0  0  0  0  0
  153.5645  141.2224  160.8051 H   0  0  0  0  0  0  0  0  0  0  0  0
  152.0139  139.6694  157.9426 H   0  0  0  0  0  0  0  0  0  0  0  0
  151.7447  140.1529  159.6058 H   0  0  0  0  0  0  0  0  0  0  0  0
  150.5924  141.7090  158.0531 H   0  0  0  0  0  0  0  0  0  0  0  0
  152.0814  142.0154  157.1901 H   0  0  0  0  0  0  0  0  0  0  0  0
  147.7720  144.5220  158.3455 H   0  0  0  0  0  0  0  0  0  0  0  0
  1  2  1  0  0  0  0
  1 18  1  0  0  0  0
  1 19  1  0  0  0  0
  1 20  1  0  0  0  0
  2  3  1  0  0  0  0
  2 12  1  0  0  0  0
  2 21  1  0  0  0  0
  3 22  1  0  0  0  0
  3  4  1  0  0  0  0
  4  6  1  0  0  0  0
  4  5  2  0  0  0  0
  6  7  1  0  0  0  0
  6 35  1  0  0  0  0
  7 11  1  0  0  0  0
  7  8  2  0  0  0  0
  8 23  1  0  0  0  0
  8  9  1  0  0  0  0
  9 24  1  0  0  0  0
  9 10  2  0  0  0  0
 10 25  1  0  0  0  0
 10 11  1  0  0  0  0
 12 17  1  0  0  0  0
 12 13  1  0  0  0  0
 12 26  1  0  0  0  0
 13 14  1  0  0  0  0
 13 27  1  0  0  0  0
 13 28  1  0  0  0  0
 14 15  1  0  0  0  0
 14 29  1  0  0  0  0
 14 30  1  0  0  0  0
 15 16  1  0  0  0  0
 16 17  1  0  0  0  0
 16 31  1  0  0  0  0
 16 32  1  0  0  0  0
 17 33  1  0  0  0  0
 17 34  1  0  0  0  0
M  CHG  1   8   1
M  END
> <s_m_source_file>
AV-unprocessed.smi

> <i_m_source_file_index>
2243

> <i_lp_mmshare_version>
43012

> <i_f3d_flags>
0

> <s_epik_input>
W0NIMl0xW0NIMl1PW0NIMl1bQ0gyXVtDSF0xW0NASF0oW0NIM10pW05IXUMoPU8pW05IXWMybltjSF1bY0hdbzI=

> <s_epik_cmdline>
J2VwaWtfcHl0aG9uJywgJy1waCcsICc3LjAnLCAnLXRuJywgJzgnLCAnLW1hJywgJzIwMCcsICctbWV0YWxfYmluZGluZycsICctaW1hZScsICc8aW5maWxlLm1hZT4nLCAnLW9tYWUnLCAnPG91dGZpbGUubWFlPic=

> <r_epik_Ionization_Penalty>
6.61405

> <r_epik_Ionization_Penalty_Charging>
6.55981

> <r_epik_Ionization_Penalty_Neutral>
0.0542461

> <r_epik_State_Penalty>
1.79186

> <r_epik_Charging_Adjusted_Penalty>
8.35167

> <i_epik_Tot_Q>
1

> <i_epik_Tot_abs_Q>
1

> <r_epik_Metal_State_Penalty>
1.80655

> <b_epik_Metal_Only>
0

> <s_lp_Force_Field>
OPLS_2005

> <r_lp_Energy>
19.6033

> <b_lp_Chiralities_Consistent>
1

> <s_lp_Variant>
AV-unprocessed.smi:2243-3

> <Gold.Version>
5.8.1

> <Gold.Id.Protein>
6NUR|6NUR_protein|mol2

> <Gold.PLP.Fitness>
43.0043

> <Gold.PLP.PLP>
-35.0606

> <Gold.PLP.part.hbond>
-5.4013

> <Gold.PLP.part.metal>
0.0000

> <Gold.PLP.part.buried>
-4.1758

> <Gold.PLP.part.nonpolar>
-26.3204

> <Gold.PLP.part.repulsive>
0.4989

> <Gold.PLP.ligand.clash>
0.0000

> <Gold.PLP.ligand.torsion>
0.1474

> <Gold.PLP.Chemscore.Hbond>
2.7409

> <Gold.PLP.Chemscore.CHOScore>
0.0000

> <Gold.PLP.Chemscore.Metal>
0.0000

> <Gold.Chemscore.Hbonds>
donor molecule, donor type, donor heavy atom, donor atom, acceptor molecule, acceptor atom, score
      L1  H     3    22       P1  8028  0.38
      L1  H     6    35       P1  8029  0.69
      P1  H  6933  6944       L1    11  0.84
      P1  H  7997  8008       L1    15  0.69

> <Gold.PLP.Chemscore.Internal.Correction>
0.0157

> <Gold.Rescore>
     Score         DG    S(hbond)    S(metal)    S(lipo)     H(rot)  DE(clash)    DE(int)     intcor
     17.13     -19.51       2.24        0.00      85.16       1.33       0.36       2.02       ----

> <Gold.Chemscore.Fitness>
17.1331

> <Gold.Chemscore.DG>
-19.5111

> <Gold.Chemscore.ZeroCoef>
-5.4800

> <Gold.Chemscore.Hbond>
2.2390

> <Gold.Chemscore.Metal>
0.0000

> <Gold.Chemscore.Lipo>
85.1564

> <Gold.Chemscore.Internal_Hbond>
0.0000

> <Gold.Chemscore.DEClash>
0.3559

> <Gold.Chemscore.DEInternal>
2.0221

> <Gold.Chemscore.Rot>
1.3321

> <Gold.Chemscore.Internal.Correction>
   9.000000E+99

> <Gold.Chemscore.Hbonds>
donor molecule, donor type, donor heavy atom, donor atom, acceptor molecule, acceptor atom, score
      L1  H     3    22       P1  8028  0.02
      L1  H     6    35       P1  8029  0.57
      P1  H  6933  6944       L1    11  0.45
      P1  H  7997  8008       L1    15  0.60

> <Gold.Chemscore.Hbond.Weighted>
-7.4781

> <Gold.Chemscore.Metal.Weighted>
-0.0000

> <Gold.Chemscore.Lipo.Weighted>
-9.9633

> <Gold.Chemscore.Internal_Hbond.Weighted>
0.0000

> <Gold.Chemscore.DEClash.Weighted>
0.3559

> <Gold.Chemscore.DEInternal.Weighted>
2.0221

> <Gold.Chemscore.Rot.Weighted>
3.4103

> <Gold.Chemscore.Internal.Correction.Weighted>
   9.000000E+99

> <Gold.Protein.RotatedTorsions>
[ 6907 6896 6895 6894 ] final   85.85 input  -60.11 | X-H torsion
[ 7974 7965 7964 7962 ] final  121.04 input  175.53 | X-H torsion
[ 8008 7997 7996 7995 ] final  -97.78 input   59.86 | X-H torsion
[ 10167 10162 10161 10158 ] final    3.98 input  -65.29 | X-H torsion
[ 10718 10713 10712 10709 ] final  102.47 input   66.30 | X-H torsion
[ 10763 10752 10751 10750 ] final -119.98 input  -60.55 | X-H torsion
[ 11005 11000 10999 10996 ] final -131.00 input  -57.11 | X-H torsion

> <Gold.Protein.ActiveResidues>
 VAL166  LYS551  ARG553  GLY616  TRP617  ASP618  TYR619  PRO620  LYS621  CYS622 
 ASP623  PHE694  ASN695  SER759  ASP760  ASP761  ALA762  ILE779  LEU786  VAL792 
 PHE793  MET794  SER795  GLU796  ALA797  LYS798  CYS799  TRP800  GLU811  SER814 

> <Gold.Protein.RotatedAtoms>
  152.5383  134.2522  159.8902 H   0  0  0  0  0  0  0  0  0  0  0  0  # atno 6907 bound_to 6896
  151.2485  133.4356  159.2618 H   0  0  0  0  0  0  0  0  0  0  0  0  # atno 6908 bound_to 6896
  151.0561  134.9719  159.8292 H   0  0  0  0  0  0  0  0  0  0  0  0  # atno 6909 bound_to 6896
  145.1240  139.3370  143.4699 H   0  0  0  0  0  0  0  0  0  0  0  0  # atno 7974 bound_to 7965
  154.7923  140.0460  157.1210 H   0  0  0  0  0  0  0  0  0  0  0  0  # atno 8008 bound_to 7997
  154.9576  140.3073  155.5026 H   0  0  0  0  0  0  0  0  0  0  0  0  # atno 8009 bound_to 7997
  156.2951  140.2276  156.4659 H   0  0  0  0  0  0  0  0  0  0  0  0  # atno 8010 bound_to 7997
  140.6558  143.7430  150.7651 H   0  0  0  0  0  0  0  0  0  0  0  0  # atno 10167 bound_to 10162
  157.6801  131.0754  150.5409 H   0  0  0  0  0  0  0  0  0  0  0  0  # atno 10718 bound_to 10713
  154.8632  135.4219  154.2386 H   0  0  0  0  0  0  0  0  0  0  0  0  # atno 10763 bound_to 10752
  153.3356  135.6990  153.6916 H   0  0  0  0  0  0  0  0  0  0  0  0  # atno 10764 bound_to 10752
  153.5915  135.3554  155.2886 H   0  0  0  0  0  0  0  0  0  0  0  0  # atno 10765 bound_to 10752
  140.9297  134.1336  157.4245 H   0  0  0  0  0  0  0  0  0  0  0  0  # atno 11005 bound_to 11000
  146.3519  140.1211  142.8600 LP  0  0  0  0  0  0  0  0  0  0  0  0  # atno 17320 bound_to 7965
  145.0709  140.9154  143.4883 LP  0  0  0  0  0  0  0  0  0  0  0  0  # atno 17321 bound_to 7965
  140.1090  143.4717  152.2381 LP  0  0  0  0  0  0  0  0  0  0  0  0  # atno 17342 bound_to 10162
  139.5781  144.7497  151.3713 LP  0  0  0  0  0  0  0  0  0  0  0  0  # atno 17343 bound_to 10162
  156.5716  130.4281  149.6017 LP  0  0  0  0  0  0  0  0  0  0  0  0  # atno 17370 bound_to 10713
  156.2736  130.7031  151.1835 LP  0  0  0  0  0  0  0  0  0  0  0  0  # atno 17371 bound_to 10713
  139.8793  135.0001  156.5989 LP  0  0  0  0  0  0  0  0  0  0  0  0  # atno 17394 bound_to 11000
  140.7879  133.8606  155.8621 LP  0  0  0  0  0  0  0  0  0  0  0  0  # atno 17395 bound_to 11000

$$$$
