AV-unprocessed.smi:265|AV-procd|sdf|2015|dock2
  -GOLD-   2262021213D 1   1.00000     0.00000
 Structure written by MMmdl.
 52 56  0  0  0  0  0  0  0  0  1 V2000
  150.9280  131.6384  155.8235 C   0  0  0  0  0  0  0  0  0  0  0  0
  149.6514  132.4921  155.7994 C   0  0  2  0  0  0  0  0  0  0  0  0
  149.1105  132.5553  154.4819 O   0  0  0  0  0  0  0  0  0  0  0  0
  148.5340  133.8371  154.2468 C   0  0  0  0  0  0  0  0  0  0  0  0
  148.5547  134.5511  155.5947 C   0  0  0  0  0  0  0  0  0  0  0  0
  149.7876  133.9553  156.2636 C   0  0  1  0  0  0  0  0  0  0  0  0
  149.6366  134.0398  157.6685 O   0  0  0  0  0  0  0  0  0  0  0  0
  151.1205  134.6331  155.8451 C   0  0  0  0  0  0  0  0  0  0  0  0
  151.2796  135.9856  156.3571 N   0  0  0  0  0  0  0  0  0  0  0  0
  151.5705  136.3521  157.6516 C   0  0  0  0  0  0  0  0  0  0  0  0
  151.6674  137.6373  157.8579 N   0  0  0  0  0  0  0  0  0  0  0  0
  151.4275  138.2012  156.6102 C   0  0  0  0  0  0  0  0  0  0  0  0
  151.3862  139.5359  156.1159 C   0  0  0  0  0  0  0  0  0  0  0  0
  151.5845  140.6194  156.9089 N   0  0  0  0  0  0  0  0  0  0  0  0
  150.5583  141.6678  156.8916 C   0  0  0  0  0  0  0  0  0  0  0  0
  151.0665  142.9609  157.5563 C   0  0  0  0  0  0  0  0  0  0  0  0
  151.5919  142.6518  158.9637 C   0  0  2  0  0  0  0  0  0  0  0  0
  152.1622  143.7951  159.5825 O   0  0  0  0  0  0  0  0  0  0  0  0
  152.5180  143.5805  160.9528 C   0  0  0  0  0  0  0  0  0  0  0  0
  153.2950  142.2643  161.1702 C   0  0  0  0  0  0  0  0  0  0  0  0
  153.8742  142.0645  162.2353 O   0  0  0  0  0  0  0  0  0  0  0  0
  153.2776  141.3479  160.1885 N   0  0  0  0  0  0  0  0  0  0  0  0
  152.7071  141.5987  158.8717 C   0  0  1  0  0  0  0  0  0  0  0  0
  152.1662  140.3166  158.2190 C   0  0  0  0  0  0  0  0  0  0  0  0
  151.1353  139.7034  154.7895 N   0  0  0  0  0  0  0  0  0  0  0  0
  150.9293  138.6439  154.0015 C   0  0  0  0  0  0  0  0  0  0  0  0
  150.9320  137.3500  154.3263 N   0  0  0  0  0  0  0  0  0  0  0  0
  151.1912  137.1739  155.6533 C   0  0  0  0  0  0  0  0  0  0  0  0
  150.7639  142.2852  159.5746 H   0  0  0  0  0  0  0  0  0  0  0  0
  153.5150  141.9890  158.2502 H   0  0  0  0  0  0  0  0  0  0  0  0
  151.3635  131.6122  156.8224 H   0  0  0  0  0  0  0  0  0  0  0  0
  151.6822  132.0176  155.1339 H   0  0  0  0  0  0  0  0  0  0  0  0
  150.7087  130.6114  155.5309 H   0  0  0  0  0  0  0  0  0  0  0  0
  148.8945  131.9985  156.4122 H   0  0  0  0  0  0  0  0  0  0  0  0
  149.1493  134.3686  153.5201 H   0  0  0  0  0  0  0  0  0  0  0  0
  147.5269  133.7524  153.8386 H   0  0  0  0  0  0  0  0  0  0  0  0
  148.5602  135.6370  155.5055 H   0  0  0  0  0  0  0  0  0  0  0  0
  147.6556  134.2788  156.1504 H   0  0  0  0  0  0  0  0  0  0  0  0
  148.7165  133.9772  157.8749 H   0  0  0  0  0  0  0  0  0  0  0  0
  151.9721  134.0433  156.1869 H   0  0  0  0  0  0  0  0  0  0  0  0
  151.1989  134.6729  154.7581 H   0  0  0  0  0  0  0  0  0  0  0  0
  151.7083  135.6312  158.4444 H   0  0  0  0  0  0  0  0  0  0  0  0
  150.2622  141.8821  155.8636 H   0  0  0  0  0  0  0  0  0  0  0  0
  149.6705  141.3090  157.4143 H   0  0  0  0  0  0  0  0  0  0  0  0
  151.8609  143.3992  156.9507 H   0  0  0  0  0  0  0  0  0  0  0  0
  150.2657  143.6992  157.6045 H   0  0  0  0  0  0  0  0  0  0  0  0
  153.1150  144.4237  161.3011 H   0  0  0  0  0  0  0  0  0  0  0  0
  151.6118  143.5551  161.5590 H   0  0  0  0  0  0  0  0  0  0  0  0
  153.7539  140.4697  160.3351 H   0  0  0  0  0  0  0  0  0  0  0  0
  151.3969  139.8686  158.8496 H   0  0  0  0  0  0  0  0  0  0  0  0
  152.9696  139.5852  158.1364 H   0  0  0  0  0  0  0  0  0  0  0  0
  150.7357  138.8645  152.9621 H   0  0  0  0  0  0  0  0  0  0  0  0
  1  2  1  0  0  0  0
  1 31  1  0  0  0  0
  1 32  1  0  0  0  0
  1 33  1  0  0  0  0
  2  6  1  0  0  0  0
  2  3  1  0  0  0  0
  2 34  1  0  0  0  0
  3  4  1  0  0  0  0
  4  5  1  0  0  0  0
  4 35  1  0  0  0  0
  4 36  1  0  0  0  0
  5  6  1  0  0  0  0
  5 37  1  0  0  0  0
  5 38  1  0  0  0  0
  6  7  1  0  0  0  0
  6  8  1  0  0  0  0
  7 39  1  0  0  0  0
  8  9  1  0  0  0  0
  8 40  1  0  0  0  0
  8 41  1  0  0  0  0
  9 28  1  0  0  0  0
  9 10  1  0  0  0  0
 10 11  2  0  0  0  0
 10 42  1  0  0  0  0
 11 12  1  0  0  0  0
 12 28  2  0  0  0  0
 12 13  1  0  0  0  0
 13 14  1  0  0  0  0
 13 25  2  0  0  0  0
 14 24  1  0  0  0  0
 14 15  1  0  0  0  0
 15 16  1  0  0  0  0
 15 43  1  0  0  0  0
 15 44  1  0  0  0  0
 16 17  1  0  0  0  0
 16 45  1  0  0  0  0
 16 46  1  0  0  0  0
 17 29  1  0  0  0  0
 17 23  1  0  0  0  0
 17 18  1  0  0  0  0
 18 19  1  0  0  0  0
 19 20  1  0  0  0  0
 19 47  1  0  0  0  0
 19 48  1  0  0  0  0
 20 21  2  0  0  0  0
 20 22  1  0  0  0  0
 22 23  1  0  0  0  0
 22 49  1  0  0  0  0
 23 30  1  0  0  0  0
 23 24  1  0  0  0  0
 24 50  1  0  0  0  0
 24 51  1  0  0  0  0
 25 26  1  0  0  0  0
 26 27  2  0  0  0  0
 26 52  1  0  0  0  0
 27 28  1  0  0  0  0
M  END
> <s_m_source_file>
AV-unprocessed.smi

> <i_m_source_file_index>
265

> <i_lp_mmshare_version>
43012

> <i_f3d_flags>
0

> <s_epik_input>
W0NIMl0xW0NIMl1PW0NAQEhdKFtDSDNdKVtDQEBdMShbT0hdKVtDSDJdbihbY0hdbjIpYyhjMjMpbltjSF1uYzNOKFtDSDJdW0NIMl00KVtDSDJdW0NAQEhdKFtDQEhdNDUpW05IXUMoPU8pW0NIMl1PNQ==

> <s_epik_cmdline>
J2VwaWtfcHl0aG9uJywgJy1waCcsICc3LjAnLCAnLXRuJywgJzgnLCAnLW1hJywgJzIwMCcsICctbWV0YWxfYmluZGluZycsICctaW1hZScsICc8aW5maWxlLm1hZT4nLCAnLW9tYWUnLCAnPG91dGZpbGUubWFlPic=

> <r_lp_tautomer_probability>
1

> <r_epik_Ionization_Penalty>
0.00221504

> <r_epik_Ionization_Penalty_Charging>
0

> <r_epik_Ionization_Penalty_Neutral>
0.00221504

> <r_epik_State_Penalty>
-0

> <r_epik_Charging_Adjusted_Penalty>
0

> <i_epik_Tot_Q>
0

> <i_epik_Tot_abs_Q>
0

> <r_epik_Metal_State_Penalty>
-0

> <b_epik_Metal_Only>
0

> <s_lp_Force_Field>
OPLS_2005

> <r_lp_Energy>
45.3858

> <b_lp_Chiralities_Consistent>
1

> <s_lp_Variant>
AV-unprocessed.smi:265-1

> <Gold.Version>
5.8.1

> <Gold.Id.Protein>
6NUR|6NUR_protein|mol2

> <Gold.PLP.Fitness>
46.6794

> <Gold.PLP.PLP>
-38.4444

> <Gold.PLP.part.hbond>
-2.6147

> <Gold.PLP.part.metal>
0.0000

> <Gold.PLP.part.buried>
-8.1979

> <Gold.PLP.part.nonpolar>
-29.6157

> <Gold.PLP.part.repulsive>
0.4414

> <Gold.PLP.ligand.clash>
0.0322

> <Gold.PLP.ligand.torsion>
0.4273

> <Gold.PLP.Chemscore.Hbond>
1.9000

> <Gold.PLP.Chemscore.CHOScore>
0.9984

> <Gold.PLP.Chemscore.Metal>
0.0000

> <Gold.Chemscore.Hbonds>
donor molecule, donor type, donor heavy atom, donor atom, acceptor molecule, acceptor atom, score
      P1  H  6896  6908       L1     7  1.00
      P1  H  7989  7998       L1    25  0.85
      L1  C    26    52       P1  7957  1.00

> <Gold.PLP.Chemscore.Internal.Correction>
0.4268

> <Gold.Rescore>
     Score         DG    S(hbond)    S(metal)    S(lipo)     H(rot)  DE(clash)    DE(int)     intcor
     11.68     -14.50       1.52        0.00      82.88       2.25       0.19       2.63       ----

> <Gold.Chemscore.Fitness>
11.6818

> <Gold.Chemscore.DG>
-14.5045

> <Gold.Chemscore.ZeroCoef>
-5.4800

> <Gold.Chemscore.Hbond>
1.5196

> <Gold.Chemscore.Metal>
0.0000

> <Gold.Chemscore.Lipo>
82.8808

> <Gold.Chemscore.Internal_Hbond>
0.0000

> <Gold.Chemscore.DEClash>
0.1928

> <Gold.Chemscore.DEInternal>
2.6299

> <Gold.Chemscore.Rot>
2.2453

> <Gold.Chemscore.Internal.Correction>
   9.000000E+99

> <Gold.Chemscore.Hbonds>
donor molecule, donor type, donor heavy atom, donor atom, acceptor molecule, acceptor atom, score
      P1  H  6896  6908       L1     7  0.77
      P1  H  7989  7998       L1    25  0.15

> <Gold.Chemscore.Hbond.Weighted>
-5.0753

> <Gold.Chemscore.Metal.Weighted>
-0.0000

> <Gold.Chemscore.Lipo.Weighted>
-9.6971

> <Gold.Chemscore.Internal_Hbond.Weighted>
0.0000

> <Gold.Chemscore.DEClash.Weighted>
0.1928

> <Gold.Chemscore.DEInternal.Weighted>
2.6299

> <Gold.Chemscore.Rot.Weighted>
5.7479

> <Gold.Chemscore.Internal.Correction.Weighted>
   9.000000E+99

> <Gold.Protein.RotatedTorsions>
[ 6907 6896 6895 6894 ] final  130.00 input  -60.11 | X-H torsion
[ 7974 7965 7964 7962 ] final  175.13 input  175.53 | X-H torsion
[ 8008 7997 7996 7995 ] final   -1.64 input   59.86 | X-H torsion
[ 10167 10162 10161 10158 ] final  170.10 input  -65.29 | X-H torsion
[ 10718 10713 10712 10709 ] final -145.59 input   66.30 | X-H torsion
[ 10763 10752 10751 10750 ] final  -54.91 input  -60.55 | X-H torsion
[ 11005 11000 10999 10996 ] final  -89.45 input  -57.11 | X-H torsion

> <Gold.Protein.ActiveResidues>
 VAL166  LYS551  ARG553  GLY616  TRP617  ASP618  TYR619  PRO620  LYS621  CYS622 
 ASP623  PHE694  ASN695  SER759  ASP760  ASP761  ALA762  ILE779  LEU786  VAL792 
 PHE793  MET794  SER795  GLU796  ALA797  LYS798  CYS799  TRP800  GLU811  SER814 

> <Gold.Protein.RotatedAtoms>
  152.3569  133.6248  159.5985 H   0  0  0  0  0  0  0  0  0  0  0  0  # atno 6907 bound_to 6896
  150.7574  133.9486  159.3487 H   0  0  0  0  0  0  0  0  0  0  0  0  # atno 6908 bound_to 6896
  151.7330  135.0872  160.0354 H   0  0  0  0  0  0  0  0  0  0  0  0  # atno 6909 bound_to 6896
  144.7207  139.9901  143.6440 H   0  0  0  0  0  0  0  0  0  0  0  0  # atno 7974 bound_to 7965
  154.6445  140.2554  155.7283 H   0  0  0  0  0  0  0  0  0  0  0  0  # atno 8008 bound_to 7997
  156.2545  140.2880  156.0774 H   0  0  0  0  0  0  0  0  0  0  0  0  # atno 8009 bound_to 7997
  155.1545  140.0383  157.2819 H   0  0  0  0  0  0  0  0  0  0  0  0  # atno 8010 bound_to 7997
  139.5009  144.3634  151.9801 H   0  0  0  0  0  0  0  0  0  0  0  0  # atno 10167 bound_to 10162
  156.3844  130.7853  151.2049 H   0  0  0  0  0  0  0  0  0  0  0  0  # atno 10718 bound_to 10713
  154.1824  135.6441  153.5038 H   0  0  0  0  0  0  0  0  0  0  0  0  # atno 10763 bound_to 10752
  153.0056  135.5409  154.6500 H   0  0  0  0  0  0  0  0  0  0  0  0  # atno 10764 bound_to 10752
  154.5868  135.2930  155.0649 H   0  0  0  0  0  0  0  0  0  0  0  0  # atno 10765 bound_to 10752
  141.1584  133.7631  156.9597 H   0  0  0  0  0  0  0  0  0  0  0  0  # atno 11005 bound_to 11000
  146.0419  139.3429  143.0692 LP  0  0  0  0  0  0  0  0  0  0  0  0  # atno 17320 bound_to 7965
  145.8325  140.9623  143.0842 LP  0  0  0  0  0  0  0  0  0  0  0  0  # atno 17321 bound_to 7965
  140.3070  144.3582  150.6044 LP  0  0  0  0  0  0  0  0  0  0  0  0  # atno 17342 bound_to 10162
  140.5829  143.2171  151.7396 LP  0  0  0  0  0  0  0  0  0  0  0  0  # atno 17343 bound_to 10162
  157.7495  131.0334  150.4272 LP  0  0  0  0  0  0  0  0  0  0  0  0  # atno 17370 bound_to 10713
  156.4522  130.4014  149.6629 LP  0  0  0  0  0  0  0  0  0  0  0  0  # atno 17371 bound_to 10713
  140.1202  134.9422  157.2192 LP  0  0  0  0  0  0  0  0  0  0  0  0  # atno 17394 bound_to 11000
  140.3082  134.3054  155.7273 LP  0  0  0  0  0  0  0  0  0  0  0  0  # atno 17395 bound_to 11000

$$$$
