AV-unprocessed.smi:2472|AV-procd|sdf|9741|dock9
  -GOLD-   2272013383D 1   1.00000     0.00000
 Structure written by MMmdl.
 47 49  0  0  0  0  0  0  0  0  1 V2000
  145.2105  135.5035  150.6698 C   0  0  0  0  0  0  0  0  0  0  0  0
  145.1448  133.9913  150.7921 C   0  0  0  0  0  0  0  0  0  0  0  0
  144.1724  133.2669  150.0692 C   0  0  0  0  0  0  0  0  0  0  0  0
  144.0477  131.9248  150.1245 N   0  0  0  0  0  0  0  0  0  0  0  0
  144.8988  131.2461  150.9209 C   0  0  0  0  0  0  0  0  0  0  0  0
  145.9061  131.8661  151.6853 C   0  0  0  0  0  0  0  0  0  0  0  0
  146.0472  133.2727  151.6131 C   0  0  0  0  0  0  0  0  0  0  0  0
  147.0203  133.9903  152.3627 N   0  0  0  0  0  0  0  0  0  0  0  0
  147.6207  133.6232  153.5073 C   0  0  0  0  0  0  0  0  0  0  0  0
  147.4089  132.5738  154.1148 O   0  0  0  0  0  0  0  0  0  0  0  0
  148.5257  134.5396  153.8953 N   0  0  0  0  0  0  0  0  0  0  0  0
  149.4197  134.4890  155.0675 C   0  0  0  0  0  0  0  0  0  0  0  0
  150.4303  135.6715  155.1131 C   0  0  0  0  0  0  0  0  0  0  0  0
  151.2778  135.7223  156.0056 O   0  0  0  0  0  0  0  0  0  0  0  0
  150.3330  136.6255  154.1727 N   0  0  0  0  0  0  0  0  0  0  0  0
  151.2001  137.7882  154.0661 C   0  0  0  0  0  0  0  0  0  0  0  0
  151.1256  138.7130  155.2628 C   0  0  0  0  0  0  0  0  0  0  0  0
  150.6934  140.1507  155.0978 C   0  0  0  0  0  0  0  0  0  0  0  0
  152.1268  139.8290  155.4473 C   0  0  0  0  0  0  0  0  0  0  0  0
  148.5451  134.5367  156.3437 C   0  0  0  0  0  0  0  0  0  0  0  0
  149.2195  133.6219  157.3638 C   0  0  0  0  0  0  0  0  0  0  0  0
  149.7731  132.4811  156.5205 C   0  0  0  0  0  0  0  0  0  0  0  0
  150.1407  133.1077  155.1694 C   0  0  0  0  0  0  0  0  0  0  0  0
  144.4700  135.8759  149.9609 H   0  0  0  0  0  0  0  0  0  0  0  0
  146.1957  135.8156  150.3226 H   0  0  0  0  0  0  0  0  0  0  0  0
  145.0187  135.9717  151.6356 H   0  0  0  0  0  0  0  0  0  0  0  0
  143.4706  133.7778  149.4265 H   0  0  0  0  0  0  0  0  0  0  0  0
  144.7694  130.1744  150.9557 H   0  0  0  0  0  0  0  0  0  0  0  0
  146.5379  131.2594  152.3159 H   0  0  0  0  0  0  0  0  0  0  0  0
  147.3663  134.8333  151.9288 H   0  0  0  0  0  0  0  0  0  0  0  0
  148.6196  135.3604  153.3153 H   0  0  0  0  0  0  0  0  0  0  0  0
  149.6153  136.5249  153.4698 H   0  0  0  0  0  0  0  0  0  0  0  0
  152.2301  137.4568  153.9249 H   0  0  0  0  0  0  0  0  0  0  0  0
  150.9254  138.3594  153.1781 H   0  0  0  0  0  0  0  0  0  0  0  0
  150.7787  138.2236  156.1713 H   0  0  0  0  0  0  0  0  0  0  0  0
  150.4903  140.5076  154.0898 H   0  0  0  0  0  0  0  0  0  0  0  0
  150.0702  140.5811  155.8792 H   0  0  0  0  0  0  0  0  0  0  0  0
  152.4588  140.0410  156.4616 H   0  0  0  0  0  0  0  0  0  0  0  0
  152.8766  139.9724  154.6718 H   0  0  0  0  0  0  0  0  0  0  0  0
  148.4078  135.5449  156.7385 H   0  0  0  0  0  0  0  0  0  0  0  0
  147.5468  134.1473  156.1361 H   0  0  0  0  0  0  0  0  0  0  0  0
  150.0366  134.1502  157.8566 H   0  0  0  0  0  0  0  0  0  0  0  0
  148.5326  133.2764  158.1369 H   0  0  0  0  0  0  0  0  0  0  0  0
  150.6211  131.9873  156.9959 H   0  0  0  0  0  0  0  0  0  0  0  0
  148.9961  131.7299  156.3730 H   0  0  0  0  0  0  0  0  0  0  0  0
  149.8555  132.4211  154.3718 H   0  0  0  0  0  0  0  0  0  0  0  0
  151.2243  133.2089  155.0935 H   0  0  0  0  0  0  0  0  0  0  0  0
  1  2  1  0  0  0  0
  1 24  1  0  0  0  0
  1 25  1  0  0  0  0
  1 26  1  0  0  0  0
  2  7  1  0  0  0  0
  2  3  2  0  0  0  0
  3  4  1  0  0  0  0
  3 27  1  0  0  0  0
  4  5  2  0  0  0  0
  5  6  1  0  0  0  0
  5 28  1  0  0  0  0
  6  7  2  0  0  0  0
  6 29  1  0  0  0  0
  7  8  1  0  0  0  0
  8  9  1  0  0  0  0
  8 30  1  0  0  0  0
  9 10  2  0  0  0  0
  9 11  1  0  0  0  0
 11 12  1  0  0  0  0
 11 31  1  0  0  0  0
 12 23  1  0  0  0  0
 12 13  1  0  0  0  0
 12 20  1  0  0  0  0
 13 14  2  0  0  0  0
 13 15  1  0  0  0  0
 15 16  1  0  0  0  0
 15 32  1  0  0  0  0
 16 17  1  0  0  0  0
 16 33  1  0  0  0  0
 16 34  1  0  0  0  0
 17 19  1  0  0  0  0
 17 18  1  0  0  0  0
 17 35  1  0  0  0  0
 18 19  1  0  0  0  0
 18 36  1  0  0  0  0
 18 37  1  0  0  0  0
 19 38  1  0  0  0  0
 19 39  1  0  0  0  0
 20 21  1  0  0  0  0
 20 40  1  0  0  0  0
 20 41  1  0  0  0  0
 21 22  1  0  0  0  0
 21 42  1  0  0  0  0
 21 43  1  0  0  0  0
 22 23  1  0  0  0  0
 22 44  1  0  0  0  0
 22 45  1  0  0  0  0
 23 46  1  0  0  0  0
 23 47  1  0  0  0  0
M  END
> <s_m_source_file>
AV-unprocessed.smi

> <i_m_source_file_index>
2472

> <i_lp_mmshare_version>
43012

> <i_f3d_flags>
0

> <s_epik_input>
W0NIM11jMVtjSF1uW2NIXVtjSF1jMVtOSF1DKD1PKVtOSF1DMihbQ0gyXVtDSDJdW0NIMl1bQ0gyXTIpQyg9TylbTkhdW0NIMl1bQ0hdM1tDSDJdW0NIMl0z

> <s_epik_cmdline>
J2VwaWtfcHl0aG9uJywgJy1waCcsICc3LjAnLCAnLXRuJywgJzgnLCAnLW1hJywgJzIwMCcsICctbWV0YWxfYmluZGluZycsICctaW1hZScsICc8aW5maWxlLm1hZT4nLCAnLW9tYWUnLCAnPG91dGZpbGUubWFlPic=

> <r_epik_Ionization_Penalty>
0.187836

> <r_epik_Ionization_Penalty_Charging>
0

> <r_epik_Ionization_Penalty_Neutral>
0.187836

> <r_epik_State_Penalty>
0.177409

> <r_epik_Charging_Adjusted_Penalty>
0.177409

> <i_epik_Tot_Q>
0

> <i_epik_Tot_abs_Q>
0

> <r_epik_Metal_State_Penalty>
0.134269

> <b_epik_Metal_Only>
0

> <s_lp_Force_Field>
OPLS_2005

> <r_lp_Energy>
32.7124

> <b_lp_Chiralities_Consistent>
1

> <s_lp_Variant>
AV-unprocessed.smi:2472-1

> <Gold.Version>
5.8.1

> <Gold.Id.Protein>
6NUR|6NUR_protein|mol2

> <Gold.PLP.Fitness>
54.9915

> <Gold.PLP.PLP>
-41.1306

> <Gold.PLP.part.hbond>
-5.4403

> <Gold.PLP.part.metal>
0.0000

> <Gold.PLP.part.buried>
-4.0647

> <Gold.PLP.part.nonpolar>
-31.6386

> <Gold.PLP.part.repulsive>
0.3359

> <Gold.PLP.ligand.clash>
0.0000

> <Gold.PLP.ligand.torsion>
0.7623

> <Gold.PLP.Chemscore.Hbond>
3.9292

> <Gold.PLP.Chemscore.CHOScore>
0.9864

> <Gold.PLP.Chemscore.Metal>
0.0000

> <Gold.Chemscore.Hbonds>
donor molecule, donor type, donor heavy atom, donor atom, acceptor molecule, acceptor atom, score
      L1  H     8    30       P1  7948  0.82
      L1  H    11    31       P1  7948  1.00
      L1  H    15    32       P1  7948  1.00
      P1  H 10752 10764       L1    14  0.78
      P1  H 10785 10796       L1     4  0.05
      L1  C     3    27       P1 10186  0.96

> <Gold.PLP.Chemscore.Internal.Correction>
0.6386

> <Gold.Rescore>
     Score         DG    S(hbond)    S(metal)    S(lipo)     H(rot)  DE(clash)    DE(int)     intcor
     19.84     -23.25       3.17        0.00      96.22       1.59       0.27       3.15       ----

> <Gold.Chemscore.Fitness>
19.8405

> <Gold.Chemscore.DG>
-23.2538

> <Gold.Chemscore.ZeroCoef>
-5.4800

> <Gold.Chemscore.Hbond>
3.1728

> <Gold.Chemscore.Metal>
0.0000

> <Gold.Chemscore.Lipo>
96.2183

> <Gold.Chemscore.Internal_Hbond>
0.0000

> <Gold.Chemscore.DEClash>
0.2659

> <Gold.Chemscore.DEInternal>
3.1475

> <Gold.Chemscore.Rot>
1.5941

> <Gold.Chemscore.Internal.Correction>
   9.000000E+99

> <Gold.Chemscore.Hbonds>
donor molecule, donor type, donor heavy atom, donor atom, acceptor molecule, acceptor atom, score
      L1  H     8    30       P1  7948  0.67
      L1  H    11    31       P1  7948  0.88
      L1  H    15    32       P1  7948  0.54
      P1  H 10752 10764       L1    14  0.46
      P1  H 10785 10796       L1     4  0.02

> <Gold.Chemscore.Hbond.Weighted>
-10.5972

> <Gold.Chemscore.Metal.Weighted>
-0.0000

> <Gold.Chemscore.Lipo.Weighted>
-11.2575

> <Gold.Chemscore.Internal_Hbond.Weighted>
0.0000

> <Gold.Chemscore.DEClash.Weighted>
0.2659

> <Gold.Chemscore.DEInternal.Weighted>
3.1475

> <Gold.Chemscore.Rot.Weighted>
4.0809

> <Gold.Chemscore.Internal.Correction.Weighted>
   9.000000E+99

> <Gold.Protein.RotatedTorsions>
[ 6907 6896 6895 6894 ] final -133.20 input  -60.11 | X-H torsion
[ 7974 7965 7964 7962 ] final  123.27 input  175.53 | X-H torsion
[ 8008 7997 7996 7995 ] final  129.49 input   59.86 | X-H torsion
[ 10167 10162 10161 10158 ] final   16.41 input  -65.29 | X-H torsion
[ 10718 10713 10712 10709 ] final  171.42 input   66.30 | X-H torsion
[ 10763 10752 10751 10750 ] final  -25.54 input  -60.55 | X-H torsion
[ 11005 11000 10999 10996 ] final  170.70 input  -57.11 | X-H torsion

> <Gold.Protein.ActiveResidues>
 VAL166  LYS551  ARG553  GLY616  TRP617  ASP618  TYR619  PRO620  LYS621  CYS622 
 ASP623  PHE694  ASN695  SER759  ASP760  ASP761  ALA762  ILE779  LEU786  VAL792 
 PHE793  MET794  SER795  GLU796  ALA797  LYS798  CYS799  TRP800  GLU811  SER814 

> <Gold.Protein.RotatedAtoms>
  150.9713  133.6341  159.2737 H   0  0  0  0  0  0  0  0  0  0  0  0  # atno 6907 bound_to 6896
  151.3629  135.0906  159.9450 H   0  0  0  0  0  0  0  0  0  0  0  0  # atno 6908 bound_to 6896
  152.5184  133.9283  159.7622 H   0  0  0  0  0  0  0  0  0  0  0  0  # atno 6909 bound_to 6896
  145.0978  139.3540  143.4827 H   0  0  0  0  0  0  0  0  0  0  0  0  # atno 7974 bound_to 7965
  156.2937  140.2619  156.2607 H   0  0  0  0  0  0  0  0  0  0  0  0  # atno 8008 bound_to 7997
  154.9792  140.0390  157.2288 H   0  0  0  0  0  0  0  0  0  0  0  0  # atno 8009 bound_to 7997
  154.7788  140.2791  155.6085 H   0  0  0  0  0  0  0  0  0  0  0  0  # atno 8010 bound_to 7997
  140.5799  143.9001  150.6781 H   0  0  0  0  0  0  0  0  0  0  0  0  # atno 10167 bound_to 10162
  156.9938  131.0155  151.2849 H   0  0  0  0  0  0  0  0  0  0  0  0  # atno 10718 bound_to 10713
  153.7015  135.6956  153.5062 H   0  0  0  0  0  0  0  0  0  0  0  0  # atno 10763 bound_to 10752
  153.2339  135.4328  155.0624 H   0  0  0  0  0  0  0  0  0  0  0  0  # atno 10764 bound_to 10752
  154.8343  135.3491  154.6554 H   0  0  0  0  0  0  0  0  0  0  0  0  # atno 10765 bound_to 10752
  140.3111  134.7515  157.3992 H   0  0  0  0  0  0  0  0  0  0  0  0  # atno 11005 bound_to 11000
  146.3530  140.0842  142.8616 LP  0  0  0  0  0  0  0  0  0  0  0  0  # atno 17320 bound_to 7965
  145.0990  140.9334  143.4723 LP  0  0  0  0  0  0  0  0  0  0  0  0  # atno 17321 bound_to 7965
  140.2497  143.3602  152.1416 LP  0  0  0  0  0  0  0  0  0  0  0  0  # atno 17342 bound_to 10162
  139.5164  144.6976  151.5585 LP  0  0  0  0  0  0  0  0  0  0  0  0  # atno 17343 bound_to 10162
  157.5440  130.8138  149.8063 LP  0  0  0  0  0  0  0  0  0  0  0  0  # atno 17370 bound_to 10713
  156.0197  130.3800  150.2000 LP  0  0  0  0  0  0  0  0  0  0  0  0  # atno 17371 bound_to 10713
  140.1023  134.5455  155.8341 LP  0  0  0  0  0  0  0  0  0  0  0  0  # atno 17394 bound_to 11000
  141.2108  133.6699  156.6534 LP  0  0  0  0  0  0  0  0  0  0  0  0  # atno 17395 bound_to 11000

$$$$
