AV-unprocessed.smi:573|AV-procd|sdf|2968|dock4
  -GOLD-   2262023473D 1   1.00000     0.00000
 Structure written by MMmdl.
 45 47  0  0  0  0  0  0  0  0  2 V2000
  147.0617  141.0261  153.2067 C   0  0  0  0  0  0  0  0  0  0  0  0
  148.2323  140.6110  154.1071 C   0  0  1  0  0  0  0  0  0  0  0  0
  149.4188  140.7997  153.3632 O   0  0  0  0  0  0  0  0  0  0  0  0
  148.2876  141.4585  155.3925 C   0  0  0  0  0  0  0  0  0  0  0  0
  148.9095  140.7491  156.5020 N   0  0  0  0  0  0  0  0  0  0  0  0
  149.8719  141.4054  157.2785 C   0  0  0  0  0  0  0  0  0  0  0  0
  150.0548  142.7503  157.3616 N   0  3  0  0  0  0  0  0  0  0  0  0
  151.1264  142.9964  158.2238 C   0  0  0  0  0  0  0  0  0  0  0  0
  151.7068  144.1942  158.6290 C   0  0  0  0  0  0  0  0  0  0  0  0
  152.7993  144.1009  159.5158 C   0  0  0  0  0  0  0  0  0  0  0  0
  153.2775  142.8526  159.9642 C   0  0  0  0  0  0  0  0  0  0  0  0
  152.6831  141.6430  159.5484 C   0  0  0  0  0  0  0  0  0  0  0  0
  151.5993  141.7405  158.6757 C   0  0  0  0  0  0  0  0  0  0  0  0
  150.7805  140.7785  158.0683 N   0  0  0  0  0  0  0  0  0  0  0  0
  151.0053  139.3479  158.3200 C   0  0  0  0  0  0  0  0  0  0  0  0
  151.4674  138.6062  157.0551 C   0  0  2  0  0  0  0  0  0  0  0  0
  152.2229  139.5340  156.0852 C   0  0  0  0  0  0  0  0  0  0  0  0
  152.6186  138.7740  154.8142 C   0  0  0  0  0  0  0  0  0  0  0  0
  151.3825  138.1004  154.2084 C   0  0  0  0  0  0  0  0  0  0  0  0
  150.6618  137.2513  155.2680 C   0  0  0  0  0  0  0  0  0  0  0  0
  150.3284  138.0585  156.3931 O   0  0  0  0  0  0  0  0  0  0  0  0
  146.1078  140.8802  153.7139 H   0  0  0  0  0  0  0  0  0  0  0  0
  147.0398  140.4345  152.2908 H   0  0  0  0  0  0  0  0  0  0  0  0
  147.1300  142.0773  152.9238 H   0  0  0  0  0  0  0  0  0  0  0  0
  148.1298  139.5529  154.3526 H   0  0  0  0  0  0  0  0  0  0  0  0
  149.4534  140.1440  152.6835 H   0  0  0  0  0  0  0  0  0  0  0  0
  148.7663  142.4221  155.2133 H   0  0  0  0  0  0  0  0  0  0  0  0
  147.2697  141.6851  155.7106 H   0  0  0  0  0  0  0  0  0  0  0  0
  148.9072  139.7391  156.4831 H   0  0  0  0  0  0  0  0  0  0  0  0
  151.3453  145.1521  158.2840 H   0  0  0  0  0  0  0  0  0  0  0  0
  153.2822  145.0053  159.8565 H   0  0  0  0  0  0  0  0  0  0  0  0
  154.1193  142.8215  160.6408 H   0  0  0  0  0  0  0  0  0  0  0  0
  153.0642  140.6935  159.8940 H   0  0  0  0  0  0  0  0  0  0  0  0
  151.7246  139.2333  159.1308 H   0  0  0  0  0  0  0  0  0  0  0  0
  150.0669  138.9265  158.6816 H   0  0  0  0  0  0  0  0  0  0  0  0
  152.1240  137.7879  157.3568 H   0  0  0  0  0  0  0  0  0  0  0  0
  151.5906  140.3826  155.8202 H   0  0  0  0  0  0  0  0  0  0  0  0
  153.1116  139.9437  156.5660 H   0  0  0  0  0  0  0  0  0  0  0  0
  153.0757  139.4512  154.0922 H   0  0  0  0  0  0  0  0  0  0  0  0
  153.3678  138.0190  155.0556 H   0  0  0  0  0  0  0  0  0  0  0  0
  150.7006  138.8612  153.8264 H   0  0  0  0  0  0  0  0  0  0  0  0
  151.6691  137.4810  153.3581 H   0  0  0  0  0  0  0  0  0  0  0  0
  149.7455  136.8319  154.8524 H   0  0  0  0  0  0  0  0  0  0  0  0
  151.2819  136.4100  155.5819 H   0  0  0  0  0  0  0  0  0  0  0  0
  149.5003  143.4369  156.8667 H   0  0  0  0  0  0  0  0  0  0  0  0
  1  2  1  0  0  0  0
  1 22  1  0  0  0  0
  1 23  1  0  0  0  0
  1 24  1  0  0  0  0
  2  3  1  0  0  0  0
  2  4  1  0  0  0  0
  2 25  1  0  0  0  0
  3 26  1  0  0  0  0
  4  5  1  0  0  0  0
  4 27  1  0  0  0  0
  4 28  1  0  0  0  0
  5  6  1  0  0  0  0
  5 29  1  0  0  0  0
  6 14  1  0  0  0  0
  6  7  2  0  0  0  0
  7  8  1  0  0  0  0
  7 45  1  0  0  0  0
  8 13  2  0  0  0  0
  8  9  1  0  0  0  0
  9 10  2  0  0  0  0
  9 30  1  0  0  0  0
 10 11  1  0  0  0  0
 10 31  1  0  0  0  0
 11 12  2  0  0  0  0
 11 32  1  0  0  0  0
 12 13  1  0  0  0  0
 12 33  1  0  0  0  0
 13 14  1  0  0  0  0
 14 15  1  0  0  0  0
 15 16  1  0  0  0  0
 15 34  1  0  0  0  0
 15 35  1  0  0  0  0
 16 21  1  0  0  0  0
 16 17  1  0  0  0  0
 16 36  1  0  0  0  0
 17 18  1  0  0  0  0
 17 37  1  0  0  0  0
 17 38  1  0  0  0  0
 18 19  1  0  0  0  0
 18 39  1  0  0  0  0
 18 40  1  0  0  0  0
 19 20  1  0  0  0  0
 19 41  1  0  0  0  0
 19 42  1  0  0  0  0
 20 21  1  0  0  0  0
 20 43  1  0  0  0  0
 20 44  1  0  0  0  0
M  CHG  1   7   1
M  END
> <s_m_source_file>
AV-unprocessed.smi

> <i_m_source_file_index>
573

> <i_lp_mmshare_version>
43012

> <i_f3d_flags>
0

> <s_epik_input>
W0NIM11bQ0BIXShbT0hdKVtDSDJdW05IXWMobjEpbihjKGMxMilbY0hdW2NIXVtjSF1bY0hdMilbQ0gyXVtDQEBIXTNbQ0gyXVtDSDJdW0NIMl1bQ0gyXU8z

> <s_epik_cmdline>
J2VwaWtfcHl0aG9uJywgJy1waCcsICc3LjAnLCAnLXRuJywgJzgnLCAnLW1hJywgJzIwMCcsICctbWV0YWxfYmluZGluZycsICctaW1hZScsICc8aW5maWxlLm1hZT4nLCAnLW9tYWUnLCAnPG91dGZpbGUubWFlPic=

> <r_epik_Ionization_Penalty>
0.0692245

> <r_epik_Ionization_Penalty_Charging>
0.0692223

> <r_epik_Ionization_Penalty_Neutral>
2.1869e-06

> <r_epik_State_Penalty>
0.0606215

> <r_epik_Charging_Adjusted_Penalty>
0.129844

> <i_epik_Tot_Q>
1

> <i_epik_Tot_abs_Q>
1

> <r_epik_Metal_State_Penalty>
2.77811

> <b_epik_Metal_Only>
0

> <s_lp_Force_Field>
OPLS_2005

> <r_lp_Energy>
22.2685

> <b_lp_Chiralities_Consistent>
1

> <s_lp_Variant>
AV-unprocessed.smi:573-2

> <Gold.Version>
5.8.1

> <Gold.Id.Protein>
6NUR|6NUR_protein|mol2

> <Gold.PLP.Fitness>
55.1086

> <Gold.PLP.PLP>
-45.0559

> <Gold.PLP.part.hbond>
-3.3474

> <Gold.PLP.part.metal>
0.0000

> <Gold.PLP.part.buried>
-6.2814

> <Gold.PLP.part.nonpolar>
-35.4653

> <Gold.PLP.part.repulsive>
0.0310

> <Gold.PLP.ligand.clash>
0.0018

> <Gold.PLP.ligand.torsion>
0.8742

> <Gold.PLP.Chemscore.Hbond>
3.9221

> <Gold.PLP.Chemscore.CHOScore>
0.0000

> <Gold.PLP.Chemscore.Metal>
0.0000

> <Gold.Chemscore.Hbonds>
donor molecule, donor type, donor heavy atom, donor atom, acceptor molecule, acceptor atom, score
      L1  H     3    26       P1  7957  0.80
      L1  H     7    45       P1  8028  2.00
      P1  H  7989  7998       L1     3  0.10
      P1  H  8011  8017       L1     3  1.00

> <Gold.PLP.Chemscore.Internal.Correction>
0.0365

> <Gold.Rescore>
     Score         DG    S(hbond)    S(metal)    S(lipo)     H(rot)  DE(clash)    DE(int)     intcor
     21.51     -22.60       2.32        0.00     125.30       2.07       0.01       1.08       ----

> <Gold.Chemscore.Fitness>
21.5066

> <Gold.Chemscore.DG>
-22.5976

> <Gold.Chemscore.ZeroCoef>
-5.4800

> <Gold.Chemscore.Hbond>
2.3224

> <Gold.Chemscore.Metal>
0.0000

> <Gold.Chemscore.Lipo>
125.2987

> <Gold.Chemscore.Internal_Hbond>
0.0000

> <Gold.Chemscore.DEClash>
0.0107

> <Gold.Chemscore.DEInternal>
1.0803

> <Gold.Chemscore.Rot>
2.0699

> <Gold.Chemscore.Internal.Correction>
   9.000000E+99

> <Gold.Chemscore.Hbonds>
donor molecule, donor type, donor heavy atom, donor atom, acceptor molecule, acceptor atom, score
      L1  H     3    26       P1  7957  0.74
      L1  H     7    45       P1  8028  0.98
      P1  H  7989  7998       L1     3  0.01
      P1  H  8011  8017       L1     3  0.25

> <Gold.Chemscore.Hbond.Weighted>
-7.7567

> <Gold.Chemscore.Metal.Weighted>
-0.0000

> <Gold.Chemscore.Lipo.Weighted>
-14.6599

> <Gold.Chemscore.Internal_Hbond.Weighted>
0.0000

> <Gold.Chemscore.DEClash.Weighted>
0.0107

> <Gold.Chemscore.DEInternal.Weighted>
1.0803

> <Gold.Chemscore.Rot.Weighted>
5.2991

> <Gold.Chemscore.Internal.Correction.Weighted>
   9.000000E+99

> <Gold.Protein.RotatedTorsions>
[ 6907 6896 6895 6894 ] final  -22.14 input  -60.11 | X-H torsion
[ 7974 7965 7964 7962 ] final  -28.42 input  175.53 | X-H torsion
[ 8008 7997 7996 7995 ] final  148.09 input   59.86 | X-H torsion
[ 10167 10162 10161 10158 ] final  -50.24 input  -65.29 | X-H torsion
[ 10718 10713 10712 10709 ] final  -61.90 input   66.30 | X-H torsion
[ 10763 10752 10751 10750 ] final    2.82 input  -60.55 | X-H torsion
[ 11005 11000 10999 10996 ] final   84.20 input  -57.11 | X-H torsion

> <Gold.Protein.ActiveResidues>
 VAL166  LYS551  ARG553  GLY616  TRP617  ASP618  TYR619  PRO620  LYS621  CYS622 
 ASP623  PHE694  ASN695  SER759  ASP760  ASP761  ALA762  ILE779  LEU786  VAL792 
 PHE793  MET794  SER795  GLU796  ALA797  LYS798  CYS799  TRP800  GLU811  SER814 

> <Gold.Protein.RotatedAtoms>
  151.2230  135.0525  159.8956 H   0  0  0  0  0  0  0  0  0  0  0  0  # atno 6907 bound_to 6896
  152.5413  134.0620  159.8166 H   0  0  0  0  0  0  0  0  0  0  0  0  # atno 6908 bound_to 6896
  151.0789  133.5357  159.2653 H   0  0  0  0  0  0  0  0  0  0  0  0  # atno 6909 bound_to 6896
  146.1289  140.5281  142.8702 H   0  0  0  0  0  0  0  0  0  0  0  0  # atno 7974 bound_to 7965
  156.2803  140.2138  156.5643 H   0  0  0  0  0  0  0  0  0  0  0  0  # atno 8008 bound_to 7997
  154.7188  140.0505  157.0642 H   0  0  0  0  0  0  0  0  0  0  0  0  # atno 8009 bound_to 7997
  155.0507  140.3156  155.4696 H   0  0  0  0  0  0  0  0  0  0  0  0  # atno 8010 bound_to 7997
  140.6647  143.2665  151.4331 H   0  0  0  0  0  0  0  0  0  0  0  0  # atno 10167 bound_to 10162
  156.0891  130.4203  150.1059 H   0  0  0  0  0  0  0  0  0  0  0  0  # atno 10718 bound_to 10713
  153.2909  135.6948  153.7294 H   0  0  0  0  0  0  0  0  0  0  0  0  # atno 10763 bound_to 10752
  153.6245  135.3421  155.3022 H   0  0  0  0  0  0  0  0  0  0  0  0  # atno 10764 bound_to 10752
  154.8523  135.4394  154.1991 H   0  0  0  0  0  0  0  0  0  0  0  0  # atno 10765 bound_to 10752
  139.9007  134.8199  156.2412 H   0  0  0  0  0  0  0  0  0  0  0  0  # atno 11005 bound_to 11000
  144.7670  140.5553  143.6696 LP  0  0  0  0  0  0  0  0  0  0  0  0  # atno 17320 bound_to 7965
  145.5304  139.1475  143.3502 LP  0  0  0  0  0  0  0  0  0  0  0  0  # atno 17321 bound_to 7965
  139.5892  144.1537  152.2067 LP  0  0  0  0  0  0  0  0  0  0  0  0  # atno 17342 bound_to 10162
  140.0886  144.5640  150.7071 LP  0  0  0  0  0  0  0  0  0  0  0  0  # atno 17343 bound_to 10162
  156.9073  130.9640  151.3568 LP  0  0  0  0  0  0  0  0  0  0  0  0  # atno 17370 bound_to 10713
  157.6034  130.8529  149.8838 LP  0  0  0  0  0  0  0  0  0  0  0  0  # atno 17371 bound_to 10713
  141.0283  133.7002  156.1386 LP  0  0  0  0  0  0  0  0  0  0  0  0  # atno 17394 bound_to 11000
  140.7133  134.4437  157.5580 LP  0  0  0  0  0  0  0  0  0  0  0  0  # atno 17395 bound_to 11000

$$$$
