AV-unprocessed.smi:1524|AV-procd|sdf|6139|dock5
  -GOLD-   22720 6283D 1   1.00000     0.00000
 Structure written by MMmdl.
 35 36  0  0  0  0  0  0  0  0  1 V2000
  141.7262  136.3462  153.5641 O   0  0  0  0  0  0  0  0  0  0  0  0
  142.2157  137.3895  153.1366 C   0  0  0  0  0  0  0  0  0  0  0  0
  143.3565  137.4774  152.4221 N   0  0  0  0  0  0  0  0  0  0  0  0
  144.2144  136.4565  151.9826 C   0  0  0  0  0  0  0  0  0  0  0  0
  143.8081  135.2961  151.4046 C   0  0  0  0  0  0  0  0  0  0  0  0
  144.7523  134.2831  150.9633 C   0  0  0  0  0  0  0  0  0  0  0  0
  144.2844  132.9534  150.3924 C   0  0  0  0  0  0  0  0  0  0  0  0
  143.3641  132.3880  151.1747 F   0  0  0  0  0  0  0  0  0  0  0  0
  143.7604  133.1119  149.1767 F   0  0  0  0  0  0  0  0  0  0  0  0
  145.3159  132.1160  150.2930 F   0  0  0  0  0  0  0  0  0  0  0  0
  146.0562  134.5496  151.1649 C   0  0  0  0  0  0  0  0  0  0  0  0
  146.4825  135.7506  151.7364 N   0  0  0  0  0  0  0  0  0  0  0  0
  145.6502  136.7292  152.1576 C   0  0  0  0  0  0  0  0  0  0  0  0
  146.1036  137.7624  152.6493 O   0  0  0  0  0  0  0  0  0  0  0  0
  141.6381  138.5779  153.3910 N   0  0  0  0  0  0  0  0  0  0  0  0
  140.4040  138.8505  154.1318 C   0  0  0  0  0  0  0  0  0  0  0  0
  139.2060  138.1139  153.5047 C   0  0  0  0  0  0  0  0  0  0  0  0
  137.8910  138.5427  154.1761 C   0  0  0  0  0  0  0  0  0  0  0  0
  137.7358  139.9549  154.0884 O   0  0  0  0  0  0  0  0  0  0  0  0
  138.7631  140.6679  154.7685 C   0  0  0  0  0  0  0  0  0  0  0  0
  140.1269  140.3614  154.1287 C   0  0  0  0  0  0  0  0  0  0  0  0
  147.4786  135.8833  151.8365 H   0  0  0  0  0  0  0  0  0  0  0  0
  143.6732  138.4113  152.2056 H   0  0  0  0  0  0  0  0  0  0  0  0
  142.7623  135.0985  151.2347 H   0  0  0  0  0  0  0  0  0  0  0  0
  146.8610  133.8746  150.9133 H   0  0  0  0  0  0  0  0  0  0  0  0
  142.1276  139.3925  153.0494 H   0  0  0  0  0  0  0  0  0  0  0  0
  140.5179  138.5345  155.1705 H   0  0  0  0  0  0  0  0  0  0  0  0
  139.1512  138.3358  152.4379 H   0  0  0  0  0  0  0  0  0  0  0  0
  139.3282  137.0337  153.5921 H   0  0  0  0  0  0  0  0  0  0  0  0
  137.0452  138.0646  153.6819 H   0  0  0  0  0  0  0  0  0  0  0  0
  137.8681  138.2286  155.2208 H   0  0  0  0  0  0  0  0  0  0  0  0
  138.5516  141.7353  154.7046 H   0  0  0  0  0  0  0  0  0  0  0  0
  138.7625  140.4061  155.8276 H   0  0  0  0  0  0  0  0  0  0  0  0
  140.9164  140.8916  154.6626 H   0  0  0  0  0  0  0  0  0  0  0  0
  140.1336  140.7390  153.1051 H   0  0  0  0  0  0  0  0  0  0  0  0
  1  2  2  0  0  0  0
  2  3  1  0  0  0  0
  2 15  1  0  0  0  0
  3  4  1  0  0  0  0
  3 23  1  0  0  0  0
  4 13  1  0  0  0  0
  4  5  2  0  0  0  0
  5  6  1  0  0  0  0
  5 24  1  0  0  0  0
  6  7  1  0  0  0  0
  6 11  2  0  0  0  0
  7  8  1  0  0  0  0
  7  9  1  0  0  0  0
  7 10  1  0  0  0  0
 11 12  1  0  0  0  0
 11 25  1  0  0  0  0
 12 22  1  0  0  0  0
 12 13  1  0  0  0  0
 13 14  2  0  0  0  0
 15 16  1  0  0  0  0
 15 26  1  0  0  0  0
 16 21  1  0  0  0  0
 16 17  1  0  0  0  0
 16 27  1  0  0  0  0
 17 18  1  0  0  0  0
 17 28  1  0  0  0  0
 17 29  1  0  0  0  0
 18 19  1  0  0  0  0
 18 30  1  0  0  0  0
 18 31  1  0  0  0  0
 19 20  1  0  0  0  0
 20 21  1  0  0  0  0
 20 32  1  0  0  0  0
 20 33  1  0  0  0  0
 21 34  1  0  0  0  0
 21 35  1  0  0  0  0
M  END
> <s_m_source_file>
AV-unprocessed.smi

> <i_m_source_file_index>
1524

> <i_lp_mmshare_version>
43012

> <i_f3d_flags>
0

> <s_epik_input>
W0NIMl0xW0NIMl1PW0NIMl1bQ0gyXVtDSF0xW05IXUMoPU8pW05IXWMyW2NIXWMoQyhGKShGKUYpW2NIXVtuSF1jMj1P

> <s_epik_cmdline>
J2VwaWtfcHl0aG9uJywgJy1waCcsICc3LjAnLCAnLXRuJywgJzgnLCAnLW1hJywgJzIwMCcsICctbWV0YWxfYmluZGluZycsICctaW1hZScsICc8aW5maWxlLm1hZT4nLCAnLW9tYWUnLCAnPG91dGZpbGUubWFlPic=

> <r_lp_tautomer_probability>
1

> <r_epik_Ionization_Penalty>
0.00380781

> <r_epik_Ionization_Penalty_Charging>
0.00378827

> <r_epik_Ionization_Penalty_Neutral>
1.95401e-05

> <r_epik_State_Penalty>
-0

> <r_epik_Charging_Adjusted_Penalty>
0.00378827

> <i_epik_Tot_Q>
0

> <i_epik_Tot_abs_Q>
0

> <r_epik_Metal_State_Penalty>
0.371078

> <b_epik_Metal_Only>
0

> <s_lp_Force_Field>
OPLS_2005

> <r_lp_Energy>
30.03

> <b_lp_Chiralities_Consistent>
1

> <s_lp_Variant>
AV-unprocessed.smi:1524-1

> <Gold.Version>
5.8.1

> <Gold.Id.Protein>
6NUR|6NUR_protein|mol2

> <Gold.PLP.Fitness>
41.8992

> <Gold.PLP.PLP>
-36.4478

> <Gold.PLP.part.hbond>
-3.9780

> <Gold.PLP.part.metal>
0.0000

> <Gold.PLP.part.buried>
-4.8367

> <Gold.PLP.part.nonpolar>
-29.4089

> <Gold.PLP.part.repulsive>
0.5586

> <Gold.PLP.ligand.clash>
2.1965

> <Gold.PLP.ligand.torsion>
0.6162

> <Gold.PLP.Chemscore.Hbond>
2.9500

> <Gold.PLP.Chemscore.CHOScore>
0.0000

> <Gold.PLP.Chemscore.Metal>
0.0000

> <Gold.Chemscore.Hbonds>
donor molecule, donor type, donor heavy atom, donor atom, acceptor molecule, acceptor atom, score
      L1  H     3    23       P1 10175  0.99
      L1  H    12    22       P1  7948  0.88
      L1  H    15    26       P1 10175  1.00

> <Gold.PLP.Chemscore.Internal.Correction>
0.0304

> <Gold.Rescore>
     Score         DG    S(hbond)    S(metal)    S(lipo)     H(rot)  DE(clash)    DE(int)     intcor
     17.92     -18.94       2.82        0.00      56.32       1.00       0.56       0.47       ----

> <Gold.Chemscore.Fitness>
17.9173

> <Gold.Chemscore.DG>
-18.9448

> <Gold.Chemscore.ZeroCoef>
-5.4800

> <Gold.Chemscore.Hbond>
2.8250

> <Gold.Chemscore.Metal>
0.0000

> <Gold.Chemscore.Lipo>
56.3198

> <Gold.Chemscore.Internal_Hbond>
0.0000

> <Gold.Chemscore.DEClash>
0.5593

> <Gold.Chemscore.DEInternal>
0.4682

> <Gold.Chemscore.Rot>
1.0000

> <Gold.Chemscore.Internal.Correction>
   9.000000E+99

> <Gold.Chemscore.Hbonds>
donor molecule, donor type, donor heavy atom, donor atom, acceptor molecule, acceptor atom, score
      L1  H     3    23       P1 10175  0.90
      L1  H    12    22       P1  7948  0.86
      L1  H    15    26       P1 10175  0.92

> <Gold.Chemscore.Hbond.Weighted>
-9.4354

> <Gold.Chemscore.Metal.Weighted>
-0.0000

> <Gold.Chemscore.Lipo.Weighted>
-6.5894

> <Gold.Chemscore.Internal_Hbond.Weighted>
0.0000

> <Gold.Chemscore.DEClash.Weighted>
0.5593

> <Gold.Chemscore.DEInternal.Weighted>
0.4682

> <Gold.Chemscore.Rot.Weighted>
2.5600

> <Gold.Chemscore.Internal.Correction.Weighted>
   9.000000E+99

> <Gold.Protein.RotatedTorsions>
[ 6907 6896 6895 6894 ] final  -72.33 input  -60.11 | X-H torsion
[ 7974 7965 7964 7962 ] final  129.97 input  175.53 | X-H torsion
[ 8008 7997 7996 7995 ] final   43.59 input   59.86 | X-H torsion
[ 10167 10162 10161 10158 ] final   93.87 input  -65.29 | X-H torsion
[ 10718 10713 10712 10709 ] final -165.22 input   66.30 | X-H torsion
[ 10763 10752 10751 10750 ] final  -94.73 input  -60.55 | X-H torsion
[ 11005 11000 10999 10996 ] final   39.35 input  -57.11 | X-H torsion

> <Gold.Protein.ActiveResidues>
 VAL166  LYS551  ARG553  GLY616  TRP617  ASP618  TYR619  PRO620  LYS621  CYS622 
 ASP623  PHE694  ASN695  SER759  ASP760  ASP761  ALA762  ILE779  LEU786  VAL792 
 PHE793  MET794  SER795  GLU796  ALA797  LYS798  CYS799  TRP800  GLU811  SER814 

> <Gold.Protein.RotatedAtoms>
  150.7174  134.5179  159.5638 H   0  0  0  0  0  0  0  0  0  0  0  0  # atno 6907 bound_to 6896
  152.2741  134.7898  160.0418 H   0  0  0  0  0  0  0  0  0  0  0  0  # atno 6908 bound_to 6896
  151.8568  133.3414  159.3727 H   0  0  0  0  0  0  0  0  0  0  0  0  # atno 6909 bound_to 6896
  145.0230  139.4115  143.5188 H   0  0  0  0  0  0  0  0  0  0  0  0  # atno 7974 bound_to 7965
  155.3053  140.3387  155.4246 H   0  0  0  0  0  0  0  0  0  0  0  0  # atno 8008 bound_to 7997
  156.1982  140.1723  156.7994 H   0  0  0  0  0  0  0  0  0  0  0  0  # atno 8009 bound_to 7997
  154.5525  140.0703  156.8674 H   0  0  0  0  0  0  0  0  0  0  0  0  # atno 8010 bound_to 7997
  139.8138  144.6762  150.9606 H   0  0  0  0  0  0  0  0  0  0  0  0  # atno 10167 bound_to 10162
  156.6503  130.9005  151.3012 H   0  0  0  0  0  0  0  0  0  0  0  0  # atno 10718 bound_to 10713
  154.7083  135.5146  153.8628 H   0  0  0  0  0  0  0  0  0  0  0  0  # atno 10763 bound_to 10752
  153.0759  135.6616  154.0156 H   0  0  0  0  0  0  0  0  0  0  0  0  # atno 10764 bound_to 10752
  154.0002  135.3011  155.3383 H   0  0  0  0  0  0  0  0  0  0  0  0  # atno 10765 bound_to 10752
  140.2037  134.3839  155.8083 H   0  0  0  0  0  0  0  0  0  0  0  0  # atno 11005 bound_to 11000
  146.3488  139.9737  142.8703 LP  0  0  0  0  0  0  0  0  0  0  0  0  # atno 17320 bound_to 7965
  145.1871  140.9794  143.4232 LP  0  0  0  0  0  0  0  0  0  0  0  0  # atno 17321 bound_to 7965
  140.7816  143.4159  151.0918 LP  0  0  0  0  0  0  0  0  0  0  0  0  # atno 17342 bound_to 10162
  139.7824  143.8336  152.3139 LP  0  0  0  0  0  0  0  0  0  0  0  0  # atno 17343 bound_to 10162
  157.7143  130.9478  150.1198 LP  0  0  0  0  0  0  0  0  0  0  0  0  # atno 17370 bound_to 10713
  156.2089  130.3665  149.8694 LP  0  0  0  0  0  0  0  0  0  0  0  0  # atno 17371 bound_to 10713
  141.2227  133.7107  156.8301 LP  0  0  0  0  0  0  0  0  0  0  0  0  # atno 17394 bound_to 11000
  140.2026  134.8886  157.3186 LP  0  0  0  0  0  0  0  0  0  0  0  0  # atno 17395 bound_to 11000

$$$$
