AV-unprocessed.smi:3206|AV-procd|sdf|12257|dock2
  -GOLD-   2272018 93D 1   1.00000     0.00000
 Structure written by MMmdl.
 42 43  0  0  0  0  0  0  0  0  2 V2000
  153.8117  141.3893  161.6897 C   0  0  0  0  0  0  0  0  0  0  0  0
  153.5604  142.6988  160.9290 C   0  0  2  0  0  0  0  0  0  0  0  0
  152.2853  143.4040  161.4266 C   0  0  0  0  0  0  0  0  0  0  0  0
  152.0275  144.7148  160.6619 C   0  0  0  0  0  0  0  0  0  0  0  0
  151.9596  144.5072  159.1337 C   0  0  2  0  0  0  0  0  0  0  0  0
  150.6531  143.8079  158.6842 C   0  0  0  0  0  0  0  0  0  0  0  0
  150.8212  143.1225  157.3869 N   0  3  0  0  0  0  0  0  0  0  0  0
  150.4443  141.6956  157.4082 C   0  0  0  0  0  0  0  0  0  0  0  0
  151.3641  140.8662  156.4966 C   0  0  0  0  0  0  0  0  0  0  0  0
  150.6652  139.7748  155.7389 C   0  0  0  0  0  0  0  0  0  0  0  0
  150.5699  139.7033  154.4136 N   0  0  0  0  0  0  0  0  0  0  0  0
  149.8562  138.5484  154.2775 C   0  0  0  0  0  0  0  0  0  0  0  0
  149.5250  137.9366  155.4109 N   0  0  0  0  0  0  0  0  0  0  0  0
  150.0589  138.7475  156.3524 N   0  0  0  0  0  0  0  0  0  0  0  0
  149.9096  138.4153  157.7566 C   0  0  0  0  0  0  0  0  0  0  0  0
  153.2260  143.7727  158.6441 C   0  0  0  0  0  0  0  0  0  0  0  0
  153.4834  142.4621  159.4094 C   0  0  0  0  0  0  0  0  0  0  0  0
  152.9980  140.6793  161.5379 H   0  0  0  0  0  0  0  0  0  0  0  0
  153.9013  141.5687  162.7615 H   0  0  0  0  0  0  0  0  0  0  0  0
  154.7349  140.9134  161.3580 H   0  0  0  0  0  0  0  0  0  0  0  0
  154.4071  143.3588  161.1237 H   0  0  0  0  0  0  0  0  0  0  0  0
  151.4295  142.7367  161.3200 H   0  0  0  0  0  0  0  0  0  0  0  0
  152.3724  143.6185  162.4925 H   0  0  0  0  0  0  0  0  0  0  0  0
  151.1102  145.1829  161.0209 H   0  0  0  0  0  0  0  0  0  0  0  0
  152.8304  145.4169  160.8901 H   0  0  0  0  0  0  0  0  0  0  0  0
  151.9814  145.5007  158.6828 H   0  0  0  0  0  0  0  0  0  0  0  0
  150.3299  143.0734  159.4228 H   0  0  0  0  0  0  0  0  0  0  0  0
  149.8382  144.5268  158.5912 H   0  0  0  0  0  0  0  0  0  0  0  0
  150.2518  143.5954  156.6995 H   0  0  0  0  0  0  0  0  0  0  0  0
  150.5021  141.3280  158.4338 H   0  0  0  0  0  0  0  0  0  0  0  0
  149.4072  141.5971  157.0843 H   0  0  0  0  0  0  0  0  0  0  0  0
  151.8509  141.5236  155.7751 H   0  0  0  0  0  0  0  0  0  0  0  0
  152.1560  140.4126  157.0939 H   0  0  0  0  0  0  0  0  0  0  0  0
  149.5729  138.1474  153.3155 H   0  0  0  0  0  0  0  0  0  0  0  0
  150.3919  139.1616  158.3869 H   0  0  0  0  0  0  0  0  0  0  0  0
  150.3633  137.4436  157.9539 H   0  0  0  0  0  0  0  0  0  0  0  0
  148.8506  138.3715  158.0126 H   0  0  0  0  0  0  0  0  0  0  0  0
  153.1575  143.5734  157.5742 H   0  0  0  0  0  0  0  0  0  0  0  0
  154.0887  144.4277  158.7716 H   0  0  0  0  0  0  0  0  0  0  0  0
  154.4132  142.0142  159.0567 H   0  0  0  0  0  0  0  0  0  0  0  0
  152.6958  141.7412  159.1881 H   0  0  0  0  0  0  0  0  0  0  0  0
  151.7900  143.1952  157.1102 H   0  0  0  0  0  0  0  0  0  0  0  0
  1  2  1  0  0  0  0
  1 18  1  0  0  0  0
  1 19  1  0  0  0  0
  1 20  1  0  0  0  0
  2 17  1  0  0  0  0
  2  3  1  0  0  0  0
  2 21  1  0  0  0  0
  3  4  1  0  0  0  0
  3 22  1  0  0  0  0
  3 23  1  0  0  0  0
  4  5  1  0  0  0  0
  4 24  1  0  0  0  0
  4 25  1  0  0  0  0
  5  6  1  0  0  0  0
  5 16  1  0  0  0  0
  5 26  1  0  0  0  0
  6  7  1  0  0  0  0
  6 27  1  0  0  0  0
  6 28  1  0  0  0  0
  7  8  1  0  0  0  0
  7 29  1  0  0  0  0
  7 42  1  0  0  0  0
  8  9  1  0  0  0  0
  8 30  1  0  0  0  0
  8 31  1  0  0  0  0
  9 10  1  0  0  0  0
  9 32  1  0  0  0  0
  9 33  1  0  0  0  0
 10 14  1  0  0  0  0
 10 11  2  0  0  0  0
 11 12  1  0  0  0  0
 12 13  2  0  0  0  0
 12 34  1  0  0  0  0
 13 14  1  0  0  0  0
 14 15  1  0  0  0  0
 15 35  1  0  0  0  0
 15 36  1  0  0  0  0
 15 37  1  0  0  0  0
 16 17  1  0  0  0  0
 16 38  1  0  0  0  0
 16 39  1  0  0  0  0
 17 40  1  0  0  0  0
 17 41  1  0  0  0  0
M  CHG  1   7   1
M  END
> <s_m_source_file>
AV-unprocessed.smi

> <i_m_source_file_index>
3206

> <i_lp_mmshare_version>
43012

> <i_f3d_flags>
0

> <s_epik_input>
W0NIM11bQ0BASF0xW0NIMl1bQ0gyXVtDQEhdKFtDSDJdW0NIMl0xKVtDSDJdW05IXVtDSDJdW0NIMl1jMm5bY0hdbm4yW0NIM10=

> <s_epik_cmdline>
J2VwaWtfcHl0aG9uJywgJy1waCcsICc3LjAnLCAnLXRuJywgJzgnLCAnLW1hJywgJzIwMCcsICctbWV0YWxfYmluZGluZycsICctaW1hZScsICc8aW5maWxlLm1hZT4nLCAnLW9tYWUnLCAnPG91dGZpbGUubWFlPic=

> <r_lp_tautomer_probability>
1

> <r_epik_Ionization_Penalty>
0.00114491

> <r_epik_Ionization_Penalty_Charging>
0.00114083

> <r_epik_Ionization_Penalty_Neutral>
4.0852e-06

> <r_epik_State_Penalty>
-0

> <r_epik_Charging_Adjusted_Penalty>
0.00114083

> <i_epik_Tot_Q>
1

> <i_epik_Tot_abs_Q>
1

> <r_epik_Metal_State_Penalty>
-0

> <b_epik_Metal_Only>
0

> <s_lp_Force_Field>
OPLS_2005

> <r_lp_Energy>
20.2126

> <b_lp_Chiralities_Consistent>
1

> <s_lp_Variant>
AV-unprocessed.smi:3206-2

> <Gold.Version>
5.8.1

> <Gold.Id.Protein>
6NUR|6NUR_protein|mol2

> <Gold.PLP.Fitness>
52.6756

> <Gold.PLP.PLP>
-40.7129

> <Gold.PLP.part.hbond>
-2.0000

> <Gold.PLP.part.metal>
0.0000

> <Gold.PLP.part.buried>
-5.7062

> <Gold.PLP.part.nonpolar>
-32.8354

> <Gold.PLP.part.repulsive>
0.2324

> <Gold.PLP.ligand.clash>
0.0000

> <Gold.PLP.ligand.torsion>
1.1900

> <Gold.PLP.Chemscore.Hbond>
3.0000

> <Gold.PLP.Chemscore.CHOScore>
1.7548

> <Gold.PLP.Chemscore.Metal>
0.0000

> <Gold.Chemscore.Hbonds>
donor molecule, donor type, donor heavy atom, donor atom, acceptor molecule, acceptor atom, score
      L1  H     7    29       P1  8028  1.95
      P1  H  7989  7998       L1    11  1.00
      L1  C    12    34       P1  7948  1.00
      L1  C    12    34       P1  7957  0.14

> <Gold.PLP.Chemscore.Internal.Correction>
0.0783

> <Gold.Rescore>
     Score         DG    S(hbond)    S(metal)    S(lipo)     H(rot)  DE(clash)    DE(int)     intcor
     18.50     -19.50       1.98        0.00     108.20       2.05       0.02       0.99       ----

> <Gold.Chemscore.Fitness>
18.4977

> <Gold.Chemscore.DG>
-19.5020

> <Gold.Chemscore.ZeroCoef>
-5.4800

> <Gold.Chemscore.Hbond>
1.9814

> <Gold.Chemscore.Metal>
0.0000

> <Gold.Chemscore.Lipo>
108.1989

> <Gold.Chemscore.Internal_Hbond>
0.0000

> <Gold.Chemscore.DEClash>
0.0181

> <Gold.Chemscore.DEInternal>
0.9862

> <Gold.Chemscore.Rot>
2.0528

> <Gold.Chemscore.Internal.Correction>
   9.000000E+99

> <Gold.Chemscore.Hbonds>
donor molecule, donor type, donor heavy atom, donor atom, acceptor molecule, acceptor atom, score
      L1  H     7    29       P1  8028  0.91
      P1  H  7989  7998       L1    11  0.93

> <Gold.Chemscore.Hbond.Weighted>
-6.6178

> <Gold.Chemscore.Metal.Weighted>
-0.0000

> <Gold.Chemscore.Lipo.Weighted>
-12.6593

> <Gold.Chemscore.Internal_Hbond.Weighted>
0.0000

> <Gold.Chemscore.DEClash.Weighted>
0.0181

> <Gold.Chemscore.DEInternal.Weighted>
0.9862

> <Gold.Chemscore.Rot.Weighted>
5.2551

> <Gold.Chemscore.Internal.Correction.Weighted>
   9.000000E+99

> <Gold.Protein.RotatedTorsions>
[ 6907 6896 6895 6894 ] final  -42.92 input  -60.11 | X-H torsion
[ 7974 7965 7964 7962 ] final -150.98 input  175.53 | X-H torsion
[ 8008 7997 7996 7995 ] final  115.92 input   59.86 | X-H torsion
[ 10167 10162 10161 10158 ] final    7.65 input  -65.29 | X-H torsion
[ 10718 10713 10712 10709 ] final   16.42 input   66.30 | X-H torsion
[ 10763 10752 10751 10750 ] final  169.52 input  -60.55 | X-H torsion
[ 11005 11000 10999 10996 ] final  -96.50 input  -57.11 | X-H torsion

> <Gold.Protein.ActiveResidues>
 VAL166  LYS551  ARG553  GLY616  TRP617  ASP618  TYR619  PRO620  LYS621  CYS622 
 ASP623  PHE694  ASN695  SER759  ASP760  ASP761  ALA762  ILE779  LEU786  VAL792 
 PHE793  MET794  SER795  GLU796  ALA797  LYS798  CYS799  TRP800  GLU811  SER814 

> <Gold.Protein.RotatedAtoms>
  150.9498  134.8899  159.7664 H   0  0  0  0  0  0  0  0  0  0  0  0  # atno 6907 bound_to 6896
  152.5115  134.3823  159.9365 H   0  0  0  0  0  0  0  0  0  0  0  0  # atno 6908 bound_to 6896
  151.3839  133.3771  159.2748 H   0  0  0  0  0  0  0  0  0  0  0  0  # atno 6909 bound_to 6896
  144.7876  140.4859  143.5795 H   0  0  0  0  0  0  0  0  0  0  0  0  # atno 7974 bound_to 7965
  156.2409  140.2928  156.0443 H   0  0  0  0  0  0  0  0  0  0  0  0  # atno 8008 bound_to 7997
  155.1952  140.0408  157.2925 H   0  0  0  0  0  0  0  0  0  0  0  0  # atno 8009 bound_to 7997
  154.6167  140.2465  155.7607 H   0  0  0  0  0  0  0  0  0  0  0  0  # atno 8010 bound_to 7997
  140.6360  143.7885  150.7360 H   0  0  0  0  0  0  0  0  0  0  0  0  # atno 10167 bound_to 10162
  157.0676  130.6335  149.5799 H   0  0  0  0  0  0  0  0  0  0  0  0  # atno 10718 bound_to 10713
  154.3843  135.2753  155.2193 H   0  0  0  0  0  0  0  0  0  0  0  0  # atno 10763 bound_to 10752
  154.4286  135.5983  153.6058 H   0  0  0  0  0  0  0  0  0  0  0  0  # atno 10764 bound_to 10752
  152.9833  135.5990  154.4089 H   0  0  0  0  0  0  0  0  0  0  0  0  # atno 10765 bound_to 10752
  141.1409  133.8102  157.0580 H   0  0  0  0  0  0  0  0  0  0  0  0  # atno 11005 bound_to 11000
  145.5880  139.1493  143.3198 LP  0  0  0  0  0  0  0  0  0  0  0  0  # atno 17320 bound_to 7965
  146.2114  140.6007  142.9057 LP  0  0  0  0  0  0  0  0  0  0  0  0  # atno 17321 bound_to 7965
  140.1507  143.4360  152.2133 LP  0  0  0  0  0  0  0  0  0  0  0  0  # atno 17342 bound_to 10162
  139.5570  144.7380  151.4264 LP  0  0  0  0  0  0  0  0  0  0  0  0  # atno 17343 bound_to 10162
  155.9960  130.5028  150.7479 LP  0  0  0  0  0  0  0  0  0  0  0  0  # atno 17370 bound_to 10713
  157.4904  131.0910  151.0433 LP  0  0  0  0  0  0  0  0  0  0  0  0  # atno 17371 bound_to 10713
  140.0590  134.9765  157.1271 LP  0  0  0  0  0  0  0  0  0  0  0  0  # atno 17394 bound_to 11000
  140.3877  134.2218  155.7167 LP  0  0  0  0  0  0  0  0  0  0  0  0  # atno 17395 bound_to 11000

$$$$
