AV-unprocessed.smi:2448|AV-procd|sdf|9661|dock3
  -GOLD-   2272013303D 1   1.00000     0.00000
 Structure written by MMmdl.
 38 39  0  0  0  0  0  0  0  0  2 V2000
  150.1224  142.7088  159.3252 O   0  0  0  0  0  0  0  0  0  0  0  0
  151.4154  142.7241  158.7466 C   0  0  1  0  0  0  0  0  0  0  0  0
  151.3170  142.0588  157.3587 C   0  0  0  0  0  0  0  0  0  0  0  0
  150.8524  140.6728  157.4455 N   0  0  0  0  0  0  0  0  0  0  0  0
  150.2602  140.1034  156.2258 C   0  0  1  0  0  0  0  0  0  0  0  0
  149.8641  141.1850  155.1862 C   0  0  0  0  0  0  0  0  0  0  0  0
  148.4676  141.0467  154.6012 C   0  0  0  0  0  0  0  0  0  0  0  0
  148.0408  139.8176  154.0487 C   0  0  0  0  0  0  0  0  0  0  0  0
  146.7393  139.7155  153.5165 C   0  0  0  0  0  0  0  0  0  0  0  0
  145.9144  140.7849  153.5465 N   0  3  0  0  0  0  0  0  0  0  0  0
  146.2780  141.9746  154.0734 C   0  0  0  0  0  0  0  0  0  0  0  0
  147.5681  142.1363  154.6188 C   0  0  0  0  0  0  0  0  0  0  0  0
  151.2385  139.0796  155.6114 C   0  0  0  0  0  0  0  0  0  0  0  0
  151.5400  138.1441  156.5126 F   0  0  0  0  0  0  0  0  0  0  0  0
  150.6782  138.4774  154.5624 F   0  0  0  0  0  0  0  0  0  0  0  0
  152.3635  139.6785  155.2186 F   0  0  0  0  0  0  0  0  0  0  0  0
  151.9609  144.1637  158.7234 C   0  0  0  0  0  0  0  0  0  0  0  0
  152.3241  144.5504  160.1606 C   0  0  0  0  0  0  0  0  0  0  0  0
  152.9094  143.0575  161.0001 S   0  0  0  0  0  0  0  0  0  0  0  0
  152.3536  141.9427  159.6828 C   0  0  0  0  0  0  0  0  0  0  0  0
  150.2142  142.5837  160.2575 H   0  0  0  0  0  0  0  0  0  0  0  0
  150.6230  142.6289  156.7400 H   0  0  0  0  0  0  0  0  0  0  0  0
  152.2876  142.1183  156.8717 H   0  0  0  0  0  0  0  0  0  0  0  0
  150.1875  140.5893  158.2086 H   0  0  0  0  0  0  0  0  0  0  0  0
  149.3702  139.5354  156.4985 H   0  0  0  0  0  0  0  0  0  0  0  0
  149.9905  142.1785  155.6191 H   0  0  0  0  0  0  0  0  0  0  0  0
  150.5492  141.1473  154.3393 H   0  0  0  0  0  0  0  0  0  0  0  0
  148.7029  138.9640  154.0250 H   0  0  0  0  0  0  0  0  0  0  0  0
  146.3363  138.8172  153.0719 H   0  0  0  0  0  0  0  0  0  0  0  0
  145.5312  142.7547  154.0445 H   0  0  0  0  0  0  0  0  0  0  0  0
  147.8598  143.0852  155.0450 H   0  0  0  0  0  0  0  0  0  0  0  0
  152.8628  144.1974  158.1105 H   0  0  0  0  0  0  0  0  0  0  0  0
  151.2548  144.8723  158.2888 H   0  0  0  0  0  0  0  0  0  0  0  0
  153.0744  145.3405  160.1960 H   0  0  0  0  0  0  0  0  0  0  0  0
  151.4389  144.9097  160.6866 H   0  0  0  0  0  0  0  0  0  0  0  0
  151.8895  141.0458  160.0955 H   0  0  0  0  0  0  0  0  0  0  0  0
  153.2445  141.6238  159.1408 H   0  0  0  0  0  0  0  0  0  0  0  0
  144.9760  140.6891  153.1571 H   0  0  0  0  0  0  0  0  0  0  0  0
  1  2  1  0  0  0  0
  1 21  1  0  0  0  0
  2 20  1  0  0  0  0
  2  3  1  0  0  0  0
  2 17  1  0  0  0  0
  3  4  1  0  0  0  0
  3 22  1  0  0  0  0
  3 23  1  0  0  0  0
  4  5  1  0  0  0  0
  4 24  1  0  0  0  0
  5  6  1  0  0  0  0
  5 13  1  0  0  0  0
  5 25  1  0  0  0  0
  6  7  1  0  0  0  0
  6 26  1  0  0  0  0
  6 27  1  0  0  0  0
  7 12  1  0  0  0  0
  7  8  2  0  0  0  0
  8  9  1  0  0  0  0
  8 28  1  0  0  0  0
  9 10  2  0  0  0  0
  9 29  1  0  0  0  0
 10 11  1  0  0  0  0
 10 38  1  0  0  0  0
 11 12  2  0  0  0  0
 11 30  1  0  0  0  0
 12 31  1  0  0  0  0
 13 14  1  0  0  0  0
 13 15  1  0  0  0  0
 13 16  1  0  0  0  0
 17 18  1  0  0  0  0
 17 32  1  0  0  0  0
 17 33  1  0  0  0  0
 18 19  1  0  0  0  0
 18 34  1  0  0  0  0
 18 35  1  0  0  0  0
 19 20  1  0  0  0  0
 20 36  1  0  0  0  0
 20 37  1  0  0  0  0
M  CHG  1  10   1
M  END
> <s_m_source_file>
AV-unprocessed.smi

> <i_m_source_file_index>
2448

> <i_lp_mmshare_version>
43012

> <i_f3d_flags>
0

> <s_epik_input>
W0NIMl0xU1tDSDJdW0NIMl1bQ0BAXTEoW09IXSlbQ0gyXVtOSF1bQ0BASF0oQyhGKShGKUYpW0NIMl1jMltjSF1bY0hdbltjSF1bY0hdMg==

> <s_epik_cmdline>
J2VwaWtfcHl0aG9uJywgJy1waCcsICc3LjAnLCAnLXRuJywgJzgnLCAnLW1hJywgJzIwMCcsICctbWV0YWxfYmluZGluZycsICctaW1hZScsICc8aW5maWxlLm1hZT4nLCAnLW9tYWUnLCAnPG91dGZpbGUubWFlPic=

> <r_epik_Ionization_Penalty>
1.11129

> <r_epik_Ionization_Penalty_Charging>
1.08366

> <r_epik_Ionization_Penalty_Neutral>
0.0276276

> <r_epik_State_Penalty>
1.93785

> <r_epik_Charging_Adjusted_Penalty>
3.02151

> <i_epik_Tot_Q>
1

> <i_epik_Tot_abs_Q>
1

> <r_epik_Metal_State_Penalty>
5.97911

> <b_epik_Metal_Only>
0

> <s_lp_Force_Field>
OPLS_2005

> <r_lp_Energy>
38.4548

> <b_lp_Chiralities_Consistent>
1

> <s_lp_Variant>
AV-unprocessed.smi:2448-11

> <Gold.Version>
5.8.1

> <Gold.Id.Protein>
6NUR|6NUR_protein|mol2

> <Gold.PLP.Fitness>
47.3064

> <Gold.PLP.PLP>
-43.7499

> <Gold.PLP.part.hbond>
-2.0000

> <Gold.PLP.part.metal>
0.0000

> <Gold.PLP.part.buried>
-0.4472

> <Gold.PLP.part.nonpolar>
-40.5856

> <Gold.PLP.part.repulsive>
0.0058

> <Gold.PLP.ligand.clash>
0.0000

> <Gold.PLP.ligand.torsion>
1.4871

> <Gold.PLP.Chemscore.Hbond>
2.0000

> <Gold.PLP.Chemscore.CHOScore>
0.0000

> <Gold.PLP.Chemscore.Metal>
0.0000

> <Gold.Chemscore.Hbonds>
donor molecule, donor type, donor heavy atom, donor atom, acceptor molecule, acceptor atom, score
      L1  H    10    38       P1 10175  1.69

> <Gold.PLP.Chemscore.Internal.Correction>
0.5308

> <Gold.Rescore>
     Score         DG    S(hbond)    S(metal)    S(lipo)     H(rot)  DE(clash)    DE(int)     intcor
     13.56     -16.21       0.99        0.00     116.49       2.42       1.10       1.56       ----

> <Gold.Chemscore.Fitness>
13.5565

> <Gold.Chemscore.DG>
-16.2094

> <Gold.Chemscore.ZeroCoef>
-5.4800

> <Gold.Chemscore.Hbond>
0.9901

> <Gold.Chemscore.Metal>
0.0000

> <Gold.Chemscore.Lipo>
116.4940

> <Gold.Chemscore.Internal_Hbond>
0.0000

> <Gold.Chemscore.DEClash>
1.0960

> <Gold.Chemscore.DEInternal>
1.5569

> <Gold.Chemscore.Rot>
2.4247

> <Gold.Chemscore.Internal.Correction>
   9.000000E+99

> <Gold.Chemscore.Hbonds>
donor molecule, donor type, donor heavy atom, donor atom, acceptor molecule, acceptor atom, score
      L1  H    10    38       P1 10175  0.72

> <Gold.Chemscore.Hbond.Weighted>
-3.3068

> <Gold.Chemscore.Metal.Weighted>
-0.0000

> <Gold.Chemscore.Lipo.Weighted>
-13.6298

> <Gold.Chemscore.Internal_Hbond.Weighted>
0.0000

> <Gold.Chemscore.DEClash.Weighted>
1.0960

> <Gold.Chemscore.DEInternal.Weighted>
1.5569

> <Gold.Chemscore.Rot.Weighted>
6.2072

> <Gold.Chemscore.Internal.Correction.Weighted>
   9.000000E+99

> <Gold.Protein.RotatedTorsions>
[ 6907 6896 6895 6894 ] final -118.29 input  -60.11 | X-H torsion
[ 7974 7965 7964 7962 ] final   80.34 input  175.53 | X-H torsion
[ 8008 7997 7996 7995 ] final  152.08 input   59.86 | X-H torsion
[ 10167 10162 10161 10158 ] final   81.71 input  -65.29 | X-H torsion
[ 10718 10713 10712 10709 ] final   48.26 input   66.30 | X-H torsion
[ 10763 10752 10751 10750 ] final   53.57 input  -60.55 | X-H torsion
[ 11005 11000 10999 10996 ] final  -17.49 input  -57.11 | X-H torsion

> <Gold.Protein.ActiveResidues>
 VAL166  LYS551  ARG553  GLY616  TRP617  ASP618  TYR619  PRO620  LYS621  CYS622 
 ASP623  PHE694  ASN695  SER759  ASP760  ASP761  ALA762  ILE779  LEU786  VAL792 
 PHE793  MET794  SER795  GLU796  ALA797  LYS798  CYS799  TRP800  GLU811  SER814 

> <Gold.Protein.RotatedAtoms>
  150.8207  133.8257  159.3139 H   0  0  0  0  0  0  0  0  0  0  0  0  # atno 6907 bound_to 6896
  151.6016  135.1045  160.0071 H   0  0  0  0  0  0  0  0  0  0  0  0  # atno 6908 bound_to 6896
  152.4296  133.7214  159.6592 H   0  0  0  0  0  0  0  0  0  0  0  0  # atno 6909 bound_to 6896
  145.6524  139.2451  143.1969 H   0  0  0  0  0  0  0  0  0  0  0  0  # atno 7974 bound_to 7965
  156.2645  140.2030  156.6276 H   0  0  0  0  0  0  0  0  0  0  0  0  # atno 8008 bound_to 7997
  154.6708  140.0550  157.0187 H   0  0  0  0  0  0  0  0  0  0  0  0  # atno 8009 bound_to 7997
  155.1140  140.3218  155.4517 H   0  0  0  0  0  0  0  0  0  0  0  0  # atno 8010 bound_to 7997
  139.9364  144.6118  150.8294 H   0  0  0  0  0  0  0  0  0  0  0  0  # atno 10167 bound_to 10162
  157.4669  130.8231  149.7946 H   0  0  0  0  0  0  0  0  0  0  0  0  # atno 10718 bound_to 10713
  152.9796  135.5774  154.4764 H   0  0  0  0  0  0  0  0  0  0  0  0  # atno 10763 bound_to 10752
  154.4319  135.2774  155.1908 H   0  0  0  0  0  0  0  0  0  0  0  0  # atno 10764 bound_to 10752
  154.3613  135.6188  153.5746 H   0  0  0  0  0  0  0  0  0  0  0  0  # atno 10765 bound_to 10752
  140.8174  133.8094  155.9624 H   0  0  0  0  0  0  0  0  0  0  0  0  # atno 11005 bound_to 11000
  146.1193  140.7330  142.9465 LP  0  0  0  0  0  0  0  0  0  0  0  0  # atno 17320 bound_to 7965
  144.7118  140.4065  143.7075 LP  0  0  0  0  0  0  0  0  0  0  0  0  # atno 17321 bound_to 7965
  140.7623  143.3195  151.2654 LP  0  0  0  0  0  0  0  0  0  0  0  0  # atno 17342 bound_to 10162
  139.6740  143.9970  152.2770 LP  0  0  0  0  0  0  0  0  0  0  0  0  # atno 17343 bound_to 10162
  156.0055  130.3858  150.2449 LP  0  0  0  0  0  0  0  0  0  0  0  0  # atno 17370 bound_to 10713
  157.0629  131.0095  151.3216 LP  0  0  0  0  0  0  0  0  0  0  0  0  # atno 17371 bound_to 10713
  140.9135  134.2231  157.4971 LP  0  0  0  0  0  0  0  0  0  0  0  0  # atno 17394 bound_to 11000
  139.8710  134.9761  156.4907 LP  0  0  0  0  0  0  0  0  0  0  0  0  # atno 17395 bound_to 11000

$$$$
