AV-unprocessed.smi:34|AV-procd|sdf|239|dock5
  -GOLD-   2262015583D 1   1.00000     0.00000
 Structure written by MMmdl.
 54 58  0  0  0  0  0  0  0  0  2 V2000
  154.4942  140.1914  159.1964 O   0  0  0  0  0  0  0  0  0  0  0  0
  153.3241  140.5490  159.3479 C   0  0  0  0  0  0  0  0  0  0  0  0
  152.2213  140.0840  158.7080 N   0  5  0  0  0  0  0  0  0  0  0  0
  152.3341  139.0712  157.8353 C   0  0  0  0  0  0  0  0  0  0  0  0
  153.5419  138.7581  157.2999 N   0  0  0  0  0  0  0  0  0  0  0  0
  153.6554  137.7474  156.4299 C   0  0  0  0  0  0  0  0  0  0  0  0
  152.7060  136.9317  155.9599 N   0  0  0  0  0  0  0  0  0  0  0  0
  151.4858  137.2457  156.4835 C   0  0  0  0  0  0  0  0  0  0  0  0
  151.2218  138.2922  157.4130 C   0  0  0  0  0  0  0  0  0  0  0  0
  149.8728  138.3342  157.7328 N   0  0  0  0  0  0  0  0  0  0  0  0
  149.3910  137.3300  157.0025 C   0  0  0  0  0  0  0  0  0  0  0  0
  150.2683  136.6326  156.2493 N   0  0  0  0  0  0  0  0  0  0  0  0
  150.0284  135.4689  155.3328 C   0  0  2  0  0  0  0  0  0  0  0  0
  148.6579  135.2023  155.3006 O   0  0  0  0  0  0  0  0  0  0  0  0
  148.3754  134.1255  156.1846 C   0  0  1  0  0  0  0  0  0  0  0  0
  147.0081  133.5048  155.8787 C   0  0  0  0  0  0  0  0  0  0  0  0
  146.9812  133.1186  154.5146 O   0  0  0  0  0  0  0  0  0  0  0  0
  146.5667  133.9871  153.5732 C   0  0  0  0  0  0  0  0  0  0  0  0
  146.6983  135.2091  153.6666 O   0  0  0  0  0  0  0  0  0  0  0  0
  145.9318  133.3132  152.4037 C   0  0  0  0  0  0  0  0  0  0  0  0
  145.7683  131.9083  152.4180 C   0  0  0  0  0  0  0  0  0  0  0  0
  145.1730  131.2441  151.3280 C   0  0  0  0  0  0  0  0  0  0  0  0
  144.7340  131.9768  150.2099 C   0  0  0  0  0  0  0  0  0  0  0  0
  144.8910  133.3747  150.1833 C   0  0  0  0  0  0  0  0  0  0  0  0
  145.4862  134.0409  151.2724 C   0  0  0  0  0  0  0  0  0  0  0  0
  149.5667  133.1986  155.9508 C   0  0  1  0  0  0  0  0  0  0  0  0
  149.4180  132.5252  154.8079 F   0  0  0  0  0  0  0  0  0  0  0  0
  150.7286  134.1734  155.8168 C   0  0  2  0  0  0  0  0  0  0  0  0
  151.4093  134.2886  157.0543 O   0  0  0  0  0  0  0  0  0  0  0  0
  153.0288  141.6791  160.2971 C   0  0  0  0  0  0  0  0  0  0  0  0
  152.3337  142.8192  159.8331 C   0  0  0  0  0  0  0  0  0  0  0  0
  152.0697  143.8987  160.6985 C   0  0  0  0  0  0  0  0  0  0  0  0
  152.5069  143.8538  162.0356 C   0  0  0  0  0  0  0  0  0  0  0  0
  153.2118  142.7299  162.5054 C   0  0  0  0  0  0  0  0  0  0  0  0
  153.4760  141.6498  161.6406 C   0  0  0  0  0  0  0  0  0  0  0  0
  154.6524  137.5652  156.0572 H   0  0  0  0  0  0  0  0  0  0  0  0
  148.3375  137.0935  157.0194 H   0  0  0  0  0  0  0  0  0  0  0  0
  150.3712  135.8167  154.3576 H   0  0  0  0  0  0  0  0  0  0  0  0
  148.4005  134.4795  157.2167 H   0  0  0  0  0  0  0  0  0  0  0  0
  146.8192  132.6477  156.5267 H   0  0  0  0  0  0  0  0  0  0  0  0
  146.2186  134.2363  156.0566 H   0  0  0  0  0  0  0  0  0  0  0  0
  146.0973  131.3243  153.2656 H   0  0  0  0  0  0  0  0  0  0  0  0
  145.0535  130.1711  151.3506 H   0  0  0  0  0  0  0  0  0  0  0  0
  144.2776  131.4674  149.3740 H   0  0  0  0  0  0  0  0  0  0  0  0
  144.5541  133.9385  149.3258 H   0  0  0  0  0  0  0  0  0  0  0  0
  145.5923  135.1146  151.2182 H   0  0  0  0  0  0  0  0  0  0  0  0
  149.6988  132.4604  156.7429 H   0  0  0  0  0  0  0  0  0  0  0  0
  151.4413  133.8419  155.0608 H   0  0  0  0  0  0  0  0  0  0  0  0
  152.3274  134.1159  156.9081 H   0  0  0  0  0  0  0  0  0  0  0  0
  151.9928  142.8694  158.8091 H   0  0  0  0  0  0  0  0  0  0  0  0
  151.5327  144.7621  160.3346 H   0  0  0  0  0  0  0  0  0  0  0  0
  152.3055  144.6819  162.6987 H   0  0  0  0  0  0  0  0  0  0  0  0
  153.5539  142.6967  163.5291 H   0  0  0  0  0  0  0  0  0  0  0  0
  154.0286  140.8011  162.0176 H   0  0  0  0  0  0  0  0  0  0  0  0
  1  2  2  0  0  0  0
  2  3  1  0  0  0  0
  2 30  1  0  0  0  0
  3  4  1  0  0  0  0
  4  9  1  0  0  0  0
  4  5  2  0  0  0  0
  5  6  1  0  0  0  0
  6  7  2  0  0  0  0
  6 36  1  0  0  0  0
  7  8  1  0  0  0  0
  8 12  1  0  0  0  0
  8  9  2  0  0  0  0
  9 10  1  0  0  0  0
 10 11  2  0  0  0  0
 11 12  1  0  0  0  0
 11 37  1  0  0  0  0
 12 13  1  0  0  0  0
 13 28  1  0  0  0  0
 13 14  1  0  0  0  0
 13 38  1  0  0  0  0
 14 15  1  0  0  0  0
 15 16  1  0  0  0  0
 15 26  1  0  0  0  0
 15 39  1  0  0  0  0
 16 17  1  0  0  0  0
 16 40  1  0  0  0  0
 16 41  1  0  0  0  0
 17 18  1  0  0  0  0
 18 19  2  0  0  0  0
 18 20  1  0  0  0  0
 20 25  1  0  0  0  0
 20 21  2  0  0  0  0
 21 22  1  0  0  0  0
 21 42  1  0  0  0  0
 22 23  2  0  0  0  0
 22 43  1  0  0  0  0
 23 24  1  0  0  0  0
 23 44  1  0  0  0  0
 24 25  2  0  0  0  0
 24 45  1  0  0  0  0
 25 46  1  0  0  0  0
 26 27  1  0  0  0  0
 26 28  1  0  0  0  0
 26 47  1  0  0  0  0
 28 29  1  0  0  0  0
 28 48  1  0  0  0  0
 29 49  1  0  0  0  0
 30 35  1  0  0  0  0
 30 31  2  0  0  0  0
 31 32  1  0  0  0  0
 31 50  1  0  0  0  0
 32 33  2  0  0  0  0
 32 51  1  0  0  0  0
 33 34  1  0  0  0  0
 33 52  1  0  0  0  0
 34 35  2  0  0  0  0
 34 53  1  0  0  0  0
 35 54  1  0  0  0  0
M  CHG  1   3  -1
M  END
> <s_m_source_file>
AV-unprocessed.smi

> <i_m_source_file_index>
34

> <i_lp_mmshare_version>
43012

> <i_f3d_flags>
0

> <s_epik_input>
W2NIXTFbY0hdW2NIXVtjSF1bY0hdYzFDKD1PKVtOSF1jKG5bY0hdbjIpYyhjMjMpbltjSF1uM1tDQEBIXTRPW0NASF0oW0NAQEhdKEYpW0NASF00W09IXSlbQ0gyXU9DKD1PKWM1W2NIXVtjSF1bY0hdW2NIXVtjSF01

> <s_epik_cmdline>
J2VwaWtfcHl0aG9uJywgJy1waCcsICc3LjAnLCAnLXRuJywgJzgnLCAnLW1hJywgJzIwMCcsICctbWV0YWxfYmluZGluZycsICctaW1hZScsICc8aW5maWxlLm1hZT4nLCAnLW9tYWUnLCAnPG91dGZpbGUubWFlPic=

> <r_lp_tautomer_probability>
1

> <r_epik_Ionization_Penalty>
4.33227

> <r_epik_Ionization_Penalty_Charging>
3.41027

> <r_epik_Ionization_Penalty_Neutral>
0.922001

> <r_epik_State_Penalty>
3.41358

> <r_epik_Charging_Adjusted_Penalty>
6.82385

> <i_epik_Tot_Q>
-1

> <i_epik_Tot_abs_Q>
1

> <r_epik_Metal_State_Penalty>
0.496292

> <b_epik_Metal_Only>
1

> <s_epik_Chemistry_Notes>
This compound has an ester and may undergo hydrolysis at high or low pH. This compound contains an acetal/aminal-like group ( X-CH(R)-Y where X, Y are N, S, or O) that may be acid/base labile, releasing an aldehyde.

> <s_lp_Force_Field>
OPLS_2005

> <r_lp_Energy>
47.457

> <b_lp_Chiralities_Consistent>
1

> <s_lp_Variant>
AV-unprocessed.smi:34-25

> <Gold.Version>
5.8.1

> <Gold.Id.Protein>
6NUR|6NUR_protein|mol2

> <Gold.PLP.Fitness>
58.2970

> <Gold.PLP.PLP>
-54.8526

> <Gold.PLP.part.hbond>
-4.0000

> <Gold.PLP.part.metal>
0.0000

> <Gold.PLP.part.buried>
-7.2313

> <Gold.PLP.part.nonpolar>
-43.0901

> <Gold.PLP.part.repulsive>
0.6071

> <Gold.PLP.ligand.clash>
0.0000

> <Gold.PLP.ligand.torsion>
1.6597

> <Gold.PLP.Chemscore.Hbond>
1.9691

> <Gold.PLP.Chemscore.CHOScore>
0.0000

> <Gold.PLP.Chemscore.Metal>
0.0000

> <Gold.Chemscore.Hbonds>
donor molecule, donor type, donor heavy atom, donor atom, acceptor molecule, acceptor atom, score
      P1  H  6896  6907       L1    29  0.10
      P1  H  7997  8010       L1     5  1.00
      P1  H 10752 10764       L1     7  0.78

> <Gold.PLP.Chemscore.Internal.Correction>
0.8564

> <Gold.Rescore>
     Score         DG    S(hbond)    S(metal)    S(lipo)     H(rot)  DE(clash)    DE(int)     intcor
     10.07     -19.57       1.67        0.00     131.73       2.69       0.68       8.82       ----

> <Gold.Chemscore.Fitness>
10.0690

> <Gold.Chemscore.DG>
-19.5715

> <Gold.Chemscore.ZeroCoef>
-5.4800

> <Gold.Chemscore.Hbond>
1.6695

> <Gold.Chemscore.Metal>
0.0000

> <Gold.Chemscore.Lipo>
131.7338

> <Gold.Chemscore.Internal_Hbond>
0.0000

> <Gold.Chemscore.DEClash>
0.6823

> <Gold.Chemscore.DEInternal>
8.8203

> <Gold.Chemscore.Rot>
2.6944

> <Gold.Chemscore.Internal.Correction>
   9.000000E+99

> <Gold.Chemscore.Hbonds>
donor molecule, donor type, donor heavy atom, donor atom, acceptor molecule, acceptor atom, score
      P1  H  6896  6907       L1    29  0.04
      P1  H  7997  8010       L1     5  0.71
      P1  H 10752 10764       L1     7  0.74

> <Gold.Chemscore.Hbond.Weighted>
-5.5762

> <Gold.Chemscore.Metal.Weighted>
-0.0000

> <Gold.Chemscore.Lipo.Weighted>
-15.4129

> <Gold.Chemscore.Internal_Hbond.Weighted>
0.0000

> <Gold.Chemscore.DEClash.Weighted>
0.6823

> <Gold.Chemscore.DEInternal.Weighted>
8.8203

> <Gold.Chemscore.Rot.Weighted>
6.8975

> <Gold.Chemscore.Internal.Correction.Weighted>
   9.000000E+99

> <Gold.Protein.RotatedTorsions>
[ 6907 6896 6895 6894 ] final -140.79 input  -60.11 | X-H torsion
[ 7974 7965 7964 7962 ] final   47.11 input  175.53 | X-H torsion
[ 8008 7997 7996 7995 ] final   46.15 input   59.86 | X-H torsion
[ 10167 10162 10161 10158 ] final  -27.12 input  -65.29 | X-H torsion
[ 10718 10713 10712 10709 ] final  -16.83 input   66.30 | X-H torsion
[ 10763 10752 10751 10750 ] final  -25.78 input  -60.55 | X-H torsion
[ 11005 11000 10999 10996 ] final  -74.63 input  -57.11 | X-H torsion

> <Gold.Protein.ActiveResidues>
 VAL166  LYS551  ARG553  GLY616  TRP617  ASP618  TYR619  PRO620  LYS621  CYS622 
 ASP623  PHE694  ASN695  SER759  ASP760  ASP761  ALA762  ILE779  LEU786  VAL792 
 PHE793  MET794  SER795  GLU796  ALA797  LYS798  CYS799  TRP800  GLU811  SER814 

> <Gold.Protein.RotatedAtoms>
  151.0653  133.5510  159.2630 H   0  0  0  0  0  0  0  0  0  0  0  0  # atno 6907 bound_to 6896
  151.2470  135.0608  159.9057 H   0  0  0  0  0  0  0  0  0  0  0  0  # atno 6908 bound_to 6896
  152.5404  134.0419  159.8125 H   0  0  0  0  0  0  0  0  0  0  0  0  # atno 6909 bound_to 6896
  146.0328  139.4784  142.9827 H   0  0  0  0  0  0  0  0  0  0  0  0  # atno 7974 bound_to 7965
  155.3477  140.3411  155.4239 H   0  0  0  0  0  0  0  0  0  0  0  0  # atno 8008 bound_to 7997
  156.1780  140.1654  156.8362 H   0  0  0  0  0  0  0  0  0  0  0  0  # atno 8009 bound_to 7997
  154.5303  140.0747  156.8315 H   0  0  0  0  0  0  0  0  0  0  0  0  # atno 8010 bound_to 7997
  140.7279  143.4120  151.1090 H   0  0  0  0  0  0  0  0  0  0  0  0  # atno 10167 bound_to 10162
  156.5821  130.4777  149.6316 H   0  0  0  0  0  0  0  0  0  0  0  0  # atno 10718 bound_to 10713
  153.7053  135.6954  153.5052 H   0  0  0  0  0  0  0  0  0  0  0  0  # atno 10763 bound_to 10752
  153.2312  135.4337  155.0596 H   0  0  0  0  0  0  0  0  0  0  0  0  # atno 10764 bound_to 10752
  154.8331  135.3484  154.6592 H   0  0  0  0  0  0  0  0  0  0  0  0  # atno 10765 bound_to 10752
  141.1637  133.6918  156.7394 H   0  0  0  0  0  0  0  0  0  0  0  0  # atno 11005 bound_to 11000
  145.7013  141.0135  143.1503 LP  0  0  0  0  0  0  0  0  0  0  0  0  # atno 17320 bound_to 7965
  144.7038  139.8647  143.7436 LP  0  0  0  0  0  0  0  0  0  0  0  0  # atno 17321 bound_to 7965
  139.7755  143.8432  152.3128 LP  0  0  0  0  0  0  0  0  0  0  0  0  # atno 17342 bound_to 10162
  139.8365  144.7230  150.9385 LP  0  0  0  0  0  0  0  0  0  0  0  0  # atno 17343 bound_to 10162
  156.2622  130.6969  151.1741 LP  0  0  0  0  0  0  0  0  0  0  0  0  # atno 17370 bound_to 10713
  157.7324  131.0600  150.5630 LP  0  0  0  0  0  0  0  0  0  0  0  0  # atno 17371 bound_to 10713
  140.2685  134.8410  157.3825 LP  0  0  0  0  0  0  0  0  0  0  0  0  # atno 17394 bound_to 11000
  140.1543  134.4809  155.7939 LP  0  0  0  0  0  0  0  0  0  0  0  0  # atno 17395 bound_to 11000

$$$$
