AV-unprocessed.smi:1230|AV-procd|sdf|5159|dock6
  -GOLD-   22720 4233D 1   1.00000     0.00000
 Structure written by MMmdl.
 39 40  0  0  0  0  0  0  0  0  1 V2000
  153.3109  140.7732  159.8826 C   0  0  0  0  0  0  0  0  0  0  0  0
  152.4686  141.9477  160.4071 C   0  0  1  0  0  0  0  0  0  0  0  0
  153.2809  142.7939  161.4080 C   0  0  0  0  0  0  0  0  0  0  0  0
  152.4672  143.9814  161.9442 C   0  0  0  0  0  0  0  0  0  0  0  0
  151.9480  144.8563  160.7951 C   0  0  0  0  0  0  0  0  0  0  0  0
  151.1268  144.0260  159.7978 C   0  0  0  0  0  0  0  0  0  0  0  0
  151.9344  142.8279  159.2542 C   0  0  2  0  0  0  0  0  0  0  0  0
  151.0938  142.0186  158.4405 O   0  0  0  0  0  0  0  0  0  0  0  0
  151.0143  142.4318  157.0851 C   0  0  0  0  0  0  0  0  0  0  0  0
  150.1197  141.4400  156.3265 C   0  0  0  0  0  0  0  0  0  0  0  0
  150.6700  140.1083  156.2849 N   0  0  0  0  0  0  0  0  0  0  0  0
  151.1470  139.4656  157.4172 C   0  0  0  0  0  0  0  0  0  0  0  0
  151.6824  138.2223  157.3833 C   0  0  0  0  0  0  0  0  0  0  0  0
  152.1708  137.5751  158.5560 C   0  0  0  0  0  0  0  0  0  0  0  0
  152.5876  137.0657  159.5079 N   0  0  0  0  0  0  0  0  0  0  0  0
  151.7860  137.4873  156.1238 C   0  0  0  0  0  0  0  0  0  0  0  0
  152.2517  136.3574  155.9890 O   0  0  0  0  0  0  0  0  0  0  0  0
  151.2996  138.1805  155.0106 N   0  0  0  0  0  0  0  0  0  0  0  0
  150.7477  139.4632  155.0280 C   0  0  0  0  0  0  0  0  0  0  0  0
  150.3607  139.9787  153.9791 O   0  0  0  0  0  0  0  0  0  0  0  0
  151.3552  137.7148  154.1163 H   0  0  0  0  0  0  0  0  0  0  0  0
  154.1772  141.1259  159.3221 H   0  0  0  0  0  0  0  0  0  0  0  0
  152.7287  140.1291  159.2234 H   0  0  0  0  0  0  0  0  0  0  0  0
  153.6752  140.1544  160.7032 H   0  0  0  0  0  0  0  0  0  0  0  0
  151.6126  141.5306  160.9398 H   0  0  0  0  0  0  0  0  0  0  0  0
  153.6079  142.1724  162.2423 H   0  0  0  0  0  0  0  0  0  0  0  0
  154.1871  143.1647  160.9268 H   0  0  0  0  0  0  0  0  0  0  0  0
  151.6269  143.6134  162.5343 H   0  0  0  0  0  0  0  0  0  0  0  0
  153.0815  144.5788  162.6183 H   0  0  0  0  0  0  0  0  0  0  0  0
  151.3393  145.6690  161.1925 H   0  0  0  0  0  0  0  0  0  0  0  0
  152.7886  145.3222  160.2795 H   0  0  0  0  0  0  0  0  0  0  0  0
  150.2217  143.6639  160.2873 H   0  0  0  0  0  0  0  0  0  0  0  0
  150.7981  144.6699  158.9826 H   0  0  0  0  0  0  0  0  0  0  0  0
  152.7859  143.1916  158.6756 H   0  0  0  0  0  0  0  0  0  0  0  0
  150.6096  143.4411  157.0144 H   0  0  0  0  0  0  0  0  0  0  0  0
  152.0118  142.4452  156.6431 H   0  0  0  0  0  0  0  0  0  0  0  0
  149.1457  141.3527  156.8103 H   0  0  0  0  0  0  0  0  0  0  0  0
  149.9241  141.7525  155.2983 H   0  0  0  0  0  0  0  0  0  0  0  0
  151.0946  139.9746  158.3694 H   0  0  0  0  0  0  0  0  0  0  0  0
  1  2  1  0  0  0  0
  1 22  1  0  0  0  0
  1 23  1  0  0  0  0
  1 24  1  0  0  0  0
  2  7  1  0  0  0  0
  2  3  1  0  0  0  0
  2 25  1  0  0  0  0
  3  4  1  0  0  0  0
  3 26  1  0  0  0  0
  3 27  1  0  0  0  0
  4  5  1  0  0  0  0
  4 28  1  0  0  0  0
  4 29  1  0  0  0  0
  5  6  1  0  0  0  0
  5 30  1  0  0  0  0
  5 31  1  0  0  0  0
  6  7  1  0  0  0  0
  6 32  1  0  0  0  0
  6 33  1  0  0  0  0
  7  8  1  0  0  0  0
  7 34  1  0  0  0  0
  8  9  1  0  0  0  0
  9 10  1  0  0  0  0
  9 35  1  0  0  0  0
  9 36  1  0  0  0  0
 10 11  1  0  0  0  0
 10 37  1  0  0  0  0
 10 38  1  0  0  0  0
 11 19  1  0  0  0  0
 11 12  1  0  0  0  0
 12 13  2  0  0  0  0
 12 39  1  0  0  0  0
 13 14  1  0  0  0  0
 13 16  1  0  0  0  0
 14 15  3  0  0  0  0
 16 17  2  0  0  0  0
 16 18  1  0  0  0  0
 18 21  1  0  0  0  0
 18 19  1  0  0  0  0
 19 20  2  0  0  0  0
M  END
> <s_m_source_file>
AV-unprocessed.smi

> <i_m_source_file_index>
1230

> <i_lp_mmshare_version>
43012

> <i_f3d_flags>
0

> <s_epik_input>
W0NIM11bQ0BASF0xW0NIMl1bQ0gyXVtDSDJdW0NIMl1bQ0BIXTFPW0NIMl1bQ0gyXW4yW2NIXWMoQyNOKWMoPU8pW25IXWMyPU8=

> <s_epik_cmdline>
J2VwaWtfcHl0aG9uJywgJy1waCcsICc3LjAnLCAnLXRuJywgJzgnLCAnLW1hJywgJzIwMCcsICctbWV0YWxfYmluZGluZycsICctaW1hZScsICc8aW5maWxlLm1hZT4nLCAnLW9tYWUnLCAnPG91dGZpbGUubWFlPic=

> <r_epik_Ionization_Penalty>
0.421541

> <r_epik_Ionization_Penalty_Charging>
0.421541

> <r_epik_Ionization_Penalty_Neutral>
2.29267e-11

> <r_epik_State_Penalty>
0.422277

> <r_epik_Charging_Adjusted_Penalty>
0.843818

> <i_epik_Tot_Q>
0

> <i_epik_Tot_abs_Q>
0

> <r_epik_Metal_State_Penalty>
4.11629

> <b_epik_Metal_Only>
0

> <s_lp_Force_Field>
OPLS_2005

> <r_lp_Energy>
13.3669

> <b_lp_Chiralities_Consistent>
1

> <s_lp_Variant>
AV-unprocessed.smi:1230-8

> <Gold.Version>
5.8.1

> <Gold.Id.Protein>
6NUR|6NUR_protein|mol2

> <Gold.PLP.Fitness>
45.7066

> <Gold.PLP.PLP>
-37.5343

> <Gold.PLP.part.hbond>
-3.0000

> <Gold.PLP.part.metal>
0.0000

> <Gold.PLP.part.buried>
-6.7490

> <Gold.PLP.part.nonpolar>
-28.7082

> <Gold.PLP.part.repulsive>
1.3735

> <Gold.PLP.ligand.clash>
0.0000

> <Gold.PLP.ligand.torsion>
0.4172

> <Gold.PLP.Chemscore.Hbond>
3.0000

> <Gold.PLP.Chemscore.CHOScore>
0.0000

> <Gold.PLP.Chemscore.Metal>
0.0000

> <Gold.Chemscore.Hbonds>
donor molecule, donor type, donor heavy atom, donor atom, acceptor molecule, acceptor atom, score
      P1  H  6896  6907       L1    15  0.70
      P1  H  7989  7998       L1    20  1.00
      P1  H 10752 10763       L1    17  1.00

> <Gold.PLP.Chemscore.Internal.Correction>
0.0067

> <Gold.Rescore>
     Score         DG    S(hbond)    S(metal)    S(lipo)     H(rot)  DE(clash)    DE(int)     intcor
     20.04     -21.70       2.93        0.00      97.47       1.94       0.01       1.65       ----

> <Gold.Chemscore.Fitness>
20.0409

> <Gold.Chemscore.DG>
-21.7001

> <Gold.Chemscore.ZeroCoef>
-5.4800

> <Gold.Chemscore.Hbond>
2.9277

> <Gold.Chemscore.Metal>
0.0000

> <Gold.Chemscore.Lipo>
97.4727

> <Gold.Chemscore.Internal_Hbond>
0.0000

> <Gold.Chemscore.DEClash>
0.0069

> <Gold.Chemscore.DEInternal>
1.6523

> <Gold.Chemscore.Rot>
1.9385

> <Gold.Chemscore.Internal.Correction>
   9.000000E+99

> <Gold.Chemscore.Hbonds>
donor molecule, donor type, donor heavy atom, donor atom, acceptor molecule, acceptor atom, score
      P1  H  6896  6907       L1    15  0.63
      P1  H  7989  7998       L1    20  0.47
      P1  H 10752 10763       L1    17  0.96

> <Gold.Chemscore.Hbond.Weighted>
-9.7784

> <Gold.Chemscore.Metal.Weighted>
-0.0000

> <Gold.Chemscore.Lipo.Weighted>
-11.4043

> <Gold.Chemscore.Internal_Hbond.Weighted>
0.0000

> <Gold.Chemscore.DEClash.Weighted>
0.0069

> <Gold.Chemscore.DEInternal.Weighted>
1.6523

> <Gold.Chemscore.Rot.Weighted>
4.9625

> <Gold.Chemscore.Internal.Correction.Weighted>
   9.000000E+99

> <Gold.Protein.RotatedTorsions>
[ 6907 6896 6895 6894 ] final    8.20 input  -60.11 | X-H torsion
[ 7974 7965 7964 7962 ] final  -88.12 input  175.53 | X-H torsion
[ 8008 7997 7996 7995 ] final  122.03 input   59.86 | X-H torsion
[ 10167 10162 10161 10158 ] final   54.95 input  -65.29 | X-H torsion
[ 10718 10713 10712 10709 ] final   24.62 input   66.30 | X-H torsion
[ 10763 10752 10751 10750 ] final   89.76 input  -60.55 | X-H torsion
[ 11005 11000 10999 10996 ] final -103.09 input  -57.11 | X-H torsion

> <Gold.Protein.ActiveResidues>
 VAL166  LYS551  ARG553  GLY616  TRP617  ASP618  TYR619  PRO620  LYS621  CYS622 
 ASP623  PHE694  ASN695  SER759  ASP760  ASP761  ALA762  ILE779  LEU786  VAL792 
 PHE793  MET794  SER795  GLU796  ALA797  LYS798  CYS799  TRP800  GLU811  SER814 

> <Gold.Protein.RotatedAtoms>
  151.7022  135.0928  160.0252 H   0  0  0  0  0  0  0  0  0  0  0  0  # atno 6907 bound_to 6896
  152.3714  133.6419  159.6098 H   0  0  0  0  0  0  0  0  0  0  0  0  # atno 6908 bound_to 6896
  150.7676  133.9181  159.3431 H   0  0  0  0  0  0  0  0  0  0  0  0  # atno 6909 bound_to 6896
  145.4574  140.9561  143.1988 H   0  0  0  0  0  0  0  0  0  0  0  0  # atno 7974 bound_to 7965
  156.2711  140.2795  156.1402 H   0  0  0  0  0  0  0  0  0  0  0  0  # atno 8008 bound_to 7997
  155.0961  140.0389  157.2701 H   0  0  0  0  0  0  0  0  0  0  0  0  # atno 8009 bound_to 7997
  154.6851  140.2617  155.6874 H   0  0  0  0  0  0  0  0  0  0  0  0  # atno 8010 bound_to 7997
  140.2246  144.3752  150.6437 H   0  0  0  0  0  0  0  0  0  0  0  0  # atno 10167 bound_to 10162
  157.1822  130.6808  149.6117 H   0  0  0  0  0  0  0  0  0  0  0  0  # atno 10718 bound_to 10713
  153.1905  135.4458  155.0143 H   0  0  0  0  0  0  0  0  0  0  0  0  # atno 10763 bound_to 10752
  154.8087  135.3285  154.7365 H   0  0  0  0  0  0  0  0  0  0  0  0  # atno 10764 bound_to 10752
  153.7820  135.6977  153.4942 H   0  0  0  0  0  0  0  0  0  0  0  0  # atno 10765 bound_to 10752
  141.1161  133.8611  157.1442 H   0  0  0  0  0  0  0  0  0  0  0  0  # atno 11005 bound_to 11000
  144.8023  139.6116  143.7066 LP  0  0  0  0  0  0  0  0  0  0  0  0  # atno 17320 bound_to 7965
  146.2470  139.6119  142.9453 LP  0  0  0  0  0  0  0  0  0  0  0  0  # atno 17321 bound_to 7965
  140.6230  143.2178  151.6655 LP  0  0  0  0  0  0  0  0  0  0  0  0  # atno 17342 bound_to 10162
  139.5132  144.3452  152.0703 LP  0  0  0  0  0  0  0  0  0  0  0  0  # atno 17343 bound_to 10162
  155.9723  130.4643  150.6212 LP  0  0  0  0  0  0  0  0  0  0  0  0  # atno 17370 bound_to 10713
  157.3941  131.0800  151.1367 LP  0  0  0  0  0  0  0  0  0  0  0  0  # atno 17371 bound_to 10713
  140.0084  134.9998  157.0343 LP  0  0  0  0  0  0  0  0  0  0  0  0  # atno 17394 bound_to 11000
  140.4642  134.1453  155.7195 LP  0  0  0  0  0  0  0  0  0  0  0  0  # atno 17395 bound_to 11000

$$$$
