AV-unprocessed.smi:1601|AV-procd|sdf|6434|dock8
  -GOLD-   22720 7 83D 1   1.00000     0.00000
 Structure written by MMmdl.
 41 42  0  0  0  0  0  0  0  0  1 V2000
  150.0345  140.8812  156.4741 C   0  0  0  0  0  0  0  0  0  0  0  0
  150.4774  140.9778  157.9567 C   0  0  1  0  0  0  0  0  0  0  0  0
  150.8364  139.5531  158.4613 C   0  0  0  0  0  0  0  0  0  0  0  0
  149.6651  138.6861  158.5414 N   0  0  0  0  0  0  0  0  0  0  0  0
  149.6557  137.4357  159.0273 C   0  0  0  0  0  0  0  0  0  0  0  0
  150.6579  136.8773  159.4755 O   0  0  0  0  0  0  0  0  0  0  0  0
  148.3003  136.7129  159.0062 C   0  0  1  0  0  0  0  0  0  0  0  0
  148.2906  135.5004  158.0574 C   0  0  0  0  0  0  0  0  0  0  0  0
  147.9137  136.3260  160.3566 N   0  0  0  0  0  0  0  0  0  0  0  0
  147.6484  135.0649  160.8552 C   0  0  0  0  0  0  0  0  0  0  0  0
  147.3319  135.2051  162.1759 C   0  0  0  0  0  0  0  0  0  0  0  0
  147.4312  136.6065  162.3997 C   0  0  0  0  0  0  0  0  0  0  0  0
  147.7789  137.2735  161.3112 N   0  0  0  0  0  0  0  0  0  0  0  0
  151.5611  141.9660  158.1655 N   0  0  0  0  0  0  0  0  0  0  0  0
  152.0144  142.0278  159.5602 C   0  0  0  0  0  0  0  0  0  0  0  0
  153.1183  143.0763  159.7839 C   0  0  0  0  0  0  0  0  0  0  0  0
  152.6616  144.3532  159.3602 O   0  0  0  0  0  0  0  0  0  0  0  0
  152.2866  144.3568  157.9900 C   0  0  0  0  0  0  0  0  0  0  0  0
  151.1737  143.3211  157.7565 C   0  0  0  0  0  0  0  0  0  0  0  0
  149.2841  140.1087  156.3101 H   0  0  0  0  0  0  0  0  0  0  0  0
  150.8814  140.6554  155.8252 H   0  0  0  0  0  0  0  0  0  0  0  0
  149.5739  141.8022  156.1199 H   0  0  0  0  0  0  0  0  0  0  0  0
  149.6084  141.3078  158.5284 H   0  0  0  0  0  0  0  0  0  0  0  0
  151.6013  139.1190  157.8150 H   0  0  0  0  0  0  0  0  0  0  0  0
  151.2464  139.5711  159.4695 H   0  0  0  0  0  0  0  0  0  0  0  0
  148.7942  139.0664  158.1997 H   0  0  0  0  0  0  0  0  0  0  0  0
  147.5585  137.4213  158.6310 H   0  0  0  0  0  0  0  0  0  0  0  0
  148.5666  135.7914  157.0431 H   0  0  0  0  0  0  0  0  0  0  0  0
  147.2971  135.0539  158.0101 H   0  0  0  0  0  0  0  0  0  0  0  0
  148.9847  134.7241  158.3815 H   0  0  0  0  0  0  0  0  0  0  0  0
  147.7082  134.1829  160.2343 H   0  0  0  0  0  0  0  0  0  0  0  0
  147.0697  134.4253  162.8753 H   0  0  0  0  0  0  0  0  0  0  0  0
  147.2629  137.1547  163.3150 H   0  0  0  0  0  0  0  0  0  0  0  0
  151.1694  142.2466  160.2151 H   0  0  0  0  0  0  0  0  0  0  0  0
  152.4221  141.0702  159.8771 H   0  0  0  0  0  0  0  0  0  0  0  0
  153.3839  143.1267  160.8399 H   0  0  0  0  0  0  0  0  0  0  0  0
  154.0238  142.8057  159.2387 H   0  0  0  0  0  0  0  0  0  0  0  0
  151.9392  145.3539  157.7187 H   0  0  0  0  0  0  0  0  0  0  0  0
  153.1545  144.1392  157.3653 H   0  0  0  0  0  0  0  0  0  0  0  0
  150.9323  143.3480  156.6955 H   0  0  0  0  0  0  0  0  0  0  0  0
  150.2753  143.6277  158.2945 H   0  0  0  0  0  0  0  0  0  0  0  0
  1  2  1  0  0  0  0
  1 20  1  0  0  0  0
  1 21  1  0  0  0  0
  1 22  1  0  0  0  0
  2  3  1  0  0  0  0
  2 14  1  0  0  0  0
  2 23  1  0  0  0  0
  3  4  1  0  0  0  0
  3 24  1  0  0  0  0
  3 25  1  0  0  0  0
  4  5  1  0  0  0  0
  4 26  1  0  0  0  0
  5  6  2  0  0  0  0
  5  7  1  0  0  0  0
  7  8  1  0  0  0  0
  7  9  1  0  0  0  0
  7 27  1  0  0  0  0
  8 28  1  0  0  0  0
  8 29  1  0  0  0  0
  8 30  1  0  0  0  0
  9 13  1  0  0  0  0
  9 10  1  0  0  0  0
 10 11  2  0  0  0  0
 10 31  1  0  0  0  0
 11 12  1  0  0  0  0
 11 32  1  0  0  0  0
 12 13  2  0  0  0  0
 12 33  1  0  0  0  0
 14 19  1  0  0  0  0
 14 15  1  0  0  0  0
 15 16  1  0  0  0  0
 15 34  1  0  0  0  0
 15 35  1  0  0  0  0
 16 17  1  0  0  0  0
 16 36  1  0  0  0  0
 16 37  1  0  0  0  0
 17 18  1  0  0  0  0
 18 19  1  0  0  0  0
 18 38  1  0  0  0  0
 18 39  1  0  0  0  0
 19 40  1  0  0  0  0
 19 41  1  0  0  0  0
M  END
> <s_m_source_file>
AV-unprocessed.smi

> <i_m_source_file_index>
1601

> <i_lp_mmshare_version>
43012

> <i_f3d_flags>
0

> <s_epik_input>
W0NIMl0xW0NIMl1PW0NIMl1bQ0gyXU4xW0NASF0oW0NIM10pW0NIMl1bTkhdQyg9TylbQ0BIXShbQ0gzXSluMltjSF1bY0hdW2NIXW4y

> <s_epik_cmdline>
J2VwaWtfcHl0aG9uJywgJy1waCcsICc3LjAnLCAnLXRuJywgJzgnLCAnLW1hJywgJzIwMCcsICctbWV0YWxfYmluZGluZycsICctaW1hZScsICc8aW5maWxlLm1hZT4nLCAnLW9tYWUnLCAnPG91dGZpbGUubWFlPic=

> <r_lp_tautomer_probability>
1

> <r_epik_Ionization_Penalty>
0.203323

> <r_epik_Ionization_Penalty_Charging>
0

> <r_epik_Ionization_Penalty_Neutral>
0.203323

> <r_epik_State_Penalty>
0.193192

> <r_epik_Charging_Adjusted_Penalty>
0.193192

> <i_epik_Tot_Q>
0

> <i_epik_Tot_abs_Q>
0

> <r_epik_Metal_State_Penalty>
0.193187

> <b_epik_Metal_Only>
0

> <s_lp_Force_Field>
OPLS_2005

> <r_lp_Energy>
33.1122

> <b_lp_Chiralities_Consistent>
1

> <s_lp_Variant>
AV-unprocessed.smi:1601-4

> <Gold.Version>
5.8.1

> <Gold.Id.Protein>
6NUR|6NUR_protein|mol2

> <Gold.PLP.Fitness>
46.0613

> <Gold.PLP.PLP>
-37.9170

> <Gold.PLP.part.hbond>
-3.0000

> <Gold.PLP.part.metal>
0.0000

> <Gold.PLP.part.buried>
-5.4493

> <Gold.PLP.part.nonpolar>
-30.2407

> <Gold.PLP.part.repulsive>
0.2119

> <Gold.PLP.ligand.clash>
0.0000

> <Gold.PLP.ligand.torsion>
0.1404

> <Gold.PLP.Chemscore.Hbond>
2.7760

> <Gold.PLP.Chemscore.CHOScore>
0.0000

> <Gold.PLP.Chemscore.Metal>
0.0000

> <Gold.Chemscore.Hbonds>
donor molecule, donor type, donor heavy atom, donor atom, acceptor molecule, acceptor atom, score
      P1  H  6896  6909       L1     6  1.00
      P1  H  6931  6943       L1    13  0.96
      P1  H  6934  6947       L1    13  0.77

> <Gold.PLP.Chemscore.Internal.Correction>
0.0971

> <Gold.Rescore>
     Score         DG    S(hbond)    S(metal)    S(lipo)     H(rot)  DE(clash)    DE(int)     intcor
     19.17     -19.36       2.47        0.00      87.16       1.79       0.01       0.17       ----

> <Gold.Chemscore.Fitness>
19.1707

> <Gold.Chemscore.DG>
-19.3558

> <Gold.Chemscore.ZeroCoef>
-5.4800

> <Gold.Chemscore.Hbond>
2.4711

> <Gold.Chemscore.Metal>
0.0000

> <Gold.Chemscore.Lipo>
87.1582

> <Gold.Chemscore.Internal_Hbond>
0.0000

> <Gold.Chemscore.DEClash>
0.0123

> <Gold.Chemscore.DEInternal>
0.1728

> <Gold.Chemscore.Rot>
1.7872

> <Gold.Chemscore.Internal.Correction>
   9.000000E+99

> <Gold.Chemscore.Hbonds>
donor molecule, donor type, donor heavy atom, donor atom, acceptor molecule, acceptor atom, score
      P1  H  6896  6909       L1     6  0.97
      P1  H  6931  6943       L1    13  0.28
      P1  H  6934  6947       L1    13  0.75

> <Gold.Chemscore.Hbond.Weighted>
-8.2535

> <Gold.Chemscore.Metal.Weighted>
-0.0000

> <Gold.Chemscore.Lipo.Weighted>
-10.1975

> <Gold.Chemscore.Internal_Hbond.Weighted>
0.0000

> <Gold.Chemscore.DEClash.Weighted>
0.0123

> <Gold.Chemscore.DEInternal.Weighted>
0.1728

> <Gold.Chemscore.Rot.Weighted>
4.5752

> <Gold.Chemscore.Internal.Correction.Weighted>
   9.000000E+99

> <Gold.Protein.RotatedTorsions>
[ 6907 6896 6895 6894 ] final   79.32 input  -60.11 | X-H torsion
[ 7974 7965 7964 7962 ] final  -57.90 input  175.53 | X-H torsion
[ 8008 7997 7996 7995 ] final  -19.31 input   59.86 | X-H torsion
[ 10167 10162 10161 10158 ] final   27.66 input  -65.29 | X-H torsion
[ 10718 10713 10712 10709 ] final  -61.00 input   66.30 | X-H torsion
[ 10763 10752 10751 10750 ] final   -1.49 input  -60.55 | X-H torsion
[ 11005 11000 10999 10996 ] final   89.97 input  -57.11 | X-H torsion

> <Gold.Protein.ActiveResidues>
 VAL166  LYS551  ARG553  GLY616  TRP617  ASP618  TYR619  PRO620  LYS621  CYS622 
 ASP623  PHE694  ASN695  SER759  ASP760  ASP761  ALA762  ILE779  LEU786  VAL792 
 PHE793  MET794  SER795  GLU796  ALA797  LYS798  CYS799  TRP800  GLU811  SER814 

> <Gold.Protein.RotatedAtoms>
  152.5194  134.3529  159.9257 H   0  0  0  0  0  0  0  0  0  0  0  0  # atno 6907 bound_to 6896
  151.3480  133.3930  159.2685 H   0  0  0  0  0  0  0  0  0  0  0  0  # atno 6908 bound_to 6896
  150.9750  134.9134  159.7868 H   0  0  0  0  0  0  0  0  0  0  0  0  # atno 6909 bound_to 6896
  145.8457  140.8387  143.0012 H   0  0  0  0  0  0  0  0  0  0  0  0  # atno 7974 bound_to 7965
  154.4845  140.2092  155.9687 H   0  0  0  0  0  0  0  0  0  0  0  0  # atno 8008 bound_to 7997
  156.1215  140.3212  155.8185 H   0  0  0  0  0  0  0  0  0  0  0  0  # atno 8009 bound_to 7997
  155.4458  140.0513  157.2997 H   0  0  0  0  0  0  0  0  0  0  0  0  # atno 8010 bound_to 7997
  140.4919  144.0453  150.6300 H   0  0  0  0  0  0  0  0  0  0  0  0  # atno 10167 bound_to 10162
  156.0952  130.4194  150.0932 H   0  0  0  0  0  0  0  0  0  0  0  0  # atno 10718 bound_to 10713
  153.3456  135.6983  153.6831 H   0  0  0  0  0  0  0  0  0  0  0  0  # atno 10763 bound_to 10752
  153.5578  135.3541  155.2787 H   0  0  0  0  0  0  0  0  0  0  0  0  # atno 10764 bound_to 10752
  154.8644  135.4242  154.2679 H   0  0  0  0  0  0  0  0  0  0  0  0  # atno 10765 bound_to 10752
  139.8865  134.8584  156.3217 H   0  0  0  0  0  0  0  0  0  0  0  0  # atno 11005 bound_to 11000
  144.6731  140.0878  143.7466 LP  0  0  0  0  0  0  0  0  0  0  0  0  # atno 17320 bound_to 7965
  145.9415  139.2672  143.1266 LP  0  0  0  0  0  0  0  0  0  0  0  0  # atno 17321 bound_to 7965
  140.3724  143.2847  152.0263 LP  0  0  0  0  0  0  0  0  0  0  0  0  # atno 17342 bound_to 10162
  139.4853  144.6219  151.7239 LP  0  0  0  0  0  0  0  0  0  0  0  0  # atno 17343 bound_to 10162
  156.8933  130.9596  151.3586 LP  0  0  0  0  0  0  0  0  0  0  0  0  # atno 17370 bound_to 10713
  157.6111  130.8583  149.8953 LP  0  0  0  0  0  0  0  0  0  0  0  0  # atno 17371 bound_to 10713
  140.9782  133.7284  156.0633 LP  0  0  0  0  0  0  0  0  0  0  0  0  # atno 17394 bound_to 11000
  140.7783  134.3754  157.5493 LP  0  0  0  0  0  0  0  0  0  0  0  0  # atno 17395 bound_to 11000

$$$$
