AV-unprocessed.smi:2693|AV-procd|sdf|10404|dock7
  -GOLD-   2272014433D 1   1.00000     0.00000
 Structure written by MMmdl.
 45 47  0  0  0  0  0  0  0  0  1 V2000
  151.8053  141.0034  158.3701 C   0  0  0  0  0  0  0  0  0  0  0  0
  151.1985  141.2005  157.0569 N   0  0  0  0  0  0  0  0  0  0  0  0
  151.2693  142.5374  156.4740 C   0  0  0  0  0  0  0  0  0  0  0  0
  150.5823  140.1456  156.3771 C   0  0  0  0  0  0  0  0  0  0  0  0
  149.9605  139.2164  157.1148 N   0  0  0  0  0  0  0  0  0  0  0  0
  149.3641  138.1931  156.4671 C   0  0  0  0  0  0  0  0  0  0  0  0
  149.3909  138.0914  155.0557 C   0  0  0  0  0  0  0  0  0  0  0  0
  148.7722  137.0614  154.2981 N   0  0  0  0  0  0  0  0  0  0  0  0
  147.8248  136.1936  154.6912 C   0  0  0  0  0  0  0  0  0  0  0  0
  147.3483  136.1237  155.8236 O   0  0  0  0  0  0  0  0  0  0  0  0
  147.4713  135.3769  153.6905 N   0  0  0  0  0  0  0  0  0  0  0  0
  146.4853  134.2975  153.8080 C   0  0  1  0  0  0  0  0  0  0  0  0
  145.4583  134.3104  152.6735 C   0  0  1  0  0  0  0  0  0  0  0  0
  144.9957  135.3002  151.6668 C   0  0  0  0  0  0  0  0  0  0  0  0
  144.9097  134.3233  150.4628 C   0  0  0  0  0  0  0  0  0  0  0  0
  145.5452  133.0939  150.8987 O   0  0  0  0  0  0  0  0  0  0  0  0
  146.4740  133.5181  151.8765 C   0  0  2  0  0  0  0  0  0  0  0  0
  146.9342  132.9021  153.2170 C   0  0  0  0  0  0  0  0  0  0  0  0
  148.4247  132.5545  153.3047 C   0  0  0  0  0  0  0  0  0  0  0  0
  146.1830  131.6522  153.7101 C   0  0  0  0  0  0  0  0  0  0  0  0
  150.0622  139.1294  154.3797 C   0  0  0  0  0  0  0  0  0  0  0  0
  150.6561  140.1461  155.0394 N   0  0  0  0  0  0  0  0  0  0  0  0
  152.6653  140.3376  158.2932 H   0  0  0  0  0  0  0  0  0  0  0  0
  151.0875  140.5614  159.0618 H   0  0  0  0  0  0  0  0  0  0  0  0
  152.1458  141.9428  158.8055 H   0  0  0  0  0  0  0  0  0  0  0  0
  151.7259  142.4994  155.4844 H   0  0  0  0  0  0  0  0  0  0  0  0
  151.8637  143.2168  157.0850 H   0  0  0  0  0  0  0  0  0  0  0  0
  150.2694  142.9613  156.3758 H   0  0  0  0  0  0  0  0  0  0  0  0
  148.8551  137.4796  157.0958 H   0  0  0  0  0  0  0  0  0  0  0  0
  149.1232  136.9428  153.3590 H   0  0  0  0  0  0  0  0  0  0  0  0
  147.9151  135.4975  152.7920 H   0  0  0  0  0  0  0  0  0  0  0  0
  146.0230  134.2225  154.7938 H   0  0  0  0  0  0  0  0  0  0  0  0
  144.6009  133.7080  152.9841 H   0  0  0  0  0  0  0  0  0  0  0  0
  144.0322  135.7445  151.9178 H   0  0  0  0  0  0  0  0  0  0  0  0
  145.7260  136.0930  151.4997 H   0  0  0  0  0  0  0  0  0  0  0  0
  143.8777  134.1190  150.1770 H   0  0  0  0  0  0  0  0  0  0  0  0
  145.4273  134.7322  149.5942 H   0  0  0  0  0  0  0  0  0  0  0  0
  147.2564  134.1303  151.4163 H   0  0  0  0  0  0  0  0  0  0  0  0
  148.6525  131.6258  152.7804 H   0  0  0  0  0  0  0  0  0  0  0  0
  148.7447  132.4360  154.3404 H   0  0  0  0  0  0  0  0  0  0  0  0
  149.0523  133.3266  152.8595 H   0  0  0  0  0  0  0  0  0  0  0  0
  146.3618  130.8003  153.0533 H   0  0  0  0  0  0  0  0  0  0  0  0
  145.1039  131.7848  153.7628 H   0  0  0  0  0  0  0  0  0  0  0  0
  146.5087  131.3653  154.7105 H   0  0  0  0  0  0  0  0  0  0  0  0
  150.1280  139.1457  153.3017 H   0  0  0  0  0  0  0  0  0  0  0  0
  1  2  1  0  0  0  0
  1 23  1  0  0  0  0
  1 24  1  0  0  0  0
  1 25  1  0  0  0  0
  2  3  1  0  0  0  0
  2  4  1  0  0  0  0
  3 26  1  0  0  0  0
  3 27  1  0  0  0  0
  3 28  1  0  0  0  0
  4 22  1  0  0  0  0
  4  5  2  0  0  0  0
  5  6  1  0  0  0  0
  6  7  2  0  0  0  0
  6 29  1  0  0  0  0
  7  8  1  0  0  0  0
  7 21  1  0  0  0  0
  8  9  1  0  0  0  0
  8 30  1  0  0  0  0
  9 10  2  0  0  0  0
  9 11  1  0  0  0  0
 11 12  1  0  0  0  0
 11 31  1  0  0  0  0
 12 18  1  0  0  0  0
 12 13  1  0  0  0  0
 12 32  1  0  0  0  0
 13 17  1  0  0  0  0
 13 14  1  0  0  0  0
 13 33  1  0  0  0  0
 14 15  1  0  0  0  0
 14 34  1  0  0  0  0
 14 35  1  0  0  0  0
 15 16  1  0  0  0  0
 15 36  1  0  0  0  0
 15 37  1  0  0  0  0
 16 17  1  0  0  0  0
 17 18  1  0  0  0  0
 17 38  1  0  0  0  0
 18 19  1  0  0  0  0
 18 20  1  0  0  0  0
 19 39  1  0  0  0  0
 19 40  1  0  0  0  0
 19 41  1  0  0  0  0
 20 42  1  0  0  0  0
 20 43  1  0  0  0  0
 20 44  1  0  0  0  0
 21 22  2  0  0  0  0
 21 45  1  0  0  0  0
M  END
> <s_m_source_file>
AV-unprocessed.smi

> <i_m_source_file_index>
2693

> <i_lp_mmshare_version>
43012

> <i_f3d_flags>
0

> <s_epik_input>
W0NIM11OKFtDSDNdKWMxbltjSF1jKFtjSF1uMSlbTkhdQyg9TylbTkhdW0NASF0yQyhbQ0gzXSkoW0NIM10pW0NAQEhdKFtDQEhdMjMpT1tDSDJdW0NIMl0z

> <s_epik_cmdline>
J2VwaWtfcHl0aG9uJywgJy1waCcsICc3LjAnLCAnLXRuJywgJzgnLCAnLW1hJywgJzIwMCcsICctbWV0YWxfYmluZGluZycsICctaW1hZScsICc8aW5maWxlLm1hZT4nLCAnLW9tYWUnLCAnPG91dGZpbGUubWFlPic=

> <r_lp_tautomer_probability>
1

> <r_epik_Ionization_Penalty>
0.00031779

> <r_epik_Ionization_Penalty_Charging>
0

> <r_epik_Ionization_Penalty_Neutral>
0.00031779

> <r_epik_State_Penalty>
-0

> <r_epik_Charging_Adjusted_Penalty>
0

> <i_epik_Tot_Q>
0

> <i_epik_Tot_abs_Q>
0

> <r_epik_Metal_State_Penalty>
-0

> <b_epik_Metal_Only>
0

> <s_lp_Force_Field>
OPLS_2005

> <r_lp_Energy>
57.3202

> <b_lp_Chiralities_Consistent>
1

> <s_lp_Variant>
AV-unprocessed.smi:2693-8

> <Gold.Version>
5.8.1

> <Gold.Id.Protein>
6NUR|6NUR_protein|mol2

> <Gold.PLP.Fitness>
38.3299

> <Gold.PLP.PLP>
-27.9496

> <Gold.PLP.part.hbond>
-2.9134

> <Gold.PLP.part.metal>
0.0000

> <Gold.PLP.part.buried>
-3.7720

> <Gold.PLP.part.nonpolar>
-21.3818

> <Gold.PLP.part.repulsive>
0.2173

> <Gold.PLP.ligand.clash>
0.0000

> <Gold.PLP.ligand.torsion>
0.6413

> <Gold.PLP.Chemscore.Hbond>
2.8000

> <Gold.PLP.Chemscore.CHOScore>
1.0000

> <Gold.PLP.Chemscore.Metal>
0.0000

> <Gold.Chemscore.Hbonds>
donor molecule, donor type, donor heavy atom, donor atom, acceptor molecule, acceptor atom, score
      L1  H     8    30       P1  7948  0.99
      L1  H    11    31       P1  7948  1.00
      P1  H  7989  7998       L1    22  0.85
      L1  C    21    45       P1  7957  1.00

> <Gold.PLP.Chemscore.Internal.Correction>
0.2629

> <Gold.Rescore>
     Score         DG    S(hbond)    S(metal)    S(lipo)     H(rot)  DE(clash)    DE(int)     intcor
     15.48     -17.19       2.04        0.00      63.87       1.00       0.11       1.60       ----

> <Gold.Chemscore.Fitness>
15.4804

> <Gold.Chemscore.DG>
-17.1936

> <Gold.Chemscore.ZeroCoef>
-5.4800

> <Gold.Chemscore.Hbond>
2.0361

> <Gold.Chemscore.Metal>
0.0000

> <Gold.Chemscore.Lipo>
63.8723

> <Gold.Chemscore.Internal_Hbond>
0.0000

> <Gold.Chemscore.DEClash>
0.1130

> <Gold.Chemscore.DEInternal>
1.6002

> <Gold.Chemscore.Rot>
1.0000

> <Gold.Chemscore.Internal.Correction>
   9.000000E+99

> <Gold.Chemscore.Hbonds>
donor molecule, donor type, donor heavy atom, donor atom, acceptor molecule, acceptor atom, score
      L1  H     8    30       P1  7948  0.94
      L1  H    11    31       P1  7948  0.92
      P1  H  7989  7998       L1    22  0.14

> <Gold.Chemscore.Hbond.Weighted>
-6.8005

> <Gold.Chemscore.Metal.Weighted>
-0.0000

> <Gold.Chemscore.Lipo.Weighted>
-7.4731

> <Gold.Chemscore.Internal_Hbond.Weighted>
0.0000

> <Gold.Chemscore.DEClash.Weighted>
0.1130

> <Gold.Chemscore.DEInternal.Weighted>
1.6002

> <Gold.Chemscore.Rot.Weighted>
2.5600

> <Gold.Chemscore.Internal.Correction.Weighted>
   9.000000E+99

> <Gold.Protein.RotatedTorsions>
[ 6907 6896 6895 6894 ] final  100.45 input  -60.11 | X-H torsion
[ 7974 7965 7964 7962 ] final  122.08 input  175.53 | X-H torsion
[ 8008 7997 7996 7995 ] final  100.42 input   59.86 | X-H torsion
[ 10167 10162 10161 10158 ] final  -73.99 input  -65.29 | X-H torsion
[ 10718 10713 10712 10709 ] final  178.15 input   66.30 | X-H torsion
[ 10763 10752 10751 10750 ] final  -11.52 input  -60.55 | X-H torsion
[ 11005 11000 10999 10996 ] final -132.18 input  -57.11 | X-H torsion

> <Gold.Protein.ActiveResidues>
 VAL166  LYS551  ARG553  GLY616  TRP617  ASP618  TYR619  PRO620  LYS621  CYS622 
 ASP623  PHE694  ASN695  SER759  ASP760  ASP761  ALA762  ILE779  LEU786  VAL792 
 PHE793  MET794  SER795  GLU796  ALA797  LYS798  CYS799  TRP800  GLU811  SER814 

> <Gold.Protein.RotatedAtoms>
  152.5372  134.0275  159.8009 H   0  0  0  0  0  0  0  0  0  0  0  0  # atno 6907 bound_to 6896
  151.0451  133.5664  159.2654 H   0  0  0  0  0  0  0  0  0  0  0  0  # atno 6908 bound_to 6896
  151.2619  135.0664  159.9155 H   0  0  0  0  0  0  0  0  0  0  0  0  # atno 6909 bound_to 6896
  145.1118  139.3448  143.4759 H   0  0  0  0  0  0  0  0  0  0  0  0  # atno 7974 bound_to 7965
  156.1202  140.3213  155.8197 H   0  0  0  0  0  0  0  0  0  0  0  0  # atno 8008 bound_to 7997
  155.4519  140.0533  157.3017 H   0  0  0  0  0  0  0  0  0  0  0  0  # atno 8009 bound_to 7997
  154.4822  140.2057  155.9752 H   0  0  0  0  0  0  0  0  0  0  0  0  # atno 8010 bound_to 7997
  140.5065  143.2352  151.7666 H   0  0  0  0  0  0  0  0  0  0  0  0  # atno 10167 bound_to 10162
  156.8948  130.9859  151.3044 H   0  0  0  0  0  0  0  0  0  0  0  0  # atno 10718 bound_to 10713
  153.4849  135.7017  153.5917 H   0  0  0  0  0  0  0  0  0  0  0  0  # atno 10763 bound_to 10752
  153.4114  135.3847  155.2053 H   0  0  0  0  0  0  0  0  0  0  0  0  # atno 10764 bound_to 10752
  154.8720  135.3905  154.4303 H   0  0  0  0  0  0  0  0  0  0  0  0  # atno 10765 bound_to 10752
  140.9193  134.1466  157.4327 H   0  0  0  0  0  0  0  0  0  0  0  0  # atno 11005 bound_to 11000
  146.3526  140.1039  142.8607 LP  0  0  0  0  0  0  0  0  0  0  0  0  # atno 17320 bound_to 7965
  145.0839  140.9239  143.4809 LP  0  0  0  0  0  0  0  0  0  0  0  0  # atno 17321 bound_to 7965
  139.4885  144.4451  151.9720 LP  0  0  0  0  0  0  0  0  0  0  0  0  # atno 17342 bound_to 10162
  140.3541  144.3053  150.5944 LP  0  0  0  0  0  0  0  0  0  0  0  0  # atno 17343 bound_to 10162
  157.6062  130.8549  149.8879 LP  0  0  0  0  0  0  0  0  0  0  0  0  # atno 17370 bound_to 10713
  156.0611  130.3700  150.0980 LP  0  0  0  0  0  0  0  0  0  0  0  0  # atno 17371 bound_to 10713
  139.8772  134.9965  156.5799 LP  0  0  0  0  0  0  0  0  0  0  0  0  # atno 17394 bound_to 11000
  140.8009  133.8506  155.8726 LP  0  0  0  0  0  0  0  0  0  0  0  0  # atno 17395 bound_to 11000

$$$$
