AV-unprocessed.smi:1633|AV-procd|sdf|6533|dock5
  -GOLD-   22720 7213D 1   1.00000     0.00000
 Structure written by MMmdl.
 51 53  0  0  0  0  0  0  0  0  2 V2000
  142.2494  143.1371  155.4540 C   0  0  0  0  0  0  0  0  0  0  0  0
  143.4169  142.7906  156.3804 C   0  0  0  0  0  0  0  0  0  0  0  0
  143.1785  142.1273  157.3892 O   0  0  0  0  0  0  0  0  0  0  0  0
  144.6631  143.2175  156.0651 N   0  0  0  0  0  0  0  0  0  0  0  0
  145.0371  143.9201  154.8348 C   0  0  0  0  0  0  0  0  0  0  0  0
  145.8996  142.9831  153.9693 C   0  0  0  0  0  0  0  0  0  0  0  0
  147.0860  142.4802  154.7192 N   0  3  0  0  0  0  0  0  0  0  0  0
  147.9294  141.5473  153.9294 C   0  0  0  0  0  0  0  0  0  0  0  0
  149.0660  140.9000  154.7543 C   0  0  1  0  0  0  0  0  0  0  0  0
  149.8218  140.0491  153.9159 O   0  0  0  0  0  0  0  0  0  0  0  0
  150.0372  141.9306  155.3632 C   0  0  0  0  0  0  0  0  0  0  0  0
  150.8381  141.3694  156.4357 N   0  0  0  0  0  0  0  0  0  0  0  0
  151.2756  140.0999  156.5391 C   0  0  0  0  0  0  0  0  0  0  0  0
  151.9830  139.7864  157.6203 N   0  0  0  0  0  0  0  0  0  0  0  0
  152.0169  140.9958  158.2929 C   0  0  0  0  0  0  0  0  0  0  0  0
  152.6135  141.3441  159.5243 C   0  0  0  0  0  0  0  0  0  0  0  0
  152.5146  142.6595  160.0313 C   0  0  0  0  0  0  0  0  0  0  0  0
  153.1707  142.9896  161.3605 C   0  0  0  0  0  0  0  0  0  0  0  0
  151.8105  143.6513  159.3023 C   0  0  0  0  0  0  0  0  0  0  0  0
  151.6917  145.0710  159.8276 C   0  0  0  0  0  0  0  0  0  0  0  0
  151.2092  143.3206  158.0698 C   0  0  0  0  0  0  0  0  0  0  0  0
  151.3136  142.0079  157.5764 C   0  0  0  0  0  0  0  0  0  0  0  0
  146.7288  141.9114  156.0474 C   0  0  0  0  0  0  0  0  0  0  0  0
  145.8451  142.8751  156.8598 C   0  0  0  0  0  0  0  0  0  0  0  0
  142.4112  142.7292  154.4559 H   0  0  0  0  0  0  0  0  0  0  0  0
  142.1213  144.2172  155.3803 H   0  0  0  0  0  0  0  0  0  0  0  0
  141.3188  142.7176  155.8372 H   0  0  0  0  0  0  0  0  0  0  0  0
  144.1851  144.2761  154.2572 H   0  0  0  0  0  0  0  0  0  0  0  0
  145.6055  144.8142  155.0949 H   0  0  0  0  0  0  0  0  0  0  0  0
  145.2964  142.1371  153.6351 H   0  0  0  0  0  0  0  0  0  0  0  0
  146.2142  143.5187  153.0747 H   0  0  0  0  0  0  0  0  0  0  0  0
  147.3094  140.7506  153.5147 H   0  0  0  0  0  0  0  0  0  0  0  0
  148.3264  142.0947  153.0741 H   0  0  0  0  0  0  0  0  0  0  0  0
  148.6601  140.2989  155.5674 H   0  0  0  0  0  0  0  0  0  0  0  0
  149.7436  140.3468  153.0229 H   0  0  0  0  0  0  0  0  0  0  0  0
  150.7144  142.3117  154.5973 H   0  0  0  0  0  0  0  0  0  0  0  0
  149.4906  142.7916  155.7500 H   0  0  0  0  0  0  0  0  0  0  0  0
  151.0543  139.3618  155.7818 H   0  0  0  0  0  0  0  0  0  0  0  0
  153.1499  140.5888  160.0797 H   0  0  0  0  0  0  0  0  0  0  0  0
  153.9117  143.7793  161.2357 H   0  0  0  0  0  0  0  0  0  0  0  0
  153.6772  142.1207  161.7813 H   0  0  0  0  0  0  0  0  0  0  0  0
  152.4250  143.3244  162.0815 H   0  0  0  0  0  0  0  0  0  0  0  0
  151.1251  145.7031  159.1432 H   0  0  0  0  0  0  0  0  0  0  0  0
  152.6789  145.5160  159.9528 H   0  0  0  0  0  0  0  0  0  0  0  0
  151.1825  145.0807  160.7916 H   0  0  0  0  0  0  0  0  0  0  0  0
  150.6700  144.0671  157.5057 H   0  0  0  0  0  0  0  0  0  0  0  0
  146.2059  140.9641  155.9047 H   0  0  0  0  0  0  0  0  0  0  0  0
  147.6378  141.6904  156.6080 H   0  0  0  0  0  0  0  0  0  0  0  0
  146.3980  143.7862  157.0933 H   0  0  0  0  0  0  0  0  0  0  0  0
  145.5948  142.4255  157.8217 H   0  0  0  0  0  0  0  0  0  0  0  0
  147.6612  143.2857  154.9187 H   0  0  0  0  0  0  0  0  0  0  0  0
  1  2  1  0  0  0  0
  1 25  1  0  0  0  0
  1 26  1  0  0  0  0
  1 27  1  0  0  0  0
  2  3  2  0  0  0  0
  2  4  1  0  0  0  0
  4 24  1  0  0  0  0
  4  5  1  0  0  0  0
  5  6  1  0  0  0  0
  5 28  1  0  0  0  0
  5 29  1  0  0  0  0
  6  7  1  0  0  0  0
  6 30  1  0  0  0  0
  6 31  1  0  0  0  0
  7  8  1  0  0  0  0
  7 23  1  0  0  0  0
  7 51  1  0  0  0  0
  8  9  1  0  0  0  0
  8 32  1  0  0  0  0
  8 33  1  0  0  0  0
  9 10  1  0  0  0  0
  9 11  1  0  0  0  0
  9 34  1  0  0  0  0
 10 35  1  0  0  0  0
 11 12  1  0  0  0  0
 11 36  1  0  0  0  0
 11 37  1  0  0  0  0
 12 22  1  0  0  0  0
 12 13  1  0  0  0  0
 13 14  2  0  0  0  0
 13 38  1  0  0  0  0
 14 15  1  0  0  0  0
 15 22  2  0  0  0  0
 15 16  1  0  0  0  0
 16 17  2  0  0  0  0
 16 39  1  0  0  0  0
 17 18  1  0  0  0  0
 17 19  1  0  0  0  0
 18 40  1  0  0  0  0
 18 41  1  0  0  0  0
 18 42  1  0  0  0  0
 19 20  1  0  0  0  0
 19 21  2  0  0  0  0
 20 43  1  0  0  0  0
 20 44  1  0  0  0  0
 20 45  1  0  0  0  0
 21 22  1  0  0  0  0
 21 46  1  0  0  0  0
 23 24  1  0  0  0  0
 23 47  1  0  0  0  0
 23 48  1  0  0  0  0
 24 49  1  0  0  0  0
 24 50  1  0  0  0  0
M  CHG  1   7   1
M  END
> <s_m_source_file>
AV-unprocessed.smi

> <i_m_source_file_index>
1633

> <i_lp_mmshare_version>
43012

> <i_f3d_flags>
0

> <s_epik_input>
W0NIM11DKD1PKU4xW0NIMl1bQ0gyXU4oW0NIMl1bQ0gyXTEpW0NIMl1bQ0BIXShbT0hdKVtDSDJdbihbY0hdbjIpYyhjMjMpW2NIXWMoW0NIM10pYyhbY0hdMylbQ0gzXQ==

> <s_epik_cmdline>
J2VwaWtfcHl0aG9uJywgJy1waCcsICc3LjAnLCAnLXRuJywgJzgnLCAnLW1hJywgJzIwMCcsICctbWV0YWxfYmluZGluZycsICctaW1hZScsICc8aW5maWxlLm1hZT4nLCAnLW9tYWUnLCAnPG91dGZpbGUubWFlPic=

> <r_epik_Ionization_Penalty>
0.0939669

> <r_epik_Ionization_Penalty_Charging>
0.00645254

> <r_epik_Ionization_Penalty_Neutral>
0.0875144

> <r_epik_State_Penalty>
0.0777239

> <r_epik_Charging_Adjusted_Penalty>
0.0841764

> <i_epik_Tot_Q>
1

> <i_epik_Tot_abs_Q>
1

> <r_epik_Metal_State_Penalty>
7.71307e-05

> <b_epik_Metal_Only>
0

> <s_lp_Force_Field>
OPLS_2005

> <r_lp_Energy>
45.1144

> <b_lp_Chiralities_Consistent>
1

> <s_lp_Variant>
AV-unprocessed.smi:1633-2

> <Gold.Version>
5.8.1

> <Gold.Id.Protein>
6NUR|6NUR_protein|mol2

> <Gold.PLP.Fitness>
58.1615

> <Gold.PLP.PLP>
-50.2344

> <Gold.PLP.part.hbond>
-3.0000

> <Gold.PLP.part.metal>
0.0000

> <Gold.PLP.part.buried>
-5.9279

> <Gold.PLP.part.nonpolar>
-40.3286

> <Gold.PLP.part.repulsive>
0.1226

> <Gold.PLP.ligand.clash>
0.0142

> <Gold.PLP.ligand.torsion>
0.5851

> <Gold.PLP.Chemscore.Hbond>
3.0000

> <Gold.PLP.Chemscore.CHOScore>
0.0000

> <Gold.PLP.Chemscore.Metal>
0.0000

> <Gold.Chemscore.Hbonds>
donor molecule, donor type, donor heavy atom, donor atom, acceptor molecule, acceptor atom, score
      L1  H     7    51       P1  8028  2.00
      L1  H    10    35       P1  7957  1.00

> <Gold.PLP.Chemscore.Internal.Correction>
0.1114

> <Gold.Rescore>
     Score         DG    S(hbond)    S(metal)    S(lipo)     H(rot)  DE(clash)    DE(int)     intcor
     18.54     -19.40       1.45        0.00     124.80       2.16       0.17       0.69       ----

> <Gold.Chemscore.Fitness>
18.5435

> <Gold.Chemscore.DG>
-19.3972

> <Gold.Chemscore.ZeroCoef>
-5.4800

> <Gold.Chemscore.Hbond>
1.4513

> <Gold.Chemscore.Metal>
0.0000

> <Gold.Chemscore.Lipo>
124.7995

> <Gold.Chemscore.Internal_Hbond>
0.0000

> <Gold.Chemscore.DEClash>
0.1686

> <Gold.Chemscore.DEInternal>
0.6851

> <Gold.Chemscore.Rot>
2.1608

> <Gold.Chemscore.Internal.Correction>
   9.000000E+99

> <Gold.Chemscore.Hbonds>
donor molecule, donor type, donor heavy atom, donor atom, acceptor molecule, acceptor atom, score
      L1  H     7    51       P1  8028  0.44
      L1  H    10    35       P1  7957  0.97

> <Gold.Chemscore.Hbond.Weighted>
-4.8473

> <Gold.Chemscore.Metal.Weighted>
-0.0000

> <Gold.Chemscore.Lipo.Weighted>
-14.6015

> <Gold.Chemscore.Internal_Hbond.Weighted>
0.0000

> <Gold.Chemscore.DEClash.Weighted>
0.1686

> <Gold.Chemscore.DEInternal.Weighted>
0.6851

> <Gold.Chemscore.Rot.Weighted>
5.5317

> <Gold.Chemscore.Internal.Correction.Weighted>
   9.000000E+99

> <Gold.Protein.RotatedTorsions>
[ 6907 6896 6895 6894 ] final   27.84 input  -60.11 | X-H torsion
[ 7974 7965 7964 7962 ] final    2.02 input  175.53 | X-H torsion
[ 8008 7997 7996 7995 ] final  -86.17 input   59.86 | X-H torsion
[ 10167 10162 10161 10158 ] final  -46.16 input  -65.29 | X-H torsion
[ 10718 10713 10712 10709 ] final   -7.60 input   66.30 | X-H torsion
[ 10763 10752 10751 10750 ] final  160.40 input  -60.55 | X-H torsion
[ 11005 11000 10999 10996 ] final  -20.25 input  -57.11 | X-H torsion

> <Gold.Protein.ActiveResidues>
 VAL166  LYS551  ARG553  GLY616  TRP617  ASP618  TYR619  PRO620  LYS621  CYS622 
 ASP623  PHE694  ASN695  SER759  ASP760  ASP761  ALA762  ILE779  LEU786  VAL792 
 PHE793  MET794  SER795  GLU796  ALA797  LYS798  CYS799  TRP800  GLU811  SER814 

> <Gold.Protein.RotatedAtoms>
  152.0082  134.9891  160.0567 H   0  0  0  0  0  0  0  0  0  0  0  0  # atno 6907 bound_to 6896
  152.1454  133.4484  159.4795 H   0  0  0  0  0  0  0  0  0  0  0  0  # atno 6908 bound_to 6896
  150.6869  134.2172  159.4426 H   0  0  0  0  0  0  0  0  0  0  0  0  # atno 6909 bound_to 6896
  146.2442  140.0899  142.8352 H   0  0  0  0  0  0  0  0  0  0  0  0  # atno 7974 bound_to 7965
  154.6489  140.0582  156.9932 H   0  0  0  0  0  0  0  0  0  0  0  0  # atno 8008 bound_to 7997
  155.1402  140.3264  155.4435 H   0  0  0  0  0  0  0  0  0  0  0  0  # atno 8009 bound_to 7997
  156.2566  140.1965  156.6518 H   0  0  0  0  0  0  0  0  0  0  0  0  # atno 8010 bound_to 7997
  140.6829  143.2844  151.3743 H   0  0  0  0  0  0  0  0  0  0  0  0  # atno 10167 bound_to 10162
  156.7148  130.5133  149.5883 H   0  0  0  0  0  0  0  0  0  0  0  0  # atno 10718 bound_to 10713
  154.2468  135.2773  155.2832 H   0  0  0  0  0  0  0  0  0  0  0  0  # atno 10763 bound_to 10752
  154.5498  135.5678  153.6916 H   0  0  0  0  0  0  0  0  0  0  0  0  # atno 10764 bound_to 10752
  152.9988  135.6272  154.2614 H   0  0  0  0  0  0  0  0  0  0  0  0  # atno 10765 bound_to 10752
  140.8446  133.7901  155.9898 H   0  0  0  0  0  0  0  0  0  0  0  0  # atno 11005 bound_to 11000
  145.0660  140.9121  143.4910 LP  0  0  0  0  0  0  0  0  0  0  0  0  # atno 17320 bound_to 7965
  145.1023  139.2814  143.5680 LP  0  0  0  0  0  0  0  0  0  0  0  0  # atno 17321 bound_to 7965
  139.6164  144.0994  152.2349 LP  0  0  0  0  0  0  0  0  0  0  0  0  # atno 17342 bound_to 10162
  140.0425  144.5996  150.7400 LP  0  0  0  0  0  0  0  0  0  0  0  0  # atno 17343 bound_to 10162
  156.1635  130.6390  151.0749 LP  0  0  0  0  0  0  0  0  0  0  0  0  # atno 17370 bound_to 10713
  157.6921  131.0806  150.7075 LP  0  0  0  0  0  0  0  0  0  0  0  0  # atno 17371 bound_to 10713
  140.8857  134.2556  157.5121 LP  0  0  0  0  0  0  0  0  0  0  0  0  # atno 17394 bound_to 11000
  139.8703  134.9637  156.4471 LP  0  0  0  0  0  0  0  0  0  0  0  0  # atno 17395 bound_to 11000

$$$$
