AV-unprocessed.smi:3085|AV-procd|sdf|11758|dock2
  -GOLD-   2272017143D 1   1.00000     0.00000
 Structure written by MMmdl.
 28 29  0  0  0  0  0  0  0  0  2 V2000
  149.4559  131.1946  154.1584 C   0  0  0  0  0  0  0  0  0  0  0  0
  149.4988  132.7242  154.0700 C   0  0  0  0  0  0  0  0  0  0  0  0
  148.2884  133.2953  153.4072 C   0  0  0  0  0  0  0  0  0  0  0  0
  147.9311  132.9520  152.1612 N   0  0  0  0  0  0  0  0  0  0  0  0
  146.8063  133.6564  151.9667 C   0  0  0  0  0  0  0  0  0  0  0  0
  146.0448  133.5959  150.6800 C   0  0  2  0  0  0  0  0  0  0  0  0
  144.7009  134.3463  150.7567 C   0  0  0  0  0  0  0  0  0  0  0  0
  143.9485  134.1648  149.5001 N   0  3  0  0  0  0  0  0  0  0  0  0
  143.7744  132.7349  149.1760 C   0  0  0  0  0  0  0  0  0  0  0  0
  145.1406  132.0268  149.1532 C   0  0  0  0  0  0  0  0  0  0  0  0
  145.8037  132.2192  150.3985 O   0  0  0  0  0  0  0  0  0  0  0  0
  146.4690  134.4041  153.0230 N   0  0  0  0  0  0  0  0  0  0  0  0
  147.4441  134.1615  153.9749 N   0  0  0  0  0  0  0  0  0  0  0  0
  148.3951  132.3158  151.5291 H   0  0  0  0  0  0  0  0  0  0  0  0
  150.3521  130.8082  154.6439 H   0  0  0  0  0  0  0  0  0  0  0  0
  149.3929  130.7446  153.1674 H   0  0  0  0  0  0  0  0  0  0  0  0
  148.5939  130.8581  154.7354 H   0  0  0  0  0  0  0  0  0  0  0  0
  149.5820  133.1497  155.0708 H   0  0  0  0  0  0  0  0  0  0  0  0
  150.3878  133.0409  153.5236 H   0  0  0  0  0  0  0  0  0  0  0  0
  146.6664  134.0205  149.8888 H   0  0  0  0  0  0  0  0  0  0  0  0
  144.1002  133.9702  151.5864 H   0  0  0  0  0  0  0  0  0  0  0  0
  144.8619  135.4103  150.9320 H   0  0  0  0  0  0  0  0  0  0  0  0
  143.0420  134.6026  149.5847 H   0  0  0  0  0  0  0  0  0  0  0  0
  143.1250  132.2741  149.9216 H   0  0  0  0  0  0  0  0  0  0  0  0
  143.2754  132.6397  148.2113 H   0  0  0  0  0  0  0  0  0  0  0  0
  145.0069  130.9579  148.9859 H   0  0  0  0  0  0  0  0  0  0  0  0
  145.7605  132.4015  148.3372 H   0  0  0  0  0  0  0  0  0  0  0  0
  144.4594  134.6070  148.7493 H   0  0  0  0  0  0  0  0  0  0  0  0
  1  2  1  0  0  0  0
  1 15  1  0  0  0  0
  1 16  1  0  0  0  0
  1 17  1  0  0  0  0
  2 18  1  0  0  0  0
  2 19  1  0  0  0  0
  2  3  1  0  0  0  0
  3  4  1  0  0  0  0
  3 13  2  0  0  0  0
  4 14  1  0  0  0  0
  4  5  1  0  0  0  0
  5 12  2  0  0  0  0
  5  6  1  0  0  0  0
  6 11  1  0  0  0  0
  6  7  1  0  0  0  0
  6 20  1  0  0  0  0
  7  8  1  0  0  0  0
  7 21  1  0  0  0  0
  7 22  1  0  0  0  0
  8  9  1  0  0  0  0
  8 23  1  0  0  0  0
  8 28  1  0  0  0  0
  9 10  1  0  0  0  0
  9 24  1  0  0  0  0
  9 25  1  0  0  0  0
 10 11  1  0  0  0  0
 10 26  1  0  0  0  0
 10 27  1  0  0  0  0
 12 13  1  0  0  0  0
M  CHG  1   8   1
M  END
> <s_m_source_file>
AV-unprocessed.smi

> <i_m_source_file_index>
3085

> <i_lp_mmshare_version>
43012

> <i_f3d_flags>
0

> <s_epik_input>
W0NIM11bQ0gyXWMxbmMobltuSF0xKVtDQEBIXTJbQ0gyXVtOSF1bQ0gyXVtDSDJdTzI=

> <s_epik_cmdline>
J2VwaWtfcHl0aG9uJywgJy1waCcsICc3LjAnLCAnLXRuJywgJzgnLCAnLW1hJywgJzIwMCcsICctbWV0YWxfYmluZGluZycsICctaW1hZScsICc8aW5maWxlLm1hZT4nLCAnLW9tYWUnLCAnPG91dGZpbGUubWFlPic=

> <r_lp_tautomer_probability>
0.0517155

> <r_epik_Ionization_Penalty>
0.290065

> <r_epik_Ionization_Penalty_Charging>
0.125708

> <r_epik_Ionization_Penalty_Neutral>
0.164357

> <r_epik_State_Penalty>
2.26879

> <r_epik_Charging_Adjusted_Penalty>
2.39449

> <i_epik_Tot_Q>
1

> <i_epik_Tot_abs_Q>
1

> <r_epik_Metal_State_Penalty>
2.49092

> <b_epik_Metal_Only>
0

> <s_lp_Force_Field>
OPLS_2005

> <r_lp_Energy>
12.4164

> <b_lp_Chiralities_Consistent>
1

> <s_lp_Variant>
AV-unprocessed.smi:3085-9

> <Gold.Version>
5.8.1

> <Gold.Id.Protein>
6NUR|6NUR_protein|mol2

> <Gold.PLP.Fitness>
38.0479

> <Gold.PLP.PLP>
-26.3027

> <Gold.PLP.part.hbond>
-3.0000

> <Gold.PLP.part.metal>
0.0000

> <Gold.PLP.part.buried>
-3.7781

> <Gold.PLP.part.nonpolar>
-20.2465

> <Gold.PLP.part.repulsive>
0.4460

> <Gold.PLP.ligand.clash>
0.0000

> <Gold.PLP.ligand.torsion>
0.1163

> <Gold.PLP.Chemscore.Hbond>
3.9920

> <Gold.PLP.Chemscore.CHOScore>
0.0000

> <Gold.PLP.Chemscore.Metal>
0.0000

> <Gold.Chemscore.Hbonds>
donor molecule, donor type, donor heavy atom, donor atom, acceptor molecule, acceptor atom, score
      L1  H     4    14       P1 10747  1.00
      L1  H     8    23       P1 10186  1.97
      L1  H     8    28       P1  7921  1.00

> <Gold.PLP.Chemscore.Internal.Correction>
0.0018

> <Gold.Rescore>
     Score         DG    S(hbond)    S(metal)    S(lipo)     H(rot)  DE(clash)    DE(int)     intcor
     17.58     -17.76       2.84        0.00      52.42       1.30       0.07       0.12       ----

> <Gold.Chemscore.Fitness>
17.5776

> <Gold.Chemscore.DG>
-17.7650

> <Gold.Chemscore.ZeroCoef>
-5.4800

> <Gold.Chemscore.Hbond>
2.8392

> <Gold.Chemscore.Metal>
0.0000

> <Gold.Chemscore.Lipo>
52.4180

> <Gold.Chemscore.Internal_Hbond>
0.0000

> <Gold.Chemscore.DEClash>
0.0670

> <Gold.Chemscore.DEInternal>
0.1204

> <Gold.Chemscore.Rot>
1.3011

> <Gold.Chemscore.Internal.Correction>
   9.000000E+99

> <Gold.Chemscore.Hbonds>
donor molecule, donor type, donor heavy atom, donor atom, acceptor molecule, acceptor atom, score
      L1  H     4    14       P1 10747  0.96
      L1  H     8    23       P1 10186  0.83
      L1  H     8    28       P1  7921  0.90

> <Gold.Chemscore.Hbond.Weighted>
-9.4829

> <Gold.Chemscore.Metal.Weighted>
-0.0000

> <Gold.Chemscore.Lipo.Weighted>
-6.1329

> <Gold.Chemscore.Internal_Hbond.Weighted>
0.0000

> <Gold.Chemscore.DEClash.Weighted>
0.0670

> <Gold.Chemscore.DEInternal.Weighted>
0.1204

> <Gold.Chemscore.Rot.Weighted>
3.3308

> <Gold.Chemscore.Internal.Correction.Weighted>
   9.000000E+99

> <Gold.Protein.RotatedTorsions>
[ 6907 6896 6895 6894 ] final  -55.41 input  -60.11 | X-H torsion
[ 7974 7965 7964 7962 ] final  101.60 input  175.53 | X-H torsion
[ 8008 7997 7996 7995 ] final  117.72 input   59.86 | X-H torsion
[ 10167 10162 10161 10158 ] final   25.91 input  -65.29 | X-H torsion
[ 10718 10713 10712 10709 ] final -166.87 input   66.30 | X-H torsion
[ 10763 10752 10751 10750 ] final  -33.63 input  -60.55 | X-H torsion
[ 11005 11000 10999 10996 ] final    3.20 input  -57.11 | X-H torsion

> <Gold.Protein.ActiveResidues>
 VAL166  LYS551  ARG553  GLY616  TRP617  ASP618  TYR619  PRO620  LYS621  CYS622 
 ASP623  PHE694  ASN695  SER759  ASP760  ASP761  ALA762  ILE779  LEU786  VAL792 
 PHE793  MET794  SER795  GLU796  ALA797  LYS798  CYS799  TRP800  GLU811  SER814 

> <Gold.Protein.RotatedAtoms>
  150.8254  134.7482  159.6807 H   0  0  0  0  0  0  0  0  0  0  0  0  # atno 6907 bound_to 6896
  152.4365  134.5673  159.9921 H   0  0  0  0  0  0  0  0  0  0  0  0  # atno 6908 bound_to 6896
  151.5846  133.3336  159.3051 H   0  0  0  0  0  0  0  0  0  0  0  0  # atno 6909 bound_to 6896
  145.3702  139.2400  143.3459 H   0  0  0  0  0  0  0  0  0  0  0  0  # atno 7974 bound_to 7965
  156.2509  140.2890  156.0723 H   0  0  0  0  0  0  0  0  0  0  0  0  # atno 8008 bound_to 7997
  155.1657  140.0400  157.2869 H   0  0  0  0  0  0  0  0  0  0  0  0  # atno 8009 bound_to 7997
  154.6361  140.2511  155.7383 H   0  0  0  0  0  0  0  0  0  0  0  0  # atno 8010 bound_to 7997
  140.5067  144.0227  150.6355 H   0  0  0  0  0  0  0  0  0  0  0  0  # atno 10167 bound_to 10162
  156.6741  130.9096  151.3048 H   0  0  0  0  0  0  0  0  0  0  0  0  # atno 10718 bound_to 10713
  153.8334  135.6864  153.4811 H   0  0  0  0  0  0  0  0  0  0  0  0  # atno 10763 bound_to 10752
  153.1497  135.4623  154.9616 H   0  0  0  0  0  0  0  0  0  0  0  0  # atno 10764 bound_to 10752
  154.7877  135.3290  154.7795 H   0  0  0  0  0  0  0  0  0  0  0  0  # atno 10765 bound_to 10752
  140.5958  133.9882  155.8109 H   0  0  0  0  0  0  0  0  0  0  0  0  # atno 11005 bound_to 11000
  146.2889  140.4351  142.8747 LP  0  0  0  0  0  0  0  0  0  0  0  0  # atno 17320 bound_to 7965
  144.8582  140.7101  143.6124 LP  0  0  0  0  0  0  0  0  0  0  0  0  # atno 17321 bound_to 7965
  140.3538  143.2947  152.0458 LP  0  0  0  0  0  0  0  0  0  0  0  0  # atno 17342 bound_to 10162
  139.4885  144.6354  151.6986 LP  0  0  0  0  0  0  0  0  0  0  0  0  # atno 17343 bound_to 10162
  157.7067  130.9393  150.0953 LP  0  0  0  0  0  0  0  0  0  0  0  0  # atno 17370 bound_to 10713
  156.1916  130.3655  149.8902 LP  0  0  0  0  0  0  0  0  0  0  0  0  # atno 17371 bound_to 10713
  141.0905  133.9924  157.3244 LP  0  0  0  0  0  0  0  0  0  0  0  0  # atno 17394 bound_to 11000
  139.9254  135.0201  156.8215 LP  0  0  0  0  0  0  0  0  0  0  0  0  # atno 17395 bound_to 11000

$$$$
