AV-unprocessed.smi:2288|AV-procd|sdf|9207|dock7
  -GOLD-   2272012423D 1   1.00000     0.00000
 Structure written by MMmdl.
 40 41  0  0  0  0  0  0  0  0  1 V2000
  151.6323  145.3785  158.8773 C   0  0  0  0  0  0  0  0  0  0  0  0
  152.1540  144.2495  159.7420 C   0  0  0  0  0  0  0  0  0  0  0  0
  152.1879  144.3819  161.1453 C   0  0  0  0  0  0  0  0  0  0  0  0
  152.6793  143.3302  161.9446 C   0  0  0  0  0  0  0  0  0  0  0  0
  152.7158  143.4816  163.4513 C   0  0  0  0  0  0  0  0  0  0  0  0
  153.1326  142.1413  161.3372 C   0  0  0  0  0  0  0  0  0  0  0  0
  153.0974  141.9983  159.9340 C   0  0  0  0  0  0  0  0  0  0  0  0
  153.6033  140.7141  159.2937 C   0  0  1  0  0  0  0  0  0  0  0  0
  154.6492  140.1353  160.0497 O   0  0  0  0  0  0  0  0  0  0  0  0
  152.4624  139.6821  159.1549 C   0  0  0  0  0  0  0  0  0  0  0  0
  151.8495  139.7007  157.8159 N   0  0  0  0  0  0  0  0  0  0  0  0
  150.6050  140.3428  157.7099 C   0  0  0  0  0  0  0  0  0  0  0  0
  149.9767  140.4247  156.5828 N   0  0  0  0  0  0  0  0  0  0  0  0
  150.5349  139.8625  155.4311 C   0  0  0  0  0  0  0  0  0  0  0  0
  149.7162  140.0189  154.1618 C   0  0  0  0  0  0  0  0  0  0  0  0
  151.7344  139.2203  155.4677 C   0  0  0  0  0  0  0  0  0  0  0  0
  152.3902  138.5880  154.2463 C   0  0  0  0  0  0  0  0  0  0  0  0
  152.4592  139.1158  156.7444 C   0  0  0  0  0  0  0  0  0  0  0  0
  153.5438  138.5398  156.8521 O   0  0  0  0  0  0  0  0  0  0  0  0
  152.6104  143.0597  159.1398 C   0  0  0  0  0  0  0  0  0  0  0  0
  151.2842  146.2162  159.4825 H   0  0  0  0  0  0  0  0  0  0  0  0
  150.7992  145.0317  158.2655 H   0  0  0  0  0  0  0  0  0  0  0  0
  152.4185  145.7405  158.2145 H   0  0  0  0  0  0  0  0  0  0  0  0
  151.8391  145.2917  161.6119 H   0  0  0  0  0  0  0  0  0  0  0  0
  153.3095  142.6933  163.9152 H   0  0  0  0  0  0  0  0  0  0  0  0
  151.7059  143.4351  163.8589 H   0  0  0  0  0  0  0  0  0  0  0  0
  153.1541  144.4412  163.7272 H   0  0  0  0  0  0  0  0  0  0  0  0
  153.5122  141.3362  161.9495 H   0  0  0  0  0  0  0  0  0  0  0  0
  154.0094  140.9633  158.3126 H   0  0  0  0  0  0  0  0  0  0  0  0
  154.3142  139.3632  160.4800 H   0  0  0  0  0  0  0  0  0  0  0  0
  152.8082  138.6870  159.4428 H   0  0  0  0  0  0  0  0  0  0  0  0
  151.6810  139.9133  159.8817 H   0  0  0  0  0  0  0  0  0  0  0  0
  150.2103  140.7595  158.6383 H   0  0  0  0  0  0  0  0  0  0  0  0
  150.2762  140.5791  153.4126 H   0  0  0  0  0  0  0  0  0  0  0  0
  148.7853  140.5542  154.3529 H   0  0  0  0  0  0  0  0  0  0  0  0
  149.4606  139.0425  153.7496 H   0  0  0  0  0  0  0  0  0  0  0  0
  152.5231  137.5171  154.4037 H   0  0  0  0  0  0  0  0  0  0  0  0
  153.3726  139.0296  154.0759 H   0  0  0  0  0  0  0  0  0  0  0  0
  151.8116  138.7163  153.3331 H   0  0  0  0  0  0  0  0  0  0  0  0
  152.5883  142.9640  158.0637 H   0  0  0  0  0  0  0  0  0  0  0  0
  1  2  1  0  0  0  0
  1 21  1  0  0  0  0
  1 22  1  0  0  0  0
  1 23  1  0  0  0  0
  2 20  1  0  0  0  0
  2  3  2  0  0  0  0
  3  4  1  0  0  0  0
  3 24  1  0  0  0  0
  4  5  1  0  0  0  0
  4  6  2  0  0  0  0
  5 25  1  0  0  0  0
  5 26  1  0  0  0  0
  5 27  1  0  0  0  0
  6  7  1  0  0  0  0
  6 28  1  0  0  0  0
  7  8  1  0  0  0  0
  7 20  2  0  0  0  0
  8  9  1  0  0  0  0
  8 10  1  0  0  0  0
  8 29  1  0  0  0  0
  9 30  1  0  0  0  0
 10 11  1  0  0  0  0
 10 31  1  0  0  0  0
 10 32  1  0  0  0  0
 11 18  1  0  0  0  0
 11 12  1  0  0  0  0
 12 13  2  0  0  0  0
 12 33  1  0  0  0  0
 13 14  1  0  0  0  0
 14 15  1  0  0  0  0
 14 16  2  0  0  0  0
 15 34  1  0  0  0  0
 15 35  1  0  0  0  0
 15 36  1  0  0  0  0
 16 17  1  0  0  0  0
 16 18  1  0  0  0  0
 17 37  1  0  0  0  0
 17 38  1  0  0  0  0
 17 39  1  0  0  0  0
 18 19  2  0  0  0  0
 20 40  1  0  0  0  0
M  END
> <s_m_source_file>
AV-unprocessed.smi

> <i_m_source_file_index>
2288

> <i_lp_mmshare_version>
43012

> <i_f3d_flags>
0

> <s_epik_input>
W0NIM11jMVtjSF1jKFtDSDNdKVtjSF1jKFtjSF0xKVtDQEhdKFtPSF0pW0NIMl1uMltjSF1uYyhbQ0gzXSljKFtDSDNdKWMyPU8=

> <s_epik_cmdline>
J2VwaWtfcHl0aG9uJywgJy1waCcsICc3LjAnLCAnLXRuJywgJzgnLCAnLW1hJywgJzIwMCcsICctbWV0YWxfYmluZGluZycsICctaW1hZScsICc8aW5maWxlLm1hZT4nLCAnLW9tYWUnLCAnPG91dGZpbGUubWFlPic=

> <r_lp_tautomer_probability>
1

> <r_epik_Ionization_Penalty>
5.07027e-05

> <r_epik_Ionization_Penalty_Charging>
7.56727e-08

> <r_epik_Ionization_Penalty_Neutral>
5.06271e-05

> <r_epik_State_Penalty>
-0

> <r_epik_Charging_Adjusted_Penalty>
7.56727e-08

> <i_epik_Tot_Q>
0

> <i_epik_Tot_abs_Q>
0

> <r_epik_Metal_State_Penalty>
-0

> <b_epik_Metal_Only>
0

> <s_lp_Force_Field>
OPLS_2005

> <r_lp_Energy>
19.2499

> <b_lp_Chiralities_Consistent>
1

> <s_lp_Variant>
AV-unprocessed.smi:2288-2

> <Gold.Version>
5.8.1

> <Gold.Id.Protein>
6NUR|6NUR_protein|mol2

> <Gold.PLP.Fitness>
48.1820

> <Gold.PLP.PLP>
-48.4413

> <Gold.PLP.part.hbond>
-1.0000

> <Gold.PLP.part.metal>
0.0000

> <Gold.PLP.part.buried>
-4.2097

> <Gold.PLP.part.nonpolar>
-41.9975

> <Gold.PLP.part.repulsive>
0.0116

> <Gold.PLP.ligand.clash>
0.0000

> <Gold.PLP.ligand.torsion>
1.5002

> <Gold.PLP.Chemscore.Hbond>
0.9120

> <Gold.PLP.Chemscore.CHOScore>
0.0000

> <Gold.PLP.Chemscore.Metal>
0.0000

> <Gold.Chemscore.Hbonds>
donor molecule, donor type, donor heavy atom, donor atom, acceptor molecule, acceptor atom, score
      P1  H  7997  8010       L1    19  0.59

> <Gold.PLP.Chemscore.Internal.Correction>
0.0050

> <Gold.Rescore>
     Score         DG    S(hbond)    S(metal)    S(lipo)     H(rot)  DE(clash)    DE(int)     intcor
     17.82     -19.16       0.94        0.00     131.39       1.89       0.06       1.29       ----

> <Gold.Chemscore.Fitness>
17.8169

> <Gold.Chemscore.DG>
-19.1630

> <Gold.Chemscore.ZeroCoef>
-5.4800

> <Gold.Chemscore.Hbond>
0.9433

> <Gold.Chemscore.Metal>
0.0000

> <Gold.Chemscore.Lipo>
131.3879

> <Gold.Chemscore.Internal_Hbond>
0.0000

> <Gold.Chemscore.DEClash>
0.0552

> <Gold.Chemscore.DEInternal>
1.2909

> <Gold.Chemscore.Rot>
1.8907

> <Gold.Chemscore.Internal.Correction>
   9.000000E+99

> <Gold.Chemscore.Hbonds>
donor molecule, donor type, donor heavy atom, donor atom, acceptor molecule, acceptor atom, score
      P1  H  7997  8010       L1    19  0.05

> <Gold.Chemscore.Hbond.Weighted>
-3.1507

> <Gold.Chemscore.Metal.Weighted>
-0.0000

> <Gold.Chemscore.Lipo.Weighted>
-15.3724

> <Gold.Chemscore.Internal_Hbond.Weighted>
0.0000

> <Gold.Chemscore.DEClash.Weighted>
0.0552

> <Gold.Chemscore.DEInternal.Weighted>
1.2909

> <Gold.Chemscore.Rot.Weighted>
4.8401

> <Gold.Chemscore.Internal.Correction.Weighted>
   9.000000E+99

> <Gold.Protein.RotatedTorsions>
[ 6907 6896 6895 6894 ] final  -11.92 input  -60.11 | X-H torsion
[ 7974 7965 7964 7962 ] final -116.24 input  175.53 | X-H torsion
[ 8008 7997 7996 7995 ] final   52.38 input   59.86 | X-H torsion
[ 10167 10162 10161 10158 ] final   71.01 input  -65.29 | X-H torsion
[ 10718 10713 10712 10709 ] final   43.99 input   66.30 | X-H torsion
[ 10763 10752 10751 10750 ] final  -89.18 input  -60.55 | X-H torsion
[ 11005 11000 10999 10996 ] final  -15.78 input  -57.11 | X-H torsion

> <Gold.Protein.ActiveResidues>
 VAL166  LYS551  ARG553  GLY616  TRP617  ASP618  TYR619  PRO620  LYS621  CYS622 
 ASP623  PHE694  ASN695  SER759  ASP760  ASP761  ALA762  ILE779  LEU786  VAL792 
 PHE793  MET794  SER795  GLU796  ALA797  LYS798  CYS799  TRP800  GLU811  SER814 

> <Gold.Protein.RotatedAtoms>
  151.3786  135.0936  159.9488 H   0  0  0  0  0  0  0  0  0  0  0  0  # atno 6907 bound_to 6896
  152.5115  133.9094  159.7491 H   0  0  0  0  0  0  0  0  0  0  0  0  # atno 6908 bound_to 6896
  150.9523  133.6481  159.2798 H   0  0  0  0  0  0  0  0  0  0  0  0  # atno 6909 bound_to 6896
  145.0991  140.8540  143.3937 H   0  0  0  0  0  0  0  0  0  0  0  0  # atno 7974 bound_to 7965
  155.4509  140.3458  155.4301 H   0  0  0  0  0  0  0  0  0  0  0  0  # atno 8008 bound_to 7997
  156.1221  140.1490  156.9220 H   0  0  0  0  0  0  0  0  0  0  0  0  # atno 8009 bound_to 7997
  154.4831  140.0863  156.7402 H   0  0  0  0  0  0  0  0  0  0  0  0  # atno 8010 bound_to 7997
  140.0507  144.5314  150.7365 H   0  0  0  0  0  0  0  0  0  0  0  0  # atno 10167 bound_to 10162
  157.4219  130.7974  149.7523 H   0  0  0  0  0  0  0  0  0  0  0  0  # atno 10718 bound_to 10713
  154.6525  135.5350  153.7919 H   0  0  0  0  0  0  0  0  0  0  0  0  # atno 10763 bound_to 10752
  153.0394  135.6486  154.0995 H   0  0  0  0  0  0  0  0  0  0  0  0  # atno 10764 bound_to 10752
  154.0911  135.2940  155.3251 H   0  0  0  0  0  0  0  0  0  0  0  0  # atno 10765 bound_to 10752
  140.8001  133.8220  155.9462 H   0  0  0  0  0  0  0  0  0  0  0  0  # atno 11005 bound_to 11000
  145.0977  139.2845  143.5702 LP  0  0  0  0  0  0  0  0  0  0  0  0  # atno 17320 bound_to 7965
  146.3530  140.0534  142.8634 LP  0  0  0  0  0  0  0  0  0  0  0  0  # atno 17321 bound_to 7965
  140.7218  143.2596  151.4253 LP  0  0  0  0  0  0  0  0  0  0  0  0  # atno 17342 bound_to 10162
  139.5955  144.1407  152.2138 LP  0  0  0  0  0  0  0  0  0  0  0  0  # atno 17343 bound_to 10162
  155.9883  130.3960  150.3122 LP  0  0  0  0  0  0  0  0  0  0  0  0  # atno 17370 bound_to 10713
  157.1271  131.0262  151.2985 LP  0  0  0  0  0  0  0  0  0  0  0  0  # atno 17371 bound_to 10713
  140.9303  134.2030  157.4868 LP  0  0  0  0  0  0  0  0  0  0  0  0  # atno 17394 bound_to 11000
  139.8722  134.9830  156.5179 LP  0  0  0  0  0  0  0  0  0  0  0  0  # atno 17395 bound_to 11000

$$$$
