AV-unprocessed.smi:196|AV-procd|sdf|1529|dock6
  -GOLD-   2262019383D 1   1.00000     0.00000
 Structure written by MMmdl.
 47 50  0  0  0  0  0  0  0  0  1 V2000
  146.0372  140.3195  156.0949 C   0  0  0  0  0  0  0  0  0  0  0  0
  146.6822  139.5558  154.9269 C   0  0  1  0  0  0  0  0  0  0  0  0
  145.8270  138.5161  154.4753 O   0  0  0  0  0  0  0  0  0  0  0  0
  146.2921  138.1253  153.1962 C   0  0  0  0  0  0  0  0  0  0  0  0
  146.5643  139.4605  152.5138 C   0  0  0  0  0  0  0  0  0  0  0  0
  147.0313  140.3717  153.6535 C   0  0  1  0  0  0  0  0  0  0  0  0
  146.2900  141.5791  153.5853 O   0  0  0  0  0  0  0  0  0  0  0  0
  148.5366  140.7205  153.5430 C   0  0  0  0  0  0  0  0  0  0  0  0
  149.1537  141.0343  154.8231 N   0  0  0  0  0  0  0  0  0  0  0  0
  148.7104  141.9515  155.7488 C   0  0  0  0  0  0  0  0  0  0  0  0
  149.4292  142.0389  156.8337 N   0  0  0  0  0  0  0  0  0  0  0  0
  150.4586  141.1254  156.6375 C   0  0  0  0  0  0  0  0  0  0  0  0
  151.5773  140.7060  157.4144 C   0  0  0  0  0  0  0  0  0  0  0  0
  151.8609  141.2075  158.6472 N   0  0  0  0  0  0  0  0  0  0  0  0
  151.0551  142.3117  159.1578 C   0  0  0  0  0  0  0  0  0  0  0  0
  152.0230  143.2099  159.9269 C   0  0  2  0  0  0  0  0  0  0  0  0
  152.5264  144.1291  159.1014 F   0  0  0  0  0  0  0  0  0  0  0  0
  153.1270  142.2481  160.3530 C   0  0  0  0  0  0  0  0  0  0  0  0
  153.2299  141.2605  159.1792 C   0  0  1  0  0  0  0  0  0  0  0  0
  153.7988  139.9064  159.6470 C   0  0  0  0  0  0  0  0  0  0  0  0
  153.1170  139.1980  160.5534 N   0  0  0  0  0  0  0  0  0  0  0  0
  154.8604  139.4999  159.1802 O   0  0  0  0  0  0  0  0  0  0  0  0
  152.3749  139.7418  156.8830 N   0  0  0  0  0  0  0  0  0  0  0  0
  152.1135  139.2326  155.6762 C   0  0  0  0  0  0  0  0  0  0  0  0
  151.1157  139.5322  154.8438 N   0  0  0  0  0  0  0  0  0  0  0  0
  150.3005  140.4882  155.3736 C   0  0  0  0  0  0  0  0  0  0  0  0
  151.5567  143.7359  160.7605 H   0  0  0  0  0  0  0  0  0  0  0  0
  153.8950  141.6844  158.4248 H   0  0  0  0  0  0  0  0  0  0  0  0
  146.6785  141.1323  156.4362 H   0  0  0  0  0  0  0  0  0  0  0  0
  145.8682  139.6552  156.9422 H   0  0  0  0  0  0  0  0  0  0  0  0
  145.0729  140.7438  155.8141 H   0  0  0  0  0  0  0  0  0  0  0  0
  147.5811  139.0601  155.2946 H   0  0  0  0  0  0  0  0  0  0  0  0
  147.2092  137.5427  153.2989 H   0  0  0  0  0  0  0  0  0  0  0  0
  145.5559  137.5219  152.6649 H   0  0  0  0  0  0  0  0  0  0  0  0
  147.2891  139.3686  151.7042 H   0  0  0  0  0  0  0  0  0  0  0  0
  145.6336  139.8253  152.0756 H   0  0  0  0  0  0  0  0  0  0  0  0
  145.4039  141.3733  153.3301 H   0  0  0  0  0  0  0  0  0  0  0  0
  149.0813  139.8884  153.0950 H   0  0  0  0  0  0  0  0  0  0  0  0
  148.6823  141.5717  152.8765 H   0  0  0  0  0  0  0  0  0  0  0  0
  147.8234  142.5496  155.5986 H   0  0  0  0  0  0  0  0  0  0  0  0
  150.5419  142.8696  158.3729 H   0  0  0  0  0  0  0  0  0  0  0  0
  150.3000  141.9029  159.8300 H   0  0  0  0  0  0  0  0  0  0  0  0
  154.0693  142.7566  160.5601 H   0  0  0  0  0  0  0  0  0  0  0  0
  152.8202  141.7344  161.2664 H   0  0  0  0  0  0  0  0  0  0  0  0
  153.4784  138.3112  160.8735 H   0  0  0  0  0  0  0  0  0  0  0  0
  152.2457  139.5553  160.9173 H   0  0  0  0  0  0  0  0  0  0  0  0
  152.8016  138.4758  155.3294 H   0  0  0  0  0  0  0  0  0  0  0  0
  1  2  1  0  0  0  0
  1 29  1  0  0  0  0
  1 30  1  0  0  0  0
  1 31  1  0  0  0  0
  2  6  1  0  0  0  0
  2  3  1  0  0  0  0
  2 32  1  0  0  0  0
  3  4  1  0  0  0  0
  4  5  1  0  0  0  0
  4 33  1  0  0  0  0
  4 34  1  0  0  0  0
  5  6  1  0  0  0  0
  5 35  1  0  0  0  0
  5 36  1  0  0  0  0
  6  7  1  0  0  0  0
  6  8  1  0  0  0  0
  7 37  1  0  0  0  0
  8  9  1  0  0  0  0
  8 38  1  0  0  0  0
  8 39  1  0  0  0  0
  9 26  1  0  0  0  0
  9 10  1  0  0  0  0
 10 11  2  0  0  0  0
 10 40  1  0  0  0  0
 11 12  1  0  0  0  0
 12 26  2  0  0  0  0
 12 13  1  0  0  0  0
 13 14  1  0  0  0  0
 13 23  2  0  0  0  0
 14 19  1  0  0  0  0
 14 15  1  0  0  0  0
 15 16  1  0  0  0  0
 15 41  1  0  0  0  0
 15 42  1  0  0  0  0
 16 27  1  0  0  0  0
 16 17  1  0  0  0  0
 16 18  1  0  0  0  0
 18 19  1  0  0  0  0
 18 43  1  0  0  0  0
 18 44  1  0  0  0  0
 19 28  1  0  0  0  0
 19 20  1  0  0  0  0
 20 21  1  0  0  0  0
 20 22  2  0  0  0  0
 21 45  1  0  0  0  0
 21 46  1  0  0  0  0
 23 24  1  0  0  0  0
 24 25  2  0  0  0  0
 24 47  1  0  0  0  0
 25 26  1  0  0  0  0
M  END
> <s_m_source_file>
AV-unprocessed.smi

> <i_m_source_file_index>
196

> <i_lp_mmshare_version>
43012

> <i_f3d_flags>
0

> <s_epik_input>
W0NIMl0xW0NIMl1PW0NAQEhdKFtDSDNdKVtDQEBdMShbT0hdKVtDSDJdbihbY0hdbjIpYyhjMjMpbltjSF1uYzNONFtDSDJdW0NASF0oRilbQ0gyXVtDQEhdNEMoPU8pW05IMl0=

> <s_epik_cmdline>
J2VwaWtfcHl0aG9uJywgJy1waCcsICc3LjAnLCAnLXRuJywgJzgnLCAnLW1hJywgJzIwMCcsICctbWV0YWxfYmluZGluZycsICctaW1hZScsICc8aW5maWxlLm1hZT4nLCAnLW9tYWUnLCAnPG91dGZpbGUubWFlPic=

> <r_lp_tautomer_probability>
1

> <r_epik_Ionization_Penalty>
0.000857933

> <r_epik_Ionization_Penalty_Charging>
0

> <r_epik_Ionization_Penalty_Neutral>
0.000857933

> <r_epik_State_Penalty>
0.000462053

> <r_epik_Charging_Adjusted_Penalty>
0.000462053

> <i_epik_Tot_Q>
0

> <i_epik_Tot_abs_Q>
0

> <r_epik_Metal_State_Penalty>
-0

> <b_epik_Metal_Only>
0

> <s_lp_Force_Field>
OPLS_2005

> <r_lp_Energy>
42.3272

> <b_lp_Chiralities_Consistent>
1

> <s_lp_Variant>
AV-unprocessed.smi:196-2

> <Gold.Version>
5.8.1

> <Gold.Id.Protein>
6NUR|6NUR_protein|mol2

> <Gold.PLP.Fitness>
47.9449

> <Gold.PLP.PLP>
-40.7395

> <Gold.PLP.part.hbond>
-4.0000

> <Gold.PLP.part.metal>
0.0000

> <Gold.PLP.part.buried>
2.9335

> <Gold.PLP.part.nonpolar>
-41.1577

> <Gold.PLP.part.repulsive>
1.0286

> <Gold.PLP.ligand.clash>
0.0000

> <Gold.PLP.ligand.torsion>
0.6877

> <Gold.PLP.Chemscore.Hbond>
2.4500

> <Gold.PLP.Chemscore.CHOScore>
0.3202

> <Gold.PLP.Chemscore.Metal>
0.0000

> <Gold.Chemscore.Hbonds>
donor molecule, donor type, donor heavy atom, donor atom, acceptor molecule, acceptor atom, score
      L1  H     7    37       P1 10175  0.70
      P1  H  7989  7998       L1    25  0.35
      P1  H  7997  8008       L1    22  1.00
      L1  C    10    40       P1  8028  0.38

> <Gold.PLP.Chemscore.Internal.Correction>
0.2704

> <Gold.Rescore>
     Score         DG    S(hbond)    S(metal)    S(lipo)     H(rot)  DE(clash)    DE(int)     intcor
      9.79     -13.32       1.84        0.00      71.29       2.60       1.50       2.04       ----

> <Gold.Chemscore.Fitness>
9.7911

> <Gold.Chemscore.DG>
-13.3246

> <Gold.Chemscore.ZeroCoef>
-5.4800

> <Gold.Chemscore.Hbond>
1.8418

> <Gold.Chemscore.Metal>
0.0000

> <Gold.Chemscore.Lipo>
71.2897

> <Gold.Chemscore.Internal_Hbond>
0.0000

> <Gold.Chemscore.DEClash>
1.4982

> <Gold.Chemscore.DEInternal>
2.0353

> <Gold.Chemscore.Rot>
2.5968

> <Gold.Chemscore.Internal.Correction>
   9.000000E+99

> <Gold.Chemscore.Hbonds>
donor molecule, donor type, donor heavy atom, donor atom, acceptor molecule, acceptor atom, score
      L1  H     7    37       P1 10175  0.12
      P1  H  7989  7998       L1    25  0.01
      P1  H  7997  8008       L1    22  0.78

> <Gold.Chemscore.Hbond.Weighted>
-6.1514

> <Gold.Chemscore.Metal.Weighted>
-0.0000

> <Gold.Chemscore.Lipo.Weighted>
-8.3409

> <Gold.Chemscore.Internal_Hbond.Weighted>
0.0000

> <Gold.Chemscore.DEClash.Weighted>
1.4982

> <Gold.Chemscore.DEInternal.Weighted>
2.0353

> <Gold.Chemscore.Rot.Weighted>
6.6477

> <Gold.Chemscore.Internal.Correction.Weighted>
   9.000000E+99

> <Gold.Protein.RotatedTorsions>
[ 6907 6896 6895 6894 ] final -127.47 input  -60.11 | X-H torsion
[ 7974 7965 7964 7962 ] final  -91.41 input  175.53 | X-H torsion
[ 8008 7997 7996 7995 ] final -115.96 input   59.86 | X-H torsion
[ 10167 10162 10161 10158 ] final  106.61 input  -65.29 | X-H torsion
[ 10718 10713 10712 10709 ] final  -38.46 input   66.30 | X-H torsion
[ 10763 10752 10751 10750 ] final -114.32 input  -60.55 | X-H torsion
[ 11005 11000 10999 10996 ] final  111.42 input  -57.11 | X-H torsion

> <Gold.Protein.ActiveResidues>
 VAL166  LYS551  ARG553  GLY616  TRP617  ASP618  TYR619  PRO620  LYS621  CYS622 
 ASP623  PHE694  ASN695  SER759  ASP760  ASP761  ALA762  ILE779  LEU786  VAL792 
 PHE793  MET794  SER795  GLU796  ALA797  LYS798  CYS799  TRP800  GLU811  SER814 

> <Gold.Protein.RotatedAtoms>
  150.9077  133.7037  159.2862 H   0  0  0  0  0  0  0  0  0  0  0  0  # atno 6907 bound_to 6896
  151.4534  135.1030  159.9714 H   0  0  0  0  0  0  0  0  0  0  0  0  # atno 6908 bound_to 6896
  152.4912  133.8457  159.7231 H   0  0  0  0  0  0  0  0  0  0  0  0  # atno 6909 bound_to 6896
  145.4135  140.9546  143.2221 H   0  0  0  0  0  0  0  0  0  0  0  0  # atno 7974 bound_to 7965
  155.0603  140.0393  157.2574 H   0  0  0  0  0  0  0  0  0  0  0  0  # atno 8008 bound_to 7997
  154.7065  140.2684  155.6646 H   0  0  0  0  0  0  0  0  0  0  0  0  # atno 8009 bound_to 7997
  156.2776  140.2730  156.1692 H   0  0  0  0  0  0  0  0  0  0  0  0  # atno 8010 bound_to 7997
  139.6995  144.7096  151.1210 H   0  0  0  0  0  0  0  0  0  0  0  0  # atno 10167 bound_to 10162
  156.3035  130.4243  149.8119 H   0  0  0  0  0  0  0  0  0  0  0  0  # atno 10718 bound_to 10713
  154.8435  135.4422  154.1488 H   0  0  0  0  0  0  0  0  0  0  0  0  # atno 10763 bound_to 10752
  153.2654  135.6940  153.7541 H   0  0  0  0  0  0  0  0  0  0  0  0  # atno 10764 bound_to 10752
  153.6802  135.3404  155.3151 H   0  0  0  0  0  0  0  0  0  0  0  0  # atno 10765 bound_to 10752
  139.8903  134.9507  156.6429 H   0  0  0  0  0  0  0  0  0  0  0  0  # atno 11005 bound_to 11000
  144.8293  139.5656  143.6951 LP  0  0  0  0  0  0  0  0  0  0  0  0  # atno 17320 bound_to 7965
  146.2693  139.6595  142.9307 LP  0  0  0  0  0  0  0  0  0  0  0  0  # atno 17321 bound_to 7965
  140.7705  143.5444  150.9275 LP  0  0  0  0  0  0  0  0  0  0  0  0  # atno 17342 bound_to 10162
  139.9125  143.6702  152.3112 LP  0  0  0  0  0  0  0  0  0  0  0  0  # atno 17343 bound_to 10162
  156.5489  130.8333  151.3293 LP  0  0  0  0  0  0  0  0  0  0  0  0  # atno 17370 bound_to 10713
  157.7374  130.9795  150.2190 LP  0  0  0  0  0  0  0  0  0  0  0  0  # atno 17371 bound_to 10713
  140.7579  133.8842  155.8396 LP  0  0  0  0  0  0  0  0  0  0  0  0  # atno 17394 bound_to 11000
  140.9946  134.1232  157.4376 LP  0  0  0  0  0  0  0  0  0  0  0  0  # atno 17395 bound_to 11000

$$$$
