AV-unprocessed.smi:1236|AV-procd|sdf|5180|dock10
  -GOLD-   22720 4263D 1   1.00000     0.00000
 Structure written by MMmdl.
 39 40  0  0  0  0  0  0  0  0  1 V2000
  146.2878  138.0825  155.2588 C   0  0  0  0  0  0  0  0  0  0  0  0
  146.2354  138.3734  153.7531 C   0  0  1  0  0  0  0  0  0  0  0  0
  147.2075  139.5099  153.3692 C   0  0  0  0  0  0  0  0  0  0  0  0
  148.3666  139.6769  154.2474 N   0  0  0  0  0  0  0  0  0  0  0  0
  149.4786  138.7984  153.8906 C   0  0  0  0  0  0  0  0  0  0  0  0
  150.6859  138.9994  154.8222 C   0  0  0  0  0  0  0  0  0  0  0  0
  151.0891  140.3648  154.7951 O   0  0  0  0  0  0  0  0  0  0  0  0
  150.0442  141.2537  155.1764 C   0  0  0  0  0  0  0  0  0  0  0  0
  148.8357  141.0579  154.2451 C   0  0  0  0  0  0  0  0  0  0  0  0
  146.5694  137.1536  153.0189 N   0  0  0  0  0  0  0  0  0  0  0  0
  145.7291  136.1423  152.7517 C   0  0  0  0  0  0  0  0  0  0  0  0
  144.5578  136.1093  153.1302 O   0  0  0  0  0  0  0  0  0  0  0  0
  146.3349  135.1907  152.0197 N   0  0  0  0  0  0  0  0  0  0  0  0
  145.7842  133.9772  151.5280 C   0  0  0  0  0  0  0  0  0  0  0  0
  144.3761  133.9645  151.4085 C   0  0  0  0  0  0  0  0  0  0  0  0
  143.7315  132.8070  150.9306 C   0  0  0  0  0  0  0  0  0  0  0  0
  144.5129  131.6907  150.5829 C   0  0  0  0  0  0  0  0  0  0  0  0
  145.9088  131.7867  150.7309 C   0  0  0  0  0  0  0  0  0  0  0  0
  146.5284  132.8946  151.1892 N   0  0  0  0  0  0  0  0  0  0  0  0
  146.0261  138.9686  155.8377 H   0  0  0  0  0  0  0  0  0  0  0  0
  147.2838  137.7648  155.5693 H   0  0  0  0  0  0  0  0  0  0  0  0
  145.5859  137.2934  155.5308 H   0  0  0  0  0  0  0  0  0  0  0  0
  145.2135  138.6824  153.5314 H   0  0  0  0  0  0  0  0  0  0  0  0
  147.5490  139.3614  152.3436 H   0  0  0  0  0  0  0  0  0  0  0  0
  146.6395  140.4412  153.3589 H   0  0  0  0  0  0  0  0  0  0  0  0
  149.1724  137.7547  153.9419 H   0  0  0  0  0  0  0  0  0  0  0  0
  149.7823  138.9848  152.8596 H   0  0  0  0  0  0  0  0  0  0  0  0
  150.4373  138.7056  155.8431 H   0  0  0  0  0  0  0  0  0  0  0  0
  151.5200  138.3742  154.5034 H   0  0  0  0  0  0  0  0  0  0  0  0
  149.7640  141.0726  156.2151 H   0  0  0  0  0  0  0  0  0  0  0  0
  150.4083  142.2793  155.1162 H   0  0  0  0  0  0  0  0  0  0  0  0
  149.1098  141.3545  153.2314 H   0  0  0  0  0  0  0  0  0  0  0  0
  148.0302  141.7236  154.5578 H   0  0  0  0  0  0  0  0  0  0  0  0
  147.5115  137.0888  152.6631 H   0  0  0  0  0  0  0  0  0  0  0  0
  147.3006  135.3574  151.7791 H   0  0  0  0  0  0  0  0  0  0  0  0
  143.7911  134.8313  151.6800 H   0  0  0  0  0  0  0  0  0  0  0  0
  142.6566  132.7772  150.8329 H   0  0  0  0  0  0  0  0  0  0  0  0
  144.0554  130.7854  150.2122 H   0  0  0  0  0  0  0  0  0  0  0  0
  146.5451  130.9526  150.4745 H   0  0  0  0  0  0  0  0  0  0  0  0
  1  2  1  0  0  0  0
  1 20  1  0  0  0  0
  1 21  1  0  0  0  0
  1 22  1  0  0  0  0
  2  3  1  0  0  0  0
  2 10  1  0  0  0  0
  2 23  1  0  0  0  0
  3  4  1  0  0  0  0
  3 24  1  0  0  0  0
  3 25  1  0  0  0  0
  4  9  1  0  0  0  0
  4  5  1  0  0  0  0
  5  6  1  0  0  0  0
  5 26  1  0  0  0  0
  5 27  1  0  0  0  0
  6  7  1  0  0  0  0
  6 28  1  0  0  0  0
  6 29  1  0  0  0  0
  7  8  1  0  0  0  0
  8  9  1  0  0  0  0
  8 30  1  0  0  0  0
  8 31  1  0  0  0  0
  9 32  1  0  0  0  0
  9 33  1  0  0  0  0
 10 11  1  0  0  0  0
 10 34  1  0  0  0  0
 11 12  2  0  0  0  0
 11 13  1  0  0  0  0
 13 14  1  0  0  0  0
 13 35  1  0  0  0  0
 14 19  1  0  0  0  0
 14 15  2  0  0  0  0
 15 16  1  0  0  0  0
 15 36  1  0  0  0  0
 16 17  2  0  0  0  0
 16 37  1  0  0  0  0
 17 18  1  0  0  0  0
 17 38  1  0  0  0  0
 18 19  2  0  0  0  0
 18 39  1  0  0  0  0
M  END
> <s_m_source_file>
AV-unprocessed.smi

> <i_m_source_file_index>
1236

> <i_lp_mmshare_version>
43012

> <i_f3d_flags>
0

> <s_epik_input>
W0NIMl0xW0NIMl1PW0NIMl1bQ0gyXU4xW0NIMl1bQ0BASF0oW0NIM10pW05IXUMoPU8pW05IXWMyW2NIXVtjSF1bY0hdW2NIXW4y

> <s_epik_cmdline>
J2VwaWtfcHl0aG9uJywgJy1waCcsICc3LjAnLCAnLXRuJywgJzgnLCAnLW1hJywgJzIwMCcsICctbWV0YWxfYmluZGluZycsICctaW1hZScsICc8aW5maWxlLm1hZT4nLCAnLW9tYWUnLCAnPG91dGZpbGUubWFlPic=

> <r_epik_Ionization_Penalty>
0.26604

> <r_epik_Ionization_Penalty_Charging>
0

> <r_epik_Ionization_Penalty_Neutral>
0.26604

> <r_epik_State_Penalty>
0.257924

> <r_epik_Charging_Adjusted_Penalty>
0.257924

> <i_epik_Tot_Q>
0

> <i_epik_Tot_abs_Q>
0

> <r_epik_Metal_State_Penalty>
0.257923

> <b_epik_Metal_Only>
0

> <s_lp_Force_Field>
OPLS_2005

> <r_lp_Energy>
27.6221

> <b_lp_Chiralities_Consistent>
1

> <s_lp_Variant>
AV-unprocessed.smi:1236-2

> <Gold.Version>
5.8.1

> <Gold.Id.Protein>
6NUR|6NUR_protein|mol2

> <Gold.PLP.Fitness>
41.6428

> <Gold.PLP.PLP>
-31.9776

> <Gold.PLP.part.hbond>
-3.0000

> <Gold.PLP.part.metal>
0.0000

> <Gold.PLP.part.buried>
-4.4748

> <Gold.PLP.part.nonpolar>
-25.4296

> <Gold.PLP.part.repulsive>
0.5350

> <Gold.PLP.ligand.clash>
0.0000

> <Gold.PLP.ligand.torsion>
1.1832

> <Gold.PLP.Chemscore.Hbond>
3.0000

> <Gold.PLP.Chemscore.CHOScore>
1.0000

> <Gold.PLP.Chemscore.Metal>
0.0000

> <Gold.Chemscore.Hbonds>
donor molecule, donor type, donor heavy atom, donor atom, acceptor molecule, acceptor atom, score
      L1  H    10    34       P1  7948  1.00
      L1  H    13    35       P1  7948  1.00
      P1  H  7989  7998       L1     7  0.91
      L1  C    18    39       P1 10747  1.00

> <Gold.PLP.Chemscore.Internal.Correction>
0.0317

> <Gold.Rescore>
     Score         DG    S(hbond)    S(metal)    S(lipo)     H(rot)  DE(clash)    DE(int)     intcor
     16.40     -19.02       2.65        0.00      73.08       1.51       0.16       2.46       ----

> <Gold.Chemscore.Fitness>
16.3972

> <Gold.Chemscore.DG>
-19.0236

> <Gold.Chemscore.ZeroCoef>
-5.4800

> <Gold.Chemscore.Hbond>
2.6527

> <Gold.Chemscore.Metal>
0.0000

> <Gold.Chemscore.Lipo>
73.0790

> <Gold.Chemscore.Internal_Hbond>
0.0000

> <Gold.Chemscore.DEClash>
0.1614

> <Gold.Chemscore.DEInternal>
2.4650

> <Gold.Chemscore.Rot>
1.5104

> <Gold.Chemscore.Internal.Correction>
   9.000000E+99

> <Gold.Chemscore.Hbonds>
donor molecule, donor type, donor heavy atom, donor atom, acceptor molecule, acceptor atom, score
      L1  H    10    34       P1  7948  0.98
      L1  H    13    35       P1  7948  0.98
      P1  H  7989  7998       L1     7  0.49

> <Gold.Chemscore.Hbond.Weighted>
-8.8599

> <Gold.Chemscore.Metal.Weighted>
-0.0000

> <Gold.Chemscore.Lipo.Weighted>
-8.5502

> <Gold.Chemscore.Internal_Hbond.Weighted>
0.0000

> <Gold.Chemscore.DEClash.Weighted>
0.1614

> <Gold.Chemscore.DEInternal.Weighted>
2.4650

> <Gold.Chemscore.Rot.Weighted>
3.8665

> <Gold.Chemscore.Internal.Correction.Weighted>
   9.000000E+99

> <Gold.Protein.RotatedTorsions>
[ 6907 6896 6895 6894 ] final    8.94 input  -60.11 | X-H torsion
[ 7974 7965 7964 7962 ] final -166.54 input  175.53 | X-H torsion
[ 8008 7997 7996 7995 ] final  -77.08 input   59.86 | X-H torsion
[ 10167 10162 10161 10158 ] final  116.05 input  -65.29 | X-H torsion
[ 10718 10713 10712 10709 ] final   95.75 input   66.30 | X-H torsion
[ 10763 10752 10751 10750 ] final  104.04 input  -60.55 | X-H torsion
[ 11005 11000 10999 10996 ] final  176.10 input  -57.11 | X-H torsion

> <Gold.Protein.ActiveResidues>
 VAL166  LYS551  ARG553  GLY616  TRP617  ASP618  TYR619  PRO620  LYS621  CYS622 
 ASP623  PHE694  ASN695  SER759  ASP760  ASP761  ALA762  ILE779  LEU786  VAL792 
 PHE793  MET794  SER795  GLU796  ALA797  LYS798  CYS799  TRP800  GLU811  SER814 

> <Gold.Protein.RotatedAtoms>
  151.7142  135.0907  160.0272 H   0  0  0  0  0  0  0  0  0  0  0  0  # atno 6907 bound_to 6896
  152.3643  133.6332  159.6047 H   0  0  0  0  0  0  0  0  0  0  0  0  # atno 6908 bound_to 6896
  150.7626  133.9290  159.3462 H   0  0  0  0  0  0  0  0  0  0  0  0  # atno 6909 bound_to 6896
  144.7243  140.2652  143.6259 H   0  0  0  0  0  0  0  0  0  0  0  0  # atno 7974 bound_to 7965
  154.5563  140.0716  156.8749 H   0  0  0  0  0  0  0  0  0  0  0  0  # atno 8008 bound_to 7997
  155.2896  140.3377  155.4235 H   0  0  0  0  0  0  0  0  0  0  0  0  # atno 8009 bound_to 7997
  156.2005  140.1720  156.7895 H   0  0  0  0  0  0  0  0  0  0  0  0  # atno 8010 bound_to 7997
  139.6274  144.7110  151.2504 H   0  0  0  0  0  0  0  0  0  0  0  0  # atno 10167 bound_to 10162
  157.6935  131.0556  150.4386 H   0  0  0  0  0  0  0  0  0  0  0  0  # atno 10718 bound_to 10713
  153.3607  135.3956  155.1716 H   0  0  0  0  0  0  0  0  0  0  0  0  # atno 10763 bound_to 10752
  154.8678  135.3679  154.5103 H   0  0  0  0  0  0  0  0  0  0  0  0  # atno 10764 bound_to 10752
  153.5563  135.7082  153.5628 H   0  0  0  0  0  0  0  0  0  0  0  0  # atno 10765 bound_to 10752
  140.3695  134.7043  157.4383 H   0  0  0  0  0  0  0  0  0  0  0  0  # atno 11005 bound_to 11000
  145.8097  139.1998  143.2000 LP  0  0  0  0  0  0  0  0  0  0  0  0  # atno 17320 bound_to 7965
  146.0606  140.7974  142.9736 LP  0  0  0  0  0  0  0  0  0  0  0  0  # atno 17321 bound_to 7965
  140.7419  143.6542  150.8221 LP  0  0  0  0  0  0  0  0  0  0  0  0  # atno 17342 bound_to 10162
  140.0162  143.5590  152.2819 LP  0  0  0  0  0  0  0  0  0  0  0  0  # atno 17343 bound_to 10162
  156.4747  130.4060  149.6497 LP  0  0  0  0  0  0  0  0  0  0  0  0  # atno 17370 bound_to 10713
  156.3565  130.7459  151.2426 LP  0  0  0  0  0  0  0  0  0  0  0  0  # atno 17371 bound_to 10713
  140.0563  134.6059  155.8801 LP  0  0  0  0  0  0  0  0  0  0  0  0  # atno 17394 bound_to 11000
  141.1959  133.6589  156.5666 LP  0  0  0  0  0  0  0  0  0  0  0  0  # atno 17395 bound_to 11000

$$$$
