AV-unprocessed.smi:2061|AV-procd|sdf|8382|dock5
  -GOLD-   2272011 63D 1   1.00000     0.00000
 Structure written by MMmdl.
 45 46  0  0  0  0  0  0  0  0  3 V2000
  146.4462  134.7619  162.7244 C   0  0  0  0  0  0  0  0  0  0  0  0
  147.3952  135.5102  161.8522 C   0  0  0  0  0  0  0  0  0  0  0  0
  148.3888  135.1097  161.0046 C   0  0  0  0  0  0  0  0  0  0  0  0
  148.8877  136.3361  160.4869 C   0  0  0  0  0  0  0  0  0  0  0  0
  149.8945  136.4703  159.6099 N   0  5  0  0  0  0  0  0  0  0  0  0
  149.6488  136.4409  158.2804 C   0  0  0  0  0  0  0  0  0  0  0  0
  148.5584  136.2412  157.7399 O   0  0  0  0  0  0  0  0  0  0  0  0
  150.7382  136.6494  157.5277 N   0  0  0  0  0  0  0  0  0  0  0  0
  150.7764  136.6513  156.0685 C   0  0  0  0  0  0  0  0  0  0  0  0
  151.5752  137.8459  155.4831 C   0  0  2  0  0  0  0  0  0  0  0  0
  152.9972  137.8874  156.0942 C   0  0  0  0  0  0  0  0  0  0  0  0
  150.8028  139.1171  155.6685 N   0  3  1  0  0  0  0  0  0  0  0  0
  151.6090  140.3672  155.7276 C   0  0  0  0  0  0  0  0  0  0  0  0
  150.7227  141.6041  155.9803 C   0  0  2  0  0  0  0  0  0  0  0  0
  150.2142  141.7083  157.4296 C   0  0  0  0  0  0  0  0  0  0  0  0
  149.6594  141.6632  155.0322 O   0  0  0  0  0  0  0  0  0  0  0  0
  148.8442  140.4975  154.9855 C   0  0  1  0  0  0  0  0  0  0  0  0
  147.7594  140.7247  153.9268 C   0  0  0  0  0  0  0  0  0  0  0  0
  149.7234  139.2783  154.6590 C   0  0  0  0  0  0  0  0  0  0  0  0
  148.2641  137.3885  160.9894 N   0  0  0  0  0  0  0  0  0  0  0  0
  147.3004  136.8670  161.8609 O   0  0  0  0  0  0  0  0  0  0  0  0
  146.9701  133.9967  163.2972 H   0  0  0  0  0  0  0  0  0  0  0  0
  145.6790  134.2711  162.1258 H   0  0  0  0  0  0  0  0  0  0  0  0
  145.9496  135.4295  163.4288 H   0  0  0  0  0  0  0  0  0  0  0  0
  148.7064  134.1012  160.7863 H   0  0  0  0  0  0  0  0  0  0  0  0
  151.6094  136.8142  158.0105 H   0  0  0  0  0  0  0  0  0  0  0  0
  151.1725  135.6911  155.7405 H   0  0  0  0  0  0  0  0  0  0  0  0
  149.7472  136.6880  155.7105 H   0  0  0  0  0  0  0  0  0  0  0  0
  151.7029  137.6961  154.4099 H   0  0  0  0  0  0  0  0  0  0  0  0
  153.5197  136.9399  155.9631 H   0  0  0  0  0  0  0  0  0  0  0  0
  152.9661  138.0961  157.1640 H   0  0  0  0  0  0  0  0  0  0  0  0
  153.6268  138.6372  155.6153 H   0  0  0  0  0  0  0  0  0  0  0  0
  152.3523  140.3241  156.5231 H   0  0  0  0  0  0  0  0  0  0  0  0
  152.1493  140.4857  154.7871 H   0  0  0  0  0  0  0  0  0  0  0  0
  151.3329  142.4897  155.7995 H   0  0  0  0  0  0  0  0  0  0  0  0
  151.0471  141.8169  158.1249 H   0  0  0  0  0  0  0  0  0  0  0  0
  149.6517  140.8267  157.7357 H   0  0  0  0  0  0  0  0  0  0  0  0
  149.5684  142.5779  157.5534 H   0  0  0  0  0  0  0  0  0  0  0  0
  148.3511  140.3485  155.9463 H   0  0  0  0  0  0  0  0  0  0  0  0
  147.0986  139.8609  153.8495 H   0  0  0  0  0  0  0  0  0  0  0  0
  148.1969  140.9006  152.9436 H   0  0  0  0  0  0  0  0  0  0  0  0
  147.1454  141.5902  154.1771 H   0  0  0  0  0  0  0  0  0  0  0  0
  150.1678  139.3908  153.6684 H   0  0  0  0  0  0  0  0  0  0  0  0
  149.0906  138.3936  154.6165 H   0  0  0  0  0  0  0  0  0  0  0  0
  150.3537  139.0380  156.5696 H   0  0  0  0  0  0  0  0  0  0  0  0
  1  2  1  0  0  0  0
  1 22  1  0  0  0  0
  1 23  1  0  0  0  0
  1 24  1  0  0  0  0
  2 21  1  0  0  0  0
  2  3  2  0  0  0  0
  3  4  1  0  0  0  0
  3 25  1  0  0  0  0
  4  5  1  0  0  0  0
  4 20  2  0  0  0  0
  5  6  1  0  0  0  0
  6  7  2  0  0  0  0
  6  8  1  0  0  0  0
  8  9  1  0  0  0  0
  8 26  1  0  0  0  0
  9 10  1  0  0  0  0
  9 27  1  0  0  0  0
  9 28  1  0  0  0  0
 10 11  1  0  0  0  0
 10 12  1  0  0  0  0
 10 29  1  0  0  0  0
 11 30  1  0  0  0  0
 11 31  1  0  0  0  0
 11 32  1  0  0  0  0
 12 19  1  0  0  0  0
 12 13  1  0  0  0  0
 12 45  1  0  0  0  0
 13 14  1  0  0  0  0
 13 33  1  0  0  0  0
 13 34  1  0  0  0  0
 14 15  1  0  0  0  0
 14 16  1  0  0  0  0
 14 35  1  0  0  0  0
 15 36  1  0  0  0  0
 15 37  1  0  0  0  0
 15 38  1  0  0  0  0
 16 17  1  0  0  0  0
 17 18  1  0  0  0  0
 17 19  1  0  0  0  0
 17 39  1  0  0  0  0
 18 40  1  0  0  0  0
 18 41  1  0  0  0  0
 18 42  1  0  0  0  0
 19 43  1  0  0  0  0
 19 44  1  0  0  0  0
 20 21  1  0  0  0  0
M  CHG  1   5  -1
M  CHG  1  12   1
M  END
> <s_m_source_file>
AV-unprocessed.smi

> <i_m_source_file_index>
2061

> <i_lp_mmshare_version>
43012

> <i_f3d_flags>
0

> <s_epik_input>
W0NIM11jMVtjSF1jKG5vMSlbTkhdQyg9TylbTkhdW0NIMl1bQ0BIXShbQ0gzXSlOMltDSDJdW0NAQEhdKFtDSDNdKU9bQ0BASF0oW0NIM10pW0NIMl0y

> <s_epik_cmdline>
J2VwaWtfcHl0aG9uJywgJy1waCcsICc3LjAnLCAnLXRuJywgJzgnLCAnLW1hJywgJzIwMCcsICctbWV0YWxfYmluZGluZycsICctaW1hZScsICc8aW5maWxlLm1hZT4nLCAnLW9tYWUnLCAnPG91dGZpbGUubWFlPic=

> <r_epik_Ionization_Penalty>
6.73511

> <r_epik_Ionization_Penalty_Charging>
6.73502

> <r_epik_Ionization_Penalty_Neutral>
9.50841e-05

> <r_epik_State_Penalty>
6.93549

> <r_epik_Charging_Adjusted_Penalty>
13.6705

> <i_epik_Tot_Q>
0

> <i_epik_Tot_abs_Q>
2

> <r_epik_Metal_State_Penalty>
2.87211

> <b_epik_Metal_Only>
1

> <s_lp_Force_Field>
OPLS_2005

> <r_lp_Energy>
12.0901

> <b_lp_Chiralities_Consistent>
1

> <s_lp_Variant>
AV-unprocessed.smi:2061-23

> <Gold.Version>
5.8.1

> <Gold.Id.Protein>
6NUR|6NUR_protein|mol2

> <Gold.PLP.Fitness>
39.4950

> <Gold.PLP.PLP>
-32.1894

> <Gold.PLP.part.hbond>
-3.5139

> <Gold.PLP.part.metal>
0.0000

> <Gold.PLP.part.buried>
-4.1490

> <Gold.PLP.part.nonpolar>
-25.4280

> <Gold.PLP.part.repulsive>
0.3074

> <Gold.PLP.ligand.clash>
0.0000

> <Gold.PLP.ligand.torsion>
1.4220

> <Gold.PLP.Chemscore.Hbond>
3.3624

> <Gold.PLP.Chemscore.CHOScore>
0.0000

> <Gold.PLP.Chemscore.Metal>
0.0000

> <Gold.Chemscore.Hbonds>
donor molecule, donor type, donor heavy atom, donor atom, acceptor molecule, acceptor atom, score
      P1  H  6896  6907       L1     5  1.08
      P1  H  6931  6943       L1    20  0.73
      P1  H  6934  6947       L1    20  0.22

> <Gold.PLP.Chemscore.Internal.Correction>
0.0624

> <Gold.Rescore>
     Score         DG    S(hbond)    S(metal)    S(lipo)     H(rot)  DE(clash)    DE(int)     intcor
     14.02     -15.12       1.65        0.00      69.41       1.56       0.02       1.08       ----

> <Gold.Chemscore.Fitness>
14.0209

> <Gold.Chemscore.DG>
-15.1207

> <Gold.Chemscore.ZeroCoef>
-5.4800

> <Gold.Chemscore.Hbond>
1.6468

> <Gold.Chemscore.Metal>
0.0000

> <Gold.Chemscore.Lipo>
69.4133

> <Gold.Chemscore.Internal_Hbond>
0.0000

> <Gold.Chemscore.DEClash>
0.0164

> <Gold.Chemscore.DEInternal>
1.0833

> <Gold.Chemscore.Rot>
1.5550

> <Gold.Chemscore.Internal.Correction>
   9.000000E+99

> <Gold.Chemscore.Hbonds>
donor molecule, donor type, donor heavy atom, donor atom, acceptor molecule, acceptor atom, score
      P1  H  6896  6907       L1     5  0.02
      P1  H  6931  6943       L1    20  0.23
      P1  H  6934  6947       L1    20  0.01

> <Gold.Chemscore.Hbond.Weighted>
-5.5002

> <Gold.Chemscore.Metal.Weighted>
-0.0000

> <Gold.Chemscore.Lipo.Weighted>
-8.1214

> <Gold.Chemscore.Internal_Hbond.Weighted>
0.0000

> <Gold.Chemscore.DEClash.Weighted>
0.0164

> <Gold.Chemscore.DEInternal.Weighted>
1.0833

> <Gold.Chemscore.Rot.Weighted>
3.9809

> <Gold.Chemscore.Internal.Correction.Weighted>
   9.000000E+99

> <Gold.Protein.RotatedTorsions>
[ 6907 6896 6895 6894 ] final  -66.19 input  -60.11 | X-H torsion
[ 7974 7965 7964 7962 ] final -152.65 input  175.53 | X-H torsion
[ 8008 7997 7996 7995 ] final   25.01 input   59.86 | X-H torsion
[ 10167 10162 10161 10158 ] final   87.97 input  -65.29 | X-H torsion
[ 10718 10713 10712 10709 ] final -126.95 input   66.30 | X-H torsion
[ 10763 10752 10751 10750 ] final   89.15 input  -60.55 | X-H torsion
[ 11005 11000 10999 10996 ] final   88.47 input  -57.11 | X-H torsion

> <Gold.Protein.ActiveResidues>
 VAL166  LYS551  ARG553  GLY616  TRP617  ASP618  TYR619  PRO620  LYS621  CYS622 
 ASP623  PHE694  ASN695  SER759  ASP760  ASP761  ALA762  ILE779  LEU786  VAL792 
 PHE793  MET794  SER795  GLU796  ALA797  LYS798  CYS799  TRP800  GLU811  SER814 

> <Gold.Protein.RotatedAtoms>
  150.7480  134.6055  159.6058 H   0  0  0  0  0  0  0  0  0  0  0  0  # atno 6907 bound_to 6896
  152.3404  134.7139  160.0274 H   0  0  0  0  0  0  0  0  0  0  0  0  # atno 6908 bound_to 6896
  151.7593  133.3296  159.3449 H   0  0  0  0  0  0  0  0  0  0  0  0  # atno 6909 bound_to 6896
  144.7783  140.4634  143.5858 H   0  0  0  0  0  0  0  0  0  0  0  0  # atno 7974 bound_to 7965
  155.0052  140.3130  155.4851 H   0  0  0  0  0  0  0  0  0  0  0  0  # atno 8008 bound_to 7997
  156.2918  140.2224  156.5104 H   0  0  0  0  0  0  0  0  0  0  0  0  # atno 8009 bound_to 7997
  154.7583  140.0461  157.0940 H   0  0  0  0  0  0  0  0  0  0  0  0  # atno 8010 bound_to 7997
  139.8720  144.6488  150.8939 H   0  0  0  0  0  0  0  0  0  0  0  0  # atno 10167 bound_to 10162
  156.1812  130.6733  151.0307 H   0  0  0  0  0  0  0  0  0  0  0  0  # atno 10718 bound_to 10713
  153.1841  135.4481  155.0066 H   0  0  0  0  0  0  0  0  0  0  0  0  # atno 10763 bound_to 10752
  154.8049  135.3270  154.7459 H   0  0  0  0  0  0  0  0  0  0  0  0  # atno 10764 bound_to 10752
  153.7920  135.6969  153.4925 H   0  0  0  0  0  0  0  0  0  0  0  0  # atno 10765 bound_to 10752
  139.8896  134.8489  156.3004 H   0  0  0  0  0  0  0  0  0  0  0  0  # atno 11005 bound_to 11000
  145.6123  139.1514  143.3069 LP  0  0  0  0  0  0  0  0  0  0  0  0  # atno 17320 bound_to 7965
  146.1976  140.6238  142.9117 LP  0  0  0  0  0  0  0  0  0  0  0  0  # atno 17321 bound_to 7965
  140.7759  143.3656  151.1745 LP  0  0  0  0  0  0  0  0  0  0  0  0  # atno 17342 bound_to 10162
  139.7275  143.9124  152.3008 LP  0  0  0  0  0  0  0  0  0  0  0  0  # atno 17343 bound_to 10162
  157.6869  131.0822  150.7216 LP  0  0  0  0  0  0  0  0  0  0  0  0  # atno 17370 bound_to 10713
  156.7273  130.4699  149.5508 LP  0  0  0  0  0  0  0  0  0  0  0  0  # atno 17371 bound_to 10713
  140.9917  133.7205  156.0824 LP  0  0  0  0  0  0  0  0  0  0  0  0  # atno 17394 bound_to 11000
  140.7616  134.3932  157.5524 LP  0  0  0  0  0  0  0  0  0  0  0  0  # atno 17395 bound_to 11000

$$$$
