AV-unprocessed.smi:1294|AV-procd|sdf|5400|dock6
  -GOLD-   22720 4563D 1   1.00000     0.00000
 Structure written by MMmdl.
 45 46  0  0  0  0  0  0  0  0  1 V2000
  152.9914  138.4478  154.5660 C   0  0  0  0  0  0  0  0  0  0  0  0
  152.3658  139.3120  155.6232 C   0  0  0  0  0  0  0  0  0  0  0  0
  152.9892  139.4805  156.7777 N   0  0  0  0  0  0  0  0  0  0  0  0
  152.1840  140.2960  157.4877 N   0  0  0  0  0  0  0  0  0  0  0  0
  152.5768  140.6956  158.8250 C   0  0  0  0  0  0  0  0  0  0  0  0
  151.0490  140.6424  156.7804 C   0  0  0  0  0  0  0  0  0  0  0  0
  149.9999  141.5428  157.3479 C   0  0  0  0  0  0  0  0  0  0  0  0
  151.1291  140.0191  155.5638 C   0  0  0  0  0  0  0  0  0  0  0  0
  150.1521  140.0617  154.4159 C   0  0  0  0  0  0  0  0  0  0  0  0
  148.9304  139.1974  154.7352 C   0  0  0  0  0  0  0  0  0  0  0  0
  148.7057  138.8513  155.8953 O   0  0  0  0  0  0  0  0  0  0  0  0
  148.1538  138.8546  153.6955 N   0  0  0  0  0  0  0  0  0  0  0  0
  146.9541  138.0259  153.7650 C   0  0  0  0  0  0  0  0  0  0  0  0
  146.1038  138.1356  152.4891 C   0  0  0  0  0  0  0  0  0  0  0  0
  144.6082  137.1072  152.5566 S   0  0  0  0  0  0  0  0  0  0  0  0
  145.1104  135.7239  151.4936 C   0  0  0  0  0  0  0  0  0  0  0  0
  143.9142  134.9556  150.9341 C   0  0  0  0  0  0  0  0  0  0  0  0
  144.4904  133.5993  150.5208 C   0  0  0  0  0  0  0  0  0  0  0  0
  145.7056  133.3588  151.4298 C   0  0  0  0  0  0  0  0  0  0  0  0
  145.9100  134.6493  152.2353 C   0  0  0  0  0  0  0  0  0  0  0  0
  153.0020  138.9578  153.6025 H   0  0  0  0  0  0  0  0  0  0  0  0
  152.4345  137.5189  154.4438 H   0  0  0  0  0  0  0  0  0  0  0  0
  154.0215  138.1879  154.8123 H   0  0  0  0  0  0  0  0  0  0  0  0
  151.7674  140.4856  159.5246 H   0  0  0  0  0  0  0  0  0  0  0  0
  152.7919  141.7642  158.8379 H   0  0  0  0  0  0  0  0  0  0  0  0
  153.4671  140.1521  159.1441 H   0  0  0  0  0  0  0  0  0  0  0  0
  149.2704  141.8270  156.5898 H   0  0  0  0  0  0  0  0  0  0  0  0
  150.4433  142.4582  157.7401 H   0  0  0  0  0  0  0  0  0  0  0  0
  149.4656  141.0493  158.1597 H   0  0  0  0  0  0  0  0  0  0  0  0
  149.8096  141.0786  154.2224 H   0  0  0  0  0  0  0  0  0  0  0  0
  150.6197  139.7223  153.4904 H   0  0  0  0  0  0  0  0  0  0  0  0
  148.4192  139.1904  152.7809 H   0  0  0  0  0  0  0  0  0  0  0  0
  147.2840  136.9940  153.8853 H   0  0  0  0  0  0  0  0  0  0  0  0
  146.3553  138.2562  154.6479 H   0  0  0  0  0  0  0  0  0  0  0  0
  145.8220  139.1733  152.3064 H   0  0  0  0  0  0  0  0  0  0  0  0
  146.6971  137.8141  151.6333 H   0  0  0  0  0  0  0  0  0  0  0  0
  145.7021  136.1107  150.6627 H   0  0  0  0  0  0  0  0  0  0  0  0
  143.1666  134.8090  151.7154 H   0  0  0  0  0  0  0  0  0  0  0  0
  143.4310  135.4748  150.1058 H   0  0  0  0  0  0  0  0  0  0  0  0
  143.7500  132.8029  150.6008 H   0  0  0  0  0  0  0  0  0  0  0  0
  144.8154  133.6398  149.4803 H   0  0  0  0  0  0  0  0  0  0  0  0
  145.5467  132.5089  152.0945 H   0  0  0  0  0  0  0  0  0  0  0  0
  146.5866  133.1388  150.8256 H   0  0  0  0  0  0  0  0  0  0  0  0
  146.9640  134.9092  152.3364 H   0  0  0  0  0  0  0  0  0  0  0  0
  145.5069  134.5137  153.2401 H   0  0  0  0  0  0  0  0  0  0  0  0
  1  2  1  0  0  0  0
  1 21  1  0  0  0  0
  1 22  1  0  0  0  0
  1 23  1  0  0  0  0
  2  8  1  0  0  0  0
  2  3  2  0  0  0  0
  3  4  1  0  0  0  0
  4  5  1  0  0  0  0
  4  6  1  0  0  0  0
  5 24  1  0  0  0  0
  5 25  1  0  0  0  0
  5 26  1  0  0  0  0
  6  7  1  0  0  0  0
  6  8  2  0  0  0  0
  7 27  1  0  0  0  0
  7 28  1  0  0  0  0
  7 29  1  0  0  0  0
  8  9  1  0  0  0  0
  9 10  1  0  0  0  0
  9 30  1  0  0  0  0
  9 31  1  0  0  0  0
 10 11  2  0  0  0  0
 10 12  1  0  0  0  0
 12 13  1  0  0  0  0
 12 32  1  0  0  0  0
 13 14  1  0  0  0  0
 13 33  1  0  0  0  0
 13 34  1  0  0  0  0
 14 15  1  0  0  0  0
 14 35  1  0  0  0  0
 14 36  1  0  0  0  0
 15 16  1  0  0  0  0
 16 20  1  0  0  0  0
 16 17  1  0  0  0  0
 16 37  1  0  0  0  0
 17 18  1  0  0  0  0
 17 38  1  0  0  0  0
 17 39  1  0  0  0  0
 18 19  1  0  0  0  0
 18 40  1  0  0  0  0
 18 41  1  0  0  0  0
 19 20  1  0  0  0  0
 19 42  1  0  0  0  0
 19 43  1  0  0  0  0
 20 44  1  0  0  0  0
 20 45  1  0  0  0  0
M  END
> <s_m_source_file>
AV-unprocessed.smi

> <i_m_source_file_index>
1294

> <i_lp_mmshare_version>
43012

> <i_f3d_flags>
0

> <s_epik_input>
W0NIM11jMW5uKFtDSDNdKWMoW0NIM10pYzFbQ0gyXUMoPU8pW05IXVtDSDJdW0NIMl1TW0NIXTJbQ0gyXVtDSDJdW0NIMl1bQ0gyXTI=

> <s_epik_cmdline>
J2VwaWtfcHl0aG9uJywgJy1waCcsICc3LjAnLCAnLXRuJywgJzgnLCAnLW1hJywgJzIwMCcsICctbWV0YWxfYmluZGluZycsICctaW1hZScsICc8aW5maWxlLm1hZT4nLCAnLW9tYWUnLCAnPG91dGZpbGUubWFlPic=

> <r_lp_tautomer_probability>
1

> <r_epik_Ionization_Penalty>
0.00302432

> <r_epik_Ionization_Penalty_Charging>
0

> <r_epik_Ionization_Penalty_Neutral>
0.00302432

> <r_epik_State_Penalty>
0.0021246

> <r_epik_Charging_Adjusted_Penalty>
0.0021246

> <i_epik_Tot_Q>
0

> <i_epik_Tot_abs_Q>
0

> <r_epik_Metal_State_Penalty>
-0

> <b_epik_Metal_Only>
0

> <s_lp_Force_Field>
OPLS_2005

> <r_lp_Energy>
15.1488

> <b_lp_Chiralities_Consistent>
1

> <s_lp_Variant>
AV-unprocessed.smi:1294-1

> <Gold.Version>
5.8.1

> <Gold.Id.Protein>
6NUR|6NUR_protein|mol2

> <Gold.PLP.Fitness>
40.9838

> <Gold.PLP.PLP>
-37.1209

> <Gold.PLP.part.hbond>
-2.5316

> <Gold.PLP.part.metal>
0.0000

> <Gold.PLP.part.buried>
2.6243

> <Gold.PLP.part.nonpolar>
-36.1907

> <Gold.PLP.part.repulsive>
0.0469

> <Gold.PLP.ligand.clash>
0.0000

> <Gold.PLP.ligand.torsion>
1.0538

> <Gold.PLP.Chemscore.Hbond>
1.9750

> <Gold.PLP.Chemscore.CHOScore>
0.0000

> <Gold.PLP.Chemscore.Metal>
0.0000

> <Gold.Chemscore.Hbonds>
donor molecule, donor type, donor heavy atom, donor atom, acceptor molecule, acceptor atom, score
      L1  H    12    32       P1  7957  0.65
      P1  H  7997  8009       L1     3  1.00

> <Gold.PLP.Chemscore.Internal.Correction>
0.0454

> <Gold.Rescore>
     Score         DG    S(hbond)    S(metal)    S(lipo)     H(rot)  DE(clash)    DE(int)     intcor
     16.00     -18.12       1.76        0.00      92.20       1.58       1.02       1.10       ----

> <Gold.Chemscore.Fitness>
16.0018

> <Gold.Chemscore.DG>
-18.1162

> <Gold.Chemscore.ZeroCoef>
-5.4800

> <Gold.Chemscore.Hbond>
1.7627

> <Gold.Chemscore.Metal>
0.0000

> <Gold.Chemscore.Lipo>
92.1994

> <Gold.Chemscore.Internal_Hbond>
0.0000

> <Gold.Chemscore.DEClash>
1.0175

> <Gold.Chemscore.DEInternal>
1.0968

> <Gold.Chemscore.Rot>
1.5776

> <Gold.Chemscore.Internal.Correction>
   9.000000E+99

> <Gold.Chemscore.Hbonds>
donor molecule, donor type, donor heavy atom, donor atom, acceptor molecule, acceptor atom, score
      L1  H    12    32       P1  7957  0.65
      P1  H  7997  8009       L1     3  0.65

> <Gold.Chemscore.Hbond.Weighted>
-5.8875

> <Gold.Chemscore.Metal.Weighted>
-0.0000

> <Gold.Chemscore.Lipo.Weighted>
-10.7873

> <Gold.Chemscore.Internal_Hbond.Weighted>
0.0000

> <Gold.Chemscore.DEClash.Weighted>
1.0175

> <Gold.Chemscore.DEInternal.Weighted>
1.0968

> <Gold.Chemscore.Rot.Weighted>
4.0387

> <Gold.Chemscore.Internal.Correction.Weighted>
   9.000000E+99

> <Gold.Protein.RotatedTorsions>
[ 6907 6896 6895 6894 ] final  150.49 input  -60.11 | X-H torsion
[ 7974 7965 7964 7962 ] final   21.29 input  175.53 | X-H torsion
[ 8008 7997 7996 7995 ] final  167.67 input   59.86 | X-H torsion
[ 10167 10162 10161 10158 ] final -139.75 input  -65.29 | X-H torsion
[ 10718 10713 10712 10709 ] final  -93.13 input   66.30 | X-H torsion
[ 10763 10752 10751 10750 ] final   32.65 input  -60.55 | X-H torsion
[ 11005 11000 10999 10996 ] final  -25.15 input  -57.11 | X-H torsion

> <Gold.Protein.ActiveResidues>
 VAL166  LYS551  ARG553  GLY616  TRP617  ASP618  TYR619  PRO620  LYS621  CYS622 
 ASP623  PHE694  ASN695  SER759  ASP760  ASP761  ALA762  ILE779  LEU786  VAL792 
 PHE793  MET794  SER795  GLU796  ALA797  LYS798  CYS799  TRP800  GLU811  SER814 

> <Gold.Protein.RotatedAtoms>
  152.1137  133.4315  159.4642 H   0  0  0  0  0  0  0  0  0  0  0  0  # atno 6907 bound_to 6896
  150.6868  134.2617  159.4561 H   0  0  0  0  0  0  0  0  0  0  0  0  # atno 6908 bound_to 6896
  152.0488  134.9666  160.0625 H   0  0  0  0  0  0  0  0  0  0  0  0  # atno 6909 bound_to 6896
  146.2077  139.8049  142.8713 H   0  0  0  0  0  0  0  0  0  0  0  0  # atno 7974 bound_to 7965
  156.1614  140.1611  156.8606 H   0  0  0  0  0  0  0  0  0  0  0  0  # atno 8008 bound_to 7997
  154.5164  140.0788  156.8125 H   0  0  0  0  0  0  0  0  0  0  0  0  # atno 8009 bound_to 7997
  155.3700  140.3399  155.4245 H   0  0  0  0  0  0  0  0  0  0  0  0  # atno 8010 bound_to 7997
  139.8349  143.7398  152.2665 H   0  0  0  0  0  0  0  0  0  0  0  0  # atno 10167 bound_to 10162
  156.0010  130.5014  150.5729 H   0  0  0  0  0  0  0  0  0  0  0  0  # atno 10718 bound_to 10713
  153.0252  135.6408  154.1387 H   0  0  0  0  0  0  0  0  0  0  0  0  # atno 10763 bound_to 10752
  154.1117  135.2852  155.3230 H   0  0  0  0  0  0  0  0  0  0  0  0  # atno 10764 bound_to 10752
  154.6327  135.5487  153.7761 H   0  0  0  0  0  0  0  0  0  0  0  0  # atno 10765 bound_to 10752
  140.8911  133.7588  156.0422 H   0  0  0  0  0  0  0  0  0  0  0  0  # atno 11005 bound_to 11000
  145.3257  141.0255  143.3475 LP  0  0  0  0  0  0  0  0  0  0  0  0  # atno 17320 bound_to 7965
  144.8834  139.4872  143.6712 LP  0  0  0  0  0  0  0  0  0  0  0  0  # atno 17321 bound_to 7965
  139.7617  144.7504  151.0354 LP  0  0  0  0  0  0  0  0  0  0  0  0  # atno 17342 bound_to 10162
  140.7803  143.4743  151.0103 LP  0  0  0  0  0  0  0  0  0  0  0  0  # atno 17343 bound_to 10162
  157.3621  131.0751  151.1627 LP  0  0  0  0  0  0  0  0  0  0  0  0  # atno 17370 bound_to 10713
  157.2409  130.6569  149.5889 LP  0  0  0  0  0  0  0  0  0  0  0  0  # atno 17371 bound_to 10713
  140.8345  134.3139  157.5336 LP  0  0  0  0  0  0  0  0  0  0  0  0  # atno 17394 bound_to 11000
  139.8730  134.9382  156.3708 LP  0  0  0  0  0  0  0  0  0  0  0  0  # atno 17395 bound_to 11000

$$$$
