AV-unprocessed.smi:3156|AV-procd|sdf|12029|dock6
  -GOLD-   2272017443D 1   1.00000     0.00000
 Structure written by MMmdl.
 41 42  0  0  0  0  0  0  0  0  2 V2000
  145.1907  137.8968  154.1718 C   0  0  0  0  0  0  0  0  0  0  0  0
  146.3406  137.9352  153.1461 C   0  0  2  0  0  0  0  0  0  0  0  0
  146.5013  136.6060  152.5091 N   0  3  0  0  0  0  0  0  0  0  0  0
  145.5605  136.3051  151.4096 C   0  0  0  0  0  0  0  0  0  0  0  0
  145.5714  134.8071  151.0761 C   0  0  2  0  0  0  0  0  0  0  0  0
  144.3347  134.3932  150.2551 C   0  0  0  0  0  0  0  0  0  0  0  0
  144.3318  132.8799  150.0107 C   0  0  0  0  0  0  0  0  0  0  0  0
  144.4741  132.1412  151.3454 C   0  0  0  0  0  0  0  0  0  0  0  0
  145.6914  132.6690  152.1211 C   0  0  0  0  0  0  0  0  0  0  0  0
  145.5785  134.0779  152.3020 O   0  0  0  0  0  0  0  0  0  0  0  0
  147.6855  138.3825  153.7845 C   0  0  2  0  0  0  0  0  0  0  0  0
  147.9532  137.7320  155.1546 C   0  0  0  0  0  0  0  0  0  0  0  0
  147.7759  139.8337  153.9143 N   0  0  0  0  0  0  0  0  0  0  0  0
  146.8215  140.7769  153.5921 C   0  0  0  0  0  0  0  0  0  0  0  0
  147.3522  142.0053  153.8625 C   0  0  0  0  0  0  0  0  0  0  0  0
  148.6597  141.7114  154.3394 C   0  0  0  0  0  0  0  0  0  0  0  0
  148.9127  140.4131  154.3636 N   0  0  0  0  0  0  0  0  0  0  0  0
  145.0076  138.8777  154.6090 H   0  0  0  0  0  0  0  0  0  0  0  0
  145.4076  137.2043  154.9856 H   0  0  0  0  0  0  0  0  0  0  0  0
  144.2515  137.5866  153.7151 H   0  0  0  0  0  0  0  0  0  0  0  0
  146.0806  138.6526  152.3661 H   0  0  0  0  0  0  0  0  0  0  0  0
  147.4313  136.5797  152.1149 H   0  0  0  0  0  0  0  0  0  0  0  0
  144.5523  136.6233  151.6746 H   0  0  0  0  0  0  0  0  0  0  0  0
  145.8576  136.8734  150.5272 H   0  0  0  0  0  0  0  0  0  0  0  0
  146.4760  134.5758  150.5099 H   0  0  0  0  0  0  0  0  0  0  0  0
  143.4263  134.6772  150.7884 H   0  0  0  0  0  0  0  0  0  0  0  0
  144.3162  134.9236  149.3025 H   0  0  0  0  0  0  0  0  0  0  0  0
  143.4151  132.5771  149.5038 H   0  0  0  0  0  0  0  0  0  0  0  0
  145.1588  132.6122  149.3519 H   0  0  0  0  0  0  0  0  0  0  0  0
  143.5724  132.2850  151.9417 H   0  0  0  0  0  0  0  0  0  0  0  0
  144.5697  131.0685  151.1752 H   0  0  0  0  0  0  0  0  0  0  0  0
  145.7479  132.1916  153.0993 H   0  0  0  0  0  0  0  0  0  0  0  0
  146.6189  132.4316  151.5977 H   0  0  0  0  0  0  0  0  0  0  0  0
  148.4915  138.0796  153.1140 H   0  0  0  0  0  0  0  0  0  0  0  0
  148.0662  136.6513  155.0768 H   0  0  0  0  0  0  0  0  0  0  0  0
  147.1442  137.9348  155.8573 H   0  0  0  0  0  0  0  0  0  0  0  0
  148.8750  138.1146  155.5942 H   0  0  0  0  0  0  0  0  0  0  0  0
  145.8530  140.4992  153.2026 H   0  0  0  0  0  0  0  0  0  0  0  0
  146.8805  142.9684  153.7331 H   0  0  0  0  0  0  0  0  0  0  0  0
  149.4277  142.3980  154.6643 H   0  0  0  0  0  0  0  0  0  0  0  0
  146.4339  135.8860  153.2143 H   0  0  0  0  0  0  0  0  0  0  0  0
  1  2  1  0  0  0  0
  1 18  1  0  0  0  0
  1 19  1  0  0  0  0
  1 20  1  0  0  0  0
  2  3  1  0  0  0  0
  2 11  1  0  0  0  0
  2 21  1  0  0  0  0
  3  4  1  0  0  0  0
  3 22  1  0  0  0  0
  3 41  1  0  0  0  0
  4  5  1  0  0  0  0
  4 23  1  0  0  0  0
  4 24  1  0  0  0  0
  5 10  1  0  0  0  0
  5  6  1  0  0  0  0
  5 25  1  0  0  0  0
  6  7  1  0  0  0  0
  6 26  1  0  0  0  0
  6 27  1  0  0  0  0
  7  8  1  0  0  0  0
  7 28  1  0  0  0  0
  7 29  1  0  0  0  0
  8  9  1  0  0  0  0
  8 30  1  0  0  0  0
  8 31  1  0  0  0  0
  9 10  1  0  0  0  0
  9 32  1  0  0  0  0
  9 33  1  0  0  0  0
 11 12  1  0  0  0  0
 11 13  1  0  0  0  0
 11 34  1  0  0  0  0
 12 35  1  0  0  0  0
 12 36  1  0  0  0  0
 12 37  1  0  0  0  0
 13 17  1  0  0  0  0
 13 14  1  0  0  0  0
 14 15  2  0  0  0  0
 14 38  1  0  0  0  0
 15 16  1  0  0  0  0
 15 39  1  0  0  0  0
 16 17  2  0  0  0  0
 16 40  1  0  0  0  0
M  CHG  1   3   1
M  END
> <s_m_source_file>
AV-unprocessed.smi

> <i_m_source_file_index>
3156

> <i_lp_mmshare_version>
43012

> <i_f3d_flags>
0

> <s_epik_input>
bjFbY0hdW2NIXVtjSF1uMVtDQEBIXShbQ0gzXSlbQ0BIXShbQ0gzXSlbTkhdW0NIMl1bQ0BASF0yW0NIMl1bQ0gyXVtDSDJdW0NIMl1PMg==

> <s_epik_cmdline>
J2VwaWtfcHl0aG9uJywgJy1waCcsICc3LjAnLCAnLXRuJywgJzgnLCAnLW1hJywgJzIwMCcsICctbWV0YWxfYmluZGluZycsICctaW1hZScsICc8aW5maWxlLm1hZT4nLCAnLW9tYWUnLCAnPG91dGZpbGUubWFlPic=

> <r_lp_tautomer_probability>
1

> <r_epik_Ionization_Penalty>
0.00658015

> <r_epik_Ionization_Penalty_Charging>
0.00656881

> <r_epik_Ionization_Penalty_Neutral>
1.13431e-05

> <r_epik_State_Penalty>
0.0048654

> <r_epik_Charging_Adjusted_Penalty>
0.0114342

> <i_epik_Tot_Q>
1

> <i_epik_Tot_abs_Q>
1

> <r_epik_Metal_State_Penalty>
-0

> <b_epik_Metal_Only>
0

> <s_lp_Force_Field>
OPLS_2005

> <r_lp_Energy>
17.2589

> <b_lp_Chiralities_Consistent>
1

> <s_lp_Variant>
AV-unprocessed.smi:3156-1

> <Gold.Version>
5.8.1

> <Gold.Id.Protein>
6NUR|6NUR_protein|mol2

> <Gold.PLP.Fitness>
38.8222

> <Gold.PLP.PLP>
-28.7839

> <Gold.PLP.part.hbond>
-1.0000

> <Gold.PLP.part.metal>
0.0000

> <Gold.PLP.part.buried>
-3.2735

> <Gold.PLP.part.nonpolar>
-24.4463

> <Gold.PLP.part.repulsive>
0.2404

> <Gold.PLP.ligand.clash>
0.0000

> <Gold.PLP.ligand.torsion>
0.8569

> <Gold.PLP.Chemscore.Hbond>
2.0000

> <Gold.PLP.Chemscore.CHOScore>
1.8873

> <Gold.PLP.Chemscore.Metal>
0.0000

> <Gold.Chemscore.Hbonds>
donor molecule, donor type, donor heavy atom, donor atom, acceptor molecule, acceptor atom, score
      L1  H     3    22       P1  7948  2.00
      L1  C    14    38       P1 10175  1.00
      L1  C    16    40       P1  8028  0.76

> <Gold.PLP.Chemscore.Internal.Correction>
0.0902

> <Gold.Rescore>
     Score         DG    S(hbond)    S(metal)    S(lipo)     H(rot)  DE(clash)    DE(int)     intcor
     12.86     -13.70       0.97        0.00      77.39       1.59       0.01       0.83       ----

> <Gold.Chemscore.Fitness>
12.8606

> <Gold.Chemscore.DG>
-13.6951

> <Gold.Chemscore.ZeroCoef>
-5.4800

> <Gold.Chemscore.Hbond>
0.9703

> <Gold.Chemscore.Metal>
0.0000

> <Gold.Chemscore.Lipo>
77.3898

> <Gold.Chemscore.Internal_Hbond>
0.0000

> <Gold.Chemscore.DEClash>
0.0060

> <Gold.Chemscore.DEInternal>
0.8285

> <Gold.Chemscore.Rot>
1.5938

> <Gold.Chemscore.Internal.Correction>
   9.000000E+99

> <Gold.Chemscore.Hbonds>
donor molecule, donor type, donor heavy atom, donor atom, acceptor molecule, acceptor atom, score
      L1  H     3    22       P1  7948  0.97

> <Gold.Chemscore.Hbond.Weighted>
-3.2408

> <Gold.Chemscore.Metal.Weighted>
-0.0000

> <Gold.Chemscore.Lipo.Weighted>
-9.0546

> <Gold.Chemscore.Internal_Hbond.Weighted>
0.0000

> <Gold.Chemscore.DEClash.Weighted>
0.0060

> <Gold.Chemscore.DEInternal.Weighted>
0.8285

> <Gold.Chemscore.Rot.Weighted>
4.0802

> <Gold.Chemscore.Internal.Correction.Weighted>
   9.000000E+99

> <Gold.Protein.RotatedTorsions>
[ 6907 6896 6895 6894 ] final  -47.56 input  -60.11 | X-H torsion
[ 7974 7965 7964 7962 ] final   26.08 input  175.53 | X-H torsion
[ 8008 7997 7996 7995 ] final   93.28 input   59.86 | X-H torsion
[ 10167 10162 10161 10158 ] final -145.33 input  -65.29 | X-H torsion
[ 10718 10713 10712 10709 ] final  -82.48 input   66.30 | X-H torsion
[ 10763 10752 10751 10750 ] final   67.32 input  -60.55 | X-H torsion
[ 11005 11000 10999 10996 ] final  125.08 input  -57.11 | X-H torsion

> <Gold.Protein.ActiveResidues>
 VAL166  LYS551  ARG553  GLY616  TRP617  ASP618  TYR619  PRO620  LYS621  CYS622 
 ASP623  PHE694  ASN695  SER759  ASP760  ASP761  ALA762  ILE779  LEU786  VAL792 
 PHE793  MET794  SER795  GLU796  ALA797  LYS798  CYS799  TRP800  GLU811  SER814 

> <Gold.Protein.RotatedAtoms>
  150.8995  134.8406  159.7349 H   0  0  0  0  0  0  0  0  0  0  0  0  # atno 6907 bound_to 6896
  152.4884  134.4524  159.9588 H   0  0  0  0  0  0  0  0  0  0  0  0  # atno 6908 bound_to 6896
  151.4577  133.3561  159.2840 H   0  0  0  0  0  0  0  0  0  0  0  0  # atno 6909 bound_to 6896
  146.1856  139.7377  142.8869 H   0  0  0  0  0  0  0  0  0  0  0  0  # atno 7974 bound_to 7965
  156.0449  140.3315  155.7285 H   0  0  0  0  0  0  0  0  0  0  0  0  # atno 8008 bound_to 7997
  155.5688  140.0626  157.2829 H   0  0  0  0  0  0  0  0  0  0  0  0  # atno 8009 bound_to 7997
  154.4409  140.1864  156.0846 H   0  0  0  0  0  0  0  0  0  0  0  0  # atno 8010 bound_to 7997
  139.7815  143.8094  152.2639 H   0  0  0  0  0  0  0  0  0  0  0  0  # atno 10167 bound_to 10162
  156.0032  130.4635  150.4111 H   0  0  0  0  0  0  0  0  0  0  0  0  # atno 10718 bound_to 10713
  153.0180  135.5288  154.6961 H   0  0  0  0  0  0  0  0  0  0  0  0  # atno 10763 bound_to 10752
  154.6082  135.2875  155.0463 H   0  0  0  0  0  0  0  0  0  0  0  0  # atno 10764 bound_to 10752
  154.1495  135.6565  153.5012 H   0  0  0  0  0  0  0  0  0  0  0  0  # atno 10765 bound_to 10752
  139.9389  134.9637  156.8505 H   0  0  0  0  0  0  0  0  0  0  0  0  # atno 11005 bound_to 11000
  145.3949  141.0377  143.3103 LP  0  0  0  0  0  0  0  0  0  0  0  0  # atno 17320 bound_to 7965
  144.8391  139.5502  143.6908 LP  0  0  0  0  0  0  0  0  0  0  0  0  # atno 17321 bound_to 7965
  139.8158  144.7317  150.9637 LP  0  0  0  0  0  0  0  0  0  0  0  0  # atno 17342 bound_to 10162
  140.7818  143.4206  151.0847 LP  0  0  0  0  0  0  0  0  0  0  0  0  # atno 17343 bound_to 10162
  157.2174  131.0474  151.2566 LP  0  0  0  0  0  0  0  0  0  0  0  0  # atno 17370 bound_to 10713
  157.3832  130.7242  149.6645 LP  0  0  0  0  0  0  0  0  0  0  0  0  # atno 17371 bound_to 10713
  140.6003  134.0178  155.7534 LP  0  0  0  0  0  0  0  0  0  0  0  0  # atno 17394 bound_to 11000
  141.1015  133.9760  157.3070 LP  0  0  0  0  0  0  0  0  0  0  0  0  # atno 17395 bound_to 11000

$$$$
