AV-unprocessed.smi:287|AV-procd|sdf|2178|dock8
  -GOLD-   2262021543D 1   1.00000     0.00000
 Structure written by MMmdl.
 55 58  0  0  0  0  0  0  0  0  1 V2000
  147.3946  137.3939  163.5093 C   0  0  0  0  0  0  0  0  0  0  0  0
  147.4690  136.5756  162.2661 C   0  0  0  0  0  0  0  0  0  0  0  0
  147.0795  135.3079  161.9452 C   0  0  0  0  0  0  0  0  0  0  0  0
  147.4157  135.0922  160.5752 C   0  0  0  0  0  0  0  0  0  0  0  0
  147.1695  133.8160  159.7818 C   0  0  2  0  0  0  0  0  0  0  0  0
  145.7025  133.3832  159.9373 C   0  0  0  0  0  0  0  0  0  0  0  0
  147.9365  132.7233  160.2498 O   0  0  0  0  0  0  0  0  0  0  0  0
  147.5225  133.9718  158.2846 C   0  0  0  0  0  0  0  0  0  0  0  0
  148.0366  132.7411  157.6916 N   0  0  0  0  0  0  0  0  0  0  0  0
  148.4090  132.7146  156.3950 C   0  0  0  0  0  0  0  0  0  0  0  0
  149.7210  132.6761  156.0430 N   0  0  0  0  0  0  0  0  0  0  0  0
  150.0653  132.6473  154.7514 C   0  0  0  0  0  0  0  0  0  0  0  0
  149.2744  132.6531  153.6755 N   0  0  0  0  0  0  0  0  0  0  0  0
  147.9568  132.6950  154.0278 C   0  0  0  0  0  0  0  0  0  0  0  0
  147.4454  132.7241  155.3542 C   0  0  0  0  0  0  0  0  0  0  0  0
  146.0572  132.7551  155.3221 N   0  0  0  0  0  0  0  0  0  0  0  0
  145.7702  132.7468  154.0476 C   0  0  0  0  0  0  0  0  0  0  0  0
  146.8571  132.7144  153.1995 N   0  0  0  0  0  0  0  0  0  0  0  0
  146.8902  132.6923  151.7063 C   0  0  2  0  0  0  0  0  0  0  0  0
  146.4853  133.9516  151.2536 O   0  0  0  0  0  0  0  0  0  0  0  0
  145.3247  133.8495  150.4299 C   0  0  2  0  0  0  0  0  0  0  0  0
  144.4349  135.0868  150.6250 C   0  0  0  0  0  0  0  0  0  0  0  0
  145.0353  136.2146  150.0256 O   0  0  0  0  0  0  0  0  0  0  0  0
  144.6728  132.5477  150.8968 C   0  0  1  0  0  0  0  0  0  0  0  0
  143.7969  131.9814  149.9412 O   0  0  0  0  0  0  0  0  0  0  0  0
  145.8763  131.6641  151.1906 C   0  0  1  0  0  0  0  0  0  0  0  0
  146.3719  130.9983  150.0430 O   0  0  0  0  0  0  0  0  0  0  0  0
  148.0094  136.2642  160.1717 C   0  0  0  0  0  0  0  0  0  0  0  0
  148.6120  136.7329  158.8883 C   0  0  0  0  0  0  0  0  0  0  0  0
  148.0413  137.1698  161.1891 O   0  0  0  0  0  0  0  0  0  0  0  0
  147.9294  132.4793  151.4515 H   0  0  0  0  0  0  0  0  0  0  0  0
  145.6384  133.7466  149.3892 H   0  0  0  0  0  0  0  0  0  0  0  0
  144.1219  132.7246  151.8219 H   0  0  0  0  0  0  0  0  0  0  0  0
  145.6557  130.9122  151.9499 H   0  0  0  0  0  0  0  0  0  0  0  0
  146.8036  136.8881  164.2732 H   0  0  0  0  0  0  0  0  0  0  0  0
  146.9313  138.3604  163.3099 H   0  0  0  0  0  0  0  0  0  0  0  0
  148.3906  137.5716  163.9150 H   0  0  0  0  0  0  0  0  0  0  0  0
  146.5996  134.6121  162.6173 H   0  0  0  0  0  0  0  0  0  0  0  0
  145.0227  134.1517  159.5675 H   0  0  0  0  0  0  0  0  0  0  0  0
  145.4519  133.2001  160.9831 H   0  0  0  0  0  0  0  0  0  0  0  0
  145.4936  132.4677  159.3821 H   0  0  0  0  0  0  0  0  0  0  0  0
  147.3463  132.0601  160.5736 H   0  0  0  0  0  0  0  0  0  0  0  0
  146.6642  134.3368  157.7182 H   0  0  0  0  0  0  0  0  0  0  0  0
  148.3036  134.7273  158.1882 H   0  0  0  0  0  0  0  0  0  0  0  0
  148.1008  131.9436  158.3085 H   0  0  0  0  0  0  0  0  0  0  0  0
  151.1263  132.6152  154.5519 H   0  0  0  0  0  0  0  0  0  0  0  0
  144.7502  132.7642  153.6932 H   0  0  0  0  0  0  0  0  0  0  0  0
  143.4698  134.9350  150.1407 H   0  0  0  0  0  0  0  0  0  0  0  0
  144.2406  135.2764  151.6808 H   0  0  0  0  0  0  0  0  0  0  0  0
  144.3874  136.8992  149.9569 H   0  0  0  0  0  0  0  0  0  0  0  0
  143.6513  132.6193  149.2588 H   0  0  0  0  0  0  0  0  0  0  0  0
  147.2939  130.8324  150.1690 H   0  0  0  0  0  0  0  0  0  0  0  0
  149.3783  136.0377  158.5450 H   0  0  0  0  0  0  0  0  0  0  0  0
  149.0761  137.7126  159.0042 H   0  0  0  0  0  0  0  0  0  0  0  0
  147.8520  136.8118  158.1111 H   0  0  0  0  0  0  0  0  0  0  0  0
  1  2  1  0  0  0  0
  1 35  1  0  0  0  0
  1 36  1  0  0  0  0
  1 37  1  0  0  0  0
  2 30  1  0  0  0  0
  2  3  2  0  0  0  0
  3  4  1  0  0  0  0
  3 38  1  0  0  0  0
  4  5  1  0  0  0  0
  4 28  2  0  0  0  0
  5  6  1  0  0  0  0
  5  7  1  0  0  0  0
  5  8  1  0  0  0  0
  6 39  1  0  0  0  0
  6 40  1  0  0  0  0
  6 41  1  0  0  0  0
  7 42  1  0  0  0  0
  8  9  1  0  0  0  0
  8 43  1  0  0  0  0
  8 44  1  0  0  0  0
  9 10  1  0  0  0  0
  9 45  1  0  0  0  0
 10 15  1  0  0  0  0
 10 11  2  0  0  0  0
 11 12  1  0  0  0  0
 12 13  2  0  0  0  0
 12 46  1  0  0  0  0
 13 14  1  0  0  0  0
 14 18  1  0  0  0  0
 14 15  2  0  0  0  0
 15 16  1  0  0  0  0
 16 17  2  0  0  0  0
 17 18  1  0  0  0  0
 17 47  1  0  0  0  0
 18 19  1  0  0  0  0
 19 31  1  0  0  0  0
 19 26  1  0  0  0  0
 19 20  1  0  0  0  0
 20 21  1  0  0  0  0
 21 32  1  0  0  0  0
 21 22  1  0  0  0  0
 21 24  1  0  0  0  0
 22 23  1  0  0  0  0
 22 48  1  0  0  0  0
 22 49  1  0  0  0  0
 23 50  1  0  0  0  0
 24 33  1  0  0  0  0
 24 25  1  0  0  0  0
 24 26  1  0  0  0  0
 25 51  1  0  0  0  0
 26 34  1  0  0  0  0
 26 27  1  0  0  0  0
 27 52  1  0  0  0  0
 28 29  1  0  0  0  0
 28 30  1  0  0  0  0
 29 53  1  0  0  0  0
 29 54  1  0  0  0  0
 29 55  1  0  0  0  0
M  END
> <s_m_source_file>
AV-unprocessed.smi

> <i_m_source_file_index>
287

> <i_lp_mmshare_version>
43012

> <i_f3d_flags>
0

> <s_epik_input>
W0NIM11jMVtjSF1jKGMobzEpW0NIM10pW0NAQF0oW0NIM10pKFtPSF0pW0NIMl1bTkhdYyhuW2NIXW4yKWMoYzIzKW5bY0hdbjNbQ0BASF00T1tDQEhdKFtDSDJdW09IXSlbQ0BASF0oW09IXSlbQ0BIXTRbT0hd

> <s_epik_cmdline>
J2VwaWtfcHl0aG9uJywgJy1waCcsICc3LjAnLCAnLXRuJywgJzgnLCAnLW1hJywgJzIwMCcsICctbWV0YWxfYmluZGluZycsICctaW1hZScsICc8aW5maWxlLm1hZT4nLCAnLW9tYWUnLCAnPG91dGZpbGUubWFlPic=

> <r_lp_tautomer_probability>
1

> <r_epik_Ionization_Penalty>
0.000992612

> <r_epik_Ionization_Penalty_Charging>
0

> <r_epik_Ionization_Penalty_Neutral>
0.000992612

> <r_epik_State_Penalty>
-0

> <r_epik_Charging_Adjusted_Penalty>
0

> <i_epik_Tot_Q>
0

> <i_epik_Tot_abs_Q>
0

> <r_epik_Metal_State_Penalty>
-0

> <b_epik_Metal_Only>
0

> <s_epik_Chemistry_Notes>
This compound contains an acetal/aminal-like group ( X-CH(R)-Y where X, Y are N, S, or O) that may be acid/base labile, releasing an aldehyde.

> <s_lp_Force_Field>
OPLS_2005

> <r_lp_Energy>
40.8374

> <b_lp_Chiralities_Consistent>
1

> <s_lp_Variant>
AV-unprocessed.smi:287-2

> <Gold.Version>
5.8.1

> <Gold.Id.Protein>
6NUR|6NUR_protein|mol2

> <Gold.PLP.Fitness>
51.4675

> <Gold.PLP.PLP>
-39.8556

> <Gold.PLP.part.hbond>
-5.7882

> <Gold.PLP.part.metal>
0.0000

> <Gold.PLP.part.buried>
-4.0206

> <Gold.PLP.part.nonpolar>
-30.1869

> <Gold.PLP.part.repulsive>
0.5022

> <Gold.PLP.ligand.clash>
0.0000

> <Gold.PLP.ligand.torsion>
1.8329

> <Gold.PLP.Chemscore.Hbond>
4.0781

> <Gold.PLP.Chemscore.CHOScore>
0.9965

> <Gold.PLP.Chemscore.Metal>
0.0000

> <Gold.Chemscore.Hbonds>
donor molecule, donor type, donor heavy atom, donor atom, acceptor molecule, acceptor atom, score
      L1  H    23    50       P1 10171  1.00
      L1  H    27    52       P1 10747  1.00
      P1  H  6931  6943       L1    30  1.00
      P1  H  6934  6947       L1    30  0.65
      P1  H 10785 10796       L1    25  0.31
      L1  C    17    47       P1 10957  0.93

> <Gold.PLP.Chemscore.Internal.Correction>
0.0540

> <Gold.Rescore>
     Score         DG    S(hbond)    S(metal)    S(lipo)     H(rot)  DE(clash)    DE(int)     intcor
      8.50     -11.79       2.84        0.00      88.22       5.27       0.38       2.91       ----

> <Gold.Chemscore.Fitness>
8.4987

> <Gold.Chemscore.DG>
-11.7947

> <Gold.Chemscore.ZeroCoef>
-5.4800

> <Gold.Chemscore.Hbond>
2.8375

> <Gold.Chemscore.Metal>
0.0000

> <Gold.Chemscore.Lipo>
88.2157

> <Gold.Chemscore.Internal_Hbond>
0.0000

> <Gold.Chemscore.DEClash>
0.3830

> <Gold.Chemscore.DEInternal>
2.9130

> <Gold.Chemscore.Rot>
5.2672

> <Gold.Chemscore.Internal.Correction>
   9.000000E+99

> <Gold.Chemscore.Hbonds>
donor molecule, donor type, donor heavy atom, donor atom, acceptor molecule, acceptor atom, score
      L1  H    23    50       P1 10171  0.98
      L1  H    27    52       P1 10747  1.00
      P1  H  6931  6943       L1    30  0.33
      P1  H  6934  6947       L1    30  0.43
      P1  H 10785 10796       L1    25  0.06

> <Gold.Chemscore.Hbond.Weighted>
-9.4774

> <Gold.Chemscore.Metal.Weighted>
-0.0000

> <Gold.Chemscore.Lipo.Weighted>
-10.3212

> <Gold.Chemscore.Internal_Hbond.Weighted>
0.0000

> <Gold.Chemscore.DEClash.Weighted>
0.3830

> <Gold.Chemscore.DEInternal.Weighted>
2.9130

> <Gold.Chemscore.Rot.Weighted>
13.4839

> <Gold.Chemscore.Internal.Correction.Weighted>
   9.000000E+99

> <Gold.Protein.RotatedTorsions>
[ 6907 6896 6895 6894 ] final  -13.12 input  -60.11 | X-H torsion
[ 7974 7965 7964 7962 ] final -150.44 input  175.53 | X-H torsion
[ 8008 7997 7996 7995 ] final   66.45 input   59.86 | X-H torsion
[ 10167 10162 10161 10158 ] final  117.23 input  -65.29 | X-H torsion
[ 10718 10713 10712 10709 ] final  143.36 input   66.30 | X-H torsion
[ 10763 10752 10751 10750 ] final  -70.30 input  -60.55 | X-H torsion
[ 11005 11000 10999 10996 ] final  162.21 input  -57.11 | X-H torsion

> <Gold.Protein.ActiveResidues>
 VAL166  LYS551  ARG553  GLY616  TRP617  ASP618  TYR619  PRO620  LYS621  CYS622 
 ASP623  PHE694  ASN695  SER759  ASP760  ASP761  ALA762  ILE779  LEU786  VAL792 
 PHE793  MET794  SER795  GLU796  ALA797  LYS798  CYS799  TRP800  GLU811  SER814 

> <Gold.Protein.RotatedAtoms>
  151.3599  135.0902  159.9430 H   0  0  0  0  0  0  0  0  0  0  0  0  # atno 6907 bound_to 6896
  152.5165  133.9269  159.7572 H   0  0  0  0  0  0  0  0  0  0  0  0  # atno 6908 bound_to 6896
  150.9661  133.6339  159.2775 H   0  0  0  0  0  0  0  0  0  0  0  0  # atno 6909 bound_to 6896
  144.7907  140.4931  143.5774 H   0  0  0  0  0  0  0  0  0  0  0  0  # atno 7974 bound_to 7965
  155.6776  140.3496  155.4842 H   0  0  0  0  0  0  0  0  0  0  0  0  # atno 8008 bound_to 7997
  155.9634  140.1142  157.0898 H   0  0  0  0  0  0  0  0  0  0  0  0  # atno 8009 bound_to 7997
  154.4148  140.1171  156.5196 H   0  0  0  0  0  0  0  0  0  0  0  0  # atno 8010 bound_to 7997
  139.6193  144.7098  151.2670 H   0  0  0  0  0  0  0  0  0  0  0  0  # atno 10167 bound_to 10162
  157.3698  131.0977  151.0839 H   0  0  0  0  0  0  0  0  0  0  0  0  # atno 10718 bound_to 10713
  154.4157  135.5998  153.5979 H   0  0  0  0  0  0  0  0  0  0  0  0  # atno 10763 bound_to 10752
  152.9792  135.5940  154.4016 H   0  0  0  0  0  0  0  0  0  0  0  0  # atno 10764 bound_to 10752
  154.3835  135.2841  155.2176 H   0  0  0  0  0  0  0  0  0  0  0  0  # atno 10765 bound_to 10752
  140.2234  134.8178  157.3244 H   0  0  0  0  0  0  0  0  0  0  0  0  # atno 11005 bound_to 11000
  145.5801  139.1488  143.3240 LP  0  0  0  0  0  0  0  0  0  0  0  0  # atno 17320 bound_to 7965
  146.2158  140.5932  142.9039 LP  0  0  0  0  0  0  0  0  0  0  0  0  # atno 17321 bound_to 7965
  140.7371  143.6686  150.8101 LP  0  0  0  0  0  0  0  0  0  0  0  0  # atno 17342 bound_to 10162
  140.0294  143.5459  152.2766 LP  0  0  0  0  0  0  0  0  0  0  0  0  # atno 17343 bound_to 10162
  157.1947  130.6368  149.5717 LP  0  0  0  0  0  0  0  0  0  0  0  0  # atno 17370 bound_to 10713
  155.9753  130.4710  150.6451 LP  0  0  0  0  0  0  0  0  0  0  0  0  # atno 17371 bound_to 10713
  140.1825  134.4472  155.7763 LP  0  0  0  0  0  0  0  0  0  0  0  0  # atno 17394 bound_to 11000
  141.2222  133.6990  156.7892 LP  0  0  0  0  0  0  0  0  0  0  0  0  # atno 17395 bound_to 11000

$$$$
