AV-unprocessed.smi:833|AV-procd|sdf|3882|dock6
  -GOLD-   22720 1333D 1   1.00000     0.00000
 Structure written by MMmdl.
 40 41  0  0  0  0  0  0  0  0  2 V2000
  146.3701  142.9515  154.6994 C   0  0  0  0  0  0  0  0  0  0  0  0
  146.8445  142.0788  153.5297 C   0  0  2  0  0  0  0  0  0  0  0  0
  146.3690  140.7717  153.7774 O   0  0  0  0  0  0  0  0  0  0  0  0
  148.3826  142.0458  153.4178 C   0  0  0  0  0  0  0  0  0  0  0  0
  149.0277  142.0995  154.7256 N   0  0  0  0  0  0  0  0  0  0  0  0
  149.9184  141.2091  155.1828 C   0  0  0  0  0  0  0  0  0  0  0  0
  150.2983  140.2314  154.5388 O   0  0  0  0  0  0  0  0  0  0  0  0
  150.3501  141.5372  156.4118 N   0  0  0  0  0  0  0  0  0  0  0  0
  151.3474  140.8805  157.1864 C   0  0  0  0  0  0  0  0  0  0  0  0
  151.7089  139.5346  156.9205 C   0  0  0  0  0  0  0  0  0  0  0  0
  152.6475  138.8829  157.7422 C   0  0  0  0  0  0  0  0  0  0  0  0
  153.1990  139.5810  158.8298 C   0  0  0  0  0  0  0  0  0  0  0  0
  152.8252  140.8558  159.0646 N   0  3  0  0  0  0  0  0  0  0  0  0
  151.9388  141.5430  158.3015 C   0  0  0  0  0  0  0  0  0  0  0  0
  151.6545  142.8796  158.6650 N   0  0  0  0  0  0  0  0  0  0  0  0
  152.0687  143.3961  159.9648 C   0  0  0  0  0  0  0  0  0  0  0  0
  151.9313  144.9120  159.8529 C   0  0  0  0  0  0  0  0  0  0  0  0
  152.3073  145.1689  158.3968 C   0  0  0  0  0  0  0  0  0  0  0  0
  151.7779  143.9330  157.6623 C   0  0  0  0  0  0  0  0  0  0  0  0
  146.6794  143.9883  154.5655 H   0  0  0  0  0  0  0  0  0  0  0  0
  146.7789  142.6025  155.6483 H   0  0  0  0  0  0  0  0  0  0  0  0
  145.2825  142.9429  154.7815 H   0  0  0  0  0  0  0  0  0  0  0  0
  146.4002  142.4528  152.6062 H   0  0  0  0  0  0  0  0  0  0  0  0
  145.6516  140.5958  153.1872 H   0  0  0  0  0  0  0  0  0  0  0  0
  148.6925  141.0995  152.9732 H   0  0  0  0  0  0  0  0  0  0  0  0
  148.7583  142.8263  152.7532 H   0  0  0  0  0  0  0  0  0  0  0  0
  148.7750  142.8737  155.3222 H   0  0  0  0  0  0  0  0  0  0  0  0
  150.0185  142.4166  156.7804 H   0  0  0  0  0  0  0  0  0  0  0  0
  151.2616  138.9820  156.1081 H   0  0  0  0  0  0  0  0  0  0  0  0
  152.9292  137.8584  157.5476 H   0  0  0  0  0  0  0  0  0  0  0  0
  153.9190  139.1614  159.5177 H   0  0  0  0  0  0  0  0  0  0  0  0
  151.4534  142.9925  160.7692 H   0  0  0  0  0  0  0  0  0  0  0  0
  153.1097  143.1380  160.1637 H   0  0  0  0  0  0  0  0  0  0  0  0
  150.8963  145.2085  160.0284 H   0  0  0  0  0  0  0  0  0  0  0  0
  152.5636  145.4498  160.5598 H   0  0  0  0  0  0  0  0  0  0  0  0
  151.8971  146.1012  158.0078 H   0  0  0  0  0  0  0  0  0  0  0  0
  153.3932  145.2151  158.3025 H   0  0  0  0  0  0  0  0  0  0  0  0
  152.4369  143.6475  156.8412 H   0  0  0  0  0  0  0  0  0  0  0  0
  150.7902  144.1400  157.2497 H   0  0  0  0  0  0  0  0  0  0  0  0
  153.2423  141.3349  159.8626 H   0  0  0  0  0  0  0  0  0  0  0  0
  1  2  1  0  0  0  0
  1 20  1  0  0  0  0
  1 21  1  0  0  0  0
  1 22  1  0  0  0  0
  2  3  1  0  0  0  0
  2  4  1  0  0  0  0
  2 23  1  0  0  0  0
  3 24  1  0  0  0  0
  4  5  1  0  0  0  0
  4 25  1  0  0  0  0
  4 26  1  0  0  0  0
  5  6  1  0  0  0  0
  5 27  1  0  0  0  0
  6  7  2  0  0  0  0
  6  8  1  0  0  0  0
  8  9  1  0  0  0  0
  8 28  1  0  0  0  0
  9 14  1  0  0  0  0
  9 10  2  0  0  0  0
 10 11  1  0  0  0  0
 10 29  1  0  0  0  0
 11 12  2  0  0  0  0
 11 30  1  0  0  0  0
 12 13  1  0  0  0  0
 12 31  1  0  0  0  0
 13 14  2  0  0  0  0
 13 40  1  0  0  0  0
 14 15  1  0  0  0  0
 15 19  1  0  0  0  0
 15 16  1  0  0  0  0
 16 17  1  0  0  0  0
 16 32  1  0  0  0  0
 16 33  1  0  0  0  0
 17 18  1  0  0  0  0
 17 34  1  0  0  0  0
 17 35  1  0  0  0  0
 18 19  1  0  0  0  0
 18 36  1  0  0  0  0
 18 37  1  0  0  0  0
 19 38  1  0  0  0  0
 19 39  1  0  0  0  0
M  CHG  1  13   1
M  END
> <s_m_source_file>
AV-unprocessed.smi

> <i_m_source_file_index>
833

> <i_lp_mmshare_version>
43012

> <i_f3d_flags>
0

> <s_epik_input>
W0NIM11bQ0BIXShbT0hdKVtDSDJdW05IXUMoPU8pW05IXWMxW2NIXVtjSF1bY0hdbmMxTjJbQ0gyXVtDSDJdW0NIMl1bQ0gyXTI=

> <s_epik_cmdline>
J2VwaWtfcHl0aG9uJywgJy1waCcsICc3LjAnLCAnLXRuJywgJzgnLCAnLW1hJywgJzIwMCcsICctbWV0YWxfYmluZGluZycsICctaW1hZScsICc8aW5maWxlLm1hZT4nLCAnLW9tYWUnLCAnPG91dGZpbGUubWFlPic=

> <r_lp_tautomer_probability>
0.999994

> <r_epik_Ionization_Penalty>
1.11387

> <r_epik_Ionization_Penalty_Charging>
1.11385

> <r_epik_Ionization_Penalty_Neutral>
1.95796e-05

> <r_epik_State_Penalty>
1.17209

> <r_epik_Charging_Adjusted_Penalty>
2.28594

> <i_epik_Tot_Q>
1

> <i_epik_Tot_abs_Q>
1

> <r_epik_Metal_State_Penalty>
1.25763

> <b_epik_Metal_Only>
0

> <s_lp_Force_Field>
OPLS_2005

> <r_lp_Energy>
38.091

> <b_lp_Chiralities_Consistent>
1

> <s_lp_Variant>
AV-unprocessed.smi:833-3

> <Gold.Version>
5.8.1

> <Gold.Id.Protein>
6NUR|6NUR_protein|mol2

> <Gold.PLP.Fitness>
45.1668

> <Gold.PLP.PLP>
-37.5699

> <Gold.PLP.part.hbond>
-3.0000

> <Gold.PLP.part.metal>
0.0000

> <Gold.PLP.part.buried>
-4.2575

> <Gold.PLP.part.nonpolar>
-29.7102

> <Gold.PLP.part.repulsive>
0.4676

> <Gold.PLP.ligand.clash>
0.0000

> <Gold.PLP.ligand.torsion>
0.5647

> <Gold.PLP.Chemscore.Hbond>
2.7753

> <Gold.PLP.Chemscore.CHOScore>
0.0000

> <Gold.PLP.Chemscore.Metal>
0.0000

> <Gold.Chemscore.Hbonds>
donor molecule, donor type, donor heavy atom, donor atom, acceptor molecule, acceptor atom, score
      L1  H     3    24       P1 10175  0.84
      L1  H     5    27       P1  8028  0.94
      P1  H  7989  7998       L1     7  1.00

> <Gold.PLP.Chemscore.Internal.Correction>
0.4005

> <Gold.Rescore>
     Score         DG    S(hbond)    S(metal)    S(lipo)     H(rot)  DE(clash)    DE(int)     intcor
     15.13     -18.72       2.30        0.00      92.75       2.06       1.61       1.98       ----

> <Gold.Chemscore.Fitness>
15.1326

> <Gold.Chemscore.DG>
-18.7184

> <Gold.Chemscore.ZeroCoef>
-5.4800

> <Gold.Chemscore.Hbond>
2.2964

> <Gold.Chemscore.Metal>
0.0000

> <Gold.Chemscore.Lipo>
92.7495

> <Gold.Chemscore.Internal_Hbond>
0.0000

> <Gold.Chemscore.DEClash>
1.6092

> <Gold.Chemscore.DEInternal>
1.9766

> <Gold.Chemscore.Rot>
2.0637

> <Gold.Chemscore.Internal.Correction>
   9.000000E+99

> <Gold.Chemscore.Hbonds>
donor molecule, donor type, donor heavy atom, donor atom, acceptor molecule, acceptor atom, score
      L1  H     3    24       P1 10175  0.70
      L1  H     5    27       P1  8028  0.91
      P1  H  7989  7998       L1     7  0.44

> <Gold.Chemscore.Hbond.Weighted>
-7.6699

> <Gold.Chemscore.Metal.Weighted>
-0.0000

> <Gold.Chemscore.Lipo.Weighted>
-10.8517

> <Gold.Chemscore.Internal_Hbond.Weighted>
0.0000

> <Gold.Chemscore.DEClash.Weighted>
1.6092

> <Gold.Chemscore.DEInternal.Weighted>
1.9766

> <Gold.Chemscore.Rot.Weighted>
5.2832

> <Gold.Chemscore.Internal.Correction.Weighted>
   9.000000E+99

> <Gold.Protein.RotatedTorsions>
[ 6907 6896 6895 6894 ] final  -98.39 input  -60.11 | X-H torsion
[ 7974 7965 7964 7962 ] final   64.71 input  175.53 | X-H torsion
[ 8008 7997 7996 7995 ] final   14.42 input   59.86 | X-H torsion
[ 10167 10162 10161 10158 ] final -119.22 input  -65.29 | X-H torsion
[ 10718 10713 10712 10709 ] final   95.05 input   66.30 | X-H torsion
[ 10763 10752 10751 10750 ] final   76.18 input  -60.55 | X-H torsion
[ 11005 11000 10999 10996 ] final -176.18 input  -57.11 | X-H torsion

> <Gold.Protein.ActiveResidues>
 VAL166  LYS551  ARG553  GLY616  TRP617  ASP618  TYR619  PRO620  LYS621  CYS622 
 ASP623  PHE694  ASN695  SER759  ASP760  ASP761  ALA762  ILE779  LEU786  VAL792 
 PHE793  MET794  SER795  GLU796  ALA797  LYS798  CYS799  TRP800  GLU811  SER814 

> <Gold.Protein.RotatedAtoms>
  150.7045  134.1202  159.4031 H   0  0  0  0  0  0  0  0  0  0  0  0  # atno 6907 bound_to 6896
  151.9189  135.0305  160.0530 H   0  0  0  0  0  0  0  0  0  0  0  0  # atno 6908 bound_to 6896
  152.2273  133.4995  159.5233 H   0  0  0  0  0  0  0  0  0  0  0  0  # atno 6909 bound_to 6896
  145.8470  139.3230  143.0898 H   0  0  0  0  0  0  0  0  0  0  0  0  # atno 7974 bound_to 7965
  154.8482  140.2925  155.5615 H   0  0  0  0  0  0  0  0  0  0  0  0  # atno 8008 bound_to 7997
  156.3015  140.2501  156.3369 H   0  0  0  0  0  0  0  0  0  0  0  0  # atno 8009 bound_to 7997
  154.9050  140.0390  157.1903 H   0  0  0  0  0  0  0  0  0  0  0  0  # atno 8010 bound_to 7997
  140.0490  143.5078  152.2091 H   0  0  0  0  0  0  0  0  0  0  0  0  # atno 10167 bound_to 10162
  157.6942  131.0533  150.4280 H   0  0  0  0  0  0  0  0  0  0  0  0  # atno 10718 bound_to 10713
  153.0707  135.4961  154.8298 H   0  0  0  0  0  0  0  0  0  0  0  0  # atno 10763 bound_to 10752
  154.7018  135.3003  154.9332 H   0  0  0  0  0  0  0  0  0  0  0  0  # atno 10764 bound_to 10752
  154.0053  135.6761  153.4814 H   0  0  0  0  0  0  0  0  0  0  0  0  # atno 10765 bound_to 10752
  140.4550  134.6308  157.4818 H   0  0  0  0  0  0  0  0  0  0  0  0  # atno 11005 bound_to 11000
  145.9401  140.8986  143.0312 LP  0  0  0  0  0  0  0  0  0  0  0  0  # atno 17320 bound_to 7965
  144.6731  140.1536  143.7428 LP  0  0  0  0  0  0  0  0  0  0  0  0  # atno 17321 bound_to 7965
  139.5965  144.7568  151.3274 LP  0  0  0  0  0  0  0  0  0  0  0  0  # atno 17342 bound_to 10162
  140.7225  143.7095  150.7780 LP  0  0  0  0  0  0  0  0  0  0  0  0  # atno 17343 bound_to 10162
  156.4649  130.4040  149.6553 LP  0  0  0  0  0  0  0  0  0  0  0  0  # atno 17370 bound_to 10713
  156.3654  130.7503  151.2480 LP  0  0  0  0  0  0  0  0  0  0  0  0  # atno 17371 bound_to 10713
  139.9982  134.6878  155.9574 LP  0  0  0  0  0  0  0  0  0  0  0  0  # atno 17394 bound_to 11000
  141.1647  133.6537  156.4439 LP  0  0  0  0  0  0  0  0  0  0  0  0  # atno 17395 bound_to 11000

$$$$
