AV-unprocessed.smi:1952|AV-procd|sdf|7884|dock8
  -GOLD-   2272010 33D 1   1.00000     0.00000
 Structure written by MMmdl.
 39 40  0  0  0  0  0  0  0  0  1 V2000
  144.3196  132.4380  149.6411 C   0  0  0  0  0  0  0  0  0  0  0  0
  145.2032  132.7427  150.8019 C   0  0  0  0  0  0  0  0  0  0  0  0
  146.1335  133.7169  151.0323 C   0  0  0  0  0  0  0  0  0  0  0  0
  146.5969  133.4136  152.3402 C   0  0  0  0  0  0  0  0  0  0  0  0
  147.5944  134.2080  152.9604 N   0  0  0  0  0  0  0  0  0  0  0  0
  148.0898  134.0784  154.2028 C   0  0  0  0  0  0  0  0  0  0  0  0
  147.7403  133.2246  155.0184 O   0  0  0  0  0  0  0  0  0  0  0  0
  149.0216  135.0111  154.4523 N   0  0  0  0  0  0  0  0  0  0  0  0
  149.7417  135.1857  155.7129 C   0  0  1  0  0  0  0  0  0  0  0  0
  150.1804  133.8102  156.2325 C   0  0  0  0  0  0  0  0  0  0  0  0
  150.9568  136.1166  155.5096 C   0  0  0  0  0  0  0  0  0  0  0  0
  150.6681  137.5512  155.5371 N   0  0  0  0  0  0  0  0  0  0  0  0
  151.8782  138.3697  155.5796 C   0  0  0  0  0  0  0  0  0  0  0  0
  151.5514  139.8728  155.5949 C   0  0  0  0  0  0  0  0  0  0  0  0
  150.7548  140.2011  154.4609 O   0  0  0  0  0  0  0  0  0  0  0  0
  149.5439  139.4541  154.4061 C   0  0  0  0  0  0  0  0  0  0  0  0
  149.8679  137.9504  154.3850 C   0  0  0  0  0  0  0  0  0  0  0  0
  146.0029  132.3508  152.8610 N   0  0  0  0  0  0  0  0  0  0  0  0
  145.1070  131.9152  151.8776 O   0  0  0  0  0  0  0  0  0  0  0  0
  144.4071  133.2059  148.8723 H   0  0  0  0  0  0  0  0  0  0  0  0
  143.2759  132.3886  149.9519 H   0  0  0  0  0  0  0  0  0  0  0  0
  144.5862  131.4802  149.1940 H   0  0  0  0  0  0  0  0  0  0  0  0
  146.4320  134.5158  150.3700 H   0  0  0  0  0  0  0  0  0  0  0  0
  147.9686  134.9581  152.3988 H   0  0  0  0  0  0  0  0  0  0  0  0
  149.2376  135.6687  153.7178 H   0  0  0  0  0  0  0  0  0  0  0  0
  149.0794  135.6067  156.4699 H   0  0  0  0  0  0  0  0  0  0  0  0
  150.6989  133.9003  157.1874 H   0  0  0  0  0  0  0  0  0  0  0  0
  150.8557  133.3160  155.5330 H   0  0  0  0  0  0  0  0  0  0  0  0
  149.3217  133.1557  156.3862 H   0  0  0  0  0  0  0  0  0  0  0  0
  151.7165  135.8879  156.2588 H   0  0  0  0  0  0  0  0  0  0  0  0
  151.4077  135.8667  154.5478 H   0  0  0  0  0  0  0  0  0  0  0  0
  152.4682  138.1351  156.4645 H   0  0  0  0  0  0  0  0  0  0  0  0
  152.5075  138.1461  154.7169 H   0  0  0  0  0  0  0  0  0  0  0  0
  151.0230  140.1429  156.5108 H   0  0  0  0  0  0  0  0  0  0  0  0
  152.4690  140.4608  155.5690 H   0  0  0  0  0  0  0  0  0  0  0  0
  148.9161  139.7021  155.2635 H   0  0  0  0  0  0  0  0  0  0  0  0
  148.9901  139.7360  153.5105 H   0  0  0  0  0  0  0  0  0  0  0  0
  150.3994  137.7086  153.4632 H   0  0  0  0  0  0  0  0  0  0  0  0
  148.9365  137.3834  154.3662 H   0  0  0  0  0  0  0  0  0  0  0  0
  1  2  1  0  0  0  0
  1 20  1  0  0  0  0
  1 21  1  0  0  0  0
  1 22  1  0  0  0  0
  2 19  1  0  0  0  0
  2  3  2  0  0  0  0
  3  4  1  0  0  0  0
  3 23  1  0  0  0  0
  4  5  1  0  0  0  0
  4 18  2  0  0  0  0
  5  6  1  0  0  0  0
  5 24  1  0  0  0  0
  6  7  2  0  0  0  0
  6  8  1  0  0  0  0
  8  9  1  0  0  0  0
  8 25  1  0  0  0  0
  9 10  1  0  0  0  0
  9 11  1  0  0  0  0
  9 26  1  0  0  0  0
 10 27  1  0  0  0  0
 10 28  1  0  0  0  0
 10 29  1  0  0  0  0
 11 12  1  0  0  0  0
 11 30  1  0  0  0  0
 11 31  1  0  0  0  0
 12 17  1  0  0  0  0
 12 13  1  0  0  0  0
 13 14  1  0  0  0  0
 13 32  1  0  0  0  0
 13 33  1  0  0  0  0
 14 15  1  0  0  0  0
 14 34  1  0  0  0  0
 14 35  1  0  0  0  0
 15 16  1  0  0  0  0
 16 17  1  0  0  0  0
 16 36  1  0  0  0  0
 16 37  1  0  0  0  0
 17 38  1  0  0  0  0
 17 39  1  0  0  0  0
 18 19  1  0  0  0  0
M  END
> <s_m_source_file>
AV-unprocessed.smi

> <i_m_source_file_index>
1952

> <i_lp_mmshare_version>
43012

> <i_f3d_flags>
0

> <s_epik_input>
W0NIM11jMVtjSF1jKG5vMSlbTkhdQyg9TylbTkhdW0NASF0oW0NIM10pW0NIMl1OMltDSDJdW0NIMl1PW0NIMl1bQ0gyXTI=

> <s_epik_cmdline>
J2VwaWtfcHl0aG9uJywgJy1waCcsICc3LjAnLCAnLXRuJywgJzgnLCAnLW1hJywgJzIwMCcsICctbWV0YWxfYmluZGluZycsICctaW1hZScsICc8aW5maWxlLm1hZT4nLCAnLW9tYWUnLCAnPG91dGZpbGUubWFlPic=

> <r_epik_Ionization_Penalty>
0.214075

> <r_epik_Ionization_Penalty_Charging>
0

> <r_epik_Ionization_Penalty_Neutral>
0.214075

> <r_epik_State_Penalty>
0.204211

> <r_epik_Charging_Adjusted_Penalty>
0.204211

> <i_epik_Tot_Q>
0

> <i_epik_Tot_abs_Q>
0

> <r_epik_Metal_State_Penalty>
0.218782

> <b_epik_Metal_Only>
0

> <s_lp_Force_Field>
OPLS_2005

> <r_lp_Energy>
23.1471

> <b_lp_Chiralities_Consistent>
1

> <s_lp_Variant>
AV-unprocessed.smi:1952-2

> <Gold.Version>
5.8.1

> <Gold.Id.Protein>
6NUR|6NUR_protein|mol2

> <Gold.PLP.Fitness>
37.3574

> <Gold.PLP.PLP>
-29.3844

> <Gold.PLP.part.hbond>
-2.9714

> <Gold.PLP.part.metal>
0.0000

> <Gold.PLP.part.buried>
-2.5089

> <Gold.PLP.part.nonpolar>
-23.6414

> <Gold.PLP.part.repulsive>
0.4845

> <Gold.PLP.ligand.clash>
0.0000

> <Gold.PLP.ligand.torsion>
0.4653

> <Gold.PLP.Chemscore.Hbond>
2.9600

> <Gold.PLP.Chemscore.CHOScore>
0.0000

> <Gold.PLP.Chemscore.Metal>
0.0000

> <Gold.Chemscore.Hbonds>
donor molecule, donor type, donor heavy atom, donor atom, acceptor molecule, acceptor atom, score
      L1  H     5    24       P1  7948  1.00
      L1  H     8    25       P1  7948  0.96
      P1  H  7989  7998       L1    15  0.83

> <Gold.PLP.Chemscore.Internal.Correction>
0.0236

> <Gold.Rescore>
     Score         DG    S(hbond)    S(metal)    S(lipo)     H(rot)  DE(clash)    DE(int)     intcor
     14.95     -18.16       2.76        0.00      63.76       1.56       0.01       3.20       ----

> <Gold.Chemscore.Fitness>
14.9536

> <Gold.Chemscore.DG>
-18.1642

> <Gold.Chemscore.ZeroCoef>
-5.4800

> <Gold.Chemscore.Hbond>
2.7595

> <Gold.Chemscore.Metal>
0.0000

> <Gold.Chemscore.Lipo>
63.7621

> <Gold.Chemscore.Internal_Hbond>
0.0000

> <Gold.Chemscore.DEClash>
0.0149

> <Gold.Chemscore.DEInternal>
3.1957

> <Gold.Chemscore.Rot>
1.5597

> <Gold.Chemscore.Internal.Correction>
   9.000000E+99

> <Gold.Chemscore.Hbonds>
donor molecule, donor type, donor heavy atom, donor atom, acceptor molecule, acceptor atom, score
      L1  H     5    24       P1  7948  0.82
      L1  H     8    25       P1  7948  0.60
      P1  H  7989  7998       L1    15  0.50

> <Gold.Chemscore.Hbond.Weighted>
-9.2168

> <Gold.Chemscore.Metal.Weighted>
-0.0000

> <Gold.Chemscore.Lipo.Weighted>
-7.4602

> <Gold.Chemscore.Internal_Hbond.Weighted>
0.0000

> <Gold.Chemscore.DEClash.Weighted>
0.0149

> <Gold.Chemscore.DEInternal.Weighted>
3.1957

> <Gold.Chemscore.Rot.Weighted>
3.9928

> <Gold.Chemscore.Internal.Correction.Weighted>
   9.000000E+99

> <Gold.Protein.RotatedTorsions>
[ 6907 6896 6895 6894 ] final  -99.20 input  -60.11 | X-H torsion
[ 7974 7965 7964 7962 ] final   11.76 input  175.53 | X-H torsion
[ 8008 7997 7996 7995 ] final  -41.28 input   59.86 | X-H torsion
[ 10167 10162 10161 10158 ] final  108.55 input  -65.29 | X-H torsion
[ 10718 10713 10712 10709 ] final -105.07 input   66.30 | X-H torsion
[ 10763 10752 10751 10750 ] final  172.40 input  -60.55 | X-H torsion
[ 11005 11000 10999 10996 ] final -128.44 input  -57.11 | X-H torsion

> <Gold.Protein.ActiveResidues>
 VAL166  LYS551  ARG553  GLY616  TRP617  ASP618  TYR619  PRO620  LYS621  CYS622 
 ASP623  PHE694  ASN695  SER759  ASP760  ASP761  ALA762  ILE779  LEU786  VAL792 
 PHE793  MET794  SER795  GLU796  ALA797  LYS798  CYS799  TRP800  GLU811  SER814 

> <Gold.Protein.RotatedAtoms>
  150.7072  134.1077  159.3988 H   0  0  0  0  0  0  0  0  0  0  0  0  # atno 6907 bound_to 6896
  151.9063  135.0355  160.0520 H   0  0  0  0  0  0  0  0  0  0  0  0  # atno 6908 bound_to 6896
  152.2372  133.5071  159.5286 H   0  0  0  0  0  0  0  0  0  0  0  0  # atno 6909 bound_to 6896
  146.2365  139.9437  142.8480 H   0  0  0  0  0  0  0  0  0  0  0  0  # atno 7974 bound_to 7965
  154.4005  140.1503  156.3165 H   0  0  0  0  0  0  0  0  0  0  0  0  # atno 8008 bound_to 7997
  155.8568  140.3455  155.5708 H   0  0  0  0  0  0  0  0  0  0  0  0  # atno 8009 bound_to 7997
  155.7924  140.0858  157.1992 H   0  0  0  0  0  0  0  0  0  0  0  0  # atno 8010 bound_to 7997
  139.6837  144.7115  151.1470 H   0  0  0  0  0  0  0  0  0  0  0  0  # atno 10167 bound_to 10162
  156.0330  130.5546  150.7486 H   0  0  0  0  0  0  0  0  0  0  0  0  # atno 10718 bound_to 10713
  154.4255  135.2758  155.1947 H   0  0  0  0  0  0  0  0  0  0  0  0  # atno 10763 bound_to 10752
  154.3875  135.6073  153.5828 H   0  0  0  0  0  0  0  0  0  0  0  0  # atno 10764 bound_to 10752
  152.9834  135.5895  154.4558 H   0  0  0  0  0  0  0  0  0  0  0  0  # atno 10765 bound_to 10752
  140.9516  134.1057  157.4056 H   0  0  0  0  0  0  0  0  0  0  0  0  # atno 11005 bound_to 11000
  145.1928  140.9819  143.4201 LP  0  0  0  0  0  0  0  0  0  0  0  0  # atno 17320 bound_to 7965
  144.9842  139.3753  143.6247 LP  0  0  0  0  0  0  0  0  0  0  0  0  # atno 17321 bound_to 7965
  140.7660  143.5661  150.9046 LP  0  0  0  0  0  0  0  0  0  0  0  0  # atno 17342 bound_to 10162
  139.9335  143.6466  152.3071 LP  0  0  0  0  0  0  0  0  0  0  0  0  # atno 17343 bound_to 10162
  157.5037  131.0920  151.0284 LP  0  0  0  0  0  0  0  0  0  0  0  0  # atno 17370 bound_to 10713
  157.0658  130.5844  149.5393 LP  0  0  0  0  0  0  0  0  0  0  0  0  # atno 17371 bound_to 10713
  139.8849  135.0067  156.6401 LP  0  0  0  0  0  0  0  0  0  0  0  0  # atno 17394 bound_to 11000
  140.7594  133.8830  155.8407 LP  0  0  0  0  0  0  0  0  0  0  0  0  # atno 17395 bound_to 11000

$$$$
