AV-unprocessed.smi:1056|AV-procd|sdf|4631|dock3
  -GOLD-   22720 3133D 1   1.00000     0.00000
 Structure written by MMmdl.
 45 47  0  0  0  0  0  0  0  0  2 V2000
  152.1513  143.6144  160.1959 C   0  0  0  0  0  0  0  0  0  0  0  0
  151.9413  142.5173  159.1671 C   0  0  0  0  0  0  0  0  0  0  0  0
  151.0082  142.7216  158.1257 C   0  0  0  0  0  0  0  0  0  0  0  0
  150.7863  141.7284  157.1469 C   0  0  0  0  0  0  0  0  0  0  0  0
  149.9360  141.7159  156.0546 N   0  0  0  0  0  0  0  0  0  0  0  0
  150.1862  140.5185  155.5332 C   0  0  0  0  0  0  0  0  0  0  0  0
  151.0975  139.7507  156.1619 N   0  0  0  0  0  0  0  0  0  0  0  0
  151.5322  138.4168  155.7886 C   0  0  0  0  0  0  0  0  0  0  0  0
  150.4277  137.6221  155.0662 C   0  0  1  0  0  0  0  0  0  0  0  0
  150.3449  138.0533  153.7207 O   0  0  0  0  0  0  0  0  0  0  0  0
  150.7023  136.1058  155.0865 C   0  0  0  0  0  0  0  0  0  0  0  0
  149.6277  135.3272  154.4201 N   0  3  2  0  0  0  0  0  0  0  0  0
  148.2994  135.4703  155.0625 C   0  0  0  0  0  0  0  0  0  0  0  0
  147.2155  134.8181  154.1865 C   0  0  0  0  0  0  0  0  0  0  0  0
  147.6186  133.5192  153.6525 N   0  0  0  0  0  0  0  0  0  0  0  0
  148.8735  133.0409  153.6331 C   0  0  0  0  0  0  0  0  0  0  0  0
  149.1386  131.9400  153.1578 O   0  0  0  0  0  0  0  0  0  0  0  0
  149.9983  133.9017  154.2289 C   0  0  0  0  0  0  0  0  0  0  0  0
  151.5279  140.5146  157.2409 C   0  0  0  0  0  0  0  0  0  0  0  0
  152.4583  140.2987  158.2725 C   0  0  0  0  0  0  0  0  0  0  0  0
  152.6698  141.3028  159.2406 C   0  0  0  0  0  0  0  0  0  0  0  0
  153.6802  141.0631  160.3486 C   0  0  0  0  0  0  0  0  0  0  0  0
  151.4743  144.4525  160.0276 H   0  0  0  0  0  0  0  0  0  0  0  0
  153.1726  143.9923  160.1458 H   0  0  0  0  0  0  0  0  0  0  0  0
  151.9698  143.2377  161.2026 H   0  0  0  0  0  0  0  0  0  0  0  0
  150.4540  143.6470  158.0688 H   0  0  0  0  0  0  0  0  0  0  0  0
  149.6740  140.1776  154.6452 H   0  0  0  0  0  0  0  0  0  0  0  0
  152.4210  138.4996  155.1612 H   0  0  0  0  0  0  0  0  0  0  0  0
  151.8392  137.8957  156.6963 H   0  0  0  0  0  0  0  0  0  0  0  0
  149.4748  137.8385  155.5485 H   0  0  0  0  0  0  0  0  0  0  0  0
  149.8563  137.4132  153.2253 H   0  0  0  0  0  0  0  0  0  0  0  0
  151.6557  135.9193  154.5888 H   0  0  0  0  0  0  0  0  0  0  0  0
  150.8200  135.7489  156.1109 H   0  0  0  0  0  0  0  0  0  0  0  0
  148.3241  134.9947  156.0443 H   0  0  0  0  0  0  0  0  0  0  0  0
  148.0473  136.5173  155.2268 H   0  0  0  0  0  0  0  0  0  0  0  0
  146.2886  134.7058  154.7496 H   0  0  0  0  0  0  0  0  0  0  0  0
  146.9915  135.4667  153.3389 H   0  0  0  0  0  0  0  0  0  0  0  0
  146.8890  132.9411  153.2600 H   0  0  0  0  0  0  0  0  0  0  0  0
  150.8714  133.8405  153.5779 H   0  0  0  0  0  0  0  0  0  0  0  0
  150.2823  133.4689  155.1892 H   0  0  0  0  0  0  0  0  0  0  0  0
  153.0064  139.3694  158.3165 H   0  0  0  0  0  0  0  0  0  0  0  0
  154.1602  140.0895  160.2458 H   0  0  0  0  0  0  0  0  0  0  0  0
  153.1935  141.0945  161.3233 H   0  0  0  0  0  0  0  0  0  0  0  0
  154.4601  141.8248  160.3259 H   0  0  0  0  0  0  0  0  0  0  0  0
  149.5379  135.7140  153.4911 H   0  0  0  0  0  0  0  0  0  0  0  0
  1  2  1  0  0  0  0
  1 23  1  0  0  0  0
  1 24  1  0  0  0  0
  1 25  1  0  0  0  0
  2 21  1  0  0  0  0
  2  3  2  0  0  0  0
  3  4  1  0  0  0  0
  3 26  1  0  0  0  0
  4 19  2  0  0  0  0
  4  5  1  0  0  0  0
  5  6  2  0  0  0  0
  6  7  1  0  0  0  0
  6 27  1  0  0  0  0
  7  8  1  0  0  0  0
  7 19  1  0  0  0  0
  8  9  1  0  0  0  0
  8 28  1  0  0  0  0
  8 29  1  0  0  0  0
  9 10  1  0  0  0  0
  9 11  1  0  0  0  0
  9 30  1  0  0  0  0
 10 31  1  0  0  0  0
 11 12  1  0  0  0  0
 11 32  1  0  0  0  0
 11 33  1  0  0  0  0
 12 18  1  0  0  0  0
 12 13  1  0  0  0  0
 12 45  1  0  0  0  0
 13 14  1  0  0  0  0
 13 34  1  0  0  0  0
 13 35  1  0  0  0  0
 14 15  1  0  0  0  0
 14 36  1  0  0  0  0
 14 37  1  0  0  0  0
 15 16  1  0  0  0  0
 15 38  1  0  0  0  0
 16 17  2  0  0  0  0
 16 18  1  0  0  0  0
 18 39  1  0  0  0  0
 18 40  1  0  0  0  0
 19 20  1  0  0  0  0
 20 21  2  0  0  0  0
 20 41  1  0  0  0  0
 21 22  1  0  0  0  0
 22 42  1  0  0  0  0
 22 43  1  0  0  0  0
 22 44  1  0  0  0  0
M  CHG  1  12   1
M  END
> <s_m_source_file>
AV-unprocessed.smi

> <i_m_source_file_index>
1056

> <i_lp_mmshare_version>
43012

> <i_f3d_flags>
0

> <s_epik_input>
W0NIM11jKFtjSF0xKWMoW0NIM10pW2NIXWMoYzEyKW4oW2NIXW4yKVtDSDJdW0NASF0oW09IXSlbQ0gyXU4zW0NIMl1bQ0gyXVtOSF1DKD1PKVtDSDJdMw==

> <s_epik_cmdline>
J2VwaWtfcHl0aG9uJywgJy1waCcsICc3LjAnLCAnLXRuJywgJzgnLCAnLW1hJywgJzIwMCcsICctbWV0YWxfYmluZGluZycsICctaW1hZScsICc8aW5maWxlLm1hZT4nLCAnLW9tYWUnLCAnPG91dGZpbGUubWFlPic=

> <r_epik_Ionization_Penalty>
0.153633

> <r_epik_Ionization_Penalty_Charging>
0.0674887

> <r_epik_Ionization_Penalty_Neutral>
0.0861443

> <r_epik_State_Penalty>
0.135155

> <r_epik_Charging_Adjusted_Penalty>
0.202644

> <i_epik_Tot_Q>
1

> <i_epik_Tot_abs_Q>
1

> <r_epik_Metal_State_Penalty>
0.190685

> <b_epik_Metal_Only>
0

> <s_lp_Force_Field>
OPLS_2005

> <r_lp_Energy>
24.3112

> <b_lp_Chiralities_Consistent>
1

> <s_lp_Variant>
AV-unprocessed.smi:1056-2

> <Gold.Version>
5.8.1

> <Gold.Id.Protein>
6NUR|6NUR_protein|mol2

> <Gold.PLP.Fitness>
48.9275

> <Gold.PLP.PLP>
-41.0230

> <Gold.PLP.part.hbond>
-3.2216

> <Gold.PLP.part.metal>
0.0000

> <Gold.PLP.part.buried>
-2.7082

> <Gold.PLP.part.nonpolar>
-34.3630

> <Gold.PLP.part.repulsive>
0.9934

> <Gold.PLP.ligand.clash>
0.0000

> <Gold.PLP.ligand.torsion>
0.5653

> <Gold.PLP.Chemscore.Hbond>
3.0000

> <Gold.PLP.Chemscore.CHOScore>
0.0000

> <Gold.PLP.Chemscore.Metal>
0.0000

> <Gold.Chemscore.Hbonds>
donor molecule, donor type, donor heavy atom, donor atom, acceptor molecule, acceptor atom, score
      L1  H    10    31       P1  7948  1.00
      L1  H    12    45       P1  7948  1.80

> <Gold.PLP.Chemscore.Internal.Correction>
0.0349

> <Gold.Rescore>
     Score         DG    S(hbond)    S(metal)    S(lipo)     H(rot)  DE(clash)    DE(int)     intcor
     15.94     -16.77       1.87        0.00      95.29       2.38       0.15       0.68       ----

> <Gold.Chemscore.Fitness>
15.9377

> <Gold.Chemscore.DG>
-16.7735

> <Gold.Chemscore.ZeroCoef>
-5.4800

> <Gold.Chemscore.Hbond>
1.8662

> <Gold.Chemscore.Metal>
0.0000

> <Gold.Chemscore.Lipo>
95.2879

> <Gold.Chemscore.Internal_Hbond>
0.0000

> <Gold.Chemscore.DEClash>
0.1545

> <Gold.Chemscore.DEInternal>
0.6812

> <Gold.Chemscore.Rot>
2.3783

> <Gold.Chemscore.Internal.Correction>
   9.000000E+99

> <Gold.Chemscore.Hbonds>
donor molecule, donor type, donor heavy atom, donor atom, acceptor molecule, acceptor atom, score
      L1  H    10    31       P1  7948  0.44
      L1  H    12    45       P1  7948  0.18

> <Gold.Chemscore.Hbond.Weighted>
-6.2331

> <Gold.Chemscore.Metal.Weighted>
-0.0000

> <Gold.Chemscore.Lipo.Weighted>
-11.1487

> <Gold.Chemscore.Internal_Hbond.Weighted>
0.0000

> <Gold.Chemscore.DEClash.Weighted>
0.1545

> <Gold.Chemscore.DEInternal.Weighted>
0.6812

> <Gold.Chemscore.Rot.Weighted>
6.0884

> <Gold.Chemscore.Internal.Correction.Weighted>
   9.000000E+99

> <Gold.Protein.RotatedTorsions>
[ 6907 6896 6895 6894 ] final   63.25 input  -60.11 | X-H torsion
[ 7974 7965 7964 7962 ] final  108.33 input  175.53 | X-H torsion
[ 8008 7997 7996 7995 ] final   81.28 input   59.86 | X-H torsion
[ 10167 10162 10161 10158 ] final  123.10 input  -65.29 | X-H torsion
[ 10718 10713 10712 10709 ] final  -30.01 input   66.30 | X-H torsion
[ 10763 10752 10751 10750 ] final   44.81 input  -60.55 | X-H torsion
[ 11005 11000 10999 10996 ] final -163.48 input  -57.11 | X-H torsion

> <Gold.Protein.ActiveResidues>
 VAL166  LYS551  ARG553  GLY616  TRP617  ASP618  TYR619  PRO620  LYS621  CYS622 
 ASP623  PHE694  ASN695  SER759  ASP760  ASP761  ALA762  ILE779  LEU786  VAL792 
 PHE793  MET794  SER795  GLU796  ALA797  LYS798  CYS799  TRP800  GLU811  SER814 

> <Gold.Protein.RotatedAtoms>
  152.4238  134.5906  159.9972 H   0  0  0  0  0  0  0  0  0  0  0  0  # atno 6907 bound_to 6896
  151.6049  133.3347  159.3063 H   0  0  0  0  0  0  0  0  0  0  0  0  # atno 6908 bound_to 6896
  150.8127  134.7328  159.6767 H   0  0  0  0  0  0  0  0  0  0  0  0  # atno 6909 bound_to 6896
  145.2821  139.2629  143.3910 H   0  0  0  0  0  0  0  0  0  0  0  0  # atno 7974 bound_to 7965
  155.8950  140.3436  155.5984 H   0  0  0  0  0  0  0  0  0  0  0  0  # atno 8008 bound_to 7997
  155.7567  140.0827  157.2194 H   0  0  0  0  0  0  0  0  0  0  0  0  # atno 8009 bound_to 7997
  154.4037  140.1543  156.2773 H   0  0  0  0  0  0  0  0  0  0  0  0  # atno 8010 bound_to 7997
  139.5819  144.6990  151.3506 H   0  0  0  0  0  0  0  0  0  0  0  0  # atno 10167 bound_to 10162
  156.4052  130.4397  149.7293 H   0  0  0  0  0  0  0  0  0  0  0  0  # atno 10718 bound_to 10713
  152.9835  135.6059  154.3334 H   0  0  0  0  0  0  0  0  0  0  0  0  # atno 10763 bound_to 10752
  154.3036  135.2772  155.2601 H   0  0  0  0  0  0  0  0  0  0  0  0  # atno 10764 bound_to 10752
  154.4842  135.5909  153.6468 H   0  0  0  0  0  0  0  0  0  0  0  0  # atno 10765 bound_to 10752
  140.5976  134.4981  157.5201 H   0  0  0  0  0  0  0  0  0  0  0  0  # atno 11005 bound_to 11000
  146.3213  140.3290  142.8639 LP  0  0  0  0  0  0  0  0  0  0  0  0  # atno 17320 bound_to 7965
  144.9245  140.7905  143.5728 LP  0  0  0  0  0  0  0  0  0  0  0  0  # atno 17321 bound_to 7965
  140.7096  143.7424  150.7543 LP  0  0  0  0  0  0  0  0  0  0  0  0  # atno 17342 bound_to 10162
  140.0959  143.4833  152.2452 LP  0  0  0  0  0  0  0  0  0  0  0  0  # atno 17343 bound_to 10162
  156.4293  130.7807  151.2826 LP  0  0  0  0  0  0  0  0  0  0  0  0  # atno 17370 bound_to 10713
  157.7505  131.0159  150.3522 LP  0  0  0  0  0  0  0  0  0  0  0  0  # atno 17371 bound_to 10713
  139.9246  134.8080  156.1106 LP  0  0  0  0  0  0  0  0  0  0  0  0  # atno 17394 bound_to 11000
  141.0894  133.6721  156.2506 LP  0  0  0  0  0  0  0  0  0  0  0  0  # atno 17395 bound_to 11000

$$$$
