AV-unprocessed.smi:1946|AV-procd|sdf|7864|dock8
  -GOLD-   2272010 13D 1   1.00000     0.00000
 Structure written by MMmdl.
 39 41  0  0  0  0  0  0  0  0  2 V2000
  143.8941  144.7823  155.0070 C   0  0  0  0  0  0  0  0  0  0  0  0
  143.9841  143.3471  156.1529 S   0  0  0  0  0  0  0  0  0  0  0  0
  143.9956  143.8628  157.5307 O   0  0  0  0  0  0  0  0  0  0  0  0
  142.9570  142.3751  155.7476 O   0  0  0  0  0  0  0  0  0  0  0  0
  145.5892  142.6352  155.8115 C   0  0  0  0  0  0  0  0  0  0  0  0
  146.0318  142.5198  154.4791 C   0  0  0  0  0  0  0  0  0  0  0  0
  147.3084  141.9884  154.2132 C   0  0  0  0  0  0  0  0  0  0  0  0
  148.1467  141.5807  155.2748 C   0  0  0  0  0  0  0  0  0  0  0  0
  149.5323  141.0167  154.9929 C   0  0  1  0  0  0  0  0  0  0  0  0
  149.7659  140.8515  153.6102 O   0  0  0  0  0  0  0  0  0  0  0  0
  150.6566  141.9033  155.5654 C   0  0  0  0  0  0  0  0  0  0  0  0
  151.1447  141.4292  156.8666 N   0  0  0  0  0  0  0  0  0  0  0  0
  151.1897  140.1679  157.3754 C   0  0  0  0  0  0  0  0  0  0  0  0
  151.7397  140.2463  158.6189 N   0  3  0  0  0  0  0  0  0  0  0  0
  152.0469  141.5773  158.9099 C   0  0  0  0  0  0  0  0  0  0  0  0
  152.6158  142.1559  160.0403 C   0  0  0  0  0  0  0  0  0  0  0  0
  152.7943  143.5550  160.0135 C   0  0  0  0  0  0  0  0  0  0  0  0
  152.4125  144.3235  158.8944 C   0  0  0  0  0  0  0  0  0  0  0  0
  151.8361  143.7265  157.7537 C   0  0  0  0  0  0  0  0  0  0  0  0
  151.6647  142.3433  157.7883 C   0  0  0  0  0  0  0  0  0  0  0  0
  147.6997  141.7174  156.6074 C   0  0  0  0  0  0  0  0  0  0  0  0
  146.4236  142.2481  156.8786 C   0  0  0  0  0  0  0  0  0  0  0  0
  142.9387  145.2900  155.1378 H   0  0  0  0  0  0  0  0  0  0  0  0
  143.9812  144.4332  153.9782 H   0  0  0  0  0  0  0  0  0  0  0  0
  144.7059  145.4754  155.2262 H   0  0  0  0  0  0  0  0  0  0  0  0
  145.4002  142.8350  153.6618 H   0  0  0  0  0  0  0  0  0  0  0  0
  147.6448  141.8988  153.1905 H   0  0  0  0  0  0  0  0  0  0  0  0
  149.6001  140.0227  155.4362 H   0  0  0  0  0  0  0  0  0  0  0  0
  149.1813  140.1837  153.2848 H   0  0  0  0  0  0  0  0  0  0  0  0
  151.5050  141.9506  154.8811 H   0  0  0  0  0  0  0  0  0  0  0  0
  150.3084  142.9289  155.6978 H   0  0  0  0  0  0  0  0  0  0  0  0
  150.8552  139.2679  156.8796 H   0  0  0  0  0  0  0  0  0  0  0  0
  152.9079  141.5706  160.9001 H   0  0  0  0  0  0  0  0  0  0  0  0
  153.2320  144.0490  160.8687 H   0  0  0  0  0  0  0  0  0  0  0  0
  152.5637  145.3931  158.9115 H   0  0  0  0  0  0  0  0  0  0  0  0
  151.5458  144.3240  156.9020 H   0  0  0  0  0  0  0  0  0  0  0  0
  148.3361  141.4197  157.4280 H   0  0  0  0  0  0  0  0  0  0  0  0
  146.0922  142.3550  157.9009 H   0  0  0  0  0  0  0  0  0  0  0  0
  151.8911  139.4483  159.2227 H   0  0  0  0  0  0  0  0  0  0  0  0
  1  2  1  0  0  0  0
  1 23  1  0  0  0  0
  1 24  1  0  0  0  0
  1 25  1  0  0  0  0
  2  3  2  0  0  0  0
  2  4  2  0  0  0  0
  2  5  1  0  0  0  0
  5 22  1  0  0  0  0
  5  6  2  0  0  0  0
  6  7  1  0  0  0  0
  6 26  1  0  0  0  0
  7  8  2  0  0  0  0
  7 27  1  0  0  0  0
  8  9  1  0  0  0  0
  8 21  1  0  0  0  0
  9 10  1  0  0  0  0
  9 11  1  0  0  0  0
  9 28  1  0  0  0  0
 10 29  1  0  0  0  0
 11 12  1  0  0  0  0
 11 30  1  0  0  0  0
 11 31  1  0  0  0  0
 12 20  1  0  0  0  0
 12 13  1  0  0  0  0
 13 14  2  0  0  0  0
 13 32  1  0  0  0  0
 14 15  1  0  0  0  0
 14 39  1  0  0  0  0
 15 20  2  0  0  0  0
 15 16  1  0  0  0  0
 16 17  2  0  0  0  0
 16 33  1  0  0  0  0
 17 18  1  0  0  0  0
 17 34  1  0  0  0  0
 18 19  2  0  0  0  0
 18 35  1  0  0  0  0
 19 20  1  0  0  0  0
 19 36  1  0  0  0  0
 21 22  2  0  0  0  0
 21 37  1  0  0  0  0
 22 38  1  0  0  0  0
M  CHG  1  14   1
M  END
> <s_m_source_file>
AV-unprocessed.smi

> <i_m_source_file_index>
1946

> <i_lp_mmshare_version>
43012

> <i_f3d_flags>
0

> <s_epik_input>
W0NIM11TKD1PKSg9TyljMVtjSF1bY0hdYyhbY0hdW2NIXTEpW0NASF0oW09IXSlbQ0gyXW4oW2NIXW4yKWMoYzIzKVtjSF1bY0hdW2NIXVtjSF0z

> <s_epik_cmdline>
J2VwaWtfcHl0aG9uJywgJy1waCcsICc3LjAnLCAnLXRuJywgJzgnLCAnLW1hJywgJzIwMCcsICctbWV0YWxfYmluZGluZycsICctaW1hZScsICc8aW5maWxlLm1hZT4nLCAnLW9tYWUnLCAnPG91dGZpbGUubWFlPic=

> <r_epik_Ionization_Penalty>
1.3029

> <r_epik_Ionization_Penalty_Charging>
1.3029

> <r_epik_Ionization_Penalty_Neutral>
1.34362e-06

> <r_epik_State_Penalty>
1.377

> <r_epik_Charging_Adjusted_Penalty>
2.6799

> <i_epik_Tot_Q>
1

> <i_epik_Tot_abs_Q>
1

> <r_epik_Metal_State_Penalty>
5.40879

> <b_epik_Metal_Only>
0

> <s_lp_Force_Field>
OPLS_2005

> <r_lp_Energy>
16.9066

> <b_lp_Chiralities_Consistent>
1

> <s_lp_Variant>
AV-unprocessed.smi:1946-4

> <Gold.Version>
5.8.1

> <Gold.Id.Protein>
6NUR|6NUR_protein|mol2

> <Gold.PLP.Fitness>
48.7955

> <Gold.PLP.PLP>
-46.5827

> <Gold.PLP.part.hbond>
-2.8211

> <Gold.PLP.part.metal>
0.0000

> <Gold.PLP.part.buried>
-3.5077

> <Gold.PLP.part.nonpolar>
-39.8509

> <Gold.PLP.part.repulsive>
0.3644

> <Gold.PLP.ligand.clash>
0.0000

> <Gold.PLP.ligand.torsion>
2.0971

> <Gold.PLP.Chemscore.Hbond>
1.4532

> <Gold.PLP.Chemscore.CHOScore>
0.0000

> <Gold.PLP.Chemscore.Metal>
0.0000

> <Gold.Chemscore.Hbonds>
donor molecule, donor type, donor heavy atom, donor atom, acceptor molecule, acceptor atom, score
      L1  H    10    29       P1  7957  0.06
      P1  H  7989  7998       L1    10  0.37
      P1  H  8011  8017       L1    10  1.00

> <Gold.PLP.Chemscore.Internal.Correction>
2.0476

> <Gold.Rescore>
     Score         DG    S(hbond)    S(metal)    S(lipo)     H(rot)  DE(clash)    DE(int)     intcor
     14.45     -17.09       1.01        0.00     114.94       2.04       0.47       2.17       ----

> <Gold.Chemscore.Fitness>
14.4506

> <Gold.Chemscore.DG>
-17.0920

> <Gold.Chemscore.ZeroCoef>
-5.4800

> <Gold.Chemscore.Hbond>
1.0125

> <Gold.Chemscore.Metal>
0.0000

> <Gold.Chemscore.Lipo>
114.9402

> <Gold.Chemscore.Internal_Hbond>
0.0000

> <Gold.Chemscore.DEClash>
0.4748

> <Gold.Chemscore.DEInternal>
2.1666

> <Gold.Chemscore.Rot>
2.0382

> <Gold.Chemscore.Internal.Correction>
   9.000000E+99

> <Gold.Chemscore.Hbonds>
donor molecule, donor type, donor heavy atom, donor atom, acceptor molecule, acceptor atom, score
      L1  H    10    29       P1  7957  0.08
      P1  H  7989  7998       L1    10  0.17
      P1  H  8011  8017       L1    10  0.67

> <Gold.Chemscore.Hbond.Weighted>
-3.3816

> <Gold.Chemscore.Metal.Weighted>
-0.0000

> <Gold.Chemscore.Lipo.Weighted>
-13.4480

> <Gold.Chemscore.Internal_Hbond.Weighted>
0.0000

> <Gold.Chemscore.DEClash.Weighted>
0.4748

> <Gold.Chemscore.DEInternal.Weighted>
2.1666

> <Gold.Chemscore.Rot.Weighted>
5.2177

> <Gold.Chemscore.Internal.Correction.Weighted>
   9.000000E+99

> <Gold.Protein.RotatedTorsions>
[ 6907 6896 6895 6894 ] final  -32.58 input  -60.11 | X-H torsion
[ 7974 7965 7964 7962 ] final   15.66 input  175.53 | X-H torsion
[ 8008 7997 7996 7995 ] final   49.62 input   59.86 | X-H torsion
[ 10167 10162 10161 10158 ] final   64.56 input  -65.29 | X-H torsion
[ 10718 10713 10712 10709 ] final -179.48 input   66.30 | X-H torsion
[ 10763 10752 10751 10750 ] final  166.10 input  -60.55 | X-H torsion
[ 11005 11000 10999 10996 ] final  176.32 input  -57.11 | X-H torsion

> <Gold.Protein.ActiveResidues>
 VAL166  LYS551  ARG553  GLY616  TRP617  ASP618  TYR619  PRO620  LYS621  CYS622 
 ASP623  PHE694  ASN695  SER759  ASP760  ASP761  ALA762  ILE779  LEU786  VAL792 
 PHE793  MET794  SER795  GLU796  ALA797  LYS798  CYS799  TRP800  GLU811  SER814 

> <Gold.Protein.RotatedAtoms>
  151.0768  134.9833  159.8335 H   0  0  0  0  0  0  0  0  0  0  0  0  # atno 6907 bound_to 6896
  152.5415  134.2231  159.8805 H   0  0  0  0  0  0  0  0  0  0  0  0  # atno 6908 bound_to 6896
  151.2258  133.4433  159.2635 H   0  0  0  0  0  0  0  0  0  0  0  0  # atno 6909 bound_to 6896
  146.2272  139.8862  142.8562 H   0  0  0  0  0  0  0  0  0  0  0  0  # atno 7974 bound_to 7965
  155.4053  140.3440  155.4260 H   0  0  0  0  0  0  0  0  0  0  0  0  # atno 8008 bound_to 7997
  156.1480  140.1562  156.8847 H   0  0  0  0  0  0  0  0  0  0  0  0  # atno 8009 bound_to 7997
  154.5027  140.0810  156.7813 H   0  0  0  0  0  0  0  0  0  0  0  0  # atno 8010 bound_to 7997
  140.1209  144.4732  150.6921 H   0  0  0  0  0  0  0  0  0  0  0  0  # atno 10167 bound_to 10162
  156.8597  130.9747  151.3084 H   0  0  0  0  0  0  0  0  0  0  0  0  # atno 10718 bound_to 10713
  154.3340  135.2754  155.2457 H   0  0  0  0  0  0  0  0  0  0  0  0  # atno 10763 bound_to 10752
  154.4757  135.5871  153.6356 H   0  0  0  0  0  0  0  0  0  0  0  0  # atno 10764 bound_to 10752
  152.9864  135.6099  154.3535 H   0  0  0  0  0  0  0  0  0  0  0  0  # atno 10765 bound_to 10752
  140.3718  134.7023  157.4397 H   0  0  0  0  0  0  0  0  0  0  0  0  # atno 11005 bound_to 11000
  145.2463  141.0028  143.3907 LP  0  0  0  0  0  0  0  0  0  0  0  0  # atno 17320 bound_to 7965
  144.9411  139.4188  143.6448 LP  0  0  0  0  0  0  0  0  0  0  0  0  # atno 17321 bound_to 7965
  140.6873  143.2356  151.5227 LP  0  0  0  0  0  0  0  0  0  0  0  0  # atno 17342 bound_to 10162
  139.5569  144.2253  152.1627 LP  0  0  0  0  0  0  0  0  0  0  0  0  # atno 17343 bound_to 10162
  157.6257  130.8689  149.9185 LP  0  0  0  0  0  0  0  0  0  0  0  0  # atno 17370 bound_to 10713
  156.0783  130.3676  150.0632 LP  0  0  0  0  0  0  0  0  0  0  0  0  # atno 17371 bound_to 10713
  140.0546  134.6082  155.8821 LP  0  0  0  0  0  0  0  0  0  0  0  0  # atno 17394 bound_to 11000
  141.1952  133.6586  156.5631 LP  0  0  0  0  0  0  0  0  0  0  0  0  # atno 17395 bound_to 11000

$$$$
