AV-unprocessed.smi:2438|AV-procd|sdf|9601|dock10
  -GOLD-   2272013233D 1   1.00000     0.00000
 Structure written by MMmdl.
 44 45  0  0  0  0  0  0  0  0  2 V2000
  152.1565  139.2389  158.0174 C   0  0  0  0  0  0  0  0  0  0  0  0
  151.2726  139.9646  157.1134 N   0  0  0  0  0  0  0  0  0  0  0  0
  150.4111  140.9676  157.7244 C   0  0  0  0  0  0  0  0  0  0  0  0
  150.6303  139.2039  156.1161 C   0  0  0  0  0  0  0  0  0  0  0  0
  150.9277  139.4721  154.8236 N   0  0  0  0  0  0  0  0  0  0  0  0
  150.3519  138.7628  153.8480 C   0  0  0  0  0  0  0  0  0  0  0  0
  149.4737  137.7803  154.0851 N   0  3  0  0  0  0  0  0  0  0  0  0
  149.1388  137.4739  155.3611 C   0  0  0  0  0  0  0  0  0  0  0  0
  149.7130  138.1772  156.4477 C   0  0  0  0  0  0  0  0  0  0  0  0
  149.3822  137.9384  157.8138 N   0  0  0  0  0  0  0  0  0  0  0  0
  148.5173  137.0522  158.3353 C   0  0  0  0  0  0  0  0  0  0  0  0
  147.8407  136.2543  157.6879 O   0  0  0  0  0  0  0  0  0  0  0  0
  148.4894  137.1399  159.6727 N   0  0  0  0  0  0  0  0  0  0  0  0
  147.6592  136.3377  160.5676 C   0  0  2  0  0  0  0  0  0  0  0  0
  148.1733  136.4712  162.0122 C   0  0  0  0  0  0  0  0  0  0  0  0
  147.3759  135.5758  162.9719 C   0  0  0  0  0  0  0  0  0  0  0  0
  147.3931  134.1098  162.5111 C   0  0  0  0  0  0  0  0  0  0  0  0
  146.8667  133.9597  161.0678 C   0  0  2  0  0  0  0  0  0  0  0  0
  146.8628  132.4886  160.6035 C   0  0  0  0  0  0  0  0  0  0  0  0
  148.0874  131.9655  160.6728 F   0  0  0  0  0  0  0  0  0  0  0  0
  146.0434  131.7697  161.3705 F   0  0  0  0  0  0  0  0  0  0  0  0
  146.4305  132.4084  159.3451 F   0  0  0  0  0  0  0  0  0  0  0  0
  147.6728  134.8663  160.1123 C   0  0  0  0  0  0  0  0  0  0  0  0
  152.8060  138.5584  157.4649 H   0  0  0  0  0  0  0  0  0  0  0  0
  151.5839  138.6605  158.7438 H   0  0  0  0  0  0  0  0  0  0  0  0
  152.7916  139.9367  158.5636 H   0  0  0  0  0  0  0  0  0  0  0  0
  149.9013  141.5755  156.9768 H   0  0  0  0  0  0  0  0  0  0  0  0
  150.9976  141.6369  158.3545 H   0  0  0  0  0  0  0  0  0  0  0  0
  149.6548  140.4900  158.3486 H   0  0  0  0  0  0  0  0  0  0  0  0
  150.5821  138.9712  152.8135 H   0  0  0  0  0  0  0  0  0  0  0  0
  148.4089  136.6842  155.4460 H   0  0  0  0  0  0  0  0  0  0  0  0
  149.9008  138.4919  158.4807 H   0  0  0  0  0  0  0  0  0  0  0  0
  149.0874  137.8247  160.1117 H   0  0  0  0  0  0  0  0  0  0  0  0
  146.6256  136.6878  160.5419 H   0  0  0  0  0  0  0  0  0  0  0  0
  149.2288  136.1981  162.0573 H   0  0  0  0  0  0  0  0  0  0  0  0
  148.1086  137.5098  162.3389 H   0  0  0  0  0  0  0  0  0  0  0  0
  147.7867  135.6534  163.9790 H   0  0  0  0  0  0  0  0  0  0  0  0
  146.3456  135.9290  163.0306 H   0  0  0  0  0  0  0  0  0  0  0  0
  148.4102  133.7213  162.5767 H   0  0  0  0  0  0  0  0  0  0  0  0
  146.7911  133.5105  163.1948 H   0  0  0  0  0  0  0  0  0  0  0  0
  145.8317  134.3056  161.0560 H   0  0  0  0  0  0  0  0  0  0  0  0
  147.2648  134.7959  159.1033 H   0  0  0  0  0  0  0  0  0  0  0  0
  148.7022  134.5097  160.0531 H   0  0  0  0  0  0  0  0  0  0  0  0
  149.0482  137.2640  153.3147 H   0  0  0  0  0  0  0  0  0  0  0  0
  1  2  1  0  0  0  0
  1 24  1  0  0  0  0
  1 25  1  0  0  0  0
  1 26  1  0  0  0  0
  2  3  1  0  0  0  0
  2  4  1  0  0  0  0
  3 27  1  0  0  0  0
  3 28  1  0  0  0  0
  3 29  1  0  0  0  0
  4  9  1  0  0  0  0
  4  5  2  0  0  0  0
  5  6  1  0  0  0  0
  6  7  2  0  0  0  0
  6 30  1  0  0  0  0
  7  8  1  0  0  0  0
  7 44  1  0  0  0  0
  8  9  2  0  0  0  0
  8 31  1  0  0  0  0
  9 10  1  0  0  0  0
 10 11  1  0  0  0  0
 10 32  1  0  0  0  0
 11 12  2  0  0  0  0
 11 13  1  0  0  0  0
 13 14  1  0  0  0  0
 13 33  1  0  0  0  0
 14 23  1  0  0  0  0
 14 15  1  0  0  0  0
 14 34  1  0  0  0  0
 15 16  1  0  0  0  0
 15 35  1  0  0  0  0
 15 36  1  0  0  0  0
 16 17  1  0  0  0  0
 16 37  1  0  0  0  0
 16 38  1  0  0  0  0
 17 18  1  0  0  0  0
 17 39  1  0  0  0  0
 17 40  1  0  0  0  0
 18 19  1  0  0  0  0
 18 23  1  0  0  0  0
 18 41  1  0  0  0  0
 19 20  1  0  0  0  0
 19 21  1  0  0  0  0
 19 22  1  0  0  0  0
 23 42  1  0  0  0  0
 23 43  1  0  0  0  0
M  CHG  1   7   1
M  END
> <s_m_source_file>
AV-unprocessed.smi

> <i_m_source_file_index>
2438

> <i_lp_mmshare_version>
43012

> <i_f3d_flags>
0

> <s_epik_input>
W0NIM11OKFtDSDNdKWMxbltjSF1uW2NIXWMxW05IXUMoPU8pW05IXVtDQEBIXTJbQ0gyXVtDSDJdW0NIMl1bQ0BASF0oQyhGKShGKUYpW0NIMl0y

> <s_epik_cmdline>
J2VwaWtfcHl0aG9uJywgJy1waCcsICc3LjAnLCAnLXRuJywgJzgnLCAnLW1hJywgJzIwMCcsICctbWV0YWxfYmluZGluZycsICctaW1hZScsICc8aW5maWxlLm1hZT4nLCAnLW9tYWUnLCAnPG91dGZpbGUubWFlPic=

> <r_lp_tautomer_probability>
0.999336

> <r_epik_Ionization_Penalty>
2.11643

> <r_epik_Ionization_Penalty_Charging>
2.11639

> <r_epik_Ionization_Penalty_Neutral>
4.47523e-05

> <r_epik_State_Penalty>
2.25369

> <r_epik_Charging_Adjusted_Penalty>
4.37008

> <i_epik_Tot_Q>
1

> <i_epik_Tot_abs_Q>
1

> <r_epik_Metal_State_Penalty>
2.27019

> <b_epik_Metal_Only>
0

> <s_lp_Force_Field>
OPLS_2005

> <r_lp_Energy>
18.5992

> <b_lp_Chiralities_Consistent>
1

> <s_lp_Variant>
AV-unprocessed.smi:2438-7

> <Gold.Version>
5.8.1

> <Gold.Id.Protein>
6NUR|6NUR_protein|mol2

> <Gold.PLP.Fitness>
40.3400

> <Gold.PLP.PLP>
-30.0792

> <Gold.PLP.part.hbond>
-1.8864

> <Gold.PLP.part.metal>
0.0000

> <Gold.PLP.part.buried>
-2.4007

> <Gold.PLP.part.nonpolar>
-25.7988

> <Gold.PLP.part.repulsive>
0.3882

> <Gold.PLP.ligand.clash>
0.0000

> <Gold.PLP.ligand.torsion>
0.4471

> <Gold.PLP.Chemscore.Hbond>
2.6126

> <Gold.PLP.Chemscore.CHOScore>
0.9847

> <Gold.PLP.Chemscore.Metal>
0.0000

> <Gold.Chemscore.Hbonds>
donor molecule, donor type, donor heavy atom, donor atom, acceptor molecule, acceptor atom, score
      L1  H     7    44       P1  7948  2.00
      P1  H  7989  7998       L1     5  0.58
      L1  C     6    30       P1  7957  1.00

> <Gold.PLP.Chemscore.Internal.Correction>
0.3629

> <Gold.Rescore>
     Score         DG    S(hbond)    S(metal)    S(lipo)     H(rot)  DE(clash)    DE(int)     intcor
      9.54     -12.79       1.00        0.00      62.58       1.31       0.12       3.13       ----

> <Gold.Chemscore.Fitness>
9.5440

> <Gold.Chemscore.DG>
-12.7914

> <Gold.Chemscore.ZeroCoef>
-5.4800

> <Gold.Chemscore.Hbond>
0.9994

> <Gold.Chemscore.Metal>
0.0000

> <Gold.Chemscore.Lipo>
62.5767

> <Gold.Chemscore.Internal_Hbond>
0.0000

> <Gold.Chemscore.DEClash>
0.1209

> <Gold.Chemscore.DEInternal>
3.1265

> <Gold.Chemscore.Rot>
1.3078

> <Gold.Chemscore.Internal.Correction>
   9.000000E+99

> <Gold.Chemscore.Hbonds>
donor molecule, donor type, donor heavy atom, donor atom, acceptor molecule, acceptor atom, score
      L1  H     7    44       P1  7948  0.99
      P1  H  7989  7998       L1     5  0.04

> <Gold.Chemscore.Hbond.Weighted>
-3.3380

> <Gold.Chemscore.Metal.Weighted>
-0.0000

> <Gold.Chemscore.Lipo.Weighted>
-7.3215

> <Gold.Chemscore.Internal_Hbond.Weighted>
0.0000

> <Gold.Chemscore.DEClash.Weighted>
0.1209

> <Gold.Chemscore.DEInternal.Weighted>
3.1265

> <Gold.Chemscore.Rot.Weighted>
3.3481

> <Gold.Chemscore.Internal.Correction.Weighted>
   9.000000E+99

> <Gold.Protein.RotatedTorsions>
[ 6907 6896 6895 6894 ] final  -74.14 input  -60.11 | X-H torsion
[ 7974 7965 7964 7962 ] final   76.01 input  175.53 | X-H torsion
[ 8008 7997 7996 7995 ] final  -48.29 input   59.86 | X-H torsion
[ 10167 10162 10161 10158 ] final   87.32 input  -65.29 | X-H torsion
[ 10718 10713 10712 10709 ] final  165.66 input   66.30 | X-H torsion
[ 10763 10752 10751 10750 ] final   31.45 input  -60.55 | X-H torsion
[ 11005 11000 10999 10996 ] final  -96.21 input  -57.11 | X-H torsion

> <Gold.Protein.ActiveResidues>
 VAL166  LYS551  ARG553  GLY616  TRP617  ASP618  TYR619  PRO620  LYS621  CYS622 
 ASP623  PHE694  ASN695  SER759  ASP760  ASP761  ALA762  ILE779  LEU786  VAL792 
 PHE793  MET794  SER795  GLU796  ALA797  LYS798  CYS799  TRP800  GLU811  SER814 

> <Gold.Protein.RotatedAtoms>
  150.7104  134.4913  159.5516 H   0  0  0  0  0  0  0  0  0  0  0  0  # atno 6907 bound_to 6896
  152.2530  134.8110  160.0452 H   0  0  0  0  0  0  0  0  0  0  0  0  # atno 6908 bound_to 6896
  151.8851  133.3468  159.3816 H   0  0  0  0  0  0  0  0  0  0  0  0  # atno 6909 bound_to 6896
  145.7083  139.2606  143.1665 H   0  0  0  0  0  0  0  0  0  0  0  0  # atno 7974 bound_to 7965
  154.4027  140.1325  156.4314 H   0  0  0  0  0  0  0  0  0  0  0  0  # atno 8008 bound_to 7997
  155.7547  140.3487  155.5148 H   0  0  0  0  0  0  0  0  0  0  0  0  # atno 8009 bound_to 7997
  155.8916  140.1004  157.1405 H   0  0  0  0  0  0  0  0  0  0  0  0  # atno 8010 bound_to 7997
  139.8785  144.6453  150.8869 H   0  0  0  0  0  0  0  0  0  0  0  0  # atno 10167 bound_to 10162
  157.0769  131.0381  151.2590 H   0  0  0  0  0  0  0  0  0  0  0  0  # atno 10718 bound_to 10713
  153.0315  135.6438  154.1201 H   0  0  0  0  0  0  0  0  0  0  0  0  # atno 10763 bound_to 10752
  154.0922  135.2865  155.3270 H   0  0  0  0  0  0  0  0  0  0  0  0  # atno 10764 bound_to 10752
  154.6457  135.5444  153.7905 H   0  0  0  0  0  0  0  0  0  0  0  0  # atno 10765 bound_to 10752
  141.1418  133.8081  157.0540 H   0  0  0  0  0  0  0  0  0  0  0  0  # atno 11005 bound_to 11000
  146.0736  140.7842  142.9676 LP  0  0  0  0  0  0  0  0  0  0  0  0  # atno 17320 bound_to 7965
  144.6949  140.3380  143.7204 LP  0  0  0  0  0  0  0  0  0  0  0  0  # atno 17321 bound_to 7965
  140.7748  143.3605  151.1838 LP  0  0  0  0  0  0  0  0  0  0  0  0  # atno 17342 bound_to 10162
  139.7217  143.9212  152.2988 LP  0  0  0  0  0  0  0  0  0  0  0  0  # atno 17343 bound_to 10162
  157.4832  130.7777  149.7434 LP  0  0  0  0  0  0  0  0  0  0  0  0  # atno 17370 bound_to 10713
  155.9934  130.3924  150.2900 LP  0  0  0  0  0  0  0  0  0  0  0  0  # atno 17371 bound_to 10713
  140.0613  134.9753  157.1310 LP  0  0  0  0  0  0  0  0  0  0  0  0  # atno 17394 bound_to 11000
  140.3844  134.2252  155.7169 LP  0  0  0  0  0  0  0  0  0  0  0  0  # atno 17395 bound_to 11000

$$$$
