AV-unprocessed.smi:1953|AV-procd|sdf|7893|dock4
  -GOLD-   2272010 53D 1   1.00000     0.00000
 Structure written by MMmdl.
 43 45  0  0  0  0  0  0  0  0  1 V2000
  146.0075  141.3586  154.5223 N   0  0  0  0  0  0  0  0  0  0  0  0
  147.1114  141.1355  154.7894 C   0  0  0  0  0  0  0  0  0  0  0  0
  148.4615  140.8495  155.1462 C   0  0  0  0  0  0  0  0  0  0  0  0
  149.1344  141.6013  156.0416 C   0  0  0  0  0  0  0  0  0  0  0  0
  150.4344  141.3298  156.4084 N   0  0  0  0  0  0  0  0  0  0  0  0
  151.1792  142.2207  157.2528 C   0  0  0  0  0  0  0  0  0  0  0  0
  151.8391  141.6982  158.5143 C   0  0  0  0  0  0  0  0  0  0  0  0
  150.6227  142.5852  158.6121 C   0  0  0  0  0  0  0  0  0  0  0  0
  151.1446  140.2824  155.7831 C   0  0  0  0  0  0  0  0  0  0  0  0
  152.3330  140.0742  156.0413 O   0  0  0  0  0  0  0  0  0  0  0  0
  150.4508  139.4769  154.8472 N   0  0  0  0  0  0  0  0  0  0  0  0
  151.1685  138.3374  154.2352 C   0  0  0  0  0  0  0  0  0  0  0  0
  151.0447  137.0437  155.0534 C   0  0  0  0  0  0  0  0  0  0  0  0
  151.7547  136.8527  156.0419 O   0  0  0  0  0  0  0  0  0  0  0  0
  150.1236  136.1655  154.6291 N   0  0  0  0  0  0  0  0  0  0  0  0
  149.8481  134.8686  155.2400 C   0  0  0  0  0  0  0  0  0  0  0  0
  151.1591  134.1901  155.6920 C   0  0  0  0  0  0  0  0  0  0  0  0
  150.8998  132.7856  156.2602 C   0  0  0  0  0  0  0  0  0  0  0  0
  150.1458  131.9061  155.2511 C   0  0  0  0  0  0  0  0  0  0  0  0
  148.8353  132.5741  154.8067 C   0  0  0  0  0  0  0  0  0  0  0  0
  149.0907  133.9785  154.2362 C   0  0  0  0  0  0  0  0  0  0  0  0
  149.0951  139.7039  154.4972 C   0  0  0  0  0  0  0  0  0  0  0  0
  148.5133  138.9698  153.6968 O   0  0  0  0  0  0  0  0  0  0  0  0
  148.6340  142.4436  156.4974 H   0  0  0  0  0  0  0  0  0  0  0  0
  151.7143  143.0136  156.7330 H   0  0  0  0  0  0  0  0  0  0  0  0
  151.7083  140.6474  158.7668 H   0  0  0  0  0  0  0  0  0  0  0  0
  152.7995  142.1273  158.7920 H   0  0  0  0  0  0  0  0  0  0  0  0
  150.7723  143.6060  158.9570 H   0  0  0  0  0  0  0  0  0  0  0  0
  149.6914  142.1191  158.9281 H   0  0  0  0  0  0  0  0  0  0  0  0
  150.8150  138.1329  153.2237 H   0  0  0  0  0  0  0  0  0  0  0  0
  152.2240  138.5813  154.1007 H   0  0  0  0  0  0  0  0  0  0  0  0
  149.5809  136.4072  153.8126 H   0  0  0  0  0  0  0  0  0  0  0  0
  149.2082  135.0181  156.1120 H   0  0  0  0  0  0  0  0  0  0  0  0
  151.8472  134.1172  154.8485 H   0  0  0  0  0  0  0  0  0  0  0  0
  151.6603  134.7983  156.4458 H   0  0  0  0  0  0  0  0  0  0  0  0
  151.8451  132.3147  156.5312 H   0  0  0  0  0  0  0  0  0  0  0  0
  150.3196  132.8662  157.1803 H   0  0  0  0  0  0  0  0  0  0  0  0
  150.7772  131.7238  154.3806 H   0  0  0  0  0  0  0  0  0  0  0  0
  149.9362  130.9308  155.6911 H   0  0  0  0  0  0  0  0  0  0  0  0
  148.3373  131.9550  154.0600 H   0  0  0  0  0  0  0  0  0  0  0  0
  148.1540  132.6430  155.6558 H   0  0  0  0  0  0  0  0  0  0  0  0
  148.1411  134.4428  153.9671 H   0  0  0  0  0  0  0  0  0  0  0  0
  149.6648  133.8918  153.3125 H   0  0  0  0  0  0  0  0  0  0  0  0
  1  2  3  0  0  0  0
  2  3  1  0  0  0  0
  3 22  1  0  0  0  0
  3  4  2  0  0  0  0
  4  5  1  0  0  0  0
  4 24  1  0  0  0  0
  5  6  1  0  0  0  0
  5  9  1  0  0  0  0
  6  8  1  0  0  0  0
  6  7  1  0  0  0  0
  6 25  1  0  0  0  0
  7  8  1  0  0  0  0
  7 26  1  0  0  0  0
  7 27  1  0  0  0  0
  8 28  1  0  0  0  0
  8 29  1  0  0  0  0
  9 10  2  0  0  0  0
  9 11  1  0  0  0  0
 11 12  1  0  0  0  0
 11 22  1  0  0  0  0
 12 13  1  0  0  0  0
 12 30  1  0  0  0  0
 12 31  1  0  0  0  0
 13 14  2  0  0  0  0
 13 15  1  0  0  0  0
 15 16  1  0  0  0  0
 15 32  1  0  0  0  0
 16 21  1  0  0  0  0
 16 17  1  0  0  0  0
 16 33  1  0  0  0  0
 17 18  1  0  0  0  0
 17 34  1  0  0  0  0
 17 35  1  0  0  0  0
 18 19  1  0  0  0  0
 18 36  1  0  0  0  0
 18 37  1  0  0  0  0
 19 20  1  0  0  0  0
 19 38  1  0  0  0  0
 19 39  1  0  0  0  0
 20 21  1  0  0  0  0
 20 40  1  0  0  0  0
 20 41  1  0  0  0  0
 21 42  1  0  0  0  0
 21 43  1  0  0  0  0
 22 23  2  0  0  0  0
M  END
> <s_m_source_file>
AV-unprocessed.smi

> <i_m_source_file_index>
1953

> <i_lp_mmshare_version>
43012

> <i_f3d_flags>
0

> <s_epik_input>
TiNDYzFbY0hdbihbQ0hdMltDSDJdW0NIMl0yKWMoPU8pbihjMT1PKVtDSDJdQyg9TylbTkhdW0NIXTNbQ0gyXVtDSDJdW0NIMl1bQ0gyXVtDSDJdMw==

> <s_epik_cmdline>
J2VwaWtfcHl0aG9uJywgJy1waCcsICc3LjAnLCAnLXRuJywgJzgnLCAnLW1hJywgJzIwMCcsICctbWV0YWxfYmluZGluZycsICctaW1hZScsICc8aW5maWxlLm1hZT4nLCAnLW9tYWUnLCAnPG91dGZpbGUubWFlPic=

> <r_lp_tautomer_probability>
1

> <r_epik_Ionization_Penalty>
1.91355e-08

> <r_epik_Ionization_Penalty_Charging>
8.86257e-11

> <r_epik_Ionization_Penalty_Neutral>
1.90469e-08

> <r_epik_State_Penalty>
-0

> <r_epik_Charging_Adjusted_Penalty>
8.86257e-11

> <i_epik_Tot_Q>
0

> <i_epik_Tot_abs_Q>
0

> <r_epik_Metal_State_Penalty>
-0

> <b_epik_Metal_Only>
0

> <s_lp_Force_Field>
OPLS_2005

> <r_lp_Energy>
34.5376

> <b_lp_Chiralities_Consistent>
1

> <s_lp_Variant>
AV-unprocessed.smi:1953-1

> <Gold.Version>
5.8.1

> <Gold.Id.Protein>
6NUR|6NUR_protein|mol2

> <Gold.PLP.Fitness>
48.6204

> <Gold.PLP.PLP>
-38.5629

> <Gold.PLP.part.hbond>
-3.5752

> <Gold.PLP.part.metal>
0.0000

> <Gold.PLP.part.buried>
-4.7617

> <Gold.PLP.part.nonpolar>
-32.6629

> <Gold.PLP.part.repulsive>
3.0798

> <Gold.PLP.ligand.clash>
0.0000

> <Gold.PLP.ligand.torsion>
1.0590

> <Gold.PLP.Chemscore.Hbond>
2.9913

> <Gold.PLP.Chemscore.CHOScore>
1.0000

> <Gold.PLP.Chemscore.Metal>
0.0000

> <Gold.Chemscore.Hbonds>
donor molecule, donor type, donor heavy atom, donor atom, acceptor molecule, acceptor atom, score
      L1  H    15    32       P1  7948  1.00
      P1  H  7997  8010       L1    10  1.00
      P1  H 10752 10764       L1    14  0.49
      L1  C     4    24       P1  8028  0.86

> <Gold.PLP.Chemscore.Internal.Correction>
0.2018

> <Gold.Rescore>
     Score         DG    S(hbond)    S(metal)    S(lipo)     H(rot)  DE(clash)    DE(int)     intcor
     14.86     -17.96       2.57        0.00      71.30       1.73       0.12       2.98       ----

> <Gold.Chemscore.Fitness>
14.8575

> <Gold.Chemscore.DG>
-17.9613

> <Gold.Chemscore.ZeroCoef>
-5.4800

> <Gold.Chemscore.Hbond>
2.5652

> <Gold.Chemscore.Metal>
0.0000

> <Gold.Chemscore.Lipo>
71.2979

> <Gold.Chemscore.Internal_Hbond>
0.0000

> <Gold.Chemscore.DEClash>
0.1239

> <Gold.Chemscore.DEInternal>
2.9799

> <Gold.Chemscore.Rot>
1.7298

> <Gold.Chemscore.Internal.Correction>
   9.000000E+99

> <Gold.Chemscore.Hbonds>
donor molecule, donor type, donor heavy atom, donor atom, acceptor molecule, acceptor atom, score
      L1  H    15    32       P1  7948  0.60
      P1  H  7997  8010       L1    10  0.94
      P1  H 10752 10764       L1    14  0.11

> <Gold.Chemscore.Hbond.Weighted>
-8.5678

> <Gold.Chemscore.Metal.Weighted>
-0.0000

> <Gold.Chemscore.Lipo.Weighted>
-8.3419

> <Gold.Chemscore.Internal_Hbond.Weighted>
0.0000

> <Gold.Chemscore.DEClash.Weighted>
0.1239

> <Gold.Chemscore.DEInternal.Weighted>
2.9799

> <Gold.Chemscore.Rot.Weighted>
4.4284

> <Gold.Chemscore.Internal.Correction.Weighted>
   9.000000E+99

> <Gold.Protein.RotatedTorsions>
[ 6907 6896 6895 6894 ] final   38.86 input  -60.11 | X-H torsion
[ 7974 7965 7964 7962 ] final -165.14 input  175.53 | X-H torsion
[ 8008 7997 7996 7995 ] final   82.68 input   59.86 | X-H torsion
[ 10167 10162 10161 10158 ] final  -30.40 input  -65.29 | X-H torsion
[ 10718 10713 10712 10709 ] final -100.78 input   66.30 | X-H torsion
[ 10763 10752 10751 10750 ] final  -21.78 input  -60.55 | X-H torsion
[ 11005 11000 10999 10996 ] final   73.43 input  -57.11 | X-H torsion

> <Gold.Protein.ActiveResidues>
 VAL166  LYS551  ARG553  GLY616  TRP617  ASP618  TYR619  PRO620  LYS621  CYS622 
 ASP623  PHE694  ASN695  SER759  ASP760  ASP761  ALA762  ILE779  LEU786  VAL792 
 PHE793  MET794  SER795  GLU796  ALA797  LYS798  CYS799  TRP800  GLU811  SER814 

> <Gold.Protein.RotatedAtoms>
  152.1619  134.8905  160.0540 H   0  0  0  0  0  0  0  0  0  0  0  0  # atno 6907 bound_to 6896
  151.9897  133.3781  159.4148 H   0  0  0  0  0  0  0  0  0  0  0  0  # atno 6908 bound_to 6896
  150.6889  134.3872  159.5104 H   0  0  0  0  0  0  0  0  0  0  0  0  # atno 6909 bound_to 6896
  144.7278  140.2857  143.6228 H   0  0  0  0  0  0  0  0  0  0  0  0  # atno 7974 bound_to 7965
  155.9139  140.3425  155.6120 H   0  0  0  0  0  0  0  0  0  0  0  0  # atno 8008 bound_to 7997
  155.7355  140.0801  157.2288 H   0  0  0  0  0  0  0  0  0  0  0  0  # atno 8009 bound_to 7997
  154.4059  140.1580  156.2544 H   0  0  0  0  0  0  0  0  0  0  0  0  # atno 8010 bound_to 7997
  140.7249  143.3852  151.1529 H   0  0  0  0  0  0  0  0  0  0  0  0  # atno 10167 bound_to 10162
  156.0173  130.5343  150.6867 H   0  0  0  0  0  0  0  0  0  0  0  0  # atno 10718 bound_to 10713
  153.6416  135.6985  153.5239 H   0  0  0  0  0  0  0  0  0  0  0  0  # atno 10763 bound_to 10752
  153.2778  135.4195  155.1049 H   0  0  0  0  0  0  0  0  0  0  0  0  # atno 10764 bound_to 10752
  154.8498  135.3594  154.5960 H   0  0  0  0  0  0  0  0  0  0  0  0  # atno 10765 bound_to 10752
  139.9440  134.7346  156.1026 H   0  0  0  0  0  0  0  0  0  0  0  0  # atno 11005 bound_to 11000
  145.7905  139.1925  143.2106 LP  0  0  0  0  0  0  0  0  0  0  0  0  # atno 17320 bound_to 7965
  146.0760  140.7817  142.9665 LP  0  0  0  0  0  0  0  0  0  0  0  0  # atno 17321 bound_to 7965
  139.7447  143.8870  152.3060 LP  0  0  0  0  0  0  0  0  0  0  0  0  # atno 17342 bound_to 10162
  139.8703  144.7071  150.8995 LP  0  0  0  0  0  0  0  0  0  0  0  0  # atno 17343 bound_to 10162
  157.4557  131.0877  151.0799 LP  0  0  0  0  0  0  0  0  0  0  0  0  # atno 17370 bound_to 10713
  157.1301  130.6098  149.5527 LP  0  0  0  0  0  0  0  0  0  0  0  0  # atno 17371 bound_to 10713
  141.1085  133.6651  156.2920 LP  0  0  0  0  0  0  0  0  0  0  0  0  # atno 17394 bound_to 11000
  140.5880  134.5679  157.5493 LP  0  0  0  0  0  0  0  0  0  0  0  0  # atno 17395 bound_to 11000

$$$$
