AV-unprocessed.smi:198|AV-procd|sdf|1553|dock3
  -GOLD-   2262019423D 1   1.00000     0.00000
 Structure written by MMmdl.
 59 63  0  0  0  0  0  0  0  0  2 V2000
  148.3182  141.5006  157.2102 C   0  0  0  0  0  0  0  0  0  0  0  0
  149.5573  141.9373  156.5253 N   0  3  2  0  0  0  0  0  0  0  0  0
  149.9247  141.0959  155.3586 C   0  0  0  0  0  0  0  0  0  0  0  0
  150.5052  139.7386  155.7901 C   0  0  0  0  0  0  0  0  0  0  0  0
  151.7084  139.9263  156.7416 C   0  0  1  0  0  0  0  0  0  0  0  0
  151.3259  140.8306  157.9374 C   0  0  1  0  0  0  0  0  0  0  0  0
  152.5664  141.0871  158.8147 C   0  0  0  0  0  0  0  0  0  0  0  0
  153.2048  139.7641  159.2653 C   0  0  0  0  0  0  0  0  0  0  0  0
  153.4963  138.8427  158.0631 C   0  0  0  0  0  0  0  0  0  0  0  0
  152.3283  138.6738  157.1969 N   0  0  0  0  0  0  0  0  0  0  0  0
  151.5127  137.6351  157.5004 C   0  0  0  0  0  0  0  0  0  0  0  0
  150.9425  137.5477  158.7299 N   0  0  0  0  0  0  0  0  0  0  0  0
  150.1155  136.5373  159.0140 C   0  0  0  0  0  0  0  0  0  0  0  0
  149.7274  135.5302  158.2284 N   0  0  0  0  0  0  0  0  0  0  0  0
  150.3014  135.6141  156.9935 C   0  0  0  0  0  0  0  0  0  0  0  0
  151.1977  136.6263  156.5515 C   0  0  0  0  0  0  0  0  0  0  0  0
  151.5656  136.3956  155.2328 N   0  0  0  0  0  0  0  0  0  0  0  0
  150.9180  135.3092  154.9103 C   0  0  0  0  0  0  0  0  0  0  0  0
  150.1446  134.7636  155.9126 N   0  0  0  0  0  0  0  0  0  0  0  0
  149.3097  133.5980  155.8348 C   0  0  0  0  0  0  0  0  0  0  0  0
  149.7544  132.3158  155.1261 C   0  0  0  0  0  0  0  0  0  0  0  0
  148.2862  132.0476  154.7187 C   0  0  0  0  0  0  0  0  0  0  0  0
  148.0574  131.5526  153.2797 C   0  0  0  0  0  0  0  0  0  0  0  0
  148.5514  132.4650  152.3206 O   0  0  0  0  0  0  0  0  0  0  0  0
  147.4477  131.1901  155.6900 C   0  0  0  0  0  0  0  0  0  0  0  0
  146.0647  131.2727  155.4138 O   0  0  0  0  0  0  0  0  0  0  0  0
  148.0966  133.5707  154.9057 C   0  0  0  0  0  0  0  0  0  0  0  0
  150.7037  142.1552  157.4443 C   0  0  0  0  0  0  0  0  0  0  0  0
  148.4312  140.5220  157.6767 H   0  0  0  0  0  0  0  0  0  0  0  0
  147.4908  141.4436  156.5026 H   0  0  0  0  0  0  0  0  0  0  0  0
  148.0401  142.2145  157.9862 H   0  0  0  0  0  0  0  0  0  0  0  0
  149.0572  140.9528  154.7132 H   0  0  0  0  0  0  0  0  0  0  0  0
  150.6638  141.6344  154.7642 H   0  0  0  0  0  0  0  0  0  0  0  0
  149.7192  139.1509  156.2652 H   0  0  0  0  0  0  0  0  0  0  0  0
  150.8147  139.1815  154.9054 H   0  0  0  0  0  0  0  0  0  0  0  0
  152.4803  140.4449  156.1704 H   0  0  0  0  0  0  0  0  0  0  0  0
  150.5863  140.3126  158.5489 H   0  0  0  0  0  0  0  0  0  0  0  0
  153.3002  141.6692  158.2555 H   0  0  0  0  0  0  0  0  0  0  0  0
  152.2966  141.6829  159.6873 H   0  0  0  0  0  0  0  0  0  0  0  0
  154.1287  139.9635  159.8087 H   0  0  0  0  0  0  0  0  0  0  0  0
  152.5433  139.2653  159.9730 H   0  0  0  0  0  0  0  0  0  0  0  0
  154.3018  139.2687  157.4636 H   0  0  0  0  0  0  0  0  0  0  0  0
  153.8533  137.8721  158.4107 H   0  0  0  0  0  0  0  0  0  0  0  0
  149.7050  136.5357  160.0130 H   0  0  0  0  0  0  0  0  0  0  0  0
  150.9890  134.8808  153.9217 H   0  0  0  0  0  0  0  0  0  0  0  0
  149.0121  133.3641  156.8583 H   0  0  0  0  0  0  0  0  0  0  0  0
  150.3974  132.4938  154.2633 H   0  0  0  0  0  0  0  0  0  0  0  0
  150.1944  131.5687  155.7871 H   0  0  0  0  0  0  0  0  0  0  0  0
  148.5235  130.5805  153.1161 H   0  0  0  0  0  0  0  0  0  0  0  0
  146.9934  131.4181  153.0823 H   0  0  0  0  0  0  0  0  0  0  0  0
  148.6906  132.0013  151.5089 H   0  0  0  0  0  0  0  0  0  0  0  0
  147.7295  130.1385  155.6335 H   0  0  0  0  0  0  0  0  0  0  0  0
  147.6163  131.4908  156.7247 H   0  0  0  0  0  0  0  0  0  0  0  0
  145.7189  130.3942  155.3608 H   0  0  0  0  0  0  0  0  0  0  0  0
  147.1601  133.8640  155.3810 H   0  0  0  0  0  0  0  0  0  0  0  0
  148.2636  134.1431  153.9912 H   0  0  0  0  0  0  0  0  0  0  0  0
  151.4567  142.7381  156.9118 H   0  0  0  0  0  0  0  0  0  0  0  0
  150.3860  142.7672  158.2894 H   0  0  0  0  0  0  0  0  0  0  0  0
  149.3349  142.8468  156.1459 H   0  0  0  0  0  0  0  0  0  0  0  0
  1  2  1  0  0  0  0
  1 29  1  0  0  0  0
  1 30  1  0  0  0  0
  1 31  1  0  0  0  0
  2 28  1  0  0  0  0
  2  3  1  0  0  0  0
  2 59  1  0  0  0  0
  3  4  1  0  0  0  0
  3 32  1  0  0  0  0
  3 33  1  0  0  0  0
  4  5  1  0  0  0  0
  4 34  1  0  0  0  0
  4 35  1  0  0  0  0
  5 10  1  0  0  0  0
  5  6  1  0  0  0  0
  5 36  1  0  0  0  0
  6  7  1  0  0  0  0
  6 28  1  0  0  0  0
  6 37  1  0  0  0  0
  7  8  1  0  0  0  0
  7 38  1  0  0  0  0
  7 39  1  0  0  0  0
  8  9  1  0  0  0  0
  8 40  1  0  0  0  0
  8 41  1  0  0  0  0
  9 10  1  0  0  0  0
  9 42  1  0  0  0  0
  9 43  1  0  0  0  0
 10 11  1  0  0  0  0
 11 16  1  0  0  0  0
 11 12  2  0  0  0  0
 12 13  1  0  0  0  0
 13 14  2  0  0  0  0
 13 44  1  0  0  0  0
 14 15  1  0  0  0  0
 15 19  1  0  0  0  0
 15 16  2  0  0  0  0
 16 17  1  0  0  0  0
 17 18  2  0  0  0  0
 18 19  1  0  0  0  0
 18 45  1  0  0  0  0
 19 20  1  0  0  0  0
 20 27  1  0  0  0  0
 20 21  1  0  0  0  0
 20 46  1  0  0  0  0
 21 22  1  0  0  0  0
 21 47  1  0  0  0  0
 21 48  1  0  0  0  0
 22 23  1  0  0  0  0
 22 25  1  0  0  0  0
 22 27  1  0  0  0  0
 23 24  1  0  0  0  0
 23 49  1  0  0  0  0
 23 50  1  0  0  0  0
 24 51  1  0  0  0  0
 25 26  1  0  0  0  0
 25 52  1  0  0  0  0
 25 53  1  0  0  0  0
 26 54  1  0  0  0  0
 27 55  1  0  0  0  0
 27 56  1  0  0  0  0
 28 57  1  0  0  0  0
 28 58  1  0  0  0  0
M  CHG  1   2   1
M  END
> <s_m_source_file>
AV-unprocessed.smi

> <i_m_source_file_index>
198

> <i_lp_mmshare_version>
43012

> <i_f3d_flags>
0

> <s_epik_input>
W0NIMl0xW0NIMl1OKFtDSDNdKVtDSDJdW0NAQEhdKFtDQEhdMTIpW0NIMl1bQ0gyXVtDSDJdTjJjKG5bY0hdbjMpYyhjMzQpbltjSF1uNFtDSF0oW0NIMl01KVtDSDJdQzUoW0NIMl1bT0hdKVtDSDJdW09IXQ==

> <s_epik_cmdline>
J2VwaWtfcHl0aG9uJywgJy1waCcsICc3LjAnLCAnLXRuJywgJzgnLCAnLW1hJywgJzIwMCcsICctbWV0YWxfYmluZGluZycsICctaW1hZScsICc8aW5maWxlLm1hZT4nLCAnLW9tYWUnLCAnPG91dGZpbGUubWFlPic=

> <r_lp_tautomer_probability>
1

> <r_epik_Ionization_Penalty>
0.00239938

> <r_epik_Ionization_Penalty_Charging>
0.00138697

> <r_epik_Ionization_Penalty_Neutral>
0.00101241

> <r_epik_State_Penalty>
-0

> <r_epik_Charging_Adjusted_Penalty>
0.00138697

> <i_epik_Tot_Q>
1

> <i_epik_Tot_abs_Q>
1

> <r_epik_Metal_State_Penalty>
-0

> <b_epik_Metal_Only>
0

> <s_lp_Force_Field>
OPLS_2005

> <r_lp_Energy>
59.1545

> <b_lp_Chiralities_Consistent>
1

> <s_lp_Variant>
AV-unprocessed.smi:198-2

> <Gold.Version>
5.8.1

> <Gold.Id.Protein>
6NUR|6NUR_protein|mol2

> <Gold.PLP.Fitness>
44.9468

> <Gold.PLP.PLP>
-32.1414

> <Gold.PLP.part.hbond>
-5.4485

> <Gold.PLP.part.metal>
0.0000

> <Gold.PLP.part.buried>
-1.6324

> <Gold.PLP.part.nonpolar>
-25.9691

> <Gold.PLP.part.repulsive>
0.1944

> <Gold.PLP.ligand.clash>
0.0000

> <Gold.PLP.ligand.torsion>
0.8793

> <Gold.PLP.Chemscore.Hbond>
4.2124

> <Gold.PLP.Chemscore.CHOScore>
0.3383

> <Gold.PLP.Chemscore.Metal>
0.0000

> <Gold.Chemscore.Hbonds>
donor molecule, donor type, donor heavy atom, donor atom, acceptor molecule, acceptor atom, score
      L1  H     2    59       P1  8028  2.00
      L1  H    24    51       P1 10747  1.00
      P1  H  6896  6908       L1    14  0.40
      P1  H 10752 10765       L1    17  0.30
      L1  C    18    45       P1  7949  0.50

> <Gold.PLP.Chemscore.Internal.Correction>
0.9118

> <Gold.Rescore>
     Score         DG    S(hbond)    S(metal)    S(lipo)     H(rot)  DE(clash)    DE(int)     intcor
     13.67     -14.68       2.37        0.00      78.24       3.08       0.38       0.63       ----

> <Gold.Chemscore.Fitness>
13.6686

> <Gold.Chemscore.DG>
-14.6810

> <Gold.Chemscore.ZeroCoef>
-5.4800

> <Gold.Chemscore.Hbond>
2.3735

> <Gold.Chemscore.Metal>
0.0000

> <Gold.Chemscore.Lipo>
78.2360

> <Gold.Chemscore.Internal_Hbond>
0.0000

> <Gold.Chemscore.DEClash>
0.3775

> <Gold.Chemscore.DEInternal>
0.6348

> <Gold.Chemscore.Rot>
3.0781

> <Gold.Chemscore.Internal.Correction>
   9.000000E+99

> <Gold.Chemscore.Hbonds>
donor molecule, donor type, donor heavy atom, donor atom, acceptor molecule, acceptor atom, score
      L1  H     2    59       P1  8028  0.97
      L1  H    24    51       P1 10747  1.00
      P1  H  6896  6908       L1    14  0.03

> <Gold.Chemscore.Hbond.Weighted>
-7.9274

> <Gold.Chemscore.Metal.Weighted>
-0.0000

> <Gold.Chemscore.Lipo.Weighted>
-9.1536

> <Gold.Chemscore.Internal_Hbond.Weighted>
0.0000

> <Gold.Chemscore.DEClash.Weighted>
0.3775

> <Gold.Chemscore.DEInternal.Weighted>
0.6348

> <Gold.Chemscore.Rot.Weighted>
7.8800

> <Gold.Chemscore.Internal.Correction.Weighted>
   9.000000E+99

> <Gold.Protein.RotatedTorsions>
[ 6907 6896 6895 6894 ] final  134.62 input  -60.11 | X-H torsion
[ 7974 7965 7964 7962 ] final  -61.72 input  175.53 | X-H torsion
[ 8008 7997 7996 7995 ] final  -37.56 input   59.86 | X-H torsion
[ 10167 10162 10161 10158 ] final  164.70 input  -65.29 | X-H torsion
[ 10718 10713 10712 10709 ] final   93.58 input   66.30 | X-H torsion
[ 10763 10752 10751 10750 ] final -169.42 input  -60.55 | X-H torsion
[ 11005 11000 10999 10996 ] final -172.44 input  -57.11 | X-H torsion

> <Gold.Protein.ActiveResidues>
 VAL166  LYS551  ARG553  GLY616  TRP617  ASP618  TYR619  PRO620  LYS621  CYS622 
 ASP623  PHE694  ASN695  SER759  ASP760  ASP761  ALA762  ILE779  LEU786  VAL792 
 PHE793  MET794  SER795  GLU796  ALA797  LYS798  CYS799  TRP800  GLU811  SER814 

> <Gold.Protein.RotatedAtoms>
  152.3094  133.5736  159.5670 H   0  0  0  0  0  0  0  0  0  0  0  0  # atno 6907 bound_to 6896
  150.7315  134.0175  159.3699 H   0  0  0  0  0  0  0  0  0  0  0  0  # atno 6908 bound_to 6896
  151.8069  135.0693  160.0458 H   0  0  0  0  0  0  0  0  0  0  0  0  # atno 6909 bound_to 6896
  145.8000  140.8660  143.0236 H   0  0  0  0  0  0  0  0  0  0  0  0  # atno 7974 bound_to 7965
  154.4051  140.1601  156.2556 H   0  0  0  0  0  0  0  0  0  0  0  0  # atno 8008 bound_to 7997
  155.9081  140.3429  155.6055 H   0  0  0  0  0  0  0  0  0  0  0  0  # atno 8009 bound_to 7997
  155.7369  140.0787  157.2254 H   0  0  0  0  0  0  0  0  0  0  0  0  # atno 8010 bound_to 7997
  139.4893  144.4208  151.9188 H   0  0  0  0  0  0  0  0  0  0  0  0  # atno 10167 bound_to 10162
  157.6953  131.0483  150.4056 H   0  0  0  0  0  0  0  0  0  0  0  0  # atno 10718 bound_to 10713
  154.6524  135.2913  154.9970 H   0  0  0  0  0  0  0  0  0  0  0  0  # atno 10763 bound_to 10752
  154.1058  135.6570  153.4880 H   0  0  0  0  0  0  0  0  0  0  0  0  # atno 10764 bound_to 10752
  153.0384  135.5253  154.7438 H   0  0  0  0  0  0  0  0  0  0  0  0  # atno 10765 bound_to 10752
  140.4970  134.5930  157.4974 H   0  0  0  0  0  0  0  0  0  0  0  0  # atno 11005 bound_to 11000
  144.6770  140.0245  143.7483 LP  0  0  0  0  0  0  0  0  0  0  0  0  # atno 17320 bound_to 7965
  145.9888  139.2998  143.0997 LP  0  0  0  0  0  0  0  0  0  0  0  0  # atno 17321 bound_to 7965
  140.3652  144.2923  150.5927 LP  0  0  0  0  0  0  0  0  0  0  0  0  # atno 17342 bound_to 10162
  140.5367  143.2231  151.8150 LP  0  0  0  0  0  0  0  0  0  0  0  0  # atno 17343 bound_to 10162
  156.4445  130.3998  149.6676 LP  0  0  0  0  0  0  0  0  0  0  0  0  # atno 17370 bound_to 10713
  156.3847  130.7597  151.2593 LP  0  0  0  0  0  0  0  0  0  0  0  0  # atno 17371 bound_to 10713
  139.9736  134.7253  155.9994 LP  0  0  0  0  0  0  0  0  0  0  0  0  # atno 17394 bound_to 11000
  141.1455  133.6557  156.3855 LP  0  0  0  0  0  0  0  0  0  0  0  0  # atno 17395 bound_to 11000

$$$$
