AV-unprocessed.smi:114|AV-procd|sdf|1112|dock10
  -GOLD-   2262018233D 1   1.00000     0.00000
 Structure written by MMmdl.
 32 34  0  0  0  0  0  0  0  0  1 V2000
  142.7558  144.7217  155.5676 N   0  0  0  0  0  0  0  0  0  0  0  0
  143.7940  144.4256  154.7731 C   0  0  0  0  0  0  0  0  0  0  0  0
  143.9918  145.1747  153.6630 N   0  0  0  0  0  0  0  0  0  0  0  0
  145.0192  144.9139  152.8444 C   0  0  0  0  0  0  0  0  0  0  0  0
  145.1408  145.7132  151.7586 F   0  0  0  0  0  0  0  0  0  0  0  0
  145.9393  143.9518  152.9778 N   0  0  0  0  0  0  0  0  0  0  0  0
  145.7397  143.1945  154.0952 C   0  0  0  0  0  0  0  0  0  0  0  0
  144.6953  143.3666  155.0412 C   0  0  0  0  0  0  0  0  0  0  0  0
  144.8102  142.4190  156.0491 N   0  0  0  0  0  0  0  0  0  0  0  0
  145.8689  141.7299  155.7138 C   0  0  0  0  0  0  0  0  0  0  0  0
  146.4829  142.1240  154.5419 N   0  0  0  0  0  0  0  0  0  0  0  0
  147.7086  141.5786  153.8753 C   0  0  1  0  0  0  0  0  0  0  0  0
  148.8240  141.9986  154.6023 O   0  0  0  0  0  0  0  0  0  0  0  0
  149.2013  140.9783  155.5206 C   0  0  2  0  0  0  0  0  0  0  0  0
  150.6294  141.1988  156.0485 C   0  0  0  0  0  0  0  0  0  0  0  0
  150.7440  142.4934  156.5999 O   0  0  0  0  0  0  0  0  0  0  0  0
  148.9875  139.7128  154.6820 C   0  0  2  0  0  0  0  0  0  0  0  0
  150.0898  139.5007  153.8144 O   0  0  0  0  0  0  0  0  0  0  0  0
  147.6976  140.0382  153.9290 C   0  0  2  0  0  0  0  0  0  0  0  0
  147.6411  139.4313  152.6515 O   0  0  0  0  0  0  0  0  0  0  0  0
  147.6980  142.0077  152.8725 H   0  0  0  0  0  0  0  0  0  0  0  0
  148.4944  140.9600  156.3525 H   0  0  0  0  0  0  0  0  0  0  0  0
  148.8728  138.8272  155.3074 H   0  0  0  0  0  0  0  0  0  0  0  0
  146.8431  139.6999  154.5177 H   0  0  0  0  0  0  0  0  0  0  0  0
  142.5903  144.1766  156.4017 H   0  0  0  0  0  0  0  0  0  0  0  0
  142.1423  145.4886  155.3327 H   0  0  0  0  0  0  0  0  0  0  0  0
  146.2281  140.9118  156.3215 H   0  0  0  0  0  0  0  0  0  0  0  0
  150.8505  140.4847  156.8423 H   0  0  0  0  0  0  0  0  0  0  0  0
  151.3725  141.0558  155.2633 H   0  0  0  0  0  0  0  0  0  0  0  0
  150.0296  143.0212  156.2774 H   0  0  0  0  0  0  0  0  0  0  0  0
  149.7591  139.3992  152.9348 H   0  0  0  0  0  0  0  0  0  0  0  0
  148.4935  139.5038  152.2491 H   0  0  0  0  0  0  0  0  0  0  0  0
  1  2  1  0  0  0  0
  1 25  1  0  0  0  0
  1 26  1  0  0  0  0
  2  8  1  0  0  0  0
  2  3  2  0  0  0  0
  3  4  1  0  0  0  0
  4  5  1  0  0  0  0
  4  6  2  0  0  0  0
  6  7  1  0  0  0  0
  7 11  1  0  0  0  0
  7  8  2  0  0  0  0
  8  9  1  0  0  0  0
  9 10  2  0  0  0  0
 10 11  1  0  0  0  0
 10 27  1  0  0  0  0
 11 12  1  0  0  0  0
 12 21  1  0  0  0  0
 12 19  1  0  0  0  0
 12 13  1  0  0  0  0
 13 14  1  0  0  0  0
 14 22  1  0  0  0  0
 14 15  1  0  0  0  0
 14 17  1  0  0  0  0
 15 16  1  0  0  0  0
 15 28  1  0  0  0  0
 15 29  1  0  0  0  0
 16 30  1  0  0  0  0
 17 23  1  0  0  0  0
 17 18  1  0  0  0  0
 17 19  1  0  0  0  0
 18 31  1  0  0  0  0
 19 24  1  0  0  0  0
 19 20  1  0  0  0  0
 20 32  1  0  0  0  0
M  END
> <s_m_source_file>
AV-unprocessed.smi

> <i_m_source_file_index>
114

> <i_lp_mmshare_version>
43012

> <i_f3d_flags>
0

> <s_epik_input>
RmMobjEpbmMoW05IMl0pYyhjMTIpbltjSF1uMltDQEBIXTNPW0NASF0oW0NIMl1bT0hdKVtDQEBIXShbT0hdKVtDQEBIXTNbT0hd

> <s_epik_cmdline>
J2VwaWtfcHl0aG9uJywgJy1waCcsICc3LjAnLCAnLXRuJywgJzgnLCAnLW1hJywgJzIwMCcsICctbWV0YWxfYmluZGluZycsICctaW1hZScsICc8aW5maWxlLm1hZT4nLCAnLW9tYWUnLCAnPG91dGZpbGUubWFlPic=

> <r_lp_tautomer_probability>
1

> <r_epik_Ionization_Penalty>
1.13199e-05

> <r_epik_Ionization_Penalty_Charging>
0

> <r_epik_Ionization_Penalty_Neutral>
1.13199e-05

> <r_epik_State_Penalty>
-0

> <r_epik_Charging_Adjusted_Penalty>
0

> <i_epik_Tot_Q>
0

> <i_epik_Tot_abs_Q>
0

> <r_epik_Metal_State_Penalty>
-0

> <b_epik_Metal_Only>
0

> <s_epik_Chemistry_Notes>
This compound contains an acetal/aminal-like group ( X-CH(R)-Y where X, Y are N, S, or O) that may be acid/base labile, releasing an aldehyde.

> <s_lp_Force_Field>
OPLS_2005

> <r_lp_Energy>
39.4962

> <b_lp_Chiralities_Consistent>
1

> <s_lp_Variant>
AV-unprocessed.smi:114-6

> <Gold.Version>
5.8.1

> <Gold.Id.Protein>
6NUR|6NUR_protein|mol2

> <Gold.PLP.Fitness>
46.4335

> <Gold.PLP.PLP>
-35.7216

> <Gold.PLP.part.hbond>
-6.1647

> <Gold.PLP.part.metal>
0.0000

> <Gold.PLP.part.buried>
-2.8495

> <Gold.PLP.part.nonpolar>
-28.9423

> <Gold.PLP.part.repulsive>
2.3629

> <Gold.PLP.ligand.clash>
0.0000

> <Gold.PLP.ligand.torsion>
0.4823

> <Gold.PLP.Chemscore.Hbond>
3.8843

> <Gold.PLP.Chemscore.CHOScore>
0.0000

> <Gold.PLP.Chemscore.Metal>
0.0000

> <Gold.Chemscore.Hbonds>
donor molecule, donor type, donor heavy atom, donor atom, acceptor molecule, acceptor atom, score
      L1  H    16    30       P1  8028  0.73
      L1  H    18    31       P1  7957  0.99
      L1  H    20    32       P1  7957  1.00
      P1  H  7989  7998       L1    18  0.84

> <Gold.PLP.Chemscore.Internal.Correction>
0.0236

> <Gold.Rescore>
     Score         DG    S(hbond)    S(metal)    S(lipo)     H(rot)  DE(clash)    DE(int)     intcor
      7.72     -10.21       3.40        0.00      31.48       4.03       2.20       0.30       ----

> <Gold.Chemscore.Fitness>
7.7168

> <Gold.Chemscore.DG>
-10.2122

> <Gold.Chemscore.ZeroCoef>
-5.4800

> <Gold.Chemscore.Hbond>
3.4011

> <Gold.Chemscore.Metal>
0.0000

> <Gold.Chemscore.Lipo>
31.4835

> <Gold.Chemscore.Internal_Hbond>
0.0000

> <Gold.Chemscore.DEClash>
2.1990

> <Gold.Chemscore.DEInternal>
0.2964

> <Gold.Chemscore.Rot>
4.0277

> <Gold.Chemscore.Internal.Correction>
   9.000000E+99

> <Gold.Chemscore.Hbonds>
donor molecule, donor type, donor heavy atom, donor atom, acceptor molecule, acceptor atom, score
      L1  H    16    30       P1  8028  0.73
      L1  H    18    31       P1  7957  0.94
      L1  H    20    32       P1  7957  0.98
      P1  H  7989  7998       L1    18  0.20

> <Gold.Chemscore.Hbond.Weighted>
-11.3596

> <Gold.Chemscore.Metal.Weighted>
-0.0000

> <Gold.Chemscore.Lipo.Weighted>
-3.6836

> <Gold.Chemscore.Internal_Hbond.Weighted>
0.0000

> <Gold.Chemscore.DEClash.Weighted>
2.1990

> <Gold.Chemscore.DEInternal.Weighted>
0.2964

> <Gold.Chemscore.Rot.Weighted>
10.3110

> <Gold.Chemscore.Internal.Correction.Weighted>
   9.000000E+99

> <Gold.Protein.RotatedTorsions>
[ 6907 6896 6895 6894 ] final    1.27 input  -60.11 | X-H torsion
[ 7974 7965 7964 7962 ] final   33.15 input  175.53 | X-H torsion
[ 8008 7997 7996 7995 ] final   80.14 input   59.86 | X-H torsion
[ 10167 10162 10161 10158 ] final  -95.14 input  -65.29 | X-H torsion
[ 10718 10713 10712 10709 ] final   -8.08 input   66.30 | X-H torsion
[ 10763 10752 10751 10750 ] final   45.36 input  -60.55 | X-H torsion
[ 11005 11000 10999 10996 ] final   91.32 input  -57.11 | X-H torsion

> <Gold.Protein.ActiveResidues>
 VAL166  LYS551  ARG553  GLY616  TRP617  ASP618  TYR619  PRO620  LYS621  CYS622 
 ASP623  PHE694  ASN695  SER759  ASP760  ASP761  ALA762  ILE779  LEU786  VAL792 
 PHE793  MET794  SER795  GLU796  ALA797  LYS798  CYS799  TRP800  GLU811  SER814 

> <Gold.Protein.RotatedAtoms>
  151.5898  135.1054  160.0036 H   0  0  0  0  0  0  0  0  0  0  0  0  # atno 6907 bound_to 6896
  152.4312  133.7276  159.6580 H   0  0  0  0  0  0  0  0  0  0  0  0  # atno 6908 bound_to 6896
  150.8204  133.8191  159.3164 H   0  0  0  0  0  0  0  0  0  0  0  0  # atno 6909 bound_to 6896
  146.1440  139.6434  142.9144 H   0  0  0  0  0  0  0  0  0  0  0  0  # atno 7974 bound_to 7965
  155.8794  140.3445  155.5877 H   0  0  0  0  0  0  0  0  0  0  0  0  # atno 8008 bound_to 7997
  155.7737  140.0849  157.2114 H   0  0  0  0  0  0  0  0  0  0  0  0  # atno 8009 bound_to 7997
  154.4023  140.1513  156.2958 H   0  0  0  0  0  0  0  0  0  0  0  0  # atno 8010 bound_to 7997
  140.3072  143.3127  152.0187 H   0  0  0  0  0  0  0  0  0  0  0  0  # atno 10167 bound_to 10162
  156.7078  130.5113  149.5900 H   0  0  0  0  0  0  0  0  0  0  0  0  # atno 10718 bound_to 10713
  152.9826  135.6042  154.3425 H   0  0  0  0  0  0  0  0  0  0  0  0  # atno 10763 bound_to 10752
  154.3120  135.2771  155.2563 H   0  0  0  0  0  0  0  0  0  0  0  0  # atno 10764 bound_to 10752
  154.4768  135.5927  153.6416 H   0  0  0  0  0  0  0  0  0  0  0  0  # atno 10765 bound_to 10752
  139.8841  134.8667  156.3412 H   0  0  0  0  0  0  0  0  0  0  0  0  # atno 11005 bound_to 11000
  145.4982  141.0438  143.2555 LP  0  0  0  0  0  0  0  0  0  0  0  0  # atno 17320 bound_to 7965
  144.7824  139.6497  143.7148 LP  0  0  0  0  0  0  0  0  0  0  0  0  # atno 17321 bound_to 7965
  139.4902  144.6412  151.6873 LP  0  0  0  0  0  0  0  0  0  0  0  0  # atno 17342 bound_to 10162
  140.5600  144.0284  150.6165 LP  0  0  0  0  0  0  0  0  0  0  0  0  # atno 17343 bound_to 10162
  156.1682  130.6419  151.0805 LP  0  0  0  0  0  0  0  0  0  0  0  0  # atno 17370 bound_to 10713
  157.6948  131.0798  150.7002 LP  0  0  0  0  0  0  0  0  0  0  0  0  # atno 17371 bound_to 10713
  140.9658  133.7359  156.0464 LP  0  0  0  0  0  0  0  0  0  0  0  0  # atno 17394 bound_to 11000
  140.7933  134.3592  157.5459 LP  0  0  0  0  0  0  0  0  0  0  0  0  # atno 17395 bound_to 11000

$$$$
