AV-unprocessed.smi:29|AV-procd|sdf|192|dock10
  -GOLD-   2262015463D 1   1.00000     0.00000
 Structure written by MMmdl.
 56 59  0  0  0  0  0  0  0  0  1 V2000
  150.9779  137.1215  159.8143 O   0  0  0  0  0  0  0  0  0  0  0  0
  150.5056  137.6823  158.8275 C   0  0  0  0  0  0  0  0  0  0  0  0
  151.4493  138.5138  157.9392 C   0  0  0  0  0  0  0  0  0  0  0  0
  152.0030  139.7330  158.5756 N   0  0  0  0  0  0  0  0  0  0  0  0
  152.9187  139.5795  159.6452 C   0  0  0  0  0  0  0  0  0  0  0  0
  153.2250  138.4645  160.0695 O   0  0  0  0  0  0  0  0  0  0  0  0
  153.4591  140.8175  160.1921 C   0  0  0  0  0  0  0  0  0  0  0  0
  154.3790  140.7671  161.1704 F   0  0  0  0  0  0  0  0  0  0  0  0
  153.0585  142.0170  159.7245 C   0  0  0  0  0  0  0  0  0  0  0  0
  152.1083  142.1581  158.7262 N   0  0  0  0  0  0  0  0  0  0  0  0
  151.6990  143.5125  158.1659 C   0  0  1  0  0  0  0  0  0  0  0  0
  150.1936  143.8026  158.2423 C   0  0  0  0  0  0  0  0  0  0  0  0
  150.0597  144.6290  159.5183 C   0  0  0  0  0  0  0  0  0  0  0  0
  151.4901  144.7590  160.0527 C   0  0  0  0  0  0  0  0  0  0  0  0
  152.3134  144.5061  158.9225 O   0  0  0  0  0  0  0  0  0  0  0  0
  151.5922  141.0014  158.0997 C   0  0  0  0  0  0  0  0  0  0  0  0
  150.7908  141.0943  157.1676 O   0  0  0  0  0  0  0  0  0  0  0  0
  149.2069  137.6384  158.4719 N   0  0  0  0  0  0  0  0  0  0  0  0
  148.0954  136.9939  159.0885 C   0  0  0  0  0  0  0  0  0  0  0  0
  148.1968  136.2381  160.2829 C   0  0  0  0  0  0  0  0  0  0  0  0
  147.0622  135.6184  160.8467 C   0  0  0  0  0  0  0  0  0  0  0  0
  147.2012  134.8094  162.1281 C   0  0  0  0  0  0  0  0  0  0  0  0
  146.0150  134.4043  162.5832 F   0  0  0  0  0  0  0  0  0  0  0  0
  147.9564  133.7377  161.8901 F   0  0  0  0  0  0  0  0  0  0  0  0
  147.7833  135.5432  163.0770 F   0  0  0  0  0  0  0  0  0  0  0  0
  145.8150  135.7400  160.2012 C   0  0  0  0  0  0  0  0  0  0  0  0
  145.7050  136.4747  159.0076 C   0  0  0  0  0  0  0  0  0  0  0  0
  146.8382  137.1019  158.4420 C   0  0  0  0  0  0  0  0  0  0  0  0
  146.7255  137.8230  157.2405 N   0  0  0  0  0  0  0  0  0  0  0  0
  146.3760  136.9959  156.0932 C   0  0  0  0  0  0  0  0  0  0  0  0
  146.4283  137.8372  154.8075 C   0  0  0  0  0  0  0  0  0  0  0  0
  145.5790  138.9733  154.9418 O   0  0  0  0  0  0  0  0  0  0  0  0
  145.9744  139.8143  156.0222 C   0  0  0  0  0  0  0  0  0  0  0  0
  145.9116  139.0271  157.3425 C   0  0  0  0  0  0  0  0  0  0  0  0
  152.2525  137.8606  157.5945 H   0  0  0  0  0  0  0  0  0  0  0  0
  150.9123  138.7647  157.0233 H   0  0  0  0  0  0  0  0  0  0  0  0
  153.5193  142.8890  160.1604 H   0  0  0  0  0  0  0  0  0  0  0  0
  152.0510  143.5163  157.1329 H   0  0  0  0  0  0  0  0  0  0  0  0
  149.9219  144.4140  157.3810 H   0  0  0  0  0  0  0  0  0  0  0  0
  149.5832  142.9007  158.2084 H   0  0  0  0  0  0  0  0  0  0  0  0
  149.6480  145.6112  159.2838 H   0  0  0  0  0  0  0  0  0  0  0  0
  149.4017  144.1586  160.2493 H   0  0  0  0  0  0  0  0  0  0  0  0
  151.6899  145.7430  160.4771 H   0  0  0  0  0  0  0  0  0  0  0  0
  151.6872  144.0151  160.8258 H   0  0  0  0  0  0  0  0  0  0  0  0
  148.9677  138.1937  157.6629 H   0  0  0  0  0  0  0  0  0  0  0  0
  149.1401  136.1039  160.7863 H   0  0  0  0  0  0  0  0  0  0  0  0
  144.9363  135.2643  160.6105 H   0  0  0  0  0  0  0  0  0  0  0  0
  144.7419  136.5496  158.5245 H   0  0  0  0  0  0  0  0  0  0  0  0
  147.0674  136.1554  156.0184 H   0  0  0  0  0  0  0  0  0  0  0  0
  145.3752  136.5825  156.2243 H   0  0  0  0  0  0  0  0  0  0  0  0
  147.4483  138.1582  154.6006 H   0  0  0  0  0  0  0  0  0  0  0  0
  146.1010  137.2442  153.9535 H   0  0  0  0  0  0  0  0  0  0  0  0
  146.9796  140.1986  155.8468 H   0  0  0  0  0  0  0  0  0  0  0  0
  145.3079  140.6757  156.0659 H   0  0  0  0  0  0  0  0  0  0  0  0
  144.8775  138.7602  157.5634 H   0  0  0  0  0  0  0  0  0  0  0  0
  146.2695  139.6470  158.1655 H   0  0  0  0  0  0  0  0  0  0  0  0
  1  2  2  0  0  0  0
  2  3  1  0  0  0  0
  2 18  1  0  0  0  0
  3  4  1  0  0  0  0
  3 35  1  0  0  0  0
  3 36  1  0  0  0  0
  4 16  1  0  0  0  0
  4  5  1  0  0  0  0
  5  6  2  0  0  0  0
  5  7  1  0  0  0  0
  7  8  1  0  0  0  0
  7  9  2  0  0  0  0
  9 10  1  0  0  0  0
  9 37  1  0  0  0  0
 10 11  1  0  0  0  0
 10 16  1  0  0  0  0
 11 15  1  0  0  0  0
 11 12  1  0  0  0  0
 11 38  1  0  0  0  0
 12 13  1  0  0  0  0
 12 39  1  0  0  0  0
 12 40  1  0  0  0  0
 13 14  1  0  0  0  0
 13 41  1  0  0  0  0
 13 42  1  0  0  0  0
 14 15  1  0  0  0  0
 14 43  1  0  0  0  0
 14 44  1  0  0  0  0
 16 17  2  0  0  0  0
 18 19  1  0  0  0  0
 18 45  1  0  0  0  0
 19 28  1  0  0  0  0
 19 20  2  0  0  0  0
 20 21  1  0  0  0  0
 20 46  1  0  0  0  0
 21 22  1  0  0  0  0
 21 26  2  0  0  0  0
 22 23  1  0  0  0  0
 22 24  1  0  0  0  0
 22 25  1  0  0  0  0
 26 27  1  0  0  0  0
 26 47  1  0  0  0  0
 27 28  2  0  0  0  0
 27 48  1  0  0  0  0
 28 29  1  0  0  0  0
 29 34  1  0  0  0  0
 29 30  1  0  0  0  0
 30 31  1  0  0  0  0
 30 49  1  0  0  0  0
 30 50  1  0  0  0  0
 31 32  1  0  0  0  0
 31 51  1  0  0  0  0
 31 52  1  0  0  0  0
 32 33  1  0  0  0  0
 33 34  1  0  0  0  0
 33 53  1  0  0  0  0
 33 54  1  0  0  0  0
 34 55  1  0  0  0  0
 34 56  1  0  0  0  0
M  END
> <s_m_source_file>
AV-unprocessed.smi

> <i_m_source_file_index>
29

> <i_lp_mmshare_version>
43012

> <i_f3d_flags>
0

> <s_epik_input>
TzFbQ0gyXVtDSDJdW0NIMl1bQ0BIXTFuKGMyPU8pW2NIXWMoRiljKD1PKW4yW0NIMl1DKD1PKVtOSF1jM1tjSF1jKEMoRikoRilGKVtjSF1bY0hdYzNONFtDSDJdW0NIMl1PW0NIMl1bQ0gyXTQ=

> <s_epik_cmdline>
J2VwaWtfcHl0aG9uJywgJy1waCcsICc3LjAnLCAnLXRuJywgJzgnLCAnLW1hJywgJzIwMCcsICctbWV0YWxfYmluZGluZycsICctaW1hZScsICc8aW5maWxlLm1hZT4nLCAnLW9tYWUnLCAnPG91dGZpbGUubWFlPic=

> <r_lp_tautomer_probability>
1

> <r_epik_Ionization_Penalty>
3.5967e-06

> <r_epik_Ionization_Penalty_Charging>
3.88729e-08

> <r_epik_Ionization_Penalty_Neutral>
3.55783e-06

> <r_epik_State_Penalty>
-0

> <r_epik_Charging_Adjusted_Penalty>
3.88729e-08

> <i_epik_Tot_Q>
0

> <i_epik_Tot_abs_Q>
0

> <r_epik_Metal_State_Penalty>
-0

> <b_epik_Metal_Only>
0

> <s_epik_Chemistry_Notes>
This compound contains an acetal/aminal-like group ( X-CH(R)-Y where X, Y are N, S, or O) that may be acid/base labile, releasing an aldehyde.

> <s_lp_Force_Field>
OPLS_2005

> <r_lp_Energy>
46.7793

> <b_lp_Chiralities_Consistent>
1

> <s_lp_Variant>
AV-unprocessed.smi:29-2

> <Gold.Version>
5.8.1

> <Gold.Id.Protein>
6NUR|6NUR_protein|mol2

> <Gold.PLP.Fitness>
57.6514

> <Gold.PLP.PLP>
-54.9680

> <Gold.PLP.part.hbond>
-1.0293

> <Gold.PLP.part.metal>
0.0000

> <Gold.PLP.part.buried>
-9.2841

> <Gold.PLP.part.nonpolar>
-45.7455

> <Gold.PLP.part.repulsive>
0.2739

> <Gold.PLP.ligand.clash>
0.4286

> <Gold.PLP.ligand.torsion>
0.3406

> <Gold.PLP.Chemscore.Hbond>
0.9913

> <Gold.PLP.Chemscore.CHOScore>
0.0000

> <Gold.PLP.Chemscore.Metal>
0.0000

> <Gold.Chemscore.Hbonds>
donor molecule, donor type, donor heavy atom, donor atom, acceptor molecule, acceptor atom, score
      P1  H  6896  6909       L1     1  1.00

> <Gold.PLP.Chemscore.Internal.Correction>
0.8194

> <Gold.Rescore>
     Score         DG    S(hbond)    S(metal)    S(lipo)     H(rot)  DE(clash)    DE(int)     intcor
      9.64     -13.79       0.98        0.00      86.05       1.96       0.07       4.08       ----

> <Gold.Chemscore.Fitness>
9.6437

> <Gold.Chemscore.DG>
-13.7912

> <Gold.Chemscore.ZeroCoef>
-5.4800

> <Gold.Chemscore.Hbond>
0.9794

> <Gold.Chemscore.Metal>
0.0000

> <Gold.Chemscore.Lipo>
86.0523

> <Gold.Chemscore.Internal_Hbond>
0.0000

> <Gold.Chemscore.DEClash>
0.0672

> <Gold.Chemscore.DEInternal>
4.0803

> <Gold.Chemscore.Rot>
1.9641

> <Gold.Chemscore.Internal.Correction>
   9.000000E+99

> <Gold.Chemscore.Hbonds>
donor molecule, donor type, donor heavy atom, donor atom, acceptor molecule, acceptor atom, score
      P1  H  6896  6909       L1     1  0.94

> <Gold.Chemscore.Hbond.Weighted>
-3.2710

> <Gold.Chemscore.Metal.Weighted>
-0.0000

> <Gold.Chemscore.Lipo.Weighted>
-10.0681

> <Gold.Chemscore.Internal_Hbond.Weighted>
0.0000

> <Gold.Chemscore.DEClash.Weighted>
0.0672

> <Gold.Chemscore.DEInternal.Weighted>
4.0803

> <Gold.Chemscore.Rot.Weighted>
5.0280

> <Gold.Chemscore.Internal.Correction.Weighted>
   9.000000E+99

> <Gold.Protein.RotatedTorsions>
[ 6907 6896 6895 6894 ] final   98.32 input  -60.11 | X-H torsion
[ 7974 7965 7964 7962 ] final -126.98 input  175.53 | X-H torsion
[ 8008 7997 7996 7995 ] final   89.00 input   59.86 | X-H torsion
[ 10167 10162 10161 10158 ] final    0.96 input  -65.29 | X-H torsion
[ 10718 10713 10712 10709 ] final  -62.47 input   66.30 | X-H torsion
[ 10763 10752 10751 10750 ] final  -55.60 input  -60.55 | X-H torsion
[ 11005 11000 10999 10996 ] final   -7.43 input  -57.11 | X-H torsion

> <Gold.Protein.ActiveResidues>
 VAL166  LYS551  ARG553  GLY616  TRP617  ASP618  TYR619  PRO620  LYS621  CYS622 
 ASP623  PHE694  ASN695  SER759  ASP760  ASP761  ALA762  ILE779  LEU786  VAL792 
 PHE793  MET794  SER795  GLU796  ALA797  LYS798  CYS799  TRP800  GLU811  SER814 

> <Gold.Protein.RotatedAtoms>
  152.5411  134.0599  159.8147 H   0  0  0  0  0  0  0  0  0  0  0  0  # atno 6907 bound_to 6896
  151.0728  133.5444  159.2633 H   0  0  0  0  0  0  0  0  0  0  0  0  # atno 6908 bound_to 6896
  151.2301  135.0559  159.9038 H   0  0  0  0  0  0  0  0  0  0  0  0  # atno 6909 bound_to 6896
  144.9817  140.7647  143.4608 H   0  0  0  0  0  0  0  0  0  0  0  0  # atno 7974 bound_to 7965
  155.9947  140.3365  155.6786 H   0  0  0  0  0  0  0  0  0  0  0  0  # atno 8008 bound_to 7997
  155.6373  140.0691  157.2648 H   0  0  0  0  0  0  0  0  0  0  0  0  # atno 8009 bound_to 7997
  154.4230  140.1749  156.1523 H   0  0  0  0  0  0  0  0  0  0  0  0  # atno 8010 bound_to 7997
  140.6705  143.7062  150.7913 H   0  0  0  0  0  0  0  0  0  0  0  0  # atno 10167 bound_to 10162
  156.0853  130.4209  150.1140 H   0  0  0  0  0  0  0  0  0  0  0  0  # atno 10718 bound_to 10713
  154.1933  135.6423  153.5066 H   0  0  0  0  0  0  0  0  0  0  0  0  # atno 10763 bound_to 10752
  153.0029  135.5434  154.6392 H   0  0  0  0  0  0  0  0  0  0  0  0  # atno 10764 bound_to 10752
  154.5786  135.2923  155.0728 H   0  0  0  0  0  0  0  0  0  0  0  0  # atno 10765 bound_to 10752
  140.7127  133.8895  155.8762 H   0  0  0  0  0  0  0  0  0  0  0  0  # atno 11005 bound_to 11000
  145.2411  139.2072  143.4992 LP  0  0  0  0  0  0  0  0  0  0  0  0  # atno 17320 bound_to 7965
  146.3410  140.2307  142.8593 LP  0  0  0  0  0  0  0  0  0  0  0  0  # atno 17321 bound_to 7965
  140.0746  143.5027  152.2562 LP  0  0  0  0  0  0  0  0  0  0  0  0  # atno 17342 bound_to 10162
  139.5971  144.7570  151.3260 LP  0  0  0  0  0  0  0  0  0  0  0  0  # atno 17343 bound_to 10162
  156.9163  130.9668  151.3555 LP  0  0  0  0  0  0  0  0  0  0  0  0  # atno 17370 bound_to 10713
  157.5985  130.8495  149.8765 LP  0  0  0  0  0  0  0  0  0  0  0  0  # atno 17371 bound_to 10713
  141.0071  134.1072  157.4260 LP  0  0  0  0  0  0  0  0  0  0  0  0  # atno 17394 bound_to 11000
  139.8867  135.0084  156.6518 LP  0  0  0  0  0  0  0  0  0  0  0  0  # atno 17395 bound_to 11000

$$$$
