AV-unprocessed.smi:706|AV-procd|sdf|3452|dock8
  -GOLD-   22720 0433D 1   1.00000     0.00000
 Structure written by MMmdl.
 27 27  0  0  0  0  0  0  0  0  1 V2000
  152.2842  144.7153  158.5427 C   0  0  0  0  0  0  0  0  0  0  0  0
  151.8677  143.8593  159.7409 C   0  0  0  0  0  0  0  0  0  0  0  0
  150.6048  143.2718  159.4650 O   0  0  0  0  0  0  0  0  0  0  0  0
  150.6723  142.0987  158.6670 C   0  0  0  0  0  0  0  0  0  0  0  0
  150.8827  142.4381  157.1797 C   0  0  0  0  0  0  0  0  0  0  0  0
  150.7998  141.2691  156.3298 N   0  0  0  0  0  0  0  0  0  0  0  0
  149.9481  141.1693  155.2265 C   0  0  0  0  0  0  0  0  0  0  0  0
  149.1301  142.2373  154.9026 N   0  0  0  0  0  0  0  0  0  0  0  0
  149.9136  140.0535  154.4543 C   0  0  0  0  0  0  0  0  0  0  0  0
  150.7697  138.9062  154.7353 C   0  0  0  0  0  0  0  0  0  0  0  0
  150.7891  137.8612  154.0890 O   0  0  0  0  0  0  0  0  0  0  0  0
  151.6140  139.0690  155.8335 N   0  0  0  0  0  0  0  0  0  0  0  0
  151.6799  140.2026  156.6409 C   0  0  0  0  0  0  0  0  0  0  0  0
  152.4848  140.2367  157.5726 O   0  0  0  0  0  0  0  0  0  0  0  0
  152.2340  138.3044  156.0580 H   0  0  0  0  0  0  0  0  0  0  0  0
  153.2526  145.1848  158.7164 H   0  0  0  0  0  0  0  0  0  0  0  0
  151.5577  145.5064  158.3560 H   0  0  0  0  0  0  0  0  0  0  0  0
  152.3627  144.1111  157.6385 H   0  0  0  0  0  0  0  0  0  0  0  0
  152.6136  143.0829  159.9168 H   0  0  0  0  0  0  0  0  0  0  0  0
  151.8206  144.4809  160.6349 H   0  0  0  0  0  0  0  0  0  0  0  0
  151.5222  141.5147  159.0217 H   0  0  0  0  0  0  0  0  0  0  0  0
  149.7882  141.4767  158.8164 H   0  0  0  0  0  0  0  0  0  0  0  0
  150.1676  143.1712  156.8044 H   0  0  0  0  0  0  0  0  0  0  0  0
  151.8621  142.8848  157.0128 H   0  0  0  0  0  0  0  0  0  0  0  0
  149.1293  143.0916  155.4418 H   0  0  0  0  0  0  0  0  0  0  0  0
  148.4825  142.1969  154.1284 H   0  0  0  0  0  0  0  0  0  0  0  0
  149.2439  140.0017  153.6069 H   0  0  0  0  0  0  0  0  0  0  0  0
  1  2  1  0  0  0  0
  1 16  1  0  0  0  0
  1 17  1  0  0  0  0
  1 18  1  0  0  0  0
  2  3  1  0  0  0  0
  2 19  1  0  0  0  0
  2 20  1  0  0  0  0
  3  4  1  0  0  0  0
  4  5  1  0  0  0  0
  4 21  1  0  0  0  0
  4 22  1  0  0  0  0
  5  6  1  0  0  0  0
  5 23  1  0  0  0  0
  5 24  1  0  0  0  0
  6 13  1  0  0  0  0
  6  7  1  0  0  0  0
  7  8  1  0  0  0  0
  7  9  2  0  0  0  0
  8 25  1  0  0  0  0
  8 26  1  0  0  0  0
  9 10  1  0  0  0  0
  9 27  1  0  0  0  0
 10 11  2  0  0  0  0
 10 12  1  0  0  0  0
 12 15  1  0  0  0  0
 12 13  1  0  0  0  0
 13 14  2  0  0  0  0
M  END
> <s_m_source_file>
AV-unprocessed.smi

> <i_m_source_file_index>
706

> <i_lp_mmshare_version>
43012

> <i_f3d_flags>
0

> <s_epik_input>
W0NIM11bQ0gyXU9bQ0gyXVtDSDJdbjFjKFtOSDJdKVtjSF1jKD1PKVtuSF1jMT1P

> <s_epik_cmdline>
J2VwaWtfcHl0aG9uJywgJy1waCcsICc3LjAnLCAnLXRuJywgJzgnLCAnLW1hJywgJzIwMCcsICctbWV0YWxfYmluZGluZycsICctaW1hZScsICc8aW5maWxlLm1hZT4nLCAnLW9tYWUnLCAnPG91dGZpbGUubWFlPic=

> <r_lp_tautomer_probability>
1

> <r_epik_Ionization_Penalty>
6.92057e-06

> <r_epik_Ionization_Penalty_Charging>
2.18399e-06

> <r_epik_Ionization_Penalty_Neutral>
4.73657e-06

> <r_epik_State_Penalty>
-0

> <r_epik_Charging_Adjusted_Penalty>
2.18399e-06

> <i_epik_Tot_Q>
0

> <i_epik_Tot_abs_Q>
0

> <r_epik_Metal_State_Penalty>
-0

> <b_epik_Metal_Only>
0

> <s_epik_Chemistry_Notes>
This compound has an imine and may undergo hydrolysis.

> <s_lp_Force_Field>
OPLS_2005

> <r_lp_Energy>
11.2939

> <b_lp_Chiralities_Consistent>
1

> <s_lp_Variant>
AV-unprocessed.smi:706-1

> <Gold.Version>
5.8.1

> <Gold.Id.Protein>
6NUR|6NUR_protein|mol2

> <Gold.PLP.Fitness>
36.1201

> <Gold.PLP.PLP>
-30.5659

> <Gold.PLP.part.hbond>
-2.0000

> <Gold.PLP.part.metal>
0.0000

> <Gold.PLP.part.buried>
-2.8877

> <Gold.PLP.part.nonpolar>
-25.7342

> <Gold.PLP.part.repulsive>
0.6502

> <Gold.PLP.ligand.clash>
0.0000

> <Gold.PLP.ligand.torsion>
0.2250

> <Gold.PLP.Chemscore.Hbond>
2.0000

> <Gold.PLP.Chemscore.CHOScore>
0.0000

> <Gold.PLP.Chemscore.Metal>
0.0000

> <Gold.Chemscore.Hbonds>
donor molecule, donor type, donor heavy atom, donor atom, acceptor molecule, acceptor atom, score
      L1  H     8    25       P1  8028  1.00
      P1  H  7997  8008       L1    14  0.81

> <Gold.PLP.Chemscore.Internal.Correction>
0.0042

> <Gold.Rescore>
     Score         DG    S(hbond)    S(metal)    S(lipo)     H(rot)  DE(clash)    DE(int)     intcor
     11.81     -12.46       1.91        0.00      51.61       2.12       0.09       0.55       ----

> <Gold.Chemscore.Fitness>
11.8134

> <Gold.Chemscore.DG>
-12.4550

> <Gold.Chemscore.ZeroCoef>
-5.4800

> <Gold.Chemscore.Hbond>
1.9092

> <Gold.Chemscore.Metal>
0.0000

> <Gold.Chemscore.Lipo>
51.6078

> <Gold.Chemscore.Internal_Hbond>
0.0000

> <Gold.Chemscore.DEClash>
0.0921

> <Gold.Chemscore.DEInternal>
0.5496

> <Gold.Chemscore.Rot>
2.1250

> <Gold.Chemscore.Internal.Correction>
   9.000000E+99

> <Gold.Chemscore.Hbonds>
donor molecule, donor type, donor heavy atom, donor atom, acceptor molecule, acceptor atom, score
      L1  H     8    25       P1  8028  0.97
      P1  H  7997  8008       L1    14  0.38

> <Gold.Chemscore.Hbond.Weighted>
-6.3768

> <Gold.Chemscore.Metal.Weighted>
-0.0000

> <Gold.Chemscore.Lipo.Weighted>
-6.0381

> <Gold.Chemscore.Internal_Hbond.Weighted>
0.0000

> <Gold.Chemscore.DEClash.Weighted>
0.0921

> <Gold.Chemscore.DEInternal.Weighted>
0.5496

> <Gold.Chemscore.Rot.Weighted>
5.4399

> <Gold.Chemscore.Internal.Correction.Weighted>
   9.000000E+99

> <Gold.Protein.RotatedTorsions>
[ 6907 6896 6895 6894 ] final  110.33 input  -60.11 | X-H torsion
[ 7974 7965 7964 7962 ] final  170.29 input  175.53 | X-H torsion
[ 8008 7997 7996 7995 ] final  -60.76 input   59.86 | X-H torsion
[ 10167 10162 10161 10158 ] final   84.53 input  -65.29 | X-H torsion
[ 10718 10713 10712 10709 ] final -113.01 input   66.30 | X-H torsion
[ 10763 10752 10751 10750 ] final  173.49 input  -60.55 | X-H torsion
[ 11005 11000 10999 10996 ] final   92.51 input  -57.11 | X-H torsion

> <Gold.Protein.ActiveResidues>
 VAL166  LYS551  ARG553  GLY616  TRP617  ASP618  TYR619  PRO620  LYS621  CYS622 
 ASP623  PHE694  ASN695  SER759  ASP760  ASP761  ALA762  ILE779  LEU786  VAL792 
 PHE793  MET794  SER795  GLU796  ALA797  LYS798  CYS799  TRP800  GLU811  SER814 

> <Gold.Protein.RotatedAtoms>
  152.5025  133.8816  159.7349 H   0  0  0  0  0  0  0  0  0  0  0  0  # atno 6907 bound_to 6896
  150.9277  133.6795  159.2824 H   0  0  0  0  0  0  0  0  0  0  0  0  # atno 6908 bound_to 6896
  151.4150  135.0995  159.9649 H   0  0  0  0  0  0  0  0  0  0  0  0  # atno 6909 bound_to 6896
  144.7328  139.9180  143.6418 H   0  0  0  0  0  0  0  0  0  0  0  0  # atno 7974 bound_to 7965
  154.4414  140.1032  156.6324 H   0  0  0  0  0  0  0  0  0  0  0  0  # atno 8008 bound_to 7997
  155.5590  140.3487  155.4468 H   0  0  0  0  0  0  0  0  0  0  0  0  # atno 8009 bound_to 7997
  156.0473  140.1296  157.0078 H   0  0  0  0  0  0  0  0  0  0  0  0  # atno 8010 bound_to 7997
  139.9070  144.6295  150.8577 H   0  0  0  0  0  0  0  0  0  0  0  0  # atno 10167 bound_to 10162
  156.0741  130.5950  150.8586 H   0  0  0  0  0  0  0  0  0  0  0  0  # atno 10718 bound_to 10713
  154.4407  135.2762  155.1849 H   0  0  0  0  0  0  0  0  0  0  0  0  # atno 10763 bound_to 10752
  154.3717  135.6107  153.5747 H   0  0  0  0  0  0  0  0  0  0  0  0  # atno 10764 bound_to 10752
  152.9841  135.5859  154.4734 H   0  0  0  0  0  0  0  0  0  0  0  0  # atno 10765 bound_to 10752
  139.8822  134.8737  156.3584 H   0  0  0  0  0  0  0  0  0  0  0  0  # atno 11005 bound_to 11000
  146.0951  139.3943  143.0381 LP  0  0  0  0  0  0  0  0  0  0  0  0  # atno 17320 bound_to 7965
  145.7657  140.9917  143.1176 LP  0  0  0  0  0  0  0  0  0  0  0  0  # atno 17321 bound_to 7965
  140.7694  143.3394  151.2241 LP  0  0  0  0  0  0  0  0  0  0  0  0  # atno 17342 bound_to 10162
  139.6975  143.9588  152.2890 LP  0  0  0  0  0  0  0  0  0  0  0  0  # atno 17343 bound_to 10162
  157.5827  131.0946  150.9246 LP  0  0  0  0  0  0  0  0  0  0  0  0  # atno 17370 bound_to 10713
  156.9438  130.5394  149.5281 LP  0  0  0  0  0  0  0  0  0  0  0  0  # atno 17371 bound_to 10713
  140.9546  133.7428  156.0318 LP  0  0  0  0  0  0  0  0  0  0  0  0  # atno 17394 bound_to 11000
  140.8064  134.3450  157.5425 LP  0  0  0  0  0  0  0  0  0  0  0  0  # atno 17395 bound_to 11000

$$$$
