AV-unprocessed.smi:3012|AV-procd|sdf|11463|dock5
  -GOLD-   2272016403D 1   1.00000     0.00000
 Structure written by MMmdl.
 16 16  0  0  0  0  0  0  0  0  3 V2000
  152.4148  137.5020  154.0068 O   0  0  0  0  0  0  0  0  0  0  0  0
  152.5814  138.4694  154.7829 C   0  0  0  0  0  0  0  0  0  0  0  0
  153.5228  139.2911  154.7128 O   0  5  0  0  0  0  0  0  0  0  0  0
  151.5251  138.6578  155.8805 C   0  0  0  0  0  0  0  0  0  0  0  0
  150.8278  140.0178  155.8862 C   0  0  0  0  0  0  0  0  0  0  0  0
  150.9339  140.8546  156.9897 C   0  0  0  0  0  0  0  0  0  0  0  0
  150.2320  142.1331  156.9818 C   0  0  0  0  0  0  0  0  0  0  0  0
  150.2664  142.9493  157.9010 O   0  0  0  0  0  0  0  0  0  0  0  0
  149.5147  142.3592  155.8534 N   0  0  0  0  0  0  0  0  0  0  0  0
  149.4011  141.5279  154.7852 C   0  0  0  0  0  0  0  0  0  0  0  0
  148.6965  141.9024  153.8501 O   0  0  0  0  0  0  0  0  0  0  0  0
  150.0632  140.3351  154.8074 N   0  5  0  0  0  0  0  0  0  0  0  0
  149.0120  143.2326  155.8020 H   0  0  0  0  0  0  0  0  0  0  0  0
  150.7946  137.8544  155.7754 H   0  0  0  0  0  0  0  0  0  0  0  0
  152.0017  138.4994  156.8489 H   0  0  0  0  0  0  0  0  0  0  0  0
  151.5295  140.5712  157.8451 H   0  0  0  0  0  0  0  0  0  0  0  0
  1  2  2  0  0  0  0
  2  3  1  0  0  0  0
  2  4  1  0  0  0  0
  4  5  1  0  0  0  0
  4 14  1  0  0  0  0
  4 15  1  0  0  0  0
  5 12  1  0  0  0  0
  5  6  2  0  0  0  0
  6  7  1  0  0  0  0
  6 16  1  0  0  0  0
  7  8  2  0  0  0  0
  7  9  1  0  0  0  0
  9 13  1  0  0  0  0
  9 10  1  0  0  0  0
 10 11  2  0  0  0  0
 10 12  1  0  0  0  0
M  CHG  1   3  -1
M  CHG  1  12  -1
M  END
> <s_m_source_file>
AV-unprocessed.smi

> <i_m_source_file_index>
3012

> <i_lp_mmshare_version>
43012

> <i_f3d_flags>
0

> <s_epik_input>
Tz1DKFtPSF0pW0NIMl1jMVtjSF1jKD1PKVtuSF1jKD1PKVtuSF0x

> <s_epik_cmdline>
J2VwaWtfcHl0aG9uJywgJy1waCcsICc3LjAnLCAnLXRuJywgJzgnLCAnLW1hJywgJzIwMCcsICctbWV0YWxfYmluZGluZycsICctaW1hZScsICc8aW5maWxlLm1hZT4nLCAnLW9tYWUnLCAnPG91dGZpbGUubWFlPic=

> <r_lp_tautomer_probability>
1

> <r_epik_Ionization_Penalty>
4.12951

> <r_epik_Ionization_Penalty_Charging>
0.000885541

> <r_epik_Ionization_Penalty_Neutral>
4.12862

> <r_epik_State_Penalty>
4.12806

> <r_epik_Charging_Adjusted_Penalty>
4.12895

> <i_epik_Tot_Q>
-2

> <i_epik_Tot_abs_Q>
2

> <r_epik_Metal_State_Penalty>
0.707998

> <b_epik_Metal_Only>
1

> <s_lp_Force_Field>
OPLS_2005

> <r_lp_Energy>
11.7888

> <b_lp_Chiralities_Consistent>
1

> <s_lp_Variant>
AV-unprocessed.smi:3012-3

> <Gold.Version>
5.8.1

> <Gold.Id.Protein>
6NUR|6NUR_protein|mol2

> <Gold.PLP.Fitness>
38.5946

> <Gold.PLP.PLP>
-21.5445

> <Gold.PLP.part.hbond>
-5.2308

> <Gold.PLP.part.metal>
0.0000

> <Gold.PLP.part.buried>
-3.6527

> <Gold.PLP.part.nonpolar>
-14.3627

> <Gold.PLP.part.repulsive>
0.7356

> <Gold.PLP.ligand.clash>
0.0000

> <Gold.PLP.ligand.torsion>
0.0222

> <Gold.PLP.Chemscore.Hbond>
5.6965

> <Gold.PLP.Chemscore.CHOScore>
0.0000

> <Gold.PLP.Chemscore.Metal>
0.0000

> <Gold.Chemscore.Hbonds>
donor molecule, donor type, donor heavy atom, donor atom, acceptor molecule, acceptor atom, score
      L1  H     9    13       P1  8028  0.91
      P1  H  7989  7998       L1    12  0.62
      P1  H  7997  8009       L1     3  2.00
      P1  H  8011  8017       L1    11  0.50
      P1  H 10752 10763       L1     1  1.44

> <Gold.PLP.Chemscore.Internal.Correction>
0.0051

> <Gold.Rescore>
     Score         DG    S(hbond)    S(metal)    S(lipo)     H(rot)  DE(clash)    DE(int)     intcor
     12.81     -13.22       3.01        0.00      17.05       1.68       0.00       0.40       ----

> <Gold.Chemscore.Fitness>
12.8123

> <Gold.Chemscore.DG>
-13.2158

> <Gold.Chemscore.ZeroCoef>
-5.4800

> <Gold.Chemscore.Hbond>
3.0100

> <Gold.Chemscore.Metal>
0.0000

> <Gold.Chemscore.Lipo>
17.0522

> <Gold.Chemscore.Internal_Hbond>
0.0000

> <Gold.Chemscore.DEClash>
0.0015

> <Gold.Chemscore.DEInternal>
0.4020

> <Gold.Chemscore.Rot>
1.6846

> <Gold.Chemscore.Internal.Correction>
   9.000000E+99

> <Gold.Chemscore.Hbonds>
donor molecule, donor type, donor heavy atom, donor atom, acceptor molecule, acceptor atom, score
      L1  H     9    13       P1  8028  0.87
      P1  H  7989  7998       L1    12  0.02
      P1  H  7997  8009       L1     3  1.00
      P1  H  8011  8017       L1    11  0.37
      P1  H 10752 10763       L1     1  0.72

> <Gold.Chemscore.Hbond.Weighted>
-10.0533

> <Gold.Chemscore.Metal.Weighted>
-0.0000

> <Gold.Chemscore.Lipo.Weighted>
-1.9951

> <Gold.Chemscore.Internal_Hbond.Weighted>
0.0000

> <Gold.Chemscore.DEClash.Weighted>
0.0015

> <Gold.Chemscore.DEInternal.Weighted>
0.4020

> <Gold.Chemscore.Rot.Weighted>
4.3126

> <Gold.Chemscore.Internal.Correction.Weighted>
   9.000000E+99

> <Gold.Protein.RotatedTorsions>
[ 6907 6896 6895 6894 ] final  120.11 input  -60.11 | X-H torsion
[ 7974 7965 7964 7962 ] final  -92.53 input  175.53 | X-H torsion
[ 8008 7997 7996 7995 ] final -129.64 input   59.86 | X-H torsion
[ 10167 10162 10161 10158 ] final  178.66 input  -65.29 | X-H torsion
[ 10718 10713 10712 10709 ] final   28.66 input   66.30 | X-H torsion
[ 10763 10752 10751 10750 ] final   16.10 input  -60.55 | X-H torsion
[ 11005 11000 10999 10996 ] final    5.91 input  -57.11 | X-H torsion

> <Gold.Protein.ActiveResidues>
 VAL166  LYS551  ARG553  GLY616  TRP617  ASP618  TYR619  PRO620  LYS621  CYS622 
 ASP623  PHE694  ASN695  SER759  ASP760  ASP761  ALA762  ILE779  LEU786  VAL792 
 PHE793  MET794  SER795  GLU796  ALA797  LYS798  CYS799  TRP800  GLU811  SER814 

> <Gold.Protein.RotatedAtoms>
  152.4422  133.7470  159.6672 H   0  0  0  0  0  0  0  0  0  0  0  0  # atno 6907 bound_to 6896
  150.8315  133.8072  159.3102 H   0  0  0  0  0  0  0  0  0  0  0  0  # atno 6908 bound_to 6896
  151.5725  135.1064  160.0050 H   0  0  0  0  0  0  0  0  0  0  0  0  # atno 6909 bound_to 6896
  145.3986  140.9535  143.2300 H   0  0  0  0  0  0  0  0  0  0  0  0  # atno 7974 bound_to 7965
  155.2826  140.0445  157.3017 H   0  0  0  0  0  0  0  0  0  0  0  0  # atno 8008 bound_to 7997
  154.5588  140.2340  155.8336 H   0  0  0  0  0  0  0  0  0  0  0  0  # atno 8009 bound_to 7997
  156.2030  140.3020  155.9573 H   0  0  0  0  0  0  0  0  0  0  0  0  # atno 8010 bound_to 7997
  139.5303  144.2654  152.0673 H   0  0  0  0  0  0  0  0  0  0  0  0  # atno 10167 bound_to 10162
  157.2364  130.7048  149.6337 H   0  0  0  0  0  0  0  0  0  0  0  0  # atno 10718 bound_to 10713
  153.1462  135.6769  153.8951 H   0  0  0  0  0  0  0  0  0  0  0  0  # atno 10763 bound_to 10752
  153.8392  135.3107  155.3426 H   0  0  0  0  0  0  0  0  0  0  0  0  # atno 10764 bound_to 10752
  154.7827  135.4879  153.9964 H   0  0  0  0  0  0  0  0  0  0  0  0  # atno 10765 bound_to 10752
  140.5654  134.0152  155.7988 H   0  0  0  0  0  0  0  0  0  0  0  0  # atno 11005 bound_to 11000
  144.8390  139.5503  143.6909 LP  0  0  0  0  0  0  0  0  0  0  0  0  # atno 17320 bound_to 7965
  146.2763  139.6761  142.9261 LP  0  0  0  0  0  0  0  0  0  0  0  0  # atno 17321 bound_to 7965
  140.2116  144.4557  150.6383 LP  0  0  0  0  0  0  0  0  0  0  0  0  # atno 17342 bound_to 10162
  140.6477  143.2217  151.6149 LP  0  0  0  0  0  0  0  0  0  0  0  0  # atno 17343 bound_to 10162
  155.9672  130.4472  150.5572 LP  0  0  0  0  0  0  0  0  0  0  0  0  # atno 17370 bound_to 10713
  157.3425  131.0719  151.1777 LP  0  0  0  0  0  0  0  0  0  0  0  0  # atno 17371 bound_to 10713
  141.1089  133.9649  157.2947 LP  0  0  0  0  0  0  0  0  0  0  0  0  # atno 17394 bound_to 11000
  139.9387  135.0193  156.8640 LP  0  0  0  0  0  0  0  0  0  0  0  0  # atno 17395 bound_to 11000

$$$$
