AV-unprocessed.smi:1754|AV-procd|sdf|7065|dock3
  -GOLD-   22720 8283D 1   1.00000     0.00000
 Structure written by MMmdl.
 45 46  0  0  0  0  0  0  0  0  2 V2000
  144.8946  135.7491  151.8839 C   0  0  0  0  0  0  0  0  0  0  0  0
  145.6763  137.0504  152.1079 C   0  0  0  0  0  0  0  0  0  0  0  0
  145.4803  137.5885  153.4534 N   0  0  0  0  0  0  0  0  0  0  0  0
  144.3560  137.1067  154.2519 C   0  0  0  0  0  0  0  0  0  0  0  0
  143.0035  137.4503  153.6140 C   0  0  0  0  0  0  0  0  0  0  0  0
  146.3949  138.5229  153.9927 C   0  0  0  0  0  0  0  0  0  0  0  0
  147.5789  138.1493  154.6756 C   0  0  0  0  0  0  0  0  0  0  0  0
  148.4444  139.1395  155.1842 C   0  0  0  0  0  0  0  0  0  0  0  0
  148.1270  140.5070  154.9998 C   0  0  0  0  0  0  0  0  0  0  0  0
  148.9187  141.5808  155.4880 N   0  0  0  0  0  0  0  0  0  0  0  0
  149.8480  141.5630  156.4641 C   0  0  0  0  0  0  0  0  0  0  0  0
  150.2066  140.5541  157.0673 O   0  0  0  0  0  0  0  0  0  0  0  0
  150.4054  142.7601  156.7204 N   0  0  0  0  0  0  0  0  0  0  0  0
  151.4354  143.0896  157.7070 C   0  0  1  0  0  0  0  0  0  0  0  0
  151.6341  144.6136  157.8077 C   0  0  0  0  0  0  0  0  0  0  0  0
  152.4402  144.9243  159.0754 C   0  0  0  0  0  0  0  0  0  0  0  0
  152.0240  143.6067  160.2805 S   0  0  0  0  0  0  0  0  0  0  0  0
  153.2578  142.9002  160.6568 O   0  0  0  0  0  0  0  0  0  0  0  0
  151.1133  144.1405  161.3045 O   0  0  0  0  0  0  0  0  0  0  0  0
  151.0692  142.5729  159.1077 C   0  0  0  0  0  0  0  0  0  0  0  0
  146.9304  140.8272  154.3287 C   0  0  0  0  0  0  0  0  0  0  0  0
  146.1308  139.8460  153.8586 N   0  3  0  0  0  0  0  0  0  0  0  0
  145.0428  135.3801  150.8689 H   0  0  0  0  0  0  0  0  0  0  0  0
  143.8244  135.8994  152.0278 H   0  0  0  0  0  0  0  0  0  0  0  0
  145.2185  134.9670  152.5711 H   0  0  0  0  0  0  0  0  0  0  0  0
  146.7361  136.8992  151.9013 H   0  0  0  0  0  0  0  0  0  0  0  0
  145.3417  137.7956  151.3855 H   0  0  0  0  0  0  0  0  0  0  0  0
  144.4372  136.0232  154.3454 H   0  0  0  0  0  0  0  0  0  0  0  0
  144.4112  137.4887  155.2712 H   0  0  0  0  0  0  0  0  0  0  0  0
  142.1827  137.0699  154.2223 H   0  0  0  0  0  0  0  0  0  0  0  0
  142.9110  137.0098  152.6209 H   0  0  0  0  0  0  0  0  0  0  0  0
  142.8703  138.5278  153.5151 H   0  0  0  0  0  0  0  0  0  0  0  0
  147.8373  137.1133  154.8335 H   0  0  0  0  0  0  0  0  0  0  0  0
  149.3272  138.8269  155.7197 H   0  0  0  0  0  0  0  0  0  0  0  0
  148.7979  142.4617  155.0097 H   0  0  0  0  0  0  0  0  0  0  0  0
  150.1053  143.5253  156.1333 H   0  0  0  0  0  0  0  0  0  0  0  0
  152.3928  142.6572  157.4099 H   0  0  0  0  0  0  0  0  0  0  0  0
  152.1169  145.0201  156.9183 H   0  0  0  0  0  0  0  0  0  0  0  0
  150.6596  145.0979  157.8889 H   0  0  0  0  0  0  0  0  0  0  0  0
  153.5109  144.8713  158.8764 H   0  0  0  0  0  0  0  0  0  0  0  0
  152.2124  145.9047  159.4941 H   0  0  0  0  0  0  0  0  0  0  0  0
  150.0098  142.7235  159.3193 H   0  0  0  0  0  0  0  0  0  0  0  0
  151.3079  141.5200  159.2579 H   0  0  0  0  0  0  0  0  0  0  0  0
  146.5896  141.8363  154.1473 H   0  0  0  0  0  0  0  0  0  0  0  0
  145.2766  140.1171  153.3711 H   0  0  0  0  0  0  0  0  0  0  0  0
  1  2  1  0  0  0  0
  1 23  1  0  0  0  0
  1 24  1  0  0  0  0
  1 25  1  0  0  0  0
  2  3  1  0  0  0  0
  2 26  1  0  0  0  0
  2 27  1  0  0  0  0
  3  4  1  0  0  0  0
  3  6  1  0  0  0  0
  4  5  1  0  0  0  0
  4 28  1  0  0  0  0
  4 29  1  0  0  0  0
  5 30  1  0  0  0  0
  5 31  1  0  0  0  0
  5 32  1  0  0  0  0
  6 22  1  0  0  0  0
  6  7  2  0  0  0  0
  7  8  1  0  0  0  0
  7 33  1  0  0  0  0
  8  9  2  0  0  0  0
  8 34  1  0  0  0  0
  9 10  1  0  0  0  0
  9 21  1  0  0  0  0
 10 11  1  0  0  0  0
 10 35  1  0  0  0  0
 11 12  2  0  0  0  0
 11 13  1  0  0  0  0
 13 14  1  0  0  0  0
 13 36  1  0  0  0  0
 14 20  1  0  0  0  0
 14 15  1  0  0  0  0
 14 37  1  0  0  0  0
 15 16  1  0  0  0  0
 15 38  1  0  0  0  0
 15 39  1  0  0  0  0
 16 17  1  0  0  0  0
 16 40  1  0  0  0  0
 16 41  1  0  0  0  0
 17 18  2  0  0  0  0
 17 19  2  0  0  0  0
 17 20  1  0  0  0  0
 20 42  1  0  0  0  0
 20 43  1  0  0  0  0
 21 22  2  0  0  0  0
 21 44  1  0  0  0  0
 22 45  1  0  0  0  0
M  CHG  1  22   1
M  END
> <s_m_source_file>
AV-unprocessed.smi

> <i_m_source_file_index>
1754

> <i_lp_mmshare_version>
43012

> <i_f3d_flags>
0

> <s_epik_input>
W0NIM11bQ0gyXU4oW0NIMl1bQ0gzXSljMVtjSF1bY0hdYyhbY0hdbjEpW05IXUMoPU8pW05IXVtDQEBIXShbQ0gyXTIpW0NIMl1bQ0gyXVMyKD1PKT1P

> <s_epik_cmdline>
J2VwaWtfcHl0aG9uJywgJy1waCcsICc3LjAnLCAnLXRuJywgJzgnLCAnLW1hJywgJzIwMCcsICctbWV0YWxfYmluZGluZycsICctaW1hZScsICc8aW5maWxlLm1hZT4nLCAnLW9tYWUnLCAnPG91dGZpbGUubWFlPic=

> <r_lp_tautomer_probability>
0.999994

> <r_epik_Ionization_Penalty>
0.271106

> <r_epik_Ionization_Penalty_Charging>
0.271085

> <r_epik_Ionization_Penalty_Neutral>
2.10634e-05

> <r_epik_State_Penalty>
0.017795

> <r_epik_Charging_Adjusted_Penalty>
0.28888

> <i_epik_Tot_Q>
1

> <i_epik_Tot_abs_Q>
1

> <r_epik_Metal_State_Penalty>
0.0544868

> <b_epik_Metal_Only>
0

> <s_lp_Force_Field>
OPLS_2005

> <r_lp_Energy>
29.9971

> <b_lp_Chiralities_Consistent>
1

> <s_lp_Variant>
AV-unprocessed.smi:1754-2

> <Gold.Version>
5.8.1

> <Gold.Id.Protein>
6NUR|6NUR_protein|mol2

> <Gold.PLP.Fitness>
48.3484

> <Gold.PLP.PLP>
-39.9937

> <Gold.PLP.part.hbond>
-4.0000

> <Gold.PLP.part.metal>
0.0000

> <Gold.PLP.part.buried>
3.1076

> <Gold.PLP.part.nonpolar>
-39.8588

> <Gold.PLP.part.repulsive>
0.3857

> <Gold.PLP.ligand.clash>
0.0000

> <Gold.PLP.ligand.torsion>
1.9079

> <Gold.PLP.Chemscore.Hbond>
4.0109

> <Gold.PLP.Chemscore.CHOScore>
0.0000

> <Gold.PLP.Chemscore.Metal>
0.0000

> <Gold.Chemscore.Hbonds>
donor molecule, donor type, donor heavy atom, donor atom, acceptor molecule, acceptor atom, score
      L1  H    10    35       P1  8028  0.16
      L1  H    13    36       P1  8028  1.00
      L1  H    22    45       P1 10175  2.00

> <Gold.PLP.Chemscore.Internal.Correction>
0.1379

> <Gold.Rescore>
     Score         DG    S(hbond)    S(metal)    S(lipo)     H(rot)  DE(clash)    DE(int)     intcor
     17.29     -22.57       2.84        0.00      95.76       1.41       2.06       3.22       ----

> <Gold.Chemscore.Fitness>
17.2874

> <Gold.Chemscore.DG>
-22.5700

> <Gold.Chemscore.ZeroCoef>
-5.4800

> <Gold.Chemscore.Hbond>
2.8408

> <Gold.Chemscore.Metal>
0.0000

> <Gold.Chemscore.Lipo>
95.7595

> <Gold.Chemscore.Internal_Hbond>
0.0000

> <Gold.Chemscore.DEClash>
2.0640

> <Gold.Chemscore.DEInternal>
3.2186

> <Gold.Chemscore.Rot>
1.4070

> <Gold.Chemscore.Internal.Correction>
   9.000000E+99

> <Gold.Chemscore.Hbonds>
donor molecule, donor type, donor heavy atom, donor atom, acceptor molecule, acceptor atom, score
      L1  H    10    35       P1  8028  0.17
      L1  H    13    36       P1  8028  0.95
      L1  H    22    45       P1 10175  1.00

> <Gold.Chemscore.Hbond.Weighted>
-9.4882

> <Gold.Chemscore.Metal.Weighted>
-0.0000

> <Gold.Chemscore.Lipo.Weighted>
-11.2039

> <Gold.Chemscore.Internal_Hbond.Weighted>
0.0000

> <Gold.Chemscore.DEClash.Weighted>
2.0640

> <Gold.Chemscore.DEInternal.Weighted>
3.2186

> <Gold.Chemscore.Rot.Weighted>
3.6020

> <Gold.Chemscore.Internal.Correction.Weighted>
   9.000000E+99

> <Gold.Protein.RotatedTorsions>
[ 6907 6896 6895 6894 ] final  113.44 input  -60.11 | X-H torsion
[ 7974 7965 7964 7962 ] final  -21.46 input  175.53 | X-H torsion
[ 8008 7997 7996 7995 ] final  -89.38 input   59.86 | X-H torsion
[ 10167 10162 10161 10158 ] final  -33.10 input  -65.29 | X-H torsion
[ 10718 10713 10712 10709 ] final    6.60 input   66.30 | X-H torsion
[ 10763 10752 10751 10750 ] final  139.43 input  -60.55 | X-H torsion
[ 11005 11000 10999 10996 ] final -118.52 input  -57.11 | X-H torsion

> <Gold.Protein.ActiveResidues>
 VAL166  LYS551  ARG553  GLY616  TRP617  ASP618  TYR619  PRO620  LYS621  CYS622 
 ASP623  PHE694  ASN695  SER759  ASP760  ASP761  ALA762  ILE779  LEU786  VAL792 
 PHE793  MET794  SER795  GLU796  ALA797  LYS798  CYS799  TRP800  GLU811  SER814 

> <Gold.Protein.RotatedAtoms>
  152.4860  133.8375  159.7135 H   0  0  0  0  0  0  0  0  0  0  0  0  # atno 6907 bound_to 6896
  150.8948  133.7186  159.2901 H   0  0  0  0  0  0  0  0  0  0  0  0  # atno 6908 bound_to 6896
  151.4647  135.1045  159.9787 H   0  0  0  0  0  0  0  0  0  0  0  0  # atno 6909 bound_to 6896
  146.1732  140.4344  142.8524 H   0  0  0  0  0  0  0  0  0  0  0  0  # atno 7974 bound_to 7965
  154.6859  140.0542  157.0314 H   0  0  0  0  0  0  0  0  0  0  0  0  # atno 8008 bound_to 7997
  155.0885  140.3217  155.4562 H   0  0  0  0  0  0  0  0  0  0  0  0  # atno 8009 bound_to 7997
  156.2711  140.2052  156.6012 H   0  0  0  0  0  0  0  0  0  0  0  0  # atno 8010 bound_to 7997
  140.7210  143.3645  151.1897 H   0  0  0  0  0  0  0  0  0  0  0  0  # atno 10167 bound_to 10162
  156.9245  130.5803  149.5648 H   0  0  0  0  0  0  0  0  0  0  0  0  # atno 10718 bound_to 10713
  153.9060  135.3016  155.3448 H   0  0  0  0  0  0  0  0  0  0  0  0  # atno 10763 bound_to 10752
  154.7647  135.4916  153.9534 H   0  0  0  0  0  0  0  0  0  0  0  0  # atno 10764 bound_to 10752
  153.1219  135.6784  153.9423 H   0  0  0  0  0  0  0  0  0  0  0  0  # atno 10765 bound_to 10752
  141.0280  134.0025  157.3186 H   0  0  0  0  0  0  0  0  0  0  0  0  # atno 11005 bound_to 11000
  144.8194  140.6525  143.6362 LP  0  0  0  0  0  0  0  0  0  0  0  0  # atno 17320 bound_to 7965
  145.4284  139.1553  143.4035 LP  0  0  0  0  0  0  0  0  0  0  0  0  # atno 17321 bound_to 7965
  139.7204  143.9232  152.2983 LP  0  0  0  0  0  0  0  0  0  0  0  0  # atno 17342 bound_to 10162
  139.8987  144.6924  150.8689 LP  0  0  0  0  0  0  0  0  0  0  0  0  # atno 17343 bound_to 10162
  156.0475  130.5550  150.8915 LP  0  0  0  0  0  0  0  0  0  0  0  0  # atno 17370 bound_to 10713
  157.5886  131.0945  150.9155 LP  0  0  0  0  0  0  0  0  0  0  0  0  # atno 17371 bound_to 10713
  139.9189  135.0199  156.7987 LP  0  0  0  0  0  0  0  0  0  0  0  0  # atno 17394 bound_to 11000
  140.6457  133.9777  155.7730 LP  0  0  0  0  0  0  0  0  0  0  0  0  # atno 17395 bound_to 11000

$$$$
