AV-unprocessed.smi:2505|AV-procd|sdf|9856|dock10
  -GOLD-   2272013483D 1   1.00000     0.00000
 Structure written by MMmdl.
 48 52  0  0  0  0  0  0  0  0  1 V2000
  148.4276  135.6250  156.1732 O   0  0  0  0  0  0  0  0  0  0  0  0
  148.7526  135.7637  154.9968 C   0  0  0  0  0  0  0  0  0  0  0  0
  149.3441  136.8582  154.4814 N   0  0  0  0  0  0  0  0  0  0  0  0
  149.7326  138.0636  155.1246 C   0  0  0  0  0  0  0  0  0  0  0  0
  150.3155  139.0820  154.3417 C   0  0  0  0  0  0  0  0  0  0  0  0
  150.7213  140.2536  154.8748 N   0  0  0  0  0  0  0  0  0  0  0  0
  150.5372  140.4133  156.1878 C   0  0  0  0  0  0  0  0  0  0  0  0
  151.0252  141.6978  156.7827 C   0  0  0  0  0  0  0  0  0  0  0  0
  151.1549  141.8592  158.2836 C   0  0  0  0  0  0  0  0  0  0  0  0
  150.0814  142.6070  157.5430 C   0  0  0  0  0  0  0  0  0  0  0  0
  150.0122  139.5215  157.0323 N   0  0  0  0  0  0  0  0  0  0  0  0
  149.6034  138.3456  156.5076 C   0  0  0  0  0  0  0  0  0  0  0  0
  148.5206  134.7965  154.0923 N   0  0  0  0  0  0  0  0  0  0  0  0
  147.8974  133.4916  154.3233 C   0  0  1  0  0  0  0  0  0  0  0  0
  148.0477  132.5576  153.1113 C   0  0  2  0  0  0  0  0  0  0  0  0
  146.8277  132.1239  152.3444 C   0  0  0  0  0  0  0  0  0  0  0  0
  146.4985  130.7653  152.9687 C   0  0  0  0  0  0  0  0  0  0  0  0
  147.1177  130.8010  154.2524 O   0  0  0  0  0  0  0  0  0  0  0  0
  148.3767  131.4531  154.1037 C   0  0  2  0  0  0  0  0  0  0  0  0
  148.7423  132.5076  155.1699 C   0  0  0  0  0  0  0  0  0  0  0  0
  150.2410  132.7617  155.3551 C   0  0  0  0  0  0  0  0  0  0  0  0
  150.7202  131.7921  156.4373 C   0  0  0  0  0  0  0  0  0  0  0  0
  149.4790  131.4685  157.2753 C   0  0  0  0  0  0  0  0  0  0  0  0
  148.3195  132.2150  156.6075 C   0  0  0  0  0  0  0  0  0  0  0  0
  149.5270  136.8244  153.4890 H   0  0  0  0  0  0  0  0  0  0  0  0
  150.4610  138.9561  153.2787 H   0  0  0  0  0  0  0  0  0  0  0  0
  151.7822  142.1626  156.1539 H   0  0  0  0  0  0  0  0  0  0  0  0
  150.8428  141.0277  158.9127 H   0  0  0  0  0  0  0  0  0  0  0  0
  152.0026  142.4313  158.6545 H   0  0  0  0  0  0  0  0  0  0  0  0
  150.2099  143.6800  157.4168 H   0  0  0  0  0  0  0  0  0  0  0  0
  149.0545  142.2736  157.6803 H   0  0  0  0  0  0  0  0  0  0  0  0
  149.1872  137.6483  157.2166 H   0  0  0  0  0  0  0  0  0  0  0  0
  148.8005  134.9900  153.1414 H   0  0  0  0  0  0  0  0  0  0  0  0
  146.8600  133.5422  154.6620 H   0  0  0  0  0  0  0  0  0  0  0  0
  148.9119  132.8062  152.4923 H   0  0  0  0  0  0  0  0  0  0  0  0
  146.0067  132.8265  152.4895 H   0  0  0  0  0  0  0  0  0  0  0  0
  147.0113  132.0399  151.2730 H   0  0  0  0  0  0  0  0  0  0  0  0
  145.4261  130.5846  153.0445 H   0  0  0  0  0  0  0  0  0  0  0  0
  146.9410  129.9577  152.3835 H   0  0  0  0  0  0  0  0  0  0  0  0
  149.1800  130.7877  153.7833 H   0  0  0  0  0  0  0  0  0  0  0  0
  150.8057  132.6406  154.4301 H   0  0  0  0  0  0  0  0  0  0  0  0
  150.4166  133.7806  155.7022 H   0  0  0  0  0  0  0  0  0  0  0  0
  151.1044  130.8797  155.9796 H   0  0  0  0  0  0  0  0  0  0  0  0
  151.5226  132.2225  157.0374 H   0  0  0  0  0  0  0  0  0  0  0  0
  149.2953  130.3934  157.2656 H   0  0  0  0  0  0  0  0  0  0  0  0
  149.5987  131.7718  158.3160 H   0  0  0  0  0  0  0  0  0  0  0  0
  148.1424  133.1498  157.1400 H   0  0  0  0  0  0  0  0  0  0  0  0
  147.3927  131.6442  156.6682 H   0  0  0  0  0  0  0  0  0  0  0  0
  1  2  2  0  0  0  0
  2  3  1  0  0  0  0
  2 13  1  0  0  0  0
  3  4  1  0  0  0  0
  3 25  1  0  0  0  0
  4 12  1  0  0  0  0
  4  5  2  0  0  0  0
  5  6  1  0  0  0  0
  5 26  1  0  0  0  0
  6  7  2  0  0  0  0
  7  8  1  0  0  0  0
  7 11  1  0  0  0  0
  8 10  1  0  0  0  0
  8  9  1  0  0  0  0
  8 27  1  0  0  0  0
  9 10  1  0  0  0  0
  9 28  1  0  0  0  0
  9 29  1  0  0  0  0
 10 30  1  0  0  0  0
 10 31  1  0  0  0  0
 11 12  2  0  0  0  0
 12 32  1  0  0  0  0
 13 14  1  0  0  0  0
 13 33  1  0  0  0  0
 14 20  1  0  0  0  0
 14 15  1  0  0  0  0
 14 34  1  0  0  0  0
 15 19  1  0  0  0  0
 15 16  1  0  0  0  0
 15 35  1  0  0  0  0
 16 17  1  0  0  0  0
 16 36  1  0  0  0  0
 16 37  1  0  0  0  0
 17 18  1  0  0  0  0
 17 38  1  0  0  0  0
 17 39  1  0  0  0  0
 18 19  1  0  0  0  0
 19 20  1  0  0  0  0
 19 40  1  0  0  0  0
 20 24  1  0  0  0  0
 20 21  1  0  0  0  0
 21 22  1  0  0  0  0
 21 41  1  0  0  0  0
 21 42  1  0  0  0  0
 22 23  1  0  0  0  0
 22 43  1  0  0  0  0
 22 44  1  0  0  0  0
 23 24  1  0  0  0  0
 23 45  1  0  0  0  0
 23 46  1  0  0  0  0
 24 47  1  0  0  0  0
 24 48  1  0  0  0  0
M  END
> <s_m_source_file>
AV-unprocessed.smi

> <i_m_source_file_index>
2505

> <i_lp_mmshare_version>
43012

> <i_f3d_flags>
0

> <s_epik_input>
W0NIMl0xW0NIMl1bQ0hdMWMobltjSF0yKW5bY0hdYzJbTkhdQyg9TylbTkhdW0NAQEhdM1tDQEBIXShbQ0gyXVtDSDJdTzQpW0NASF00QzM1W0NIMl1bQ0gyXVtDSDJdW0NIMl01

> <s_epik_cmdline>
J2VwaWtfcHl0aG9uJywgJy1waCcsICc3LjAnLCAnLXRuJywgJzgnLCAnLW1hJywgJzIwMCcsICctbWV0YWxfYmluZGluZycsICctaW1hZScsICc8aW5maWxlLm1hZT4nLCAnLW9tYWUnLCAnPG91dGZpbGUubWFlPic=

> <r_lp_tautomer_probability>
1

> <r_epik_Ionization_Penalty>
2.6075e-05

> <r_epik_Ionization_Penalty_Charging>
0

> <r_epik_Ionization_Penalty_Neutral>
2.6075e-05

> <r_epik_State_Penalty>
-0

> <r_epik_Charging_Adjusted_Penalty>
0

> <i_epik_Tot_Q>
0

> <i_epik_Tot_abs_Q>
0

> <r_epik_Metal_State_Penalty>
-0

> <b_epik_Metal_Only>
0

> <s_lp_Force_Field>
OPLS_2005

> <r_lp_Energy>
62.9039

> <b_lp_Chiralities_Consistent>
1

> <s_lp_Variant>
AV-unprocessed.smi:2505-4

> <Gold.Version>
5.8.1

> <Gold.Id.Protein>
6NUR|6NUR_protein|mol2

> <Gold.PLP.Fitness>
43.2374

> <Gold.PLP.PLP>
-31.4094

> <Gold.PLP.part.hbond>
-3.0000

> <Gold.PLP.part.metal>
0.0000

> <Gold.PLP.part.buried>
-4.5529

> <Gold.PLP.part.nonpolar>
-24.4842

> <Gold.PLP.part.repulsive>
0.1975

> <Gold.PLP.ligand.clash>
0.0000

> <Gold.PLP.ligand.torsion>
0.2370

> <Gold.PLP.Chemscore.Hbond>
3.0000

> <Gold.PLP.Chemscore.CHOScore>
1.0000

> <Gold.PLP.Chemscore.Metal>
0.0000

> <Gold.Chemscore.Hbonds>
donor molecule, donor type, donor heavy atom, donor atom, acceptor molecule, acceptor atom, score
      L1  H     3    25       P1  7948  0.96
      L1  H    13    33       P1  7948  0.96
      P1  H  7989  7998       L1     6  0.95
      L1  C     5    26       P1  7957  1.00

> <Gold.PLP.Chemscore.Internal.Correction>
0.3019

> <Gold.Rescore>
     Score         DG    S(hbond)    S(metal)    S(lipo)     H(rot)  DE(clash)    DE(int)     intcor
     19.04     -20.43       2.54        0.00      81.08       1.17       0.07       1.32       ----

> <Gold.Chemscore.Fitness>
19.0398

> <Gold.Chemscore.DG>
-20.4348

> <Gold.Chemscore.ZeroCoef>
-5.4800

> <Gold.Chemscore.Hbond>
2.5373

> <Gold.Chemscore.Metal>
0.0000

> <Gold.Chemscore.Lipo>
81.0841

> <Gold.Chemscore.Internal_Hbond>
0.0000

> <Gold.Chemscore.DEClash>
0.0736

> <Gold.Chemscore.DEInternal>
1.3214

> <Gold.Chemscore.Rot>
1.1744

> <Gold.Chemscore.Internal.Correction>
   9.000000E+99

> <Gold.Chemscore.Hbonds>
donor molecule, donor type, donor heavy atom, donor atom, acceptor molecule, acceptor atom, score
      L1  H     3    25       P1  7948  0.72
      L1  H    13    33       P1  7948  0.37
      P1  H  7989  7998       L1     6  0.21

> <Gold.Chemscore.Hbond.Weighted>
-8.4744

> <Gold.Chemscore.Metal.Weighted>
-0.0000

> <Gold.Chemscore.Lipo.Weighted>
-9.4868

> <Gold.Chemscore.Internal_Hbond.Weighted>
0.0000

> <Gold.Chemscore.DEClash.Weighted>
0.0736

> <Gold.Chemscore.DEInternal.Weighted>
1.3214

> <Gold.Chemscore.Rot.Weighted>
3.0064

> <Gold.Chemscore.Internal.Correction.Weighted>
   9.000000E+99

> <Gold.Protein.RotatedTorsions>
[ 6907 6896 6895 6894 ] final   -2.81 input  -60.11 | X-H torsion
[ 7974 7965 7964 7962 ] final  -17.07 input  175.53 | X-H torsion
[ 8008 7997 7996 7995 ] final -102.70 input   59.86 | X-H torsion
[ 10167 10162 10161 10158 ] final  110.75 input  -65.29 | X-H torsion
[ 10718 10713 10712 10709 ] final  142.17 input   66.30 | X-H torsion
[ 10763 10752 10751 10750 ] final  -48.77 input  -60.55 | X-H torsion
[ 11005 11000 10999 10996 ] final  137.93 input  -57.11 | X-H torsion

> <Gold.Protein.ActiveResidues>
 VAL166  LYS551  ARG553  GLY616  TRP617  ASP618  TYR619  PRO620  LYS621  CYS622 
 ASP623  PHE694  ASN695  SER759  ASP760  ASP761  ALA762  ILE779  LEU786  VAL792 
 PHE793  MET794  SER795  GLU796  ALA797  LYS798  CYS799  TRP800  GLU811  SER814 

> <Gold.Protein.RotatedAtoms>
  151.5239  135.1067  159.9885 H   0  0  0  0  0  0  0  0  0  0  0  0  # atno 6907 bound_to 6896
  152.4608  133.7815  159.6864 H   0  0  0  0  0  0  0  0  0  0  0  0  # atno 6908 bound_to 6896
  150.8570  133.7635  159.3030 H   0  0  0  0  0  0  0  0  0  0  0  0  # atno 6909 bound_to 6896
  146.1958  140.3726  142.8441 H   0  0  0  0  0  0  0  0  0  0  0  0  # atno 7974 bound_to 7965
  154.8604  140.0427  157.1661 H   0  0  0  0  0  0  0  0  0  0  0  0  # atno 8008 bound_to 7997
  154.8847  140.2977  155.5384 H   0  0  0  0  0  0  0  0  0  0  0  0  # atno 8009 bound_to 7997
  156.2998  140.2405  156.3854 H   0  0  0  0  0  0  0  0  0  0  0  0  # atno 8010 bound_to 7997
  139.6664  144.7127  151.1768 H   0  0  0  0  0  0  0  0  0  0  0  0  # atno 10167 bound_to 10162
  157.3836  131.0995  151.0714 H   0  0  0  0  0  0  0  0  0  0  0  0  # atno 10718 bound_to 10713
  154.0832  135.6588  153.4841 H   0  0  0  0  0  0  0  0  0  0  0  0  # atno 10763 bound_to 10752
  153.0348  135.5185  154.7454 H   0  0  0  0  0  0  0  0  0  0  0  0  # atno 10764 bound_to 10752
  154.6555  135.3007  154.9901 H   0  0  0  0  0  0  0  0  0  0  0  0  # atno 10765 bound_to 10752
  140.0148  134.9423  157.0354 H   0  0  0  0  0  0  0  0  0  0  0  0  # atno 11005 bound_to 11000
  144.8578  140.7096  143.6126 LP  0  0  0  0  0  0  0  0  0  0  0  0  # atno 17320 bound_to 7965
  145.3647  139.1673  143.4364 LP  0  0  0  0  0  0  0  0  0  0  0  0  # atno 17321 bound_to 7965
  140.7601  143.5912  150.8794 LP  0  0  0  0  0  0  0  0  0  0  0  0  # atno 17342 bound_to 10162
  139.9574  143.6203  152.3012 LP  0  0  0  0  0  0  0  0  0  0  0  0  # atno 17343 bound_to 10162
  157.1774  130.6294  149.5660 LP  0  0  0  0  0  0  0  0  0  0  0  0  # atno 17370 bound_to 10713
  155.9781  130.4765  150.6638 LP  0  0  0  0  0  0  0  0  0  0  0  0  # atno 17371 bound_to 10713
  140.4490  134.1602  155.7180 LP  0  0  0  0  0  0  0  0  0  0  0  0  # atno 17394 bound_to 11000
  141.1736  133.8560  157.1494 LP  0  0  0  0  0  0  0  0  0  0  0  0  # atno 17395 bound_to 11000

$$$$
