AV-unprocessed.smi:243|AV-procd|sdf|1849|dock9
  -GOLD-   2262020473D 1   1.00000     0.00000
 Structure written by MMmdl.
 58 61  0  0  0  0  0  0  0  0  2 V2000
  151.7633  142.0256  158.5001 C   0  0  0  0  0  0  0  0  0  0  0  0
  150.9821  142.9430  157.5480 C   0  0  0  0  0  0  0  0  0  0  0  0
  150.0339  142.1966  156.6821 N   0  3  1  0  0  0  0  0  0  0  0  0
  150.7389  141.3068  155.7246 C   0  0  0  0  0  0  0  0  0  0  0  0
  149.7638  140.6120  154.7537 C   0  0  0  0  0  0  0  0  0  0  0  0
  148.5570  139.9326  155.4346 C   0  0  1  0  0  0  0  0  0  0  0  0
  148.8263  138.5546  155.8855 N   0  0  0  0  0  0  0  0  0  0  0  0
  149.6855  138.2132  157.0159 C   0  0  0  0  0  0  0  0  0  0  0  0
  148.0700  137.5539  155.3653 C   0  0  0  0  0  0  0  0  0  0  0  0
  148.2554  136.2925  155.8354 N   0  0  0  0  0  0  0  0  0  0  0  0
  147.5258  135.2800  155.3581 C   0  0  0  0  0  0  0  0  0  0  0  0
  146.5745  135.3056  154.4234 N   0  0  0  0  0  0  0  0  0  0  0  0
  146.3875  136.5673  153.9410 C   0  0  0  0  0  0  0  0  0  0  0  0
  147.0817  137.7397  154.3550 C   0  0  0  0  0  0  0  0  0  0  0  0
  146.6213  138.8371  153.6354 N   0  0  0  0  0  0  0  0  0  0  0  0
  145.7008  138.3445  152.8532 C   0  0  0  0  0  0  0  0  0  0  0  0
  145.5038  136.9868  152.9616 N   0  0  0  0  0  0  0  0  0  0  0  0
  144.5514  136.1834  152.2115 C   0  0  0  0  0  0  0  0  0  0  0  0
  145.0801  135.7017  150.8363 C   0  0  1  0  0  0  0  0  0  0  0  0
  145.6689  136.7854  150.1430 O   0  0  0  0  0  0  0  0  0  0  0  0
  146.0929  134.5767  150.9756 C   0  0  0  0  0  0  0  0  0  0  0  0
  145.2135  133.3298  151.0542 C   0  0  0  0  0  0  0  0  0  0  0  0
  143.9996  133.6576  150.3833 O   0  0  0  0  0  0  0  0  0  0  0  0
  144.0266  135.0156  149.9581 C   0  0  0  0  0  0  0  0  0  0  0  0
  147.9327  140.8588  156.5065 C   0  0  1  0  0  0  0  0  0  0  0  0
  146.7604  140.2147  157.2667 C   0  0  0  0  0  0  0  0  0  0  0  0
  148.9898  141.4672  157.4487 C   0  0  0  0  0  0  0  0  0  0  0  0
  152.3688  142.6164  159.1878 H   0  0  0  0  0  0  0  0  0  0  0  0
  152.4415  141.3602  157.9668 H   0  0  0  0  0  0  0  0  0  0  0  0
  151.0891  141.4126  159.0990 H   0  0  0  0  0  0  0  0  0  0  0  0
  150.4250  143.6539  158.1599 H   0  0  0  0  0  0  0  0  0  0  0  0
  151.6647  143.5338  156.9352 H   0  0  0  0  0  0  0  0  0  0  0  0
  151.4421  141.8988  155.1378 H   0  0  0  0  0  0  0  0  0  0  0  0
  151.3437  140.5860  156.2702 H   0  0  0  0  0  0  0  0  0  0  0  0
  149.3782  141.3734  154.0744 H   0  0  0  0  0  0  0  0  0  0  0  0
  150.2966  139.8990  154.1233 H   0  0  0  0  0  0  0  0  0  0  0  0
  147.7941  139.8653  154.6583 H   0  0  0  0  0  0  0  0  0  0  0  0
  149.9559  137.1566  156.9967 H   0  0  0  0  0  0  0  0  0  0  0  0
  149.1805  138.4111  157.9609 H   0  0  0  0  0  0  0  0  0  0  0  0
  150.6176  138.7687  157.0004 H   0  0  0  0  0  0  0  0  0  0  0  0
  147.7337  134.3102  155.7859 H   0  0  0  0  0  0  0  0  0  0  0  0
  145.1418  138.9610  152.1642 H   0  0  0  0  0  0  0  0  0  0  0  0
  144.2716  135.3270  152.8263 H   0  0  0  0  0  0  0  0  0  0  0  0
  143.6429  136.7732  152.0842 H   0  0  0  0  0  0  0  0  0  0  0  0
  144.9808  137.3032  149.7541 H   0  0  0  0  0  0  0  0  0  0  0  0
  146.7170  134.5139  150.0825 H   0  0  0  0  0  0  0  0  0  0  0  0
  146.7555  134.6885  151.8345 H   0  0  0  0  0  0  0  0  0  0  0  0
  145.6929  132.4613  150.6019 H   0  0  0  0  0  0  0  0  0  0  0  0
  144.9825  133.0842  152.0911 H   0  0  0  0  0  0  0  0  0  0  0  0
  143.0400  135.4741  149.9993 H   0  0  0  0  0  0  0  0  0  0  0  0
  144.3407  135.0217  148.9131 H   0  0  0  0  0  0  0  0  0  0  0  0
  147.5028  141.7007  155.9606 H   0  0  0  0  0  0  0  0  0  0  0  0
  147.0917  139.3996  157.9094 H   0  0  0  0  0  0  0  0  0  0  0  0
  146.0190  139.8126  156.5756 H   0  0  0  0  0  0  0  0  0  0  0  0
  146.2563  140.9452  157.8998 H   0  0  0  0  0  0  0  0  0  0  0  0
  149.4540  140.7039  158.0719 H   0  0  0  0  0  0  0  0  0  0  0  0
  148.4885  142.1540  158.1294 H   0  0  0  0  0  0  0  0  0  0  0  0
  149.5555  142.8872  156.1214 H   0  0  0  0  0  0  0  0  0  0  0  0
  1  2  1  0  0  0  0
  1 28  1  0  0  0  0
  1 29  1  0  0  0  0
  1 30  1  0  0  0  0
  2  3  1  0  0  0  0
  2 31  1  0  0  0  0
  2 32  1  0  0  0  0
  3 27  1  0  0  0  0
  3  4  1  0  0  0  0
  3 58  1  0  0  0  0
  4  5  1  0  0  0  0
  4 33  1  0  0  0  0
  4 34  1  0  0  0  0
  5  6  1  0  0  0  0
  5 35  1  0  0  0  0
  5 36  1  0  0  0  0
  6  7  1  0  0  0  0
  6 25  1  0  0  0  0
  6 37  1  0  0  0  0
  7  8  1  0  0  0  0
  7  9  1  0  0  0  0
  8 38  1  0  0  0  0
  8 39  1  0  0  0  0
  8 40  1  0  0  0  0
  9 14  1  0  0  0  0
  9 10  2  0  0  0  0
 10 11  1  0  0  0  0
 11 12  2  0  0  0  0
 11 41  1  0  0  0  0
 12 13  1  0  0  0  0
 13 17  1  0  0  0  0
 13 14  2  0  0  0  0
 14 15  1  0  0  0  0
 15 16  2  0  0  0  0
 16 17  1  0  0  0  0
 16 42  1  0  0  0  0
 17 18  1  0  0  0  0
 18 19  1  0  0  0  0
 18 43  1  0  0  0  0
 18 44  1  0  0  0  0
 19 24  1  0  0  0  0
 19 20  1  0  0  0  0
 19 21  1  0  0  0  0
 20 45  1  0  0  0  0
 21 22  1  0  0  0  0
 21 46  1  0  0  0  0
 21 47  1  0  0  0  0
 22 23  1  0  0  0  0
 22 48  1  0  0  0  0
 22 49  1  0  0  0  0
 23 24  1  0  0  0  0
 24 50  1  0  0  0  0
 24 51  1  0  0  0  0
 25 26  1  0  0  0  0
 25 27  1  0  0  0  0
 25 52  1  0  0  0  0
 26 53  1  0  0  0  0
 26 54  1  0  0  0  0
 26 55  1  0  0  0  0
 27 56  1  0  0  0  0
 27 57  1  0  0  0  0
M  CHG  1   3   1
M  END
> <s_m_source_file>
AV-unprocessed.smi

> <i_m_source_file_index>
243

> <i_lp_mmshare_version>
43012

> <i_f3d_flags>
0

> <s_epik_input>
W0NIM11bQ0gyXU4xW0NIMl1bQ0gyXVtDQEhdKFtDQEBIXShbQ0gzXSlbQ0gyXTEpTihbQ0gzXSljKG5bY0hdbjIpYyhjMjMpbltjSF1uM1tDSDJdW0NAQF00KFtPSF0pW0NIMl1bQ0gyXU9bQ0gyXTQ=

> <s_epik_cmdline>
J2VwaWtfcHl0aG9uJywgJy1waCcsICc3LjAnLCAnLXRuJywgJzgnLCAnLW1hJywgJzIwMCcsICctbWV0YWxfYmluZGluZycsICctaW1hZScsICc8aW5maWxlLm1hZT4nLCAnLW9tYWUnLCAnPG91dGZpbGUubWFlPic=

> <r_lp_tautomer_probability>
1

> <r_epik_Ionization_Penalty>
0.00253099

> <r_epik_Ionization_Penalty_Charging>
0.00137877

> <r_epik_Ionization_Penalty_Neutral>
0.00115221

> <r_epik_State_Penalty>
-0

> <r_epik_Charging_Adjusted_Penalty>
0.00137877

> <i_epik_Tot_Q>
1

> <i_epik_Tot_abs_Q>
1

> <r_epik_Metal_State_Penalty>
-0

> <b_epik_Metal_Only>
0

> <s_lp_Force_Field>
OPLS_2005

> <r_lp_Energy>
52.4655

> <b_lp_Chiralities_Consistent>
1

> <s_lp_Variant>
AV-unprocessed.smi:243-2

> <Gold.Version>
5.8.1

> <Gold.Id.Protein>
6NUR|6NUR_protein|mol2

> <Gold.PLP.Fitness>
41.1917

> <Gold.PLP.PLP>
-28.5870

> <Gold.PLP.part.hbond>
-2.4821

> <Gold.PLP.part.metal>
0.0000

> <Gold.PLP.part.buried>
-2.7836

> <Gold.PLP.part.nonpolar>
-24.2069

> <Gold.PLP.part.repulsive>
0.4940

> <Gold.PLP.ligand.clash>
0.0000

> <Gold.PLP.ligand.torsion>
0.5781

> <Gold.PLP.Chemscore.Hbond>
3.0000

> <Gold.PLP.Chemscore.CHOScore>
1.4909

> <Gold.PLP.Chemscore.Metal>
0.0000

> <Gold.Chemscore.Hbonds>
donor molecule, donor type, donor heavy atom, donor atom, acceptor molecule, acceptor atom, score
      L1  H     3    58       P1  8028  2.00
      L1  H    20    45       P1 10171  1.00
      L1  C    16    42       P1 10171  0.61
      L1  C    16    42       P1 10175  1.00

> <Gold.PLP.Chemscore.Internal.Correction>
0.2884

> <Gold.Rescore>
     Score         DG    S(hbond)    S(metal)    S(lipo)     H(rot)  DE(clash)    DE(int)     intcor
     12.93     -14.96       1.97        0.00      73.66       2.24       0.02       2.01       ----

> <Gold.Chemscore.Fitness>
12.9278

> <Gold.Chemscore.DG>
-14.9594

> <Gold.Chemscore.ZeroCoef>
-5.4800

> <Gold.Chemscore.Hbond>
1.9732

> <Gold.Chemscore.Metal>
0.0000

> <Gold.Chemscore.Lipo>
73.6576

> <Gold.Chemscore.Internal_Hbond>
0.0000

> <Gold.Chemscore.DEClash>
0.0247

> <Gold.Chemscore.DEInternal>
2.0069

> <Gold.Chemscore.Rot>
2.2379

> <Gold.Chemscore.Internal.Correction>
   9.000000E+99

> <Gold.Chemscore.Hbonds>
donor molecule, donor type, donor heavy atom, donor atom, acceptor molecule, acceptor atom, score
      L1  H     3    58       P1  8028  0.95
      L1  H    20    45       P1 10171  0.97

> <Gold.Chemscore.Hbond.Weighted>
-6.5905

> <Gold.Chemscore.Metal.Weighted>
-0.0000

> <Gold.Chemscore.Lipo.Weighted>
-8.6179

> <Gold.Chemscore.Internal_Hbond.Weighted>
0.0000

> <Gold.Chemscore.DEClash.Weighted>
0.0247

> <Gold.Chemscore.DEInternal.Weighted>
2.0069

> <Gold.Chemscore.Rot.Weighted>
5.7291

> <Gold.Chemscore.Internal.Correction.Weighted>
   9.000000E+99

> <Gold.Protein.RotatedTorsions>
[ 6907 6896 6895 6894 ] final   89.05 input  -60.11 | X-H torsion
[ 7974 7965 7964 7962 ] final   28.90 input  175.53 | X-H torsion
[ 8008 7997 7996 7995 ] final   -2.46 input   59.86 | X-H torsion
[ 10167 10162 10161 10158 ] final -164.99 input  -65.29 | X-H torsion
[ 10718 10713 10712 10709 ] final -126.27 input   66.30 | X-H torsion
[ 10763 10752 10751 10750 ] final  -12.75 input  -60.55 | X-H torsion
[ 11005 11000 10999 10996 ] final  148.17 input  -57.11 | X-H torsion

> <Gold.Protein.ActiveResidues>
 VAL166  LYS551  ARG553  GLY616  TRP617  ASP618  TYR619  PRO620  LYS621  CYS622 
 ASP623  PHE694  ASN695  SER759  ASP760  ASP761  ALA762  ILE779  LEU786  VAL792 
 PHE793  MET794  SER795  GLU796  ALA797  LYS798  CYS799  TRP800  GLU811  SER814 

> <Gold.Protein.RotatedAtoms>
  152.5432  134.2026  159.8718 H   0  0  0  0  0  0  0  0  0  0  0  0  # atno 6907 bound_to 6896
  151.2014  133.4602  159.2604 H   0  0  0  0  0  0  0  0  0  0  0  0  # atno 6908 bound_to 6896
  151.0985  134.9971  159.8493 H   0  0  0  0  0  0  0  0  0  0  0  0  # atno 6909 bound_to 6896
  146.1703  139.6994  142.8972 H   0  0  0  0  0  0  0  0  0  0  0  0  # atno 7974 bound_to 7965
  154.6355  140.2534  155.7383 H   0  0  0  0  0  0  0  0  0  0  0  0  # atno 8008 bound_to 7997
  156.2502  140.2898  156.0646 H   0  0  0  0  0  0  0  0  0  0  0  0  # atno 8009 bound_to 7997
  155.1678  140.0386  157.2846 H   0  0  0  0  0  0  0  0  0  0  0  0  # atno 8010 bound_to 7997
  139.6213  144.0620  152.1935 H   0  0  0  0  0  0  0  0  0  0  0  0  # atno 10167 bound_to 10162
  156.1750  130.6693  151.0230 H   0  0  0  0  0  0  0  0  0  0  0  0  # atno 10718 bound_to 10713
  153.5032  135.7017  153.5821 H   0  0  0  0  0  0  0  0  0  0  0  0  # atno 10763 bound_to 10752
  153.3943  135.3888  155.1945 H   0  0  0  0  0  0  0  0  0  0  0  0  # atno 10764 bound_to 10752
  154.8709  135.3866  154.4504 H   0  0  0  0  0  0  0  0  0  0  0  0  # atno 10765 bound_to 10752
  140.0937  134.9025  157.1690 H   0  0  0  0  0  0  0  0  0  0  0  0  # atno 11005 bound_to 11000
  145.4359  141.0419  143.2885 LP  0  0  0  0  0  0  0  0  0  0  0  0  # atno 17320 bound_to 7965
  144.8153  139.5889  143.7011 LP  0  0  0  0  0  0  0  0  0  0  0  0  # atno 17321 bound_to 7965
  140.0262  144.6115  150.7525 LP  0  0  0  0  0  0  0  0  0  0  0  0  # atno 17342 bound_to 10162
  140.7383  143.2777  151.3692 LP  0  0  0  0  0  0  0  0  0  0  0  0  # atno 17343 bound_to 10162
  157.6829  131.0833  150.7321 LP  0  0  0  0  0  0  0  0  0  0  0  0  # atno 17370 bound_to 10713
  156.7379  130.4730  149.5484 LP  0  0  0  0  0  0  0  0  0  0  0  0  # atno 17371 bound_to 10713
  140.3316  134.2803  155.7227 LP  0  0  0  0  0  0  0  0  0  0  0  0  # atno 17394 bound_to 11000
  141.2085  133.7774  157.0052 LP  0  0  0  0  0  0  0  0  0  0  0  0  # atno 17395 bound_to 11000

$$$$
