AV-unprocessed.smi:2365|AV-procd|sdf|9420|dock1
  -GOLD-   2272013 53D 1   1.00000     0.00000
 Structure written by MMmdl.
 29 30  0  0  0  0  0  0  0  0  1 V2000
  153.1056  138.5289  154.6510 C   0  0  0  0  0  0  0  0  0  0  0  0
  151.6040  138.8283  154.6022 C   0  0  1  0  0  0  0  0  0  0  0  0
  150.7919  138.1255  155.6840 C   0  0  0  0  0  0  0  0  0  0  0  0
  149.5295  138.9633  155.7141 C   0  0  0  0  0  0  0  0  0  0  0  0
  150.0205  140.3700  155.3258 C   0  0  1  0  0  0  0  0  0  0  0  0
  150.0429  141.3675  156.4901 C   0  0  0  0  0  0  0  0  0  0  0  0
  149.0171  141.9749  156.7975 O   0  0  0  0  0  0  0  0  0  0  0  0
  151.2298  141.5138  157.1066 N   0  0  0  0  0  0  0  0  0  0  0  0
  151.5606  142.3545  158.2057 C   0  0  0  0  0  0  0  0  0  0  0  0
  151.0658  143.6741  158.3537 C   0  0  0  0  0  0  0  0  0  0  0  0
  151.3600  144.4673  159.4055 N   0  0  0  0  0  0  0  0  0  0  0  0
  152.1632  143.9706  160.3684 C   0  0  0  0  0  0  0  0  0  0  0  0
  152.6983  142.6684  160.3342 C   0  0  0  0  0  0  0  0  0  0  0  0
  153.7090  142.1161  161.6222 Cl  0  0  0  0  0  0  0  0  0  0  0  0
  152.3870  141.8416  159.2328 C   0  0  0  0  0  0  0  0  0  0  0  0
  153.0131  140.2296  159.1423 Cl  0  0  0  0  0  0  0  0  0  0  0  0
  151.3594  140.2028  154.8619 O   0  0  0  0  0  0  0  0  0  0  0  0
  153.2987  137.4696  154.4814 H   0  0  0  0  0  0  0  0  0  0  0  0
  153.5312  138.7970  155.6185 H   0  0  0  0  0  0  0  0  0  0  0  0
  153.6392  139.0924  153.8855 H   0  0  0  0  0  0  0  0  0  0  0  0
  151.2023  138.5828  153.6175 H   0  0  0  0  0  0  0  0  0  0  0  0
  150.6022  137.0750  155.4623 H   0  0  0  0  0  0  0  0  0  0  0  0
  151.3022  138.1870  156.6465 H   0  0  0  0  0  0  0  0  0  0  0  0
  148.8253  138.6011  154.9640 H   0  0  0  0  0  0  0  0  0  0  0  0
  149.0269  138.9151  156.6811 H   0  0  0  0  0  0  0  0  0  0  0  0
  149.4070  140.7581  154.5109 H   0  0  0  0  0  0  0  0  0  0  0  0
  152.0049  141.0158  156.6930 H   0  0  0  0  0  0  0  0  0  0  0  0
  150.3972  144.1160  157.6315 H   0  0  0  0  0  0  0  0  0  0  0  0
  152.3805  144.6307  161.1950 H   0  0  0  0  0  0  0  0  0  0  0  0
  1  2  1  0  0  0  0
  1 18  1  0  0  0  0
  1 19  1  0  0  0  0
  1 20  1  0  0  0  0
  2 17  1  0  0  0  0
  2  3  1  0  0  0  0
  2 21  1  0  0  0  0
  3  4  1  0  0  0  0
  3 22  1  0  0  0  0
  3 23  1  0  0  0  0
  4  5  1  0  0  0  0
  4 24  1  0  0  0  0
  4 25  1  0  0  0  0
  5  6  1  0  0  0  0
  5 17  1  0  0  0  0
  5 26  1  0  0  0  0
  6  7  2  0  0  0  0
  6  8  1  0  0  0  0
  8  9  1  0  0  0  0
  8 27  1  0  0  0  0
  9 15  1  0  0  0  0
  9 10  2  0  0  0  0
 10 11  1  0  0  0  0
 10 28  1  0  0  0  0
 11 12  2  0  0  0  0
 12 13  1  0  0  0  0
 12 29  1  0  0  0  0
 13 14  1  0  0  0  0
 13 15  2  0  0  0  0
 15 16  1  0  0  0  0
M  END
> <s_m_source_file>
AV-unprocessed.smi

> <i_m_source_file_index>
2365

> <i_lp_mmshare_version>
43012

> <i_f3d_flags>
0

> <s_epik_input>
W0NIM11bQ0BASF0xW0NIMl1bQ0gyXVtDQEhdKE8xKUMoPU8pW05IXWMyW2NIXW5bY0hdYyhDbCljMkNs

> <s_epik_cmdline>
J2VwaWtfcHl0aG9uJywgJy1waCcsICc3LjAnLCAnLXRuJywgJzgnLCAnLW1hJywgJzIwMCcsICctbWV0YWxfYmluZGluZycsICctaW1hZScsICc8aW5maWxlLm1hZT4nLCAnLW9tYWUnLCAnPG91dGZpbGUubWFlPic=

> <r_lp_tautomer_probability>
1

> <r_epik_Ionization_Penalty>
7.32461e-06

> <r_epik_Ionization_Penalty_Charging>
0

> <r_epik_Ionization_Penalty_Neutral>
7.32461e-06

> <r_epik_State_Penalty>
-0

> <r_epik_Charging_Adjusted_Penalty>
0

> <i_epik_Tot_Q>
0

> <i_epik_Tot_abs_Q>
0

> <r_epik_Metal_State_Penalty>
-0

> <b_epik_Metal_Only>
0

> <s_lp_Force_Field>
OPLS_2005

> <r_lp_Energy>
23.8833

> <b_lp_Chiralities_Consistent>
1

> <s_lp_Variant>
AV-unprocessed.smi:2365-2

> <Gold.Version>
5.8.1

> <Gold.Id.Protein>
6NUR|6NUR_protein|mol2

> <Gold.PLP.Fitness>
37.8105

> <Gold.PLP.PLP>
-33.7378

> <Gold.PLP.part.hbond>
-0.9002

> <Gold.PLP.part.metal>
0.0000

> <Gold.PLP.part.buried>
-5.4197

> <Gold.PLP.part.nonpolar>
-28.4755

> <Gold.PLP.part.repulsive>
1.6249

> <Gold.PLP.ligand.clash>
0.0000

> <Gold.PLP.ligand.torsion>
0.9676

> <Gold.PLP.Chemscore.Hbond>
1.0000

> <Gold.PLP.Chemscore.CHOScore>
1.0000

> <Gold.PLP.Chemscore.Metal>
0.0000

> <Gold.Chemscore.Hbonds>
donor molecule, donor type, donor heavy atom, donor atom, acceptor molecule, acceptor atom, score
      P1  H  7989  7998       L1    17  1.00
      L1  C    10    28       P1  8028  1.00

> <Gold.PLP.Chemscore.Internal.Correction>
0.0080

> <Gold.Rescore>
     Score         DG    S(hbond)    S(metal)    S(lipo)     H(rot)  DE(clash)    DE(int)     intcor
     15.60     -17.34       0.80        0.00     100.57       1.00       0.01       1.73       ----

> <Gold.Chemscore.Fitness>
15.5955

> <Gold.Chemscore.DG>
-17.3433

> <Gold.Chemscore.ZeroCoef>
-5.4800

> <Gold.Chemscore.Hbond>
0.7953

> <Gold.Chemscore.Metal>
0.0000

> <Gold.Chemscore.Lipo>
100.5739

> <Gold.Chemscore.Internal_Hbond>
0.0000

> <Gold.Chemscore.DEClash>
0.0137

> <Gold.Chemscore.DEInternal>
1.7341

> <Gold.Chemscore.Rot>
1.0000

> <Gold.Chemscore.Internal.Correction>
   9.000000E+99

> <Gold.Chemscore.Hbonds>
donor molecule, donor type, donor heavy atom, donor atom, acceptor molecule, acceptor atom, score
      P1  H  7989  7998       L1    17  0.33

> <Gold.Chemscore.Hbond.Weighted>
-2.6561

> <Gold.Chemscore.Metal.Weighted>
-0.0000

> <Gold.Chemscore.Lipo.Weighted>
-11.7671

> <Gold.Chemscore.Internal_Hbond.Weighted>
0.0000

> <Gold.Chemscore.DEClash.Weighted>
0.0137

> <Gold.Chemscore.DEInternal.Weighted>
1.7341

> <Gold.Chemscore.Rot.Weighted>
2.5600

> <Gold.Chemscore.Internal.Correction.Weighted>
   9.000000E+99

> <Gold.Protein.RotatedTorsions>
[ 6907 6896 6895 6894 ] final  -59.50 input  -60.11 | X-H torsion
[ 7974 7965 7964 7962 ] final   77.37 input  175.53 | X-H torsion
[ 8008 7997 7996 7995 ] final  138.68 input   59.86 | X-H torsion
[ 10167 10162 10161 10158 ] final  -16.64 input  -65.29 | X-H torsion
[ 10718 10713 10712 10709 ] final   30.18 input   66.30 | X-H torsion
[ 10763 10752 10751 10750 ] final  -32.38 input  -60.55 | X-H torsion
[ 11005 11000 10999 10996 ] final   48.23 input  -57.11 | X-H torsion

> <Gold.Protein.ActiveResidues>
 VAL166  LYS551  ARG553  GLY616  TRP617  ASP618  TYR619  PRO620  LYS621  CYS622 
 ASP623  PHE694  ASN695  SER759  ASP760  ASP761  ALA762  ILE779  LEU786  VAL792 
 PHE793  MET794  SER795  GLU796  ALA797  LYS798  CYS799  TRP800  GLU811  SER814 

> <Gold.Protein.RotatedAtoms>
  150.7925  134.6960  159.6522 H   0  0  0  0  0  0  0  0  0  0  0  0  # atno 6907 bound_to 6896
  152.4033  134.6246  160.0069 H   0  0  0  0  0  0  0  0  0  0  0  0  # atno 6908 bound_to 6896
  151.6511  133.3284  159.3188 H   0  0  0  0  0  0  0  0  0  0  0  0  # atno 6909 bound_to 6896
  145.6908  139.2552  143.1760 H   0  0  0  0  0  0  0  0  0  0  0  0  # atno 7974 bound_to 7965
  156.2995  140.2387  156.4113 H   0  0  0  0  0  0  0  0  0  0  0  0  # atno 8008 bound_to 7997
  154.8438  140.0427  157.1579 H   0  0  0  0  0  0  0  0  0  0  0  0  # atno 8009 bound_to 7997
  154.9073  140.2985  155.5289 H   0  0  0  0  0  0  0  0  0  0  0  0  # atno 8010 bound_to 7997
  140.7236  143.5096  150.9767 H   0  0  0  0  0  0  0  0  0  0  0  0  # atno 10167 bound_to 10162
  157.2563  130.7139  149.6431 H   0  0  0  0  0  0  0  0  0  0  0  0  # atno 10718 bound_to 10713
  153.8128  135.6881  153.4838 H   0  0  0  0  0  0  0  0  0  0  0  0  # atno 10763 bound_to 10752
  153.1617  135.4577  154.9780 H   0  0  0  0  0  0  0  0  0  0  0  0  # atno 10764 bound_to 10752
  154.7960  135.3319  154.7607 H   0  0  0  0  0  0  0  0  0  0  0  0  # atno 10765 bound_to 10752
  140.1209  134.4831  155.8598 H   0  0  0  0  0  0  0  0  0  0  0  0  # atno 11005 bound_to 11000
  146.0883  140.7685  142.9608 LP  0  0  0  0  0  0  0  0  0  0  0  0  # atno 17320 bound_to 7965
  144.6997  140.3597  143.7166 LP  0  0  0  0  0  0  0  0  0  0  0  0  # atno 17321 bound_to 7965
  139.8809  143.7074  152.3157 LP  0  0  0  0  0  0  0  0  0  0  0  0  # atno 17342 bound_to 10162
  139.7355  144.7572  151.0734 LP  0  0  0  0  0  0  0  0  0  0  0  0  # atno 17343 bound_to 10162
  155.9665  130.4411  150.5329 LP  0  0  0  0  0  0  0  0  0  0  0  0  # atno 17370 bound_to 10713
  157.3224  131.0684  151.1922 LP  0  0  0  0  0  0  0  0  0  0  0  0  # atno 17371 bound_to 10713
  141.2151  133.6760  156.6886 LP  0  0  0  0  0  0  0  0  0  0  0  0  # atno 17394 bound_to 11000
  140.2967  134.8197  157.4063 LP  0  0  0  0  0  0  0  0  0  0  0  0  # atno 17395 bound_to 11000

$$$$
