AV-unprocessed.smi:367|AV-procd|sdf|2431|dock5
  -GOLD-   2262022373D 1   1.00000     0.00000
 Structure written by MMmdl.
 22 22  0  0  0  0  0  0  0  0  2 V2000
  150.7077  143.9151  158.3322 C   0  0  0  0  0  0  0  0  0  0  0  0
  150.7415  142.5712  157.6352 C   0  0  0  0  0  0  0  0  0  0  0  0
  151.2575  141.5047  158.1513 N   0  0  0  0  0  0  0  0  0  0  0  0
  151.2264  140.3150  157.4097 C   0  0  0  0  0  0  0  0  0  0  0  0
  151.8460  139.1043  158.0858 C   0  0  0  0  0  0  0  0  0  0  0  0
  150.6719  140.2624  156.1629 C   0  0  0  0  0  0  0  0  0  0  0  0
  150.6193  138.9798  155.3304 C   0  0  0  0  0  0  0  0  0  0  0  0
  151.9889  138.4146  154.9352 C   0  0  0  0  0  0  0  0  0  0  0  0
  152.9795  139.1398  155.1712 O   0  0  0  0  0  0  0  0  0  0  0  0
  152.0342  137.2821  154.4044 O   0  5  0  0  0  0  0  0  0  0  0  0
  150.0907  141.4881  155.5816 C   0  0  0  0  0  0  0  0  0  0  0  0
  149.5697  141.5561  154.4693 O   0  0  0  0  0  0  0  0  0  0  0  0
  150.1605  142.5852  156.3685 N   0  0  0  0  0  0  0  0  0  0  0  0
  149.7724  143.4478  156.0168 H   0  0  0  0  0  0  0  0  0  0  0  0
  150.1545  143.8382  159.2684 H   0  0  0  0  0  0  0  0  0  0  0  0
  150.2304  144.6777  157.7153 H   0  0  0  0  0  0  0  0  0  0  0  0
  151.7216  144.2451  158.5589 H   0  0  0  0  0  0  0  0  0  0  0  0
  152.7188  138.7613  157.5303 H   0  0  0  0  0  0  0  0  0  0  0  0
  151.1276  138.2863  158.1439 H   0  0  0  0  0  0  0  0  0  0  0  0
  152.1660  139.3381  159.1018 H   0  0  0  0  0  0  0  0  0  0  0  0
  150.0620  138.2024  155.8541 H   0  0  0  0  0  0  0  0  0  0  0  0
  150.0525  139.1699  154.4189 H   0  0  0  0  0  0  0  0  0  0  0  0
  1  2  1  0  0  0  0
  1 15  1  0  0  0  0
  1 16  1  0  0  0  0
  1 17  1  0  0  0  0
  2 13  1  0  0  0  0
  2  3  2  0  0  0  0
  3  4  1  0  0  0  0
  4  5  1  0  0  0  0
  4  6  2  0  0  0  0
  5 18  1  0  0  0  0
  5 19  1  0  0  0  0
  5 20  1  0  0  0  0
  6  7  1  0  0  0  0
  6 11  1  0  0  0  0
  7  8  1  0  0  0  0
  7 21  1  0  0  0  0
  7 22  1  0  0  0  0
  8  9  2  0  0  0  0
  8 10  1  0  0  0  0
 11 12  2  0  0  0  0
 11 13  1  0  0  0  0
 13 14  1  0  0  0  0
M  CHG  1  10  -1
M  END
> <s_m_source_file>
AV-unprocessed.smi

> <i_m_source_file_index>
367

> <i_lp_mmshare_version>
43012

> <i_f3d_flags>
0

> <s_epik_input>
W0NIM11jMW5jKFtDSDNdKWMoYyg9TylbbkhdMSlbQ0gyXUMoPU8pW09IXQ==

> <s_epik_cmdline>
J2VwaWtfcHl0aG9uJywgJy1waCcsICc3LjAnLCAnLXRuJywgJzgnLCAnLW1hJywgJzIwMCcsICctbWV0YWxfYmluZGluZycsICctaW1hZScsICc8aW5maWxlLm1hZT4nLCAnLW9tYWUnLCAnPG91dGZpbGUubWFlPic=

> <r_lp_tautomer_probability>
0.839158

> <r_epik_Ionization_Penalty>
0.000902249

> <r_epik_Ionization_Penalty_Charging>
0.000677242

> <r_epik_Ionization_Penalty_Neutral>
0.000225007

> <r_epik_State_Penalty>
0.09125

> <r_epik_Charging_Adjusted_Penalty>
0.0919273

> <i_epik_Tot_Q>
-1

> <i_epik_Tot_abs_Q>
1

> <r_epik_Metal_State_Penalty>
0.14165

> <b_epik_Metal_Only>
0

> <s_lp_Force_Field>
OPLS_2005

> <r_lp_Energy>
4.26247

> <b_lp_Chiralities_Consistent>
1

> <s_lp_Variant>
AV-unprocessed.smi:367-1

> <Gold.Version>
5.8.1

> <Gold.Id.Protein>
6NUR|6NUR_protein|mol2

> <Gold.PLP.Fitness>
39.9946

> <Gold.PLP.PLP>
-24.9776

> <Gold.PLP.part.hbond>
-5.5637

> <Gold.PLP.part.metal>
0.0000

> <Gold.PLP.part.buried>
-4.0521

> <Gold.PLP.part.nonpolar>
-16.7480

> <Gold.PLP.part.repulsive>
0.4762

> <Gold.PLP.ligand.clash>
0.0000

> <Gold.PLP.ligand.torsion>
0.0922

> <Gold.PLP.Chemscore.Hbond>
5.0671

> <Gold.PLP.Chemscore.CHOScore>
0.0000

> <Gold.PLP.Chemscore.Metal>
0.0000

> <Gold.Chemscore.Hbonds>
donor molecule, donor type, donor heavy atom, donor atom, acceptor molecule, acceptor atom, score
      L1  H    13    14       P1  8028  1.00
      P1  H  7989  7998       L1    12  0.03
      P1  H  7997  8008       L1     9  2.00
      P1  H  8011  8017       L1    12  0.16
      P1  H 10752 10764       L1    10  1.82

> <Gold.PLP.Chemscore.Internal.Correction>
0.0001

> <Gold.Rescore>
     Score         DG    S(hbond)    S(metal)    S(lipo)     H(rot)  DE(clash)    DE(int)     intcor
     15.35     -15.58       3.10        0.00      31.76       1.55       0.12       0.11       ----

> <Gold.Chemscore.Fitness>
15.3531

> <Gold.Chemscore.DG>
-15.5839

> <Gold.Chemscore.ZeroCoef>
-5.4800

> <Gold.Chemscore.Hbond>
3.0987

> <Gold.Chemscore.Metal>
0.0000

> <Gold.Chemscore.Lipo>
31.7640

> <Gold.Chemscore.Internal_Hbond>
0.0000

> <Gold.Chemscore.DEClash>
0.1172

> <Gold.Chemscore.DEInternal>
0.1136

> <Gold.Chemscore.Rot>
1.5477

> <Gold.Chemscore.Internal.Correction>
   9.000000E+99

> <Gold.Chemscore.Hbonds>
donor molecule, donor type, donor heavy atom, donor atom, acceptor molecule, acceptor atom, score
      L1  H    13    14       P1  8028  0.98
      P1  H  7997  8008       L1     9  0.98
      P1  H  8011  8017       L1    12  0.17
      P1  H 10752 10764       L1    10  0.88

> <Gold.Chemscore.Hbond.Weighted>
-10.3496

> <Gold.Chemscore.Metal.Weighted>
-0.0000

> <Gold.Chemscore.Lipo.Weighted>
-3.7164

> <Gold.Chemscore.Internal_Hbond.Weighted>
0.0000

> <Gold.Chemscore.DEClash.Weighted>
0.1172

> <Gold.Chemscore.DEInternal.Weighted>
0.1136

> <Gold.Chemscore.Rot.Weighted>
3.9621

> <Gold.Chemscore.Internal.Correction.Weighted>
   9.000000E+99

> <Gold.Protein.RotatedTorsions>
[ 6907 6896 6895 6894 ] final   -7.91 input  -60.11 | X-H torsion
[ 7974 7965 7964 7962 ] final   17.64 input  175.53 | X-H torsion
[ 8008 7997 7996 7995 ] final  -32.20 input   59.86 | X-H torsion
[ 10167 10162 10161 10158 ] final  141.59 input  -65.29 | X-H torsion
[ 10718 10713 10712 10709 ] final -138.19 input   66.30 | X-H torsion
[ 10763 10752 10751 10750 ] final  -83.41 input  -60.55 | X-H torsion
[ 11005 11000 10999 10996 ] final -121.99 input  -57.11 | X-H torsion

> <Gold.Protein.ActiveResidues>
 VAL166  LYS551  ARG553  GLY616  TRP617  ASP618  TYR619  PRO620  LYS621  CYS622 
 ASP623  PHE694  ASN695  SER759  ASP760  ASP761  ALA762  ILE779  LEU786  VAL792 
 PHE793  MET794  SER795  GLU796  ALA797  LYS798  CYS799  TRP800  GLU811  SER814 

> <Gold.Protein.RotatedAtoms>
  151.4421  135.1021  159.9672 H   0  0  0  0  0  0  0  0  0  0  0  0  # atno 6907 bound_to 6896
  152.4919  133.8519  159.7216 H   0  0  0  0  0  0  0  0  0  0  0  0  # atno 6908 bound_to 6896
  150.9081  133.6973  159.2889 H   0  0  0  0  0  0  0  0  0  0  0  0  # atno 6909 bound_to 6896
  146.2212  139.8573  142.8611 H   0  0  0  0  0  0  0  0  0  0  0  0  # atno 7974 bound_to 7965
  154.4188  140.1744  156.1689 H   0  0  0  0  0  0  0  0  0  0  0  0  # atno 8008 bound_to 7997
  155.9776  140.3380  155.6609 H   0  0  0  0  0  0  0  0  0  0  0  0  # atno 8009 bound_to 7997
  155.6542  140.0694  157.2567 H   0  0  0  0  0  0  0  0  0  0  0  0  # atno 8010 bound_to 7997
  139.5016  144.6161  151.6160 H   0  0  0  0  0  0  0  0  0  0  0  0  # atno 10167 bound_to 10162
  156.2965  130.7404  151.1445 H   0  0  0  0  0  0  0  0  0  0  0  0  # atno 10718 bound_to 10713
  154.5874  135.5557  153.7245 H   0  0  0  0  0  0  0  0  0  0  0  0  # atno 10763 bound_to 10752
  153.0104  135.6335  154.1897 H   0  0  0  0  0  0  0  0  0  0  0  0  # atno 10764 bound_to 10752
  154.1837  135.2886  155.3024 H   0  0  0  0  0  0  0  0  0  0  0  0  # atno 10765 bound_to 10752
  141.0029  134.0377  157.3515 H   0  0  0  0  0  0  0  0  0  0  0  0  # atno 11005 bound_to 11000
  145.2740  141.0118  143.3755 LP  0  0  0  0  0  0  0  0  0  0  0  0  # atno 17320 bound_to 7965
  144.9201  139.4422  143.6545 LP  0  0  0  0  0  0  0  0  0  0  0  0  # atno 17321 bound_to 7965
  140.5850  143.9880  150.6290 LP  0  0  0  0  0  0  0  0  0  0  0  0  # atno 17342 bound_to 10162
  140.3042  143.3240  152.0942 LP  0  0  0  0  0  0  0  0  0  0  0  0  # atno 17343 bound_to 10162
  157.7357  131.0570  150.5457 LP  0  0  0  0  0  0  0  0  0  0  0  0  # atno 17370 bound_to 10713
  156.5580  130.4248  149.6076 LP  0  0  0  0  0  0  0  0  0  0  0  0  # atno 17371 bound_to 10713
  139.9048  135.0176  156.7435 LP  0  0  0  0  0  0  0  0  0  0  0  0  # atno 17394 bound_to 11000
  140.6860  133.9432  155.7938 LP  0  0  0  0  0  0  0  0  0  0  0  0  # atno 17395 bound_to 11000

$$$$
