AV-unprocessed.smi:1885|AV-procd|sdf|7650|dock8
  -GOLD-   22720 9383D 1   1.00000     0.00000
 Structure written by MMmdl.
 43 45  0  0  0  0  0  0  0  0  1 V2000
  152.4435  143.1867  161.9005 C   0  0  0  0  0  0  0  0  0  0  0  0
  152.4050  143.9038  160.6752 O   0  0  0  0  0  0  0  0  0  0  0  0
  152.0083  143.2286  159.5408 C   0  0  0  0  0  0  0  0  0  0  0  0
  151.4075  143.8464  158.4151 C   0  0  0  0  0  0  0  0  0  0  0  0
  151.0309  143.0785  157.2960 C   0  0  0  0  0  0  0  0  0  0  0  0
  151.2535  141.6870  157.2781 C   0  0  0  0  0  0  0  0  0  0  0  0
  150.8259  140.8664  156.0755 C   0  0  0  0  0  0  0  0  0  0  0  0
  151.5760  139.6691  155.9508 O   0  0  0  0  0  0  0  0  0  0  0  0
  151.3433  138.9938  154.7261 C   0  0  0  0  0  0  0  0  0  0  0  0
  151.6972  137.5102  154.9033 C   0  0  2  0  0  0  0  0  0  0  0  0
  152.0581  136.9763  153.6447 O   0  0  0  0  0  0  0  0  0  0  0  0
  150.5348  136.6945  155.5020 C   0  0  0  0  0  0  0  0  0  0  0  0
  150.9322  135.3418  155.8476 N   0  0  0  0  0  0  0  0  0  0  0  0
  151.8216  134.9656  156.7868 C   0  0  0  0  0  0  0  0  0  0  0  0
  152.0339  133.6608  156.9360 N   0  0  0  0  0  0  0  0  0  0  0  0
  151.1828  133.1279  155.9829 C   0  0  0  0  0  0  0  0  0  0  0  0
  150.9294  131.7840  155.6266 C   0  0  0  0  0  0  0  0  0  0  0  0
  150.0041  131.4768  154.6071 C   0  0  0  0  0  0  0  0  0  0  0  0
  149.7731  130.1835  154.2784 F   0  0  0  0  0  0  0  0  0  0  0  0
  149.3197  132.5074  153.9290 C   0  0  0  0  0  0  0  0  0  0  0  0
  148.4332  132.2034  152.9516 F   0  0  0  0  0  0  0  0  0  0  0  0
  149.5560  133.8538  154.2662 C   0  0  0  0  0  0  0  0  0  0  0  0
  150.4794  134.1547  155.2840 C   0  0  0  0  0  0  0  0  0  0  0  0
  151.8426  141.0665  158.3987 C   0  0  0  0  0  0  0  0  0  0  0  0
  152.2182  141.8347  159.5173 C   0  0  0  0  0  0  0  0  0  0  0  0
  152.7706  143.8539  162.6977 H   0  0  0  0  0  0  0  0  0  0  0  0
  153.1500  142.3569  161.8549 H   0  0  0  0  0  0  0  0  0  0  0  0
  151.4572  142.8080  162.1719 H   0  0  0  0  0  0  0  0  0  0  0  0
  151.2224  144.9094  158.3860 H   0  0  0  0  0  0  0  0  0  0  0  0
  150.5699  143.5639  156.4484 H   0  0  0  0  0  0  0  0  0  0  0  0
  149.7653  140.6329  156.1807 H   0  0  0  0  0  0  0  0  0  0  0  0
  150.9412  141.4650  155.1703 H   0  0  0  0  0  0  0  0  0  0  0  0
  150.3022  139.1047  154.4179 H   0  0  0  0  0  0  0  0  0  0  0  0
  151.9666  139.4381  153.9480 H   0  0  0  0  0  0  0  0  0  0  0  0
  152.5702  137.4330  155.5530 H   0  0  0  0  0  0  0  0  0  0  0  0
  151.3454  137.1204  153.0413 H   0  0  0  0  0  0  0  0  0  0  0  0
  150.1613  137.1759  156.4066 H   0  0  0  0  0  0  0  0  0  0  0  0
  149.6960  136.6493  154.8057 H   0  0  0  0  0  0  0  0  0  0  0  0
  152.3406  135.6906  157.3968 H   0  0  0  0  0  0  0  0  0  0  0  0
  151.4469  130.9869  156.1390 H   0  0  0  0  0  0  0  0  0  0  0  0
  149.0338  134.6457  153.7501 H   0  0  0  0  0  0  0  0  0  0  0  0
  152.0098  139.9994  158.4077 H   0  0  0  0  0  0  0  0  0  0  0  0
  152.6710  141.3478  160.3687 H   0  0  0  0  0  0  0  0  0  0  0  0
  1  2  1  0  0  0  0
  1 26  1  0  0  0  0
  1 27  1  0  0  0  0
  1 28  1  0  0  0  0
  2  3  1  0  0  0  0
  3 25  1  0  0  0  0
  3  4  2  0  0  0  0
  4  5  1  0  0  0  0
  4 29  1  0  0  0  0
  5  6  2  0  0  0  0
  5 30  1  0  0  0  0
  6  7  1  0  0  0  0
  6 24  1  0  0  0  0
  7  8  1  0  0  0  0
  7 31  1  0  0  0  0
  7 32  1  0  0  0  0
  8  9  1  0  0  0  0
  9 10  1  0  0  0  0
  9 33  1  0  0  0  0
  9 34  1  0  0  0  0
 10 11  1  0  0  0  0
 10 12  1  0  0  0  0
 10 35  1  0  0  0  0
 11 36  1  0  0  0  0
 12 13  1  0  0  0  0
 12 37  1  0  0  0  0
 12 38  1  0  0  0  0
 13 23  1  0  0  0  0
 13 14  1  0  0  0  0
 14 15  2  0  0  0  0
 14 39  1  0  0  0  0
 15 16  1  0  0  0  0
 16 23  2  0  0  0  0
 16 17  1  0  0  0  0
 17 18  2  0  0  0  0
 17 40  1  0  0  0  0
 18 19  1  0  0  0  0
 18 20  1  0  0  0  0
 20 21  1  0  0  0  0
 20 22  2  0  0  0  0
 22 23  1  0  0  0  0
 22 41  1  0  0  0  0
 24 25  2  0  0  0  0
 24 42  1  0  0  0  0
 25 43  1  0  0  0  0
M  END
> <s_m_source_file>
AV-unprocessed.smi

> <i_m_source_file_index>
1885

> <i_lp_mmshare_version>
43012

> <i_f3d_flags>
0

> <s_epik_input>
W0NIM11PYzFbY0hdW2NIXWMoW2NIXVtjSF0xKVtDSDJdT1tDSDJdW0NASF0oW09IXSlbQ0gyXW4oW2NIXW4yKWMoYzIzKVtjSF1jKEYpYyhGKVtjSF0z

> <s_epik_cmdline>
J2VwaWtfcHl0aG9uJywgJy1waCcsICc3LjAnLCAnLXRuJywgJzgnLCAnLW1hJywgJzIwMCcsICctbWV0YWxfYmluZGluZycsICctaW1hZScsICc8aW5maWxlLm1hZT4nLCAnLW9tYWUnLCAnPG91dGZpbGUubWFlPic=

> <r_lp_tautomer_probability>
1

> <r_epik_Ionization_Penalty>
0.0160256

> <r_epik_Ionization_Penalty_Charging>
0

> <r_epik_Ionization_Penalty_Neutral>
0.0160256

> <r_epik_State_Penalty>
0.0126263

> <r_epik_Charging_Adjusted_Penalty>
0.0126263

> <i_epik_Tot_Q>
0

> <i_epik_Tot_abs_Q>
0

> <r_epik_Metal_State_Penalty>
1.27616e-05

> <b_epik_Metal_Only>
0

> <s_lp_Force_Field>
OPLS_2005

> <r_lp_Energy>
16.1682

> <b_lp_Chiralities_Consistent>
1

> <s_lp_Variant>
AV-unprocessed.smi:1885-1

> <Gold.Version>
5.8.1

> <Gold.Id.Protein>
6NUR|6NUR_protein|mol2

> <Gold.PLP.Fitness>
56.4538

> <Gold.PLP.PLP>
-53.7834

> <Gold.PLP.part.hbond>
-3.0000

> <Gold.PLP.part.metal>
0.0000

> <Gold.PLP.part.buried>
-3.7175

> <Gold.PLP.part.nonpolar>
-47.9355

> <Gold.PLP.part.repulsive>
0.0652

> <Gold.PLP.ligand.clash>
0.0291

> <Gold.PLP.ligand.torsion>
1.2015

> <Gold.PLP.Chemscore.Hbond>
1.6661

> <Gold.PLP.Chemscore.CHOScore>
0.0000

> <Gold.PLP.Chemscore.Metal>
0.0000

> <Gold.Chemscore.Hbonds>
donor molecule, donor type, donor heavy atom, donor atom, acceptor molecule, acceptor atom, score
      L1  H    11    36       P1  7949  0.38
      P1  H  6896  6908       L1    15  0.01
      P1  H 10752 10764       L1    11  1.00

> <Gold.PLP.Chemscore.Internal.Correction>
0.1043

> <Gold.Rescore>
     Score         DG    S(hbond)    S(metal)    S(lipo)     H(rot)  DE(clash)    DE(int)     intcor
     17.26     -18.81       1.76        0.00     127.82       2.93       0.21       1.34       ----

> <Gold.Chemscore.Fitness>
17.2591

> <Gold.Chemscore.DG>
-18.8138

> <Gold.Chemscore.ZeroCoef>
-5.4800

> <Gold.Chemscore.Hbond>
1.7630

> <Gold.Chemscore.Metal>
0.0000

> <Gold.Chemscore.Lipo>
127.8210

> <Gold.Chemscore.Internal_Hbond>
0.0000

> <Gold.Chemscore.DEClash>
0.2141

> <Gold.Chemscore.DEInternal>
1.3406

> <Gold.Chemscore.Rot>
2.9335

> <Gold.Chemscore.Internal.Correction>
   9.000000E+99

> <Gold.Chemscore.Hbonds>
donor molecule, donor type, donor heavy atom, donor atom, acceptor molecule, acceptor atom, score
      L1  H    11    36       P1  7949  0.30
      P1  H 10752 10764       L1    11  0.44

> <Gold.Chemscore.Hbond.Weighted>
-5.8884

> <Gold.Chemscore.Metal.Weighted>
-0.0000

> <Gold.Chemscore.Lipo.Weighted>
-14.9551

> <Gold.Chemscore.Internal_Hbond.Weighted>
0.0000

> <Gold.Chemscore.DEClash.Weighted>
0.2141

> <Gold.Chemscore.DEInternal.Weighted>
1.3406

> <Gold.Chemscore.Rot.Weighted>
7.5097

> <Gold.Chemscore.Internal.Correction.Weighted>
   9.000000E+99

> <Gold.Protein.RotatedTorsions>
[ 6907 6896 6895 6894 ] final   92.15 input  -60.11 | X-H torsion
[ 7974 7965 7964 7962 ] final  -15.55 input  175.53 | X-H torsion
[ 8008 7997 7996 7995 ] final   75.14 input   59.86 | X-H torsion
[ 10167 10162 10161 10158 ] final   96.72 input  -65.29 | X-H torsion
[ 10718 10713 10712 10709 ] final  149.36 input   66.30 | X-H torsion
[ 10763 10752 10751 10750 ] final  -94.55 input  -60.55 | X-H torsion
[ 11005 11000 10999 10996 ] final  -87.73 input  -57.11 | X-H torsion

> <Gold.Protein.ActiveResidues>
 VAL166  LYS551  ARG553  GLY616  TRP617  ASP618  TYR619  PRO620  LYS621  CYS622 
 ASP623  PHE694  ASN695  SER759  ASP760  ASP761  ALA762  ILE779  LEU786  VAL792 
 PHE793  MET794  SER795  GLU796  ALA797  LYS798  CYS799  TRP800  GLU811  SER814 

> <Gold.Protein.RotatedAtoms>
  152.5452  134.1547  159.8532 H   0  0  0  0  0  0  0  0  0  0  0  0  # atno 6907 bound_to 6896
  151.1570  133.4863  159.2602 H   0  0  0  0  0  0  0  0  0  0  0  0  # atno 6908 bound_to 6896
  151.1412  135.0191  159.8681 H   0  0  0  0  0  0  0  0  0  0  0  0  # atno 6909 bound_to 6896
  146.2027  140.3509  142.8418 H   0  0  0  0  0  0  0  0  0  0  0  0  # atno 7974 bound_to 7965
  155.8085  140.3474  155.5444 H   0  0  0  0  0  0  0  0  0  0  0  0  # atno 8008 bound_to 7997
  155.8465  140.0949  157.1722 H   0  0  0  0  0  0  0  0  0  0  0  0  # atno 8009 bound_to 7997
  154.4006  140.1384  156.3779 H   0  0  0  0  0  0  0  0  0  0  0  0  # atno 8010 bound_to 7997
  139.7867  144.6868  150.9947 H   0  0  0  0  0  0  0  0  0  0  0  0  # atno 10167 bound_to 10162
  157.2970  131.0864  151.1419 H   0  0  0  0  0  0  0  0  0  0  0  0  # atno 10718 bound_to 10713
  154.7066  135.5153  153.8604 H   0  0  0  0  0  0  0  0  0  0  0  0  # atno 10763 bound_to 10752
  153.0746  135.6612  154.0182 H   0  0  0  0  0  0  0  0  0  0  0  0  # atno 10764 bound_to 10752
  154.0032  135.3009  155.3380 H   0  0  0  0  0  0  0  0  0  0  0  0  # atno 10765 bound_to 10752
  141.1612  133.7528  156.9349 H   0  0  0  0  0  0  0  0  0  0  0  0  # atno 11005 bound_to 11000
  144.8720  140.7285  143.6041 LP  0  0  0  0  0  0  0  0  0  0  0  0  # atno 17320 bound_to 7965
  145.3428  139.1727  143.4476 LP  0  0  0  0  0  0  0  0  0  0  0  0  # atno 17321 bound_to 7965
  140.7820  143.4424  151.0532 LP  0  0  0  0  0  0  0  0  0  0  0  0  # atno 17342 bound_to 10162
  139.8102  143.7961  152.3170 LP  0  0  0  0  0  0  0  0  0  0  0  0  # atno 17343 bound_to 10162
  157.2792  130.6742  149.6058 LP  0  0  0  0  0  0  0  0  0  0  0  0  # atno 17370 bound_to 10713
  155.9669  130.4455  150.5503 LP  0  0  0  0  0  0  0  0  0  0  0  0  # atno 17371 bound_to 10713
  140.1361  134.9324  157.2404 LP  0  0  0  0  0  0  0  0  0  0  0  0  # atno 17394 bound_to 11000
  140.2893  134.3259  155.7320 LP  0  0  0  0  0  0  0  0  0  0  0  0  # atno 17395 bound_to 11000

$$$$
