AV-unprocessed.smi:1835|AV-procd|sdf|7476|dock4
  -GOLD-   22720 9173D 1   1.00000     0.00000
 Structure written by MMmdl.
 42 43  0  0  0  0  0  0  0  0  2 V2000
  151.5050  137.3570  154.6531 C   0  0  0  0  0  0  0  0  0  0  0  0
  150.1602  137.1719  155.3942 C   0  0  1  0  0  0  0  0  0  0  0  0
  149.3068  138.4698  155.3226 C   0  0  0  0  0  0  0  0  0  0  0  0
  150.1125  139.6838  155.4271 N   0  0  0  0  0  0  0  0  0  0  0  0
  150.3814  140.3458  156.5632 C   0  0  0  0  0  0  0  0  0  0  0  0
  149.9923  139.9741  157.6708 O   0  0  0  0  0  0  0  0  0  0  0  0
  151.2218  141.6217  156.4186 C   0  0  0  0  0  0  0  0  0  0  0  0
  151.7869  142.0823  157.6979 N   0  0  0  0  0  0  0  0  0  0  0  0
  151.4807  143.3974  158.1014 C   0  0  0  0  0  0  0  0  0  0  0  0
  151.9447  143.9135  159.2504 C   0  0  0  0  0  0  0  0  0  0  0  0
  152.7806  143.0825  160.0841 C   0  0  0  0  0  0  0  0  0  0  0  0
  153.0820  141.8241  159.7066 C   0  0  0  0  0  0  0  0  0  0  0  0
  152.5780  141.2561  158.4508 C   0  0  0  0  0  0  0  0  0  0  0  0
  152.8501  140.1083  158.0964 O   0  0  0  0  0  0  0  0  0  0  0  0
  149.4514  135.9570  154.8716 N   0  3  0  0  0  0  0  0  0  0  0  0
  150.2285  134.7048  155.0843 C   0  0  0  0  0  0  0  0  0  0  0  0
  149.5207  133.4991  154.4464 C   0  0  0  0  0  0  0  0  0  0  0  0
  148.2199  133.3687  154.9999 O   0  0  0  0  0  0  0  0  0  0  0  0
  147.4210  134.5097  154.7254 C   0  0  0  0  0  0  0  0  0  0  0  0
  148.0569  135.7607  155.3566 C   0  0  0  0  0  0  0  0  0  0  0  0
  152.0880  138.1768  155.0715 H   0  0  0  0  0  0  0  0  0  0  0  0
  151.3436  137.5739  153.5968 H   0  0  0  0  0  0  0  0  0  0  0  0
  152.1474  136.4810  154.7143 H   0  0  0  0  0  0  0  0  0  0  0  0
  150.3756  136.9962  156.4496 H   0  0  0  0  0  0  0  0  0  0  0  0
  148.7035  138.4793  154.4129 H   0  0  0  0  0  0  0  0  0  0  0  0
  148.6091  138.5165  156.1586 H   0  0  0  0  0  0  0  0  0  0  0  0
  150.4803  140.0607  154.5654 H   0  0  0  0  0  0  0  0  0  0  0  0
  152.0118  141.4255  155.6926 H   0  0  0  0  0  0  0  0  0  0  0  0
  150.6170  142.4161  155.9769 H   0  0  0  0  0  0  0  0  0  0  0  0
  150.8549  143.9560  157.4206 H   0  0  0  0  0  0  0  0  0  0  0  0
  151.7013  144.9246  159.5422 H   0  0  0  0  0  0  0  0  0  0  0  0
  153.1672  143.4722  161.0144 H   0  0  0  0  0  0  0  0  0  0  0  0
  153.7095  141.2175  160.3428 H   0  0  0  0  0  0  0  0  0  0  0  0
  151.2268  134.7805  154.6579 H   0  0  0  0  0  0  0  0  0  0  0  0
  150.3559  134.5319  156.1542 H   0  0  0  0  0  0  0  0  0  0  0  0
  149.4641  133.6064  153.3619 H   0  0  0  0  0  0  0  0  0  0  0  0
  150.0813  132.5860  154.6470 H   0  0  0  0  0  0  0  0  0  0  0  0
  147.3021  134.6348  153.6478 H   0  0  0  0  0  0  0  0  0  0  0  0
  146.4246  134.3482  155.1373 H   0  0  0  0  0  0  0  0  0  0  0  0
  148.0552  135.6737  156.4443 H   0  0  0  0  0  0  0  0  0  0  0  0
  147.4282  136.6106  155.0931 H   0  0  0  0  0  0  0  0  0  0  0  0
  149.3751  136.0880  153.8730 H   0  0  0  0  0  0  0  0  0  0  0  0
  1  2  1  0  0  0  0
  1 21  1  0  0  0  0
  1 22  1  0  0  0  0
  1 23  1  0  0  0  0
  2  3  1  0  0  0  0
  2 15  1  0  0  0  0
  2 24  1  0  0  0  0
  3  4  1  0  0  0  0
  3 25  1  0  0  0  0
  3 26  1  0  0  0  0
  4  5  1  0  0  0  0
  4 27  1  0  0  0  0
  5  6  2  0  0  0  0
  5  7  1  0  0  0  0
  7  8  1  0  0  0  0
  7 28  1  0  0  0  0
  7 29  1  0  0  0  0
  8 13  1  0  0  0  0
  8  9  1  0  0  0  0
  9 10  2  0  0  0  0
  9 30  1  0  0  0  0
 10 11  1  0  0  0  0
 10 31  1  0  0  0  0
 11 12  2  0  0  0  0
 11 32  1  0  0  0  0
 12 13  1  0  0  0  0
 12 33  1  0  0  0  0
 13 14  2  0  0  0  0
 15 20  1  0  0  0  0
 15 16  1  0  0  0  0
 15 42  1  0  0  0  0
 16 17  1  0  0  0  0
 16 34  1  0  0  0  0
 16 35  1  0  0  0  0
 17 18  1  0  0  0  0
 17 36  1  0  0  0  0
 17 37  1  0  0  0  0
 18 19  1  0  0  0  0
 19 20  1  0  0  0  0
 19 38  1  0  0  0  0
 19 39  1  0  0  0  0
 20 40  1  0  0  0  0
 20 41  1  0  0  0  0
M  CHG  1  15   1
M  END
> <s_m_source_file>
AV-unprocessed.smi

> <i_m_source_file_index>
1835

> <i_lp_mmshare_version>
43012

> <i_f3d_flags>
0

> <s_epik_input>
W0NIMl0xW0NIMl1PW0NIMl1bQ0gyXU4xW0NASF0oW0NIM10pW0NIMl1bTkhdQyg9TylbQ0gyXW4yW2NIXVtjSF1bY0hdW2NIXWMyPU8=

> <s_epik_cmdline>
J2VwaWtfcHl0aG9uJywgJy1waCcsICc3LjAnLCAnLXRuJywgJzgnLCAnLW1hJywgJzIwMCcsICctbWV0YWxfYmluZGluZycsICctaW1hZScsICc8aW5maWxlLm1hZT4nLCAnLW9tYWUnLCAnPG91dGZpbGUubWFlPic=

> <r_lp_tautomer_probability>
1

> <r_epik_Ionization_Penalty>
0.656654

> <r_epik_Ionization_Penalty_Charging>
0.656654

> <r_epik_Ionization_Penalty_Neutral>
9.12373e-08

> <r_epik_State_Penalty>
0.675641

> <r_epik_Charging_Adjusted_Penalty>
1.33229

> <i_epik_Tot_Q>
1

> <i_epik_Tot_abs_Q>
1

> <r_epik_Metal_State_Penalty>
0.675692

> <b_epik_Metal_Only>
0

> <s_lp_Force_Field>
OPLS_2005

> <r_lp_Energy>
28.3698

> <b_lp_Chiralities_Consistent>
1

> <s_lp_Variant>
AV-unprocessed.smi:1835-4

> <Gold.Version>
5.8.1

> <Gold.Id.Protein>
6NUR|6NUR_protein|mol2

> <Gold.PLP.Fitness>
44.9909

> <Gold.PLP.PLP>
-34.2657

> <Gold.PLP.part.hbond>
-2.0000

> <Gold.PLP.part.metal>
0.0000

> <Gold.PLP.part.buried>
-5.0437

> <Gold.PLP.part.nonpolar>
-26.7512

> <Gold.PLP.part.repulsive>
0.1467

> <Gold.PLP.ligand.clash>
0.0000

> <Gold.PLP.ligand.torsion>
0.6613

> <Gold.PLP.Chemscore.Hbond>
2.9920

> <Gold.PLP.Chemscore.CHOScore>
1.0000

> <Gold.PLP.Chemscore.Metal>
0.0000

> <Gold.Chemscore.Hbonds>
donor molecule, donor type, donor heavy atom, donor atom, acceptor molecule, acceptor atom, score
      L1  H    15    42       P1  7948  1.98
      P1  H  7997  8008       L1    14  1.00
      L1  C     9    30       P1  8028  0.51

> <Gold.PLP.Chemscore.Internal.Correction>
0.0717

> <Gold.Rescore>
     Score         DG    S(hbond)    S(metal)    S(lipo)     H(rot)  DE(clash)    DE(int)     intcor
     14.91     -16.46       1.89        0.00      83.01       1.96       0.05       1.51       ----

> <Gold.Chemscore.Fitness>
14.9057

> <Gold.Chemscore.DG>
-16.4643

> <Gold.Chemscore.ZeroCoef>
-5.4800

> <Gold.Chemscore.Hbond>
1.8870

> <Gold.Chemscore.Metal>
0.0000

> <Gold.Chemscore.Lipo>
83.0072

> <Gold.Chemscore.Internal_Hbond>
0.0000

> <Gold.Chemscore.DEClash>
0.0484

> <Gold.Chemscore.DEInternal>
1.5102

> <Gold.Chemscore.Rot>
1.9649

> <Gold.Chemscore.Internal.Correction>
   9.000000E+99

> <Gold.Chemscore.Hbonds>
donor molecule, donor type, donor heavy atom, donor atom, acceptor molecule, acceptor atom, score
      L1  H    15    42       P1  7948  0.69
      P1  H  7997  8008       L1    14  0.71

> <Gold.Chemscore.Hbond.Weighted>
-6.3025

> <Gold.Chemscore.Metal.Weighted>
-0.0000

> <Gold.Chemscore.Lipo.Weighted>
-9.7118

> <Gold.Chemscore.Internal_Hbond.Weighted>
0.0000

> <Gold.Chemscore.DEClash.Weighted>
0.0484

> <Gold.Chemscore.DEInternal.Weighted>
1.5102

> <Gold.Chemscore.Rot.Weighted>
5.0300

> <Gold.Chemscore.Internal.Correction.Weighted>
   9.000000E+99

> <Gold.Protein.RotatedTorsions>
[ 6907 6896 6895 6894 ] final  -89.54 input  -60.11 | X-H torsion
[ 7974 7965 7964 7962 ] final  -33.58 input  175.53 | X-H torsion
[ 8008 7997 7996 7995 ] final  -77.96 input   59.86 | X-H torsion
[ 10167 10162 10161 10158 ] final  -86.48 input  -65.29 | X-H torsion
[ 10718 10713 10712 10709 ] final  -56.30 input   66.30 | X-H torsion
[ 10763 10752 10751 10750 ] final   78.05 input  -60.55 | X-H torsion
[ 11005 11000 10999 10996 ] final   73.03 input  -57.11 | X-H torsion

> <Gold.Protein.ActiveResidues>
 VAL166  LYS551  ARG553  GLY616  TRP617  ASP618  TYR619  PRO620  LYS621  CYS622 
 ASP623  PHE694  ASN695  SER759  ASP760  ASP761  ALA762  ILE779  LEU786  VAL792 
 PHE793  MET794  SER795  GLU796  ALA797  LYS798  CYS799  TRP800  GLU811  SER814 

> <Gold.Protein.RotatedAtoms>
  150.6874  134.2570  159.4533 H   0  0  0  0  0  0  0  0  0  0  0  0  # atno 6907 bound_to 6896
  152.0503  134.9655  160.0584 H   0  0  0  0  0  0  0  0  0  0  0  0  # atno 6908 bound_to 6896
  152.1122  133.4272  159.4673 H   0  0  0  0  0  0  0  0  0  0  0  0  # atno 6909 bound_to 6896
  146.0899  140.5934  142.8869 H   0  0  0  0  0  0  0  0  0  0  0  0  # atno 7974 bound_to 7965
  154.5644  140.0702  156.8870 H   0  0  0  0  0  0  0  0  0  0  0  0  # atno 8008 bound_to 7997
  155.2750  140.3368  155.4244 H   0  0  0  0  0  0  0  0  0  0  0  0  # atno 8009 bound_to 7997
  156.2069  140.1743  156.7766 H   0  0  0  0  0  0  0  0  0  0  0  0  # atno 8010 bound_to 7997
  140.3937  143.2693  151.9231 H   0  0  0  0  0  0  0  0  0  0  0  0  # atno 10167 bound_to 10162
  156.1300  130.4160  150.0286 H   0  0  0  0  0  0  0  0  0  0  0  0  # atno 10718 bound_to 10713
  153.0845  135.4891  154.8568 H   0  0  0  0  0  0  0  0  0  0  0  0  # atno 10763 bound_to 10752
  154.7192  135.3036  154.9076 H   0  0  0  0  0  0  0  0  0  0  0  0  # atno 10764 bound_to 10752
  153.9746  135.6797  153.4801 H   0  0  0  0  0  0  0  0  0  0  0  0  # atno 10765 bound_to 10752
  139.9460  134.7312  156.0978 H   0  0  0  0  0  0  0  0  0  0  0  0  # atno 11005 bound_to 11000
  144.7352  140.4788  143.6909 LP  0  0  0  0  0  0  0  0  0  0  0  0  # atno 17320 bound_to 7965
  145.6059  139.1508  143.3103 LP  0  0  0  0  0  0  0  0  0  0  0  0  # atno 17321 bound_to 7965
  139.4787  144.5702  151.8101 LP  0  0  0  0  0  0  0  0  0  0  0  0  # atno 17342 bound_to 10162
  140.4812  144.1446  150.5933 LP  0  0  0  0  0  0  0  0  0  0  0  0  # atno 17343 bound_to 10162
  156.8201  130.9355  151.3641 LP  0  0  0  0  0  0  0  0  0  0  0  0  # atno 17370 bound_to 10713
  157.6478  130.8859  149.9573 LP  0  0  0  0  0  0  0  0  0  0  0  0  # atno 17371 bound_to 10713
  141.1111  133.6643  156.2980 LP  0  0  0  0  0  0  0  0  0  0  0  0  # atno 17394 bound_to 11000
  140.5833  134.5724  157.5484 LP  0  0  0  0  0  0  0  0  0  0  0  0  # atno 17395 bound_to 11000

$$$$
