AV-unprocessed.smi:1019|AV-procd|sdf|4448|dock5
  -GOLD-   22720 2413D 1   1.00000     0.00000
 Structure written by MMmdl.
 45 47  0  0  0  0  0  0  0  0  3 V2000
  147.1577  139.0877  152.7530 C   0  0  0  0  0  0  0  0  0  0  0  0
  147.5675  138.0384  153.7148 N   0  3  2  0  0  0  0  0  0  0  0  0
  146.4270  137.1714  154.1029 C   0  0  0  0  0  0  0  0  0  0  0  0
  146.0682  136.1768  153.0113 C   0  0  0  0  0  0  0  0  0  0  0  0
  146.2096  134.7921  153.2436 C   0  0  0  0  0  0  0  0  0  0  0  0
  145.8647  133.8671  152.2391 C   0  0  0  0  0  0  0  0  0  0  0  0
  145.3811  134.3227  150.9975 C   0  0  0  0  0  0  0  0  0  0  0  0
  145.2439  135.7036  150.7597 C   0  0  0  0  0  0  0  0  0  0  0  0
  145.5876  136.6294  151.7638 C   0  0  0  0  0  0  0  0  0  0  0  0
  148.3254  138.5847  154.8725 C   0  0  0  0  0  0  0  0  0  0  0  0
  149.8353  138.6766  154.5812 C   0  0  2  0  0  0  0  0  0  0  0  0
  150.2820  137.4205  154.1066 O   0  0  0  0  0  0  0  0  0  0  0  0
  150.6390  139.0707  155.8362 C   0  0  0  0  0  0  0  0  0  0  0  0
  150.6663  140.5230  156.0627 N   0  0  0  0  0  0  0  0  0  0  0  0
  150.1079  141.5242  155.3289 C   0  0  0  0  0  0  0  0  0  0  0  0
  150.4075  142.7022  155.9424 N   0  3  0  0  0  0  0  0  0  0  0  0
  151.1679  142.4523  157.0862 C   0  0  0  0  0  0  0  0  0  0  0  0
  151.7061  143.3231  158.0285 C   0  0  0  0  0  0  0  0  0  0  0  0
  152.4381  142.7403  159.0835 C   0  0  0  0  0  0  0  0  0  0  0  0
  152.6117  141.3438  159.1727 C   0  0  0  0  0  0  0  0  0  0  0  0
  152.0610  140.4702  158.2119 C   0  0  0  0  0  0  0  0  0  0  0  0
  151.3381  141.0536  157.1714 C   0  0  0  0  0  0  0  0  0  0  0  0
  146.4323  139.7669  153.2026 H   0  0  0  0  0  0  0  0  0  0  0  0
  146.7023  138.6416  151.8683 H   0  0  0  0  0  0  0  0  0  0  0  0
  148.0116  139.6752  152.4171 H   0  0  0  0  0  0  0  0  0  0  0  0
  146.6531  136.6547  155.0372 H   0  0  0  0  0  0  0  0  0  0  0  0
  145.5442  137.7844  154.2906 H   0  0  0  0  0  0  0  0  0  0  0  0
  146.5775  134.4352  154.1945 H   0  0  0  0  0  0  0  0  0  0  0  0
  145.9709  132.8076  152.4204 H   0  0  0  0  0  0  0  0  0  0  0  0
  145.1174  133.6128  150.2272 H   0  0  0  0  0  0  0  0  0  0  0  0
  144.8749  136.0530  149.8066 H   0  0  0  0  0  0  0  0  0  0  0  0
  145.4771  137.6870  151.5733 H   0  0  0  0  0  0  0  0  0  0  0  0
  147.9240  139.5645  155.1356 H   0  0  0  0  0  0  0  0  0  0  0  0
  148.1878  137.9642  155.7579 H   0  0  0  0  0  0  0  0  0  0  0  0
  150.0216  139.4167  153.8030 H   0  0  0  0  0  0  0  0  0  0  0  0
  149.8300  137.2216  153.3007 H   0  0  0  0  0  0  0  0  0  0  0  0
  150.1860  138.6212  156.7207 H   0  0  0  0  0  0  0  0  0  0  0  0
  151.6605  138.6917  155.7924 H   0  0  0  0  0  0  0  0  0  0  0  0
  149.5305  141.4063  154.4232 H   0  0  0  0  0  0  0  0  0  0  0  0
  151.5751  144.3934  157.9625 H   0  0  0  0  0  0  0  0  0  0  0  0
  152.8753  143.3772  159.8389 H   0  0  0  0  0  0  0  0  0  0  0  0
  153.1798  140.9342  159.9952 H   0  0  0  0  0  0  0  0  0  0  0  0
  152.2042  139.4032  158.2918 H   0  0  0  0  0  0  0  0  0  0  0  0
  148.2093  137.4333  153.2219 H   0  0  0  0  0  0  0  0  0  0  0  0
  150.1128  143.6090  155.6033 H   0  0  0  0  0  0  0  0  0  0  0  0
  1  2  1  0  0  0  0
  1 23  1  0  0  0  0
  1 24  1  0  0  0  0
  1 25  1  0  0  0  0
  2  3  1  0  0  0  0
  2 10  1  0  0  0  0
  2 44  1  0  0  0  0
  3  4  1  0  0  0  0
  3 26  1  0  0  0  0
  3 27  1  0  0  0  0
  4  9  1  0  0  0  0
  4  5  2  0  0  0  0
  5  6  1  0  0  0  0
  5 28  1  0  0  0  0
  6  7  2  0  0  0  0
  6 29  1  0  0  0  0
  7  8  1  0  0  0  0
  7 30  1  0  0  0  0
  8  9  2  0  0  0  0
  8 31  1  0  0  0  0
  9 32  1  0  0  0  0
 10 11  1  0  0  0  0
 10 33  1  0  0  0  0
 10 34  1  0  0  0  0
 11 12  1  0  0  0  0
 11 13  1  0  0  0  0
 11 35  1  0  0  0  0
 12 36  1  0  0  0  0
 13 14  1  0  0  0  0
 13 37  1  0  0  0  0
 13 38  1  0  0  0  0
 14 22  1  0  0  0  0
 14 15  1  0  0  0  0
 15 16  2  0  0  0  0
 15 39  1  0  0  0  0
 16 17  1  0  0  0  0
 16 45  1  0  0  0  0
 17 22  2  0  0  0  0
 17 18  1  0  0  0  0
 18 19  2  0  0  0  0
 18 40  1  0  0  0  0
 19 20  1  0  0  0  0
 19 41  1  0  0  0  0
 20 21  2  0  0  0  0
 20 42  1  0  0  0  0
 21 22  1  0  0  0  0
 21 43  1  0  0  0  0
M  CHG  1   2   1
M  CHG  1  16   1
M  END
> <s_m_source_file>
AV-unprocessed.smi

> <i_m_source_file_index>
1019

> <i_lp_mmshare_version>
43012

> <i_f3d_flags>
0

> <s_epik_input>
W2NIXTFbY0hdW2NIXVtjSF1bY0hdYzFbQ0gyXU4oW0NIM10pW0NIMl1bQ0BIXShbT0hdKVtDSDJdbihbY0hdbjIpYyhjMjMpW2NIXVtjSF1bY0hdW2NIXTM=

> <s_epik_cmdline>
J2VwaWtfcHl0aG9uJywgJy1waCcsICc3LjAnLCAnLXRuJywgJzgnLCAnLW1hJywgJzIwMCcsICctbWV0YWxfYmluZGluZycsICctaW1hZScsICc8aW5maWxlLm1hZT4nLCAnLW9tYWUnLCAnPG91dGZpbGUubWFlPic=

> <r_epik_Ionization_Penalty>
1.5198

> <r_epik_Ionization_Penalty_Charging>
1.5198

> <r_epik_Ionization_Penalty_Neutral>
3.13312e-06

> <r_epik_State_Penalty>
1.624

> <r_epik_Charging_Adjusted_Penalty>
3.1438

> <i_epik_Tot_Q>
2

> <i_epik_Tot_abs_Q>
2

> <r_epik_Metal_State_Penalty>
5.67392

> <b_epik_Metal_Only>
0

> <s_lp_Force_Field>
OPLS_2005

> <r_lp_Energy>
24.0682

> <b_lp_Chiralities_Consistent>
1

> <s_lp_Variant>
AV-unprocessed.smi:1019-6

> <Gold.Version>
5.8.1

> <Gold.Id.Protein>
6NUR|6NUR_protein|mol2

> <Gold.PLP.Fitness>
54.2261

> <Gold.PLP.PLP>
-40.9046

> <Gold.PLP.part.hbond>
-3.8406

> <Gold.PLP.part.metal>
0.0000

> <Gold.PLP.part.buried>
-2.7745

> <Gold.PLP.part.nonpolar>
-34.9046

> <Gold.PLP.part.repulsive>
0.1427

> <Gold.PLP.ligand.clash>
0.0000

> <Gold.PLP.ligand.torsion>
0.9163

> <Gold.PLP.Chemscore.Hbond>
4.9825

> <Gold.PLP.Chemscore.CHOScore>
0.0000

> <Gold.PLP.Chemscore.Metal>
0.0000

> <Gold.Chemscore.Hbonds>
donor molecule, donor type, donor heavy atom, donor atom, acceptor molecule, acceptor atom, score
      L1  H     2    44       P1  7948  2.00
      L1  H    12    36       P1  7948  1.00
      L1  H    16    45       P1  8028  1.79

> <Gold.PLP.Chemscore.Internal.Correction>
0.2067

> <Gold.Rescore>
     Score         DG    S(hbond)    S(metal)    S(lipo)     H(rot)  DE(clash)    DE(int)     intcor
     19.38     -20.27       2.74        0.00     101.94       2.46       0.09       0.80       ----

> <Gold.Chemscore.Fitness>
19.3762

> <Gold.Chemscore.DG>
-20.2720

> <Gold.Chemscore.ZeroCoef>
-5.4800

> <Gold.Chemscore.Hbond>
2.7395

> <Gold.Chemscore.Metal>
0.0000

> <Gold.Chemscore.Lipo>
101.9444

> <Gold.Chemscore.Internal_Hbond>
0.0000

> <Gold.Chemscore.DEClash>
0.0916

> <Gold.Chemscore.DEInternal>
0.8043

> <Gold.Chemscore.Rot>
2.4552

> <Gold.Chemscore.Internal.Correction>
   9.000000E+99

> <Gold.Chemscore.Hbonds>
donor molecule, donor type, donor heavy atom, donor atom, acceptor molecule, acceptor atom, score
      L1  H     2    44       P1  7948  0.99
      L1  H    12    36       P1  7948  0.45
      L1  H    16    45       P1  8028  0.88

> <Gold.Chemscore.Hbond.Weighted>
-9.1499

> <Gold.Chemscore.Metal.Weighted>
-0.0000

> <Gold.Chemscore.Lipo.Weighted>
-11.9275

> <Gold.Chemscore.Internal_Hbond.Weighted>
0.0000

> <Gold.Chemscore.DEClash.Weighted>
0.0916

> <Gold.Chemscore.DEInternal.Weighted>
0.8043

> <Gold.Chemscore.Rot.Weighted>
6.2854

> <Gold.Chemscore.Internal.Correction.Weighted>
   9.000000E+99

> <Gold.Protein.RotatedTorsions>
[ 6907 6896 6895 6894 ] final  -34.26 input  -60.11 | X-H torsion
[ 7974 7965 7964 7962 ] final   83.41 input  175.53 | X-H torsion
[ 8008 7997 7996 7995 ] final   85.98 input   59.86 | X-H torsion
[ 10167 10162 10161 10158 ] final -159.06 input  -65.29 | X-H torsion
[ 10718 10713 10712 10709 ] final  -10.87 input   66.30 | X-H torsion
[ 10763 10752 10751 10750 ] final   45.72 input  -60.55 | X-H torsion
[ 11005 11000 10999 10996 ] final   91.00 input  -57.11 | X-H torsion

> <Gold.Protein.ActiveResidues>
 VAL166  LYS551  ARG553  GLY616  TRP617  ASP618  TYR619  PRO620  LYS621  CYS622 
 ASP623  PHE694  ASN695  SER759  ASP760  ASP761  ALA762  ILE779  LEU786  VAL792 
 PHE793  MET794  SER795  GLU796  ALA797  LYS798  CYS799  TRP800  GLU811  SER814 

> <Gold.Protein.RotatedAtoms>
  151.0549  134.9698  159.8230 H   0  0  0  0  0  0  0  0  0  0  0  0  # atno 6907 bound_to 6896
  152.5386  134.2490  159.8901 H   0  0  0  0  0  0  0  0  0  0  0  0  # atno 6908 bound_to 6896
  151.2508  133.4308  159.2645 H   0  0  0  0  0  0  0  0  0  0  0  0  # atno 6909 bound_to 6896
  145.6123  139.2370  143.2185 H   0  0  0  0  0  0  0  0  0  0  0  0  # atno 7974 bound_to 7965
  155.9570  140.3396  155.6457 H   0  0  0  0  0  0  0  0  0  0  0  0  # atno 8008 bound_to 7997
  155.6847  140.0742  157.2489 H   0  0  0  0  0  0  0  0  0  0  0  0  # atno 8009 bound_to 7997
  154.4134  140.1668  156.2008 H   0  0  0  0  0  0  0  0  0  0  0  0  # atno 8010 bound_to 7997
  139.6644  143.9856  152.2245 H   0  0  0  0  0  0  0  0  0  0  0  0  # atno 10167 bound_to 10162
  156.6673  130.4999  149.6011 H   0  0  0  0  0  0  0  0  0  0  0  0  # atno 10718 bound_to 10713
  152.9820  135.6030  154.3483 H   0  0  0  0  0  0  0  0  0  0  0  0  # atno 10763 bound_to 10752
  154.3174  135.2770  155.2538 H   0  0  0  0  0  0  0  0  0  0  0  0  # atno 10764 bound_to 10752
  154.4720  135.5939  153.6384 H   0  0  0  0  0  0  0  0  0  0  0  0  # atno 10765 bound_to 10752
  139.8846  134.8647  156.3365 H   0  0  0  0  0  0  0  0  0  0  0  0  # atno 11005 bound_to 11000
  146.1494  140.6946  142.9329 LP  0  0  0  0  0  0  0  0  0  0  0  0  # atno 17320 bound_to 7965
  144.7265  140.4539  143.6969 LP  0  0  0  0  0  0  0  0  0  0  0  0  # atno 17321 bound_to 7965
  139.9603  144.6562  150.8086 LP  0  0  0  0  0  0  0  0  0  0  0  0  # atno 17342 bound_to 10162
  140.7593  143.3126  151.2808 LP  0  0  0  0  0  0  0  0  0  0  0  0  # atno 17343 bound_to 10162
  156.1965  130.6593  151.1120 LP  0  0  0  0  0  0  0  0  0  0  0  0  # atno 17370 bound_to 10713
  157.7089  131.0743  150.6570 LP  0  0  0  0  0  0  0  0  0  0  0  0  # atno 17371 bound_to 10713
  140.9688  133.7341  156.0505 LP  0  0  0  0  0  0  0  0  0  0  0  0  # atno 17394 bound_to 11000
  140.7897  134.3631  157.5467 LP  0  0  0  0  0  0  0  0  0  0  0  0  # atno 17395 bound_to 11000

$$$$
