AV-unprocessed.smi:1015|AV-procd|sdf|4435|dock8
  -GOLD-   22720 2393D 1   1.00000     0.00000
 Structure written by MMmdl.
 43 44  0  0  0  0  0  0  0  0  2 V2000
  146.1302  143.8266  160.7443 C   0  0  0  0  0  0  0  0  0  0  0  0
  147.1799  143.0693  160.1679 O   0  0  0  0  0  0  0  0  0  0  0  0
  147.2549  143.2263  158.7606 C   0  0  0  0  0  0  0  0  0  0  0  0
  148.4668  142.4402  158.2368 C   0  0  0  0  0  0  0  0  0  0  0  0
  148.4678  142.3150  156.7568 N   0  3  2  0  0  0  0  0  0  0  0  0
  147.1165  142.0125  156.2188 C   0  0  0  0  0  0  0  0  0  0  0  0
  147.1103  142.0148  154.6784 C   0  0  0  0  0  0  0  0  0  0  0  0
  148.1543  141.0485  154.0883 C   0  0  2  0  0  0  0  0  0  0  0  0
  147.7206  139.5695  154.2250 C   0  0  0  0  0  0  0  0  0  0  0  0
  148.8496  138.6565  154.0794 N   0  0  0  0  0  0  0  0  0  0  0  0
  149.2852  137.8015  155.0186 C   0  0  0  0  0  0  0  0  0  0  0  0
  148.7240  137.6345  156.1010 O   0  0  0  0  0  0  0  0  0  0  0  0
  150.5754  137.0461  154.7034 C   0  0  0  0  0  0  0  0  0  0  0  0
  151.7052  137.9563  154.6973 N   0  0  0  0  0  0  0  0  0  0  0  0
  151.8346  139.1977  155.1708 C   0  0  0  0  0  0  0  0  0  0  0  0
  153.0598  139.6654  154.9877 N   0  0  0  0  0  0  0  0  0  0  0  0
  153.7049  138.6178  154.3518 N   0  0  0  0  0  0  0  0  0  0  0  0
  152.9068  137.6005  154.1778 N   0  0  0  0  0  0  0  0  0  0  0  0
  149.5302  141.3737  154.7079 C   0  0  0  0  0  0  0  0  0  0  0  0
  149.4883  141.3621  156.2452 C   0  0  0  0  0  0  0  0  0  0  0  0
  146.1185  143.6746  161.8234 H   0  0  0  0  0  0  0  0  0  0  0  0
  145.1604  143.5192  160.3508 H   0  0  0  0  0  0  0  0  0  0  0  0
  146.2626  144.8928  160.5559 H   0  0  0  0  0  0  0  0  0  0  0  0
  146.3289  142.9017  158.2854 H   0  0  0  0  0  0  0  0  0  0  0  0
  147.3801  144.2834  158.5211 H   0  0  0  0  0  0  0  0  0  0  0  0
  149.3965  142.9071  158.5653 H   0  0  0  0  0  0  0  0  0  0  0  0
  148.4454  141.4485  158.6908 H   0  0  0  0  0  0  0  0  0  0  0  0
  146.7754  141.0509  156.6043 H   0  0  0  0  0  0  0  0  0  0  0  0
  146.4065  142.7601  156.5747 H   0  0  0  0  0  0  0  0  0  0  0  0
  146.1145  141.7689  154.3080 H   0  0  0  0  0  0  0  0  0  0  0  0
  147.3205  143.0260  154.3269 H   0  0  0  0  0  0  0  0  0  0  0  0
  148.2219  141.2550  153.0191 H   0  0  0  0  0  0  0  0  0  0  0  0
  147.1985  139.3973  155.1666 H   0  0  0  0  0  0  0  0  0  0  0  0
  147.0036  139.3272  153.4402 H   0  0  0  0  0  0  0  0  0  0  0  0
  149.3711  138.7163  153.2167 H   0  0  0  0  0  0  0  0  0  0  0  0
  150.7471  136.2637  155.4445 H   0  0  0  0  0  0  0  0  0  0  0  0
  150.5027  136.5611  153.7291 H   0  0  0  0  0  0  0  0  0  0  0  0
  151.0420  139.7492  155.6550 H   0  0  0  0  0  0  0  0  0  0  0  0
  150.2987  140.6903  154.3470 H   0  0  0  0  0  0  0  0  0  0  0  0
  149.8436  142.3639  154.3744 H   0  0  0  0  0  0  0  0  0  0  0  0
  150.4759  141.6265  156.6206 H   0  0  0  0  0  0  0  0  0  0  0  0
  149.2738  140.3587  156.6150 H   0  0  0  0  0  0  0  0  0  0  0  0
  148.7128  143.2272  156.3981 H   0  0  0  0  0  0  0  0  0  0  0  0
  1  2  1  0  0  0  0
  1 21  1  0  0  0  0
  1 22  1  0  0  0  0
  1 23  1  0  0  0  0
  2  3  1  0  0  0  0
  3  4  1  0  0  0  0
  3 24  1  0  0  0  0
  3 25  1  0  0  0  0
  4  5  1  0  0  0  0
  4 26  1  0  0  0  0
  4 27  1  0  0  0  0
  5 20  1  0  0  0  0
  5  6  1  0  0  0  0
  5 43  1  0  0  0  0
  6  7  1  0  0  0  0
  6 28  1  0  0  0  0
  6 29  1  0  0  0  0
  7  8  1  0  0  0  0
  7 30  1  0  0  0  0
  7 31  1  0  0  0  0
  8  9  1  0  0  0  0
  8 19  1  0  0  0  0
  8 32  1  0  0  0  0
  9 10  1  0  0  0  0
  9 33  1  0  0  0  0
  9 34  1  0  0  0  0
 10 11  1  0  0  0  0
 10 35  1  0  0  0  0
 11 12  2  0  0  0  0
 11 13  1  0  0  0  0
 13 14  1  0  0  0  0
 13 36  1  0  0  0  0
 13 37  1  0  0  0  0
 14 18  1  0  0  0  0
 14 15  1  0  0  0  0
 15 16  2  0  0  0  0
 15 38  1  0  0  0  0
 16 17  1  0  0  0  0
 17 18  2  0  0  0  0
 19 20  1  0  0  0  0
 19 39  1  0  0  0  0
 19 40  1  0  0  0  0
 20 41  1  0  0  0  0
 20 42  1  0  0  0  0
M  CHG  1   5   1
M  END
> <s_m_source_file>
AV-unprocessed.smi

> <i_m_source_file_index>
1015

> <i_lp_mmshare_version>
43012

> <i_f3d_flags>
0

> <s_epik_input>
W0NIM11PW0NIMl1bQ0gyXU4xW0NIMl1bQ0gyXVtDSF0oW0NIMl1bQ0gyXTEpW0NIMl1bTkhdQyg9TylbQ0gyXW4yW2NIXW5ubjI=

> <s_epik_cmdline>
J2VwaWtfcHl0aG9uJywgJy1waCcsICc3LjAnLCAnLXRuJywgJzgnLCAnLW1hJywgJzIwMCcsICctbWV0YWxfYmluZGluZycsICctaW1hZScsICc8aW5maWxlLm1hZT4nLCAnLW9tYWUnLCAnPG91dGZpbGUubWFlPic=

> <r_lp_tautomer_probability>
1

> <r_epik_Ionization_Penalty>
0.0104119

> <r_epik_Ionization_Penalty_Charging>
0.0104107

> <r_epik_Ionization_Penalty_Neutral>
1.19574e-06

> <r_epik_State_Penalty>
0.00795975

> <r_epik_Charging_Adjusted_Penalty>
0.0183705

> <i_epik_Tot_Q>
1

> <i_epik_Tot_abs_Q>
1

> <r_epik_Metal_State_Penalty>
0.00795975

> <b_epik_Metal_Only>
0

> <s_lp_Force_Field>
OPLS_2005

> <r_lp_Energy>
22.9597

> <b_lp_Chiralities_Consistent>
1

> <s_lp_Variant>
AV-unprocessed.smi:1015-2

> <Gold.Version>
5.8.1

> <Gold.Id.Protein>
6NUR|6NUR_protein|mol2

> <Gold.PLP.Fitness>
47.7018

> <Gold.PLP.PLP>
-33.2115

> <Gold.PLP.part.hbond>
-7.3708

> <Gold.PLP.part.metal>
0.0000

> <Gold.PLP.part.buried>
-4.2687

> <Gold.PLP.part.nonpolar>
-23.6156

> <Gold.PLP.part.repulsive>
0.2188

> <Gold.PLP.ligand.clash>
0.0000

> <Gold.PLP.ligand.torsion>
0.6098

> <Gold.PLP.Chemscore.Hbond>
5.2167

> <Gold.PLP.Chemscore.CHOScore>
0.0000

> <Gold.PLP.Chemscore.Metal>
0.0000

> <Gold.Chemscore.Hbonds>
donor molecule, donor type, donor heavy atom, donor atom, acceptor molecule, acceptor atom, score
      L1  H     5    43       P1  8028  2.00
      P1  H  6933  6944       L1     2  0.99
      P1  H  6934  6946       L1     2  0.29
      P1  H  7997  8008       L1    16  1.00
      P1  H 10752 10764       L1    18  0.45

> <Gold.PLP.Chemscore.Internal.Correction>
0.0597

> <Gold.Rescore>
     Score         DG    S(hbond)    S(metal)    S(lipo)     H(rot)  DE(clash)    DE(int)     intcor
     13.13     -13.89       3.28        0.00      48.14       3.19       0.20       0.56       ----

> <Gold.Chemscore.Fitness>
13.1317

> <Gold.Chemscore.DG>
-13.8911

> <Gold.Chemscore.ZeroCoef>
-5.4800

> <Gold.Chemscore.Hbond>
3.2793

> <Gold.Chemscore.Metal>
0.0000

> <Gold.Chemscore.Lipo>
48.1373

> <Gold.Chemscore.Internal_Hbond>
0.0000

> <Gold.Chemscore.DEClash>
0.1978

> <Gold.Chemscore.DEInternal>
0.5617

> <Gold.Chemscore.Rot>
3.1928

> <Gold.Chemscore.Internal.Correction>
   9.000000E+99

> <Gold.Chemscore.Hbonds>
donor molecule, donor type, donor heavy atom, donor atom, acceptor molecule, acceptor atom, score
      L1  H     5    43       P1  8028  0.93
      L1  H    10    35       P1  7957  0.05
      P1  H  6933  6944       L1     2  0.86
      P1  H  6934  6946       L1     2  0.17
      P1  H  7997  8008       L1    16  0.24
      P1  H 10752 10764       L1    18  0.34

> <Gold.Chemscore.Hbond.Weighted>
-10.9528

> <Gold.Chemscore.Metal.Weighted>
-0.0000

> <Gold.Chemscore.Lipo.Weighted>
-5.6321

> <Gold.Chemscore.Internal_Hbond.Weighted>
0.0000

> <Gold.Chemscore.DEClash.Weighted>
0.1978

> <Gold.Chemscore.DEInternal.Weighted>
0.5617

> <Gold.Chemscore.Rot.Weighted>
8.1737

> <Gold.Chemscore.Internal.Correction.Weighted>
   9.000000E+99

> <Gold.Protein.RotatedTorsions>
[ 6907 6896 6895 6894 ] final  -85.41 input  -60.11 | X-H torsion
[ 7974 7965 7964 7962 ] final -177.24 input  175.53 | X-H torsion
[ 8008 7997 7996 7995 ] final  -35.47 input   59.86 | X-H torsion
[ 10167 10162 10161 10158 ] final  161.90 input  -65.29 | X-H torsion
[ 10718 10713 10712 10709 ] final  -96.47 input   66.30 | X-H torsion
[ 10763 10752 10751 10750 ] final  -92.76 input  -60.55 | X-H torsion
[ 11005 11000 10999 10996 ] final   24.33 input  -57.11 | X-H torsion

> <Gold.Protein.ActiveResidues>
 VAL166  LYS551  ARG553  GLY616  TRP617  ASP618  TYR619  PRO620  LYS621  CYS622 
 ASP623  PHE694  ASN695  SER759  ASP760  ASP761  ALA762  ILE779  LEU786  VAL792 
 PHE793  MET794  SER795  GLU796  ALA797  LYS798  CYS799  TRP800  GLU811  SER814 

> <Gold.Protein.RotatedAtoms>
  150.6870  134.3209  159.4785 H   0  0  0  0  0  0  0  0  0  0  0  0  # atno 6907 bound_to 6896
  152.1085  134.9289  160.0576 H   0  0  0  0  0  0  0  0  0  0  0  0  # atno 6908 bound_to 6896
  152.0541  133.3997  159.4426 H   0  0  0  0  0  0  0  0  0  0  0  0  # atno 6909 bound_to 6896
  144.7127  140.1049  143.6414 H   0  0  0  0  0  0  0  0  0  0  0  0  # atno 7974 bound_to 7965
  154.4095  140.1656  156.2216 H   0  0  0  0  0  0  0  0  0  0  0  0  # atno 8008 bound_to 7997
  155.9358  140.3411  155.6263 H   0  0  0  0  0  0  0  0  0  0  0  0  # atno 8009 bound_to 7997
  155.7050  140.0749  157.2385 H   0  0  0  0  0  0  0  0  0  0  0  0  # atno 8010 bound_to 7997
  139.4854  144.4490  151.8854 H   0  0  0  0  0  0  0  0  0  0  0  0  # atno 10167 bound_to 10162
  156.0063  130.5153  150.6230 H   0  0  0  0  0  0  0  0  0  0  0  0  # atno 10718 bound_to 10713
  154.6893  135.5219  153.8370 H   0  0  0  0  0  0  0  0  0  0  0  0  # atno 10763 bound_to 10752
  153.0620  135.6572  154.0449 H   0  0  0  0  0  0  0  0  0  0  0  0  # atno 10764 bound_to 10752
  154.0326  135.2984  155.3346 H   0  0  0  0  0  0  0  0  0  0  0  0  # atno 10765 bound_to 10752
  140.3598  134.2137  155.7673 H   0  0  0  0  0  0  0  0  0  0  0  0  # atno 11005 bound_to 11000
  145.9505  139.2731  143.1215 LP  0  0  0  0  0  0  0  0  0  0  0  0  # atno 17320 bound_to 7965
  145.9327  140.9036  143.0348 LP  0  0  0  0  0  0  0  0  0  0  0  0  # atno 17321 bound_to 7965
  140.3946  144.2571  150.5897 LP  0  0  0  0  0  0  0  0  0  0  0  0  # atno 17342 bound_to 10162
  140.5114  143.2289  151.8529 LP  0  0  0  0  0  0  0  0  0  0  0  0  # atno 17343 bound_to 10162
  157.4042  131.0814  151.1280 LP  0  0  0  0  0  0  0  0  0  0  0  0  # atno 17370 bound_to 10713
  157.1932  130.6361  149.5712 LP  0  0  0  0  0  0  0  0  0  0  0  0  # atno 17371 bound_to 10713
  141.1987  133.8028  157.0569 LP  0  0  0  0  0  0  0  0  0  0  0  0  # atno 17394 bound_to 11000
  140.0635  134.9741  157.1346 LP  0  0  0  0  0  0  0  0  0  0  0  0  # atno 17395 bound_to 11000

$$$$
