AV-unprocessed.smi:864|AV-procd|sdf|3986|dock6
  -GOLD-   22720 1463D 1   1.00000     0.00000
 Structure written by MMmdl.
 44 46  0  0  0  0  0  0  0  0  1 V2000
  152.3646  143.1388  160.3608 C   0  0  0  0  0  0  0  0  0  0  0  0
  151.9673  142.4034  159.0980 C   0  0  0  0  0  0  0  0  0  0  0  0
  151.9855  140.9937  159.0442 C   0  0  0  0  0  0  0  0  0  0  0  0
  151.6102  140.3632  157.8422 C   0  0  0  0  0  0  0  0  0  0  0  0
  151.2310  141.1628  156.7451 C   0  0  0  0  0  0  0  0  0  0  0  0
  150.8323  140.5316  155.4217 C   0  0  0  0  0  0  0  0  0  0  0  0
  149.4965  141.0637  154.8617 C   0  0  0  0  0  0  0  0  0  0  0  0
  148.9565  140.2344  153.7882 N   0  0  0  0  0  0  0  0  0  0  0  0
  147.7429  139.6672  153.7925 C   0  0  0  0  0  0  0  0  0  0  0  0
  146.9544  139.7303  154.7360 O   0  0  0  0  0  0  0  0  0  0  0  0
  147.4744  139.0589  152.6294 N   0  0  0  0  0  0  0  0  0  0  0  0
  146.1862  138.4654  152.2838 C   0  0  2  0  0  0  0  0  0  0  0  0
  145.6051  137.6432  153.4415 C   0  0  0  0  0  0  0  0  0  0  0  0
  145.2412  136.3166  152.7965 C   0  0  0  0  0  0  0  0  0  0  0  0
  144.6965  135.4065  153.4204 O   0  0  0  0  0  0  0  0  0  0  0  0
  145.5948  136.2837  151.5061 N   0  0  0  0  0  0  0  0  0  0  0  0
  145.5137  135.1227  150.6667 C   0  0  0  0  0  0  0  0  0  0  0  0
  144.7672  133.8780  151.1094 C   0  0  0  0  0  0  0  0  0  0  0  0
  146.2753  133.8867  151.0893 C   0  0  0  0  0  0  0  0  0  0  0  0
  146.3207  137.4805  151.1062 C   0  0  0  0  0  0  0  0  0  0  0  0
  151.2405  142.5652  156.9060 C   0  0  0  0  0  0  0  0  0  0  0  0
  151.6033  143.1784  158.0527 N   0  0  0  0  0  0  0  0  0  0  0  0
  152.6962  142.4459  161.1345 H   0  0  0  0  0  0  0  0  0  0  0  0
  151.5188  143.7057  160.7507 H   0  0  0  0  0  0  0  0  0  0  0  0
  153.1795  143.8337  160.1551 H   0  0  0  0  0  0  0  0  0  0  0  0
  152.2813  140.4066  159.9013 H   0  0  0  0  0  0  0  0  0  0  0  0
  151.6175  139.2860  157.7640 H   0  0  0  0  0  0  0  0  0  0  0  0
  151.6274  140.6998  154.6946 H   0  0  0  0  0  0  0  0  0  0  0  0
  150.7734  139.4504  155.5524 H   0  0  0  0  0  0  0  0  0  0  0  0
  148.7530  141.0807  155.6591 H   0  0  0  0  0  0  0  0  0  0  0  0
  149.6080  142.0945  154.5217 H   0  0  0  0  0  0  0  0  0  0  0  0
  149.5288  140.1299  152.9632 H   0  0  0  0  0  0  0  0  0  0  0  0
  148.1864  139.0581  151.9137 H   0  0  0  0  0  0  0  0  0  0  0  0
  145.4745  139.2521  152.0249 H   0  0  0  0  0  0  0  0  0  0  0  0
  146.3317  137.4699  154.2366 H   0  0  0  0  0  0  0  0  0  0  0  0
  144.7245  138.1180  153.8752 H   0  0  0  0  0  0  0  0  0  0  0  0
  145.4800  135.3178  149.5958 H   0  0  0  0  0  0  0  0  0  0  0  0
  144.2844  133.8584  152.0838 H   0  0  0  0  0  0  0  0  0  0  0  0
  144.2622  133.3008  150.3377 H   0  0  0  0  0  0  0  0  0  0  0  0
  146.7715  133.3125  150.3097 H   0  0  0  0  0  0  0  0  0  0  0  0
  146.7883  133.9094  152.0489 H   0  0  0  0  0  0  0  0  0  0  0  0
  145.9024  137.9099  150.1952 H   0  0  0  0  0  0  0  0  0  0  0  0
  147.3618  137.2163  150.9096 H   0  0  0  0  0  0  0  0  0  0  0  0
  150.9620  143.2150  156.0892 H   0  0  0  0  0  0  0  0  0  0  0  0
  1  2  1  0  0  0  0
  1 23  1  0  0  0  0
  1 24  1  0  0  0  0
  1 25  1  0  0  0  0
  2 22  1  0  0  0  0
  2  3  2  0  0  0  0
  3  4  1  0  0  0  0
  3 26  1  0  0  0  0
  4  5  2  0  0  0  0
  4 27  1  0  0  0  0
  5  6  1  0  0  0  0
  5 21  1  0  0  0  0
  6  7  1  0  0  0  0
  6 28  1  0  0  0  0
  6 29  1  0  0  0  0
  7  8  1  0  0  0  0
  7 30  1  0  0  0  0
  7 31  1  0  0  0  0
  8  9  1  0  0  0  0
  8 32  1  0  0  0  0
  9 10  2  0  0  0  0
  9 11  1  0  0  0  0
 11 12  1  0  0  0  0
 11 33  1  0  0  0  0
 12 20  1  0  0  0  0
 12 13  1  0  0  0  0
 12 34  1  0  0  0  0
 13 14  1  0  0  0  0
 13 35  1  0  0  0  0
 13 36  1  0  0  0  0
 14 15  2  0  0  0  0
 14 16  1  0  0  0  0
 16 17  1  0  0  0  0
 16 20  1  0  0  0  0
 17 19  1  0  0  0  0
 17 18  1  0  0  0  0
 17 37  1  0  0  0  0
 18 19  1  0  0  0  0
 18 38  1  0  0  0  0
 18 39  1  0  0  0  0
 19 40  1  0  0  0  0
 19 41  1  0  0  0  0
 20 42  1  0  0  0  0
 20 43  1  0  0  0  0
 21 22  2  0  0  0  0
 21 44  1  0  0  0  0
M  END
> <s_m_source_file>
AV-unprocessed.smi

> <i_m_source_file_index>
864

> <i_lp_mmshare_version>
43012

> <i_f3d_flags>
0

> <s_epik_input>
W0NIM11jMVtjSF1bY0hdYyhbY0hdbjEpW0NIMl1bQ0gyXVtOSF1DKD1PKVtOSF1bQ0BASF0yW0NIMl1DKD1PKU4oW0NIMl0yKVtDSF0zW0NIMl1bQ0gyXTM=

> <s_epik_cmdline>
J2VwaWtfcHl0aG9uJywgJy1waCcsICc3LjAnLCAnLXRuJywgJzgnLCAnLW1hJywgJzIwMCcsICctbWV0YWxfYmluZGluZycsICctaW1hZScsICc8aW5maWxlLm1hZT4nLCAnLW9tYWUnLCAnPG91dGZpbGUubWFlPic=

> <r_epik_Ionization_Penalty>
0.0559435

> <r_epik_Ionization_Penalty_Charging>
0

> <r_epik_Ionization_Penalty_Neutral>
0.0559435

> <r_epik_State_Penalty>
0.0481757

> <r_epik_Charging_Adjusted_Penalty>
0.0481757

> <i_epik_Tot_Q>
0

> <i_epik_Tot_abs_Q>
0

> <r_epik_Metal_State_Penalty>
0.0439988

> <b_epik_Metal_Only>
0

> <s_lp_Force_Field>
OPLS_2005

> <r_lp_Energy>
33.3792

> <b_lp_Chiralities_Consistent>
1

> <s_lp_Variant>
AV-unprocessed.smi:864-1

> <Gold.Version>
5.8.1

> <Gold.Id.Protein>
6NUR|6NUR_protein|mol2

> <Gold.PLP.Fitness>
46.6973

> <Gold.PLP.PLP>
-38.5318

> <Gold.PLP.part.hbond>
-2.1371

> <Gold.PLP.part.metal>
0.0000

> <Gold.PLP.part.buried>
0.4632

> <Gold.PLP.part.nonpolar>
-37.0943

> <Gold.PLP.part.repulsive>
0.4061

> <Gold.PLP.ligand.clash>
0.0000

> <Gold.PLP.ligand.torsion>
0.4876

> <Gold.PLP.Chemscore.Hbond>
1.9520

> <Gold.PLP.Chemscore.CHOScore>
1.0000

> <Gold.PLP.Chemscore.Metal>
0.0000

> <Gold.Chemscore.Hbonds>
donor molecule, donor type, donor heavy atom, donor atom, acceptor molecule, acceptor atom, score
      L1  H     8    32       P1  7957  0.96
      L1  H    11    33       P1  7957  0.91
      L1  C    21    44       P1  8028  0.85

> <Gold.PLP.Chemscore.Internal.Correction>
0.2846

> <Gold.Rescore>
     Score         DG    S(hbond)    S(metal)    S(lipo)     H(rot)  DE(clash)    DE(int)     intcor
     15.14     -19.50       1.90        0.00     103.94       1.75       1.10       3.27       ----

> <Gold.Chemscore.Fitness>
15.1357

> <Gold.Chemscore.DG>
-19.5044

> <Gold.Chemscore.ZeroCoef>
-5.4800

> <Gold.Chemscore.Hbond>
1.9005

> <Gold.Chemscore.Metal>
0.0000

> <Gold.Chemscore.Lipo>
103.9434

> <Gold.Chemscore.Internal_Hbond>
0.0000

> <Gold.Chemscore.DEClash>
1.1001

> <Gold.Chemscore.DEInternal>
3.2686

> <Gold.Chemscore.Rot>
1.7518

> <Gold.Chemscore.Internal.Correction>
   9.000000E+99

> <Gold.Chemscore.Hbonds>
donor molecule, donor type, donor heavy atom, donor atom, acceptor molecule, acceptor atom, score
      L1  H     8    32       P1  7957  0.92
      L1  H    11    33       P1  7957  0.88

> <Gold.Chemscore.Hbond.Weighted>
-6.3477

> <Gold.Chemscore.Metal.Weighted>
-0.0000

> <Gold.Chemscore.Lipo.Weighted>
-12.1614

> <Gold.Chemscore.Internal_Hbond.Weighted>
0.0000

> <Gold.Chemscore.DEClash.Weighted>
1.1001

> <Gold.Chemscore.DEInternal.Weighted>
3.2686

> <Gold.Chemscore.Rot.Weighted>
4.4846

> <Gold.Chemscore.Internal.Correction.Weighted>
   9.000000E+99

> <Gold.Protein.RotatedTorsions>
[ 6907 6896 6895 6894 ] final   -2.54 input  -60.11 | X-H torsion
[ 7974 7965 7964 7962 ] final  -78.73 input  175.53 | X-H torsion
[ 8008 7997 7996 7995 ] final -121.09 input   59.86 | X-H torsion
[ 10167 10162 10161 10158 ] final -177.36 input  -65.29 | X-H torsion
[ 10718 10713 10712 10709 ] final -113.18 input   66.30 | X-H torsion
[ 10763 10752 10751 10750 ] final  113.66 input  -60.55 | X-H torsion
[ 11005 11000 10999 10996 ] final  -50.72 input  -57.11 | X-H torsion

> <Gold.Protein.ActiveResidues>
 VAL166  LYS551  ARG553  GLY616  TRP617  ASP618  TYR619  PRO620  LYS621  CYS622 
 ASP623  PHE694  ASN695  SER759  ASP760  ASP761  ALA762  ILE779  LEU786  VAL792 
 PHE793  MET794  SER795  GLU796  ALA797  LYS798  CYS799  TRP800  GLU811  SER814 

> <Gold.Protein.RotatedAtoms>
  151.5282  135.1068  159.9895 H   0  0  0  0  0  0  0  0  0  0  0  0  # atno 6907 bound_to 6896
  152.4590  133.7778  159.6845 H   0  0  0  0  0  0  0  0  0  0  0  0  # atno 6908 bound_to 6896
  150.8544  133.7672  159.3039 H   0  0  0  0  0  0  0  0  0  0  0  0  # atno 6909 bound_to 6896
  145.5826  140.9445  143.1335 H   0  0  0  0  0  0  0  0  0  0  0  0  # atno 7974 bound_to 7965
  155.1424  140.0402  157.2801 H   0  0  0  0  0  0  0  0  0  0  0  0  # atno 8008 bound_to 7997
  154.6463  140.2559  155.7237 H   0  0  0  0  0  0  0  0  0  0  0  0  # atno 8009 bound_to 7997
  156.2556  140.2845  156.0878 H   0  0  0  0  0  0  0  0  0  0  0  0  # atno 8010 bound_to 7997
  139.5484  144.2174  152.1031 H   0  0  0  0  0  0  0  0  0  0  0  0  # atno 10167 bound_to 10162
  156.0750  130.5959  150.8607 H   0  0  0  0  0  0  0  0  0  0  0  0  # atno 10718 bound_to 10713
  153.4958  135.3649  155.2515 H   0  0  0  0  0  0  0  0  0  0  0  0  # atno 10763 bound_to 10752
  154.8750  135.3988  154.3536 H   0  0  0  0  0  0  0  0  0  0  0  0  # atno 10764 bound_to 10752
  153.4163  135.7079  153.6390 H   0  0  0  0  0  0  0  0  0  0  0  0  # atno 10765 bound_to 10752
  141.0831  133.6648  156.3772 H   0  0  0  0  0  0  0  0  0  0  0  0  # atno 11005 bound_to 11000
  144.7387  139.7511  143.7319 LP  0  0  0  0  0  0  0  0  0  0  0  0  # atno 17320 bound_to 7965
  146.1705  139.4854  142.9930 LP  0  0  0  0  0  0  0  0  0  0  0  0  # atno 17321 bound_to 7965
  140.1665  144.4976  150.6603 LP  0  0  0  0  0  0  0  0  0  0  0  0  # atno 17342 bound_to 10162
  140.6739  143.2297  151.5555 LP  0  0  0  0  0  0  0  0  0  0  0  0  # atno 17343 bound_to 10162
  157.5841  131.0946  150.9224 LP  0  0  0  0  0  0  0  0  0  0  0  0  # atno 17370 bound_to 10713
  156.9413  130.5385  149.5280 LP  0  0  0  0  0  0  0  0  0  0  0  0  # atno 17371 bound_to 10713
  140.5423  134.6108  157.5383 LP  0  0  0  0  0  0  0  0  0  0  0  0  # atno 17394 bound_to 11000
  139.9647  134.7393  156.0163 LP  0  0  0  0  0  0  0  0  0  0  0  0  # atno 17395 bound_to 11000

$$$$
