AV-unprocessed.smi:1867|AV-procd|sdf|7560|dock8
  -GOLD-   22720 9273D 1   1.00000     0.00000
 Structure written by MMmdl.
 52 55  0  0  0  0  0  0  0  0  2 V2000
  148.7071  135.3048  156.1589 O   0  0  0  0  0  0  0  0  0  0  0  0
  148.9205  135.5225  154.9685 C   0  0  0  0  0  0  0  0  0  0  0  0
  149.4601  136.6565  154.4802 N   0  0  0  0  0  0  0  0  0  0  0  0
  149.9651  137.7743  155.1966 C   0  0  0  0  0  0  0  0  0  0  0  0
  150.2210  137.7781  156.5871 C   0  0  0  0  0  0  0  0  0  0  0  0
  150.7468  138.9414  157.1808 C   0  0  0  0  0  0  0  0  0  0  0  0
  151.0129  140.0710  156.3708 C   0  0  0  0  0  0  0  0  0  0  0  0
  151.5325  141.2579  156.9248 N   0  0  0  0  0  0  0  0  0  0  0  0
  151.0736  142.5749  156.5141 C   0  0  0  0  0  0  0  0  0  0  0  0
  151.7975  143.5478  157.4446 C   0  0  0  0  0  0  0  0  0  0  0  0
  151.9606  142.7431  158.7341 C   0  0  0  0  0  0  0  0  0  0  0  0
  152.1356  141.2995  158.2509 C   0  0  0  0  0  0  0  0  0  0  0  0
  150.7735  140.0613  155.0377 N   0  0  0  0  0  0  0  0  0  0  0  0
  150.2719  138.9434  154.4729 C   0  0  0  0  0  0  0  0  0  0  0  0
  148.5782  134.6248  154.0277 N   0  0  0  0  0  0  0  0  0  0  0  0
  147.9747  133.3058  154.2190 C   0  0  2  0  0  0  0  0  0  0  0  0
  148.9948  132.1537  154.3100 C   0  0  0  0  0  0  0  0  0  0  0  0
  148.3536  130.9774  153.5465 C   0  0  0  0  0  0  0  0  0  0  0  0
  147.0083  131.4474  153.1646 N   0  3  2  0  0  0  0  0  0  0  0  0
  146.3709  130.8001  151.9972 C   0  0  0  0  0  0  0  0  0  0  0  0
  144.9492  131.3695  151.8149 C   0  0  0  0  0  0  0  0  0  0  0  0
  144.9544  132.9105  151.7388 C   0  0  0  0  0  0  0  0  0  0  0  0
  145.7146  133.5245  152.9305 C   0  0  0  0  0  0  0  0  0  0  0  0
  147.1194  132.9062  153.0171 C   0  0  1  0  0  0  0  0  0  0  0  0
  149.4748  136.7451  153.4750 H   0  0  0  0  0  0  0  0  0  0  0  0
  150.0407  136.9128  157.2058 H   0  0  0  0  0  0  0  0  0  0  0  0
  150.9391  138.9461  158.2430 H   0  0  0  0  0  0  0  0  0  0  0  0
  151.3052  142.7758  155.4676 H   0  0  0  0  0  0  0  0  0  0  0  0
  149.9936  142.6417  156.6510 H   0  0  0  0  0  0  0  0  0  0  0  0
  152.7797  143.7886  157.0357 H   0  0  0  0  0  0  0  0  0  0  0  0
  151.2529  144.4812  157.5887 H   0  0  0  0  0  0  0  0  0  0  0  0
  152.7921  143.0874  159.3495 H   0  0  0  0  0  0  0  0  0  0  0  0
  151.0491  142.8206  159.3284 H   0  0  0  0  0  0  0  0  0  0  0  0
  151.6715  140.5969  158.9441 H   0  0  0  0  0  0  0  0  0  0  0  0
  153.1927  141.0469  158.1625 H   0  0  0  0  0  0  0  0  0  0  0  0
  150.1061  138.9876  153.4064 H   0  0  0  0  0  0  0  0  0  0  0  0
  148.7086  134.9141  153.0689 H   0  0  0  0  0  0  0  0  0  0  0  0
  147.3438  133.3040  155.1104 H   0  0  0  0  0  0  0  0  0  0  0  0
  149.9433  132.4234  153.8427 H   0  0  0  0  0  0  0  0  0  0  0  0
  149.2041  131.8964  155.3490 H   0  0  0  0  0  0  0  0  0  0  0  0
  148.9387  130.7477  152.6544 H   0  0  0  0  0  0  0  0  0  0  0  0
  148.2897  130.0730  154.1521 H   0  0  0  0  0  0  0  0  0  0  0  0
  146.9699  130.9736  151.1020 H   0  0  0  0  0  0  0  0  0  0  0  0
  146.3276  129.7217  152.1540 H   0  0  0  0  0  0  0  0  0  0  0  0
  144.4912  130.9519  150.9178 H   0  0  0  0  0  0  0  0  0  0  0  0
  144.3256  131.0541  152.6525 H   0  0  0  0  0  0  0  0  0  0  0  0
  145.4260  133.2251  150.8069 H   0  0  0  0  0  0  0  0  0  0  0  0
  143.9319  133.2884  151.7100 H   0  0  0  0  0  0  0  0  0  0  0  0
  145.7834  134.6066  152.8150 H   0  0  0  0  0  0  0  0  0  0  0  0
  145.1644  133.3418  153.8547 H   0  0  0  0  0  0  0  0  0  0  0  0
  147.6690  133.1207  152.0972 H   0  0  0  0  0  0  0  0  0  0  0  0
  146.4098  131.2856  153.9620 H   0  0  0  0  0  0  0  0  0  0  0  0
  1  2  2  0  0  0  0
  2  3  1  0  0  0  0
  2 15  1  0  0  0  0
  3  4  1  0  0  0  0
  3 25  1  0  0  0  0
  4 14  1  0  0  0  0
  4  5  2  0  0  0  0
  5  6  1  0  0  0  0
  5 26  1  0  0  0  0
  6  7  2  0  0  0  0
  6 27  1  0  0  0  0
  7  8  1  0  0  0  0
  7 13  1  0  0  0  0
  8 12  1  0  0  0  0
  8  9  1  0  0  0  0
  9 10  1  0  0  0  0
  9 28  1  0  0  0  0
  9 29  1  0  0  0  0
 10 11  1  0  0  0  0
 10 30  1  0  0  0  0
 10 31  1  0  0  0  0
 11 12  1  0  0  0  0
 11 32  1  0  0  0  0
 11 33  1  0  0  0  0
 12 34  1  0  0  0  0
 12 35  1  0  0  0  0
 13 14  2  0  0  0  0
 14 36  1  0  0  0  0
 15 16  1  0  0  0  0
 15 37  1  0  0  0  0
 16 24  1  0  0  0  0
 16 17  1  0  0  0  0
 16 38  1  0  0  0  0
 17 18  1  0  0  0  0
 17 39  1  0  0  0  0
 17 40  1  0  0  0  0
 18 19  1  0  0  0  0
 18 41  1  0  0  0  0
 18 42  1  0  0  0  0
 19 24  1  0  0  0  0
 19 20  1  0  0  0  0
 19 52  1  0  0  0  0
 20 21  1  0  0  0  0
 20 43  1  0  0  0  0
 20 44  1  0  0  0  0
 21 22  1  0  0  0  0
 21 45  1  0  0  0  0
 21 46  1  0  0  0  0
 22 23  1  0  0  0  0
 22 47  1  0  0  0  0
 22 48  1  0  0  0  0
 23 24  1  0  0  0  0
 23 49  1  0  0  0  0
 23 50  1  0  0  0  0
 24 51  1  0  0  0  0
M  CHG  1  19   1
M  END
> <s_m_source_file>
AV-unprocessed.smi

> <i_m_source_file_index>
1867

> <i_lp_mmshare_version>
43012

> <i_f3d_flags>
0

> <s_epik_input>
W0NIMl0xW0NIMl1bQ0gyXVtDSDJdW0NASF0oTjEyKVtDQEBIXShbQ0gyXVtDSDJdMilbTkhdQyg9TylbTkhdYzNbY0hdW2NIXWMobltjSF0zKU40W0NIMl1bQ0gyXVtDSDJdW0NIMl00

> <s_epik_cmdline>
J2VwaWtfcHl0aG9uJywgJy1waCcsICc3LjAnLCAnLXRuJywgJzgnLCAnLW1hJywgJzIwMCcsICctbWV0YWxfYmluZGluZycsICctaW1hZScsICc8aW5maWxlLm1hZT4nLCAnLW9tYWUnLCAnPG91dGZpbGUubWFlPic=

> <r_lp_tautomer_probability>
1

> <r_epik_Ionization_Penalty>
0.0751123

> <r_epik_Ionization_Penalty_Charging>
0.000974069

> <r_epik_Ionization_Penalty_Neutral>
0.0741382

> <r_epik_State_Penalty>
0.0647261

> <r_epik_Charging_Adjusted_Penalty>
0.0657002

> <i_epik_Tot_Q>
1

> <i_epik_Tot_abs_Q>
1

> <r_epik_Metal_State_Penalty>
0.0580571

> <b_epik_Metal_Only>
0

> <s_lp_Force_Field>
OPLS_2005

> <r_lp_Energy>
71.0604

> <b_lp_Chiralities_Consistent>
1

> <s_lp_Variant>
AV-unprocessed.smi:1867-1

> <Gold.Version>
5.8.1

> <Gold.Id.Protein>
6NUR|6NUR_protein|mol2

> <Gold.PLP.Fitness>
45.7536

> <Gold.PLP.PLP>
-35.1428

> <Gold.PLP.part.hbond>
-3.0000

> <Gold.PLP.part.metal>
0.0000

> <Gold.PLP.part.buried>
-1.6634

> <Gold.PLP.part.nonpolar>
-29.4851

> <Gold.PLP.part.repulsive>
0.0998

> <Gold.PLP.ligand.clash>
0.0000

> <Gold.PLP.ligand.torsion>
0.7708

> <Gold.PLP.Chemscore.Hbond>
3.0000

> <Gold.PLP.Chemscore.CHOScore>
1.0000

> <Gold.PLP.Chemscore.Metal>
0.0000

> <Gold.Chemscore.Hbonds>
donor molecule, donor type, donor heavy atom, donor atom, acceptor molecule, acceptor atom, score
      L1  H     3    25       P1  7948  1.00
      L1  H    15    37       P1  7948  1.00
      P1  H  7989  7998       L1    13  1.00
      L1  C    14    36       P1  7957  1.00

> <Gold.PLP.Chemscore.Internal.Correction>
0.1524

> <Gold.Rescore>
     Score         DG    S(hbond)    S(metal)    S(lipo)     H(rot)  DE(clash)    DE(int)     intcor
     19.48     -21.73       2.23        0.00      96.98       1.00       0.29       1.96       ----

> <Gold.Chemscore.Fitness>
19.4752

> <Gold.Chemscore.DG>
-21.7319

> <Gold.Chemscore.ZeroCoef>
-5.4800

> <Gold.Chemscore.Hbond>
2.2350

> <Gold.Chemscore.Metal>
0.0000

> <Gold.Chemscore.Lipo>
96.9832

> <Gold.Chemscore.Internal_Hbond>
0.0000

> <Gold.Chemscore.DEClash>
0.2925

> <Gold.Chemscore.DEInternal>
1.9641

> <Gold.Chemscore.Rot>
1.0000

> <Gold.Chemscore.Internal.Correction>
   9.000000E+99

> <Gold.Chemscore.Hbonds>
donor molecule, donor type, donor heavy atom, donor atom, acceptor molecule, acceptor atom, score
      L1  H     3    25       P1  7948  0.79
      L1  H    15    37       P1  7948  0.38
      P1  H  7989  7998       L1    13  0.25

> <Gold.Chemscore.Hbond.Weighted>
-7.4648

> <Gold.Chemscore.Metal.Weighted>
-0.0000

> <Gold.Chemscore.Lipo.Weighted>
-11.3470

> <Gold.Chemscore.Internal_Hbond.Weighted>
0.0000

> <Gold.Chemscore.DEClash.Weighted>
0.2925

> <Gold.Chemscore.DEInternal.Weighted>
1.9641

> <Gold.Chemscore.Rot.Weighted>
2.5600

> <Gold.Chemscore.Internal.Correction.Weighted>
   9.000000E+99

> <Gold.Protein.RotatedTorsions>
[ 6907 6896 6895 6894 ] final -112.21 input  -60.11 | X-H torsion
[ 7974 7965 7964 7962 ] final  163.64 input  175.53 | X-H torsion
[ 8008 7997 7996 7995 ] final   23.32 input   59.86 | X-H torsion
[ 10167 10162 10161 10158 ] final  -28.96 input  -65.29 | X-H torsion
[ 10718 10713 10712 10709 ] final   27.33 input   66.30 | X-H torsion
[ 10763 10752 10751 10750 ] final -145.90 input  -60.55 | X-H torsion
[ 11005 11000 10999 10996 ] final   -5.42 input  -57.11 | X-H torsion

> <Gold.Protein.ActiveResidues>
 VAL166  LYS551  ARG553  GLY616  TRP617  ASP618  TYR619  PRO620  LYS621  CYS622 
 ASP623  PHE694  ASN695  SER759  ASP760  ASP761  ALA762  ILE779  LEU786  VAL792 
 PHE793  MET794  SER795  GLU796  ALA797  LYS798  CYS799  TRP800  GLU811  SER814 

> <Gold.Protein.RotatedAtoms>
  150.7743  133.9122  159.3372 H   0  0  0  0  0  0  0  0  0  0  0  0  # atno 6907 bound_to 6896
  151.7001  135.0929  160.0259 H   0  0  0  0  0  0  0  0  0  0  0  0  # atno 6908 bound_to 6896
  152.3773  133.6460  159.6169 H   0  0  0  0  0  0  0  0  0  0  0  0  # atno 6909 bound_to 6896
  144.7580  139.8212  143.6343 H   0  0  0  0  0  0  0  0  0  0  0  0  # atno 7974 bound_to 7965
  154.9791  140.3100  155.4954 H   0  0  0  0  0  0  0  0  0  0  0  0  # atno 8008 bound_to 7997
  156.2956  140.2270  156.4829 H   0  0  0  0  0  0  0  0  0  0  0  0  # atno 8009 bound_to 7997
  154.7806  140.0446  157.1112 H   0  0  0  0  0  0  0  0  0  0  0  0  # atno 8010 bound_to 7997
  140.7265  143.3967  151.1334 H   0  0  0  0  0  0  0  0  0  0  0  0  # atno 10167 bound_to 10162
  157.2188  130.6969  149.6260 H   0  0  0  0  0  0  0  0  0  0  0  0  # atno 10718 bound_to 10713
  154.8361  135.3401  154.6577 H   0  0  0  0  0  0  0  0  0  0  0  0  # atno 10763 bound_to 10752
  153.7192  135.6959  153.5022 H   0  0  0  0  0  0  0  0  0  0  0  0  # atno 10764 bound_to 10752
  153.2394  135.4390  155.0634 H   0  0  0  0  0  0  0  0  0  0  0  0  # atno 10765 bound_to 10752
  140.6910  133.9071  155.8618 H   0  0  0  0  0  0  0  0  0  0  0  0  # atno 11005 bound_to 11000
  146.1613  139.4728  142.9986 LP  0  0  0  0  0  0  0  0  0  0  0  0  # atno 17320 bound_to 7965
  145.6713  141.0216  143.1656 LP  0  0  0  0  0  0  0  0  0  0  0  0  # atno 17321 bound_to 7965
  139.7581  143.8676  152.3094 LP  0  0  0  0  0  0  0  0  0  0  0  0  # atno 17342 bound_to 10162
  139.8553  144.7144  150.9165 LP  0  0  0  0  0  0  0  0  0  0  0  0  # atno 17343 bound_to 10162
  155.9684  130.4527  150.5783 LP  0  0  0  0  0  0  0  0  0  0  0  0  # atno 17370 bound_to 10713
  157.3597  131.0748  151.1646 LP  0  0  0  0  0  0  0  0  0  0  0  0  # atno 17371 bound_to 10713
  141.0241  134.0847  157.4088 LP  0  0  0  0  0  0  0  0  0  0  0  0  # atno 17394 bound_to 11000
  139.8923  135.0124  156.6841 LP  0  0  0  0  0  0  0  0  0  0  0  0  # atno 17395 bound_to 11000

$$$$
