AV-unprocessed.smi:1905|AV-procd|sdf|7726|dock9
  -GOLD-   22720 9463D 1   1.00000     0.00000
 Structure written by MMmdl.
 38 39  0  0  0  0  0  0  0  0  1 V2000
  151.3513  136.8708  155.4320 C   0  0  0  0  0  0  0  0  0  0  0  0
  150.9884  138.0876  154.5779 C   0  0  0  0  0  0  0  0  0  0  0  0
  149.5911  138.0512  154.3051 O   0  0  0  0  0  0  0  0  0  0  0  0
  148.9054  139.2452  154.1841 C   0  0  0  0  0  0  0  0  0  0  0  0
  149.3464  140.3168  154.8894 N   0  0  0  0  0  0  0  0  0  0  0  0
  148.6807  141.4833  154.7691 C   0  0  0  0  0  0  0  0  0  0  0  0
  147.5541  141.6449  153.9426 C   0  0  0  0  0  0  0  0  0  0  0  0
  147.0944  140.5349  153.2097 C   0  0  0  0  0  0  0  0  0  0  0  0
  147.7755  139.2988  153.3343 C   0  0  0  0  0  0  0  0  0  0  0  0
  147.4151  138.1117  152.6363 N   0  0  0  0  0  0  0  0  0  0  0  0
  146.1953  137.6201  152.3596 C   0  0  0  0  0  0  0  0  0  0  0  0
  145.1247  138.1312  152.6856 O   0  0  0  0  0  0  0  0  0  0  0  0
  146.2860  136.4686  151.6798 N   0  0  0  0  0  0  0  0  0  0  0  0
  145.1540  135.6708  151.2205 C   0  0  0  0  0  0  0  0  0  0  0  0
  145.2926  134.1824  151.5965 C   0  0  1  0  0  0  0  0  0  0  0  0
  144.0697  133.3407  151.2494 C   0  0  0  0  0  0  0  0  0  0  0  0
  144.6494  132.0116  150.7530 C   0  0  0  0  0  0  0  0  0  0  0  0
  146.0436  132.0859  151.0140 O   0  0  0  0  0  0  0  0  0  0  0  0
  146.4240  133.4444  150.8827 C   0  0  0  0  0  0  0  0  0  0  0  0
  152.4173  136.8582  155.6603 H   0  0  0  0  0  0  0  0  0  0  0  0
  151.1091  135.9428  154.9137 H   0  0  0  0  0  0  0  0  0  0  0  0
  150.8067  136.8798  156.3765 H   0  0  0  0  0  0  0  0  0  0  0  0
  151.2511  139.0014  155.1136 H   0  0  0  0  0  0  0  0  0  0  0  0
  151.5574  138.0644  153.6470 H   0  0  0  0  0  0  0  0  0  0  0  0
  149.0602  142.3135  155.3462 H   0  0  0  0  0  0  0  0  0  0  0  0
  147.0553  142.5999  153.8700 H   0  0  0  0  0  0  0  0  0  0  0  0
  146.2404  140.6635  152.5644 H   0  0  0  0  0  0  0  0  0  0  0  0
  148.1939  137.5390  152.3453 H   0  0  0  0  0  0  0  0  0  0  0  0
  147.2071  136.1204  151.4572 H   0  0  0  0  0  0  0  0  0  0  0  0
  144.2266  136.0778  151.6265 H   0  0  0  0  0  0  0  0  0  0  0  0
  145.0896  135.7778  150.1374 H   0  0  0  0  0  0  0  0  0  0  0  0
  145.4616  134.0939  152.6711 H   0  0  0  0  0  0  0  0  0  0  0  0
  143.4315  133.2030  152.1229 H   0  0  0  0  0  0  0  0  0  0  0  0
  143.4648  133.8010  150.4672 H   0  0  0  0  0  0  0  0  0  0  0  0
  144.2048  131.1492  151.2499 H   0  0  0  0  0  0  0  0  0  0  0  0
  144.4920  131.9034  149.6790 H   0  0  0  0  0  0  0  0  0  0  0  0
  146.4715  133.7121  149.8257 H   0  0  0  0  0  0  0  0  0  0  0  0
  147.3996  133.6324  151.3319 H   0  0  0  0  0  0  0  0  0  0  0  0
  1  2  1  0  0  0  0
  1 20  1  0  0  0  0
  1 21  1  0  0  0  0
  1 22  1  0  0  0  0
  2  3  1  0  0  0  0
  2 23  1  0  0  0  0
  2 24  1  0  0  0  0
  3  4  1  0  0  0  0
  4  9  1  0  0  0  0
  4  5  2  0  0  0  0
  5  6  1  0  0  0  0
  6  7  2  0  0  0  0
  6 25  1  0  0  0  0
  7  8  1  0  0  0  0
  7 26  1  0  0  0  0
  8  9  2  0  0  0  0
  8 27  1  0  0  0  0
  9 10  1  0  0  0  0
 10 11  1  0  0  0  0
 10 28  1  0  0  0  0
 11 12  2  0  0  0  0
 11 13  1  0  0  0  0
 13 14  1  0  0  0  0
 13 29  1  0  0  0  0
 14 15  1  0  0  0  0
 14 30  1  0  0  0  0
 14 31  1  0  0  0  0
 15 19  1  0  0  0  0
 15 16  1  0  0  0  0
 15 32  1  0  0  0  0
 16 17  1  0  0  0  0
 16 33  1  0  0  0  0
 16 34  1  0  0  0  0
 17 18  1  0  0  0  0
 17 35  1  0  0  0  0
 17 36  1  0  0  0  0
 18 19  1  0  0  0  0
 19 37  1  0  0  0  0
 19 38  1  0  0  0  0
M  END
> <s_m_source_file>
AV-unprocessed.smi

> <i_m_source_file_index>
1905

> <i_lp_mmshare_version>
43012

> <i_f3d_flags>
0

> <s_epik_input>
W0NIM11bQ0gyXU9jMW5bY0hdW2NIXVtjSF1jMVtOSF1DKD1PKVtOSF1bQ0gyXVtDQEBIXTJbQ0gyXVtDSDJdT1tDSDJdMg==

> <s_epik_cmdline>
J2VwaWtfcHl0aG9uJywgJy1waCcsICc3LjAnLCAnLXRuJywgJzgnLCAnLW1hJywgJzIwMCcsICctbWV0YWxfYmluZGluZycsICctaW1hZScsICc8aW5maWxlLm1hZT4nLCAnLW9tYWUnLCAnPG91dGZpbGUubWFlPic=

> <r_lp_tautomer_probability>
1

> <r_epik_Ionization_Penalty>
0.000115153

> <r_epik_Ionization_Penalty_Charging>
0

> <r_epik_Ionization_Penalty_Neutral>
0.000115153

> <r_epik_State_Penalty>
-0

> <r_epik_Charging_Adjusted_Penalty>
0

> <i_epik_Tot_Q>
0

> <i_epik_Tot_abs_Q>
0

> <r_epik_Metal_State_Penalty>
-0

> <b_epik_Metal_Only>
0

> <s_lp_Force_Field>
OPLS_2005

> <r_lp_Energy>
21.5364

> <b_lp_Chiralities_Consistent>
1

> <s_lp_Variant>
AV-unprocessed.smi:1905-2

> <Gold.Version>
5.8.1

> <Gold.Id.Protein>
6NUR|6NUR_protein|mol2

> <Gold.PLP.Fitness>
39.0648

> <Gold.PLP.PLP>
-32.1357

> <Gold.PLP.part.hbond>
-2.3301

> <Gold.PLP.part.metal>
0.0000

> <Gold.PLP.part.buried>
-4.3546

> <Gold.PLP.part.nonpolar>
-29.8352

> <Gold.PLP.part.repulsive>
3.6190

> <Gold.PLP.ligand.clash>
0.0000

> <Gold.PLP.ligand.torsion>
0.9542

> <Gold.PLP.Chemscore.Hbond>
1.9440

> <Gold.PLP.Chemscore.CHOScore>
1.0000

> <Gold.PLP.Chemscore.Metal>
0.0000

> <Gold.Chemscore.Hbonds>
donor molecule, donor type, donor heavy atom, donor atom, acceptor molecule, acceptor atom, score
      L1  H    10    28       P1  7948  1.00
      L1  H    13    29       P1  7948  0.93
      L1  C     6    25       P1  8028  1.00

> <Gold.PLP.Chemscore.Internal.Correction>
0.0055

> <Gold.Rescore>
     Score         DG    S(hbond)    S(metal)    S(lipo)     H(rot)  DE(clash)    DE(int)     intcor
     13.91     -16.42       1.92        0.00      74.10       1.61       1.67       0.84       ----

> <Gold.Chemscore.Fitness>
13.9088

> <Gold.Chemscore.DG>
-16.4167

> <Gold.Chemscore.ZeroCoef>
-5.4800

> <Gold.Chemscore.Hbond>
1.9152

> <Gold.Chemscore.Metal>
0.0000

> <Gold.Chemscore.Lipo>
74.0981

> <Gold.Chemscore.Internal_Hbond>
0.0000

> <Gold.Chemscore.DEClash>
1.6686

> <Gold.Chemscore.DEInternal>
0.8393

> <Gold.Chemscore.Rot>
1.6131

> <Gold.Chemscore.Internal.Correction>
   9.000000E+99

> <Gold.Chemscore.Hbonds>
donor molecule, donor type, donor heavy atom, donor atom, acceptor molecule, acceptor atom, score
      L1  H    10    28       P1  7948  0.96
      L1  H    13    29       P1  7948  0.90

> <Gold.Chemscore.Hbond.Weighted>
-6.3968

> <Gold.Chemscore.Metal.Weighted>
-0.0000

> <Gold.Chemscore.Lipo.Weighted>
-8.6695

> <Gold.Chemscore.Internal_Hbond.Weighted>
0.0000

> <Gold.Chemscore.DEClash.Weighted>
1.6686

> <Gold.Chemscore.DEInternal.Weighted>
0.8393

> <Gold.Chemscore.Rot.Weighted>
4.1296

> <Gold.Chemscore.Internal.Correction.Weighted>
   9.000000E+99

> <Gold.Protein.RotatedTorsions>
[ 6907 6896 6895 6894 ] final  -35.32 input  -60.11 | X-H torsion
[ 7974 7965 7964 7962 ] final -107.00 input  175.53 | X-H torsion
[ 8008 7997 7996 7995 ] final  -43.62 input   59.86 | X-H torsion
[ 10167 10162 10161 10158 ] final   93.76 input  -65.29 | X-H torsion
[ 10718 10713 10712 10709 ] final -157.20 input   66.30 | X-H torsion
[ 10763 10752 10751 10750 ] final   89.66 input  -60.55 | X-H torsion
[ 11005 11000 10999 10996 ] final  -15.24 input  -57.11 | X-H torsion

> <Gold.Protein.ActiveResidues>
 VAL166  LYS551  ARG553  GLY616  TRP617  ASP618  TYR619  PRO620  LYS621  CYS622 
 ASP623  PHE694  ASN695  SER759  ASP760  ASP761  ALA762  ILE779  LEU786  VAL792 
 PHE793  MET794  SER795  GLU796  ALA797  LYS798  CYS799  TRP800  GLU811  SER814 

> <Gold.Protein.RotatedAtoms>
  151.0412  134.9609  159.8162 H   0  0  0  0  0  0  0  0  0  0  0  0  # atno 6907 bound_to 6896
  152.5364  134.2655  159.8961 H   0  0  0  0  0  0  0  0  0  0  0  0  # atno 6908 bound_to 6896
  151.2667  133.4232  159.2653 H   0  0  0  0  0  0  0  0  0  0  0  0  # atno 6909 bound_to 6896
  145.2108  140.9095  143.3315 H   0  0  0  0  0  0  0  0  0  0  0  0  # atno 7974 bound_to 7965
  154.3997  140.1443  156.3549 H   0  0  0  0  0  0  0  0  0  0  0  0  # atno 8008 bound_to 7997
  155.8234  140.3468  155.5507 H   0  0  0  0  0  0  0  0  0  0  0  0  # atno 8009 bound_to 7997
  155.8264  140.0905  157.1809 H   0  0  0  0  0  0  0  0  0  0  0  0  # atno 8010 bound_to 7997
  139.8149  144.6757  150.9593 H   0  0  0  0  0  0  0  0  0  0  0  0  # atno 10167 bound_to 10162
  156.5371  130.8546  151.2736 H   0  0  0  0  0  0  0  0  0  0  0  0  # atno 10718 bound_to 10713
  153.1894  135.4462  155.0130 H   0  0  0  0  0  0  0  0  0  0  0  0  # atno 10763 bound_to 10752
  154.8081  135.3283  154.7381 H   0  0  0  0  0  0  0  0  0  0  0  0  # atno 10764 bound_to 10752
  153.7836  135.6975  153.4939 H   0  0  0  0  0  0  0  0  0  0  0  0  # atno 10765 bound_to 10752
  140.7946  133.8261  155.9412 H   0  0  0  0  0  0  0  0  0  0  0  0  # atno 11005 bound_to 11000
  144.9858  139.3738  143.6239 LP  0  0  0  0  0  0  0  0  0  0  0  0  # atno 17320 bound_to 7965
  146.3398  139.9018  142.8793 LP  0  0  0  0  0  0  0  0  0  0  0  0  # atno 17321 bound_to 7965
  140.7816  143.4149  151.0934 LP  0  0  0  0  0  0  0  0  0  0  0  0  # atno 17342 bound_to 10162
  139.7813  143.8351  152.3138 LP  0  0  0  0  0  0  0  0  0  0  0  0  # atno 17343 bound_to 10162
  157.7412  130.9865  150.2428 LP  0  0  0  0  0  0  0  0  0  0  0  0  # atno 17370 bound_to 10713
  156.3006  130.3758  149.7754 LP  0  0  0  0  0  0  0  0  0  0  0  0  # atno 17371 bound_to 10713
  140.9356  134.1967  157.4834 LP  0  0  0  0  0  0  0  0  0  0  0  0  # atno 17394 bound_to 11000
  139.8727  134.9851  156.5266 LP  0  0  0  0  0  0  0  0  0  0  0  0  # atno 17395 bound_to 11000

$$$$
