AV-unprocessed.smi:1005|AV-procd|sdf|4374|dock7
  -GOLD-   22720 2283D 1   1.00000     0.00000
 Structure written by MMmdl.
 57 59  0  0  0  0  0  0  0  0  3 V2000
  152.7240  143.7331  161.6243 C   0  0  0  0  0  0  0  0  0  0  0  0
  152.2137  143.1301  160.3264 C   0  0  0  0  0  0  0  0  0  0  0  0
  152.2505  141.7252  160.1751 C   0  0  0  0  0  0  0  0  0  0  0  0
  151.7758  141.2037  158.9774 C   0  0  0  0  0  0  0  0  0  0  0  0
  151.6754  139.8852  158.5274 N   0  3  0  0  0  0  0  0  0  0  0  0
  151.1405  139.8718  157.2747 C   0  0  0  0  0  0  0  0  0  0  0  0
  150.8990  141.1628  156.9192 N   0  0  0  0  0  0  0  0  0  0  0  0
  150.3255  141.7129  155.6843 C   0  0  0  0  0  0  0  0  0  0  0  0
  149.5715  140.6544  154.8569 C   0  0  2  0  0  0  0  0  0  0  0  0
  149.6861  140.9790  153.4852 O   0  0  0  0  0  0  0  0  0  0  0  0
  148.0767  140.6032  155.2304 C   0  0  0  0  0  0  0  0  0  0  0  0
  147.3653  141.8818  155.1696 N   0  0  0  0  0  0  0  0  0  0  0  0
  146.7833  142.1435  153.8546 C   0  0  0  0  0  0  0  0  0  0  0  0
  146.0062  143.4696  153.8262 C   0  0  0  0  0  0  0  0  0  0  0  0
  145.0126  143.4619  154.8458 O   0  0  0  0  0  0  0  0  0  0  0  0
  145.5505  143.2821  156.1536 C   0  0  1  0  0  0  0  0  0  0  0  0
  144.3767  143.3358  157.1549 C   0  0  0  0  0  0  0  0  0  0  0  0
  143.7808  144.6891  157.3034 N   0  3  0  0  0  0  0  0  0  0  0  0
  143.3060  145.2766  156.0301 C   0  0  0  0  0  0  0  0  0  0  0  0
  144.6856  145.6127  158.0237 C   0  0  0  0  0  0  0  0  0  0  0  0
  146.3046  141.9330  156.1701 C   0  0  0  0  0  0  0  0  0  0  0  0
  151.2785  142.0280  157.9499 C   0  0  0  0  0  0  0  0  0  0  0  0
  151.2344  143.4136  158.0819 C   0  0  0  0  0  0  0  0  0  0  0  0
  151.7109  143.9634  159.2932 C   0  0  0  0  0  0  0  0  0  0  0  0
  151.6738  145.4720  159.4674 C   0  0  0  0  0  0  0  0  0  0  0  0
  153.0983  142.9645  162.3012 H   0  0  0  0  0  0  0  0  0  0  0  0
  151.9248  144.2680  162.1375 H   0  0  0  0  0  0  0  0  0  0  0  0
  153.5390  144.4306  161.4298 H   0  0  0  0  0  0  0  0  0  0  0  0
  152.6303  141.0847  160.9577 H   0  0  0  0  0  0  0  0  0  0  0  0
  150.9393  138.9961  156.6740 H   0  0  0  0  0  0  0  0  0  0  0  0
  149.6692  142.5422  155.9509 H   0  0  0  0  0  0  0  0  0  0  0  0
  151.1438  142.1412  155.1033 H   0  0  0  0  0  0  0  0  0  0  0  0
  150.0437  139.6872  155.0223 H   0  0  0  0  0  0  0  0  0  0  0  0
  149.4714  140.2105  152.9781 H   0  0  0  0  0  0  0  0  0  0  0  0
  147.5714  139.8865  154.5811 H   0  0  0  0  0  0  0  0  0  0  0  0
  147.9964  140.1932  156.2386 H   0  0  0  0  0  0  0  0  0  0  0  0
  147.5597  142.1857  153.0921 H   0  0  0  0  0  0  0  0  0  0  0  0
  146.1140  141.3280  153.5763 H   0  0  0  0  0  0  0  0  0  0  0  0
  146.6799  144.3157  153.9699 H   0  0  0  0  0  0  0  0  0  0  0  0
  145.5228  143.6056  152.8587 H   0  0  0  0  0  0  0  0  0  0  0  0
  146.2398  144.1058  156.3501 H   0  0  0  0  0  0  0  0  0  0  0  0
  143.5877  142.6807  156.7819 H   0  0  0  0  0  0  0  0  0  0  0  0
  144.6652  142.9311  158.1265 H   0  0  0  0  0  0  0  0  0  0  0  0
  144.1089  145.3199  155.2931 H   0  0  0  0  0  0  0  0  0  0  0  0
  142.9342  146.2896  156.1874 H   0  0  0  0  0  0  0  0  0  0  0  0
  142.4811  144.6985  155.6155 H   0  0  0  0  0  0  0  0  0  0  0  0
  145.6059  145.7755  157.4610 H   0  0  0  0  0  0  0  0  0  0  0  0
  144.9496  145.2130  159.0035 H   0  0  0  0  0  0  0  0  0  0  0  0
  144.2068  146.5794  158.1835 H   0  0  0  0  0  0  0  0  0  0  0  0
  145.5965  141.1215  155.9939 H   0  0  0  0  0  0  0  0  0  0  0  0
  146.7299  141.7561  157.1567 H   0  0  0  0  0  0  0  0  0  0  0  0
  150.8510  144.0463  157.2949 H   0  0  0  0  0  0  0  0  0  0  0  0
  151.2208  145.9627  158.6054 H   0  0  0  0  0  0  0  0  0  0  0  0
  152.6828  145.8677  159.5842 H   0  0  0  0  0  0  0  0  0  0  0  0
  151.0905  145.7434  160.3474 H   0  0  0  0  0  0  0  0  0  0  0  0
  142.9673  144.5827  157.8927 H   0  0  0  0  0  0  0  0  0  0  0  0
  151.9479  139.0538  159.0358 H   0  0  0  0  0  0  0  0  0  0  0  0
  1  2  1  0  0  0  0
  1 26  1  0  0  0  0
  1 27  1  0  0  0  0
  1 28  1  0  0  0  0
  2 24  1  0  0  0  0
  2  3  2  0  0  0  0
  3  4  1  0  0  0  0
  3 29  1  0  0  0  0
  4 22  2  0  0  0  0
  4  5  1  0  0  0  0
  5  6  2  0  0  0  0
  5 57  1  0  0  0  0
  6  7  1  0  0  0  0
  6 30  1  0  0  0  0
  7  8  1  0  0  0  0
  7 22  1  0  0  0  0
  8  9  1  0  0  0  0
  8 31  1  0  0  0  0
  8 32  1  0  0  0  0
  9 10  1  0  0  0  0
  9 11  1  0  0  0  0
  9 33  1  0  0  0  0
 10 34  1  0  0  0  0
 11 12  1  0  0  0  0
 11 35  1  0  0  0  0
 11 36  1  0  0  0  0
 12 21  1  0  0  0  0
 12 13  1  0  0  0  0
 13 14  1  0  0  0  0
 13 37  1  0  0  0  0
 13 38  1  0  0  0  0
 14 15  1  0  0  0  0
 14 39  1  0  0  0  0
 14 40  1  0  0  0  0
 15 16  1  0  0  0  0
 16 17  1  0  0  0  0
 16 21  1  0  0  0  0
 16 41  1  0  0  0  0
 17 18  1  0  0  0  0
 17 42  1  0  0  0  0
 17 43  1  0  0  0  0
 18 19  1  0  0  0  0
 18 20  1  0  0  0  0
 18 56  1  0  0  0  0
 19 44  1  0  0  0  0
 19 45  1  0  0  0  0
 19 46  1  0  0  0  0
 20 47  1  0  0  0  0
 20 48  1  0  0  0  0
 20 49  1  0  0  0  0
 21 50  1  0  0  0  0
 21 51  1  0  0  0  0
 22 23  1  0  0  0  0
 23 24  2  0  0  0  0
 23 52  1  0  0  0  0
 24 25  1  0  0  0  0
 25 53  1  0  0  0  0
 25 54  1  0  0  0  0
 25 55  1  0  0  0  0
M  CHG  1   5   1
M  CHG  1  18   1
M  END
> <s_m_source_file>
AV-unprocessed.smi

> <i_m_source_file_index>
1005

> <i_lp_mmshare_version>
43012

> <i_f3d_flags>
0

> <s_epik_input>
W0NIM11jKFtjSF0xKWMoW0NIM10pW2NIXWMoYzEyKW4oW2NIXW4yKVtDSDJdW0NASF0oW09IXSlbQ0gyXU4zW0NIMl1bQ0gyXU9bQ0BIXShbQ0gyXTMpW0NIMl1OKFtDSDNdKVtDSDNd

> <s_epik_cmdline>
J2VwaWtfcHl0aG9uJywgJy1waCcsICc3LjAnLCAnLXRuJywgJzgnLCAnLW1hJywgJzIwMCcsICctbWV0YWxfYmluZGluZycsICctaW1hZScsICc8aW5maWxlLm1hZT4nLCAnLW9tYWUnLCAnPG91dGZpbGUubWFlPic=

> <r_epik_Ionization_Penalty>
1.3281

> <r_epik_Ionization_Penalty_Charging>
1.21988

> <r_epik_Ionization_Penalty_Neutral>
0.10822

> <r_epik_State_Penalty>
1.32886

> <r_epik_Charging_Adjusted_Penalty>
2.54875

> <i_epik_Tot_Q>
2

> <i_epik_Tot_abs_Q>
2

> <r_epik_Metal_State_Penalty>
5.33912

> <b_epik_Metal_Only>
0

> <s_lp_Force_Field>
OPLS_2005

> <r_lp_Energy>
44.7977

> <b_lp_Chiralities_Consistent>
1

> <s_lp_Variant>
AV-unprocessed.smi:1005-13

> <Gold.Version>
5.8.1

> <Gold.Id.Protein>
6NUR|6NUR_protein|mol2

> <Gold.PLP.Fitness>
52.4078

> <Gold.PLP.PLP>
-49.3661

> <Gold.PLP.part.hbond>
-2.8509

> <Gold.PLP.part.metal>
0.0000

> <Gold.PLP.part.buried>
-7.7723

> <Gold.PLP.part.nonpolar>
-39.2585

> <Gold.PLP.part.repulsive>
0.4181

> <Gold.PLP.ligand.clash>
0.0000

> <Gold.PLP.ligand.torsion>
1.1333

> <Gold.PLP.Chemscore.Hbond>
1.7552

> <Gold.PLP.Chemscore.CHOScore>
0.0000

> <Gold.PLP.Chemscore.Metal>
0.0000

> <Gold.Chemscore.Hbonds>
donor molecule, donor type, donor heavy atom, donor atom, acceptor molecule, acceptor atom, score
      L1  H    10    34       P1  7957  0.51
      P1  H  7989  7998       L1    10  0.20
      P1  H  8011  8017       L1    10  1.00

> <Gold.PLP.Chemscore.Internal.Correction>
0.0427

> <Gold.Rescore>
     Score         DG    S(hbond)    S(metal)    S(lipo)     H(rot)  DE(clash)    DE(int)     intcor
     16.19     -18.67       1.38        0.00     127.78       2.49       0.16       2.32       ----

> <Gold.Chemscore.Fitness>
16.1853

> <Gold.Chemscore.DG>
-18.6667

> <Gold.Chemscore.ZeroCoef>
-5.4800

> <Gold.Chemscore.Hbond>
1.3803

> <Gold.Chemscore.Metal>
0.0000

> <Gold.Chemscore.Lipo>
127.7808

> <Gold.Chemscore.Internal_Hbond>
0.0000

> <Gold.Chemscore.DEClash>
0.1620

> <Gold.Chemscore.DEInternal>
2.3195

> <Gold.Chemscore.Rot>
2.4897

> <Gold.Chemscore.Internal.Correction>
   9.000000E+99

> <Gold.Chemscore.Hbonds>
donor molecule, donor type, donor heavy atom, donor atom, acceptor molecule, acceptor atom, score
      L1  H    10    34       P1  7957  0.52
      P1  H  7989  7998       L1    10  0.01
      P1  H  8011  8017       L1    10  0.63

> <Gold.Chemscore.Hbond.Weighted>
-4.6101

> <Gold.Chemscore.Metal.Weighted>
-0.0000

> <Gold.Chemscore.Lipo.Weighted>
-14.9504

> <Gold.Chemscore.Internal_Hbond.Weighted>
0.0000

> <Gold.Chemscore.DEClash.Weighted>
0.1620

> <Gold.Chemscore.DEInternal.Weighted>
2.3195

> <Gold.Chemscore.Rot.Weighted>
6.3737

> <Gold.Chemscore.Internal.Correction.Weighted>
   9.000000E+99

> <Gold.Protein.RotatedTorsions>
[ 6907 6896 6895 6894 ] final   91.01 input  -60.11 | X-H torsion
[ 7974 7965 7964 7962 ] final   42.28 input  175.53 | X-H torsion
[ 8008 7997 7996 7995 ] final  -15.04 input   59.86 | X-H torsion
[ 10167 10162 10161 10158 ] final  -19.40 input  -65.29 | X-H torsion
[ 10718 10713 10712 10709 ] final  -91.13 input   66.30 | X-H torsion
[ 10763 10752 10751 10750 ] final -122.55 input  -60.55 | X-H torsion
[ 11005 11000 10999 10996 ] final -110.03 input  -57.11 | X-H torsion

> <Gold.Protein.ActiveResidues>
 VAL166  LYS551  ARG553  GLY616  TRP617  ASP618  TYR619  PRO620  LYS621  CYS622 
 ASP623  PHE694  ASN695  SER759  ASP760  ASP761  ALA762  ILE779  LEU786  VAL792 
 PHE793  MET794  SER795  GLU796  ALA797  LYS798  CYS799  TRP800  GLU811  SER814 

> <Gold.Protein.RotatedAtoms>
  152.5448  134.1723  159.8601 H   0  0  0  0  0  0  0  0  0  0  0  0  # atno 6907 bound_to 6896
  151.1732  133.4764  159.2601 H   0  0  0  0  0  0  0  0  0  0  0  0  # atno 6908 bound_to 6896
  151.1253  135.0113  159.8613 H   0  0  0  0  0  0  0  0  0  0  0  0  # atno 6909 bound_to 6896
  146.0753  139.5318  142.9571 H   0  0  0  0  0  0  0  0  0  0  0  0  # atno 7974 bound_to 7965
  154.5162  140.2207  155.9062 H   0  0  0  0  0  0  0  0  0  0  0  0  # atno 8008 bound_to 7997
  156.1610  140.3142  155.8772 H   0  0  0  0  0  0  0  0  0  0  0  0  # atno 8009 bound_to 7997
  155.3752  140.0469  157.3035 H   0  0  0  0  0  0  0  0  0  0  0  0  # atno 8010 bound_to 7997
  140.7268  143.4823  151.0101 H   0  0  0  0  0  0  0  0  0  0  0  0  # atno 10167 bound_to 10162
  155.9992  130.4936  150.5428 H   0  0  0  0  0  0  0  0  0  0  0  0  # atno 10718 bound_to 10713
  154.8691  135.4129  154.2800 H   0  0  0  0  0  0  0  0  0  0  0  0  # atno 10763 bound_to 10752
  153.3694  135.7007  153.6655 H   0  0  0  0  0  0  0  0  0  0  0  0  # atno 10764 bound_to 10752
  153.5523  135.3626  155.2736 H   0  0  0  0  0  0  0  0  0  0  0  0  # atno 10765 bound_to 10752
  141.0814  133.9213  157.2279 H   0  0  0  0  0  0  0  0  0  0  0  0  # atno 11005 bound_to 11000
  145.6317  141.0303  143.1860 LP  0  0  0  0  0  0  0  0  0  0  0  0  # atno 17320 bound_to 7965
  144.7258  139.7881  143.7365 LP  0  0  0  0  0  0  0  0  0  0  0  0  # atno 17321 bound_to 7965
  139.8522  143.7423  152.3177 LP  0  0  0  0  0  0  0  0  0  0  0  0  # atno 17342 bound_to 10162
  139.7609  144.7506  151.0365 LP  0  0  0  0  0  0  0  0  0  0  0  0  # atno 17343 bound_to 10162
  157.3362  131.0708  151.1823 LP  0  0  0  0  0  0  0  0  0  0  0  0  # atno 17370 bound_to 10713
  157.2687  130.6694  149.6009 LP  0  0  0  0  0  0  0  0  0  0  0  0  # atno 17371 bound_to 10713
  139.9629  135.0149  156.9308 LP  0  0  0  0  0  0  0  0  0  0  0  0  # atno 17394 bound_to 11000
  140.5459  134.0674  155.7355 LP  0  0  0  0  0  0  0  0  0  0  0  0  # atno 17395 bound_to 11000

$$$$
