AV-unprocessed.smi:1925|AV-procd|sdf|7793|dock8
  -GOLD-   22720 9533D 1   1.00000     0.00000
 Structure written by MMmdl.
 31 32  0  0  0  0  0  0  0  0  1 V2000
  144.7075  136.9691  152.4776 O   0  0  0  0  0  0  0  0  0  0  0  0
  145.9018  136.7030  152.3406 C   0  0  0  0  0  0  0  0  0  0  0  0
  146.8882  137.5577  152.6471 N   0  0  0  0  0  0  0  0  0  0  0  0
  146.6952  138.9106  153.1578 C   0  0  0  0  0  0  0  0  0  0  0  0
  148.0192  139.6957  153.2303 C   0  0  1  0  0  0  0  0  0  0  0  0
  147.8819  141.0883  153.8358 C   0  0  0  0  0  0  0  0  0  0  0  0
  149.1333  141.2524  154.7047 C   0  0  0  0  0  0  0  0  0  0  0  0
  149.9557  140.1365  154.3962 O   0  0  0  0  0  0  0  0  0  0  0  0
  149.0947  139.0505  154.1035 C   0  0  0  0  0  0  0  0  0  0  0  0
  146.3923  135.5441  151.8667 N   0  0  0  0  0  0  0  0  0  0  0  0
  145.6735  134.3989  151.4314 C   0  0  0  0  0  0  0  0  0  0  0  0
  146.4748  133.3020  151.0414 C   0  0  0  0  0  0  0  0  0  0  0  0
  145.8582  132.1179  150.5933 C   0  0  0  0  0  0  0  0  0  0  0  0
  144.4538  132.0606  150.5476 C   0  0  0  0  0  0  0  0  0  0  0  0
  143.7303  133.1966  150.9545 C   0  0  0  0  0  0  0  0  0  0  0  0
  144.3194  134.3324  151.3842 N   0  0  0  0  0  0  0  0  0  0  0  0
  147.8414  137.2565  152.5067 H   0  0  0  0  0  0  0  0  0  0  0  0
  145.9730  139.4438  152.5372 H   0  0  0  0  0  0  0  0  0  0  0  0
  146.2504  138.8344  154.1504 H   0  0  0  0  0  0  0  0  0  0  0  0
  148.4280  139.8094  152.2249 H   0  0  0  0  0  0  0  0  0  0  0  0
  147.8314  141.8475  153.0545 H   0  0  0  0  0  0  0  0  0  0  0  0
  146.9843  141.1828  154.4479 H   0  0  0  0  0  0  0  0  0  0  0  0
  149.6567  142.1892  154.5128 H   0  0  0  0  0  0  0  0  0  0  0  0
  148.8701  141.2209  155.7629 H   0  0  0  0  0  0  0  0  0  0  0  0
  148.6736  138.6564  155.0300 H   0  0  0  0  0  0  0  0  0  0  0  0
  149.6246  138.2454  153.5941 H   0  0  0  0  0  0  0  0  0  0  0  0
  147.3970  135.4756  151.8022 H   0  0  0  0  0  0  0  0  0  0  0  0
  147.5527  133.3631  151.0821 H   0  0  0  0  0  0  0  0  0  0  0  0
  146.4529  131.2693  150.2896 H   0  0  0  0  0  0  0  0  0  0  0  0
  143.9446  131.1701  150.2098 H   0  0  0  0  0  0  0  0  0  0  0  0
  142.6506  133.1938  150.9347 H   0  0  0  0  0  0  0  0  0  0  0  0
  1  2  2  0  0  0  0
  2  3  1  0  0  0  0
  2 10  1  0  0  0  0
  3  4  1  0  0  0  0
  3 17  1  0  0  0  0
  4  5  1  0  0  0  0
  4 18  1  0  0  0  0
  4 19  1  0  0  0  0
  5  9  1  0  0  0  0
  5  6  1  0  0  0  0
  5 20  1  0  0  0  0
  6  7  1  0  0  0  0
  6 21  1  0  0  0  0
  6 22  1  0  0  0  0
  7  8  1  0  0  0  0
  7 23  1  0  0  0  0
  7 24  1  0  0  0  0
  8  9  1  0  0  0  0
  9 25  1  0  0  0  0
  9 26  1  0  0  0  0
 10 11  1  0  0  0  0
 10 27  1  0  0  0  0
 11 16  1  0  0  0  0
 11 12  2  0  0  0  0
 12 13  1  0  0  0  0
 12 28  1  0  0  0  0
 13 14  2  0  0  0  0
 13 29  1  0  0  0  0
 14 15  1  0  0  0  0
 14 30  1  0  0  0  0
 15 16  2  0  0  0  0
 15 31  1  0  0  0  0
M  END
> <s_m_source_file>
AV-unprocessed.smi

> <i_m_source_file_index>
1925

> <i_lp_mmshare_version>
43012

> <i_f3d_flags>
0

> <s_epik_input>
bjFbY0hdW2NIXVtjSF1bY0hdYzFbTkhdQyg9TylbTkhdW0NIMl1bQ0BASF0yW0NIMl1bQ0gyXU9bQ0gyXTI=

> <s_epik_cmdline>
J2VwaWtfcHl0aG9uJywgJy1waCcsICc3LjAnLCAnLXRuJywgJzgnLCAnLW1hJywgJzIwMCcsICctbWV0YWxfYmluZGluZycsICctaW1hZScsICc8aW5maWxlLm1hZT4nLCAnLW9tYWUnLCAnPG91dGZpbGUubWFlPic=

> <r_lp_tautomer_probability>
1

> <r_epik_Ionization_Penalty>
4.81143e-05

> <r_epik_Ionization_Penalty_Charging>
0

> <r_epik_Ionization_Penalty_Neutral>
4.81143e-05

> <r_epik_State_Penalty>
-0

> <r_epik_Charging_Adjusted_Penalty>
0

> <i_epik_Tot_Q>
0

> <i_epik_Tot_abs_Q>
0

> <r_epik_Metal_State_Penalty>
-0

> <b_epik_Metal_Only>
0

> <s_lp_Force_Field>
OPLS_2005

> <r_lp_Energy>
20.4602

> <b_lp_Chiralities_Consistent>
1

> <s_lp_Variant>
AV-unprocessed.smi:1925-2

> <Gold.Version>
5.8.1

> <Gold.Id.Protein>
6NUR|6NUR_protein|mol2

> <Gold.PLP.Fitness>
40.3849

> <Gold.PLP.PLP>
-28.5211

> <Gold.PLP.part.hbond>
-3.0000

> <Gold.PLP.part.metal>
0.0000

> <Gold.PLP.part.buried>
-0.9917

> <Gold.PLP.part.nonpolar>
-25.9475

> <Gold.PLP.part.repulsive>
0.5608

> <Gold.PLP.ligand.clash>
0.0000

> <Gold.PLP.ligand.torsion>
0.0330

> <Gold.PLP.Chemscore.Hbond>
2.9760

> <Gold.PLP.Chemscore.CHOScore>
1.0000

> <Gold.PLP.Chemscore.Metal>
0.0000

> <Gold.Chemscore.Hbonds>
donor molecule, donor type, donor heavy atom, donor atom, acceptor molecule, acceptor atom, score
      L1  H     3    17       P1  7948  1.00
      L1  H    10    27       P1  7948  1.00
      P1  H  7989  7998       L1     8  0.98
      L1  C    15    31       P1 10186  1.00

> <Gold.PLP.Chemscore.Internal.Correction>
0.0017

> <Gold.Rescore>
     Score         DG    S(hbond)    S(metal)    S(lipo)     H(rot)  DE(clash)    DE(int)     intcor
     16.38     -19.10       2.60        0.00      69.90       1.27       1.40       1.32       ----

> <Gold.Chemscore.Fitness>
16.3770

> <Gold.Chemscore.DG>
-19.1032

> <Gold.Chemscore.ZeroCoef>
-5.4800

> <Gold.Chemscore.Hbond>
2.6020

> <Gold.Chemscore.Metal>
0.0000

> <Gold.Chemscore.Lipo>
69.8973

> <Gold.Chemscore.Internal_Hbond>
0.0000

> <Gold.Chemscore.DEClash>
1.4042

> <Gold.Chemscore.DEInternal>
1.3220

> <Gold.Chemscore.Rot>
1.2678

> <Gold.Chemscore.Internal.Correction>
   9.000000E+99

> <Gold.Chemscore.Hbonds>
donor molecule, donor type, donor heavy atom, donor atom, acceptor molecule, acceptor atom, score
      L1  H     3    17       P1  7948  0.96
      L1  H    10    27       P1  7948  0.95
      P1  H  7989  7998       L1     8  0.48

> <Gold.Chemscore.Hbond.Weighted>
-8.6907

> <Gold.Chemscore.Metal.Weighted>
-0.0000

> <Gold.Chemscore.Lipo.Weighted>
-8.1780

> <Gold.Chemscore.Internal_Hbond.Weighted>
0.0000

> <Gold.Chemscore.DEClash.Weighted>
1.4042

> <Gold.Chemscore.DEInternal.Weighted>
1.3220

> <Gold.Chemscore.Rot.Weighted>
3.2455

> <Gold.Chemscore.Internal.Correction.Weighted>
   9.000000E+99

> <Gold.Protein.RotatedTorsions>
[ 6907 6896 6895 6894 ] final -166.76 input  -60.11 | X-H torsion
[ 7974 7965 7964 7962 ] final   -2.48 input  175.53 | X-H torsion
[ 8008 7997 7996 7995 ] final  -69.92 input   59.86 | X-H torsion
[ 10167 10162 10161 10158 ] final  172.65 input  -65.29 | X-H torsion
[ 10718 10713 10712 10709 ] final  -42.77 input   66.30 | X-H torsion
[ 10763 10752 10751 10750 ] final -172.66 input  -60.55 | X-H torsion
[ 11005 11000 10999 10996 ] final -154.73 input  -57.11 | X-H torsion

> <Gold.Protein.ActiveResidues>
 VAL166  LYS551  ARG553  GLY616  TRP617  ASP618  TYR619  PRO620  LYS621  CYS622 
 ASP623  PHE694  ASN695  SER759  ASP760  ASP761  ALA762  ILE779  LEU786  VAL792 
 PHE793  MET794  SER795  GLU796  ALA797  LYS798  CYS799  TRP800  GLU811  SER814 

> <Gold.Protein.RotatedAtoms>
  151.4487  133.3623  159.2791 H   0  0  0  0  0  0  0  0  0  0  0  0  # atno 6907 bound_to 6896
  150.9106  134.8525  159.7433 H   0  0  0  0  0  0  0  0  0  0  0  0  # atno 6908 bound_to 6896
  152.4930  134.4416  159.9597 H   0  0  0  0  0  0  0  0  0  0  0  0  # atno 6909 bound_to 6896
  146.2404  140.1577  142.8333 H   0  0  0  0  0  0  0  0  0  0  0  0  # atno 7974 bound_to 7965
  154.4973  140.0844  156.7724 H   0  0  0  0  0  0  0  0  0  0  0  0  # atno 8008 bound_to 7997
  155.4085  140.3440  155.4244 H   0  0  0  0  0  0  0  0  0  0  0  0  # atno 8009 bound_to 7997
  156.1411  140.1529  156.8907 H   0  0  0  0  0  0  0  0  0  0  0  0  # atno 8010 bound_to 7997
  139.5083  144.3350  152.0074 H   0  0  0  0  0  0  0  0  0  0  0  0  # atno 10167 bound_to 10162
  156.2561  130.4192  149.8594 H   0  0  0  0  0  0  0  0  0  0  0  0  # atno 10718 bound_to 10713
  154.6168  135.2870  155.0371 H   0  0  0  0  0  0  0  0  0  0  0  0  # atno 10763 bound_to 10752
  154.1580  135.6492  153.4983 H   0  0  0  0  0  0  0  0  0  0  0  0  # atno 10764 bound_to 10752
  153.0218  135.5371  154.6942 H   0  0  0  0  0  0  0  0  0  0  0  0  # atno 10765 bound_to 10752
  140.6941  134.4009  157.5216 H   0  0  0  0  0  0  0  0  0  0  0  0  # atno 11005 bound_to 11000
  145.0115  140.8718  143.5221 LP  0  0  0  0  0  0  0  0  0  0  0  0  # atno 17320 bound_to 7965
  145.1611  139.2458  143.5391 LP  0  0  0  0  0  0  0  0  0  0  0  0  # atno 17321 bound_to 7965
  140.2789  144.3882  150.6125 LP  0  0  0  0  0  0  0  0  0  0  0  0  # atno 17342 bound_to 10162
  140.6033  143.2167  151.7030 LP  0  0  0  0  0  0  0  0  0  0  0  0  # atno 17343 bound_to 10162
  156.6126  130.8593  151.3457 LP  0  0  0  0  0  0  0  0  0  0  0  0  # atno 17370 bound_to 10713
  157.7233  130.9588  150.1528 LP  0  0  0  0  0  0  0  0  0  0  0  0  # atno 17371 bound_to 10713
  139.8915  134.8778  156.2317 LP  0  0  0  0  0  0  0  0  0  0  0  0  # atno 17394 bound_to 11000
  141.0217  133.7037  156.1279 LP  0  0  0  0  0  0  0  0  0  0  0  0  # atno 17395 bound_to 11000

$$$$
