AV-unprocessed.smi:1426|AV-procd|sdf|5807|dock3
  -GOLD-   22720 5463D 1   1.00000     0.00000
 Structure written by MMmdl.
 44 46  0  0  0  0  0  0  0  0  2 V2000
  146.5558  143.4033  154.8005 O   0  0  0  0  0  0  0  0  0  0  0  0
  145.7557  142.6637  154.2276 C   0  0  0  0  0  0  0  0  0  0  0  0
  144.4492  142.9361  154.1063 N   0  0  0  0  0  0  0  0  0  0  0  0
  143.7889  144.1262  154.6334 C   0  0  0  0  0  0  0  0  0  0  0  0
  144.3841  145.4304  154.0590 C   0  0  2  0  0  0  0  0  0  0  0  0
  143.6432  146.6865  154.4966 C   0  0  0  0  0  0  0  0  0  0  0  0
  142.5702  146.8794  153.4205 C   0  0  0  0  0  0  0  0  0  0  0  0
  142.8975  145.9852  152.3616 O   0  0  0  0  0  0  0  0  0  0  0  0
  144.2245  145.5155  152.5430 C   0  0  0  0  0  0  0  0  0  0  0  0
  146.0604  141.4815  153.6667 N   0  0  0  0  0  0  0  0  0  0  0  0
  147.3261  140.8307  153.6195 C   0  0  0  0  0  0  0  0  0  0  0  0
  148.5273  141.5330  153.8972 C   0  0  0  0  0  0  0  0  0  0  0  0
  149.7614  140.8571  153.8627 C   0  0  0  0  0  0  0  0  0  0  0  0
  149.7783  139.4882  153.5464 C   0  0  0  0  0  0  0  0  0  0  0  0
  148.6217  138.8527  153.2672 N   0  3  0  0  0  0  0  0  0  0  0  0
  147.4042  139.4510  153.2691 C   0  0  0  0  0  0  0  0  0  0  0  0
  146.2801  138.6589  152.9416 N   0  0  0  0  0  0  0  0  0  0  0  0
  145.4396  138.1002  153.9942 C   0  0  0  0  0  0  0  0  0  0  0  0
  144.5734  137.0564  153.2953 C   0  0  0  0  0  0  0  0  0  0  0  0
  145.5234  136.4955  152.2411 C   0  0  0  0  0  0  0  0  0  0  0  0
  146.3849  137.7002  151.8459 C   0  0  0  0  0  0  0  0  0  0  0  0
  143.8641  142.2719  153.6207 H   0  0  0  0  0  0  0  0  0  0  0  0
  142.7195  144.0742  154.4223 H   0  0  0  0  0  0  0  0  0  0  0  0
  143.8855  144.1130  155.7196 H   0  0  0  0  0  0  0  0  0  0  0  0
  145.4394  145.4905  154.3283 H   0  0  0  0  0  0  0  0  0  0  0  0
  143.2249  146.6247  155.5015 H   0  0  0  0  0  0  0  0  0  0  0  0
  144.3280  147.5354  154.4810 H   0  0  0  0  0  0  0  0  0  0  0  0
  141.5767  146.6371  153.7986 H   0  0  0  0  0  0  0  0  0  0  0  0
  142.5535  147.9083  153.0599 H   0  0  0  0  0  0  0  0  0  0  0  0
  144.9200  146.2448  152.1248 H   0  0  0  0  0  0  0  0  0  0  0  0
  144.3886  144.5634  152.0371 H   0  0  0  0  0  0  0  0  0  0  0  0
  145.2800  140.9414  153.3232 H   0  0  0  0  0  0  0  0  0  0  0  0
  148.5232  142.5868  154.1315 H   0  0  0  0  0  0  0  0  0  0  0  0
  150.6806  141.3826  154.0775 H   0  0  0  0  0  0  0  0  0  0  0  0
  150.6752  138.8876  153.4993 H   0  0  0  0  0  0  0  0  0  0  0  0
  146.0527  137.6158  154.7554 H   0  0  0  0  0  0  0  0  0  0  0  0
  144.8369  138.8711  154.4750 H   0  0  0  0  0  0  0  0  0  0  0  0
  144.1915  136.2951  153.9760 H   0  0  0  0  0  0  0  0  0  0  0  0
  143.7224  137.5392  152.8122 H   0  0  0  0  0  0  0  0  0  0  0  0
  146.1525  135.7257  152.6902 H   0  0  0  0  0  0  0  0  0  0  0  0
  145.0030  136.0503  151.3927 H   0  0  0  0  0  0  0  0  0  0  0  0
  145.9898  138.1579  150.9383 H   0  0  0  0  0  0  0  0  0  0  0  0
  147.4180  137.4035  151.6574 H   0  0  0  0  0  0  0  0  0  0  0  0
  148.6679  137.8614  153.0311 H   0  0  0  0  0  0  0  0  0  0  0  0
  1  2  2  0  0  0  0
  2  3  1  0  0  0  0
  2 10  1  0  0  0  0
  3  4  1  0  0  0  0
  3 22  1  0  0  0  0
  4  5  1  0  0  0  0
  4 23  1  0  0  0  0
  4 24  1  0  0  0  0
  5  9  1  0  0  0  0
  5  6  1  0  0  0  0
  5 25  1  0  0  0  0
  6  7  1  0  0  0  0
  6 26  1  0  0  0  0
  6 27  1  0  0  0  0
  7  8  1  0  0  0  0
  7 28  1  0  0  0  0
  7 29  1  0  0  0  0
  8  9  1  0  0  0  0
  9 30  1  0  0  0  0
  9 31  1  0  0  0  0
 10 11  1  0  0  0  0
 10 32  1  0  0  0  0
 11 16  1  0  0  0  0
 11 12  2  0  0  0  0
 12 13  1  0  0  0  0
 12 33  1  0  0  0  0
 13 14  2  0  0  0  0
 13 34  1  0  0  0  0
 14 15  1  0  0  0  0
 14 35  1  0  0  0  0
 15 16  2  0  0  0  0
 15 44  1  0  0  0  0
 16 17  1  0  0  0  0
 17 21  1  0  0  0  0
 17 18  1  0  0  0  0
 18 19  1  0  0  0  0
 18 36  1  0  0  0  0
 18 37  1  0  0  0  0
 19 20  1  0  0  0  0
 19 38  1  0  0  0  0
 19 39  1  0  0  0  0
 20 21  1  0  0  0  0
 20 40  1  0  0  0  0
 20 41  1  0  0  0  0
 21 42  1  0  0  0  0
 21 43  1  0  0  0  0
M  CHG  1  15   1
M  END
> <s_m_source_file>
AV-unprocessed.smi

> <i_m_source_file_index>
1426

> <i_lp_mmshare_version>
43012

> <i_f3d_flags>
0

> <s_epik_input>
W0NIMl0xT1tDSDJdW0NIMl1bQ0BIXTFbQ0gyXVtOSF1DKD1PKVtOSF1jMltjSF1bY0hdW2NIXW5jMk4zW0NIMl1bQ0gyXVtDSDJdW0NIMl0z

> <s_epik_cmdline>
J2VwaWtfcHl0aG9uJywgJy1waCcsICc3LjAnLCAnLXRuJywgJzgnLCAnLW1hJywgJzIwMCcsICctbWV0YWxfYmluZGluZycsICctaW1hZScsICc8aW5maWxlLm1hZT4nLCAnLW9tYWUnLCAnPG91dGZpbGUubWFlPic=

> <r_lp_tautomer_probability>
0.999994

> <r_epik_Ionization_Penalty>
1.10677

> <r_epik_Ionization_Penalty_Charging>
1.10675

> <r_epik_Ionization_Penalty_Neutral>
2.02663e-05

> <r_epik_State_Penalty>
1.16438

> <r_epik_Charging_Adjusted_Penalty>
2.27113

> <i_epik_Tot_Q>
1

> <i_epik_Tot_abs_Q>
1

> <r_epik_Metal_State_Penalty>
1.25078

> <b_epik_Metal_Only>
0

> <s_lp_Force_Field>
OPLS_2005

> <r_lp_Energy>
54.6113

> <b_lp_Chiralities_Consistent>
1

> <s_lp_Variant>
AV-unprocessed.smi:1426-3

> <Gold.Version>
5.8.1

> <Gold.Id.Protein>
6NUR|6NUR_protein|mol2

> <Gold.PLP.Fitness>
44.1373

> <Gold.PLP.PLP>
-35.3897

> <Gold.PLP.part.hbond>
-5.9894

> <Gold.PLP.part.metal>
0.0000

> <Gold.PLP.part.buried>
-0.8878

> <Gold.PLP.part.nonpolar>
-30.8823

> <Gold.PLP.part.repulsive>
0.5973

> <Gold.PLP.ligand.clash>
0.0000

> <Gold.PLP.ligand.torsion>
0.6244

> <Gold.PLP.Chemscore.Hbond>
3.1991

> <Gold.PLP.Chemscore.CHOScore>
0.0000

> <Gold.PLP.Chemscore.Metal>
0.0000

> <Gold.Chemscore.Hbonds>
donor molecule, donor type, donor heavy atom, donor atom, acceptor molecule, acceptor atom, score
      L1  H    10    32       P1 10175  1.00
      L1  H    15    44       P1  7948  2.00

> <Gold.PLP.Chemscore.Internal.Correction>
0.3991

> <Gold.Rescore>
     Score         DG    S(hbond)    S(metal)    S(lipo)     H(rot)  DE(clash)    DE(int)     intcor
     12.87     -17.25       2.03        0.00      73.23       1.40       1.86       2.52       ----

> <Gold.Chemscore.Fitness>
12.8693

> <Gold.Chemscore.DG>
-17.2485

> <Gold.Chemscore.ZeroCoef>
-5.4800

> <Gold.Chemscore.Hbond>
2.0330

> <Gold.Chemscore.Metal>
0.0000

> <Gold.Chemscore.Lipo>
73.2332

> <Gold.Chemscore.Internal_Hbond>
0.0000

> <Gold.Chemscore.DEClash>
1.8551

> <Gold.Chemscore.DEInternal>
2.5241

> <Gold.Chemscore.Rot>
1.4023

> <Gold.Chemscore.Internal.Correction>
   9.000000E+99

> <Gold.Chemscore.Hbonds>
donor molecule, donor type, donor heavy atom, donor atom, acceptor molecule, acceptor atom, score
      L1  H    10    32       P1 10175  0.60
      L1  H    15    44       P1  7948  0.94

> <Gold.Chemscore.Hbond.Weighted>
-6.7901

> <Gold.Chemscore.Metal.Weighted>
-0.0000

> <Gold.Chemscore.Lipo.Weighted>
-8.5683

> <Gold.Chemscore.Internal_Hbond.Weighted>
0.0000

> <Gold.Chemscore.DEClash.Weighted>
1.8551

> <Gold.Chemscore.DEInternal.Weighted>
2.5241

> <Gold.Chemscore.Rot.Weighted>
3.5898

> <Gold.Chemscore.Internal.Correction.Weighted>
   9.000000E+99

> <Gold.Protein.RotatedTorsions>
[ 6907 6896 6895 6894 ] final   -2.51 input  -60.11 | X-H torsion
[ 7974 7965 7964 7962 ] final  166.21 input  175.53 | X-H torsion
[ 8008 7997 7996 7995 ] final  134.22 input   59.86 | X-H torsion
[ 10167 10162 10161 10158 ] final  157.56 input  -65.29 | X-H torsion
[ 10718 10713 10712 10709 ] final  -29.84 input   66.30 | X-H torsion
[ 10763 10752 10751 10750 ] final -157.55 input  -60.55 | X-H torsion
[ 11005 11000 10999 10996 ] final   86.02 input  -57.11 | X-H torsion

> <Gold.Protein.ActiveResidues>
 VAL166  LYS551  ARG553  GLY616  TRP617  ASP618  TYR619  PRO620  LYS621  CYS622 
 ASP623  PHE694  ASN695  SER759  ASP760  ASP761  ALA762  ILE779  LEU786  VAL792 
 PHE793  MET794  SER795  GLU796  ALA797  LYS798  CYS799  TRP800  GLU811  SER814 

> <Gold.Protein.RotatedAtoms>
  151.5288  135.1068  159.9896 H   0  0  0  0  0  0  0  0  0  0  0  0  # atno 6907 bound_to 6896
  152.4588  133.7774  159.6842 H   0  0  0  0  0  0  0  0  0  0  0  0  # atno 6908 bound_to 6896
  150.8541  133.7676  159.3040 H   0  0  0  0  0  0  0  0  0  0  0  0  # atno 6909 bound_to 6896
  144.7471  139.8583  143.6378 H   0  0  0  0  0  0  0  0  0  0  0  0  # atno 7974 bound_to 7965
  156.2998  140.2501  156.3382 H   0  0  0  0  0  0  0  0  0  0  0  0  # atno 8008 bound_to 7997
  154.9081  140.0404  157.1950 H   0  0  0  0  0  0  0  0  0  0  0  0  # atno 8009 bound_to 7997
  154.8433  140.2894  155.5649 H   0  0  0  0  0  0  0  0  0  0  0  0  # atno 8010 bound_to 7997
  139.4823  144.4906  151.8313 H   0  0  0  0  0  0  0  0  0  0  0  0  # atno 10167 bound_to 10162
  156.4073  130.4401  149.7278 H   0  0  0  0  0  0  0  0  0  0  0  0  # atno 10718 bound_to 10713
  154.7627  135.3122  154.8347 H   0  0  0  0  0  0  0  0  0  0  0  0  # atno 10763 bound_to 10752
  153.9104  135.6806  153.4755 H   0  0  0  0  0  0  0  0  0  0  0  0  # atno 10764 bound_to 10752
  153.1229  135.4814  154.9157 H   0  0  0  0  0  0  0  0  0  0  0  0  # atno 10765 bound_to 10752
  139.8955  134.8327  156.2663 H   0  0  0  0  0  0  0  0  0  0  0  0  # atno 11005 bound_to 11000
  146.1367  139.4414  143.0135 LP  0  0  0  0  0  0  0  0  0  0  0  0  # atno 17320 bound_to 7965
  145.7081  141.0115  143.1468 LP  0  0  0  0  0  0  0  0  0  0  0  0  # atno 17321 bound_to 7965
  140.4390  144.2012  150.5890 LP  0  0  0  0  0  0  0  0  0  0  0  0  # atno 17342 bound_to 10162
  140.4702  143.2416  151.9099 LP  0  0  0  0  0  0  0  0  0  0  0  0  # atno 17343 bound_to 10162
  156.4270  130.7796  151.2815 LP  0  0  0  0  0  0  0  0  0  0  0  0  # atno 17370 bound_to 10713
  157.7506  131.0165  150.3549 LP  0  0  0  0  0  0  0  0  0  0  0  0  # atno 17371 bound_to 10713
  141.0130  133.7085  156.1142 LP  0  0  0  0  0  0  0  0  0  0  0  0  # atno 17394 bound_to 11000
  140.7341  134.4222  157.5562 LP  0  0  0  0  0  0  0  0  0  0  0  0  # atno 17395 bound_to 11000

$$$$
