AV-unprocessed.smi:1189|AV-procd|sdf|4978|dock3
  -GOLD-   22720 3573D 1   1.00000     0.00000
 Structure written by MMmdl.
 33 34  0  0  0  0  0  0  0  0  1 V2000
  145.1003  137.7304  153.6857 O   0  0  0  0  0  0  0  0  0  0  0  0
  145.9880  137.3545  152.9182 C   0  0  0  0  0  0  0  0  0  0  0  0
  145.6585  136.5699  151.6419 C   0  0  0  0  0  0  0  0  0  0  0  0
  146.0893  135.1823  151.6986 N   0  0  0  0  0  0  0  0  0  0  0  0
  146.0008  134.2166  150.7188 C   0  0  0  0  0  0  0  0  0  0  0  0
  146.5315  133.0685  151.2319 C   0  0  0  0  0  0  0  0  0  0  0  0
  146.9254  133.4285  152.5537 C   0  0  0  0  0  0  0  0  0  0  0  0
  147.5752  132.5644  153.6025 C   0  0  0  0  0  0  0  0  0  0  0  0
  148.7758  133.0481  153.9213 F   0  0  0  0  0  0  0  0  0  0  0  0
  146.8191  132.5349  154.6999 F   0  0  0  0  0  0  0  0  0  0  0  0
  147.7227  131.3220  153.1423 F   0  0  0  0  0  0  0  0  0  0  0  0
  146.6574  134.6992  152.8246 N   0  0  0  0  0  0  0  0  0  0  0  0
  147.2910  137.5900  153.1342 N   0  0  0  0  0  0  0  0  0  0  0  0
  147.8366  138.3120  154.2787 C   0  0  0  0  0  0  0  0  0  0  0  0
  149.3079  138.7136  154.0617 C   0  0  2  0  0  0  0  0  0  0  0  0
  150.3217  137.7898  154.7083 C   0  0  0  0  0  0  0  0  0  0  0  0
  151.5637  138.6730  154.7440 C   0  0  0  0  0  0  0  0  0  0  0  0
  151.0832  139.9973  154.9511 O   0  0  0  0  0  0  0  0  0  0  0  0
  149.6832  140.0572  154.6893 C   0  0  0  0  0  0  0  0  0  0  0  0
  144.5834  136.6028  151.4574 H   0  0  0  0  0  0  0  0  0  0  0  0
  146.1454  137.0483  150.7915 H   0  0  0  0  0  0  0  0  0  0  0  0
  145.5735  134.4255  149.7490 H   0  0  0  0  0  0  0  0  0  0  0  0
  146.6250  132.1131  150.7374 H   0  0  0  0  0  0  0  0  0  0  0  0
  147.9540  137.2454  152.4547 H   0  0  0  0  0  0  0  0  0  0  0  0
  147.2309  139.1960  154.4854 H   0  0  0  0  0  0  0  0  0  0  0  0
  147.7485  137.6685  155.1546 H   0  0  0  0  0  0  0  0  0  0  0  0
  149.5193  138.7643  152.9919 H   0  0  0  0  0  0  0  0  0  0  0  0
  150.0139  137.5338  155.7233 H   0  0  0  0  0  0  0  0  0  0  0  0
  150.4765  136.8647  154.1522 H   0  0  0  0  0  0  0  0  0  0  0  0
  152.2677  138.3760  155.5218 H   0  0  0  0  0  0  0  0  0  0  0  0
  152.0816  138.6378  153.7848 H   0  0  0  0  0  0  0  0  0  0  0  0
  149.4369  140.8994  154.0421 H   0  0  0  0  0  0  0  0  0  0  0  0
  149.1663  140.2010  155.6391 H   0  0  0  0  0  0  0  0  0  0  0  0
  1  2  2  0  0  0  0
  2  3  1  0  0  0  0
  2 13  1  0  0  0  0
  3  4  1  0  0  0  0
  3 20  1  0  0  0  0
  3 21  1  0  0  0  0
  4 12  1  0  0  0  0
  4  5  1  0  0  0  0
  5  6  2  0  0  0  0
  5 22  1  0  0  0  0
  6  7  1  0  0  0  0
  6 23  1  0  0  0  0
  7  8  1  0  0  0  0
  7 12  2  0  0  0  0
  8  9  1  0  0  0  0
  8 10  1  0  0  0  0
  8 11  1  0  0  0  0
 13 14  1  0  0  0  0
 13 24  1  0  0  0  0
 14 15  1  0  0  0  0
 14 25  1  0  0  0  0
 14 26  1  0  0  0  0
 15 19  1  0  0  0  0
 15 16  1  0  0  0  0
 15 27  1  0  0  0  0
 16 17  1  0  0  0  0
 16 28  1  0  0  0  0
 16 29  1  0  0  0  0
 17 18  1  0  0  0  0
 17 30  1  0  0  0  0
 17 31  1  0  0  0  0
 18 19  1  0  0  0  0
 19 32  1  0  0  0  0
 19 33  1  0  0  0  0
M  END
> <s_m_source_file>
AV-unprocessed.smi

> <i_m_source_file_index>
1189

> <i_lp_mmshare_version>
43012

> <i_f3d_flags>
0

> <s_epik_input>
W0NIMl0xT1tDSDJdW0NIMl1bQ0BIXTFbQ0gyXVtOSF1DKD1PKVtDSDJdbjJbY0hdW2NIXWMobjIpQyhGKShGKUY=

> <s_epik_cmdline>
J2VwaWtfcHl0aG9uJywgJy1waCcsICc3LjAnLCAnLXRuJywgJzgnLCAnLW1hJywgJzIwMCcsICctbWV0YWxfYmluZGluZycsICctaW1hZScsICc8aW5maWxlLm1hZT4nLCAnLW9tYWUnLCAnPG91dGZpbGUubWFlPic=

> <r_lp_tautomer_probability>
1

> <r_epik_Ionization_Penalty>
1.26564e-07

> <r_epik_Ionization_Penalty_Charging>
0

> <r_epik_Ionization_Penalty_Neutral>
1.26564e-07

> <r_epik_State_Penalty>
-0

> <r_epik_Charging_Adjusted_Penalty>
0

> <i_epik_Tot_Q>
0

> <i_epik_Tot_abs_Q>
0

> <r_epik_Metal_State_Penalty>
-0

> <b_epik_Metal_Only>
0

> <s_lp_Force_Field>
OPLS_2005

> <r_lp_Energy>
21.601

> <b_lp_Chiralities_Consistent>
1

> <s_lp_Variant>
AV-unprocessed.smi:1189-1

> <Gold.Version>
5.8.1

> <Gold.Id.Protein>
6NUR|6NUR_protein|mol2

> <Gold.PLP.Fitness>
38.4422

> <Gold.PLP.PLP>
-30.7687

> <Gold.PLP.part.hbond>
-2.0000

> <Gold.PLP.part.metal>
0.0000

> <Gold.PLP.part.buried>
-3.5991

> <Gold.PLP.part.nonpolar>
-26.0307

> <Gold.PLP.part.repulsive>
1.1979

> <Gold.PLP.ligand.clash>
0.0000

> <Gold.PLP.ligand.torsion>
0.6856

> <Gold.PLP.Chemscore.Hbond>
2.0000

> <Gold.PLP.Chemscore.CHOScore>
1.0000

> <Gold.PLP.Chemscore.Metal>
0.0000

> <Gold.Chemscore.Hbonds>
donor molecule, donor type, donor heavy atom, donor atom, acceptor molecule, acceptor atom, score
      L1  H    13    24       P1  7948  1.00
      P1  H  7989  7998       L1    18  0.90
      L1  C     5    22       P1  7921  1.00

> <Gold.PLP.Chemscore.Internal.Correction>
0.0448

> <Gold.Rescore>
     Score         DG    S(hbond)    S(metal)    S(lipo)     H(rot)  DE(clash)    DE(int)     intcor
     11.93     -12.67       1.62        0.00      56.77       1.89       0.02       0.72       ----

> <Gold.Chemscore.Fitness>
11.9291

> <Gold.Chemscore.DG>
-12.6748

> <Gold.Chemscore.ZeroCoef>
-5.4800

> <Gold.Chemscore.Hbond>
1.6161

> <Gold.Chemscore.Metal>
0.0000

> <Gold.Chemscore.Lipo>
56.7744

> <Gold.Chemscore.Internal_Hbond>
0.0000

> <Gold.Chemscore.DEClash>
0.0243

> <Gold.Chemscore.DEInternal>
0.7213

> <Gold.Chemscore.Rot>
1.8928

> <Gold.Chemscore.Internal.Correction>
   9.000000E+99

> <Gold.Chemscore.Hbonds>
donor molecule, donor type, donor heavy atom, donor atom, acceptor molecule, acceptor atom, score
      L1  H    13    24       P1  7948  0.92
      P1  H  7989  7998       L1    18  0.07

> <Gold.Chemscore.Hbond.Weighted>
-5.3976

> <Gold.Chemscore.Metal.Weighted>
-0.0000

> <Gold.Chemscore.Lipo.Weighted>
-6.6426

> <Gold.Chemscore.Internal_Hbond.Weighted>
0.0000

> <Gold.Chemscore.DEClash.Weighted>
0.0243

> <Gold.Chemscore.DEInternal.Weighted>
0.7213

> <Gold.Chemscore.Rot.Weighted>
4.8455

> <Gold.Chemscore.Internal.Correction.Weighted>
   9.000000E+99

> <Gold.Protein.RotatedTorsions>
[ 6907 6896 6895 6894 ] final  140.37 input  -60.11 | X-H torsion
[ 7974 7965 7964 7962 ] final   33.27 input  175.53 | X-H torsion
[ 8008 7997 7996 7995 ] final   70.86 input   59.86 | X-H torsion
[ 10167 10162 10161 10158 ] final   30.35 input  -65.29 | X-H torsion
[ 10718 10713 10712 10709 ] final  101.01 input   66.30 | X-H torsion
[ 10763 10752 10751 10750 ] final   65.23 input  -60.55 | X-H torsion
[ 11005 11000 10999 10996 ] final  170.66 input  -57.11 | X-H torsion

> <Gold.Protein.ActiveResidues>
 VAL166  LYS551  ARG553  GLY616  TRP617  ASP618  TYR619  PRO620  LYS621  CYS622 
 ASP623  PHE694  ASN695  SER759  ASP760  ASP761  ALA762  ILE779  LEU786  VAL792 
 PHE793  MET794  SER795  GLU796  ALA797  LYS798  CYS799  TRP800  GLU811  SER814 

> <Gold.Protein.RotatedAtoms>
  152.2439  133.5158  159.5285 H   0  0  0  0  0  0  0  0  0  0  0  0  # atno 6907 bound_to 6896
  150.7072  134.1052  159.3989 H   0  0  0  0  0  0  0  0  0  0  0  0  # atno 6908 bound_to 6896
  151.8972  135.0393  160.0554 H   0  0  0  0  0  0  0  0  0  0  0  0  # atno 6909 bound_to 6896
  146.1432  139.6419  142.9149 H   0  0  0  0  0  0  0  0  0  0  0  0  # atno 7974 bound_to 7965
  155.7452  140.3489  155.5123 H   0  0  0  0  0  0  0  0  0  0  0  0  # atno 8008 bound_to 7997
  155.9056  140.1041  157.1339 H   0  0  0  0  0  0  0  0  0  0  0  0  # atno 8009 bound_to 7997
  154.4049  140.1277  156.4479 H   0  0  0  0  0  0  0  0  0  0  0  0  # atno 8010 bound_to 7997
  140.4685  144.0798  150.6231 H   0  0  0  0  0  0  0  0  0  0  0  0  # atno 10167 bound_to 10162
  157.6840  131.0714  150.5188 H   0  0  0  0  0  0  0  0  0  0  0  0  # atno 10718 bound_to 10713
  153.0088  135.5364  154.6635 H   0  0  0  0  0  0  0  0  0  0  0  0  # atno 10763 bound_to 10752
  154.5837  135.2852  155.0708 H   0  0  0  0  0  0  0  0  0  0  0  0  # atno 10764 bound_to 10752
  154.1828  135.6513  153.5091 H   0  0  0  0  0  0  0  0  0  0  0  0  # atno 10765 bound_to 10752
  140.3107  134.7519  157.3989 H   0  0  0  0  0  0  0  0  0  0  0  0  # atno 11005 bound_to 11000
  145.4999  141.0437  143.2546 LP  0  0  0  0  0  0  0  0  0  0  0  0  # atno 17320 bound_to 7965
  144.7816  139.6514  143.7152 LP  0  0  0  0  0  0  0  0  0  0  0  0  # atno 17321 bound_to 7965
  140.4006  143.2706  151.9952 LP  0  0  0  0  0  0  0  0  0  0  0  0  # atno 17342 bound_to 10162
  139.4815  144.6001  151.7621 LP  0  0  0  0  0  0  0  0  0  0  0  0  # atno 17343 bound_to 10162
  156.5502  130.4230  149.6111 LP  0  0  0  0  0  0  0  0  0  0  0  0  # atno 17370 bound_to 10713
  156.2909  130.7123  151.1972 LP  0  0  0  0  0  0  0  0  0  0  0  0  # atno 17371 bound_to 10713
  140.1027  134.5451  155.8338 LP  0  0  0  0  0  0  0  0  0  0  0  0  # atno 17394 bound_to 11000
  141.2108  133.6700  156.6540 LP  0  0  0  0  0  0  0  0  0  0  0  0  # atno 17395 bound_to 11000

$$$$
