AV-unprocessed.smi:3338|AV-procd|sdf|12873|dock6
  -GOLD-   2272019273D 1   1.00000     0.00000
 Structure written by MMmdl.
 44 45  0  0  0  0  0  0  0  0  2 V2000
  153.3227  142.2696  161.3910 C   0  0  0  0  0  0  0  0  0  0  0  0
  152.9088  142.4257  159.9208 C   0  0  2  0  0  0  0  0  0  0  0  0
  152.4895  143.8718  159.6060 C   0  0  0  0  0  0  0  0  0  0  0  0
  152.0495  143.9928  158.1415 C   0  0  0  0  0  0  0  0  0  0  0  0
  150.9437  142.9774  157.8124 C   0  0  0  0  0  0  0  0  0  0  0  0
  151.3840  141.5918  158.1180 N   0  3  2  0  0  0  0  0  0  0  0  0
  150.3935  140.5756  157.6838 C   0  0  0  0  0  0  0  0  0  0  0  0
  150.7668  139.1578  158.1581 C   0  0  0  0  0  0  0  0  0  0  0  0
  149.5775  138.3409  158.3653 N   0  0  0  0  0  0  0  0  0  0  0  0
  149.5730  137.1339  158.9534 C   0  0  0  0  0  0  0  0  0  0  0  0
  150.5989  136.5820  159.3536 O   0  0  0  0  0  0  0  0  0  0  0  0
  148.2009  136.4608  159.1202 C   0  0  1  0  0  0  0  0  0  0  0  0
  148.0317  135.2197  158.2214 C   0  0  0  0  0  0  0  0  0  0  0  0
  147.9521  136.1523  160.5239 N   0  0  0  0  0  0  0  0  0  0  0  0
  147.7122  134.9182  161.0936 C   0  0  0  0  0  0  0  0  0  0  0  0
  147.5138  135.1138  162.4303 C   0  0  0  0  0  0  0  0  0  0  0  0
  147.6445  136.5213  162.5888 C   0  0  0  0  0  0  0  0  0  0  0  0
  147.8991  137.1403  161.4479 N   0  0  0  0  0  0  0  0  0  0  0  0
  151.7770  141.4476  159.5459 C   0  0  0  0  0  0  0  0  0  0  0  0
  152.4953  142.4996  162.0633 H   0  0  0  0  0  0  0  0  0  0  0  0
  154.1483  142.9374  161.6395 H   0  0  0  0  0  0  0  0  0  0  0  0
  153.6490  141.2509  161.6016 H   0  0  0  0  0  0  0  0  0  0  0  0
  153.7783  142.1842  159.3073 H   0  0  0  0  0  0  0  0  0  0  0  0
  151.6699  144.1729  160.2603 H   0  0  0  0  0  0  0  0  0  0  0  0
  153.3146  144.5575  159.8037 H   0  0  0  0  0  0  0  0  0  0  0  0
  151.6974  145.0055  157.9413 H   0  0  0  0  0  0  0  0  0  0  0  0
  152.9060  143.8273  157.4864 H   0  0  0  0  0  0  0  0  0  0  0  0
  150.0389  143.2068  158.3775 H   0  0  0  0  0  0  0  0  0  0  0  0
  150.6881  143.0600  156.7552 H   0  0  0  0  0  0  0  0  0  0  0  0
  149.3996  140.8618  158.0321 H   0  0  0  0  0  0  0  0  0  0  0  0
  150.3414  140.5597  156.5941 H   0  0  0  0  0  0  0  0  0  0  0  0
  151.3896  138.6673  157.4093 H   0  0  0  0  0  0  0  0  0  0  0  0
  151.3523  139.1826  159.0778 H   0  0  0  0  0  0  0  0  0  0  0  0
  148.6952  138.7248  158.0581 H   0  0  0  0  0  0  0  0  0  0  0  0
  147.4466  137.1860  158.8105 H   0  0  0  0  0  0  0  0  0  0  0  0
  148.1765  135.4717  157.1702 H   0  0  0  0  0  0  0  0  0  0  0  0
  147.0291  134.8028  158.3212 H   0  0  0  0  0  0  0  0  0  0  0  0
  148.7419  134.4310  158.4732 H   0  0  0  0  0  0  0  0  0  0  0  0
  147.7048  134.0113  160.5073 H   0  0  0  0  0  0  0  0  0  0  0  0
  147.3064  134.3655  163.1809 H   0  0  0  0  0  0  0  0  0  0  0  0
  147.5601  137.1081  163.4917 H   0  0  0  0  0  0  0  0  0  0  0  0
  152.1098  140.4282  159.7405 H   0  0  0  0  0  0  0  0  0  0  0  0
  150.9059  141.6180  160.1810 H   0  0  0  0  0  0  0  0  0  0  0  0
  152.2146  141.4349  157.5655 H   0  0  0  0  0  0  0  0  0  0  0  0
  1  2  1  0  0  0  0
  1 20  1  0  0  0  0
  1 21  1  0  0  0  0
  1 22  1  0  0  0  0
  2 19  1  0  0  0  0
  2  3  1  0  0  0  0
  2 23  1  0  0  0  0
  3  4  1  0  0  0  0
  3 24  1  0  0  0  0
  3 25  1  0  0  0  0
  4  5  1  0  0  0  0
  4 26  1  0  0  0  0
  4 27  1  0  0  0  0
  5  6  1  0  0  0  0
  5 28  1  0  0  0  0
  5 29  1  0  0  0  0
  6  7  1  0  0  0  0
  6 19  1  0  0  0  0
  6 44  1  0  0  0  0
  7  8  1  0  0  0  0
  7 30  1  0  0  0  0
  7 31  1  0  0  0  0
  8  9  1  0  0  0  0
  8 32  1  0  0  0  0
  8 33  1  0  0  0  0
  9 10  1  0  0  0  0
  9 34  1  0  0  0  0
 10 11  2  0  0  0  0
 10 12  1  0  0  0  0
 12 13  1  0  0  0  0
 12 14  1  0  0  0  0
 12 35  1  0  0  0  0
 13 36  1  0  0  0  0
 13 37  1  0  0  0  0
 13 38  1  0  0  0  0
 14 18  1  0  0  0  0
 14 15  1  0  0  0  0
 15 16  2  0  0  0  0
 15 39  1  0  0  0  0
 16 17  1  0  0  0  0
 16 40  1  0  0  0  0
 17 18  2  0  0  0  0
 17 41  1  0  0  0  0
 19 42  1  0  0  0  0
 19 43  1  0  0  0  0
M  CHG  1   6   1
M  END
> <s_m_source_file>
AV-unprocessed.smi

> <i_m_source_file_index>
3338

> <i_lp_mmshare_version>
43012

> <i_f3d_flags>
0

> <s_epik_input>
W0NIM11bQ0BASF0xW0NIMl1bQ0gyXVtDSDJdTihbQ0gyXTEpW0NIMl1bQ0gyXVtOSF1DKD1PKVtDQEhdKFtDSDNdKW4yW2NIXVtjSF1bY0hdbjI=

> <s_epik_cmdline>
J2VwaWtfcHl0aG9uJywgJy1waCcsICc3LjAnLCAnLXRuJywgJzgnLCAnLW1hJywgJzIwMCcsICctbWV0YWxfYmluZGluZycsICctaW1hZScsICc8aW5maWxlLm1hZT4nLCAnLW9tYWUnLCAnPG91dGZpbGUubWFlPic=

> <r_lp_tautomer_probability>
1

> <r_epik_Ionization_Penalty>
0.00225707

> <r_epik_Ionization_Penalty_Charging>
0.00223709

> <r_epik_Ionization_Penalty_Neutral>
1.99775e-05

> <r_epik_State_Penalty>
0.00153978

> <r_epik_Charging_Adjusted_Penalty>
0.00377687

> <i_epik_Tot_Q>
1

> <i_epik_Tot_abs_Q>
1

> <r_epik_Metal_State_Penalty>
-0

> <b_epik_Metal_Only>
0

> <s_lp_Force_Field>
OPLS_2005

> <r_lp_Energy>
19.822

> <b_lp_Chiralities_Consistent>
1

> <s_lp_Variant>
AV-unprocessed.smi:3338-5

> <Gold.Version>
5.8.1

> <Gold.Id.Protein>
6NUR|6NUR_protein|mol2

> <Gold.PLP.Fitness>
50.6936

> <Gold.PLP.PLP>
-43.3820

> <Gold.PLP.part.hbond>
-3.0000

> <Gold.PLP.part.metal>
0.0000

> <Gold.PLP.part.buried>
-4.1788

> <Gold.PLP.part.nonpolar>
-35.9273

> <Gold.PLP.part.repulsive>
0.2304

> <Gold.PLP.ligand.clash>
0.0000

> <Gold.PLP.ligand.torsion>
0.4325

> <Gold.PLP.Chemscore.Hbond>
2.6880

> <Gold.PLP.Chemscore.CHOScore>
0.0000

> <Gold.PLP.Chemscore.Metal>
0.0000

> <Gold.Chemscore.Hbonds>
donor molecule, donor type, donor heavy atom, donor atom, acceptor molecule, acceptor atom, score
      P1  H  6896  6909       L1    11  1.00
      P1  H  6931  6943       L1    18  1.00
      P1  H  6934  6947       L1    18  0.63

> <Gold.PLP.Chemscore.Internal.Correction>
0.1125

> <Gold.Rescore>
     Score         DG    S(hbond)    S(metal)    S(lipo)     H(rot)  DE(clash)    DE(int)     intcor
     20.64     -21.15       2.29        0.00     107.07       1.76       0.07       0.44       ----

> <Gold.Chemscore.Fitness>
20.6408

> <Gold.Chemscore.DG>
-21.1548

> <Gold.Chemscore.ZeroCoef>
-5.4800

> <Gold.Chemscore.Hbond>
2.2890

> <Gold.Chemscore.Metal>
0.0000

> <Gold.Chemscore.Lipo>
107.0734

> <Gold.Chemscore.Internal_Hbond>
0.0000

> <Gold.Chemscore.DEClash>
0.0727

> <Gold.Chemscore.DEInternal>
0.4414

> <Gold.Chemscore.Rot>
1.7570

> <Gold.Chemscore.Internal.Correction>
   9.000000E+99

> <Gold.Chemscore.Hbonds>
donor molecule, donor type, donor heavy atom, donor atom, acceptor molecule, acceptor atom, score
      P1  H  6896  6909       L1    11  0.97
      P1  H  6931  6943       L1    18  0.34
      P1  H  6934  6947       L1    18  0.60

> <Gold.Chemscore.Hbond.Weighted>
-7.6451

> <Gold.Chemscore.Metal.Weighted>
-0.0000

> <Gold.Chemscore.Lipo.Weighted>
-12.5276

> <Gold.Chemscore.Internal_Hbond.Weighted>
0.0000

> <Gold.Chemscore.DEClash.Weighted>
0.0727

> <Gold.Chemscore.DEInternal.Weighted>
0.4414

> <Gold.Chemscore.Rot.Weighted>
4.4979

> <Gold.Chemscore.Internal.Correction.Weighted>
   9.000000E+99

> <Gold.Protein.RotatedTorsions>
[ 6907 6896 6895 6894 ] final   74.83 input  -60.11 | X-H torsion
[ 7974 7965 7964 7962 ] final  103.95 input  175.53 | X-H torsion
[ 8008 7997 7996 7995 ] final  -22.58 input   59.86 | X-H torsion
[ 10167 10162 10161 10158 ] final   13.03 input  -65.29 | X-H torsion
[ 10718 10713 10712 10709 ] final -157.71 input   66.30 | X-H torsion
[ 10763 10752 10751 10750 ] final   45.81 input  -60.55 | X-H torsion
[ 11005 11000 10999 10996 ] final    4.46 input  -57.11 | X-H torsion

> <Gold.Protein.ActiveResidues>
 VAL166  LYS551  ARG553  GLY616  TRP617  ASP618  TYR619  PRO620  LYS621  CYS622 
 ASP623  PHE694  ASN695  SER759  ASP760  ASP761  ALA762  ILE779  LEU786  VAL792 
 PHE793  MET794  SER795  GLU796  ALA797  LYS798  CYS799  TRP800  GLU811  SER814 

> <Gold.Protein.RotatedAtoms>
  152.4996  134.4211  159.9480 H   0  0  0  0  0  0  0  0  0  0  0  0  # atno 6907 bound_to 6896
  151.4184  133.3699  159.2761 H   0  0  0  0  0  0  0  0  0  0  0  0  # atno 6908 bound_to 6896
  150.9240  134.8679  159.7567 H   0  0  0  0  0  0  0  0  0  0  0  0  # atno 6909 bound_to 6896
  145.3392  139.2466  143.3619 H   0  0  0  0  0  0  0  0  0  0  0  0  # atno 7974 bound_to 7965
  154.4635  140.2004  156.0180 H   0  0  0  0  0  0  0  0  0  0  0  0  # atno 8008 bound_to 7997
  156.0885  140.3261  155.7756 H   0  0  0  0  0  0  0  0  0  0  0  0  # atno 8009 bound_to 7997
  155.4996  140.0553  157.2932 H   0  0  0  0  0  0  0  0  0  0  0  0  # atno 8010 bound_to 7997
  140.6029  143.8567  150.6984 H   0  0  0  0  0  0  0  0  0  0  0  0  # atno 10167 bound_to 10162
  156.5440  130.8576  151.2758 H   0  0  0  0  0  0  0  0  0  0  0  0  # atno 10718 bound_to 10713
  152.9819  135.6028  154.3498 H   0  0  0  0  0  0  0  0  0  0  0  0  # atno 10763 bound_to 10752
  154.3188  135.2770  155.2532 H   0  0  0  0  0  0  0  0  0  0  0  0  # atno 10764 bound_to 10752
  154.4708  135.5942  153.6376 H   0  0  0  0  0  0  0  0  0  0  0  0  # atno 10765 bound_to 10752
  140.5817  134.0007  155.8050 H   0  0  0  0  0  0  0  0  0  0  0  0  # atno 11005 bound_to 11000
  146.3014  140.3986  142.8702 LP  0  0  0  0  0  0  0  0  0  0  0  0  # atno 17320 bound_to 7965
  144.8803  140.7392  143.5990 LP  0  0  0  0  0  0  0  0  0  0  0  0  # atno 17321 bound_to 7965
  140.2117  143.3878  152.1712 LP  0  0  0  0  0  0  0  0  0  0  0  0  # atno 17342 bound_to 10162
  139.5304  144.7152  151.5077 LP  0  0  0  0  0  0  0  0  0  0  0  0  # atno 17343 bound_to 10162
  157.7400  130.9842  150.2349 LP  0  0  0  0  0  0  0  0  0  0  0  0  # atno 17370 bound_to 10713
  156.2945  130.3750  149.7809 LP  0  0  0  0  0  0  0  0  0  0  0  0  # atno 17371 bound_to 10713
  141.0992  133.9795  157.3108 LP  0  0  0  0  0  0  0  0  0  0  0  0  # atno 17394 bound_to 11000
  139.9314  135.0199  156.8413 LP  0  0  0  0  0  0  0  0  0  0  0  0  # atno 17395 bound_to 11000

$$$$
