AV-unprocessed.smi:2318|AV-procd|sdf|9275|dock2
  -GOLD-   2272012493D 1   1.00000     0.00000
 Structure written by MMmdl.
 37 38  0  0  0  0  0  0  0  0  1 V2000
  153.2552  142.1146  160.6177 C   0  0  0  0  0  0  0  0  0  0  0  0
  152.5294  142.7998  159.5701 N   0  0  0  0  0  0  0  0  0  0  0  0
  152.8812  143.9465  158.8870 C   0  0  0  0  0  0  0  0  0  0  0  0
  151.8838  144.2118  157.9919 C   0  0  0  0  0  0  0  0  0  0  0  0
  150.9576  143.1551  158.2112 C   0  0  0  0  0  0  0  0  0  0  0  0
  149.7586  143.0776  157.4572 N   0  0  0  0  0  0  0  0  0  0  0  0
  148.7771  142.1658  157.5665 C   0  0  0  0  0  0  0  0  0  0  0  0
  148.7694  141.2249  158.3604 O   0  0  0  0  0  0  0  0  0  0  0  0
  147.7928  142.4089  156.6888 N   0  0  0  0  0  0  0  0  0  0  0  0
  146.5639  141.6277  156.5328 C   0  0  2  0  0  0  0  0  0  0  0  0
  146.6476  140.8023  155.2234 C   0  0  0  0  0  0  0  0  0  0  0  0
  147.6179  139.6168  155.2581 C   0  0  0  0  0  0  0  0  0  0  0  0
  147.8611  139.2651  153.7884 C   0  0  0  0  0  0  0  0  0  0  0  0
  147.6527  140.5654  153.0009 C   0  0  0  0  0  0  0  0  0  0  0  0
  147.1418  141.6024  154.0088 C   0  0  0  0  0  0  0  0  0  0  0  0
  145.3528  142.5863  156.5974 C   0  0  0  0  0  0  0  0  0  0  0  0
  145.3608  143.2475  157.7557 F   0  0  0  0  0  0  0  0  0  0  0  0
  145.4009  143.4712  155.6009 F   0  0  0  0  0  0  0  0  0  0  0  0
  144.2049  141.9138  156.5239 F   0  0  0  0  0  0  0  0  0  0  0  0
  151.3430  142.3077  159.1556 N   0  0  0  0  0  0  0  0  0  0  0  0
  154.1797  142.6469  160.8429 H   0  0  0  0  0  0  0  0  0  0  0  0
  153.4983  141.1014  160.2963 H   0  0  0  0  0  0  0  0  0  0  0  0
  152.6445  142.0678  161.5199 H   0  0  0  0  0  0  0  0  0  0  0  0
  153.8019  144.4730  159.0923 H   0  0  0  0  0  0  0  0  0  0  0  0
  151.8271  145.0329  157.2927 H   0  0  0  0  0  0  0  0  0  0  0  0
  149.6337  143.7967  156.7603 H   0  0  0  0  0  0  0  0  0  0  0  0
  147.8926  143.2085  156.0808 H   0  0  0  0  0  0  0  0  0  0  0  0
  146.4674  140.9263  157.3635 H   0  0  0  0  0  0  0  0  0  0  0  0
  145.6551  140.4155  154.9858 H   0  0  0  0  0  0  0  0  0  0  0  0
  148.5581  139.9180  155.7225 H   0  0  0  0  0  0  0  0  0  0  0  0
  147.2267  138.7659  155.8159 H   0  0  0  0  0  0  0  0  0  0  0  0
  148.8529  138.8403  153.6313 H   0  0  0  0  0  0  0  0  0  0  0  0
  147.1324  138.5214  153.4629 H   0  0  0  0  0  0  0  0  0  0  0  0
  148.5773  140.9031  152.5313 H   0  0  0  0  0  0  0  0  0  0  0  0
  146.9228  140.4083  152.2058 H   0  0  0  0  0  0  0  0  0  0  0  0
  146.3651  142.2392  153.5841 H   0  0  0  0  0  0  0  0  0  0  0  0
  147.9679  142.2509  154.3057 H   0  0  0  0  0  0  0  0  0  0  0  0
  1  2  1  0  0  0  0
  1 21  1  0  0  0  0
  1 22  1  0  0  0  0
  1 23  1  0  0  0  0
  2 20  1  0  0  0  0
  2  3  1  0  0  0  0
  3  4  2  0  0  0  0
  3 24  1  0  0  0  0
  4  5  1  0  0  0  0
  4 25  1  0  0  0  0
  5  6  1  0  0  0  0
  5 20  2  0  0  0  0
  6  7  1  0  0  0  0
  6 26  1  0  0  0  0
  7  8  2  0  0  0  0
  7  9  1  0  0  0  0
  9 10  1  0  0  0  0
  9 27  1  0  0  0  0
 10 11  1  0  0  0  0
 10 16  1  0  0  0  0
 10 28  1  0  0  0  0
 11 15  1  0  0  0  0
 11 12  1  0  0  0  0
 11 29  1  0  0  0  0
 12 13  1  0  0  0  0
 12 30  1  0  0  0  0
 12 31  1  0  0  0  0
 13 14  1  0  0  0  0
 13 32  1  0  0  0  0
 13 33  1  0  0  0  0
 14 15  1  0  0  0  0
 14 34  1  0  0  0  0
 14 35  1  0  0  0  0
 15 36  1  0  0  0  0
 15 37  1  0  0  0  0
 16 17  1  0  0  0  0
 16 18  1  0  0  0  0
 16 19  1  0  0  0  0
M  END
> <s_m_source_file>
AV-unprocessed.smi

> <i_m_source_file_index>
2318

> <i_lp_mmshare_version>
43012

> <i_f3d_flags>
0

> <s_epik_input>
W0NIM11uMVtjSF1bY0hdYyhuMSlbTkhdQyg9TylbTkhdW0NAQEhdKEMoRikoRilGKVtDSF0yW0NIMl1bQ0gyXVtDSDJdW0NIMl0y

> <s_epik_cmdline>
J2VwaWtfcHl0aG9uJywgJy1waCcsICc3LjAnLCAnLXRuJywgJzgnLCAnLW1hJywgJzIwMCcsICctbWV0YWxfYmluZGluZycsICctaW1hZScsICc8aW5maWxlLm1hZT4nLCAnLW9tYWUnLCAnPG91dGZpbGUubWFlPic=

> <r_lp_tautomer_probability>
1

> <r_epik_Ionization_Penalty>
2.39546e-05

> <r_epik_Ionization_Penalty_Charging>
0

> <r_epik_Ionization_Penalty_Neutral>
2.39546e-05

> <r_epik_State_Penalty>
-0

> <r_epik_Charging_Adjusted_Penalty>
0

> <i_epik_Tot_Q>
0

> <i_epik_Tot_abs_Q>
0

> <r_epik_Metal_State_Penalty>
-0

> <b_epik_Metal_Only>
0

> <s_lp_Force_Field>
OPLS_2005

> <r_lp_Energy>
23.9909

> <b_lp_Chiralities_Consistent>
1

> <s_lp_Variant>
AV-unprocessed.smi:2318-1

> <Gold.Version>
5.8.1

> <Gold.Id.Protein>
6NUR|6NUR_protein|mol2

> <Gold.PLP.Fitness>
39.5998

> <Gold.PLP.PLP>
-33.9919

> <Gold.PLP.part.hbond>
-2.6174

> <Gold.PLP.part.metal>
0.0000

> <Gold.PLP.part.buried>
-0.7559

> <Gold.PLP.part.nonpolar>
-30.7509

> <Gold.PLP.part.repulsive>
0.0558

> <Gold.PLP.ligand.clash>
0.0000

> <Gold.PLP.ligand.torsion>
0.3008

> <Gold.PLP.Chemscore.Hbond>
1.9600

> <Gold.PLP.Chemscore.CHOScore>
0.0000

> <Gold.PLP.Chemscore.Metal>
0.0000

> <Gold.Chemscore.Hbonds>
donor molecule, donor type, donor heavy atom, donor atom, acceptor molecule, acceptor atom, score
      L1  H     6    26       P1  8028  1.00
      L1  H     9    27       P1  8028  0.96

> <Gold.PLP.Chemscore.Internal.Correction>
0.3295

> <Gold.Rescore>
     Score         DG    S(hbond)    S(metal)    S(lipo)     H(rot)  DE(clash)    DE(int)     intcor
     12.30     -15.70       1.62        0.00      69.61       1.30       1.77       1.63       ----

> <Gold.Chemscore.Fitness>
12.3030

> <Gold.Chemscore.DG>
-15.7015

> <Gold.Chemscore.ZeroCoef>
-5.4800

> <Gold.Chemscore.Hbond>
1.6184

> <Gold.Chemscore.Metal>
0.0000

> <Gold.Chemscore.Lipo>
69.6148

> <Gold.Chemscore.Internal_Hbond>
0.0000

> <Gold.Chemscore.DEClash>
1.7671

> <Gold.Chemscore.DEInternal>
1.6314

> <Gold.Chemscore.Rot>
1.3003

> <Gold.Chemscore.Internal.Correction>
   9.000000E+99

> <Gold.Chemscore.Hbonds>
donor molecule, donor type, donor heavy atom, donor atom, acceptor molecule, acceptor atom, score
      L1  H     6    26       P1  8028  0.96
      L1  H     9    27       P1  8028  0.24

> <Gold.Chemscore.Hbond.Weighted>
-5.4053

> <Gold.Chemscore.Metal.Weighted>
-0.0000

> <Gold.Chemscore.Lipo.Weighted>
-8.1449

> <Gold.Chemscore.Internal_Hbond.Weighted>
0.0000

> <Gold.Chemscore.DEClash.Weighted>
1.7671

> <Gold.Chemscore.DEInternal.Weighted>
1.6314

> <Gold.Chemscore.Rot.Weighted>
3.3287

> <Gold.Chemscore.Internal.Correction.Weighted>
   9.000000E+99

> <Gold.Protein.RotatedTorsions>
[ 6907 6896 6895 6894 ] final    2.83 input  -60.11 | X-H torsion
[ 7974 7965 7964 7962 ] final -159.67 input  175.53 | X-H torsion
[ 8008 7997 7996 7995 ] final  167.01 input   59.86 | X-H torsion
[ 10167 10162 10161 10158 ] final   94.16 input  -65.29 | X-H torsion
[ 10718 10713 10712 10709 ] final  110.00 input   66.30 | X-H torsion
[ 10763 10752 10751 10750 ] final   -9.78 input  -60.55 | X-H torsion
[ 11005 11000 10999 10996 ] final  -60.47 input  -57.11 | X-H torsion

> <Gold.Protein.ActiveResidues>
 VAL166  LYS551  ARG553  GLY616  TRP617  ASP618  TYR619  PRO620  LYS621  CYS622 
 ASP623  PHE694  ASN695  SER759  ASP760  ASP761  ALA762  ILE779  LEU786  VAL792 
 PHE793  MET794  SER795  GLU796  ALA797  LYS798  CYS799  TRP800  GLU811  SER814 

> <Gold.Protein.RotatedAtoms>
  151.6153  135.1037  160.0089 H   0  0  0  0  0  0  0  0  0  0  0  0  # atno 6907 bound_to 6896
  152.4187  133.7076  159.6470 H   0  0  0  0  0  0  0  0  0  0  0  0  # atno 6908 bound_to 6896
  150.8074  133.8410  159.3220 H   0  0  0  0  0  0  0  0  0  0  0  0  # atno 6909 bound_to 6896
  144.7456  140.3651  143.6088 H   0  0  0  0  0  0  0  0  0  0  0  0  # atno 7974 bound_to 7965
  156.1670  140.1628  156.8514 H   0  0  0  0  0  0  0  0  0  0  0  0  # atno 8008 bound_to 7997
  154.5218  140.0776  156.8220 H   0  0  0  0  0  0  0  0  0  0  0  0  # atno 8009 bound_to 7997
  155.3591  140.3394  155.4242 H   0  0  0  0  0  0  0  0  0  0  0  0  # atno 8010 bound_to 7997
  139.8110  144.6773  150.9640 H   0  0  0  0  0  0  0  0  0  0  0  0  # atno 10167 bound_to 10162
  157.6515  131.0924  150.6538 H   0  0  0  0  0  0  0  0  0  0  0  0  # atno 10718 bound_to 10713
  153.4596  135.7016  153.6058 H   0  0  0  0  0  0  0  0  0  0  0  0  # atno 10763 bound_to 10752
  153.4358  135.3792  155.2198 H   0  0  0  0  0  0  0  0  0  0  0  0  # atno 10764 bound_to 10752
  154.8727  135.3962  154.4020 H   0  0  0  0  0  0  0  0  0  0  0  0  # atno 10765 bound_to 10752
  141.1288  133.6622  156.5228 H   0  0  0  0  0  0  0  0  0  0  0  0  # atno 11005 bound_to 11000
  145.7136  139.1691  143.2524 LP  0  0  0  0  0  0  0  0  0  0  0  0  # atno 17320 bound_to 7965
  146.1329  140.7162  142.9404 LP  0  0  0  0  0  0  0  0  0  0  0  0  # atno 17321 bound_to 7965
  140.7818  143.4185  151.0879 LP  0  0  0  0  0  0  0  0  0  0  0  0  # atno 17342 bound_to 10162
  139.7851  143.8298  152.3144 LP  0  0  0  0  0  0  0  0  0  0  0  0  # atno 17343 bound_to 10162
  156.6848  130.4578  149.5617 LP  0  0  0  0  0  0  0  0  0  0  0  0  # atno 17370 bound_to 10713
  156.1903  130.6555  151.1054 LP  0  0  0  0  0  0  0  0  0  0  0  0  # atno 17371 bound_to 10713
  140.4278  134.7129  157.4925 LP  0  0  0  0  0  0  0  0  0  0  0  0  # atno 17394 bound_to 11000
  140.0315  134.6400  155.9101 LP  0  0  0  0  0  0  0  0  0  0  0  0  # atno 17395 bound_to 11000

$$$$
