AV-unprocessed.smi:1593|AV-procd|sdf|6410|dock6
  -GOLD-   22720 7 43D 1   1.00000     0.00000
 Structure written by MMmdl.
 37 38  0  0  0  0  0  0  0  0  2 V2000
  153.4705  137.6332  157.0326 C   0  0  0  0  0  0  0  0  0  0  0  0
  152.5334  138.2844  156.0742 C   0  0  0  0  0  0  0  0  0  0  0  0
  151.4633  137.8236  155.3599 C   0  0  0  0  0  0  0  0  0  0  0  0
  151.0325  138.9763  154.6508 C   0  0  0  0  0  0  0  0  0  0  0  0
  149.9181  138.9184  153.7755 N   0  0  0  0  0  0  0  0  0  0  0  0
  148.6513  138.5947  154.0862 C   0  0  0  0  0  0  0  0  0  0  0  0
  148.2486  138.3008  155.2121 O   0  0  0  0  0  0  0  0  0  0  0  0
  147.8579  138.6256  153.0055 N   0  0  0  0  0  0  0  0  0  0  0  0
  146.4295  138.3317  153.0162 C   0  0  0  0  0  0  0  0  0  0  0  0
  146.1312  136.9943  153.7215 C   0  0  0  0  0  0  0  0  0  0  0  0
  146.1867  135.8399  152.7909 N   0  3  0  0  0  0  0  0  0  0  0  0
  146.0404  134.5427  153.4936 C   0  0  0  0  0  0  0  0  0  0  0  0
  146.1483  133.3738  152.4998 C   0  0  0  0  0  0  0  0  0  0  0  0
  145.1674  133.5212  151.4811 O   0  0  0  0  0  0  0  0  0  0  0  0
  145.3495  134.7198  150.7380 C   0  0  0  0  0  0  0  0  0  0  0  0
  145.2143  135.9336  151.6730 C   0  0  0  0  0  0  0  0  0  0  0  0
  151.7725  140.0438  154.9085 N   0  0  0  0  0  0  0  0  0  0  0  0
  152.7385  139.6056  155.8220 O   0  0  0  0  0  0  0  0  0  0  0  0
  153.2299  136.5772  157.1572 H   0  0  0  0  0  0  0  0  0  0  0  0
  153.4147  138.1104  158.0110 H   0  0  0  0  0  0  0  0  0  0  0  0
  154.4985  137.7066  156.6774 H   0  0  0  0  0  0  0  0  0  0  0  0
  151.0568  136.8232  155.3493 H   0  0  0  0  0  0  0  0  0  0  0  0
  150.1086  139.1414  152.8098 H   0  0  0  0  0  0  0  0  0  0  0  0
  148.2677  138.8782  152.1178 H   0  0  0  0  0  0  0  0  0  0  0  0
  145.8998  139.1598  153.4878 H   0  0  0  0  0  0  0  0  0  0  0  0
  146.0845  138.2915  151.9828 H   0  0  0  0  0  0  0  0  0  0  0  0
  146.8742  136.8550  154.5084 H   0  0  0  0  0  0  0  0  0  0  0  0
  145.1595  137.0159  154.2171 H   0  0  0  0  0  0  0  0  0  0  0  0
  146.8131  134.4447  154.2570 H   0  0  0  0  0  0  0  0  0  0  0  0
  145.0770  134.5105  154.0051 H   0  0  0  0  0  0  0  0  0  0  0  0
  147.1455  133.3269  152.0590 H   0  0  0  0  0  0  0  0  0  0  0  0
  145.9833  132.4274  153.0149 H   0  0  0  0  0  0  0  0  0  0  0  0
  146.3234  134.7129  150.2456 H   0  0  0  0  0  0  0  0  0  0  0  0
  144.5959  134.7658  149.9514 H   0  0  0  0  0  0  0  0  0  0  0  0
  144.2000  135.9824  152.0723 H   0  0  0  0  0  0  0  0  0  0  0  0
  145.3749  136.8464  151.1002 H   0  0  0  0  0  0  0  0  0  0  0  0
  147.1108  135.8388  152.3831 H   0  0  0  0  0  0  0  0  0  0  0  0
  1  2  1  0  0  0  0
  1 19  1  0  0  0  0
  1 20  1  0  0  0  0
  1 21  1  0  0  0  0
  2 18  1  0  0  0  0
  2  3  2  0  0  0  0
  3  4  1  0  0  0  0
  3 22  1  0  0  0  0
  4  5  1  0  0  0  0
  4 17  2  0  0  0  0
  5  6  1  0  0  0  0
  5 23  1  0  0  0  0
  6  7  2  0  0  0  0
  6  8  1  0  0  0  0
  8  9  1  0  0  0  0
  8 24  1  0  0  0  0
  9 10  1  0  0  0  0
  9 25  1  0  0  0  0
  9 26  1  0  0  0  0
 10 11  1  0  0  0  0
 10 27  1  0  0  0  0
 10 28  1  0  0  0  0
 11 16  1  0  0  0  0
 11 12  1  0  0  0  0
 11 37  1  0  0  0  0
 12 13  1  0  0  0  0
 12 29  1  0  0  0  0
 12 30  1  0  0  0  0
 13 14  1  0  0  0  0
 13 31  1  0  0  0  0
 13 32  1  0  0  0  0
 14 15  1  0  0  0  0
 15 16  1  0  0  0  0
 15 33  1  0  0  0  0
 15 34  1  0  0  0  0
 16 35  1  0  0  0  0
 16 36  1  0  0  0  0
 17 18  1  0  0  0  0
M  CHG  1  11   1
M  END
> <s_m_source_file>
AV-unprocessed.smi

> <i_m_source_file_index>
1593

> <i_lp_mmshare_version>
43012

> <i_f3d_flags>
0

> <s_epik_input>
W0NIM11jMVtjSF1jKG5vMSlbTkhdQyg9TylbTkhdW0NIMl1bQ0gyXU4yW0NIMl1bQ0gyXU9bQ0gyXVtDSDJdMg==

> <s_epik_cmdline>
J2VwaWtfcHl0aG9uJywgJy1waCcsICc3LjAnLCAnLXRuJywgJzgnLCAnLW1hJywgJzIwMCcsICctbWV0YWxfYmluZGluZycsICctaW1hZScsICc8aW5maWxlLm1hZT4nLCAnLW9tYWUnLCAnPG91dGZpbGUubWFlPic=

> <r_epik_Ionization_Penalty>
0.707076

> <r_epik_Ionization_Penalty_Charging>
0.707039

> <r_epik_Ionization_Penalty_Neutral>
3.67886e-05

> <r_epik_State_Penalty>
0.730276

> <r_epik_Charging_Adjusted_Penalty>
1.43732

> <i_epik_Tot_Q>
1

> <i_epik_Tot_abs_Q>
1

> <r_epik_Metal_State_Penalty>
0.743216

> <b_epik_Metal_Only>
0

> <s_lp_Force_Field>
OPLS_2005

> <r_lp_Energy>
12.0314

> <b_lp_Chiralities_Consistent>
1

> <s_lp_Variant>
AV-unprocessed.smi:1593-2

> <Gold.Version>
5.8.1

> <Gold.Id.Protein>
6NUR|6NUR_protein|mol2

> <Gold.PLP.Fitness>
43.0656

> <Gold.PLP.PLP>
-26.7526

> <Gold.PLP.part.hbond>
-5.9619

> <Gold.PLP.part.metal>
0.0000

> <Gold.PLP.part.buried>
-4.0551

> <Gold.PLP.part.nonpolar>
-17.9420

> <Gold.PLP.part.repulsive>
0.3962

> <Gold.PLP.ligand.clash>
0.0000

> <Gold.PLP.ligand.torsion>
0.7893

> <Gold.PLP.Chemscore.Hbond>
5.9600

> <Gold.PLP.Chemscore.CHOScore>
0.0000

> <Gold.PLP.Chemscore.Metal>
0.0000

> <Gold.Chemscore.Hbonds>
donor molecule, donor type, donor heavy atom, donor atom, acceptor molecule, acceptor atom, score
      L1  H     5    23       P1  7957  1.00
      L1  H     8    24       P1  7957  0.96
      L1  H    11    37       P1  7948  2.00
      P1  H  7989  7998       L1    17  0.96
      P1  H  7997  8009       L1    18  1.00

> <Gold.PLP.Chemscore.Internal.Correction>
0.0117

> <Gold.Rescore>
     Score         DG    S(hbond)    S(metal)    S(lipo)     H(rot)  DE(clash)    DE(int)     intcor
     18.37     -20.32       4.16        0.00      44.18       1.65       0.12       1.84       ----

> <Gold.Chemscore.Fitness>
18.3660

> <Gold.Chemscore.DG>
-20.3230

> <Gold.Chemscore.ZeroCoef>
-5.4800

> <Gold.Chemscore.Hbond>
4.1623

> <Gold.Chemscore.Metal>
0.0000

> <Gold.Chemscore.Lipo>
44.1798

> <Gold.Chemscore.Internal_Hbond>
0.0000

> <Gold.Chemscore.DEClash>
0.1211

> <Gold.Chemscore.DEInternal>
1.8359

> <Gold.Chemscore.Rot>
1.6516

> <Gold.Chemscore.Internal.Correction>
   9.000000E+99

> <Gold.Chemscore.Hbonds>
donor molecule, donor type, donor heavy atom, donor atom, acceptor molecule, acceptor atom, score
      L1  H     5    23       P1  7957  0.78
      L1  H     8    24       P1  7957  0.86
      L1  H    11    37       P1  7948  0.99
      P1  H  7989  7998       L1    17  0.32
      P1  H  7997  8009       L1    18  0.93

> <Gold.Chemscore.Hbond.Weighted>
-13.9020

> <Gold.Chemscore.Metal.Weighted>
-0.0000

> <Gold.Chemscore.Lipo.Weighted>
-5.1690

> <Gold.Chemscore.Internal_Hbond.Weighted>
0.0000

> <Gold.Chemscore.DEClash.Weighted>
0.1211

> <Gold.Chemscore.DEInternal.Weighted>
1.8359

> <Gold.Chemscore.Rot.Weighted>
4.2281

> <Gold.Chemscore.Internal.Correction.Weighted>
   9.000000E+99

> <Gold.Protein.RotatedTorsions>
[ 6907 6896 6895 6894 ] final   -4.42 input  -60.11 | X-H torsion
[ 7974 7965 7964 7962 ] final  137.26 input  175.53 | X-H torsion
[ 8008 7997 7996 7995 ] final -142.64 input   59.86 | X-H torsion
[ 10167 10162 10161 10158 ] final -166.37 input  -65.29 | X-H torsion
[ 10718 10713 10712 10709 ] final   38.52 input   66.30 | X-H torsion
[ 10763 10752 10751 10750 ] final    8.55 input  -60.55 | X-H torsion
[ 11005 11000 10999 10996 ] final    5.10 input  -57.11 | X-H torsion

> <Gold.Protein.ActiveResidues>
 VAL166  LYS551  ARG553  GLY616  TRP617  ASP618  TYR619  PRO620  LYS621  CYS622 
 ASP623  PHE694  ASN695  SER759  ASP760  ASP761  ALA762  ILE779  LEU786  VAL792 
 PHE793  MET794  SER795  GLU796  ALA797  LYS798  CYS799  TRP800  GLU811  SER814 

> <Gold.Protein.RotatedAtoms>
  151.4980  135.1060  159.9821 H   0  0  0  0  0  0  0  0  0  0  0  0  # atno 6907 bound_to 6896
  152.4713  133.8033  159.6975 H   0  0  0  0  0  0  0  0  0  0  0  0  # atno 6908 bound_to 6896
  150.8725  133.7423  159.2983 H   0  0  0  0  0  0  0  0  0  0  0  0  # atno 6909 bound_to 6896
  144.9485  139.4847  143.5537 H   0  0  0  0  0  0  0  0  0  0  0  0  # atno 7974 bound_to 7965
  155.4976  140.0573  157.2944 H   0  0  0  0  0  0  0  0  0  0  0  0  # atno 8008 bound_to 7997
  154.4599  140.1991  156.0223 H   0  0  0  0  0  0  0  0  0  0  0  0  # atno 8009 bound_to 7997
  156.0871  140.3239  155.7771 H   0  0  0  0  0  0  0  0  0  0  0  0  # atno 8010 bound_to 7997
  139.6119  144.0797  152.1850 H   0  0  0  0  0  0  0  0  0  0  0  0  # atno 10167 bound_to 10162
  157.3598  130.7643  149.7039 H   0  0  0  0  0  0  0  0  0  0  0  0  # atno 10718 bound_to 10713
  153.2238  135.6884  153.7969 H   0  0  0  0  0  0  0  0  0  0  0  0  # atno 10763 bound_to 10752
  153.7159  135.3275  155.3257 H   0  0  0  0  0  0  0  0  0  0  0  0  # atno 10764 bound_to 10752
  154.8282  135.4601  154.1095 H   0  0  0  0  0  0  0  0  0  0  0  0  # atno 10765 bound_to 10752
  140.5745  134.0070  155.8022 H   0  0  0  0  0  0  0  0  0  0  0  0  # atno 11005 bound_to 11000
  146.3312  139.8553  142.8866 LP  0  0  0  0  0  0  0  0  0  0  0  0  # atno 17320 bound_to 7965
  145.2881  141.0159  143.3679 LP  0  0  0  0  0  0  0  0  0  0  0  0  # atno 17321 bound_to 7965
  140.0418  144.6002  150.7405 LP  0  0  0  0  0  0  0  0  0  0  0  0  # atno 17342 bound_to 10162
  140.7325  143.2706  151.3900 LP  0  0  0  0  0  0  0  0  0  0  0  0  # atno 17343 bound_to 10162
  155.9735  130.4117  150.3994 LP  0  0  0  0  0  0  0  0  0  0  0  0  # atno 17370 bound_to 10713
  157.2070  131.0451  151.2620 LP  0  0  0  0  0  0  0  0  0  0  0  0  # atno 17371 bound_to 10713
  141.1035  133.9731  157.3038 LP  0  0  0  0  0  0  0  0  0  0  0  0  # atno 17394 bound_to 11000
  139.9346  135.0197  156.8513 LP  0  0  0  0  0  0  0  0  0  0  0  0  # atno 17395 bound_to 11000

$$$$
