AV-unprocessed.smi:79|AV-procd|sdf|784|dock3
  -GOLD-   2262017153D 1   1.00000     0.00000
 Structure written by MMmdl.
 56 59  0  0  0  0  0  0  0  0  2 V2000
  152.1605  144.3329  159.0003 C   0  0  0  0  0  0  0  0  0  0  0  0
  150.8471  144.8212  158.3761 C   0  0  1  0  0  0  0  0  0  0  0  0
  151.0243  144.8911  156.9755 O   0  0  0  0  0  0  0  0  0  0  0  0
  149.6697  143.8776  158.6923 C   0  0  0  0  0  0  0  0  0  0  0  0
  149.5373  142.7769  157.7036 N   0  3  1  0  0  0  0  0  0  0  0  0
  150.7764  141.9654  157.5919 C   0  0  0  0  0  0  0  0  0  0  0  0
  150.6516  140.9066  156.4828 C   0  0  0  0  0  0  0  0  0  0  0  0
  149.4523  140.0947  156.6768 N   0  0  0  0  0  0  0  0  0  0  0  0
  149.6307  138.9517  157.3899 C   0  0  0  0  0  0  0  0  0  0  0  0
  150.8862  138.4897  157.6333 N   0  0  0  0  0  0  0  0  0  0  0  0
  151.0697  137.3652  158.3311 C   0  0  0  0  0  0  0  0  0  0  0  0
  150.1533  136.5601  158.8709 N   0  0  0  0  0  0  0  0  0  0  0  0
  148.8910  137.0174  158.6327 C   0  0  0  0  0  0  0  0  0  0  0  0
  148.5437  138.1918  157.9069 C   0  0  0  0  0  0  0  0  0  0  0  0
  147.1623  138.3392  157.8810 N   0  0  0  0  0  0  0  0  0  0  0  0
  146.7185  137.3086  158.5477 C   0  0  0  0  0  0  0  0  0  0  0  0
  147.6883  136.4580  159.0291 N   0  0  0  0  0  0  0  0  0  0  0  0
  147.4773  135.2475  159.8088 C   0  0  0  0  0  0  0  0  0  0  0  0
  146.8467  135.4981  161.1912 C   0  0  0  0  0  0  0  0  0  0  0  0
  146.6766  134.1422  161.9053 C   0  0  0  0  0  0  0  0  0  0  0  0
  145.9102  133.2247  161.1507 O   0  0  0  0  0  0  0  0  0  0  0  0
  147.5034  136.6186  162.0100 C   0  0  0  0  0  0  0  0  0  0  0  0
  146.2393  137.2855  162.2203 O   0  0  0  0  0  0  0  0  0  0  0  0
  145.6299  136.4340  161.2250 C   0  0  0  0  0  0  0  0  0  0  0  0
  148.1993  140.8427  156.8246 C   0  0  2  0  0  0  0  0  0  0  0  0
  147.7424  141.4414  155.4831 C   0  0  0  0  0  0  0  0  0  0  0  0
  148.3348  141.9265  157.9181 C   0  0  0  0  0  0  0  0  0  0  0  0
  152.0816  144.2809  160.0865 H   0  0  0  0  0  0  0  0  0  0  0  0
  152.9836  145.0082  158.7636 H   0  0  0  0  0  0  0  0  0  0  0  0
  152.4298  143.3398  158.6391 H   0  0  0  0  0  0  0  0  0  0  0  0
  150.6473  145.8263  158.7457 H   0  0  0  0  0  0  0  0  0  0  0  0
  150.2079  145.1549  156.5786 H   0  0  0  0  0  0  0  0  0  0  0  0
  149.8215  143.4599  159.6890 H   0  0  0  0  0  0  0  0  0  0  0  0
  148.7326  144.4348  158.7370 H   0  0  0  0  0  0  0  0  0  0  0  0
  151.6271  142.6123  157.3751 H   0  0  0  0  0  0  0  0  0  0  0  0
  150.9790  141.4822  158.5492 H   0  0  0  0  0  0  0  0  0  0  0  0
  150.5946  141.3911  155.5080 H   0  0  0  0  0  0  0  0  0  0  0  0
  151.5543  140.2967  156.4621 H   0  0  0  0  0  0  0  0  0  0  0  0
  152.0977  137.0684  158.4787 H   0  0  0  0  0  0  0  0  0  0  0  0
  145.6634  137.1436  158.7107 H   0  0  0  0  0  0  0  0  0  0  0  0
  146.8625  134.5618  159.2243 H   0  0  0  0  0  0  0  0  0  0  0  0
  148.4444  134.7546  159.9149 H   0  0  0  0  0  0  0  0  0  0  0  0
  147.6417  133.6732  162.0948 H   0  0  0  0  0  0  0  0  0  0  0  0
  146.1906  134.2715  162.8728 H   0  0  0  0  0  0  0  0  0  0  0  0
  145.1049  133.0524  161.6141 H   0  0  0  0  0  0  0  0  0  0  0  0
  147.9651  136.2870  162.9406 H   0  0  0  0  0  0  0  0  0  0  0  0
  148.1950  137.2394  161.4387 H   0  0  0  0  0  0  0  0  0  0  0  0
  145.4547  136.9733  160.2937 H   0  0  0  0  0  0  0  0  0  0  0  0
  144.7125  135.9626  161.5788 H   0  0  0  0  0  0  0  0  0  0  0  0
  147.4084  140.1544  157.1265 H   0  0  0  0  0  0  0  0  0  0  0  0
  146.7738  141.9312  155.5858 H   0  0  0  0  0  0  0  0  0  0  0  0
  147.6359  140.6641  154.7260 H   0  0  0  0  0  0  0  0  0  0  0  0
  148.4452  142.1826  155.1021 H   0  0  0  0  0  0  0  0  0  0  0  0
  148.4104  141.4557  158.8992 H   0  0  0  0  0  0  0  0  0  0  0  0
  147.4292  142.5313  157.9396 H   0  0  0  0  0  0  0  0  0  0  0  0
  149.4183  143.2226  156.8048 H   0  0  0  0  0  0  0  0  0  0  0  0
  1  2  1  0  0  0  0
  1 28  1  0  0  0  0
  1 29  1  0  0  0  0
  1 30  1  0  0  0  0
  2  3  1  0  0  0  0
  2  4  1  0  0  0  0
  2 31  1  0  0  0  0
  3 32  1  0  0  0  0
  4  5  1  0  0  0  0
  4 33  1  0  0  0  0
  4 34  1  0  0  0  0
  5 27  1  0  0  0  0
  5  6  1  0  0  0  0
  5 56  1  0  0  0  0
  6  7  1  0  0  0  0
  6 35  1  0  0  0  0
  6 36  1  0  0  0  0
  7  8  1  0  0  0  0
  7 37  1  0  0  0  0
  7 38  1  0  0  0  0
  8  9  1  0  0  0  0
  8 25  1  0  0  0  0
  9 14  1  0  0  0  0
  9 10  2  0  0  0  0
 10 11  1  0  0  0  0
 11 12  2  0  0  0  0
 11 39  1  0  0  0  0
 12 13  1  0  0  0  0
 13 17  1  0  0  0  0
 13 14  2  0  0  0  0
 14 15  1  0  0  0  0
 15 16  2  0  0  0  0
 16 17  1  0  0  0  0
 16 40  1  0  0  0  0
 17 18  1  0  0  0  0
 18 19  1  0  0  0  0
 18 41  1  0  0  0  0
 18 42  1  0  0  0  0
 19 24  1  0  0  0  0
 19 20  1  0  0  0  0
 19 22  1  0  0  0  0
 20 21  1  0  0  0  0
 20 43  1  0  0  0  0
 20 44  1  0  0  0  0
 21 45  1  0  0  0  0
 22 23  1  0  0  0  0
 22 46  1  0  0  0  0
 22 47  1  0  0  0  0
 23 24  1  0  0  0  0
 24 48  1  0  0  0  0
 24 49  1  0  0  0  0
 25 26  1  0  0  0  0
 25 27  1  0  0  0  0
 25 50  1  0  0  0  0
 26 51  1  0  0  0  0
 26 52  1  0  0  0  0
 26 53  1  0  0  0  0
 27 54  1  0  0  0  0
 27 55  1  0  0  0  0
M  CHG  1   5   1
M  END
> <s_m_source_file>
AV-unprocessed.smi

> <i_m_source_file_index>
79

> <i_lp_mmshare_version>
43012

> <i_f3d_flags>
0

> <s_epik_input>
W0NIM11bQ0BIXShbT0hdKVtDSDJdTjFbQ0gyXVtDSDJdTihbQ0BASF0oW0NIM10pW0NIMl0xKWMobltjSF1uMiljKGMyMyluW2NIXW4zW0NIMl1DNChbQ0gyXVtPSF0pW0NIMl1PW0NIMl00

> <s_epik_cmdline>
J2VwaWtfcHl0aG9uJywgJy1waCcsICc3LjAnLCAnLXRuJywgJzgnLCAnLW1hJywgJzIwMCcsICctbWV0YWxfYmluZGluZycsICctaW1hZScsICc8aW5maWxlLm1hZT4nLCAnLW9tYWUnLCAnPG91dGZpbGUubWFlPic=

> <r_lp_tautomer_probability>
1

> <r_epik_Ionization_Penalty>
0.00515943

> <r_epik_Ionization_Penalty_Charging>
0.00509693

> <r_epik_Ionization_Penalty_Neutral>
6.25007e-05

> <r_epik_State_Penalty>
-0

> <r_epik_Charging_Adjusted_Penalty>
0.00509693

> <i_epik_Tot_Q>
1

> <i_epik_Tot_abs_Q>
1

> <r_epik_Metal_State_Penalty>
-0

> <b_epik_Metal_Only>
0

> <s_lp_Force_Field>
OPLS_2005

> <r_lp_Energy>
50.645

> <b_lp_Chiralities_Consistent>
1

> <s_lp_Variant>
AV-unprocessed.smi:79-8

> <Gold.Version>
5.8.1

> <Gold.Id.Protein>
6NUR|6NUR_protein|mol2

> <Gold.PLP.Fitness>
52.3366

> <Gold.PLP.PLP>
-41.0093

> <Gold.PLP.part.hbond>
-5.8833

> <Gold.PLP.part.metal>
0.0000

> <Gold.PLP.part.buried>
-0.1107

> <Gold.PLP.part.nonpolar>
-34.4838

> <Gold.PLP.part.repulsive>
0.0349

> <Gold.PLP.ligand.clash>
0.0000

> <Gold.PLP.ligand.torsion>
0.6778

> <Gold.PLP.Chemscore.Hbond>
3.9749

> <Gold.PLP.Chemscore.CHOScore>
0.0000

> <Gold.PLP.Chemscore.Metal>
0.0000

> <Gold.Chemscore.Hbonds>
donor molecule, donor type, donor heavy atom, donor atom, acceptor molecule, acceptor atom, score
      L1  H     3    32       P1  8028  0.99
      L1  H     5    56       P1  8028  2.00
      P1  H  6896  6907       L1    12  1.00
      P1  H  6934  6947       L1    23  0.05

> <Gold.PLP.Chemscore.Internal.Correction>
0.7582

> <Gold.Rescore>
     Score         DG    S(hbond)    S(metal)    S(lipo)     H(rot)  DE(clash)    DE(int)     intcor
     11.43     -17.89       2.80        0.00     100.25       3.39       3.08       3.38       ----

> <Gold.Chemscore.Fitness>
11.4279

> <Gold.Chemscore.DG>
-17.8903

> <Gold.Chemscore.ZeroCoef>
-5.4800

> <Gold.Chemscore.Hbond>
2.7996

> <Gold.Chemscore.Metal>
0.0000

> <Gold.Chemscore.Lipo>
100.2542

> <Gold.Chemscore.Internal_Hbond>
0.0000

> <Gold.Chemscore.DEClash>
3.0827

> <Gold.Chemscore.DEInternal>
3.3797

> <Gold.Chemscore.Rot>
3.3868

> <Gold.Chemscore.Internal.Correction>
   9.000000E+99

> <Gold.Chemscore.Hbonds>
donor molecule, donor type, donor heavy atom, donor atom, acceptor molecule, acceptor atom, score
      L1  H     3    32       P1  8028  0.28
      L1  H     5    56       P1  8028  0.94
      P1  H  6896  6907       L1    12  0.83

> <Gold.Chemscore.Hbond.Weighted>
-9.3507

> <Gold.Chemscore.Metal.Weighted>
-0.0000

> <Gold.Chemscore.Lipo.Weighted>
-11.7297

> <Gold.Chemscore.Internal_Hbond.Weighted>
0.0000

> <Gold.Chemscore.DEClash.Weighted>
3.0827

> <Gold.Chemscore.DEInternal.Weighted>
3.3797

> <Gold.Chemscore.Rot.Weighted>
8.6701

> <Gold.Chemscore.Internal.Correction.Weighted>
   9.000000E+99

> <Gold.Protein.RotatedTorsions>
[ 6907 6896 6895 6894 ] final  -41.19 input  -60.11 | X-H torsion
[ 7974 7965 7964 7962 ] final   64.29 input  175.53 | X-H torsion
[ 8008 7997 7996 7995 ] final   73.98 input   59.86 | X-H torsion
[ 10167 10162 10161 10158 ] final -102.56 input  -65.29 | X-H torsion
[ 10718 10713 10712 10709 ] final   19.25 input   66.30 | X-H torsion
[ 10763 10752 10751 10750 ] final   -3.25 input  -60.55 | X-H torsion
[ 11005 11000 10999 10996 ] final   35.99 input  -57.11 | X-H torsion

> <Gold.Protein.ActiveResidues>
 VAL166  LYS551  ARG553  GLY616  TRP617  ASP618  TYR619  PRO620  LYS621  CYS622 
 ASP623  PHE694  ASN695  SER759  ASP760  ASP761  ALA762  ILE779  LEU786  VAL792 
 PHE793  MET794  SER795  GLU796  ALA797  LYS798  CYS799  TRP800  GLU811  SER814 

> <Gold.Protein.RotatedAtoms>
  150.9696  134.9071  159.7779 H   0  0  0  0  0  0  0  0  0  0  0  0  # atno 6907 bound_to 6896
  152.5185  134.3559  159.9277 H   0  0  0  0  0  0  0  0  0  0  0  0  # atno 6908 bound_to 6896
  151.3569  133.3863  159.2720 H   0  0  0  0  0  0  0  0  0  0  0  0  # atno 6909 bound_to 6896
  145.8520  139.3260  143.0870 H   0  0  0  0  0  0  0  0  0  0  0  0  # atno 7974 bound_to 7965
  155.7916  140.3479  155.5352 H   0  0  0  0  0  0  0  0  0  0  0  0  # atno 8008 bound_to 7997
  155.8628  140.0974  157.1622 H   0  0  0  0  0  0  0  0  0  0  0  0  # atno 8009 bound_to 7997
  154.4013  140.1355  156.3969 H   0  0  0  0  0  0  0  0  0  0  0  0  # atno 8010 bound_to 7997
  140.2293  143.3618  152.0901 H   0  0  0  0  0  0  0  0  0  0  0  0  # atno 10167 bound_to 10162
  157.1078  130.6496  149.5889 H   0  0  0  0  0  0  0  0  0  0  0  0  # atno 10718 bound_to 10713
  153.3689  135.6993  153.6653 H   0  0  0  0  0  0  0  0  0  0  0  0  # atno 10763 bound_to 10752
  153.5312  135.3592  155.2677 H   0  0  0  0  0  0  0  0  0  0  0  0  # atno 10764 bound_to 10752
  154.8678  135.4181  154.2962 H   0  0  0  0  0  0  0  0  0  0  0  0  # atno 10765 bound_to 10752
  140.2371  134.3459  155.7940 H   0  0  0  0  0  0  0  0  0  0  0  0  # atno 11005 bound_to 11000
  145.9347  140.9023  143.0338 LP  0  0  0  0  0  0  0  0  0  0  0  0  # atno 17320 bound_to 7965
  144.6729  140.1466  143.7433 LP  0  0  0  0  0  0  0  0  0  0  0  0  # atno 17321 bound_to 7965
  139.5116  144.6903  151.5779 LP  0  0  0  0  0  0  0  0  0  0  0  0  # atno 17342 bound_to 10162
  140.6197  143.9282  150.6516 LP  0  0  0  0  0  0  0  0  0  0  0  0  # atno 17343 bound_to 10162
  155.9858  130.4889  150.7047 LP  0  0  0  0  0  0  0  0  0  0  0  0  # atno 17370 bound_to 10713
  157.4585  131.0880  151.0771 LP  0  0  0  0  0  0  0  0  0  0  0  0  # atno 17371 bound_to 10713
  141.2213  133.7277  156.8825 LP  0  0  0  0  0  0  0  0  0  0  0  0  # atno 17394 bound_to 11000
  140.1691  134.9112  157.2811 LP  0  0  0  0  0  0  0  0  0  0  0  0  # atno 17395 bound_to 11000

$$$$
