AV-unprocessed.smi:2126|AV-procd|sdf|8675|dock9
  -GOLD-   2272011423D 1   1.00000     0.00000
 Structure written by MMmdl.
 40 42  0  0  0  0  0  0  0  0  1 V2000
  154.8774  142.2049  165.0738 C   0  0  0  0  0  0  0  0  0  0  0  0
  153.7535  142.8786  164.5265 O   0  0  0  0  0  0  0  0  0  0  0  0
  153.5154  142.7494  163.1750 C   0  0  0  0  0  0  0  0  0  0  0  0
  153.9941  141.6796  162.3794 C   0  0  0  0  0  0  0  0  0  0  0  0
  153.7022  141.6299  161.0027 C   0  0  0  0  0  0  0  0  0  0  0  0
  152.9308  142.6357  160.3878 C   0  0  0  0  0  0  0  0  0  0  0  0
  152.6930  142.5063  159.0361 O   0  0  0  0  0  0  0  0  0  0  0  0
  152.2514  143.6517  158.3189 C   0  0  0  0  0  0  0  0  0  0  0  0
  151.5659  143.1993  157.0213 C   0  0  2  0  0  0  0  0  0  0  0  0
  151.3215  144.3426  156.2256 O   0  0  0  0  0  0  0  0  0  0  0  0
  150.2444  142.4499  157.2823 C   0  0  0  0  0  0  0  0  0  0  0  0
  149.9063  141.5288  156.2117 N   0  0  0  0  0  0  0  0  0  0  0  0
  148.7871  141.5334  155.4624 C   0  0  0  0  0  0  0  0  0  0  0  0
  148.6749  140.5928  154.5288 N   0  0  0  0  0  0  0  0  0  0  0  0
  149.8605  139.8963  154.6896 C   0  0  0  0  0  0  0  0  0  0  0  0
  150.3629  138.7690  154.0010 C   0  0  0  0  0  0  0  0  0  0  0  0
  151.6157  138.2205  154.3465 C   0  0  0  0  0  0  0  0  0  0  0  0
  152.3837  138.7885  155.3835 C   0  0  0  0  0  0  0  0  0  0  0  0
  151.9042  139.9120  156.0840 C   0  0  0  0  0  0  0  0  0  0  0  0
  150.6541  140.4569  155.7357 C   0  0  0  0  0  0  0  0  0  0  0  0
  152.4524  143.7054  161.1838 C   0  0  0  0  0  0  0  0  0  0  0  0
  152.7445  143.7555  162.5601 C   0  0  0  0  0  0  0  0  0  0  0  0
  154.9338  142.4100  166.1427 H   0  0  0  0  0  0  0  0  0  0  0  0
  155.8085  142.5504  164.6224 H   0  0  0  0  0  0  0  0  0  0  0  0
  154.7937  141.1244  164.9490 H   0  0  0  0  0  0  0  0  0  0  0  0
  154.5884  140.8834  162.8012 H   0  0  0  0  0  0  0  0  0  0  0  0
  154.0764  140.8074  160.4110 H   0  0  0  0  0  0  0  0  0  0  0  0
  151.5586  144.2425  158.9206 H   0  0  0  0  0  0  0  0  0  0  0  0
  153.1116  144.2793  158.0791 H   0  0  0  0  0  0  0  0  0  0  0  0
  152.2473  142.5536  156.4657 H   0  0  0  0  0  0  0  0  0  0  0  0
  150.4009  144.3678  156.0125 H   0  0  0  0  0  0  0  0  0  0  0  0
  150.3092  141.8824  158.2116 H   0  0  0  0  0  0  0  0  0  0  0  0
  149.4224  143.1555  157.4082 H   0  0  0  0  0  0  0  0  0  0  0  0
  148.0092  142.2679  155.6130 H   0  0  0  0  0  0  0  0  0  0  0  0
  149.7829  138.3242  153.2060 H   0  0  0  0  0  0  0  0  0  0  0  0
  151.9889  137.3586  153.8134 H   0  0  0  0  0  0  0  0  0  0  0  0
  153.3412  138.3601  155.6415 H   0  0  0  0  0  0  0  0  0  0  0  0
  152.4881  140.3481  156.8809 H   0  0  0  0  0  0  0  0  0  0  0  0
  151.8588  144.5025  160.7632 H   0  0  0  0  0  0  0  0  0  0  0  0
  152.3717  144.5788  163.1516 H   0  0  0  0  0  0  0  0  0  0  0  0
  1  2  1  0  0  0  0
  1 23  1  0  0  0  0
  1 24  1  0  0  0  0
  1 25  1  0  0  0  0
  2  3  1  0  0  0  0
  3 22  1  0  0  0  0
  3  4  2  0  0  0  0
  4  5  1  0  0  0  0
  4 26  1  0  0  0  0
  5  6  2  0  0  0  0
  5 27  1  0  0  0  0
  6  7  1  0  0  0  0
  6 21  1  0  0  0  0
  7  8  1  0  0  0  0
  8  9  1  0  0  0  0
  8 28  1  0  0  0  0
  8 29  1  0  0  0  0
  9 10  1  0  0  0  0
  9 11  1  0  0  0  0
  9 30  1  0  0  0  0
 10 31  1  0  0  0  0
 11 12  1  0  0  0  0
 11 32  1  0  0  0  0
 11 33  1  0  0  0  0
 12 20  1  0  0  0  0
 12 13  1  0  0  0  0
 13 14  2  0  0  0  0
 13 34  1  0  0  0  0
 14 15  1  0  0  0  0
 15 20  2  0  0  0  0
 15 16  1  0  0  0  0
 16 17  2  0  0  0  0
 16 35  1  0  0  0  0
 17 18  1  0  0  0  0
 17 36  1  0  0  0  0
 18 19  2  0  0  0  0
 18 37  1  0  0  0  0
 19 20  1  0  0  0  0
 19 38  1  0  0  0  0
 21 22  2  0  0  0  0
 21 39  1  0  0  0  0
 22 40  1  0  0  0  0
M  END
> <s_m_source_file>
AV-unprocessed.smi

> <i_m_source_file_index>
2126

> <i_lp_mmshare_version>
43012

> <i_f3d_flags>
0

> <s_epik_input>
W0NIM11PYzFbY0hdW2NIXWMoW2NIXVtjSF0xKU9bQ0gyXVtDQEhdKFtPSF0pW0NIMl1uKFtjSF1uMiljKGMyMylbY0hdW2NIXVtjSF1bY0hdMw==

> <s_epik_cmdline>
J2VwaWtfcHl0aG9uJywgJy1waCcsICc3LjAnLCAnLXRuJywgJzgnLCAnLW1hJywgJzIwMCcsICctbWV0YWxfYmluZGluZycsICctaW1hZScsICc8aW5maWxlLm1hZT4nLCAnLW9tYWUnLCAnPG91dGZpbGUubWFlPic=

> <r_lp_tautomer_probability>
1

> <r_epik_Ionization_Penalty>
0.0608933

> <r_epik_Ionization_Penalty_Charging>
0

> <r_epik_Ionization_Penalty_Neutral>
0.0608933

> <r_epik_State_Penalty>
0.0528196

> <r_epik_Charging_Adjusted_Penalty>
0.0528196

> <i_epik_Tot_Q>
0

> <i_epik_Tot_abs_Q>
0

> <r_epik_Metal_State_Penalty>
5.52429e-05

> <b_epik_Metal_Only>
0

> <s_lp_Force_Field>
OPLS_2005

> <r_lp_Energy>
18.1491

> <b_lp_Chiralities_Consistent>
1

> <s_lp_Variant>
AV-unprocessed.smi:2126-1

> <Gold.Version>
5.8.1

> <Gold.Id.Protein>
6NUR|6NUR_protein|mol2

> <Gold.PLP.Fitness>
56.7793

> <Gold.PLP.PLP>
-54.3458

> <Gold.PLP.part.hbond>
-1.8337

> <Gold.PLP.part.metal>
0.0000

> <Gold.PLP.part.buried>
-4.0019

> <Gold.PLP.part.nonpolar>
-48.4774

> <Gold.PLP.part.repulsive>
0.1820

> <Gold.PLP.ligand.clash>
0.0000

> <Gold.PLP.ligand.torsion>
0.9751

> <Gold.PLP.Chemscore.Hbond>
1.0000

> <Gold.PLP.Chemscore.CHOScore>
0.4432

> <Gold.PLP.Chemscore.Metal>
0.0000

> <Gold.Chemscore.Hbonds>
donor molecule, donor type, donor heavy atom, donor atom, acceptor molecule, acceptor atom, score
      L1  H    10    31       P1  8028  1.00
      L1  C    13    34       P1  8028  0.59

> <Gold.PLP.Chemscore.Internal.Correction>
0.0540

> <Gold.Rescore>
     Score         DG    S(hbond)    S(metal)    S(lipo)     H(rot)  DE(clash)    DE(int)     intcor
     17.89     -19.83       0.94        0.00     150.60       2.51       1.14       0.80       ----

> <Gold.Chemscore.Fitness>
17.8855

> <Gold.Chemscore.DG>
-19.8263

> <Gold.Chemscore.ZeroCoef>
-5.4800

> <Gold.Chemscore.Hbond>
0.9422

> <Gold.Chemscore.Metal>
0.0000

> <Gold.Chemscore.Lipo>
150.6035

> <Gold.Chemscore.Internal_Hbond>
0.0000

> <Gold.Chemscore.DEClash>
1.1370

> <Gold.Chemscore.DEInternal>
0.8038

> <Gold.Chemscore.Rot>
2.5083

> <Gold.Chemscore.Internal.Correction>
   9.000000E+99

> <Gold.Chemscore.Hbonds>
donor molecule, donor type, donor heavy atom, donor atom, acceptor molecule, acceptor atom, score
      L1  H    10    31       P1  8028  0.97

> <Gold.Chemscore.Hbond.Weighted>
-3.1469

> <Gold.Chemscore.Metal.Weighted>
-0.0000

> <Gold.Chemscore.Lipo.Weighted>
-17.6206

> <Gold.Chemscore.Internal_Hbond.Weighted>
0.0000

> <Gold.Chemscore.DEClash.Weighted>
1.1370

> <Gold.Chemscore.DEInternal.Weighted>
0.8038

> <Gold.Chemscore.Rot.Weighted>
6.4212

> <Gold.Chemscore.Internal.Correction.Weighted>
   9.000000E+99

> <Gold.Protein.RotatedTorsions>
[ 6907 6896 6895 6894 ] final   -8.67 input  -60.11 | X-H torsion
[ 7974 7965 7964 7962 ] final   83.87 input  175.53 | X-H torsion
[ 8008 7997 7996 7995 ] final  -94.88 input   59.86 | X-H torsion
[ 10167 10162 10161 10158 ] final  164.52 input  -65.29 | X-H torsion
[ 10718 10713 10712 10709 ] final   -8.11 input   66.30 | X-H torsion
[ 10763 10752 10751 10750 ] final   85.24 input  -60.55 | X-H torsion
[ 11005 11000 10999 10996 ] final   20.21 input  -57.11 | X-H torsion

> <Gold.Protein.ActiveResidues>
 VAL166  LYS551  ARG553  GLY616  TRP617  ASP618  TYR619  PRO620  LYS621  CYS622 
 ASP623  PHE694  ASN695  SER759  ASP760  ASP761  ALA762  ILE779  LEU786  VAL792 
 PHE793  MET794  SER795  GLU796  ALA797  LYS798  CYS799  TRP800  GLU811  SER814 

> <Gold.Protein.RotatedAtoms>
  151.4300  135.1008  159.9639 H   0  0  0  0  0  0  0  0  0  0  0  0  # atno 6907 bound_to 6896
  152.4959  133.8626  159.7268 H   0  0  0  0  0  0  0  0  0  0  0  0  # atno 6908 bound_to 6896
  150.9162  133.6878  159.2870 H   0  0  0  0  0  0  0  0  0  0  0  0  # atno 6909 bound_to 6896
  145.6063  139.2360  143.2217 H   0  0  0  0  0  0  0  0  0  0  0  0  # atno 7974 bound_to 7965
  154.7541  140.0485  157.0918 H   0  0  0  0  0  0  0  0  0  0  0  0  # atno 8008 bound_to 7997
  155.0020  140.3126  155.4844 H   0  0  0  0  0  0  0  0  0  0  0  0  # atno 8009 bound_to 7997
  156.2891  140.2199  156.5130 H   0  0  0  0  0  0  0  0  0  0  0  0  # atno 8010 bound_to 7997
  139.4890  144.4227  151.9167 H   0  0  0  0  0  0  0  0  0  0  0  0  # atno 10167 bound_to 10162
  156.7074  130.5111  149.5901 H   0  0  0  0  0  0  0  0  0  0  0  0  # atno 10718 bound_to 10713
  153.1456  135.4624  154.9561 H   0  0  0  0  0  0  0  0  0  0  0  0  # atno 10763 bound_to 10752
  154.7783  135.3180  154.8046 H   0  0  0  0  0  0  0  0  0  0  0  0  # atno 10764 bound_to 10752
  153.8561  135.6917  153.4841 H   0  0  0  0  0  0  0  0  0  0  0  0  # atno 10765 bound_to 10752
  140.4051  134.1677  155.7665 H   0  0  0  0  0  0  0  0  0  0  0  0  # atno 11005 bound_to 11000
  146.1538  140.6887  142.9309 LP  0  0  0  0  0  0  0  0  0  0  0  0  # atno 17320 bound_to 7965
  144.7289  140.4610  143.6953 LP  0  0  0  0  0  0  0  0  0  0  0  0  # atno 17321 bound_to 7965
  140.3671  144.2901  150.5925 LP  0  0  0  0  0  0  0  0  0  0  0  0  # atno 17342 bound_to 10162
  140.5351  143.2235  151.8175 LP  0  0  0  0  0  0  0  0  0  0  0  0  # atno 17343 bound_to 10162
  156.1685  130.6421  151.0808 LP  0  0  0  0  0  0  0  0  0  0  0  0  # atno 17370 bound_to 10713
  157.6949  131.0797  150.6997 LP  0  0  0  0  0  0  0  0  0  0  0  0  # atno 17371 bound_to 10713
  141.1842  133.8348  157.1147 LP  0  0  0  0  0  0  0  0  0  0  0  0  # atno 17394 bound_to 11000
  140.0308  134.9902  157.0776 LP  0  0  0  0  0  0  0  0  0  0  0  0  # atno 17395 bound_to 11000

$$$$
