AV-unprocessed.smi:1971|AV-procd|sdf|7965|dock2
  -GOLD-   2272010133D 1   1.00000     0.00000
 Structure written by MMmdl.
 44 45  0  0  0  0  0  0  0  0  2 V2000
  150.9840  141.2614  156.0018 C   0  0  0  0  0  0  0  0  0  0  0  0
  151.3961  139.7913  155.8389 C   0  0  0  0  0  0  0  0  0  0  0  0
  151.0449  139.2667  154.5169 N   0  0  0  0  0  0  0  0  0  0  0  0
  151.6814  137.9913  154.1675 C   0  0  0  0  0  0  0  0  0  0  0  0
  151.1275  136.8141  154.9975 C   0  0  0  0  0  0  0  0  0  0  0  0
  149.6578  136.7117  154.8251 N   0  3  0  0  0  0  0  0  0  0  0  0
  149.0564  135.4925  155.4404 C   0  0  1  0  0  0  0  0  0  0  0  0
  147.5955  135.6864  155.8917 C   0  0  0  0  0  0  0  0  0  0  0  0
  149.2060  134.2484  154.5322 C   0  0  0  0  0  0  0  0  0  0  0  0
  148.4343  134.3322  153.2937 N   0  0  0  0  0  0  0  0  0  0  0  0
  147.3620  133.5826  153.0000 C   0  0  0  0  0  0  0  0  0  0  0  0
  146.9250  132.7065  153.7462 O   0  0  0  0  0  0  0  0  0  0  0  0
  146.8491  133.9123  151.8019 N   0  0  0  0  0  0  0  0  0  0  0  0
  145.7280  133.3439  151.1418 C   0  0  0  0  0  0  0  0  0  0  0  0
  145.0434  133.9466  150.1626 N   0  0  0  0  0  0  0  0  0  0  0  0
  143.9897  133.1560  149.6966 C   0  0  0  0  0  0  0  0  0  0  0  0
  143.8848  131.9473  150.3388 C   0  0  0  0  0  0  0  0  0  0  0  0
  145.1121  131.7524  151.5616 S   0  0  0  0  0  0  0  0  0  0  0  0
  149.0009  137.9963  155.1747 C   0  0  0  0  0  0  0  0  0  0  0  0
  149.5963  139.1431  154.3316 C   0  0  0  0  0  0  0  0  0  0  0  0
  151.1398  141.5882  157.0300 H   0  0  0  0  0  0  0  0  0  0  0  0
  149.9284  141.4047  155.7684 H   0  0  0  0  0  0  0  0  0  0  0  0
  151.5666  141.9246  155.3630 H   0  0  0  0  0  0  0  0  0  0  0  0
  152.4576  139.6722  156.0523 H   0  0  0  0  0  0  0  0  0  0  0  0
  150.8638  139.2094  156.5927 H   0  0  0  0  0  0  0  0  0  0  0  0
  151.5032  137.7991  153.1085 H   0  0  0  0  0  0  0  0  0  0  0  0
  152.7629  138.0584  154.2787 H   0  0  0  0  0  0  0  0  0  0  0  0
  151.5974  135.8910  154.6562 H   0  0  0  0  0  0  0  0  0  0  0  0
  151.3861  136.9232  156.0504 H   0  0  0  0  0  0  0  0  0  0  0  0
  149.6358  135.2858  156.3410 H   0  0  0  0  0  0  0  0  0  0  0  0
  147.2436  134.8089  156.4349 H   0  0  0  0  0  0  0  0  0  0  0  0
  146.9231  135.8304  155.0460 H   0  0  0  0  0  0  0  0  0  0  0  0
  147.4853  136.5412  156.5587 H   0  0  0  0  0  0  0  0  0  0  0  0
  150.2578  134.0823  154.2932 H   0  0  0  0  0  0  0  0  0  0  0  0
  148.8756  133.3549  155.0621 H   0  0  0  0  0  0  0  0  0  0  0  0
  148.7184  135.0355  152.6271 H   0  0  0  0  0  0  0  0  0  0  0  0
  147.3096  134.6597  151.3036 H   0  0  0  0  0  0  0  0  0  0  0  0
  143.3621  133.5326  148.9025 H   0  0  0  0  0  0  0  0  0  0  0  0
  143.1629  131.1628  150.1666 H   0  0  0  0  0  0  0  0  0  0  0  0
  147.9315  137.9305  154.9756 H   0  0  0  0  0  0  0  0  0  0  0  0
  149.1089  138.2091  156.2383 H   0  0  0  0  0  0  0  0  0  0  0  0
  149.1111  140.0882  154.5785 H   0  0  0  0  0  0  0  0  0  0  0  0
  149.3936  138.9630  153.2749 H   0  0  0  0  0  0  0  0  0  0  0  0
  149.5208  136.5957  153.8312 H   0  0  0  0  0  0  0  0  0  0  0  0
  1  2  1  0  0  0  0
  1 21  1  0  0  0  0
  1 22  1  0  0  0  0
  1 23  1  0  0  0  0
  2  3  1  0  0  0  0
  2 24  1  0  0  0  0
  2 25  1  0  0  0  0
  3 20  1  0  0  0  0
  3  4  1  0  0  0  0
  4  5  1  0  0  0  0
  4 26  1  0  0  0  0
  4 27  1  0  0  0  0
  5  6  1  0  0  0  0
  5 28  1  0  0  0  0
  5 29  1  0  0  0  0
  6  7  1  0  0  0  0
  6 19  1  0  0  0  0
  6 44  1  0  0  0  0
  7  8  1  0  0  0  0
  7  9  1  0  0  0  0
  7 30  1  0  0  0  0
  8 31  1  0  0  0  0
  8 32  1  0  0  0  0
  8 33  1  0  0  0  0
  9 10  1  0  0  0  0
  9 34  1  0  0  0  0
  9 35  1  0  0  0  0
 10 11  1  0  0  0  0
 10 36  1  0  0  0  0
 11 12  2  0  0  0  0
 11 13  1  0  0  0  0
 13 14  1  0  0  0  0
 13 37  1  0  0  0  0
 14 18  1  0  0  0  0
 14 15  2  0  0  0  0
 15 16  1  0  0  0  0
 16 17  2  0  0  0  0
 16 38  1  0  0  0  0
 17 18  1  0  0  0  0
 17 39  1  0  0  0  0
 19 20  1  0  0  0  0
 19 40  1  0  0  0  0
 19 41  1  0  0  0  0
 20 42  1  0  0  0  0
 20 43  1  0  0  0  0
M  CHG  1   6   1
M  END
> <s_m_source_file>
AV-unprocessed.smi

> <i_m_source_file_index>
1971

> <i_lp_mmshare_version>
43012

> <i_f3d_flags>
0

> <s_epik_input>
W0NIM11bQ0gyXU4xW0NIMl1bQ0gyXU4oW0NIMl1bQ0gyXTEpW0NASF0oW0NIM10pW0NIMl1bTkhdQyg9TylbTkhdYzJuW2NIXVtjSF1zMg==

> <s_epik_cmdline>
J2VwaWtfcHl0aG9uJywgJy1waCcsICc3LjAnLCAnLXRuJywgJzgnLCAnLW1hJywgJzIwMCcsICctbWV0YWxfYmluZGluZycsICctaW1hZScsICc8aW5maWxlLm1hZT4nLCAnLW9tYWUnLCAnPG91dGZpbGUubWFlPic=

> <r_epik_Ionization_Penalty>
0.150098

> <r_epik_Ionization_Penalty_Charging>
0.148467

> <r_epik_Ionization_Penalty_Neutral>
0.00163072

> <r_epik_State_Penalty>
0.974087

> <r_epik_Charging_Adjusted_Penalty>
1.12255

> <i_epik_Tot_Q>
1

> <i_epik_Tot_abs_Q>
1

> <r_epik_Metal_State_Penalty>
1.00741

> <b_epik_Metal_Only>
0

> <s_lp_Force_Field>
OPLS_2005

> <r_lp_Energy>
24.0056

> <b_lp_Chiralities_Consistent>
1

> <s_lp_Variant>
AV-unprocessed.smi:1971-4

> <Gold.Version>
5.8.1

> <Gold.Id.Protein>
6NUR|6NUR_protein|mol2

> <Gold.PLP.Fitness>
46.2142

> <Gold.PLP.PLP>
-31.5947

> <Gold.PLP.part.hbond>
-3.1892

> <Gold.PLP.part.metal>
0.0000

> <Gold.PLP.part.buried>
-4.2640

> <Gold.PLP.part.nonpolar>
-26.0058

> <Gold.PLP.part.repulsive>
0.7464

> <Gold.PLP.ligand.clash>
0.0000

> <Gold.PLP.ligand.torsion>
0.9526

> <Gold.PLP.Chemscore.Hbond>
3.5899

> <Gold.PLP.Chemscore.CHOScore>
1.8764

> <Gold.PLP.Chemscore.Metal>
0.0000

> <Gold.Chemscore.Hbonds>
donor molecule, donor type, donor heavy atom, donor atom, acceptor molecule, acceptor atom, score
      L1  H     6    44       P1  7948  1.89
      L1  H    10    36       P1  7948  0.58
      L1  H    13    37       P1  7948  0.26
      P1  H  7989  7998       L1     3  0.80
      L1  C    16    38       P1 10186  0.65
      L1  C    17    39       P1 10952  0.95

> <Gold.PLP.Chemscore.Internal.Correction>
0.1261

> <Gold.Rescore>
     Score         DG    S(hbond)    S(metal)    S(lipo)     H(rot)  DE(clash)    DE(int)     intcor
     12.24     -14.37       1.41        0.00      74.90       1.79       0.33       1.80       ----

> <Gold.Chemscore.Fitness>
12.2446

> <Gold.Chemscore.DG>
-14.3708

> <Gold.Chemscore.ZeroCoef>
-5.4800

> <Gold.Chemscore.Hbond>
1.4129

> <Gold.Chemscore.Metal>
0.0000

> <Gold.Chemscore.Lipo>
74.9033

> <Gold.Chemscore.Internal_Hbond>
0.0000

> <Gold.Chemscore.DEClash>
0.3263

> <Gold.Chemscore.DEInternal>
1.8000

> <Gold.Chemscore.Rot>
1.7937

> <Gold.Chemscore.Internal.Correction>
   9.000000E+99

> <Gold.Chemscore.Hbonds>
donor molecule, donor type, donor heavy atom, donor atom, acceptor molecule, acceptor atom, score
      L1  H     6    44       P1  7948  0.74
      L1  H    10    36       P1  7948  0.12
      L1  H    13    37       P1  7948  0.09
      P1  H  7989  7998       L1     3  0.06

> <Gold.Chemscore.Hbond.Weighted>
-4.7191

> <Gold.Chemscore.Metal.Weighted>
-0.0000

> <Gold.Chemscore.Lipo.Weighted>
-8.7637

> <Gold.Chemscore.Internal_Hbond.Weighted>
0.0000

> <Gold.Chemscore.DEClash.Weighted>
0.3263

> <Gold.Chemscore.DEInternal.Weighted>
1.8000

> <Gold.Chemscore.Rot.Weighted>
4.5919

> <Gold.Chemscore.Internal.Correction.Weighted>
   9.000000E+99

> <Gold.Protein.RotatedTorsions>
[ 6907 6896 6895 6894 ] final  131.25 input  -60.11 | X-H torsion
[ 7974 7965 7964 7962 ] final  -54.25 input  175.53 | X-H torsion
[ 8008 7997 7996 7995 ] final   15.36 input   59.86 | X-H torsion
[ 10167 10162 10161 10158 ] final  165.72 input  -65.29 | X-H torsion
[ 10718 10713 10712 10709 ] final  -32.62 input   66.30 | X-H torsion
[ 10763 10752 10751 10750 ] final -130.41 input  -60.55 | X-H torsion
[ 11005 11000 10999 10996 ] final  174.69 input  -57.11 | X-H torsion

> <Gold.Protein.ActiveResidues>
 VAL166  LYS551  ARG553  GLY616  TRP617  ASP618  TYR619  PRO620  LYS621  CYS622 
 ASP623  PHE694  ASN695  SER759  ASP760  ASP761  ALA762  ILE779  LEU786  VAL792 
 PHE793  MET794  SER795  GLU796  ALA797  LYS798  CYS799  TRP800  GLU811  SER814 

> <Gold.Protein.RotatedAtoms>
  152.3445  133.6106  159.5900 H   0  0  0  0  0  0  0  0  0  0  0  0  # atno 6907 bound_to 6896
  150.7499  133.9670  159.3542 H   0  0  0  0  0  0  0  0  0  0  0  0  # atno 6908 bound_to 6896
  151.7530  135.0829  160.0385 H   0  0  0  0  0  0  0  0  0  0  0  0  # atno 6909 bound_to 6896
  145.8877  140.8095  142.9807 H   0  0  0  0  0  0  0  0  0  0  0  0  # atno 7974 bound_to 7965
  154.8615  140.2945  155.5536 H   0  0  0  0  0  0  0  0  0  0  0  0  # atno 8008 bound_to 7997
  156.3020  140.2477  156.3522 H   0  0  0  0  0  0  0  0  0  0  0  0  # atno 8009 bound_to 7997
  154.8913  140.0394  157.1829 H   0  0  0  0  0  0  0  0  0  0  0  0  # atno 8010 bound_to 7997
  139.4911  144.4102  151.9308 H   0  0  0  0  0  0  0  0  0  0  0  0  # atno 10167 bound_to 10162
  156.3727  130.4342  149.7532 H   0  0  0  0  0  0  0  0  0  0  0  0  # atno 10718 bound_to 10713
  154.8755  135.3863  154.4078 H   0  0  0  0  0  0  0  0  0  0  0  0  # atno 10763 bound_to 10752
  153.4795  135.7030  153.5951 H   0  0  0  0  0  0  0  0  0  0  0  0  # atno 10764 bound_to 10752
  153.4373  135.3864  155.2174 H   0  0  0  0  0  0  0  0  0  0  0  0  # atno 10765 bound_to 10752
  140.3541  134.7170  157.4287 H   0  0  0  0  0  0  0  0  0  0  0  0  # atno 11005 bound_to 11000
  144.6729  140.1482  143.7432 LP  0  0  0  0  0  0  0  0  0  0  0  0  # atno 17320 bound_to 7965
  145.8946  139.2395  143.1529 LP  0  0  0  0  0  0  0  0  0  0  0  0  # atno 17321 bound_to 7965
  140.3543  144.3050  150.5944 LP  0  0  0  0  0  0  0  0  0  0  0  0  # atno 17342 bound_to 10162
  140.5458  143.2215  151.8010 LP  0  0  0  0  0  0  0  0  0  0  0  0  # atno 17343 bound_to 10162
  156.4653  130.7971  151.2990 LP  0  0  0  0  0  0  0  0  0  0  0  0  # atno 17370 bound_to 10713
  157.7485  131.0053  150.3108 LP  0  0  0  0  0  0  0  0  0  0  0  0  # atno 17371 bound_to 10713
  140.0679  134.5903  155.8674 LP  0  0  0  0  0  0  0  0  0  0  0  0  # atno 17394 bound_to 11000
  141.2003  133.6612  156.5892 LP  0  0  0  0  0  0  0  0  0  0  0  0  # atno 17395 bound_to 11000

$$$$
