AV-unprocessed.smi:1671|AV-procd|sdf|6698|dock5
  -GOLD-   22720 7433D 1   1.00000     0.00000
 Structure written by MMmdl.
 44 45  0  0  0  0  0  0  0  0  1 V2000
  153.7768  132.8343  164.7125 C   0  0  0  0  0  0  0  0  0  0  0  0
  154.3476  133.3894  163.0831 S   0  0  0  0  0  0  0  0  0  0  0  0
  154.8292  135.1031  163.4514 C   0  0  1  0  0  0  0  0  0  0  0  0
  155.8371  135.1347  164.6111 C   0  0  0  0  0  0  0  0  0  0  0  0
  155.3868  135.8190  162.2152 C   0  0  0  0  0  0  0  0  0  0  0  0
  155.4418  135.2378  161.1309 O   0  0  0  0  0  0  0  0  0  0  0  0
  155.7954  137.0856  162.3903 N   0  0  0  0  0  0  0  0  0  0  0  0
  156.3575  137.9344  161.3446 C   0  0  0  0  0  0  0  0  0  0  0  0
  155.4259  139.0361  160.8580 C   0  0  0  0  0  0  0  0  0  0  0  0
  154.8970  140.0128  161.7279 C   0  0  0  0  0  0  0  0  0  0  0  0
  154.0393  141.0001  161.2072 C   0  0  0  0  0  0  0  0  0  0  0  0
  153.7270  140.9865  159.8268 C   0  0  0  0  0  0  0  0  0  0  0  0
  152.8739  141.9711  159.2822 N   0  0  0  0  0  0  0  0  0  0  0  0
  151.6615  141.4713  158.6391 C   0  0  0  0  0  0  0  0  0  0  0  0
  150.9861  142.5904  157.8289 C   0  0  0  0  0  0  0  0  0  0  0  0
  150.7457  143.7153  158.6680 O   0  0  0  0  0  0  0  0  0  0  0  0
  151.9522  144.2587  159.1961 C   0  0  1  0  0  0  0  0  0  0  0  0
  151.6022  145.5115  160.0061 C   0  0  0  0  0  0  0  0  0  0  0  0
  152.6536  143.1910  160.0570 C   0  0  0  0  0  0  0  0  0  0  0  0
  154.2249  140.0362  158.9975 N   0  0  0  0  0  0  0  0  0  0  0  0
  155.0486  139.0935  159.5014 C   0  0  0  0  0  0  0  0  0  0  0  0
  153.4877  131.7845  164.6687 H   0  0  0  0  0  0  0  0  0  0  0  0
  152.9126  133.4132  165.0377 H   0  0  0  0  0  0  0  0  0  0  0  0
  154.5696  132.9432  165.4525 H   0  0  0  0  0  0  0  0  0  0  0  0
  153.9314  135.6265  163.7841 H   0  0  0  0  0  0  0  0  0  0  0  0
  156.1488  136.1548  164.8388 H   0  0  0  0  0  0  0  0  0  0  0  0
  156.7321  134.5546  164.3819 H   0  0  0  0  0  0  0  0  0  0  0  0
  155.3983  134.7176  165.5177 H   0  0  0  0  0  0  0  0  0  0  0  0
  155.7114  137.4897  163.3119 H   0  0  0  0  0  0  0  0  0  0  0  0
  157.2946  138.3716  161.6937 H   0  0  0  0  0  0  0  0  0  0  0  0
  156.6119  137.3022  160.4940 H   0  0  0  0  0  0  0  0  0  0  0  0
  155.1374  140.0115  162.7809 H   0  0  0  0  0  0  0  0  0  0  0  0
  153.6229  141.7428  161.8713 H   0  0  0  0  0  0  0  0  0  0  0  0
  151.8692  140.6318  157.9772 H   0  0  0  0  0  0  0  0  0  0  0  0
  150.9807  141.1068  159.4095 H   0  0  0  0  0  0  0  0  0  0  0  0
  151.6042  142.8821  156.9782 H   0  0  0  0  0  0  0  0  0  0  0  0
  150.0359  142.2398  157.4259 H   0  0  0  0  0  0  0  0  0  0  0  0
  152.6042  144.5508  158.3708 H   0  0  0  0  0  0  0  0  0  0  0  0
  152.4977  145.9699  160.4263 H   0  0  0  0  0  0  0  0  0  0  0  0
  150.9298  145.2734  160.8305 H   0  0  0  0  0  0  0  0  0  0  0  0
  151.1105  146.2559  159.3794 H   0  0  0  0  0  0  0  0  0  0  0  0
  152.0476  142.9557  160.9332 H   0  0  0  0  0  0  0  0  0  0  0  0
  153.6058  143.5850  160.4149 H   0  0  0  0  0  0  0  0  0  0  0  0
  155.4179  138.3624  158.7972 H   0  0  0  0  0  0  0  0  0  0  0  0
  1  2  1  0  0  0  0
  1 22  1  0  0  0  0
  1 23  1  0  0  0  0
  1 24  1  0  0  0  0
  2  3  1  0  0  0  0
  3  4  1  0  0  0  0
  3  5  1  0  0  0  0
  3 25  1  0  0  0  0
  4 26  1  0  0  0  0
  4 27  1  0  0  0  0
  4 28  1  0  0  0  0
  5  6  2  0  0  0  0
  5  7  1  0  0  0  0
  7  8  1  0  0  0  0
  7 29  1  0  0  0  0
  8  9  1  0  0  0  0
  8 30  1  0  0  0  0
  8 31  1  0  0  0  0
  9 21  1  0  0  0  0
  9 10  2  0  0  0  0
 10 11  1  0  0  0  0
 10 32  1  0  0  0  0
 11 12  2  0  0  0  0
 11 33  1  0  0  0  0
 12 13  1  0  0  0  0
 12 20  1  0  0  0  0
 13 19  1  0  0  0  0
 13 14  1  0  0  0  0
 14 15  1  0  0  0  0
 14 34  1  0  0  0  0
 14 35  1  0  0  0  0
 15 16  1  0  0  0  0
 15 36  1  0  0  0  0
 15 37  1  0  0  0  0
 16 17  1  0  0  0  0
 17 18  1  0  0  0  0
 17 19  1  0  0  0  0
 17 38  1  0  0  0  0
 18 39  1  0  0  0  0
 18 40  1  0  0  0  0
 18 41  1  0  0  0  0
 19 42  1  0  0  0  0
 19 43  1  0  0  0  0
 20 21  2  0  0  0  0
 21 44  1  0  0  0  0
M  END
> <s_m_source_file>
AV-unprocessed.smi

> <i_m_source_file_index>
1671

> <i_lp_mmshare_version>
43012

> <i_f3d_flags>
0

> <s_epik_input>
W0NIM11TW0NASF0oW0NIM10pQyg9TylbTkhdW0NIMl1jMVtjSF1bY0hdYyhuW2NIXTEpTjJbQ0gyXVtDSDJdT1tDQEBIXShbQ0gzXSlbQ0gyXTI=

> <s_epik_cmdline>
J2VwaWtfcHl0aG9uJywgJy1waCcsICc3LjAnLCAnLXRuJywgJzgnLCAnLW1hJywgJzIwMCcsICctbWV0YWxfYmluZGluZycsICctaW1hZScsICc8aW5maWxlLm1hZT4nLCAnLW9tYWUnLCAnPG91dGZpbGUubWFlPic=

> <r_lp_tautomer_probability>
1

> <r_epik_Ionization_Penalty>
0.00480033

> <r_epik_Ionization_Penalty_Charging>
0

> <r_epik_Ionization_Penalty_Neutral>
0.00480033

> <r_epik_State_Penalty>
0.00347981

> <r_epik_Charging_Adjusted_Penalty>
0.00347981

> <i_epik_Tot_Q>
0

> <i_epik_Tot_abs_Q>
0

> <r_epik_Metal_State_Penalty>
-0

> <b_epik_Metal_Only>
0

> <s_lp_Force_Field>
OPLS_2005

> <r_lp_Energy>
15.4739

> <b_lp_Chiralities_Consistent>
1

> <s_lp_Variant>
AV-unprocessed.smi:1671-2

> <Gold.Version>
5.8.1

> <Gold.Id.Protein>
6NUR|6NUR_protein|mol2

> <Gold.PLP.Fitness>
40.4465

> <Gold.PLP.PLP>
-37.7728

> <Gold.PLP.part.hbond>
-1.0000

> <Gold.PLP.part.metal>
0.0000

> <Gold.PLP.part.buried>
-4.6437

> <Gold.PLP.part.nonpolar>
-32.8840

> <Gold.PLP.part.repulsive>
0.1279

> <Gold.PLP.ligand.clash>
0.0000

> <Gold.PLP.ligand.torsion>
0.3473

> <Gold.PLP.Chemscore.Hbond>
1.0000

> <Gold.PLP.Chemscore.CHOScore>
0.0000

> <Gold.PLP.Chemscore.Metal>
0.0000

> <Gold.Chemscore.Hbonds>
donor molecule, donor type, donor heavy atom, donor atom, acceptor molecule, acceptor atom, score
      P1  H  7997  8008       L1    20  0.94

> <Gold.PLP.Chemscore.Internal.Correction>
0.3682

> <Gold.Rescore>
     Score         DG    S(hbond)    S(metal)    S(lipo)     H(rot)  DE(clash)    DE(int)     intcor
     16.19     -17.37       0.84        0.00     113.20       1.63       0.77       0.41       ----

> <Gold.Chemscore.Fitness>
16.1888

> <Gold.Chemscore.DG>
-17.3667

> <Gold.Chemscore.ZeroCoef>
-5.4800

> <Gold.Chemscore.Hbond>
0.8408

> <Gold.Chemscore.Metal>
0.0000

> <Gold.Chemscore.Lipo>
113.1978

> <Gold.Chemscore.Internal_Hbond>
0.0000

> <Gold.Chemscore.DEClash>
0.7706

> <Gold.Chemscore.DEInternal>
0.4074

> <Gold.Chemscore.Rot>
1.6272

> <Gold.Chemscore.Internal.Correction>
   9.000000E+99

> <Gold.Chemscore.Hbonds>
donor molecule, donor type, donor heavy atom, donor atom, acceptor molecule, acceptor atom, score
      P1  H  7997  8008       L1    20  0.23

> <Gold.Chemscore.Hbond.Weighted>
-2.8083

> <Gold.Chemscore.Metal.Weighted>
-0.0000

> <Gold.Chemscore.Lipo.Weighted>
-13.2441

> <Gold.Chemscore.Internal_Hbond.Weighted>
0.0000

> <Gold.Chemscore.DEClash.Weighted>
0.7706

> <Gold.Chemscore.DEInternal.Weighted>
0.4074

> <Gold.Chemscore.Rot.Weighted>
4.1657

> <Gold.Chemscore.Internal.Correction.Weighted>
   9.000000E+99

> <Gold.Protein.RotatedTorsions>
[ 6907 6896 6895 6894 ] final   25.94 input  -60.11 | X-H torsion
[ 7974 7965 7964 7962 ] final  120.97 input  175.53 | X-H torsion
[ 8008 7997 7996 7995 ] final -100.13 input   59.86 | X-H torsion
[ 10167 10162 10161 10158 ] final   23.29 input  -65.29 | X-H torsion
[ 10718 10713 10712 10709 ] final   74.32 input   66.30 | X-H torsion
[ 10763 10752 10751 10750 ] final   51.30 input  -60.55 | X-H torsion
[ 11005 11000 10999 10996 ] final  161.24 input  -57.11 | X-H torsion

> <Gold.Protein.ActiveResidues>
 VAL166  LYS551  ARG553  GLY616  TRP617  ASP618  TYR619  PRO620  LYS621  CYS622 
 ASP623  PHE694  ASN695  SER759  ASP760  ASP761  ALA762  ILE779  LEU786  VAL792 
 PHE793  MET794  SER795  GLU796  ALA797  LYS798  CYS799  TRP800  GLU811  SER814 

> <Gold.Protein.RotatedAtoms>
  151.9800  135.0033  160.0556 H   0  0  0  0  0  0  0  0  0  0  0  0  # atno 6907 bound_to 6896
  152.1705  133.4635  159.4915 H   0  0  0  0  0  0  0  0  0  0  0  0  # atno 6908 bound_to 6896
  150.6901  134.1877  159.4316 H   0  0  0  0  0  0  0  0  0  0  0  0  # atno 6909 bound_to 6896
  145.1248  139.3365  143.4695 H   0  0  0  0  0  0  0  0  0  0  0  0  # atno 7974 bound_to 7965
  154.8243  140.0443  157.1433 H   0  0  0  0  0  0  0  0  0  0  0  0  # atno 8008 bound_to 7997
  154.9224  140.3028  155.5189 H   0  0  0  0  0  0  0  0  0  0  0  0  # atno 8009 bound_to 7997
  156.2982  140.2338  156.4275 H   0  0  0  0  0  0  0  0  0  0  0  0  # atno 8010 bound_to 7997
  140.5281  143.9888  150.6451 H   0  0  0  0  0  0  0  0  0  0  0  0  # atno 10167 bound_to 10162
  157.6587  130.9672  150.1194 H   0  0  0  0  0  0  0  0  0  0  0  0  # atno 10718 bound_to 10713
  152.9785  135.5850  154.4394 H   0  0  0  0  0  0  0  0  0  0  0  0  # atno 10763 bound_to 10752
  154.3997  135.2768  155.2106 H   0  0  0  0  0  0  0  0  0  0  0  0  # atno 10764 bound_to 10752
  154.3942  135.6118  153.5915 H   0  0  0  0  0  0  0  0  0  0  0  0  # atno 10765 bound_to 10752
  140.2139  134.8247  157.3149 H   0  0  0  0  0  0  0  0  0  0  0  0  # atno 11005 bound_to 11000
  146.3518  140.1222  142.8600 LP  0  0  0  0  0  0  0  0  0  0  0  0  # atno 17320 bound_to 7965
  145.0700  140.9149  143.4887 LP  0  0  0  0  0  0  0  0  0  0  0  0  # atno 17321 bound_to 7965
  140.3256  143.3110  152.0740 LP  0  0  0  0  0  0  0  0  0  0  0  0  # atno 17342 bound_to 10162
  139.4945  144.6544  151.6604 LP  0  0  0  0  0  0  0  0  0  0  0  0  # atno 17343 bound_to 10162
  156.2070  130.3664  149.8717 LP  0  0  0  0  0  0  0  0  0  0  0  0  # atno 17370 bound_to 10713
  156.6606  130.8780  151.3547 LP  0  0  0  0  0  0  0  0  0  0  0  0  # atno 17371 bound_to 10713
  140.1922  134.4358  155.7709 LP  0  0  0  0  0  0  0  0  0  0  0  0  # atno 17394 bound_to 11000
  141.2225  133.7032  156.8045 LP  0  0  0  0  0  0  0  0  0  0  0  0  # atno 17395 bound_to 11000

$$$$
