AV-unprocessed.smi:1243|AV-procd|sdf|5219|dock9
  -GOLD-   22720 4313D 1   1.00000     0.00000
 Structure written by MMmdl.
 51 52  0  0  0  0  0  0  0  0  2 V2000
  147.0677  140.3778  153.1254 C   0  0  0  0  0  0  0  0  0  0  0  0
  147.9854  139.4003  153.6036 O   0  0  0  0  0  0  0  0  0  0  0  0
  149.0004  139.8060  154.4490 C   0  0  0  0  0  0  0  0  0  0  0  0
  149.0656  141.1155  154.7976 N   0  0  0  0  0  0  0  0  0  0  0  0
  150.0545  141.5123  155.6247 C   0  0  0  0  0  0  0  0  0  0  0  0
  151.0190  140.6329  156.1495 C   0  0  0  0  0  0  0  0  0  0  0  0
  150.9534  139.2741  155.7902 C   0  0  0  0  0  0  0  0  0  0  0  0
  149.9298  138.8449  154.9110 C   0  0  0  0  0  0  0  0  0  0  0  0
  149.7608  137.4936  154.5018 N   0  0  0  0  0  0  0  0  0  0  0  0
  150.0805  136.3733  155.1704 C   0  0  0  0  0  0  0  0  0  0  0  0
  150.6068  136.3330  156.2824 O   0  0  0  0  0  0  0  0  0  0  0  0
  149.7648  135.2799  154.4617 N   0  0  0  0  0  0  0  0  0  0  0  0
  150.0051  133.8980  154.8759 C   0  0  0  0  0  0  0  0  0  0  0  0
  148.8651  132.9166  154.4661 C   0  0  0  0  0  0  0  0  0  0  0  0
  147.7784  132.8566  155.5696 C   0  0  0  0  0  0  0  0  0  0  0  0
  148.1547  133.4440  153.1943 C   0  0  0  0  0  0  0  0  0  0  0  0
  149.4013  131.5301  154.2119 N   0  3  0  0  0  0  0  0  0  0  0  0
  148.3911  130.5016  153.8298 C   0  0  0  0  0  0  0  0  0  0  0  0
  149.0815  129.1965  153.3812 C   0  0  0  0  0  0  0  0  0  0  0  0
  149.9627  128.6511  154.4128 N   0  0  0  0  0  0  0  0  0  0  0  0
  149.2397  128.0858  155.5470 C   0  0  0  0  0  0  0  0  0  0  0  0
  150.9488  129.6593  154.7992 C   0  0  0  0  0  0  0  0  0  0  0  0
  150.2898  130.9720  155.2717 C   0  0  0  0  0  0  0  0  0  0  0  0
  146.3393  139.8984  152.4714 H   0  0  0  0  0  0  0  0  0  0  0  0
  147.5752  141.1503  152.5457 H   0  0  0  0  0  0  0  0  0  0  0  0
  146.5190  140.8460  153.9437 H   0  0  0  0  0  0  0  0  0  0  0  0
  150.0732  142.5612  155.8811 H   0  0  0  0  0  0  0  0  0  0  0  0
  151.7890  140.9915  156.8166 H   0  0  0  0  0  0  0  0  0  0  0  0
  151.6760  138.5888  156.2057 H   0  0  0  0  0  0  0  0  0  0  0  0
  149.4217  137.3697  153.5589 H   0  0  0  0  0  0  0  0  0  0  0  0
  149.3377  135.4133  153.5566 H   0  0  0  0  0  0  0  0  0  0  0  0
  150.9457  133.6051  154.4111 H   0  0  0  0  0  0  0  0  0  0  0  0
  150.1837  133.8647  155.9508 H   0  0  0  0  0  0  0  0  0  0  0  0
  147.2111  133.7858  155.6317 H   0  0  0  0  0  0  0  0  0  0  0  0
  148.2029  132.6966  156.5606 H   0  0  0  0  0  0  0  0  0  0  0  0
  147.0593  132.0592  155.3779 H   0  0  0  0  0  0  0  0  0  0  0  0
  147.5846  134.3513  153.3974 H   0  0  0  0  0  0  0  0  0  0  0  0
  147.4534  132.7092  152.7964 H   0  0  0  0  0  0  0  0  0  0  0  0
  148.8572  133.7020  152.4023 H   0  0  0  0  0  0  0  0  0  0  0  0
  147.7059  130.3068  154.6541 H   0  0  0  0  0  0  0  0  0  0  0  0
  147.7818  130.8404  152.9947 H   0  0  0  0  0  0  0  0  0  0  0  0
  148.3374  128.4487  153.1041 H   0  0  0  0  0  0  0  0  0  0  0  0
  149.6734  129.3878  152.4852 H   0  0  0  0  0  0  0  0  0  0  0  0
  149.9388  127.6407  156.2557 H   0  0  0  0  0  0  0  0  0  0  0  0
  148.5667  127.2971  155.2090 H   0  0  0  0  0  0  0  0  0  0  0  0
  148.6468  128.8278  156.0803 H   0  0  0  0  0  0  0  0  0  0  0  0
  151.5956  129.2568  155.5798 H   0  0  0  0  0  0  0  0  0  0  0  0
  151.5919  129.8625  153.9417 H   0  0  0  0  0  0  0  0  0  0  0  0
  151.0943  131.6636  155.5126 H   0  0  0  0  0  0  0  0  0  0  0  0
  149.7351  130.8068  156.1948 H   0  0  0  0  0  0  0  0  0  0  0  0
  149.9925  131.6298  153.3992 H   0  0  0  0  0  0  0  0  0  0  0  0
  1  2  1  0  0  0  0
  1 24  1  0  0  0  0
  1 25  1  0  0  0  0
  1 26  1  0  0  0  0
  2  3  1  0  0  0  0
  3  8  1  0  0  0  0
  3  4  2  0  0  0  0
  4  5  1  0  0  0  0
  5  6  2  0  0  0  0
  5 27  1  0  0  0  0
  6  7  1  0  0  0  0
  6 28  1  0  0  0  0
  7  8  2  0  0  0  0
  7 29  1  0  0  0  0
  8  9  1  0  0  0  0
  9 10  1  0  0  0  0
  9 30  1  0  0  0  0
 10 11  2  0  0  0  0
 10 12  1  0  0  0  0
 12 13  1  0  0  0  0
 12 31  1  0  0  0  0
 13 14  1  0  0  0  0
 13 32  1  0  0  0  0
 13 33  1  0  0  0  0
 14 15  1  0  0  0  0
 14 16  1  0  0  0  0
 14 17  1  0  0  0  0
 15 34  1  0  0  0  0
 15 35  1  0  0  0  0
 15 36  1  0  0  0  0
 16 37  1  0  0  0  0
 16 38  1  0  0  0  0
 16 39  1  0  0  0  0
 17 23  1  0  0  0  0
 17 18  1  0  0  0  0
 17 51  1  0  0  0  0
 18 19  1  0  0  0  0
 18 40  1  0  0  0  0
 18 41  1  0  0  0  0
 19 20  1  0  0  0  0
 19 42  1  0  0  0  0
 19 43  1  0  0  0  0
 20 21  1  0  0  0  0
 20 22  1  0  0  0  0
 21 44  1  0  0  0  0
 21 45  1  0  0  0  0
 21 46  1  0  0  0  0
 22 23  1  0  0  0  0
 22 47  1  0  0  0  0
 22 48  1  0  0  0  0
 23 49  1  0  0  0  0
 23 50  1  0  0  0  0
M  CHG  1  17   1
M  END
> <s_m_source_file>
AV-unprocessed.smi

> <i_m_source_file_index>
1243

> <i_lp_mmshare_version>
43012

> <i_f3d_flags>
0

> <s_epik_input>
W0NIM11PYzFuW2NIXVtjSF1bY0hdYzFbTkhdQyg9TylbTkhdW0NIMl1DKFtDSDNdKShbQ0gzXSlOMltDSDJdW0NIMl1OKFtDSDNdKVtDSDJdW0NIMl0y

> <s_epik_cmdline>
J2VwaWtfcHl0aG9uJywgJy1waCcsICc3LjAnLCAnLXRuJywgJzgnLCAnLW1hJywgJzIwMCcsICctbWV0YWxfYmluZGluZycsICctaW1hZScsICc8aW5maWxlLm1hZT4nLCAnLW9tYWUnLCAnPG91dGZpbGUubWFlPic=

> <r_epik_Ionization_Penalty>
0.0907124

> <r_epik_Ionization_Penalty_Charging>
0.0886444

> <r_epik_Ionization_Penalty_Neutral>
0.00206798

> <r_epik_State_Penalty>
1.00524

> <r_epik_Charging_Adjusted_Penalty>
1.09388

> <i_epik_Tot_Q>
1

> <i_epik_Tot_abs_Q>
1

> <r_epik_Metal_State_Penalty>
1.00525

> <b_epik_Metal_Only>
0

> <s_lp_Force_Field>
OPLS_2005

> <r_lp_Energy>
29.8833

> <b_lp_Chiralities_Consistent>
1

> <s_lp_Variant>
AV-unprocessed.smi:1243-2

> <Gold.Version>
5.8.1

> <Gold.Id.Protein>
6NUR|6NUR_protein|mol2

> <Gold.PLP.Fitness>
42.1714

> <Gold.PLP.PLP>
-35.2581

> <Gold.PLP.part.hbond>
-2.3090

> <Gold.PLP.part.metal>
0.0000

> <Gold.PLP.part.buried>
-4.2232

> <Gold.PLP.part.nonpolar>
-29.0336

> <Gold.PLP.part.repulsive>
1.3018

> <Gold.PLP.ligand.clash>
0.0000

> <Gold.PLP.ligand.torsion>
1.0242

> <Gold.PLP.Chemscore.Hbond>
1.9500

> <Gold.PLP.Chemscore.CHOScore>
1.0000

> <Gold.PLP.Chemscore.Metal>
0.0000

> <Gold.Chemscore.Hbonds>
donor molecule, donor type, donor heavy atom, donor atom, acceptor molecule, acceptor atom, score
      L1  H     9    30       P1  7948  0.91
      L1  H    12    31       P1  7948  1.00
      L1  C     5    27       P1  8028  1.00

> <Gold.PLP.Chemscore.Internal.Correction>
0.1117

> <Gold.Rescore>
     Score         DG    S(hbond)    S(metal)    S(lipo)     H(rot)  DE(clash)    DE(int)     intcor
     11.25     -13.31       1.03        0.00      75.08       1.72       0.12       1.94       ----

> <Gold.Chemscore.Fitness>
11.2468

> <Gold.Chemscore.DG>
-13.3068

> <Gold.Chemscore.ZeroCoef>
-5.4800

> <Gold.Chemscore.Hbond>
1.0328

> <Gold.Chemscore.Metal>
0.0000

> <Gold.Chemscore.Lipo>
75.0755

> <Gold.Chemscore.Internal_Hbond>
0.0000

> <Gold.Chemscore.DEClash>
0.1205

> <Gold.Chemscore.DEInternal>
1.9395

> <Gold.Chemscore.Rot>
1.7213

> <Gold.Chemscore.Internal.Correction>
   9.000000E+99

> <Gold.Chemscore.Hbonds>
donor molecule, donor type, donor heavy atom, donor atom, acceptor molecule, acceptor atom, score
      L1  H     9    30       P1  7948  0.81
      L1  H    12    31       P1  7948  0.25

> <Gold.Chemscore.Hbond.Weighted>
-3.4495

> <Gold.Chemscore.Metal.Weighted>
-0.0000

> <Gold.Chemscore.Lipo.Weighted>
-8.7838

> <Gold.Chemscore.Internal_Hbond.Weighted>
0.0000

> <Gold.Chemscore.DEClash.Weighted>
0.1205

> <Gold.Chemscore.DEInternal.Weighted>
1.9395

> <Gold.Chemscore.Rot.Weighted>
4.4066

> <Gold.Chemscore.Internal.Correction.Weighted>
   9.000000E+99

> <Gold.Protein.RotatedTorsions>
[ 6907 6896 6895 6894 ] final  -57.87 input  -60.11 | X-H torsion
[ 7974 7965 7964 7962 ] final  -19.93 input  175.53 | X-H torsion
[ 8008 7997 7996 7995 ] final   -7.38 input   59.86 | X-H torsion
[ 10167 10162 10161 10158 ] final  134.78 input  -65.29 | X-H torsion
[ 10718 10713 10712 10709 ] final  126.73 input   66.30 | X-H torsion
[ 10763 10752 10751 10750 ] final  108.04 input  -60.55 | X-H torsion
[ 11005 11000 10999 10996 ] final  -41.77 input  -57.11 | X-H torsion

> <Gold.Protein.ActiveResidues>
 VAL166  LYS551  ARG553  GLY616  TRP617  ASP618  TYR619  PRO620  LYS621  CYS622 
 ASP623  PHE694  ASN695  SER759  ASP760  ASP761  ALA762  ILE779  LEU786  VAL792 
 PHE793  MET794  SER795  GLU796  ALA797  LYS798  CYS799  TRP800  GLU811  SER814 

> <Gold.Protein.RotatedAtoms>
  150.8052  134.7172  159.6636 H   0  0  0  0  0  0  0  0  0  0  0  0  # atno 6907 bound_to 6896
  152.4171  134.6019  160.0012 H   0  0  0  0  0  0  0  0  0  0  0  0  # atno 6908 bound_to 6896
  151.6245  133.3299  159.3131 H   0  0  0  0  0  0  0  0  0  0  0  0  # atno 6909 bound_to 6896
  146.1815  140.4131  142.8493 H   0  0  0  0  0  0  0  0  0  0  0  0  # atno 7974 bound_to 7965
  154.5844  140.2408  155.8008 H   0  0  0  0  0  0  0  0  0  0  0  0  # atno 8008 bound_to 7997
  156.2203  140.2999  155.9891 H   0  0  0  0  0  0  0  0  0  0  0  0  # atno 8009 bound_to 7997
  155.2483  140.0409  157.2974 H   0  0  0  0  0  0  0  0  0  0  0  0  # atno 8010 bound_to 7997
  139.5243  144.6550  151.5188 H   0  0  0  0  0  0  0  0  0  0  0  0  # atno 10167 bound_to 10162
  157.5394  131.1097  150.8883 H   0  0  0  0  0  0  0  0  0  0  0  0  # atno 10718 bound_to 10713
  153.4151  135.3825  155.2075 H   0  0  0  0  0  0  0  0  0  0  0  0  # atno 10763 bound_to 10752
  154.8740  135.3803  154.4453 H   0  0  0  0  0  0  0  0  0  0  0  0  # atno 10764 bound_to 10752
  153.4966  135.7088  153.5917 H   0  0  0  0  0  0  0  0  0  0  0  0  # atno 10765 bound_to 10752
  141.0269  133.6837  156.2503 H   0  0  0  0  0  0  0  0  0  0  0  0  # atno 11005 bound_to 11000
  144.8323  140.6727  143.6283 LP  0  0  0  0  0  0  0  0  0  0  0  0  # atno 17320 bound_to 7965
  145.4062  139.1588  143.4150 LP  0  0  0  0  0  0  0  0  0  0  0  0  # atno 17321 bound_to 7965
  140.6372  143.8961  150.6658 LP  0  0  0  0  0  0  0  0  0  0  0  0  # atno 17342 bound_to 10162
  140.2284  143.3755  152.1586 LP  0  0  0  0  0  0  0  0  0  0  0  0  # atno 17343 bound_to 10162
  156.9440  130.5395  149.5281 LP  0  0  0  0  0  0  0  0  0  0  0  0  # atno 17370 bound_to 10713
  156.0485  130.5558  150.8935 LP  0  0  0  0  0  0  0  0  0  0  0  0  # atno 17371 bound_to 10713
  140.6475  134.5101  157.5575 LP  0  0  0  0  0  0  0  0  0  0  0  0  # atno 17394 bound_to 11000
  139.9182  134.8203  156.1297 LP  0  0  0  0  0  0  0  0  0  0  0  0  # atno 17395 bound_to 11000

$$$$
