AV-unprocessed.smi:3228|AV-procd|sdf|12319|dock5
  -GOLD-   2272018163D 1   1.00000     0.00000
 Structure written by MMmdl.
 31 32  0  0  0  0  0  0  0  0  1 V2000
  150.7203  140.4133  156.1733 O   0  0  0  0  0  0  0  0  0  0  0  0
  150.2133  141.5275  156.0390 C   0  0  0  0  0  0  0  0  0  0  0  0
  150.6321  142.6149  156.7020 N   0  0  0  0  0  0  0  0  0  0  0  0
  151.7301  142.6391  157.6629 C   0  0  0  0  0  0  0  0  0  0  0  0
  151.3768  143.4434  158.9303 C   0  0  2  0  0  0  0  0  0  0  0  0
  151.3368  144.9650  158.7183 C   0  0  0  0  0  0  0  0  0  0  0  0
  151.7049  145.6015  160.0684 C   0  0  0  0  0  0  0  0  0  0  0  0
  152.0894  144.4470  161.0016 C   0  0  0  0  0  0  0  0  0  0  0  0
  152.3812  143.2671  160.0734 C   0  0  1  0  0  0  0  0  0  0  0  0
  152.2235  142.0321  160.7404 O   0  0  0  0  0  0  0  0  0  0  0  0
  149.1827  141.8205  155.2266 N   0  0  0  0  0  0  0  0  0  0  0  0
  148.4670  140.9475  154.3658 C   0  0  0  0  0  0  0  0  0  0  0  0
  147.3827  141.2994  153.6646 N   0  0  0  0  0  0  0  0  0  0  0  0
  146.8839  140.2393  152.9032 C   0  0  0  0  0  0  0  0  0  0  0  0
  147.6058  139.0795  153.0378 C   0  0  0  0  0  0  0  0  0  0  0  0
  148.9494  139.2738  154.1318 S   0  0  0  0  0  0  0  0  0  0  0  0
  150.1584  143.4899  156.5313 H   0  0  0  0  0  0  0  0  0  0  0  0
  152.0114  141.6187  157.9281 H   0  0  0  0  0  0  0  0  0  0  0  0
  152.5985  143.0781  157.1711 H   0  0  0  0  0  0  0  0  0  0  0  0
  150.3948  143.1322  159.2917 H   0  0  0  0  0  0  0  0  0  0  0  0
  152.0722  145.2622  157.9694 H   0  0  0  0  0  0  0  0  0  0  0  0
  150.3607  145.2958  158.3620 H   0  0  0  0  0  0  0  0  0  0  0  0
  152.5443  146.2859  159.9406 H   0  0  0  0  0  0  0  0  0  0  0  0
  150.8757  146.1769  160.4816 H   0  0  0  0  0  0  0  0  0  0  0  0
  152.9350  144.6917  161.6453 H   0  0  0  0  0  0  0  0  0  0  0  0
  151.2411  144.2135  161.6471 H   0  0  0  0  0  0  0  0  0  0  0  0
  153.4009  143.3448  159.6933 H   0  0  0  0  0  0  0  0  0  0  0  0
  152.7366  141.3789  160.2894 H   0  0  0  0  0  0  0  0  0  0  0  0
  148.8738  142.7815  155.2227 H   0  0  0  0  0  0  0  0  0  0  0  0
  146.0080  140.3984  152.2915 H   0  0  0  0  0  0  0  0  0  0  0  0
  147.4294  138.1268  152.5611 H   0  0  0  0  0  0  0  0  0  0  0  0
  1  2  2  0  0  0  0
  2  3  1  0  0  0  0
  2 11  1  0  0  0  0
  3  4  1  0  0  0  0
  3 17  1  0  0  0  0
  4  5  1  0  0  0  0
  4 18  1  0  0  0  0
  4 19  1  0  0  0  0
  5  9  1  0  0  0  0
  5  6  1  0  0  0  0
  5 20  1  0  0  0  0
  6  7  1  0  0  0  0
  6 21  1  0  0  0  0
  6 22  1  0  0  0  0
  7  8  1  0  0  0  0
  7 23  1  0  0  0  0
  7 24  1  0  0  0  0
  8  9  1  0  0  0  0
  8 25  1  0  0  0  0
  8 26  1  0  0  0  0
  9 10  1  0  0  0  0
  9 27  1  0  0  0  0
 10 28  1  0  0  0  0
 11 12  1  0  0  0  0
 11 29  1  0  0  0  0
 12 16  1  0  0  0  0
 12 13  2  0  0  0  0
 13 14  1  0  0  0  0
 14 15  2  0  0  0  0
 14 30  1  0  0  0  0
 15 16  1  0  0  0  0
 15 31  1  0  0  0  0
M  END
> <s_m_source_file>
AV-unprocessed.smi

> <i_m_source_file_index>
3228

> <i_lp_mmshare_version>
43012

> <i_f3d_flags>
0

> <s_epik_input>
czFbY0hdW2NIXW5jMVtOSF1DKD1PKVtOSF1bQ0gyXVtDQEBIXTJbQ0gyXVtDSDJdW0NIMl1bQ0BIXTJbT0hd

> <s_epik_cmdline>
J2VwaWtfcHl0aG9uJywgJy1waCcsICc3LjAnLCAnLXRuJywgJzgnLCAnLW1hJywgJzIwMCcsICctbWV0YWxfYmluZGluZycsICctaW1hZScsICc8aW5maWxlLm1hZT4nLCAnLW9tYWUnLCAnPG91dGZpbGUubWFlPic=

> <r_lp_tautomer_probability>
0.999

> <r_epik_Ionization_Penalty>
0.000399498

> <r_epik_Ionization_Penalty_Charging>
0

> <r_epik_Ionization_Penalty_Neutral>
0.000399498

> <r_epik_State_Penalty>
0.000177984

> <r_epik_Charging_Adjusted_Penalty>
0.000177984

> <i_epik_Tot_Q>
0

> <i_epik_Tot_abs_Q>
0

> <r_epik_Metal_State_Penalty>
0.0060793

> <b_epik_Metal_Only>
0

> <s_lp_Force_Field>
OPLS_2005

> <r_lp_Energy>
20.7116

> <b_lp_Chiralities_Consistent>
1

> <s_lp_Variant>
AV-unprocessed.smi:3228-1

> <Gold.Version>
5.8.1

> <Gold.Id.Protein>
6NUR|6NUR_protein|mol2

> <Gold.PLP.Fitness>
46.0791

> <Gold.PLP.PLP>
-34.4510

> <Gold.PLP.part.hbond>
-2.3115

> <Gold.PLP.part.metal>
0.0000

> <Gold.PLP.part.buried>
-3.2439

> <Gold.PLP.part.nonpolar>
-29.6921

> <Gold.PLP.part.repulsive>
0.4053

> <Gold.PLP.ligand.clash>
0.0000

> <Gold.PLP.ligand.torsion>
0.1799

> <Gold.PLP.Chemscore.Hbond>
2.0000

> <Gold.PLP.Chemscore.CHOScore>
1.9954

> <Gold.PLP.Chemscore.Metal>
0.0000

> <Gold.Chemscore.Hbonds>
donor molecule, donor type, donor heavy atom, donor atom, acceptor molecule, acceptor atom, score
      L1  H     3    17       P1  8028  1.00
      L1  H    11    29       P1  8028  1.00
      L1  C    14    30       P1 10175  1.00
      L1  C    15    31       P1  7948  1.00

> <Gold.PLP.Chemscore.Internal.Correction>
0.0015

> <Gold.Rescore>
     Score         DG    S(hbond)    S(metal)    S(lipo)     H(rot)  DE(clash)    DE(int)     intcor
     16.21     -17.64       1.97        0.00      88.73       1.88       0.05       1.38       ----

> <Gold.Chemscore.Fitness>
16.2118

> <Gold.Chemscore.DG>
-17.6387

> <Gold.Chemscore.ZeroCoef>
-5.4800

> <Gold.Chemscore.Hbond>
1.9721

> <Gold.Chemscore.Metal>
0.0000

> <Gold.Chemscore.Lipo>
88.7255

> <Gold.Chemscore.Internal_Hbond>
0.0000

> <Gold.Chemscore.DEClash>
0.0469

> <Gold.Chemscore.DEInternal>
1.3800

> <Gold.Chemscore.Rot>
1.8786

> <Gold.Chemscore.Internal.Correction>
   9.000000E+99

> <Gold.Chemscore.Hbonds>
donor molecule, donor type, donor heavy atom, donor atom, acceptor molecule, acceptor atom, score
      L1  H     3    17       P1  8028  0.97
      L1  H    11    29       P1  8028  0.97

> <Gold.Chemscore.Hbond.Weighted>
-6.5869

> <Gold.Chemscore.Metal.Weighted>
-0.0000

> <Gold.Chemscore.Lipo.Weighted>
-10.3809

> <Gold.Chemscore.Internal_Hbond.Weighted>
0.0000

> <Gold.Chemscore.DEClash.Weighted>
0.0469

> <Gold.Chemscore.DEInternal.Weighted>
1.3800

> <Gold.Chemscore.Rot.Weighted>
4.8091

> <Gold.Chemscore.Internal.Correction.Weighted>
   9.000000E+99

> <Gold.Protein.RotatedTorsions>
[ 6907 6896 6895 6894 ] final  115.46 input  -60.11 | X-H torsion
[ 7974 7965 7964 7962 ] final -125.75 input  175.53 | X-H torsion
[ 8008 7997 7996 7995 ] final  107.77 input   59.86 | X-H torsion
[ 10167 10162 10161 10158 ] final -177.03 input  -65.29 | X-H torsion
[ 10718 10713 10712 10709 ] final  176.03 input   66.30 | X-H torsion
[ 10763 10752 10751 10750 ] final  103.10 input  -60.55 | X-H torsion
[ 11005 11000 10999 10996 ] final -177.20 input  -57.11 | X-H torsion

> <Gold.Protein.ActiveResidues>
 VAL166  LYS551  ARG553  GLY616  TRP617  ASP618  TYR619  PRO620  LYS621  CYS622 
 ASP623  PHE694  ASN695  SER759  ASP760  ASP761  ALA762  ILE779  LEU786  VAL792 
 PHE793  MET794  SER795  GLU796  ALA797  LYS798  CYS799  TRP800  GLU811  SER814 

> <Gold.Protein.RotatedAtoms>
  152.4740  133.8095  159.6995 H   0  0  0  0  0  0  0  0  0  0  0  0  # atno 6907 bound_to 6896
  150.8746  133.7448  159.2957 H   0  0  0  0  0  0  0  0  0  0  0  0  # atno 6908 bound_to 6896
  151.4972  135.1063  159.9871 H   0  0  0  0  0  0  0  0  0  0  0  0  # atno 6909 bound_to 6896
  144.9943  140.7761  143.4535 H   0  0  0  0  0  0  0  0  0  0  0  0  # atno 7974 bound_to 7965
  156.1851  140.3088  155.9222 H   0  0  0  0  0  0  0  0  0  0  0  0  # atno 8008 bound_to 7997
  155.3299  140.0460  157.3059 H   0  0  0  0  0  0  0  0  0  0  0  0  # atno 8009 bound_to 7997
  154.5386  140.2254  155.8689 H   0  0  0  0  0  0  0  0  0  0  0  0  # atno 8010 bound_to 7997
  139.5500  144.2134  152.1059 H   0  0  0  0  0  0  0  0  0  0  0  0  # atno 10167 bound_to 10162
  156.9261  130.9956  151.2996 H   0  0  0  0  0  0  0  0  0  0  0  0  # atno 10718 bound_to 10713
  153.3483  135.3988  155.1626 H   0  0  0  0  0  0  0  0  0  0  0  0  # atno 10763 bound_to 10752
  154.8657  135.3650  154.5256 H   0  0  0  0  0  0  0  0  0  0  0  0  # atno 10764 bound_to 10752
  153.5706  135.7079  153.5566 H   0  0  0  0  0  0  0  0  0  0  0  0  # atno 10765 bound_to 10752
  140.4436  134.6408  157.4769 H   0  0  0  0  0  0  0  0  0  0  0  0  # atno 11005 bound_to 11000
  145.2241  139.2145  143.5077 LP  0  0  0  0  0  0  0  0  0  0  0  0  # atno 17320 bound_to 7965
  146.3438  140.2105  142.8590 LP  0  0  0  0  0  0  0  0  0  0  0  0  # atno 17321 bound_to 7965
  140.1628  144.5010  150.6623 LP  0  0  0  0  0  0  0  0  0  0  0  0  # atno 17342 bound_to 10162
  140.6760  143.2305  151.5506 LP  0  0  0  0  0  0  0  0  0  0  0  0  # atno 17343 bound_to 10162
  157.5877  130.8421  149.8613 LP  0  0  0  0  0  0  0  0  0  0  0  0  # atno 17370 bound_to 10713
  156.0468  130.3726  150.1297 LP  0  0  0  0  0  0  0  0  0  0  0  0  # atno 17371 bound_to 10713
  140.0053  134.6773  155.9464 LP  0  0  0  0  0  0  0  0  0  0  0  0  # atno 17394 bound_to 11000
  141.1695  133.6537  156.4599 LP  0  0  0  0  0  0  0  0  0  0  0  0  # atno 17395 bound_to 11000

$$$$
