AV-unprocessed.smi:589|AV-procd|sdf|3007|dock1
  -GOLD-   2262023513D 1   1.00000     0.00000
 Structure written by MMmdl.
 40 41  0  0  0  0  0  0  0  0  1 V2000
  151.4230  145.4716  159.9150 C   0  0  0  0  0  0  0  0  0  0  0  0
  151.7390  144.0242  159.6023 C   0  0  0  0  0  0  0  0  0  0  0  0
  152.8325  143.3742  160.2023 C   0  0  0  0  0  0  0  0  0  0  0  0
  153.0845  142.0255  159.8786 C   0  0  0  0  0  0  0  0  0  0  0  0
  154.2448  141.3231  160.5691 C   0  0  0  0  0  0  0  0  0  0  0  0
  152.2326  141.3740  158.9416 C   0  0  0  0  0  0  0  0  0  0  0  0
  152.4450  139.9318  158.5522 C   0  0  0  0  0  0  0  0  0  0  0  0
  151.4151  139.3302  157.9501 N   0  0  0  0  0  0  0  0  0  0  0  0
  153.4944  139.3450  158.8098 O   0  0  0  0  0  0  0  0  0  0  0  0
  151.1432  142.1212  158.4062 C   0  0  0  0  0  0  0  0  0  0  0  0
  150.2590  141.5480  157.4763 N   0  0  0  0  0  0  0  0  0  0  0  0
  148.8584  141.8942  157.6679 C   0  0  0  0  0  0  0  0  0  0  0  0
  147.9801  141.0189  156.7567 C   0  0  1  0  0  0  0  0  0  0  0  0
  146.5012  141.4101  156.8380 C   0  0  0  0  0  0  0  0  0  0  0  0
  148.4071  141.1673  155.4013 O   0  0  0  0  0  0  0  0  0  0  0  0
  149.7821  140.8485  155.1640 C   0  0  2  0  0  0  0  0  0  0  0  0
  150.0482  139.3349  155.2492 C   0  0  0  0  0  0  0  0  0  0  0  0
  150.6887  141.6818  156.0918 C   0  0  0  0  0  0  0  0  0  0  0  0
  150.9132  143.4159  158.7298 N   0  0  0  0  0  0  0  0  0  0  0  0
  152.1013  145.8716  160.6690 H   0  0  0  0  0  0  0  0  0  0  0  0
  150.4038  145.5647  160.2913 H   0  0  0  0  0  0  0  0  0  0  0  0
  151.5152  146.0815  159.0160 H   0  0  0  0  0  0  0  0  0  0  0  0
  153.4615  143.8997  160.9061 H   0  0  0  0  0  0  0  0  0  0  0  0
  153.9424  140.3462  160.9472 H   0  0  0  0  0  0  0  0  0  0  0  0
  154.6060  141.9029  161.4193 H   0  0  0  0  0  0  0  0  0  0  0  0
  155.0779  141.1899  159.8787 H   0  0  0  0  0  0  0  0  0  0  0  0
  151.4931  138.3661  157.6609 H   0  0  0  0  0  0  0  0  0  0  0  0
  150.5627  139.8452  157.7839 H   0  0  0  0  0  0  0  0  0  0  0  0
  148.5828  141.7469  158.7128 H   0  0  0  0  0  0  0  0  0  0  0  0
  148.7049  142.9494  157.4364 H   0  0  0  0  0  0  0  0  0  0  0  0
  148.0697  139.9746  157.0572 H   0  0  0  0  0  0  0  0  0  0  0  0
  146.1224  141.3007  157.8544 H   0  0  0  0  0  0  0  0  0  0  0  0
  145.8952  140.7785  156.1880 H   0  0  0  0  0  0  0  0  0  0  0  0
  146.3491  142.4458  156.5329 H   0  0  0  0  0  0  0  0  0  0  0  0
  149.9919  141.1487  154.1371 H   0  0  0  0  0  0  0  0  0  0  0  0
  151.0694  139.1058  154.9443 H   0  0  0  0  0  0  0  0  0  0  0  0
  149.3756  138.7842  154.5915 H   0  0  0  0  0  0  0  0  0  0  0  0
  149.9202  138.9481  156.2599 H   0  0  0  0  0  0  0  0  0  0  0  0
  150.6388  142.7331  155.8046 H   0  0  0  0  0  0  0  0  0  0  0  0
  151.7291  141.3714  155.9881 H   0  0  0  0  0  0  0  0  0  0  0  0
  1  2  1  0  0  0  0
  1 20  1  0  0  0  0
  1 21  1  0  0  0  0
  1 22  1  0  0  0  0
  2 19  1  0  0  0  0
  2  3  2  0  0  0  0
  3  4  1  0  0  0  0
  3 23  1  0  0  0  0
  4  5  1  0  0  0  0
  4  6  2  0  0  0  0
  5 24  1  0  0  0  0
  5 25  1  0  0  0  0
  5 26  1  0  0  0  0
  6  7  1  0  0  0  0
  6 10  1  0  0  0  0
  7  8  1  0  0  0  0
  7  9  2  0  0  0  0
  8 27  1  0  0  0  0
  8 28  1  0  0  0  0
 10 11  1  0  0  0  0
 10 19  2  0  0  0  0
 11 18  1  0  0  0  0
 11 12  1  0  0  0  0
 12 13  1  0  0  0  0
 12 29  1  0  0  0  0
 12 30  1  0  0  0  0
 13 14  1  0  0  0  0
 13 15  1  0  0  0  0
 13 31  1  0  0  0  0
 14 32  1  0  0  0  0
 14 33  1  0  0  0  0
 14 34  1  0  0  0  0
 15 16  1  0  0  0  0
 16 17  1  0  0  0  0
 16 18  1  0  0  0  0
 16 35  1  0  0  0  0
 17 36  1  0  0  0  0
 17 37  1  0  0  0  0
 17 38  1  0  0  0  0
 18 39  1  0  0  0  0
 18 40  1  0  0  0  0
M  END
> <s_m_source_file>
AV-unprocessed.smi

> <i_m_source_file_index>
589

> <i_lp_mmshare_version>
43012

> <i_f3d_flags>
0

> <s_epik_input>
W0NIM11jMVtjSF1jKFtDSDNdKWMoQyg9TylbTkgyXSljKG4xKU4yW0NIMl1bQ0BASF0oW0NIM10pT1tDQEBIXShbQ0gzXSlbQ0gyXTI=

> <s_epik_cmdline>
J2VwaWtfcHl0aG9uJywgJy1waCcsICc3LjAnLCAnLXRuJywgJzgnLCAnLW1hJywgJzIwMCcsICctbWV0YWxfYmluZGluZycsICctaW1hZScsICc8aW5maWxlLm1hZT4nLCAnLW9tYWUnLCAnPG91dGZpbGUubWFlPic=

> <r_lp_tautomer_probability>
1

> <r_epik_Ionization_Penalty>
0.000626871

> <r_epik_Ionization_Penalty_Charging>
0

> <r_epik_Ionization_Penalty_Neutral>
0.000626871

> <r_epik_State_Penalty>
0.000395665

> <r_epik_Charging_Adjusted_Penalty>
0.000395665

> <i_epik_Tot_Q>
0

> <i_epik_Tot_abs_Q>
0

> <r_epik_Metal_State_Penalty>
-0

> <b_epik_Metal_Only>
0

> <s_lp_Force_Field>
OPLS_2005

> <r_lp_Energy>
27.549

> <b_lp_Chiralities_Consistent>
1

> <s_lp_Variant>
AV-unprocessed.smi:589-3

> <Gold.Version>
5.8.1

> <Gold.Id.Protein>
6NUR|6NUR_protein|mol2

> <Gold.PLP.Fitness>
39.1196

> <Gold.PLP.PLP>
-37.2396

> <Gold.PLP.part.hbond>
-1.0000

> <Gold.PLP.part.metal>
0.0000

> <Gold.PLP.part.buried>
-5.2482

> <Gold.PLP.part.nonpolar>
-30.8880

> <Gold.PLP.part.repulsive>
0.3449

> <Gold.PLP.ligand.clash>
0.0000

> <Gold.PLP.ligand.torsion>
0.7346

> <Gold.PLP.Chemscore.Hbond>
1.0000

> <Gold.PLP.Chemscore.CHOScore>
0.0000

> <Gold.PLP.Chemscore.Metal>
0.0000

> <Gold.Chemscore.Hbonds>
donor molecule, donor type, donor heavy atom, donor atom, acceptor molecule, acceptor atom, score
      P1  H  7997  8008       L1     9  0.56

> <Gold.PLP.Chemscore.Internal.Correction>
0.3492

> <Gold.Rescore>
     Score         DG    S(hbond)    S(metal)    S(lipo)     H(rot)  DE(clash)    DE(int)     intcor
     13.09     -16.84       1.00        0.00      90.47       1.00       0.00       3.75       ----

> <Gold.Chemscore.Fitness>
13.0901

> <Gold.Chemscore.DG>
-16.8402

> <Gold.Chemscore.ZeroCoef>
-5.4800

> <Gold.Chemscore.Hbond>
0.9984

> <Gold.Chemscore.Metal>
0.0000

> <Gold.Chemscore.Lipo>
90.4737

> <Gold.Chemscore.Internal_Hbond>
0.0000

> <Gold.Chemscore.DEClash>
0.0024

> <Gold.Chemscore.DEInternal>
3.7477

> <Gold.Chemscore.Rot>
1.0000

> <Gold.Chemscore.Internal.Correction>
   9.000000E+99

> <Gold.Chemscore.Hbonds>
donor molecule, donor type, donor heavy atom, donor atom, acceptor molecule, acceptor atom, score
      P1  H  7997  8008       L1     9  0.11

> <Gold.Chemscore.Hbond.Weighted>
-3.3348

> <Gold.Chemscore.Metal.Weighted>
-0.0000

> <Gold.Chemscore.Lipo.Weighted>
-10.5854

> <Gold.Chemscore.Internal_Hbond.Weighted>
0.0000

> <Gold.Chemscore.DEClash.Weighted>
0.0024

> <Gold.Chemscore.DEInternal.Weighted>
3.7477

> <Gold.Chemscore.Rot.Weighted>
2.5600

> <Gold.Chemscore.Internal.Correction.Weighted>
   9.000000E+99

> <Gold.Protein.RotatedTorsions>
[ 6907 6896 6895 6894 ] final -131.60 input  -60.11 | X-H torsion
[ 7974 7965 7964 7962 ] final -148.58 input  175.53 | X-H torsion
[ 8008 7997 7996 7995 ] final  -90.22 input   59.86 | X-H torsion
[ 10167 10162 10161 10158 ] final   13.61 input  -65.29 | X-H torsion
[ 10718 10713 10712 10709 ] final   53.44 input   66.30 | X-H torsion
[ 10763 10752 10751 10750 ] final -151.35 input  -60.55 | X-H torsion
[ 11005 11000 10999 10996 ] final  -57.30 input  -57.11 | X-H torsion

> <Gold.Protein.ActiveResidues>
 VAL166  LYS551  ARG553  GLY616  TRP617  ASP618  TYR619  PRO620  LYS621  CYS622 
 ASP623  PHE694  ASN695  SER759  ASP760  ASP761  ALA762  ILE779  LEU786  VAL792 
 PHE793  MET794  SER795  GLU796  ALA797  LYS798  CYS799  TRP800  GLU811  SER814 

> <Gold.Protein.RotatedAtoms>
  150.9528  133.6531  159.2768 H   0  0  0  0  0  0  0  0  0  0  0  0  # atno 6907 bound_to 6896
  151.3881  135.0950  159.9527 H   0  0  0  0  0  0  0  0  0  0  0  0  # atno 6908 bound_to 6896
  152.5116  133.9048  159.7513 H   0  0  0  0  0  0  0  0  0  0  0  0  # atno 6909 bound_to 6896
  144.8020  140.5178  143.5700 H   0  0  0  0  0  0  0  0  0  0  0  0  # atno 7974 bound_to 7965
  154.6959  140.0533  157.0410 H   0  0  0  0  0  0  0  0  0  0  0  0  # atno 8008 bound_to 7997
  155.0751  140.3203  155.4599 H   0  0  0  0  0  0  0  0  0  0  0  0  # atno 8009 bound_to 7997
  156.2744  140.2075  156.5879 H   0  0  0  0  0  0  0  0  0  0  0  0  # atno 8010 bound_to 7997
  140.5991  143.8641  150.6947 H   0  0  0  0  0  0  0  0  0  0  0  0  # atno 10167 bound_to 10162
  157.5167  130.8537  149.8505 H   0  0  0  0  0  0  0  0  0  0  0  0  # atno 10718 bound_to 10713
  154.8063  135.3262  154.7423 H   0  0  0  0  0  0  0  0  0  0  0  0  # atno 10763 bound_to 10752
  153.8081  135.6898  153.4849 H   0  0  0  0  0  0  0  0  0  0  0  0  # atno 10764 bound_to 10752
  153.1810  135.4586  154.9973 H   0  0  0  0  0  0  0  0  0  0  0  0  # atno 10765 bound_to 10752
  141.1159  133.6610  156.4749 H   0  0  0  0  0  0  0  0  0  0  0  0  # atno 11005 bound_to 11000
  145.5529  139.1477  143.3384 LP  0  0  0  0  0  0  0  0  0  0  0  0  # atno 17320 bound_to 7965
  146.2304  140.5666  142.8978 LP  0  0  0  0  0  0  0  0  0  0  0  0  # atno 17321 bound_to 7965
  140.2182  143.3829  152.1664 LP  0  0  0  0  0  0  0  0  0  0  0  0  # atno 17342 bound_to 10162
  139.5279  144.7124  151.5163 LP  0  0  0  0  0  0  0  0  0  0  0  0  # atno 17343 bound_to 10162
  156.0325  130.3760  150.1648 LP  0  0  0  0  0  0  0  0  0  0  0  0  # atno 17370 bound_to 10713
  156.9837  130.9872  151.3431 LP  0  0  0  0  0  0  0  0  0  0  0  0  # atno 17371 bound_to 10713
  140.4648  134.6808  157.5102 LP  0  0  0  0  0  0  0  0  0  0  0  0  # atno 17394 bound_to 11000
  140.0080  134.6733  155.9424 LP  0  0  0  0  0  0  0  0  0  0  0  0  # atno 17395 bound_to 11000

$$$$
