AV-unprocessed.smi:1007|AV-procd|sdf|4406|dock3
  -GOLD-   22720 2343D 1   1.00000     0.00000
 Structure written by MMmdl.
 57 59  0  0  0  0  0  0  0  0  3 V2000
  146.0047  134.3623  150.6795 C   0  0  0  0  0  0  0  0  0  0  0  0
  145.6410  135.7319  150.7055 O   0  0  0  0  0  0  0  0  0  0  0  0
  144.8794  136.0707  151.8526 C   0  0  0  0  0  0  0  0  0  0  0  0
  145.7739  135.9490  153.0961 C   0  0  0  0  0  0  0  0  0  0  0  0
  146.7539  137.0597  153.2054 N   0  3  2  0  0  0  0  0  0  0  0  0
  147.5203  137.0519  154.4778 C   0  0  0  0  0  0  0  0  0  0  0  0
  148.5706  138.1772  154.5025 C   0  0  0  0  0  0  0  0  0  0  0  0
  147.9439  139.5029  154.2668 N   0  3  1  0  0  0  0  0  0  0  0  0
  148.9012  140.6354  154.3552 C   0  0  0  0  0  0  0  0  0  0  0  0
  149.2537  141.0061  155.8131 C   0  0  2  0  0  0  0  0  0  0  0  0
  148.3048  141.9483  156.2743 O   0  0  0  0  0  0  0  0  0  0  0  0
  150.6722  141.5970  155.9723 C   0  0  0  0  0  0  0  0  0  0  0  0
  151.3909  141.0831  157.1272 N   0  0  0  0  0  0  0  0  0  0  0  0
  151.8414  139.8268  157.3124 C   0  0  0  0  0  0  0  0  0  0  0  0
  152.4641  139.5656  158.4575 N   0  0  0  0  0  0  0  0  0  0  0  0
  152.4233  140.7981  159.0856 C   0  0  0  0  0  0  0  0  0  0  0  0
  152.9139  141.2014  160.3465 C   0  0  0  0  0  0  0  0  0  0  0  0
  152.7589  142.5332  160.7925 C   0  0  0  0  0  0  0  0  0  0  0  0
  153.3048  142.9241  162.1547 C   0  0  0  0  0  0  0  0  0  0  0  0
  152.1039  143.4858  159.9714 C   0  0  0  0  0  0  0  0  0  0  0  0
  151.9321  144.9239  160.4271 C   0  0  0  0  0  0  0  0  0  0  0  0
  151.6050  143.0991  158.7102 C   0  0  0  0  0  0  0  0  0  0  0  0
  151.7644  141.7705  158.2776 C   0  0  0  0  0  0  0  0  0  0  0  0
  147.1786  139.5096  152.9959 C   0  0  0  0  0  0  0  0  0  0  0  0
  146.1290  138.3849  152.9716 C   0  0  0  0  0  0  0  0  0  0  0  0
  146.5948  134.1569  149.7863 H   0  0  0  0  0  0  0  0  0  0  0  0
  145.1230  133.7206  150.6540 H   0  0  0  0  0  0  0  0  0  0  0  0
  146.6066  134.0961  151.5494 H   0  0  0  0  0  0  0  0  0  0  0  0
  144.5263  137.0993  151.7639 H   0  0  0  0  0  0  0  0  0  0  0  0
  143.9956  135.4371  151.9298 H   0  0  0  0  0  0  0  0  0  0  0  0
  145.1269  135.9419  153.9748 H   0  0  0  0  0  0  0  0  0  0  0  0
  146.2996  134.9930  153.0960 H   0  0  0  0  0  0  0  0  0  0  0  0
  146.8326  137.1668  155.3175 H   0  0  0  0  0  0  0  0  0  0  0  0
  148.0237  136.0951  154.6120 H   0  0  0  0  0  0  0  0  0  0  0  0
  149.0818  138.1645  155.4646 H   0  0  0  0  0  0  0  0  0  0  0  0
  149.3295  137.9927  153.7403 H   0  0  0  0  0  0  0  0  0  0  0  0
  149.8034  140.3900  153.7931 H   0  0  0  0  0  0  0  0  0  0  0  0
  148.4676  141.5093  153.8662 H   0  0  0  0  0  0  0  0  0  0  0  0
  149.1868  140.1290  156.4557 H   0  0  0  0  0  0  0  0  0  0  0  0
  148.5854  142.8128  156.0121 H   0  0  0  0  0  0  0  0  0  0  0  0
  151.2681  141.4043  155.0789 H   0  0  0  0  0  0  0  0  0  0  0  0
  150.6100  142.6818  156.0653 H   0  0  0  0  0  0  0  0  0  0  0  0
  151.6958  139.0579  156.5675 H   0  0  0  0  0  0  0  0  0  0  0  0
  153.4141  140.4758  160.9711 H   0  0  0  0  0  0  0  0  0  0  0  0
  154.0568  143.7069  162.0541 H   0  0  0  0  0  0  0  0  0  0  0  0
  153.7706  142.0751  162.6558 H   0  0  0  0  0  0  0  0  0  0  0  0
  152.5047  143.2929  162.7965 H   0  0  0  0  0  0  0  0  0  0  0  0
  151.3988  145.5162  159.6831 H   0  0  0  0  0  0  0  0  0  0  0  0
  152.9038  145.3896  160.5914 H   0  0  0  0  0  0  0  0  0  0  0  0
  151.3657  144.9666  161.3577 H   0  0  0  0  0  0  0  0  0  0  0  0
  151.1052  143.8161  158.0762 H   0  0  0  0  0  0  0  0  0  0  0  0
  146.6763  140.4701  152.8731 H   0  0  0  0  0  0  0  0  0  0  0  0
  147.8664  139.4009  152.1557 H   0  0  0  0  0  0  0  0  0  0  0  0
  145.6221  138.3882  152.0058 H   0  0  0  0  0  0  0  0  0  0  0  0
  145.3666  138.5664  153.7311 H   0  0  0  0  0  0  0  0  0  0  0  0
  147.2684  139.6520  155.0036 H   0  0  0  0  0  0  0  0  0  0  0  0
  147.4176  136.9236  152.4556 H   0  0  0  0  0  0  0  0  0  0  0  0
  1  2  1  0  0  0  0
  1 26  1  0  0  0  0
  1 27  1  0  0  0  0
  1 28  1  0  0  0  0
  2  3  1  0  0  0  0
  3  4  1  0  0  0  0
  3 29  1  0  0  0  0
  3 30  1  0  0  0  0
  4  5  1  0  0  0  0
  4 31  1  0  0  0  0
  4 32  1  0  0  0  0
  5 25  1  0  0  0  0
  5  6  1  0  0  0  0
  5 57  1  0  0  0  0
  6  7  1  0  0  0  0
  6 33  1  0  0  0  0
  6 34  1  0  0  0  0
  7  8  1  0  0  0  0
  7 35  1  0  0  0  0
  7 36  1  0  0  0  0
  8  9  1  0  0  0  0
  8 24  1  0  0  0  0
  8 56  1  0  0  0  0
  9 10  1  0  0  0  0
  9 37  1  0  0  0  0
  9 38  1  0  0  0  0
 10 11  1  0  0  0  0
 10 12  1  0  0  0  0
 10 39  1  0  0  0  0
 11 40  1  0  0  0  0
 12 13  1  0  0  0  0
 12 41  1  0  0  0  0
 12 42  1  0  0  0  0
 13 23  1  0  0  0  0
 13 14  1  0  0  0  0
 14 15  2  0  0  0  0
 14 43  1  0  0  0  0
 15 16  1  0  0  0  0
 16 23  2  0  0  0  0
 16 17  1  0  0  0  0
 17 18  2  0  0  0  0
 17 44  1  0  0  0  0
 18 19  1  0  0  0  0
 18 20  1  0  0  0  0
 19 45  1  0  0  0  0
 19 46  1  0  0  0  0
 19 47  1  0  0  0  0
 20 21  1  0  0  0  0
 20 22  2  0  0  0  0
 21 48  1  0  0  0  0
 21 49  1  0  0  0  0
 21 50  1  0  0  0  0
 22 23  1  0  0  0  0
 22 51  1  0  0  0  0
 24 25  1  0  0  0  0
 24 52  1  0  0  0  0
 24 53  1  0  0  0  0
 25 54  1  0  0  0  0
 25 55  1  0  0  0  0
M  CHG  1   5   1
M  CHG  1   8   1
M  END
> <s_m_source_file>
AV-unprocessed.smi

> <i_m_source_file_index>
1007

> <i_lp_mmshare_version>
43012

> <i_f3d_flags>
0

> <s_epik_input>
W0NIM11PW0NIMl1bQ0gyXU4xW0NIMl1bQ0gyXU4oW0NIMl1bQ0gyXTEpW0NIMl1bQ0BIXShbT0hdKVtDSDJdbihbY0hdbjIpYyhjMjMpW2NIXWMoW0NIM10pYyhbY0hdMylbQ0gzXQ==

> <s_epik_cmdline>
J2VwaWtfcHl0aG9uJywgJy1waCcsICc3LjAnLCAnLXRuJywgJzgnLCAnLW1hJywgJzIwMCcsICctbWV0YWxfYmluZGluZycsICctaW1hZScsICc8aW5maWxlLm1hZT4nLCAnLW9tYWUnLCAnPG91dGZpbGUubWFlPic=

> <r_epik_Ionization_Penalty>
3.88944

> <r_epik_Ionization_Penalty_Charging>
3.80608

> <r_epik_Ionization_Penalty_Neutral>
0.0833653

> <r_epik_State_Penalty>
2.70739

> <r_epik_Charging_Adjusted_Penalty>
6.51347

> <i_epik_Tot_Q>
2

> <i_epik_Tot_abs_Q>
2

> <r_epik_Metal_State_Penalty>
2.62239

> <b_epik_Metal_Only>
0

> <s_lp_Force_Field>
OPLS_2005

> <r_lp_Energy>
26.7916

> <b_lp_Chiralities_Consistent>
1

> <s_lp_Variant>
AV-unprocessed.smi:1007-9

> <Gold.Version>
5.8.1

> <Gold.Id.Protein>
6NUR|6NUR_protein|mol2

> <Gold.PLP.Fitness>
54.8217

> <Gold.PLP.PLP>
-48.3634

> <Gold.PLP.part.hbond>
-2.0000

> <Gold.PLP.part.metal>
0.0000

> <Gold.PLP.part.buried>
-6.5840

> <Gold.PLP.part.nonpolar>
-40.5211

> <Gold.PLP.part.repulsive>
0.2676

> <Gold.PLP.ligand.clash>
0.0000

> <Gold.PLP.ligand.torsion>
1.3330

> <Gold.PLP.Chemscore.Hbond>
3.0000

> <Gold.PLP.Chemscore.CHOScore>
0.0000

> <Gold.PLP.Chemscore.Metal>
0.0000

> <Gold.Chemscore.Hbonds>
donor molecule, donor type, donor heavy atom, donor atom, acceptor molecule, acceptor atom, score
      L1  H     5    57       P1  7948  2.00
      L1  H    11    40       P1  8028  1.00

> <Gold.PLP.Chemscore.Internal.Correction>
0.1243

> <Gold.Rescore>
     Score         DG    S(hbond)    S(metal)    S(lipo)     H(rot)  DE(clash)    DE(int)     intcor
     19.46     -21.29       1.98        0.00     136.23       2.63       0.44       1.39       ----

> <Gold.Chemscore.Fitness>
19.4603

> <Gold.Chemscore.DG>
-21.2945

> <Gold.Chemscore.ZeroCoef>
-5.4800

> <Gold.Chemscore.Hbond>
1.9820

> <Gold.Chemscore.Metal>
0.0000

> <Gold.Chemscore.Lipo>
136.2333

> <Gold.Chemscore.Internal_Hbond>
0.0000

> <Gold.Chemscore.DEClash>
0.4425

> <Gold.Chemscore.DEInternal>
1.3918

> <Gold.Chemscore.Rot>
2.6347

> <Gold.Chemscore.Internal.Correction>
   9.000000E+99

> <Gold.Chemscore.Hbonds>
donor molecule, donor type, donor heavy atom, donor atom, acceptor molecule, acceptor atom, score
      L1  H     5    57       P1  7948  0.95
      L1  H    11    40       P1  8028  0.98

> <Gold.Chemscore.Hbond.Weighted>
-6.6200

> <Gold.Chemscore.Metal.Weighted>
-0.0000

> <Gold.Chemscore.Lipo.Weighted>
-15.9393

> <Gold.Chemscore.Internal_Hbond.Weighted>
0.0000

> <Gold.Chemscore.DEClash.Weighted>
0.4425

> <Gold.Chemscore.DEInternal.Weighted>
1.3918

> <Gold.Chemscore.Rot.Weighted>
6.7448

> <Gold.Chemscore.Internal.Correction.Weighted>
   9.000000E+99

> <Gold.Protein.RotatedTorsions>
[ 6907 6896 6895 6894 ] final  116.92 input  -60.11 | X-H torsion
[ 7974 7965 7964 7962 ] final -143.75 input  175.53 | X-H torsion
[ 8008 7997 7996 7995 ] final   60.25 input   59.86 | X-H torsion
[ 10167 10162 10161 10158 ] final  112.12 input  -65.29 | X-H torsion
[ 10718 10713 10712 10709 ] final -101.07 input   66.30 | X-H torsion
[ 10763 10752 10751 10750 ] final -105.71 input  -60.55 | X-H torsion
[ 11005 11000 10999 10996 ] final  -65.54 input  -57.11 | X-H torsion

> <Gold.Protein.ActiveResidues>
 VAL166  LYS551  ARG553  GLY616  TRP617  ASP618  TYR619  PRO620  LYS621  CYS622 
 ASP623  PHE694  ASN695  SER759  ASP760  ASP761  ALA762  ILE779  LEU786  VAL792 
 PHE793  MET794  SER795  GLU796  ALA797  LYS798  CYS799  TRP800  GLU811  SER814 

> <Gold.Protein.RotatedAtoms>
  152.4646  133.7895  159.6893 H   0  0  0  0  0  0  0  0  0  0  0  0  # atno 6907 bound_to 6896
  150.8605  133.7641  159.3000 H   0  0  0  0  0  0  0  0  0  0  0  0  # atno 6908 bound_to 6896
  151.5208  135.1070  159.9930 H   0  0  0  0  0  0  0  0  0  0  0  0  # atno 6909 bound_to 6896
  144.8347  140.5795  143.5492 H   0  0  0  0  0  0  0  0  0  0  0  0  # atno 7974 bound_to 7965
  155.5793  140.3491  155.4536 H   0  0  0  0  0  0  0  0  0  0  0  0  # atno 8008 bound_to 7997
  156.0385  140.1290  157.0206 H   0  0  0  0  0  0  0  0  0  0  0  0  # atno 8009 bound_to 7997
  154.4382  140.1029  156.6188 H   0  0  0  0  0  0  0  0  0  0  0  0  # atno 8010 bound_to 7997
  139.6560  144.7129  151.1956 H   0  0  0  0  0  0  0  0  0  0  0  0  # atno 10167 bound_to 10162
  156.0183  130.5357  150.6910 H   0  0  0  0  0  0  0  0  0  0  0  0  # atno 10718 bound_to 10713
  154.7965  135.4739  154.0172 H   0  0  0  0  0  0  0  0  0  0  0  0  # atno 10763 bound_to 10752
  153.1711  135.6825  153.8613 H   0  0  0  0  0  0  0  0  0  0  0  0  # atno 10764 bound_to 10752
  153.8195  135.3206  155.3386 H   0  0  0  0  0  0  0  0  0  0  0  0  # atno 10765 bound_to 10752
  141.1457  133.6683  156.6002 H   0  0  0  0  0  0  0  0  0  0  0  0  # atno 11005 bound_to 11000
  145.4821  139.1494  143.3756 LP  0  0  0  0  0  0  0  0  0  0  0  0  # atno 17320 bound_to 7965
  146.2646  140.4957  142.8839 LP  0  0  0  0  0  0  0  0  0  0  0  0  # atno 17321 bound_to 7965
  140.7559  143.6072  150.8641 LP  0  0  0  0  0  0  0  0  0  0  0  0  # atno 17342 bound_to 10162
  139.9725  143.6041  152.2969 LP  0  0  0  0  0  0  0  0  0  0  0  0  # atno 17343 bound_to 10162
  157.4591  131.0881  151.0764 LP  0  0  0  0  0  0  0  0  0  0  0  0  # atno 17370 bound_to 10713
  157.1257  130.6081  149.5516 LP  0  0  0  0  0  0  0  0  0  0  0  0  # atno 17371 bound_to 10713
  140.3694  134.7618  157.4588 LP  0  0  0  0  0  0  0  0  0  0  0  0  # atno 17394 bound_to 11000
  140.0722  134.5847  155.8629 LP  0  0  0  0  0  0  0  0  0  0  0  0  # atno 17395 bound_to 11000

$$$$
