AV-unprocessed.smi:656|AV-procd|sdf|3218|dock3
  -GOLD-   22720 0153D 1   1.00000     0.00000
 Structure written by MMmdl.
 41 42  0  0  0  0  0  0  0  0  2 V2000
  151.7578  144.0853  157.8274 C   0  0  0  0  0  0  0  0  0  0  0  0
  151.0858  142.8096  157.3084 C   0  0  0  0  0  0  0  0  0  0  0  0
  151.7144  141.5356  157.8995 C   0  0  0  0  0  0  0  0  0  0  0  0
  151.3186  140.3087  157.1618 N   0  3  2  0  0  0  0  0  0  0  0  0
  151.8670  140.2855  155.7807 C   0  0  0  0  0  0  0  0  0  0  0  0
  151.5651  138.9492  155.0815 C   0  0  0  0  0  0  0  0  0  0  0  0
  150.0555  138.6633  155.0615 C   0  0  1  0  0  0  0  0  0  0  0  0
  149.8038  137.3565  154.4610 N   0  0  0  0  0  0  0  0  0  0  0  0
  150.0391  136.1774  155.0558 C   0  0  0  0  0  0  0  0  0  0  0  0
  150.5091  136.0732  156.1888 O   0  0  0  0  0  0  0  0  0  0  0  0
  149.6976  135.1513  154.2573 N   0  0  0  0  0  0  0  0  0  0  0  0
  149.8030  133.7613  154.5274 C   0  0  0  0  0  0  0  0  0  0  0  0
  149.2510  132.9110  153.5457 C   0  0  0  0  0  0  0  0  0  0  0  0
  149.3223  131.5225  153.7501 C   0  0  0  0  0  0  0  0  0  0  0  0
  149.9445  131.0766  154.9285 C   0  0  0  0  0  0  0  0  0  0  0  0
  150.4602  131.9272  155.8420 N   0  0  0  0  0  0  0  0  0  0  0  0
  150.3884  133.2476  155.6409 N   0  0  0  0  0  0  0  0  0  0  0  0
  149.5038  138.7267  156.4973 C   0  0  0  0  0  0  0  0  0  0  0  0
  149.8509  140.0665  157.1677 C   0  0  0  0  0  0  0  0  0  0  0  0
  151.2944  144.9721  157.3946 H   0  0  0  0  0  0  0  0  0  0  0  0
  152.8174  144.1051  157.5705 H   0  0  0  0  0  0  0  0  0  0  0  0
  151.6739  144.1632  158.9117 H   0  0  0  0  0  0  0  0  0  0  0  0
  150.0234  142.8414  157.5533 H   0  0  0  0  0  0  0  0  0  0  0  0
  151.1526  142.8018  156.2210 H   0  0  0  0  0  0  0  0  0  0  0  0
  152.8020  141.6169  157.9309 H   0  0  0  0  0  0  0  0  0  0  0  0
  151.3825  141.4497  158.9353 H   0  0  0  0  0  0  0  0  0  0  0  0
  151.4472  141.1135  155.2070 H   0  0  0  0  0  0  0  0  0  0  0  0
  152.9471  140.4346  155.8094 H   0  0  0  0  0  0  0  0  0  0  0  0
  151.9556  138.9708  154.0633 H   0  0  0  0  0  0  0  0  0  0  0  0
  152.0906  138.1439  155.5974 H   0  0  0  0  0  0  0  0  0  0  0  0
  149.5697  139.4322  154.4573 H   0  0  0  0  0  0  0  0  0  0  0  0
  149.4172  137.3491  153.5282 H   0  0  0  0  0  0  0  0  0  0  0  0
  149.3192  135.3904  153.3530 H   0  0  0  0  0  0  0  0  0  0  0  0
  148.7836  133.3094  152.6571 H   0  0  0  0  0  0  0  0  0  0  0  0
  148.9159  130.8261  153.0318 H   0  0  0  0  0  0  0  0  0  0  0  0
  150.0312  130.0218  155.1433 H   0  0  0  0  0  0  0  0  0  0  0  0
  148.4214  138.5921  156.4928 H   0  0  0  0  0  0  0  0  0  0  0  0
  149.9140  137.9076  157.0902 H   0  0  0  0  0  0  0  0  0  0  0  0
  149.4708  140.0540  158.1885 H   0  0  0  0  0  0  0  0  0  0  0  0
  149.3435  140.8842  156.6533 H   0  0  0  0  0  0  0  0  0  0  0  0
  151.7481  139.5342  157.6474 H   0  0  0  0  0  0  0  0  0  0  0  0
  1  2  1  0  0  0  0
  1 20  1  0  0  0  0
  1 21  1  0  0  0  0
  1 22  1  0  0  0  0
  2  3  1  0  0  0  0
  2 23  1  0  0  0  0
  2 24  1  0  0  0  0
  3  4  1  0  0  0  0
  3 25  1  0  0  0  0
  3 26  1  0  0  0  0
  4 19  1  0  0  0  0
  4  5  1  0  0  0  0
  4 41  1  0  0  0  0
  5  6  1  0  0  0  0
  5 27  1  0  0  0  0
  5 28  1  0  0  0  0
  6  7  1  0  0  0  0
  6 29  1  0  0  0  0
  6 30  1  0  0  0  0
  7  8  1  0  0  0  0
  7 18  1  0  0  0  0
  7 31  1  0  0  0  0
  8  9  1  0  0  0  0
  8 32  1  0  0  0  0
  9 10  2  0  0  0  0
  9 11  1  0  0  0  0
 11 12  1  0  0  0  0
 11 33  1  0  0  0  0
 12 17  1  0  0  0  0
 12 13  2  0  0  0  0
 13 14  1  0  0  0  0
 13 34  1  0  0  0  0
 14 15  2  0  0  0  0
 14 35  1  0  0  0  0
 15 16  1  0  0  0  0
 15 36  1  0  0  0  0
 16 17  2  0  0  0  0
 18 19  1  0  0  0  0
 18 37  1  0  0  0  0
 18 38  1  0  0  0  0
 19 39  1  0  0  0  0
 19 40  1  0  0  0  0
M  CHG  1   4   1
M  END
> <s_m_source_file>
AV-unprocessed.smi

> <i_m_source_file_index>
656

> <i_lp_mmshare_version>
43012

> <i_f3d_flags>
0

> <s_epik_input>
W0NIM11bQ0gyXVtDSDJdTjFbQ0gyXVtDSDJdW0NIXShbQ0gyXVtDSDJdMSlbTkhdQyg9TylbTkhdYzJbY0hdW2NIXVtjSF1ubjI=

> <s_epik_cmdline>
J2VwaWtfcHl0aG9uJywgJy1waCcsICc3LjAnLCAnLXRuJywgJzgnLCAnLW1hJywgJzIwMCcsICctbWV0YWxfYmluZGluZycsICctaW1hZScsICc8aW5maWxlLm1hZT4nLCAnLW9tYWUnLCAnPG91dGZpbGUubWFlPic=

> <r_lp_tautomer_probability>
1

> <r_epik_Ionization_Penalty>
0.00614766

> <r_epik_Ionization_Penalty_Charging>
0.00269617

> <r_epik_Ionization_Penalty_Neutral>
0.00345149

> <r_epik_State_Penalty>
-0

> <r_epik_Charging_Adjusted_Penalty>
0.00269617

> <i_epik_Tot_Q>
1

> <i_epik_Tot_abs_Q>
1

> <r_epik_Metal_State_Penalty>
-0

> <b_epik_Metal_Only>
0

> <s_lp_Force_Field>
OPLS_2005

> <r_lp_Energy>
22.9703

> <b_lp_Chiralities_Consistent>
1

> <s_lp_Variant>
AV-unprocessed.smi:656-1

> <Gold.Version>
5.8.1

> <Gold.Id.Protein>
6NUR|6NUR_protein|mol2

> <Gold.PLP.Fitness>
37.3206

> <Gold.PLP.PLP>
-31.9167

> <Gold.PLP.part.hbond>
-2.2101

> <Gold.PLP.part.metal>
0.0000

> <Gold.PLP.part.buried>
-3.8046

> <Gold.PLP.part.nonpolar>
-26.2139

> <Gold.PLP.part.repulsive>
0.1614

> <Gold.PLP.ligand.clash>
0.0000

> <Gold.PLP.ligand.torsion>
0.2281

> <Gold.PLP.Chemscore.Hbond>
1.9440

> <Gold.PLP.Chemscore.CHOScore>
0.0000

> <Gold.PLP.Chemscore.Metal>
0.0000

> <Gold.Chemscore.Hbonds>
donor molecule, donor type, donor heavy atom, donor atom, acceptor molecule, acceptor atom, score
      L1  H     8    32       P1  7948  0.92
      L1  H    11    33       P1  7948  0.90

> <Gold.PLP.Chemscore.Internal.Correction>
0.0280

> <Gold.Rescore>
     Score         DG    S(hbond)    S(metal)    S(lipo)     H(rot)  DE(clash)    DE(int)     intcor
     12.30     -15.29       1.54        0.00      71.63       1.45       0.03       2.96       ----

> <Gold.Chemscore.Fitness>
12.2992

> <Gold.Chemscore.DG>
-15.2858

> <Gold.Chemscore.ZeroCoef>
-5.4800

> <Gold.Chemscore.Hbond>
1.5392

> <Gold.Chemscore.Metal>
0.0000

> <Gold.Chemscore.Lipo>
71.6347

> <Gold.Chemscore.Internal_Hbond>
0.0000

> <Gold.Chemscore.DEClash>
0.0301

> <Gold.Chemscore.DEInternal>
2.9565

> <Gold.Chemscore.Rot>
1.4518

> <Gold.Chemscore.Internal.Correction>
   9.000000E+99

> <Gold.Chemscore.Hbonds>
donor molecule, donor type, donor heavy atom, donor atom, acceptor molecule, acceptor atom, score
      L1  H     8    32       P1  7948  0.80
      L1  H    11    33       P1  7948  0.18

> <Gold.Chemscore.Hbond.Weighted>
-5.1411

> <Gold.Chemscore.Metal.Weighted>
-0.0000

> <Gold.Chemscore.Lipo.Weighted>
-8.3813

> <Gold.Chemscore.Internal_Hbond.Weighted>
0.0000

> <Gold.Chemscore.DEClash.Weighted>
0.0301

> <Gold.Chemscore.DEInternal.Weighted>
2.9565

> <Gold.Chemscore.Rot.Weighted>
3.7165

> <Gold.Chemscore.Internal.Correction.Weighted>
   9.000000E+99

> <Gold.Protein.RotatedTorsions>
[ 6907 6896 6895 6894 ] final  139.39 input  -60.11 | X-H torsion
[ 7974 7965 7964 7962 ] final  126.07 input  175.53 | X-H torsion
[ 8008 7997 7996 7995 ] final  -14.96 input   59.86 | X-H torsion
[ 10167 10162 10161 10158 ] final  106.69 input  -65.29 | X-H torsion
[ 10718 10713 10712 10709 ] final   25.92 input   66.30 | X-H torsion
[ 10763 10752 10751 10750 ] final  -70.83 input  -60.55 | X-H torsion
[ 11005 11000 10999 10996 ] final    9.57 input  -57.11 | X-H torsion

> <Gold.Protein.ActiveResidues>
 VAL166  LYS551  ARG553  GLY616  TRP617  ASP618  TYR619  PRO620  LYS621  CYS622 
 ASP623  PHE694  ASN695  SER759  ASP760  ASP761  ALA762  ILE779  LEU786  VAL792 
 PHE793  MET794  SER795  GLU796  ALA797  LYS798  CYS799  TRP800  GLU811  SER814 

> <Gold.Protein.RotatedAtoms>
  152.2554  133.5251  159.5350 H   0  0  0  0  0  0  0  0  0  0  0  0  # atno 6907 bound_to 6896
  150.7107  134.0902  159.3938 H   0  0  0  0  0  0  0  0  0  0  0  0  # atno 6908 bound_to 6896
  151.8821  135.0449  160.0540 H   0  0  0  0  0  0  0  0  0  0  0  0  # atno 6909 bound_to 6896
  145.0658  139.3768  143.4982 H   0  0  0  0  0  0  0  0  0  0  0  0  # atno 7974 bound_to 7965
  154.5168  140.2209  155.9050 H   0  0  0  0  0  0  0  0  0  0  0  0  # atno 8008 bound_to 7997
  156.1617  140.3141  155.8784 H   0  0  0  0  0  0  0  0  0  0  0  0  # atno 8009 bound_to 7997
  155.3738  140.0468  157.3035 H   0  0  0  0  0  0  0  0  0  0  0  0  # atno 8010 bound_to 7997
  139.6988  144.7097  151.1220 H   0  0  0  0  0  0  0  0  0  0  0  0  # atno 10167 bound_to 10162
  157.1999  130.6885  149.6184 H   0  0  0  0  0  0  0  0  0  0  0  0  # atno 10718 bound_to 10713
  154.4231  135.5982  153.6022 H   0  0  0  0  0  0  0  0  0  0  0  0  # atno 10763 bound_to 10752
  152.9795  135.5957  154.3930 H   0  0  0  0  0  0  0  0  0  0  0  0  # atno 10764 bound_to 10752
  154.3758  135.2841  155.2218 H   0  0  0  0  0  0  0  0  0  0  0  0  # atno 10765 bound_to 10752
  140.5243  134.0529  155.7854 H   0  0  0  0  0  0  0  0  0  0  0  0  # atno 11005 bound_to 11000
  146.3526  140.0379  142.8645 LP  0  0  0  0  0  0  0  0  0  0  0  0  # atno 17320 bound_to 7965
  145.1352  140.9540  143.4521 LP  0  0  0  0  0  0  0  0  0  0  0  0  # atno 17321 bound_to 7965
  140.7704  143.5453  150.9266 LP  0  0  0  0  0  0  0  0  0  0  0  0  # atno 17342 bound_to 10162
  139.9134  143.6693  152.3111 LP  0  0  0  0  0  0  0  0  0  0  0  0  # atno 17343 bound_to 10162
  155.9701  130.4586  150.6006 LP  0  0  0  0  0  0  0  0  0  0  0  0  # atno 17370 bound_to 10713
  157.3777  131.0776  151.1503 LP  0  0  0  0  0  0  0  0  0  0  0  0  # atno 17371 bound_to 10713
  141.1317  133.9291  157.2521 LP  0  0  0  0  0  0  0  0  0  0  0  0  # atno 17394 bound_to 11000
  139.9589  135.0159  156.9205 LP  0  0  0  0  0  0  0  0  0  0  0  0  # atno 17395 bound_to 11000

$$$$
