AV-unprocessed.smi:1699|AV-procd|sdf|6817|dock5
  -GOLD-   22720 7593D 1   1.00000     0.00000
 Structure written by MMmdl.
 37 38  0  0  0  0  0  0  0  0  1 V2000
  146.1973  134.4415  151.0998 C   0  0  0  0  0  0  0  0  0  0  0  0
  146.3303  133.0352  151.6619 C   0  0  0  0  0  0  0  0  0  0  0  0
  145.5160  132.0049  151.1452 C   0  0  0  0  0  0  0  0  0  0  0  0
  145.6419  130.7053  151.6650 C   0  0  0  0  0  0  0  0  0  0  0  0
  146.5834  130.4896  152.6858 C   0  0  0  0  0  0  0  0  0  0  0  0
  147.3648  131.4681  153.1861 N   0  0  0  0  0  0  0  0  0  0  0  0
  147.2557  132.7286  152.6956 C   0  0  0  0  0  0  0  0  0  0  0  0
  148.0429  133.8119  153.1788 N   0  0  0  0  0  0  0  0  0  0  0  0
  148.5918  133.9716  154.3958 C   0  0  0  0  0  0  0  0  0  0  0  0
  148.5200  133.1634  155.3219 O   0  0  0  0  0  0  0  0  0  0  0  0
  149.2460  135.1400  154.4787 N   0  0  0  0  0  0  0  0  0  0  0  0
  149.9798  135.6253  155.6453 C   0  0  2  0  0  0  0  0  0  0  0  0
  149.0535  135.5558  156.8691 C   0  0  0  0  0  0  0  0  0  0  0  0
  150.4923  137.0556  155.3795 C   0  0  1  0  0  0  0  0  0  0  0  0
  151.1498  137.7361  156.5815 C   0  0  0  0  0  0  0  0  0  0  0  0
  152.0950  138.7490  155.9528 C   0  0  0  0  0  0  0  0  0  0  0  0
  152.1763  138.3232  154.4847 C   0  0  0  0  0  0  0  0  0  0  0  0
  151.5537  137.0481  154.4368 O   0  0  0  0  0  0  0  0  0  0  0  0
  145.4425  134.4855  150.3142 H   0  0  0  0  0  0  0  0  0  0  0  0
  147.1447  134.7725  150.6735 H   0  0  0  0  0  0  0  0  0  0  0  0
  145.9061  135.1409  151.8840 H   0  0  0  0  0  0  0  0  0  0  0  0
  144.8024  132.2050  150.3596 H   0  0  0  0  0  0  0  0  0  0  0  0
  145.0334  129.8955  151.2912 H   0  0  0  0  0  0  0  0  0  0  0  0
  146.7129  129.5062  153.1131 H   0  0  0  0  0  0  0  0  0  0  0  0
  148.2037  134.5560  152.5167 H   0  0  0  0  0  0  0  0  0  0  0  0
  149.2516  135.7363  153.6644 H   0  0  0  0  0  0  0  0  0  0  0  0
  150.8342  134.9748  155.8413 H   0  0  0  0  0  0  0  0  0  0  0  0
  149.5743  135.8530  157.7795 H   0  0  0  0  0  0  0  0  0  0  0  0
  148.6851  134.5410  157.0238 H   0  0  0  0  0  0  0  0  0  0  0  0
  148.1889  136.2100  156.7516 H   0  0  0  0  0  0  0  0  0  0  0  0
  149.6859  137.6832  154.9942 H   0  0  0  0  0  0  0  0  0  0  0  0
  150.4244  138.1958  157.2532 H   0  0  0  0  0  0  0  0  0  0  0  0
  151.7267  137.0107  157.1566 H   0  0  0  0  0  0  0  0  0  0  0  0
  151.7099  139.7659  156.0382 H   0  0  0  0  0  0  0  0  0  0  0  0
  153.0725  138.7176  156.4352 H   0  0  0  0  0  0  0  0  0  0  0  0
  151.6199  139.0165  153.8522 H   0  0  0  0  0  0  0  0  0  0  0  0
  153.2016  138.2745  154.1175 H   0  0  0  0  0  0  0  0  0  0  0  0
  1  2  1  0  0  0  0
  1 19  1  0  0  0  0
  1 20  1  0  0  0  0
  1 21  1  0  0  0  0
  2  7  1  0  0  0  0
  2  3  2  0  0  0  0
  3  4  1  0  0  0  0
  3 22  1  0  0  0  0
  4  5  2  0  0  0  0
  4 23  1  0  0  0  0
  5  6  1  0  0  0  0
  5 24  1  0  0  0  0
  6  7  2  0  0  0  0
  7  8  1  0  0  0  0
  8  9  1  0  0  0  0
  8 25  1  0  0  0  0
  9 10  2  0  0  0  0
  9 11  1  0  0  0  0
 11 12  1  0  0  0  0
 11 26  1  0  0  0  0
 12 13  1  0  0  0  0
 12 14  1  0  0  0  0
 12 27  1  0  0  0  0
 13 28  1  0  0  0  0
 13 29  1  0  0  0  0
 13 30  1  0  0  0  0
 14 18  1  0  0  0  0
 14 15  1  0  0  0  0
 14 31  1  0  0  0  0
 15 16  1  0  0  0  0
 15 32  1  0  0  0  0
 15 33  1  0  0  0  0
 16 17  1  0  0  0  0
 16 34  1  0  0  0  0
 16 35  1  0  0  0  0
 17 18  1  0  0  0  0
 17 36  1  0  0  0  0
 17 37  1  0  0  0  0
M  END
> <s_m_source_file>
AV-unprocessed.smi

> <i_m_source_file_index>
1699

> <i_lp_mmshare_version>
43012

> <i_f3d_flags>
0

> <s_epik_input>
W0NIM11jMVtjSF1bY0hdW2NIXW5jMVtOSF1DKD1PKVtOSF1bQ0BIXShbQ0gzXSlbQ0BASF0yW0NIMl1bQ0gyXVtDSDJdTzI=

> <s_epik_cmdline>
J2VwaWtfcHl0aG9uJywgJy1waCcsICc3LjAnLCAnLXRuJywgJzgnLCAnLW1hJywgJzIwMCcsICctbWV0YWxfYmluZGluZycsICctaW1hZScsICc8aW5maWxlLm1hZT4nLCAnLW9tYWUnLCAnPG91dGZpbGUubWFlPic=

> <r_lp_tautomer_probability>
1

> <r_epik_Ionization_Penalty>
5.52788e-05

> <r_epik_Ionization_Penalty_Charging>
0

> <r_epik_Ionization_Penalty_Neutral>
5.52788e-05

> <r_epik_State_Penalty>
-0

> <r_epik_Charging_Adjusted_Penalty>
0

> <i_epik_Tot_Q>
0

> <i_epik_Tot_abs_Q>
0

> <r_epik_Metal_State_Penalty>
-0

> <b_epik_Metal_Only>
0

> <s_lp_Force_Field>
OPLS_2005

> <r_lp_Energy>
21.1127

> <b_lp_Chiralities_Consistent>
1

> <s_lp_Variant>
AV-unprocessed.smi:1699-3

> <Gold.Version>
5.8.1

> <Gold.Id.Protein>
6NUR|6NUR_protein|mol2

> <Gold.PLP.Fitness>
37.8839

> <Gold.PLP.PLP>
-29.4391

> <Gold.PLP.part.hbond>
-3.0000

> <Gold.PLP.part.metal>
0.0000

> <Gold.PLP.part.buried>
-6.0564

> <Gold.PLP.part.nonpolar>
-21.1543

> <Gold.PLP.part.repulsive>
0.5084

> <Gold.PLP.ligand.clash>
0.0000

> <Gold.PLP.ligand.torsion>
0.2886

> <Gold.PLP.Chemscore.Hbond>
3.0000

> <Gold.PLP.Chemscore.CHOScore>
0.0000

> <Gold.PLP.Chemscore.Metal>
0.0000

> <Gold.Chemscore.Hbonds>
donor molecule, donor type, donor heavy atom, donor atom, acceptor molecule, acceptor atom, score
      L1  H     8    25       P1  7948  1.00
      L1  H    11    26       P1  7948  1.00
      P1  H 10752 10763       L1    18  1.00

> <Gold.PLP.Chemscore.Internal.Correction>
0.0220

> <Gold.Rescore>
     Score         DG    S(hbond)    S(metal)    S(lipo)     H(rot)  DE(clash)    DE(int)     intcor
     15.76     -17.70       2.47        0.00      60.46       1.22       0.01       1.93       ----

> <Gold.Chemscore.Fitness>
15.7576

> <Gold.Chemscore.DG>
-17.6965

> <Gold.Chemscore.ZeroCoef>
-5.4800

> <Gold.Chemscore.Hbond>
2.4747

> <Gold.Chemscore.Metal>
0.0000

> <Gold.Chemscore.Lipo>
60.4644

> <Gold.Chemscore.Internal_Hbond>
0.0000

> <Gold.Chemscore.DEClash>
0.0093

> <Gold.Chemscore.DEInternal>
1.9297

> <Gold.Chemscore.Rot>
1.2200

> <Gold.Chemscore.Internal.Correction>
   9.000000E+99

> <Gold.Chemscore.Hbonds>
donor molecule, donor type, donor heavy atom, donor atom, acceptor molecule, acceptor atom, score
      L1  H     8    25       P1  7948  0.30
      L1  H    11    26       P1  7948  0.65
      P1  H 10752 10763       L1    18  0.54

> <Gold.Chemscore.Hbond.Weighted>
-8.2654

> <Gold.Chemscore.Metal.Weighted>
-0.0000

> <Gold.Chemscore.Lipo.Weighted>
-7.0743

> <Gold.Chemscore.Internal_Hbond.Weighted>
0.0000

> <Gold.Chemscore.DEClash.Weighted>
0.0093

> <Gold.Chemscore.DEInternal.Weighted>
1.9297

> <Gold.Chemscore.Rot.Weighted>
3.1232

> <Gold.Chemscore.Internal.Correction.Weighted>
   9.000000E+99

> <Gold.Protein.RotatedTorsions>
[ 6907 6896 6895 6894 ] final  -44.01 input  -60.11 | X-H torsion
[ 7974 7965 7964 7962 ] final  148.54 input  175.53 | X-H torsion
[ 8008 7997 7996 7995 ] final   70.87 input   59.86 | X-H torsion
[ 10167 10162 10161 10158 ] final  -19.75 input  -65.29 | X-H torsion
[ 10718 10713 10712 10709 ] final   54.66 input   66.30 | X-H torsion
[ 10763 10752 10751 10750 ] final   27.12 input  -60.55 | X-H torsion
[ 11005 11000 10999 10996 ] final   75.56 input  -57.11 | X-H torsion

> <Gold.Protein.ActiveResidues>
 VAL166  LYS551  ARG553  GLY616  TRP617  ASP618  TYR619  PRO620  LYS621  CYS622 
 ASP623  PHE694  ASN695  SER759  ASP760  ASP761  ALA762  ILE779  LEU786  VAL792 
 PHE793  MET794  SER795  GLU796  ALA797  LYS798  CYS799  TRP800  GLU811  SER814 

> <Gold.Protein.RotatedAtoms>
  150.9375  134.8787  159.7590 H   0  0  0  0  0  0  0  0  0  0  0  0  # atno 6907 bound_to 6896
  152.5066  134.3989  159.9419 H   0  0  0  0  0  0  0  0  0  0  0  0  # atno 6908 bound_to 6896
  151.4012  133.3717  159.2767 H   0  0  0  0  0  0  0  0  0  0  0  0  # atno 6909 bound_to 6896
  144.8506  139.6166  143.5975 H   0  0  0  0  0  0  0  0  0  0  0  0  # atno 7974 bound_to 7965
  155.7454  140.3489  155.5124 H   0  0  0  0  0  0  0  0  0  0  0  0  # atno 8008 bound_to 7997
  155.9055  140.1041  157.1339 H   0  0  0  0  0  0  0  0  0  0  0  0  # atno 8009 bound_to 7997
  154.4049  140.1278  156.4477 H   0  0  0  0  0  0  0  0  0  0  0  0  # atno 8010 bound_to 7997
  140.7271  143.4789  151.0145 H   0  0  0  0  0  0  0  0  0  0  0  0  # atno 10167 bound_to 10162
  157.5276  130.8608  149.8643 H   0  0  0  0  0  0  0  0  0  0  0  0  # atno 10718 bound_to 10713
  153.0576  135.6544  154.0538 H   0  0  0  0  0  0  0  0  0  0  0  0  # atno 10763 bound_to 10752
  154.0213  135.2919  155.3382 H   0  0  0  0  0  0  0  0  0  0  0  0  # atno 10764 bound_to 10752
  154.6900  135.5286  153.8446 H   0  0  0  0  0  0  0  0  0  0  0  0  # atno 10765 bound_to 10752
  139.9338  134.7528  156.1286 H   0  0  0  0  0  0  0  0  0  0  0  0  # atno 11005 bound_to 11000
  146.2782  139.6806  142.9248 LP  0  0  0  0  0  0  0  0  0  0  0  0  # atno 17320 bound_to 7965
  145.4507  141.0428  143.2806 LP  0  0  0  0  0  0  0  0  0  0  0  0  # atno 17321 bound_to 7965
  139.8486  143.7468  152.3178 LP  0  0  0  0  0  0  0  0  0  0  0  0  # atno 17342 bound_to 10162
  139.7642  144.7497  151.0318 LP  0  0  0  0  0  0  0  0  0  0  0  0  # atno 17343 bound_to 10162
  156.0399  130.3742  150.1463 LP  0  0  0  0  0  0  0  0  0  0  0  0  # atno 17370 bound_to 10713
  156.9649  130.9816  151.3471 LP  0  0  0  0  0  0  0  0  0  0  0  0  # atno 17371 bound_to 10713
  141.0941  133.6702  156.2606 LP  0  0  0  0  0  0  0  0  0  0  0  0  # atno 17394 bound_to 11000
  140.6130  134.5439  157.5536 LP  0  0  0  0  0  0  0  0  0  0  0  0  # atno 17395 bound_to 11000

$$$$
