AV-unprocessed.smi:2855|AV-procd|sdf|10983|dock6
  -GOLD-   2272015433D 1   1.00000     0.00000
 Structure written by MMmdl.
 47 48  0  0  0  0  0  0  0  0  1 V2000
  153.7646  141.3929  160.1767 C   0  0  0  0  0  0  0  0  0  0  0  0
  153.1009  142.3687  159.1947 C   0  0  2  0  0  0  0  0  0  0  0  0
  152.7160  143.6935  159.8859 C   0  0  0  0  0  0  0  0  0  0  0  0
  151.9706  144.6475  158.9315 C   0  0  0  0  0  0  0  0  0  0  0  0
  150.7017  143.9946  158.3269 C   0  0  2  0  0  0  0  0  0  0  0  0
  149.5652  143.7729  159.3873 C   0  0  0  0  0  0  0  0  0  0  0  0
  148.2559  143.2030  158.8075 C   0  0  0  0  0  0  0  0  0  0  0  0
  149.2255  145.0661  160.1561 C   0  0  0  0  0  0  0  0  0  0  0  0
  151.2001  142.7359  157.5556 C   0  0  2  0  0  0  0  0  0  0  0  0
  150.1797  142.0858  156.7409 N   0  0  0  0  0  0  0  0  0  0  0  0
  150.3964  141.1413  155.8092 C   0  0  0  0  0  0  0  0  0  0  0  0
  151.5183  140.7093  155.5468 O   0  0  0  0  0  0  0  0  0  0  0  0
  149.1856  140.5945  155.0330 C   0  0  0  0  0  0  0  0  0  0  0  0
  147.9593  141.4022  155.1477 N   0  0  0  0  0  0  0  0  0  0  0  0
  147.4835  142.1048  154.0496 C   0  0  0  0  0  0  0  0  0  0  0  0
  146.3711  142.8761  154.0819 C   0  0  0  0  0  0  0  0  0  0  0  0
  145.5979  143.0058  155.3123 C   0  0  0  0  0  0  0  0  0  0  0  0
  144.5789  143.6802  155.4419 O   0  0  0  0  0  0  0  0  0  0  0  0
  146.1073  142.2829  156.3944 N   0  0  0  0  0  0  0  0  0  0  0  0
  147.2533  141.4869  156.3680 C   0  0  0  0  0  0  0  0  0  0  0  0
  147.6206  140.8982  157.3838 O   0  0  0  0  0  0  0  0  0  0  0  0
  151.8823  141.7283  158.4984 C   0  0  0  0  0  0  0  0  0  0  0  0
  145.6050  142.3431  157.2683 H   0  0  0  0  0  0  0  0  0  0  0  0
  153.0831  141.1160  160.9818 H   0  0  0  0  0  0  0  0  0  0  0  0
  154.6529  141.8347  160.6292 H   0  0  0  0  0  0  0  0  0  0  0  0
  154.0733  140.4770  159.6720 H   0  0  0  0  0  0  0  0  0  0  0  0
  153.8350  142.6032  158.4222 H   0  0  0  0  0  0  0  0  0  0  0  0
  152.1005  143.4911  160.7625 H   0  0  0  0  0  0  0  0  0  0  0  0
  153.6145  144.1860  160.2590 H   0  0  0  0  0  0  0  0  0  0  0  0
  151.7435  145.5860  159.4344 H   0  0  0  0  0  0  0  0  0  0  0  0
  152.6466  144.9279  158.1222 H   0  0  0  0  0  0  0  0  0  0  0  0
  150.3093  144.6956  157.5885 H   0  0  0  0  0  0  0  0  0  0  0  0
  149.9091  143.0541  160.1301 H   0  0  0  0  0  0  0  0  0  0  0  0
  147.9266  143.7637  157.9320 H   0  0  0  0  0  0  0  0  0  0  0  0
  147.4489  143.2341  159.5402 H   0  0  0  0  0  0  0  0  0  0  0  0
  148.3610  142.1557  158.5298 H   0  0  0  0  0  0  0  0  0  0  0  0
  148.9739  145.8790  159.4743 H   0  0  0  0  0  0  0  0  0  0  0  0
  150.0489  145.3952  160.7888 H   0  0  0  0  0  0  0  0  0  0  0  0
  148.3748  144.9202  160.8224 H   0  0  0  0  0  0  0  0  0  0  0  0
  151.9717  143.0628  156.8551 H   0  0  0  0  0  0  0  0  0  0  0  0
  149.2265  142.3827  156.8915 H   0  0  0  0  0  0  0  0  0  0  0  0
  149.4715  140.5052  153.9838 H   0  0  0  0  0  0  0  0  0  0  0  0
  148.9979  139.5707  155.3614 H   0  0  0  0  0  0  0  0  0  0  0  0
  148.0277  142.0424  153.1178 H   0  0  0  0  0  0  0  0  0  0  0  0
  146.0522  143.4009  153.1928 H   0  0  0  0  0  0  0  0  0  0  0  0
  152.2108  140.8578  157.9286 H   0  0  0  0  0  0  0  0  0  0  0  0
  151.1718  141.3566  159.2370 H   0  0  0  0  0  0  0  0  0  0  0  0
  1  2  1  0  0  0  0
  1 24  1  0  0  0  0
  1 25  1  0  0  0  0
  1 26  1  0  0  0  0
  2 22  1  0  0  0  0
  2  3  1  0  0  0  0
  2 27  1  0  0  0  0
  3  4  1  0  0  0  0
  3 28  1  0  0  0  0
  3 29  1  0  0  0  0
  4  5  1  0  0  0  0
  4 30  1  0  0  0  0
  4 31  1  0  0  0  0
  5  6  1  0  0  0  0
  5  9  1  0  0  0  0
  5 32  1  0  0  0  0
  6  7  1  0  0  0  0
  6  8  1  0  0  0  0
  6 33  1  0  0  0  0
  7 34  1  0  0  0  0
  7 35  1  0  0  0  0
  7 36  1  0  0  0  0
  8 37  1  0  0  0  0
  8 38  1  0  0  0  0
  8 39  1  0  0  0  0
  9 10  1  0  0  0  0
  9 22  1  0  0  0  0
  9 40  1  0  0  0  0
 10 11  1  0  0  0  0
 10 41  1  0  0  0  0
 11 12  2  0  0  0  0
 11 13  1  0  0  0  0
 13 14  1  0  0  0  0
 13 42  1  0  0  0  0
 13 43  1  0  0  0  0
 14 20  1  0  0  0  0
 14 15  1  0  0  0  0
 15 16  2  0  0  0  0
 15 44  1  0  0  0  0
 16 17  1  0  0  0  0
 16 45  1  0  0  0  0
 17 18  2  0  0  0  0
 17 19  1  0  0  0  0
 19 23  1  0  0  0  0
 19 20  1  0  0  0  0
 20 21  2  0  0  0  0
 22 46  1  0  0  0  0
 22 47  1  0  0  0  0
M  END
> <s_m_source_file>
AV-unprocessed.smi

> <i_m_source_file_index>
2855

> <i_lp_mmshare_version>
43012

> <i_f3d_flags>
0

> <s_epik_input>
W0NIM11bQ0BASF0xW0NIMl1bQ0gyXVtDQEBIXShbQ0hdKFtDSDNdKVtDSDNdKVtDQEhdKFtDSDJdMSlbTkhdQyg9TylbQ0gyXW4yW2NIXVtjSF1jKD1PKVtuSF1jMj1P

> <s_epik_cmdline>
J2VwaWtfcHl0aG9uJywgJy1waCcsICc3LjAnLCAnLXRuJywgJzgnLCAnLW1hJywgJzIwMCcsICctbWV0YWxfYmluZGluZycsICctaW1hZScsICc8aW5maWxlLm1hZT4nLCAnLW9tYWUnLCAnPG91dGZpbGUubWFlPic=

> <r_lp_tautomer_probability>
0.999537

> <r_epik_Ionization_Penalty>
0.00306256

> <r_epik_Ionization_Penalty_Charging>
0.00306254

> <r_epik_Ionization_Penalty_Neutral>
2.0223e-08

> <r_epik_State_Penalty>
0.0021533

> <r_epik_Charging_Adjusted_Penalty>
0.00521583

> <i_epik_Tot_Q>
0

> <i_epik_Tot_abs_Q>
0

> <r_epik_Metal_State_Penalty>
0.362116

> <b_epik_Metal_Only>
0

> <s_lp_Force_Field>
OPLS_2005

> <r_lp_Energy>
18.1406

> <b_lp_Chiralities_Consistent>
1

> <s_lp_Variant>
AV-unprocessed.smi:2855-7

> <Gold.Version>
5.8.1

> <Gold.Id.Protein>
6NUR|6NUR_protein|mol2

> <Gold.PLP.Fitness>
45.8318

> <Gold.PLP.PLP>
-44.4333

> <Gold.PLP.part.hbond>
-1.6795

> <Gold.PLP.part.metal>
0.0000

> <Gold.PLP.part.buried>
-5.3357

> <Gold.PLP.part.nonpolar>
-38.6771

> <Gold.PLP.part.repulsive>
0.2313

> <Gold.PLP.ligand.clash>
0.0000

> <Gold.PLP.ligand.torsion>
0.3741

> <Gold.PLP.Chemscore.Hbond>
0.7020

> <Gold.PLP.Chemscore.CHOScore>
0.0000

> <Gold.PLP.Chemscore.Metal>
0.0000

> <Gold.Chemscore.Hbonds>
donor molecule, donor type, donor heavy atom, donor atom, acceptor molecule, acceptor atom, score
      P1  H  7989  7998       L1    12  0.69

> <Gold.PLP.Chemscore.Internal.Correction>
0.0407

> <Gold.Rescore>
     Score         DG    S(hbond)    S(metal)    S(lipo)     H(rot)  DE(clash)    DE(int)     intcor
     14.88     -15.86       0.75        0.00     107.82       1.85       0.42       0.56       ----

> <Gold.Chemscore.Fitness>
14.8775

> <Gold.Chemscore.DG>
-15.8607

> <Gold.Chemscore.ZeroCoef>
-5.4800

> <Gold.Chemscore.Hbond>
0.7522

> <Gold.Chemscore.Metal>
0.0000

> <Gold.Chemscore.Lipo>
107.8157

> <Gold.Chemscore.Internal_Hbond>
0.0000

> <Gold.Chemscore.DEClash>
0.4248

> <Gold.Chemscore.DEInternal>
0.5584

> <Gold.Chemscore.Rot>
1.8539

> <Gold.Chemscore.Internal.Correction>
   9.000000E+99

> <Gold.Chemscore.Hbonds>
donor molecule, donor type, donor heavy atom, donor atom, acceptor molecule, acceptor atom, score
      P1  H  7989  7998       L1    12  0.29

> <Gold.Chemscore.Hbond.Weighted>
-2.5123

> <Gold.Chemscore.Metal.Weighted>
-0.0000

> <Gold.Chemscore.Lipo.Weighted>
-12.6144

> <Gold.Chemscore.Internal_Hbond.Weighted>
0.0000

> <Gold.Chemscore.DEClash.Weighted>
0.4248

> <Gold.Chemscore.DEInternal.Weighted>
0.5584

> <Gold.Chemscore.Rot.Weighted>
4.7460

> <Gold.Chemscore.Internal.Correction.Weighted>
   9.000000E+99

> <Gold.Protein.RotatedTorsions>
[ 6907 6896 6895 6894 ] final -163.33 input  -60.11 | X-H torsion
[ 7974 7965 7964 7962 ] final   78.42 input  175.53 | X-H torsion
[ 8008 7997 7996 7995 ] final  -95.31 input   59.86 | X-H torsion
[ 10167 10162 10161 10158 ] final   60.38 input  -65.29 | X-H torsion
[ 10718 10713 10712 10709 ] final -179.16 input   66.30 | X-H torsion
[ 10763 10752 10751 10750 ] final    9.99 input  -60.55 | X-H torsion
[ 11005 11000 10999 10996 ] final   85.56 input  -57.11 | X-H torsion

> <Gold.Protein.ActiveResidues>
 VAL166  LYS551  ARG553  GLY616  TRP617  ASP618  TYR619  PRO620  LYS621  CYS622 
 ASP623  PHE694  ASN695  SER759  ASP760  ASP761  ALA762  ILE779  LEU786  VAL792 
 PHE793  MET794  SER795  GLU796  ALA797  LYS798  CYS799  TRP800  GLU811  SER814 

> <Gold.Protein.RotatedAtoms>
  151.3944  133.3778  159.2724 H   0  0  0  0  0  0  0  0  0  0  0  0  # atno 6907 bound_to 6896
  150.9480  134.8884  159.7665 H   0  0  0  0  0  0  0  0  0  0  0  0  # atno 6908 bound_to 6896
  152.5100  134.3898  159.9432 H   0  0  0  0  0  0  0  0  0  0  0  0  # atno 6909 bound_to 6896
  145.6773  139.2513  143.1834 H   0  0  0  0  0  0  0  0  0  0  0  0  # atno 7974 bound_to 7965
  154.7597  140.0481  157.0963 H   0  0  0  0  0  0  0  0  0  0  0  0  # atno 8008 bound_to 7997
  154.9953  140.3118  155.4870 H   0  0  0  0  0  0  0  0  0  0  0  0  # atno 8009 bound_to 7997
  156.2902  140.2211  156.5060 H   0  0  0  0  0  0  0  0  0  0  0  0  # atno 8010 bound_to 7997
  140.1662  144.4322  150.6684 H   0  0  0  0  0  0  0  0  0  0  0  0  # atno 10167 bound_to 10162
  156.8550  130.9732  151.3089 H   0  0  0  0  0  0  0  0  0  0  0  0  # atno 10718 bound_to 10713
  153.2081  135.6865  153.8148 H   0  0  0  0  0  0  0  0  0  0  0  0  # atno 10763 bound_to 10752
  153.7390  135.3241  155.3301 H   0  0  0  0  0  0  0  0  0  0  0  0  # atno 10764 bound_to 10752
  154.8207  135.4654  154.0876 H   0  0  0  0  0  0  0  0  0  0  0  0  # atno 10765 bound_to 10752
  139.8968  134.8295  156.2599 H   0  0  0  0  0  0  0  0  0  0  0  0  # atno 11005 bound_to 11000
  146.0994  140.7562  142.9556 LP  0  0  0  0  0  0  0  0  0  0  0  0  # atno 17320 bound_to 7965
  144.7037  140.3763  143.7135 LP  0  0  0  0  0  0  0  0  0  0  0  0  # atno 17321 bound_to 7965
  140.6611  143.2252  151.5852 LP  0  0  0  0  0  0  0  0  0  0  0  0  # atno 17342 bound_to 10162
  139.5358  144.2784  152.1249 LP  0  0  0  0  0  0  0  0  0  0  0  0  # atno 17343 bound_to 10162
  157.6282  130.8708  149.9227 LP  0  0  0  0  0  0  0  0  0  0  0  0  # atno 17370 bound_to 10713
  156.0807  130.3673  150.0586 LP  0  0  0  0  0  0  0  0  0  0  0  0  # atno 17371 bound_to 10713
  141.0169  133.7063  156.1204 LP  0  0  0  0  0  0  0  0  0  0  0  0  # atno 17394 bound_to 11000
  140.7288  134.4277  157.5568 LP  0  0  0  0  0  0  0  0  0  0  0  0  # atno 17395 bound_to 11000

$$$$
