AV-unprocessed.smi:2736|AV-procd|sdf|10546|dock3
  -GOLD-   2272014593D 1   1.00000     0.00000
 Structure written by MMmdl.
 38 40  0  0  0  0  0  0  0  0  1 V2000
  151.7678  144.4792  160.5344 C   0  0  0  0  0  0  0  0  0  0  0  0
  152.0221  143.2214  159.8074 N   0  0  0  0  0  0  0  0  0  0  0  0
  151.3714  143.0161  158.6191 C   0  0  0  0  0  0  0  0  0  0  0  0
  150.5809  143.8083  158.1053 O   0  0  0  0  0  0  0  0  0  0  0  0
  151.6925  141.7351  157.9791 C   0  0  0  0  0  0  0  0  0  0  0  0
  152.5508  140.8349  158.5191 C   0  0  0  0  0  0  0  0  0  0  0  0
  152.6690  139.7058  157.7162 N   0  0  0  0  0  0  0  0  0  0  0  0
  151.8494  139.9946  156.7053 C   0  0  0  0  0  0  0  0  0  0  0  0
  151.2255  141.1872  156.7844 N   0  0  0  0  0  0  0  0  0  0  0  0
  150.2838  141.7220  155.8122 C   0  0  0  0  0  0  0  0  0  0  0  0
  148.8269  141.3130  156.1094 C   0  0  1  0  0  0  0  0  0  0  0  0
  148.0658  142.4512  156.4688 O   0  0  0  0  0  0  0  0  0  0  0  0
  148.2218  140.5420  154.9384 C   0  0  0  0  0  0  0  0  0  0  0  0
  148.6153  139.2052  154.6954 C   0  0  0  0  0  0  0  0  0  0  0  0
  148.0654  138.4789  153.6222 C   0  0  0  0  0  0  0  0  0  0  0  0
  147.1100  139.0794  152.7831 C   0  0  0  0  0  0  0  0  0  0  0  0
  146.7015  140.4041  153.0228 C   0  0  0  0  0  0  0  0  0  0  0  0
  147.2476  141.1362  154.0962 C   0  0  0  0  0  0  0  0  0  0  0  0
  146.6907  142.7527  154.3565 Cl  0  0  0  0  0  0  0  0  0  0  0  0
  153.1681  141.1480  159.7579 N   0  0  0  0  0  0  0  0  0  0  0  0
  154.0936  140.1831  160.3583 C   0  0  0  0  0  0  0  0  0  0  0  0
  152.9010  142.3313  160.3999 C   0  0  0  0  0  0  0  0  0  0  0  0
  153.4358  142.5868  161.4828 O   0  0  0  0  0  0  0  0  0  0  0  0
  151.1527  145.2021  159.9978 H   0  0  0  0  0  0  0  0  0  0  0  0
  152.7048  144.9900  160.7624 H   0  0  0  0  0  0  0  0  0  0  0  0
  151.2609  144.2716  161.4782 H   0  0  0  0  0  0  0  0  0  0  0  0
  151.6945  139.3147  155.8804 H   0  0  0  0  0  0  0  0  0  0  0  0
  150.3846  142.8052  155.7581 H   0  0  0  0  0  0  0  0  0  0  0  0
  150.5760  141.3490  154.8297 H   0  0  0  0  0  0  0  0  0  0  0  0
  148.8136  140.6755  156.9930 H   0  0  0  0  0  0  0  0  0  0  0  0
  148.3510  143.1812  155.9406 H   0  0  0  0  0  0  0  0  0  0  0  0
  149.3418  138.7237  155.3334 H   0  0  0  0  0  0  0  0  0  0  0  0
  148.3759  137.4597  153.4443 H   0  0  0  0  0  0  0  0  0  0  0  0
  146.6869  138.5231  151.9596 H   0  0  0  0  0  0  0  0  0  0  0  0
  145.9617  140.8593  152.3807 H   0  0  0  0  0  0  0  0  0  0  0  0
  155.0703  140.6391  160.5257 H   0  0  0  0  0  0  0  0  0  0  0  0
  154.2520  139.3042  159.7337 H   0  0  0  0  0  0  0  0  0  0  0  0
  153.7105  139.8345  161.3184 H   0  0  0  0  0  0  0  0  0  0  0  0
  1  2  1  0  0  0  0
  1 24  1  0  0  0  0
  1 25  1  0  0  0  0
  1 26  1  0  0  0  0
  2 22  1  0  0  0  0
  2  3  1  0  0  0  0
  3  4  2  0  0  0  0
  3  5  1  0  0  0  0
  5  9  1  0  0  0  0
  5  6  2  0  0  0  0
  6  7  1  0  0  0  0
  6 20  1  0  0  0  0
  7  8  2  0  0  0  0
  8  9  1  0  0  0  0
  8 27  1  0  0  0  0
  9 10  1  0  0  0  0
 10 11  1  0  0  0  0
 10 28  1  0  0  0  0
 10 29  1  0  0  0  0
 11 12  1  0  0  0  0
 11 13  1  0  0  0  0
 11 30  1  0  0  0  0
 12 31  1  0  0  0  0
 13 18  1  0  0  0  0
 13 14  2  0  0  0  0
 14 15  1  0  0  0  0
 14 32  1  0  0  0  0
 15 16  2  0  0  0  0
 15 33  1  0  0  0  0
 16 17  1  0  0  0  0
 16 34  1  0  0  0  0
 17 18  2  0  0  0  0
 17 35  1  0  0  0  0
 18 19  1  0  0  0  0
 20 21  1  0  0  0  0
 20 22  1  0  0  0  0
 21 36  1  0  0  0  0
 21 37  1  0  0  0  0
 21 38  1  0  0  0  0
 22 23  2  0  0  0  0
M  END
> <s_m_source_file>
AV-unprocessed.smi

> <i_m_source_file_index>
2736

> <i_lp_mmshare_version>
43012

> <i_f3d_flags>
0

> <s_epik_input>
Tz1jMW4oW0NIM10pYyg9TyluKFtDSDNdKWMoYzEyKW5bY0hdbjJbQ0gyXVtDQEhdKFtPSF0pYzNbY0hdW2NIXVtjSF1bY0hdYzNDbA==

> <s_epik_cmdline>
J2VwaWtfcHl0aG9uJywgJy1waCcsICc3LjAnLCAnLXRuJywgJzgnLCAnLW1hJywgJzIwMCcsICctbWV0YWxfYmluZGluZycsICctaW1hZScsICc8aW5maWxlLm1hZT4nLCAnLW9tYWUnLCAnPG91dGZpbGUubWFlPic=

> <r_lp_tautomer_probability>
1

> <r_epik_Ionization_Penalty>
1.63404e-06

> <r_epik_Ionization_Penalty_Charging>
3.74189e-09

> <r_epik_Ionization_Penalty_Neutral>
1.63029e-06

> <r_epik_State_Penalty>
-0

> <r_epik_Charging_Adjusted_Penalty>
3.74189e-09

> <i_epik_Tot_Q>
0

> <i_epik_Tot_abs_Q>
0

> <r_epik_Metal_State_Penalty>
-0

> <b_epik_Metal_Only>
0

> <s_lp_Force_Field>
OPLS_2005

> <r_lp_Energy>
36.7388

> <b_lp_Chiralities_Consistent>
1

> <s_lp_Variant>
AV-unprocessed.smi:2736-2

> <Gold.Version>
5.8.1

> <Gold.Id.Protein>
6NUR|6NUR_protein|mol2

> <Gold.PLP.Fitness>
45.3831

> <Gold.PLP.PLP>
-42.3534

> <Gold.PLP.part.hbond>
-1.9972

> <Gold.PLP.part.metal>
0.0000

> <Gold.PLP.part.buried>
0.8056

> <Gold.PLP.part.nonpolar>
-41.8199

> <Gold.PLP.part.repulsive>
0.5271

> <Gold.PLP.ligand.clash>
0.0000

> <Gold.PLP.ligand.torsion>
1.4999

> <Gold.PLP.Chemscore.Hbond>
2.0000

> <Gold.PLP.Chemscore.CHOScore>
0.0000

> <Gold.PLP.Chemscore.Metal>
0.0000

> <Gold.Chemscore.Hbonds>
donor molecule, donor type, donor heavy atom, donor atom, acceptor molecule, acceptor atom, score
      L1  H    12    31       P1  8028  1.00
      P1  H  7997  8010       L1     7  1.00

> <Gold.PLP.Chemscore.Internal.Correction>
0.0295

> <Gold.Rescore>
     Score         DG    S(hbond)    S(metal)    S(lipo)     H(rot)  DE(clash)    DE(int)     intcor
      8.93     -12.60       0.98        0.00      79.95       2.15       0.45       3.21       ----

> <Gold.Chemscore.Fitness>
8.9313

> <Gold.Chemscore.DG>
-12.5956

> <Gold.Chemscore.ZeroCoef>
-5.4800

> <Gold.Chemscore.Hbond>
0.9757

> <Gold.Chemscore.Metal>
0.0000

> <Gold.Chemscore.Lipo>
79.9500

> <Gold.Chemscore.Internal_Hbond>
0.0000

> <Gold.Chemscore.DEClash>
0.4544

> <Gold.Chemscore.DEInternal>
3.2099

> <Gold.Chemscore.Rot>
2.1474

> <Gold.Chemscore.Internal.Correction>
   9.000000E+99

> <Gold.Chemscore.Hbonds>
donor molecule, donor type, donor heavy atom, donor atom, acceptor molecule, acceptor atom, score
      L1  H    12    31       P1  8028  0.86
      P1  H  7997  8010       L1     7  0.08

> <Gold.Chemscore.Hbond.Weighted>
-3.2588

> <Gold.Chemscore.Metal.Weighted>
-0.0000

> <Gold.Chemscore.Lipo.Weighted>
-9.3542

> <Gold.Chemscore.Internal_Hbond.Weighted>
0.0000

> <Gold.Chemscore.DEClash.Weighted>
0.4544

> <Gold.Chemscore.DEInternal.Weighted>
3.2099

> <Gold.Chemscore.Rot.Weighted>
5.4974

> <Gold.Chemscore.Internal.Correction.Weighted>
   9.000000E+99

> <Gold.Protein.RotatedTorsions>
[ 6907 6896 6895 6894 ] final  -28.06 input  -60.11 | X-H torsion
[ 7974 7965 7964 7962 ] final  -10.57 input  175.53 | X-H torsion
[ 8008 7997 7996 7995 ] final   43.80 input   59.86 | X-H torsion
[ 10167 10162 10161 10158 ] final  -45.96 input  -65.29 | X-H torsion
[ 10718 10713 10712 10709 ] final   30.31 input   66.30 | X-H torsion
[ 10763 10752 10751 10750 ] final  -49.97 input  -60.55 | X-H torsion
[ 11005 11000 10999 10996 ] final -140.01 input  -57.11 | X-H torsion

> <Gold.Protein.ActiveResidues>
 VAL166  LYS551  ARG553  GLY616  TRP617  ASP618  TYR619  PRO620  LYS621  CYS622 
 ASP623  PHE694  ASN695  SER759  ASP760  ASP761  ALA762  ILE779  LEU786  VAL792 
 PHE793  MET794  SER795  GLU796  ALA797  LYS798  CYS799  TRP800  GLU811  SER814 

> <Gold.Protein.RotatedAtoms>
  151.1382  135.0166  159.8613 H   0  0  0  0  0  0  0  0  0  0  0  0  # atno 6907 bound_to 6896
  152.5452  134.1530  159.8536 H   0  0  0  0  0  0  0  0  0  0  0  0  # atno 6908 bound_to 6896
  151.1603  133.4804  159.2627 H   0  0  0  0  0  0  0  0  0  0  0  0  # atno 6909 bound_to 6896
  146.2216  140.2784  142.8361 H   0  0  0  0  0  0  0  0  0  0  0  0  # atno 7974 bound_to 7965
  155.3088  140.3389  155.4244 H   0  0  0  0  0  0  0  0  0  0  0  0  # atno 8008 bound_to 7997
  156.1966  140.1717  156.8024 H   0  0  0  0  0  0  0  0  0  0  0  0  # atno 8009 bound_to 7997
  154.5506  140.0706  156.8645 H   0  0  0  0  0  0  0  0  0  0  0  0  # atno 8010 bound_to 7997
  140.6837  143.2854  151.3714 H   0  0  0  0  0  0  0  0  0  0  0  0  # atno 10167 bound_to 10162
  157.2580  130.7147  149.6439 H   0  0  0  0  0  0  0  0  0  0  0  0  # atno 10718 bound_to 10713
  154.1027  135.6561  153.4871 H   0  0  0  0  0  0  0  0  0  0  0  0  # atno 10763 bound_to 10752
  153.0283  135.5229  154.7270 H   0  0  0  0  0  0  0  0  0  0  0  0  # atno 10764 bound_to 10752
  154.6427  135.2990  155.0053 H   0  0  0  0  0  0  0  0  0  0  0  0  # atno 10765 bound_to 10752
  140.8464  134.2339  157.4783 H   0  0  0  0  0  0  0  0  0  0  0  0  # atno 11005 bound_to 11000
  144.9215  140.7874  143.5745 LP  0  0  0  0  0  0  0  0  0  0  0  0  # atno 17320 bound_to 7965
  145.2721  139.1950  143.4836 LP  0  0  0  0  0  0  0  0  0  0  0  0  # atno 17321 bound_to 7965
  139.6178  144.0968  152.2362 LP  0  0  0  0  0  0  0  0  0  0  0  0  # atno 17342 bound_to 10162
  140.0402  144.6013  150.7417 LP  0  0  0  0  0  0  0  0  0  0  0  0  # atno 17343 bound_to 10162
  155.9664  130.4406  150.5308 LP  0  0  0  0  0  0  0  0  0  0  0  0  # atno 17370 bound_to 10713
  157.3207  131.0681  151.1934 LP  0  0  0  0  0  0  0  0  0  0  0  0  # atno 17371 bound_to 10713
  139.8703  134.9661  156.4552 LP  0  0  0  0  0  0  0  0  0  0  0  0  # atno 17394 bound_to 11000
  140.8838  133.7898  155.9496 LP  0  0  0  0  0  0  0  0  0  0  0  0  # atno 17395 bound_to 11000

$$$$
