AV-unprocessed.smi:109|AV-procd|sdf|1041|dock6
  -GOLD-   2262018 73D 1   1.00000     0.00000
 Structure written by MMmdl.
 58 61  0  0  0  0  0  0  0  0  1 V2000
  150.5769  139.7377  154.4674 O   0  0  0  0  0  0  0  0  0  0  0  0
  151.5478  139.1604  155.3135 C   0  0  0  0  0  0  0  0  0  0  0  0
  151.9410  140.1594  156.4153 C   0  0  0  0  0  0  0  0  0  0  0  0
  150.9014  140.2955  157.5557 C   0  0  2  0  0  0  0  0  0  0  0  0
  149.5497  140.2522  156.9926 N   0  0  0  0  0  0  0  0  0  0  0  0
  148.5799  139.4597  157.5021 C   0  0  0  0  0  0  0  0  0  0  0  0
  147.2638  139.7387  157.3170 N   0  0  0  0  0  0  0  0  0  0  0  0
  146.3302  138.9390  157.8395 C   0  0  0  0  0  0  0  0  0  0  0  0
  146.4935  137.8311  158.5649 N   0  0  0  0  0  0  0  0  0  0  0  0
  147.8134  137.5427  158.7544 C   0  0  0  0  0  0  0  0  0  0  0  0
  148.9082  138.3038  158.2569 C   0  0  0  0  0  0  0  0  0  0  0  0
  150.1053  137.7143  158.6405 N   0  0  0  0  0  0  0  0  0  0  0  0
  149.7348  136.6649  159.3235 C   0  0  0  0  0  0  0  0  0  0  0  0
  148.3744  136.4824  159.4403 N   0  0  0  0  0  0  0  0  0  0  0  0
  147.6700  135.3722  160.1618 C   0  0  1  0  0  0  0  0  0  0  0  0
  148.5345  134.2829  160.2981 O   0  0  0  0  0  0  0  0  0  0  0  0
  148.7120  133.9564  161.6743 C   0  0  2  0  0  0  0  0  0  0  0  0
  148.9971  132.4542  161.8489 C   0  0  0  0  0  0  0  0  0  0  0  0
  147.9167  131.6872  161.3611 O   0  0  0  0  0  0  0  0  0  0  0  0
  147.4656  134.5175  162.3749 C   0  0  2  0  0  0  0  0  0  0  0  0
  146.3768  133.6158  162.2990 O   0  0  0  0  0  0  0  0  0  0  0  0
  147.1726  135.7715  161.5668 C   0  0  1  0  0  0  0  0  0  0  0  0
  147.8429  136.8907  162.1195 O   0  0  0  0  0  0  0  0  0  0  0  0
  151.0715  141.5961  158.3932 C   0  0  0  0  0  0  0  0  0  0  0  0
  150.9432  142.8873  157.5457 C   0  0  0  0  0  0  0  0  0  0  0  0
  151.1472  144.1624  158.3807 C   0  0  0  0  0  0  0  0  0  0  0  0
  152.4953  144.1468  159.1110 C   0  0  0  0  0  0  0  0  0  0  0  0
  152.6254  142.8876  159.9756 C   0  0  0  0  0  0  0  0  0  0  0  0
  152.4336  141.6162  159.1348 C   0  0  0  0  0  0  0  0  0  0  0  0
  146.8548  135.0857  159.4963 H   0  0  0  0  0  0  0  0  0  0  0  0
  149.5786  134.5177  162.0254 H   0  0  0  0  0  0  0  0  0  0  0  0
  147.6515  134.7320  163.4281 H   0  0  0  0  0  0  0  0  0  0  0  0
  146.1078  136.0047  161.5263 H   0  0  0  0  0  0  0  0  0  0  0  0
  150.0295  140.3086  154.9845 H   0  0  0  0  0  0  0  0  0  0  0  0
  151.1354  138.2448  155.7372 H   0  0  0  0  0  0  0  0  0  0  0  0
  152.4174  138.8843  154.7166 H   0  0  0  0  0  0  0  0  0  0  0  0
  152.8917  139.8178  156.8205 H   0  0  0  0  0  0  0  0  0  0  0  0
  152.1294  141.1386  155.9729 H   0  0  0  0  0  0  0  0  0  0  0  0
  151.0542  139.4649  158.2444 H   0  0  0  0  0  0  0  0  0  0  0  0
  149.3791  140.8945  156.2322 H   0  0  0  0  0  0  0  0  0  0  0  0
  145.3070  139.2272  157.6493 H   0  0  0  0  0  0  0  0  0  0  0  0
  150.4514  135.9868  159.7639 H   0  0  0  0  0  0  0  0  0  0  0  0
  149.9167  132.1586  161.3434 H   0  0  0  0  0  0  0  0  0  0  0  0
  149.1300  132.2243  162.9064 H   0  0  0  0  0  0  0  0  0  0  0  0
  148.1422  130.7720  161.4311 H   0  0  0  0  0  0  0  0  0  0  0  0
  146.1143  133.3931  163.1793 H   0  0  0  0  0  0  0  0  0  0  0  0
  147.6612  136.9199  163.0465 H   0  0  0  0  0  0  0  0  0  0  0  0
  150.2817  141.6155  159.1462 H   0  0  0  0  0  0  0  0  0  0  0  0
  151.6679  142.8657  156.7305 H   0  0  0  0  0  0  0  0  0  0  0  0
  149.9593  142.9556  157.0849 H   0  0  0  0  0  0  0  0  0  0  0  0
  151.0852  145.0406  157.7373 H   0  0  0  0  0  0  0  0  0  0  0  0
  150.3391  144.2553  159.1074 H   0  0  0  0  0  0  0  0  0  0  0  0
  153.3081  144.1803  158.3845 H   0  0  0  0  0  0  0  0  0  0  0  0
  152.5944  145.0382  159.7313 H   0  0  0  0  0  0  0  0  0  0  0  0
  153.6022  142.8690  160.4599 H   0  0  0  0  0  0  0  0  0  0  0  0
  151.8842  142.9128  160.7754 H   0  0  0  0  0  0  0  0  0  0  0  0
  152.5284  140.7557  159.7973 H   0  0  0  0  0  0  0  0  0  0  0  0
  153.2454  141.5336  158.4111 H   0  0  0  0  0  0  0  0  0  0  0  0
  1  2  1  0  0  0  0
  1 34  1  0  0  0  0
  2  3  1  0  0  0  0
  2 35  1  0  0  0  0
  2 36  1  0  0  0  0
  3  4  1  0  0  0  0
  3 37  1  0  0  0  0
  3 38  1  0  0  0  0
  4  5  1  0  0  0  0
  4 24  1  0  0  0  0
  4 39  1  0  0  0  0
  5  6  1  0  0  0  0
  5 40  1  0  0  0  0
  6 11  1  0  0  0  0
  6  7  2  0  0  0  0
  7  8  1  0  0  0  0
  8  9  2  0  0  0  0
  8 41  1  0  0  0  0
  9 10  1  0  0  0  0
 10 14  1  0  0  0  0
 10 11  2  0  0  0  0
 11 12  1  0  0  0  0
 12 13  2  0  0  0  0
 13 14  1  0  0  0  0
 13 42  1  0  0  0  0
 14 15  1  0  0  0  0
 15 30  1  0  0  0  0
 15 22  1  0  0  0  0
 15 16  1  0  0  0  0
 16 17  1  0  0  0  0
 17 31  1  0  0  0  0
 17 18  1  0  0  0  0
 17 20  1  0  0  0  0
 18 19  1  0  0  0  0
 18 43  1  0  0  0  0
 18 44  1  0  0  0  0
 19 45  1  0  0  0  0
 20 32  1  0  0  0  0
 20 21  1  0  0  0  0
 20 22  1  0  0  0  0
 21 46  1  0  0  0  0
 22 33  1  0  0  0  0
 22 23  1  0  0  0  0
 23 47  1  0  0  0  0
 24 29  1  0  0  0  0
 24 25  1  0  0  0  0
 24 48  1  0  0  0  0
 25 26  1  0  0  0  0
 25 49  1  0  0  0  0
 25 50  1  0  0  0  0
 26 27  1  0  0  0  0
 26 51  1  0  0  0  0
 26 52  1  0  0  0  0
 27 28  1  0  0  0  0
 27 53  1  0  0  0  0
 27 54  1  0  0  0  0
 28 29  1  0  0  0  0
 28 55  1  0  0  0  0
 28 56  1  0  0  0  0
 29 57  1  0  0  0  0
 29 58  1  0  0  0  0
M  END
> <s_m_source_file>
AV-unprocessed.smi

> <i_m_source_file_index>
109

> <i_lp_mmshare_version>
43012

> <i_f3d_flags>
0

> <s_epik_input>
W0NIMl0xW0NIMl1bQ0gyXVtDSDJdW0NIMl1bQ0hdMVtDQEhdKFtDSDJdW0NIMl1bT0hdKVtOSF1jKG5bY0hdbjIpYyhjMjMpbltjSF1uM1tDQEBIXTRPW0NASF0oW0NIMl1bT0hdKVtDQEBIXShbT0hdKVtDQEhdNFtPSF0=

> <s_epik_cmdline>
J2VwaWtfcHl0aG9uJywgJy1waCcsICc3LjAnLCAnLXRuJywgJzgnLCAnLW1hJywgJzIwMCcsICctbWV0YWxfYmluZGluZycsICctaW1hZScsICc8aW5maWxlLm1hZT4nLCAnLW9tYWUnLCAnPG91dGZpbGUubWFlPic=

> <r_lp_tautomer_probability>
1

> <r_epik_Ionization_Penalty>
0.000793976

> <r_epik_Ionization_Penalty_Charging>
0

> <r_epik_Ionization_Penalty_Neutral>
0.000793976

> <r_epik_State_Penalty>
-0

> <r_epik_Charging_Adjusted_Penalty>
0

> <i_epik_Tot_Q>
0

> <i_epik_Tot_abs_Q>
0

> <r_epik_Metal_State_Penalty>
-0

> <b_epik_Metal_Only>
0

> <s_epik_Chemistry_Notes>
This compound contains an acetal/aminal-like group ( X-CH(R)-Y where X, Y are N, S, or O) that may be acid/base labile, releasing an aldehyde.

> <s_lp_Force_Field>
OPLS_2005

> <r_lp_Energy>
56.0983

> <b_lp_Chiralities_Consistent>
1

> <s_lp_Variant>
AV-unprocessed.smi:109-11

> <Gold.Version>
5.8.1

> <Gold.Id.Protein>
6NUR|6NUR_protein|mol2

> <Gold.PLP.Fitness>
51.5951

> <Gold.PLP.PLP>
-45.9233

> <Gold.PLP.part.hbond>
-3.0000

> <Gold.PLP.part.metal>
0.0000

> <Gold.PLP.part.buried>
-7.3995

> <Gold.PLP.part.nonpolar>
-35.9843

> <Gold.PLP.part.repulsive>
0.0218

> <Gold.PLP.ligand.clash>
0.0000

> <Gold.PLP.ligand.torsion>
1.1477

> <Gold.PLP.Chemscore.Hbond>
2.5840

> <Gold.PLP.Chemscore.CHOScore>
0.0000

> <Gold.PLP.Chemscore.Metal>
0.0000

> <Gold.Chemscore.Hbonds>
donor molecule, donor type, donor heavy atom, donor atom, acceptor molecule, acceptor atom, score
      P1  H  6896  6908       L1    16  0.07
      P1  H  6931  6943       L1    23  1.00
      P1  H  7989  7998       L1     1  1.00

> <Gold.PLP.Chemscore.Internal.Correction>
0.2152

> <Gold.Rescore>
     Score         DG    S(hbond)    S(metal)    S(lipo)     H(rot)  DE(clash)    DE(int)     intcor
      8.46     -10.90       1.93        0.00     110.84       5.47       0.07       2.37       ----

> <Gold.Chemscore.Fitness>
8.4630

> <Gold.Chemscore.DG>
-10.8971

> <Gold.Chemscore.ZeroCoef>
-5.4800

> <Gold.Chemscore.Hbond>
1.9288

> <Gold.Chemscore.Metal>
0.0000

> <Gold.Chemscore.Lipo>
110.8425

> <Gold.Chemscore.Internal_Hbond>
0.0000

> <Gold.Chemscore.DEClash>
0.0655

> <Gold.Chemscore.DEInternal>
2.3687

> <Gold.Chemscore.Rot>
5.4662

> <Gold.Chemscore.Internal.Correction>
   9.000000E+99

> <Gold.Chemscore.Hbonds>
donor molecule, donor type, donor heavy atom, donor atom, acceptor molecule, acceptor atom, score
      P1  H  6896  6908       L1    16  0.03
      P1  H  6931  6943       L1    23  0.34
      P1  H  7989  7998       L1     1  0.13

> <Gold.Chemscore.Hbond.Weighted>
-6.4421

> <Gold.Chemscore.Metal.Weighted>
-0.0000

> <Gold.Chemscore.Lipo.Weighted>
-12.9686

> <Gold.Chemscore.Internal_Hbond.Weighted>
0.0000

> <Gold.Chemscore.DEClash.Weighted>
0.0655

> <Gold.Chemscore.DEInternal.Weighted>
2.3687

> <Gold.Chemscore.Rot.Weighted>
13.9935

> <Gold.Chemscore.Internal.Correction.Weighted>
   9.000000E+99

> <Gold.Protein.RotatedTorsions>
[ 6907 6896 6895 6894 ] final  131.63 input  -60.11 | X-H torsion
[ 7974 7965 7964 7962 ] final  -71.44 input  175.53 | X-H torsion
[ 8008 7997 7996 7995 ] final  -39.23 input   59.86 | X-H torsion
[ 10167 10162 10161 10158 ] final  -28.84 input  -65.29 | X-H torsion
[ 10718 10713 10712 10709 ] final   94.67 input   66.30 | X-H torsion
[ 10763 10752 10751 10750 ] final    0.63 input  -60.55 | X-H torsion
[ 11005 11000 10999 10996 ] final   28.59 input  -57.11 | X-H torsion

> <Gold.Protein.ActiveResidues>
 VAL166  LYS551  ARG553  GLY616  TRP617  ASP618  TYR619  PRO620  LYS621  CYS622 
 ASP623  PHE694  ASN695  SER759  ASP760  ASP761  ALA762  ILE779  LEU786  VAL792 
 PHE793  MET794  SER795  GLU796  ALA797  LYS798  CYS799  TRP800  GLU811  SER814 

> <Gold.Protein.RotatedAtoms>
  152.3406  133.6063  159.5873 H   0  0  0  0  0  0  0  0  0  0  0  0  # atno 6907 bound_to 6896
  150.7476  133.9727  159.3560 H   0  0  0  0  0  0  0  0  0  0  0  0  # atno 6908 bound_to 6896
  151.7592  135.0815  160.0394 H   0  0  0  0  0  0  0  0  0  0  0  0  # atno 6909 bound_to 6896
  145.6781  140.9198  143.0847 H   0  0  0  0  0  0  0  0  0  0  0  0  # atno 7974 bound_to 7965
  154.4026  140.1557  156.2830 H   0  0  0  0  0  0  0  0  0  0  0  0  # atno 8008 bound_to 7997
  155.8853  140.3441  155.5895 H   0  0  0  0  0  0  0  0  0  0  0  0  # atno 8009 bound_to 7997
  155.7621  140.0819  157.2141 H   0  0  0  0  0  0  0  0  0  0  0  0  # atno 8010 bound_to 7997
  140.7266  143.3977  151.1319 H   0  0  0  0  0  0  0  0  0  0  0  0  # atno 10167 bound_to 10162
  157.6946  131.0520  150.4221 H   0  0  0  0  0  0  0  0  0  0  0  0  # atno 10718 bound_to 10713
  153.3183  135.6967  153.7054 H   0  0  0  0  0  0  0  0  0  0  0  0  # atno 10763 bound_to 10752
  153.5904  135.3481  155.2909 H   0  0  0  0  0  0  0  0  0  0  0  0  # atno 10764 bound_to 10752
  154.8591  135.4316  154.2340 H   0  0  0  0  0  0  0  0  0  0  0  0  # atno 10765 bound_to 10752
  140.3140  134.2618  155.7729 H   0  0  0  0  0  0  0  0  0  0  0  0  # atno 11005 bound_to 11000
  144.7035  139.8660  143.7437 LP  0  0  0  0  0  0  0  0  0  0  0  0  # atno 17320 bound_to 7965
  146.0988  139.3982  143.0360 LP  0  0  0  0  0  0  0  0  0  0  0  0  # atno 17321 bound_to 7965
  139.7592  143.8661  152.3096 LP  0  0  0  0  0  0  0  0  0  0  0  0  # atno 17342 bound_to 10162
  139.8541  144.7150  150.9178 LP  0  0  0  0  0  0  0  0  0  0  0  0  # atno 17343 bound_to 10162
  156.4595  130.4029  149.6585 LP  0  0  0  0  0  0  0  0  0  0  0  0  # atno 17370 bound_to 10713
  156.3705  130.7528  151.2510 LP  0  0  0  0  0  0  0  0  0  0  0  0  # atno 17371 bound_to 10713
  141.2102  133.7727  156.9948 LP  0  0  0  0  0  0  0  0  0  0  0  0  # atno 17394 bound_to 11000
  140.1000  134.9541  157.1908 LP  0  0  0  0  0  0  0  0  0  0  0  0  # atno 17395 bound_to 11000

$$$$
