AV-unprocessed.smi:2601|AV-procd|sdf|10183|dock1
  -GOLD-   2272014193D 1   1.00000     0.00000
 Structure written by MMmdl.
 47 48  0  0  0  0  0  0  0  0  1 V2000
  152.8701  143.1041  161.9918 C   0  0  0  0  0  0  0  0  0  0  0  0
  153.5894  142.0213  161.3480 N   0  0  0  0  0  0  0  0  0  0  0  0
  154.6408  141.4624  161.9851 N   0  0  0  0  0  0  0  0  0  0  0  0
  155.0709  140.5236  161.1610 C   0  0  0  0  0  0  0  0  0  0  0  0
  154.3049  140.4550  159.9652 C   0  0  0  0  0  0  0  0  0  0  0  0
  153.3603  141.4323  160.1160 C   0  0  0  0  0  0  0  0  0  0  0  0
  152.2541  141.8534  159.1937 C   0  0  0  0  0  0  0  0  0  0  0  0
  152.1276  140.9953  157.9194 C   0  0  0  0  0  0  0  0  0  0  0  0
  150.9098  141.2741  157.1638 N   0  0  0  0  0  0  0  0  0  0  0  0
  150.6641  140.8783  155.9039 C   0  0  0  0  0  0  0  0  0  0  0  0
  151.4796  140.2279  155.2492 O   0  0  0  0  0  0  0  0  0  0  0  0
  149.4432  141.2294  155.4304 N   0  0  0  0  0  0  0  0  0  0  0  0
  148.3700  141.9201  156.1536 C   0  0  0  0  0  0  0  0  0  0  0  0
  147.1754  140.9577  156.3434 C   0  0  0  0  0  0  0  0  0  0  0  0
  147.4512  139.8885  157.4195 C   0  0  0  0  0  0  0  0  0  0  0  0
  145.9327  141.7589  156.7652 C   0  0  0  0  0  0  0  0  0  0  0  0
  146.8081  140.3537  155.0907 O   0  0  0  0  0  0  0  0  0  0  0  0
  147.8162  139.8822  154.1791 C   0  0  0  0  0  0  0  0  0  0  0  0
  148.2985  138.4678  154.5627 C   0  0  0  0  0  0  0  0  0  0  0  0
  147.0993  139.7957  152.8219 C   0  0  0  0  0  0  0  0  0  0  0  0
  148.9805  140.8952  154.0845 C   0  0  0  0  0  0  0  0  0  0  0  0
  151.8422  142.7961  162.1844 H   0  0  0  0  0  0  0  0  0  0  0  0
  152.8635  143.9802  161.3433 H   0  0  0  0  0  0  0  0  0  0  0  0
  153.3420  143.3725  162.9381 H   0  0  0  0  0  0  0  0  0  0  0  0
  155.9215  139.9247  161.4510 H   0  0  0  0  0  0  0  0  0  0  0  0
  154.4302  139.7902  159.1235 H   0  0  0  0  0  0  0  0  0  0  0  0
  151.3097  141.8211  159.7370 H   0  0  0  0  0  0  0  0  0  0  0  0
  152.3810  142.8956  158.9026 H   0  0  0  0  0  0  0  0  0  0  0  0
  152.9703  141.2019  157.2593 H   0  0  0  0  0  0  0  0  0  0  0  0
  152.1822  139.9343  158.1667 H   0  0  0  0  0  0  0  0  0  0  0  0
  150.1891  141.7960  157.6408 H   0  0  0  0  0  0  0  0  0  0  0  0
  148.6786  142.3307  157.1153 H   0  0  0  0  0  0  0  0  0  0  0  0
  148.0623  142.7866  155.5659 H   0  0  0  0  0  0  0  0  0  0  0  0
  147.5125  140.3414  158.4092 H   0  0  0  0  0  0  0  0  0  0  0  0
  148.3924  139.3690  157.2689 H   0  0  0  0  0  0  0  0  0  0  0  0
  146.6571  139.1420  157.4485 H   0  0  0  0  0  0  0  0  0  0  0  0
  146.0999  142.2880  157.7041 H   0  0  0  0  0  0  0  0  0  0  0  0
  145.0697  141.1062  156.9013 H   0  0  0  0  0  0  0  0  0  0  0  0
  145.6653  142.5002  156.0115 H   0  0  0  0  0  0  0  0  0  0  0  0
  148.8924  138.0306  153.7595 H   0  0  0  0  0  0  0  0  0  0  0  0
  147.4564  137.8008  154.7487 H   0  0  0  0  0  0  0  0  0  0  0  0
  148.9322  138.4583  155.4440 H   0  0  0  0  0  0  0  0  0  0  0  0
  147.7752  139.4585  152.0352 H   0  0  0  0  0  0  0  0  0  0  0  0
  146.7011  140.7656  152.5220 H   0  0  0  0  0  0  0  0  0  0  0  0
  146.2628  139.0973  152.8611 H   0  0  0  0  0  0  0  0  0  0  0  0
  148.6493  141.8101  153.5902 H   0  0  0  0  0  0  0  0  0  0  0  0
  149.7750  140.4968  153.4515 H   0  0  0  0  0  0  0  0  0  0  0  0
  1  2  1  0  0  0  0
  1 22  1  0  0  0  0
  1 23  1  0  0  0  0
  1 24  1  0  0  0  0
  2  6  1  0  0  0  0
  2  3  1  0  0  0  0
  3  4  2  0  0  0  0
  4  5  1  0  0  0  0
  4 25  1  0  0  0  0
  5  6  2  0  0  0  0
  5 26  1  0  0  0  0
  6  7  1  0  0  0  0
  7  8  1  0  0  0  0
  7 27  1  0  0  0  0
  7 28  1  0  0  0  0
  8  9  1  0  0  0  0
  8 29  1  0  0  0  0
  8 30  1  0  0  0  0
  9 10  1  0  0  0  0
  9 31  1  0  0  0  0
 10 11  2  0  0  0  0
 10 12  1  0  0  0  0
 12 21  1  0  0  0  0
 12 13  1  0  0  0  0
 13 14  1  0  0  0  0
 13 32  1  0  0  0  0
 13 33  1  0  0  0  0
 14 15  1  0  0  0  0
 14 16  1  0  0  0  0
 14 17  1  0  0  0  0
 15 34  1  0  0  0  0
 15 35  1  0  0  0  0
 15 36  1  0  0  0  0
 16 37  1  0  0  0  0
 16 38  1  0  0  0  0
 16 39  1  0  0  0  0
 17 18  1  0  0  0  0
 18 19  1  0  0  0  0
 18 20  1  0  0  0  0
 18 21  1  0  0  0  0
 19 40  1  0  0  0  0
 19 41  1  0  0  0  0
 19 42  1  0  0  0  0
 20 43  1  0  0  0  0
 20 44  1  0  0  0  0
 20 45  1  0  0  0  0
 21 46  1  0  0  0  0
 21 47  1  0  0  0  0
M  END
> <s_m_source_file>
AV-unprocessed.smi

> <i_m_source_file_index>
2601

> <i_lp_mmshare_version>
43012

> <i_f3d_flags>
0

> <s_epik_input>
W0NIM11uMW5bY0hdW2NIXWMxW0NIMl1bQ0gyXVtOSF1DKD1PKU4oW0NIMl1DMihbQ0gzXSlbQ0gzXSlbQ0gyXUMoTzIpKFtDSDNdKVtDSDNd

> <s_epik_cmdline>
J2VwaWtfcHl0aG9uJywgJy1waCcsICc3LjAnLCAnLXRuJywgJzgnLCAnLW1hJywgJzIwMCcsICctbWV0YWxfYmluZGluZycsICctaW1hZScsICc8aW5maWxlLm1hZT4nLCAnLW9tYWUnLCAnPG91dGZpbGUubWFlPic=

> <r_lp_tautomer_probability>
1

> <r_epik_Ionization_Penalty>
0.00250606

> <r_epik_Ionization_Penalty_Charging>
0

> <r_epik_Ionization_Penalty_Neutral>
0.00250606

> <r_epik_State_Penalty>
0.0017149

> <r_epik_Charging_Adjusted_Penalty>
0.0017149

> <i_epik_Tot_Q>
0

> <i_epik_Tot_abs_Q>
0

> <r_epik_Metal_State_Penalty>
-0

> <b_epik_Metal_Only>
0

> <s_lp_Force_Field>
OPLS_2005

> <r_lp_Energy>
30.5553

> <b_lp_Chiralities_Consistent>
1

> <s_lp_Variant>
AV-unprocessed.smi:2601-1

> <Gold.Version>
5.8.1

> <Gold.Id.Protein>
6NUR|6NUR_protein|mol2

> <Gold.PLP.Fitness>
39.9371

> <Gold.PLP.PLP>
-37.2067

> <Gold.PLP.part.hbond>
-2.0000

> <Gold.PLP.part.metal>
0.0000

> <Gold.PLP.part.buried>
-0.9280

> <Gold.PLP.part.nonpolar>
-33.4581

> <Gold.PLP.part.repulsive>
0.1320

> <Gold.PLP.ligand.clash>
0.0000

> <Gold.PLP.ligand.torsion>
0.1252

> <Gold.PLP.Chemscore.Hbond>
0.9920

> <Gold.PLP.Chemscore.CHOScore>
0.0000

> <Gold.PLP.Chemscore.Metal>
0.0000

> <Gold.Chemscore.Hbonds>
donor molecule, donor type, donor heavy atom, donor atom, acceptor molecule, acceptor atom, score
      P1  H  7989  7998       L1    11  0.98

> <Gold.PLP.Chemscore.Internal.Correction>
0.0049

> <Gold.Rescore>
     Score         DG    S(hbond)    S(metal)    S(lipo)     H(rot)  DE(clash)    DE(int)     intcor
     14.74     -14.95       0.96        0.00      82.60       1.33       0.10       0.12       ----

> <Gold.Chemscore.Fitness>
14.7361

> <Gold.Chemscore.DG>
-14.9544

> <Gold.Chemscore.ZeroCoef>
-5.4800

> <Gold.Chemscore.Hbond>
0.9629

> <Gold.Chemscore.Metal>
0.0000

> <Gold.Chemscore.Lipo>
82.5977

> <Gold.Chemscore.Internal_Hbond>
0.0000

> <Gold.Chemscore.DEClash>
0.0996

> <Gold.Chemscore.DEInternal>
0.1187

> <Gold.Chemscore.Rot>
1.3303

> <Gold.Chemscore.Internal.Correction>
   9.000000E+99

> <Gold.Chemscore.Hbonds>
donor molecule, donor type, donor heavy atom, donor atom, acceptor molecule, acceptor atom, score
      P1  H  7989  7998       L1    11  0.77

> <Gold.Chemscore.Hbond.Weighted>
-3.2160

> <Gold.Chemscore.Metal.Weighted>
-0.0000

> <Gold.Chemscore.Lipo.Weighted>
-9.6639

> <Gold.Chemscore.Internal_Hbond.Weighted>
0.0000

> <Gold.Chemscore.DEClash.Weighted>
0.0996

> <Gold.Chemscore.DEInternal.Weighted>
0.1187

> <Gold.Chemscore.Rot.Weighted>
3.4055

> <Gold.Chemscore.Internal.Correction.Weighted>
   9.000000E+99

> <Gold.Protein.RotatedTorsions>
[ 6907 6896 6895 6894 ] final   49.31 input  -60.11 | X-H torsion
[ 7974 7965 7964 7962 ] final  165.35 input  175.53 | X-H torsion
[ 8008 7997 7996 7995 ] final  -41.66 input   59.86 | X-H torsion
[ 10167 10162 10161 10158 ] final -123.18 input  -65.29 | X-H torsion
[ 10718 10713 10712 10709 ] final   29.76 input   66.30 | X-H torsion
[ 10763 10752 10751 10750 ] final -179.51 input  -60.55 | X-H torsion
[ 11005 11000 10999 10996 ] final   15.62 input  -57.11 | X-H torsion

> <Gold.Protein.ActiveResidues>
 VAL166  LYS551  ARG553  GLY616  TRP617  ASP618  TYR619  PRO620  LYS621  CYS622 
 ASP623  PHE694  ASN695  SER759  ASP760  ASP761  ALA762  ILE779  LEU786  VAL792 
 PHE793  MET794  SER795  GLU796  ALA797  LYS798  CYS799  TRP800  GLU811  SER814 

> <Gold.Protein.RotatedAtoms>
  152.2893  134.7739  160.0380 H   0  0  0  0  0  0  0  0  0  0  0  0  # atno 6907 bound_to 6896
  151.8291  133.3400  159.3616 H   0  0  0  0  0  0  0  0  0  0  0  0  # atno 6908 bound_to 6896
  150.7223  134.5429  159.5800 H   0  0  0  0  0  0  0  0  0  0  0  0  # atno 6909 bound_to 6896
  144.7506  139.8457  143.6367 H   0  0  0  0  0  0  0  0  0  0  0  0  # atno 7974 bound_to 7965
  154.4003  140.1493  156.3228 H   0  0  0  0  0  0  0  0  0  0  0  0  # atno 8008 bound_to 7997
  155.8514  140.3457  155.5674 H   0  0  0  0  0  0  0  0  0  0  0  0  # atno 8009 bound_to 7997
  155.7980  140.0866  157.1963 H   0  0  0  0  0  0  0  0  0  0  0  0  # atno 8010 bound_to 7997
  140.0062  143.5489  152.2282 H   0  0  0  0  0  0  0  0  0  0  0  0  # atno 10167 bound_to 10162
  157.2507  130.7114  149.6404 H   0  0  0  0  0  0  0  0  0  0  0  0  # atno 10718 bound_to 10713
  154.5342  135.2802  155.1153 H   0  0  0  0  0  0  0  0  0  0  0  0  # atno 10763 bound_to 10752
  154.2662  135.6312  153.5296 H   0  0  0  0  0  0  0  0  0  0  0  0  # atno 10764 bound_to 10752
  152.9963  135.5617  154.5863 H   0  0  0  0  0  0  0  0  0  0  0  0  # atno 10765 bound_to 10752
  140.4563  134.1173  155.7709 H   0  0  0  0  0  0  0  0  0  0  0  0  # atno 11005 bound_to 11000
  146.1451  139.4518  143.0084 LP  0  0  0  0  0  0  0  0  0  0  0  0  # atno 17320 bound_to 7965
  145.6957  141.0151  143.1531 LP  0  0  0  0  0  0  0  0  0  0  0  0  # atno 17321 bound_to 7965
  139.6237  144.7633  151.2685 LP  0  0  0  0  0  0  0  0  0  0  0  0  # atno 17342 bound_to 10162
  140.7399  143.6603  150.8170 LP  0  0  0  0  0  0  0  0  0  0  0  0  # atno 17343 bound_to 10162
  155.9666  130.4428  150.5397 LP  0  0  0  0  0  0  0  0  0  0  0  0  # atno 17370 bound_to 10713
  157.3280  131.0694  151.1882 LP  0  0  0  0  0  0  0  0  0  0  0  0  # atno 17371 bound_to 10713
  141.1641  133.8736  157.1763 LP  0  0  0  0  0  0  0  0  0  0  0  0  # atno 17394 bound_to 11000
  139.9974  135.0041  157.0114 LP  0  0  0  0  0  0  0  0  0  0  0  0  # atno 17395 bound_to 11000

$$$$
