AV-unprocessed.smi:1499|AV-procd|sdf|6062|dock6
  -GOLD-   22720 6183D 1   1.00000     0.00000
 Structure written by MMmdl.
 40 41  0  0  0  0  0  0  0  0  1 V2000
  153.1139  138.7130  154.7150 C   0  0  0  0  0  0  0  0  0  0  0  0
  151.5934  138.4933  154.7059 C   0  0  0  0  0  0  0  0  0  0  0  0
  150.8517  139.7511  154.6299 N   0  0  0  0  0  0  0  0  0  0  0  0
  149.5038  139.4799  154.1197 C   0  0  0  0  0  0  0  0  0  0  0  0
  148.6955  140.7880  154.0141 C   0  0  0  0  0  0  0  0  0  0  0  0
  148.6138  141.4005  155.3483 N   0  0  0  0  0  0  0  0  0  0  0  0
  147.5169  141.4661  156.1439 C   0  0  0  0  0  0  0  0  0  0  0  0
  146.5685  140.6881  156.0339 O   0  0  0  0  0  0  0  0  0  0  0  0
  147.5871  142.4098  157.1022 N   0  0  0  0  0  0  0  0  0  0  0  0
  146.6060  142.7391  158.0719 C   0  0  0  0  0  0  0  0  0  0  0  0
  145.3797  142.0469  158.2484 C   0  0  0  0  0  0  0  0  0  0  0  0
  144.6667  142.5766  159.2307 N   0  0  0  0  0  0  0  0  0  0  0  0
  145.4188  143.6059  159.6957 N   0  0  0  0  0  0  0  0  0  0  0  0
  144.9295  144.4146  160.7976 C   0  0  0  0  0  0  0  0  0  0  0  0
  144.4888  143.5374  161.9706 C   0  0  0  0  0  0  0  0  0  0  0  0
  144.1114  144.1609  163.0898 N   0  0  0  0  0  0  0  0  0  0  0  0
  144.4881  142.3126  161.8667 O   0  0  0  0  0  0  0  0  0  0  0  0
  146.6111  143.7325  159.0097 C   0  0  0  0  0  0  0  0  0  0  0  0
  149.9608  141.7118  155.8356 C   0  0  0  0  0  0  0  0  0  0  0  0
  150.7693  140.4040  155.9427 C   0  0  0  0  0  0  0  0  0  0  0  0
  153.6356  137.7588  154.6403 H   0  0  0  0  0  0  0  0  0  0  0  0
  153.4556  139.1931  155.6317 H   0  0  0  0  0  0  0  0  0  0  0  0
  153.4297  139.3274  153.8711 H   0  0  0  0  0  0  0  0  0  0  0  0
  151.3509  137.8900  153.8300 H   0  0  0  0  0  0  0  0  0  0  0  0
  151.2815  137.9174  155.5785 H   0  0  0  0  0  0  0  0  0  0  0  0
  149.5733  139.0175  153.1342 H   0  0  0  0  0  0  0  0  0  0  0  0
  148.9900  138.7713  154.7718 H   0  0  0  0  0  0  0  0  0  0  0  0
  149.1880  141.4806  153.3295 H   0  0  0  0  0  0  0  0  0  0  0  0
  147.7257  140.5749  153.5651 H   0  0  0  0  0  0  0  0  0  0  0  0
  148.4318  142.9623  157.1267 H   0  0  0  0  0  0  0  0  0  0  0  0
  144.9905  141.1962  157.7083 H   0  0  0  0  0  0  0  0  0  0  0  0
  145.7262  145.0875  161.1180 H   0  0  0  0  0  0  0  0  0  0  0  0
  144.1014  145.0384  160.4567 H   0  0  0  0  0  0  0  0  0  0  0  0
  143.8188  143.6220  163.8925 H   0  0  0  0  0  0  0  0  0  0  0  0
  144.1265  145.1696  163.1311 H   0  0  0  0  0  0  0  0  0  0  0  0
  147.3318  144.4992  159.2530 H   0  0  0  0  0  0  0  0  0  0  0  0
  150.4467  142.4025  155.1444 H   0  0  0  0  0  0  0  0  0  0  0  0
  149.9511  142.2198  156.8009 H   0  0  0  0  0  0  0  0  0  0  0  0
  150.3064  139.7335  156.6687 H   0  0  0  0  0  0  0  0  0  0  0  0
  151.7673  140.6380  156.3115 H   0  0  0  0  0  0  0  0  0  0  0  0
  1  2  1  0  0  0  0
  1 21  1  0  0  0  0
  1 22  1  0  0  0  0
  1 23  1  0  0  0  0
  2  3  1  0  0  0  0
  2 24  1  0  0  0  0
  2 25  1  0  0  0  0
  3 20  1  0  0  0  0
  3  4  1  0  0  0  0
  4  5  1  0  0  0  0
  4 26  1  0  0  0  0
  4 27  1  0  0  0  0
  5  6  1  0  0  0  0
  5 28  1  0  0  0  0
  5 29  1  0  0  0  0
  6  7  1  0  0  0  0
  6 19  1  0  0  0  0
  7  8  2  0  0  0  0
  7  9  1  0  0  0  0
  9 10  1  0  0  0  0
  9 30  1  0  0  0  0
 10 18  2  0  0  0  0
 10 11  1  0  0  0  0
 11 12  2  0  0  0  0
 11 31  1  0  0  0  0
 12 13  1  0  0  0  0
 13 14  1  0  0  0  0
 13 18  1  0  0  0  0
 14 15  1  0  0  0  0
 14 32  1  0  0  0  0
 14 33  1  0  0  0  0
 15 16  1  0  0  0  0
 15 17  2  0  0  0  0
 16 34  1  0  0  0  0
 16 35  1  0  0  0  0
 18 36  1  0  0  0  0
 19 20  1  0  0  0  0
 19 37  1  0  0  0  0
 19 38  1  0  0  0  0
 20 39  1  0  0  0  0
 20 40  1  0  0  0  0
M  END
> <s_m_source_file>
AV-unprocessed.smi

> <i_m_source_file_index>
1499

> <i_lp_mmshare_version>
43012

> <i_f3d_flags>
0

> <s_epik_input>
W0NIM11bQ0gyXU4xW0NIMl1bQ0gyXU4oW0NIMl1bQ0gyXTEpQyg9TylbTkhdYzJbY0hdbm4oW2NIXTIpW0NIMl1DKD1PKVtOSDJd

> <s_epik_cmdline>
J2VwaWtfcHl0aG9uJywgJy1waCcsICc3LjAnLCAnLXRuJywgJzgnLCAnLW1hJywgJzIwMCcsICctbWV0YWxfYmluZGluZycsICctaW1hZScsICc8aW5maWxlLm1hZT4nLCAnLW9tYWUnLCAnPG91dGZpbGUubWFlPic=

> <r_lp_tautomer_probability>
1

> <r_epik_Ionization_Penalty>
0.431808

> <r_epik_Ionization_Penalty_Charging>
0

> <r_epik_Ionization_Penalty_Neutral>
0.431808

> <r_epik_State_Penalty>
0.433198

> <r_epik_Charging_Adjusted_Penalty>
0.433198

> <i_epik_Tot_Q>
0

> <i_epik_Tot_abs_Q>
0

> <r_epik_Metal_State_Penalty>
0.433196

> <b_epik_Metal_Only>
0

> <s_lp_Force_Field>
OPLS_2005

> <r_lp_Energy>
45.1289

> <b_lp_Chiralities_Consistent>
1

> <s_lp_Variant>
AV-unprocessed.smi:1499-2

> <Gold.Version>
5.8.1

> <Gold.Id.Protein>
6NUR|6NUR_protein|mol2

> <Gold.PLP.Fitness>
36.8601

> <Gold.PLP.PLP>
-32.8070

> <Gold.PLP.part.hbond>
-4.1456

> <Gold.PLP.part.metal>
0.0000

> <Gold.PLP.part.buried>
-2.2258

> <Gold.PLP.part.nonpolar>
-26.3993

> <Gold.PLP.part.repulsive>
0.3724

> <Gold.PLP.ligand.clash>
0.0000

> <Gold.PLP.ligand.torsion>
0.6289

> <Gold.PLP.Chemscore.Hbond>
1.1206

> <Gold.PLP.Chemscore.CHOScore>
0.6296

> <Gold.PLP.Chemscore.Metal>
0.0000

> <Gold.Chemscore.Hbonds>
donor molecule, donor type, donor heavy atom, donor atom, acceptor molecule, acceptor atom, score
      L1  H     9    30       P1  8028  0.13
      P1  H  7989  7998       L1     3  1.00
      L1  C    18    36       P1  8029  0.64

> <Gold.PLP.Chemscore.Internal.Correction>
0.0602

> <Gold.Rescore>
     Score         DG    S(hbond)    S(metal)    S(lipo)     H(rot)  DE(clash)    DE(int)     intcor
      3.62      -8.57       0.43        0.00      54.34       1.83       1.47       3.47       ----

> <Gold.Chemscore.Fitness>
3.6224

> <Gold.Chemscore.DG>
-8.5675

> <Gold.Chemscore.ZeroCoef>
-5.4800

> <Gold.Chemscore.Hbond>
0.4255

> <Gold.Chemscore.Metal>
0.0000

> <Gold.Chemscore.Lipo>
54.3374

> <Gold.Chemscore.Internal_Hbond>
0.0000

> <Gold.Chemscore.DEClash>
1.4713

> <Gold.Chemscore.DEInternal>
3.4738

> <Gold.Chemscore.Rot>
1.8325

> <Gold.Chemscore.Internal.Correction>
   9.000000E+99

> <Gold.Chemscore.Hbonds>
donor molecule, donor type, donor heavy atom, donor atom, acceptor molecule, acceptor atom, score
      L1  H     9    30       P1  8028  0.06
      P1  H  7989  7998       L1     3  0.31

> <Gold.Chemscore.Hbond.Weighted>
-1.4212

> <Gold.Chemscore.Metal.Weighted>
-0.0000

> <Gold.Chemscore.Lipo.Weighted>
-6.3575

> <Gold.Chemscore.Internal_Hbond.Weighted>
0.0000

> <Gold.Chemscore.DEClash.Weighted>
1.4713

> <Gold.Chemscore.DEInternal.Weighted>
3.4738

> <Gold.Chemscore.Rot.Weighted>
4.6912

> <Gold.Chemscore.Internal.Correction.Weighted>
   9.000000E+99

> <Gold.Protein.RotatedTorsions>
[ 6907 6896 6895 6894 ] final  -40.86 input  -60.11 | X-H torsion
[ 7974 7965 7964 7962 ] final   73.78 input  175.53 | X-H torsion
[ 8008 7997 7996 7995 ] final  146.47 input   59.86 | X-H torsion
[ 10167 10162 10161 10158 ] final  -59.92 input  -65.29 | X-H torsion
[ 10718 10713 10712 10709 ] final -154.03 input   66.30 | X-H torsion
[ 10763 10752 10751 10750 ] final -117.66 input  -60.55 | X-H torsion
[ 11005 11000 10999 10996 ] final   79.32 input  -57.11 | X-H torsion

> <Gold.Protein.ActiveResidues>
 VAL166  LYS551  ARG553  GLY616  TRP617  ASP618  TYR619  PRO620  LYS621  CYS622 
 ASP623  PHE694  ASN695  SER759  ASP760  ASP761  ALA762  ILE779  LEU786  VAL792 
 PHE793  MET794  SER795  GLU796  ALA797  LYS798  CYS799  TRP800  GLU811  SER814 

> <Gold.Protein.RotatedAtoms>
  150.9735  134.9104  159.7801 H   0  0  0  0  0  0  0  0  0  0  0  0  # atno 6907 bound_to 6896
  152.5198  134.3508  159.9260 H   0  0  0  0  0  0  0  0  0  0  0  0  # atno 6908 bound_to 6896
  151.3517  133.3882  159.2715 H   0  0  0  0  0  0  0  0  0  0  0  0  # atno 6909 bound_to 6896
  145.7366  139.2704  143.1510 H   0  0  0  0  0  0  0  0  0  0  0  0  # atno 7974 bound_to 7965
  156.2854  140.2181  156.5382 H   0  0  0  0  0  0  0  0  0  0  0  0  # atno 8008 bound_to 7997
  154.7391  140.0489  157.0817 H   0  0  0  0  0  0  0  0  0  0  0  0  # atno 8009 bound_to 7997
  155.0253  140.3129  155.4781 H   0  0  0  0  0  0  0  0  0  0  0  0  # atno 8010 bound_to 7997
  140.6104  143.2385  151.5722 H   0  0  0  0  0  0  0  0  0  0  0  0  # atno 10167 bound_to 10162
  156.4938  130.8360  151.2581 H   0  0  0  0  0  0  0  0  0  0  0  0  # atno 10718 bound_to 10713
  154.8562  135.4302  154.2015 H   0  0  0  0  0  0  0  0  0  0  0  0  # atno 10763 bound_to 10752
  153.3060  135.6972  153.7165 H   0  0  0  0  0  0  0  0  0  0  0  0  # atno 10764 bound_to 10752
  153.6276  135.3490  155.3005 H   0  0  0  0  0  0  0  0  0  0  0  0  # atno 10765 bound_to 10752
  139.9177  134.7833  156.1763 H   0  0  0  0  0  0  0  0  0  0  0  0  # atno 11005 bound_to 11000
  146.0487  140.8091  142.9792 LP  0  0  0  0  0  0  0  0  0  0  0  0  # atno 17320 bound_to 7965
  144.6880  140.3020  143.7262 LP  0  0  0  0  0  0  0  0  0  0  0  0  # atno 17321 bound_to 7965
  139.5357  144.2788  152.1246 LP  0  0  0  0  0  0  0  0  0  0  0  0  # atno 17342 bound_to 10162
  140.1986  144.4680  150.6442 LP  0  0  0  0  0  0  0  0  0  0  0  0  # atno 17343 bound_to 10162
  157.7471  131.0004  150.2926 LP  0  0  0  0  0  0  0  0  0  0  0  0  # atno 17370 bound_to 10713
  156.3400  130.3814  149.7417 LP  0  0  0  0  0  0  0  0  0  0  0  0  # atno 17371 bound_to 10713
  141.0669  133.6815  156.2063 LP  0  0  0  0  0  0  0  0  0  0  0  0  # atno 17394 bound_to 11000
  140.6570  134.5007  157.5581 LP  0  0  0  0  0  0  0  0  0  0  0  0  # atno 17395 bound_to 11000

$$$$
