AV-unprocessed.smi:3290|AV-procd|sdf|12615|dock2
  -GOLD-   2272018543D 1   1.00000     0.00000
 Structure written by MMmdl.
 43 44  0  0  0  0  0  0  0  0  2 V2000
  149.3222  141.6440  155.0899 C   0  0  0  0  0  0  0  0  0  0  0  0
  149.9000  140.2329  155.3014 C   0  0  2  0  0  0  0  0  0  0  0  0
  151.4059  140.3353  155.6248 C   0  0  0  0  0  0  0  0  0  0  0  0
  152.0294  138.9612  155.9027 C   0  0  0  0  0  0  0  0  0  0  0  0
  151.8002  138.0113  154.7224 C   0  0  0  0  0  0  0  0  0  0  0  0
  150.3047  137.8944  154.3975 C   0  0  0  0  0  0  0  0  0  0  0  0
  149.6590  139.2672  154.1031 C   0  0  1  0  0  0  0  0  0  0  0  0
  148.1655  139.0667  153.7589 C   0  0  0  0  0  0  0  0  0  0  0  0
  147.9651  138.6817  152.3474 N   0  3  0  0  0  0  0  0  0  0  0  0
  146.5611  138.3909  151.9951 C   0  0  0  0  0  0  0  0  0  0  0  0
  145.8852  137.5067  153.0573 C   0  0  1  0  0  0  0  0  0  0  0  0
  144.9378  138.2858  153.7616 O   0  0  0  0  0  0  0  0  0  0  0  0
  145.2470  136.2807  152.4241 C   0  0  0  0  0  0  0  0  0  0  0  0
  145.4074  136.0010  151.0496 C   0  0  0  0  0  0  0  0  0  0  0  0
  144.8015  134.8428  150.5224 C   0  0  0  0  0  0  0  0  0  0  0  0
  144.0739  133.9830  151.2666 N   0  0  0  0  0  0  0  0  0  0  0  0
  143.9240  134.2550  152.5805 C   0  0  0  0  0  0  0  0  0  0  0  0
  144.4884  135.3848  153.2063 C   0  0  0  0  0  0  0  0  0  0  0  0
  149.6880  142.0902  154.1646 H   0  0  0  0  0  0  0  0  0  0  0  0
  149.6018  142.3075  155.9090 H   0  0  0  0  0  0  0  0  0  0  0  0
  148.2331  141.6334  155.0573 H   0  0  0  0  0  0  0  0  0  0  0  0
  149.4068  139.8119  156.1789 H   0  0  0  0  0  0  0  0  0  0  0  0
  151.9307  140.8105  154.7946 H   0  0  0  0  0  0  0  0  0  0  0  0
  151.5594  140.9786  156.4921 H   0  0  0  0  0  0  0  0  0  0  0  0
  153.0977  139.0676  156.0934 H   0  0  0  0  0  0  0  0  0  0  0  0
  151.5935  138.5359  156.8075 H   0  0  0  0  0  0  0  0  0  0  0  0
  152.3403  138.3747  153.8472 H   0  0  0  0  0  0  0  0  0  0  0  0
  152.2095  137.0273  154.9528 H   0  0  0  0  0  0  0  0  0  0  0  0
  150.1808  137.2313  153.5405 H   0  0  0  0  0  0  0  0  0  0  0  0
  149.7894  137.4157  155.2316 H   0  0  0  0  0  0  0  0  0  0  0  0
  150.1614  139.6731  153.2232 H   0  0  0  0  0  0  0  0  0  0  0  0
  147.7439  138.2676  154.3705 H   0  0  0  0  0  0  0  0  0  0  0  0
  147.5976  139.9691  153.9890 H   0  0  0  0  0  0  0  0  0  0  0  0
  148.2924  139.4357  151.7604 H   0  0  0  0  0  0  0  0  0  0  0  0
  146.0123  139.3260  151.8708 H   0  0  0  0  0  0  0  0  0  0  0  0
  146.5469  137.8811  151.0306 H   0  0  0  0  0  0  0  0  0  0  0  0
  146.6337  137.1737  153.7781 H   0  0  0  0  0  0  0  0  0  0  0  0
  144.4103  138.7563  153.1335 H   0  0  0  0  0  0  0  0  0  0  0  0
  145.9826  136.6544  150.4102 H   0  0  0  0  0  0  0  0  0  0  0  0
  144.9065  134.6002  149.4753 H   0  0  0  0  0  0  0  0  0  0  0  0
  143.3383  133.5502  153.1521 H   0  0  0  0  0  0  0  0  0  0  0  0
  144.3397  135.5533  154.2629 H   0  0  0  0  0  0  0  0  0  0  0  0
  148.5191  137.8591  152.1543 H   0  0  0  0  0  0  0  0  0  0  0  0
  1  2  1  0  0  0  0
  1 19  1  0  0  0  0
  1 20  1  0  0  0  0
  1 21  1  0  0  0  0
  2  7  1  0  0  0  0
  2  3  1  0  0  0  0
  2 22  1  0  0  0  0
  3  4  1  0  0  0  0
  3 23  1  0  0  0  0
  3 24  1  0  0  0  0
  4  5  1  0  0  0  0
  4 25  1  0  0  0  0
  4 26  1  0  0  0  0
  5  6  1  0  0  0  0
  5 27  1  0  0  0  0
  5 28  1  0  0  0  0
  6  7  1  0  0  0  0
  6 29  1  0  0  0  0
  6 30  1  0  0  0  0
  7  8  1  0  0  0  0
  7 31  1  0  0  0  0
  8  9  1  0  0  0  0
  8 32  1  0  0  0  0
  8 33  1  0  0  0  0
  9 10  1  0  0  0  0
  9 34  1  0  0  0  0
  9 43  1  0  0  0  0
 10 11  1  0  0  0  0
 10 35  1  0  0  0  0
 10 36  1  0  0  0  0
 11 12  1  0  0  0  0
 11 13  1  0  0  0  0
 11 37  1  0  0  0  0
 12 38  1  0  0  0  0
 13 18  1  0  0  0  0
 13 14  2  0  0  0  0
 14 15  1  0  0  0  0
 14 39  1  0  0  0  0
 15 16  2  0  0  0  0
 15 40  1  0  0  0  0
 16 17  1  0  0  0  0
 17 18  2  0  0  0  0
 17 41  1  0  0  0  0
 18 42  1  0  0  0  0
M  CHG  1   9   1
M  END
> <s_m_source_file>
AV-unprocessed.smi

> <i_m_source_file_index>
3290

> <i_lp_mmshare_version>
43012

> <i_f3d_flags>
0

> <s_epik_input>
W0NIM11bQ0BASF0xW0NIMl1bQ0gyXVtDSDJdW0NIMl1bQ0BIXTFbQ0gyXVtOSF1bQ0gyXVtDQEhdKFtPSF0pYzJbY0hdW2NIXW5bY0hdW2NIXTI=

> <s_epik_cmdline>
J2VwaWtfcHl0aG9uJywgJy1waCcsICc3LjAnLCAnLXRuJywgJzgnLCAnLW1hJywgJzIwMCcsICctbWV0YWxfYmluZGluZycsICctaW1hZScsICc8aW5maWxlLm1hZT4nLCAnLW9tYWUnLCAnPG91dGZpbGUubWFlPic=

> <r_lp_tautomer_probability>
1

> <r_epik_Ionization_Penalty>
0.00420552

> <r_epik_Ionization_Penalty_Charging>
0.00207255

> <r_epik_Ionization_Penalty_Neutral>
0.00213297

> <r_epik_State_Penalty>
-0

> <r_epik_Charging_Adjusted_Penalty>
0.00207255

> <i_epik_Tot_Q>
1

> <i_epik_Tot_abs_Q>
1

> <r_epik_Metal_State_Penalty>
-0

> <b_epik_Metal_Only>
0

> <s_lp_Force_Field>
OPLS_2005

> <r_lp_Energy>
17.7323

> <b_lp_Chiralities_Consistent>
1

> <s_lp_Variant>
AV-unprocessed.smi:3290-5

> <Gold.Version>
5.8.1

> <Gold.Id.Protein>
6NUR|6NUR_protein|mol2

> <Gold.PLP.Fitness>
51.2057

> <Gold.PLP.PLP>
-35.6564

> <Gold.PLP.part.hbond>
-2.6104

> <Gold.PLP.part.metal>
0.0000

> <Gold.PLP.part.buried>
1.1672

> <Gold.PLP.part.nonpolar>
-33.9324

> <Gold.PLP.part.repulsive>
0.2452

> <Gold.PLP.ligand.clash>
0.0000

> <Gold.PLP.ligand.torsion>
1.0874

> <Gold.PLP.Chemscore.Hbond>
3.8723

> <Gold.PLP.Chemscore.CHOScore>
2.0000

> <Gold.PLP.Chemscore.Metal>
0.0000

> <Gold.Chemscore.Hbonds>
donor molecule, donor type, donor heavy atom, donor atom, acceptor molecule, acceptor atom, score
      L1  H     9    34       P1  7957  0.85
      L1  H     9    43       P1  7948  2.00
      L1  H    12    38       P1 10175  1.00
      L1  C    15    40       P1  7921  1.00
      L1  C    17    41       P1 10957  1.00

> <Gold.PLP.Chemscore.Internal.Correction>
0.1072

> <Gold.Rescore>
     Score         DG    S(hbond)    S(metal)    S(lipo)     H(rot)  DE(clash)    DE(int)     intcor
     19.33     -20.50       2.83        0.00      92.33       2.05       0.08       1.09       ----

> <Gold.Chemscore.Fitness>
19.3288

> <Gold.Chemscore.DG>
-20.5012

> <Gold.Chemscore.ZeroCoef>
-5.4800

> <Gold.Chemscore.Hbond>
2.8341

> <Gold.Chemscore.Metal>
0.0000

> <Gold.Chemscore.Lipo>
92.3307

> <Gold.Chemscore.Internal_Hbond>
0.0000

> <Gold.Chemscore.DEClash>
0.0825

> <Gold.Chemscore.DEInternal>
1.0899

> <Gold.Chemscore.Rot>
2.0498

> <Gold.Chemscore.Internal.Correction>
   9.000000E+99

> <Gold.Chemscore.Hbonds>
donor molecule, donor type, donor heavy atom, donor atom, acceptor molecule, acceptor atom, score
      L1  H     9    34       P1  7957  0.78
      L1  H     9    43       P1  7948  1.00
      L1  H    12    38       P1 10175  0.93

> <Gold.Chemscore.Hbond.Weighted>
-9.4660

> <Gold.Chemscore.Metal.Weighted>
-0.0000

> <Gold.Chemscore.Lipo.Weighted>
-10.8027

> <Gold.Chemscore.Internal_Hbond.Weighted>
0.0000

> <Gold.Chemscore.DEClash.Weighted>
0.0825

> <Gold.Chemscore.DEInternal.Weighted>
1.0899

> <Gold.Chemscore.Rot.Weighted>
5.2475

> <Gold.Chemscore.Internal.Correction.Weighted>
   9.000000E+99

> <Gold.Protein.RotatedTorsions>
[ 6907 6896 6895 6894 ] final  -17.41 input  -60.11 | X-H torsion
[ 7974 7965 7964 7962 ] final   78.33 input  175.53 | X-H torsion
[ 8008 7997 7996 7995 ] final   87.96 input   59.86 | X-H torsion
[ 10167 10162 10161 10158 ] final   37.67 input  -65.29 | X-H torsion
[ 10718 10713 10712 10709 ] final  -98.42 input   66.30 | X-H torsion
[ 10763 10752 10751 10750 ] final   83.00 input  -60.55 | X-H torsion
[ 11005 11000 10999 10996 ] final -147.21 input  -57.11 | X-H torsion

> <Gold.Protein.ActiveResidues>
 VAL166  LYS551  ARG553  GLY616  TRP617  ASP618  TYR619  PRO620  LYS621  CYS622 
 ASP623  PHE694  ASN695  SER759  ASP760  ASP761  ALA762  ILE779  LEU786  VAL792 
 PHE793  MET794  SER795  GLU796  ALA797  LYS798  CYS799  TRP800  GLU811  SER814 

> <Gold.Protein.RotatedAtoms>
  151.2938  135.0749  159.9213 H   0  0  0  0  0  0  0  0  0  0  0  0  # atno 6907 bound_to 6896
  152.5311  133.9905  159.7858 H   0  0  0  0  0  0  0  0  0  0  0  0  # atno 6908 bound_to 6896
  151.0179  133.5853  159.2705 H   0  0  0  0  0  0  0  0  0  0  0  0  # atno 6909 bound_to 6896
  145.6785  139.2517  143.1828 H   0  0  0  0  0  0  0  0  0  0  0  0  # atno 7974 bound_to 7965
  155.9819  140.3376  155.6671 H   0  0  0  0  0  0  0  0  0  0  0  0  # atno 8008 bound_to 7997
  155.6537  140.0708  157.2596 H   0  0  0  0  0  0  0  0  0  0  0  0  # atno 8009 bound_to 7997
  154.4194  140.1721  156.1690 H   0  0  0  0  0  0  0  0  0  0  0  0  # atno 8010 bound_to 7997
  140.4010  144.1724  150.6134 H   0  0  0  0  0  0  0  0  0  0  0  0  # atno 10167 bound_to 10162
  156.0107  130.5237  150.6520 H   0  0  0  0  0  0  0  0  0  0  0  0  # atno 10718 bound_to 10713
  153.1252  135.4707  154.9261 H   0  0  0  0  0  0  0  0  0  0  0  0  # atno 10763 bound_to 10752
  154.7613  135.3132  154.8374 H   0  0  0  0  0  0  0  0  0  0  0  0  # atno 10764 bound_to 10752
  153.8929  135.6883  153.4813 H   0  0  0  0  0  0  0  0  0  0  0  0  # atno 10765 bound_to 10752
  140.7740  134.3156  157.5066 H   0  0  0  0  0  0  0  0  0  0  0  0  # atno 11005 bound_to 11000
  146.0985  140.7572  142.9561 LP  0  0  0  0  0  0  0  0  0  0  0  0  # atno 17320 bound_to 7965
  144.7034  140.3749  143.7138 LP  0  0  0  0  0  0  0  0  0  0  0  0  # atno 17321 bound_to 7965
  140.4740  143.2403  151.9049 LP  0  0  0  0  0  0  0  0  0  0  0  0  # atno 17342 bound_to 10162
  139.4785  144.5340  151.8625 LP  0  0  0  0  0  0  0  0  0  0  0  0  # atno 17343 bound_to 10162
  157.4280  131.0845  151.1067 LP  0  0  0  0  0  0  0  0  0  0  0  0  # atno 17370 bound_to 10713
  157.1648  130.6241  149.5622 LP  0  0  0  0  0  0  0  0  0  0  0  0  # atno 17371 bound_to 10713
  139.8751  134.9278  156.3435 LP  0  0  0  0  0  0  0  0  0  0  0  0  # atno 17394 bound_to 11000
  140.9546  133.7428  156.0318 LP  0  0  0  0  0  0  0  0  0  0  0  0  # atno 17395 bound_to 11000

$$$$
