AV-unprocessed.smi:894|AV-procd|sdf|4072|dock3
  -GOLD-   22720 1553D 1   1.00000     0.00000
 Structure written by MMmdl.
 30 31  0  0  0  0  0  0  0  0  1 V2000
  147.1536  140.8867  153.4505 C   0  0  0  0  0  0  0  0  0  0  0  0
  148.5240  140.4045  153.5254 N   0  0  0  0  0  0  0  0  0  0  0  0
  149.2637  140.4031  154.6445 C   0  0  0  0  0  0  0  0  0  0  0  0
  148.8471  140.8065  155.7304 O   0  0  0  0  0  0  0  0  0  0  0  0
  150.6883  139.8575  154.5257 C   0  0  0  0  0  0  0  0  0  0  0  0
  151.4301  140.0241  155.8136 C   0  0  0  0  0  0  0  0  0  0  0  0
  152.4147  139.1998  156.1539 N   0  0  0  0  0  0  0  0  0  0  0  0
  152.8254  139.6835  157.4041 O   0  0  0  0  0  0  0  0  0  0  0  0
  152.0396  140.7562  157.6619 C   0  0  0  0  0  0  0  0  0  0  0  0
  152.1983  141.4694  158.9634 C   0  0  0  0  0  0  0  0  0  0  0  0
  152.6442  142.9170  158.7849 C   0  0  0  0  0  0  0  0  0  0  0  0
  152.4995  143.9101  159.9497 C   0  0  0  0  0  0  0  0  0  0  0  0
  152.1930  145.0015  158.9214 C   0  0  0  0  0  0  0  0  0  0  0  0
  151.7785  143.8832  157.9616 C   0  0  0  0  0  0  0  0  0  0  0  0
  151.1379  141.0030  156.7148 N   0  0  0  0  0  0  0  0  0  0  0  0
  146.7832  140.7982  152.4294 H   0  0  0  0  0  0  0  0  0  0  0  0
  147.0943  141.9353  153.7449 H   0  0  0  0  0  0  0  0  0  0  0  0
  146.5012  140.3043  154.1027 H   0  0  0  0  0  0  0  0  0  0  0  0
  148.9398  140.0575  152.6729 H   0  0  0  0  0  0  0  0  0  0  0  0
  150.6568  138.8006  154.2578 H   0  0  0  0  0  0  0  0  0  0  0  0
  151.2178  140.3715  153.7221 H   0  0  0  0  0  0  0  0  0  0  0  0
  151.2498  141.4282  159.4997 H   0  0  0  0  0  0  0  0  0  0  0  0
  152.9179  140.9200  159.5717 H   0  0  0  0  0  0  0  0  0  0  0  0
  153.6713  142.9621  158.4157 H   0  0  0  0  0  0  0  0  0  0  0  0
  151.6473  143.6876  160.5942 H   0  0  0  0  0  0  0  0  0  0  0  0
  153.4094  144.0691  160.5292 H   0  0  0  0  0  0  0  0  0  0  0  0
  151.3911  145.6844  159.2028 H   0  0  0  0  0  0  0  0  0  0  0  0
  153.0861  145.5348  158.5915 H   0  0  0  0  0  0  0  0  0  0  0  0
  152.1046  144.0223  156.9305 H   0  0  0  0  0  0  0  0  0  0  0  0
  150.7130  143.6539  158.0186 H   0  0  0  0  0  0  0  0  0  0  0  0
  1  2  1  0  0  0  0
  1 16  1  0  0  0  0
  1 17  1  0  0  0  0
  1 18  1  0  0  0  0
  2  3  1  0  0  0  0
  2 19  1  0  0  0  0
  3  4  2  0  0  0  0
  3  5  1  0  0  0  0
  5  6  1  0  0  0  0
  5 20  1  0  0  0  0
  5 21  1  0  0  0  0
  6 15  1  0  0  0  0
  6  7  2  0  0  0  0
  7  8  1  0  0  0  0
  8  9  1  0  0  0  0
  9 10  1  0  0  0  0
  9 15  2  0  0  0  0
 10 11  1  0  0  0  0
 10 22  1  0  0  0  0
 10 23  1  0  0  0  0
 11 14  1  0  0  0  0
 11 12  1  0  0  0  0
 11 24  1  0  0  0  0
 12 13  1  0  0  0  0
 12 25  1  0  0  0  0
 12 26  1  0  0  0  0
 13 14  1  0  0  0  0
 13 27  1  0  0  0  0
 13 28  1  0  0  0  0
 14 29  1  0  0  0  0
 14 30  1  0  0  0  0
M  END
> <s_m_source_file>
AV-unprocessed.smi

> <i_m_source_file_index>
894

> <i_lp_mmshare_version>
43012

> <i_f3d_flags>
0

> <s_epik_input>
W0NIM11bTkhdQyg9TylbQ0gyXWMxbm9jKG4xKVtDSDJdW0NIXTJbQ0gyXVtDSDJdW0NIMl0y

> <s_epik_cmdline>
J2VwaWtfcHl0aG9uJywgJy1waCcsICc3LjAnLCAnLXRuJywgJzgnLCAnLW1hJywgJzIwMCcsICctbWV0YWxfYmluZGluZycsICctaW1hZScsICc8aW5maWxlLm1hZT4nLCAnLW9tYWUnLCAnPG91dGZpbGUubWFlPic=

> <r_lp_tautomer_probability>
1

> <r_epik_Ionization_Penalty>
1.02915e-07

> <r_epik_Ionization_Penalty_Charging>
0

> <r_epik_Ionization_Penalty_Neutral>
1.02915e-07

> <r_epik_State_Penalty>
-0

> <r_epik_Charging_Adjusted_Penalty>
0

> <i_epik_Tot_Q>
0

> <i_epik_Tot_abs_Q>
0

> <r_epik_Metal_State_Penalty>
-0

> <b_epik_Metal_Only>
0

> <s_lp_Force_Field>
OPLS_2005

> <r_lp_Energy>
11.0858

> <b_lp_Chiralities_Consistent>
1

> <s_lp_Variant>
AV-unprocessed.smi:894-1

> <Gold.Version>
5.8.1

> <Gold.Id.Protein>
6NUR|6NUR_protein|mol2

> <Gold.PLP.Fitness>
38.3877

> <Gold.PLP.PLP>
-33.4231

> <Gold.PLP.part.hbond>
-2.5725

> <Gold.PLP.part.metal>
0.0000

> <Gold.PLP.part.buried>
-2.1189

> <Gold.PLP.part.nonpolar>
-29.7402

> <Gold.PLP.part.repulsive>
0.2455

> <Gold.PLP.ligand.clash>
0.0000

> <Gold.PLP.ligand.torsion>
0.4828

> <Gold.PLP.Chemscore.Hbond>
1.9500

> <Gold.PLP.Chemscore.CHOScore>
0.0000

> <Gold.PLP.Chemscore.Metal>
0.0000

> <Gold.Chemscore.Hbonds>
donor molecule, donor type, donor heavy atom, donor atom, acceptor molecule, acceptor atom, score
      L1  H     2    19       P1  7957  1.00
      P1  H  7997  8009       L1     8  0.95

> <Gold.PLP.Chemscore.Internal.Correction>
0.0803

> <Gold.Rescore>
     Score         DG    S(hbond)    S(metal)    S(lipo)     H(rot)  DE(clash)    DE(int)     intcor
     11.48     -14.92       1.57        0.00      77.18       1.90       1.35       2.08       ----

> <Gold.Chemscore.Fitness>
11.4829

> <Gold.Chemscore.DG>
-14.9153

> <Gold.Chemscore.ZeroCoef>
-5.4800

> <Gold.Chemscore.Hbond>
1.5749

> <Gold.Chemscore.Metal>
0.0000

> <Gold.Chemscore.Lipo>
77.1769

> <Gold.Chemscore.Internal_Hbond>
0.0000

> <Gold.Chemscore.DEClash>
1.3479

> <Gold.Chemscore.DEInternal>
2.0845

> <Gold.Chemscore.Rot>
1.8963

> <Gold.Chemscore.Internal.Correction>
   9.000000E+99

> <Gold.Chemscore.Hbonds>
donor molecule, donor type, donor heavy atom, donor atom, acceptor molecule, acceptor atom, score
      L1  H     2    19       P1  7957  0.99
      P1  H  7997  8009       L1     8  0.19

> <Gold.Chemscore.Hbond.Weighted>
-5.2602

> <Gold.Chemscore.Metal.Weighted>
-0.0000

> <Gold.Chemscore.Lipo.Weighted>
-9.0297

> <Gold.Chemscore.Internal_Hbond.Weighted>
0.0000

> <Gold.Chemscore.DEClash.Weighted>
1.3479

> <Gold.Chemscore.DEInternal.Weighted>
2.0845

> <Gold.Chemscore.Rot.Weighted>
4.8546

> <Gold.Chemscore.Internal.Correction.Weighted>
   9.000000E+99

> <Gold.Protein.RotatedTorsions>
[ 6907 6896 6895 6894 ] final  -40.56 input  -60.11 | X-H torsion
[ 7974 7965 7964 7962 ] final  164.69 input  175.53 | X-H torsion
[ 8008 7997 7996 7995 ] final  154.88 input   59.86 | X-H torsion
[ 10167 10162 10161 10158 ] final  114.91 input  -65.29 | X-H torsion
[ 10718 10713 10712 10709 ] final -166.23 input   66.30 | X-H torsion
[ 10763 10752 10751 10750 ] final   57.84 input  -60.55 | X-H torsion
[ 11005 11000 10999 10996 ] final   45.58 input  -57.11 | X-H torsion

> <Gold.Protein.ActiveResidues>
 VAL166  LYS551  ARG553  GLY616  TRP617  ASP618  TYR619  PRO620  LYS621  CYS622 
 ASP623  PHE694  ASN695  SER759  ASP760  ASP761  ALA762  ILE779  LEU786  VAL792 
 PHE793  MET794  SER795  GLU796  ALA797  LYS798  CYS799  TRP800  GLU811  SER814 

> <Gold.Protein.RotatedAtoms>
  150.9770  134.9133  159.7821 H   0  0  0  0  0  0  0  0  0  0  0  0  # atno 6907 bound_to 6896
  152.5209  134.3462  159.9245 H   0  0  0  0  0  0  0  0  0  0  0  0  # atno 6908 bound_to 6896
  151.3470  133.3899  159.2711 H   0  0  0  0  0  0  0  0  0  0  0  0  # atno 6909 bound_to 6896
  144.7534  139.8363  143.6358 H   0  0  0  0  0  0  0  0  0  0  0  0  # atno 7974 bound_to 7965
  156.2508  140.1954  156.6715 H   0  0  0  0  0  0  0  0  0  0  0  0  # atno 8008 bound_to 7997
  154.6389  140.0586  156.9848 H   0  0  0  0  0  0  0  0  0  0  0  0  # atno 8009 bound_to 7997
  155.1594  140.3258  155.4417 H   0  0  0  0  0  0  0  0  0  0  0  0  # atno 8010 bound_to 7997
  139.6354  144.7119  151.2345 H   0  0  0  0  0  0  0  0  0  0  0  0  # atno 10167 bound_to 10162
  156.6649  130.9060  151.3035 H   0  0  0  0  0  0  0  0  0  0  0  0  # atno 10718 bound_to 10713
  152.9858  135.5627  154.5456 H   0  0  0  0  0  0  0  0  0  0  0  0  # atno 10763 bound_to 10752
  154.4902  135.2792  155.1504 H   0  0  0  0  0  0  0  0  0  0  0  0  # atno 10764 bound_to 10752
  154.2977  135.6313  153.5464 H   0  0  0  0  0  0  0  0  0  0  0  0  # atno 10765 bound_to 10752
  140.1447  134.4538  155.8424 H   0  0  0  0  0  0  0  0  0  0  0  0  # atno 11005 bound_to 11000
  146.1514  139.4598  143.0046 LP  0  0  0  0  0  0  0  0  0  0  0  0  # atno 17320 bound_to 7965
  145.6864  141.0177  143.1579 LP  0  0  0  0  0  0  0  0  0  0  0  0  # atno 17321 bound_to 7965
  140.7462  143.6405  150.8339 LP  0  0  0  0  0  0  0  0  0  0  0  0  # atno 17342 bound_to 10162
  140.0035  143.5718  152.2866 LP  0  0  0  0  0  0  0  0  0  0  0  0  # atno 17343 bound_to 10162
  157.7097  130.9426  150.1048 LP  0  0  0  0  0  0  0  0  0  0  0  0  # atno 17370 bound_to 10713
  156.1983  130.3658  149.8821 LP  0  0  0  0  0  0  0  0  0  0  0  0  # atno 17371 bound_to 10713
  141.2191  133.6847  156.7311 LP  0  0  0  0  0  0  0  0  0  0  0  0  # atno 17394 bound_to 11000
  140.2679  134.8415  157.3819 LP  0  0  0  0  0  0  0  0  0  0  0  0  # atno 17395 bound_to 11000

$$$$
