AV-unprocessed.smi:856|AV-procd|sdf|3960|dock4
  -GOLD-   22720 1433D 1   1.00000     0.00000
 Structure written by MMmdl.
 42 44  0  0  0  0  0  0  0  0  1 V2000
  154.9294  139.8812  160.9940 C   0  0  0  0  0  0  0  0  0  0  0  0
  153.9167  140.8263  160.4868 N   0  0  0  0  0  0  0  0  0  0  0  0
  153.3690  140.5882  159.2535 C   0  0  0  0  0  0  0  0  0  0  0  0
  153.6703  139.6464  158.5192 O   0  0  0  0  0  0  0  0  0  0  0  0
  152.3607  141.5749  158.8519 C   0  0  0  0  0  0  0  0  0  0  0  0
  152.0220  142.6370  159.6219 C   0  0  0  0  0  0  0  0  0  0  0  0
  151.0524  143.4208  159.0067 N   0  0  0  0  0  0  0  0  0  0  0  0
  150.8512  142.7662  157.8622 C   0  0  0  0  0  0  0  0  0  0  0  0
  151.5911  141.6518  157.6912 N   0  0  0  0  0  0  0  0  0  0  0  0
  151.5554  140.7661  156.5374 C   0  0  0  0  0  0  0  0  0  0  0  0
  150.2537  140.9051  155.7205 C   0  0  1  0  0  0  0  0  0  0  0  0
  150.2388  140.0559  154.5902 O   0  0  0  0  0  0  0  0  0  0  0  0
  148.9835  140.6480  156.5460 C   0  0  0  0  0  0  0  0  0  0  0  0
  149.0736  139.3770  157.1681 O   0  0  0  0  0  0  0  0  0  0  0  0
  147.8088  138.8019  157.4513 C   0  0  0  0  0  0  0  0  0  0  0  0
  148.0231  137.6855  158.4242 C   0  0  0  0  0  0  0  0  0  0  0  0
  148.8265  136.5788  158.4074 C   0  0  0  0  0  0  0  0  0  0  0  0
  148.5932  135.8910  159.6304 C   0  0  0  0  0  0  0  0  0  0  0  0
  147.6637  136.6288  160.3059 C   0  0  0  0  0  0  0  0  0  0  0  0
  147.3059  137.7258  159.5855 O   0  0  0  0  0  0  0  0  0  0  0  0
  152.6608  142.7993  160.8764 N   0  0  0  0  0  0  0  0  0  0  0  0
  152.2725  143.9629  161.6793 C   0  0  0  0  0  0  0  0  0  0  0  0
  153.6005  141.8949  161.3093 C   0  0  0  0  0  0  0  0  0  0  0  0
  154.1494  142.0334  162.4059 O   0  0  0  0  0  0  0  0  0  0  0  0
  155.1405  139.0370  160.3367 H   0  0  0  0  0  0  0  0  0  0  0  0
  154.6098  139.4553  161.9467 H   0  0  0  0  0  0  0  0  0  0  0  0
  155.8790  140.3929  161.1576 H   0  0  0  0  0  0  0  0  0  0  0  0
  150.1411  143.1086  157.1236 H   0  0  0  0  0  0  0  0  0  0  0  0
  152.4348  140.9480  155.9214 H   0  0  0  0  0  0  0  0  0  0  0  0
  151.6538  139.7402  156.8944 H   0  0  0  0  0  0  0  0  0  0  0  0
  150.2013  141.9227  155.3313 H   0  0  0  0  0  0  0  0  0  0  0  0
  149.3832  139.6581  154.5289 H   0  0  0  0  0  0  0  0  0  0  0  0
  148.8889  141.4151  157.3161 H   0  0  0  0  0  0  0  0  0  0  0  0
  148.0941  140.7107  155.9164 H   0  0  0  0  0  0  0  0  0  0  0  0
  147.1376  139.5491  157.8771 H   0  0  0  0  0  0  0  0  0  0  0  0
  147.3515  138.4177  156.5385 H   0  0  0  0  0  0  0  0  0  0  0  0
  149.5011  136.2991  157.6117 H   0  0  0  0  0  0  0  0  0  0  0  0
  149.0479  134.9734  159.9732 H   0  0  0  0  0  0  0  0  0  0  0  0
  147.1718  136.5246  161.2618 H   0  0  0  0  0  0  0  0  0  0  0  0
  152.7794  144.0374  162.6418 H   0  0  0  0  0  0  0  0  0  0  0  0
  151.2009  143.9355  161.8802 H   0  0  0  0  0  0  0  0  0  0  0  0
  152.4857  144.8803  161.1295 H   0  0  0  0  0  0  0  0  0  0  0  0
  1  2  1  0  0  0  0
  1 25  1  0  0  0  0
  1 26  1  0  0  0  0
  1 27  1  0  0  0  0
  2 23  1  0  0  0  0
  2  3  1  0  0  0  0
  3  4  2  0  0  0  0
  3  5  1  0  0  0  0
  5  9  1  0  0  0  0
  5  6  2  0  0  0  0
  6  7  1  0  0  0  0
  6 21  1  0  0  0  0
  7  8  2  0  0  0  0
  8  9  1  0  0  0  0
  8 28  1  0  0  0  0
  9 10  1  0  0  0  0
 10 11  1  0  0  0  0
 10 29  1  0  0  0  0
 10 30  1  0  0  0  0
 11 12  1  0  0  0  0
 11 13  1  0  0  0  0
 11 31  1  0  0  0  0
 12 32  1  0  0  0  0
 13 14  1  0  0  0  0
 13 33  1  0  0  0  0
 13 34  1  0  0  0  0
 14 15  1  0  0  0  0
 15 16  1  0  0  0  0
 15 35  1  0  0  0  0
 15 36  1  0  0  0  0
 16 20  1  0  0  0  0
 16 17  2  0  0  0  0
 17 18  1  0  0  0  0
 17 37  1  0  0  0  0
 18 19  2  0  0  0  0
 18 38  1  0  0  0  0
 19 20  1  0  0  0  0
 19 39  1  0  0  0  0
 21 22  1  0  0  0  0
 21 23  1  0  0  0  0
 22 40  1  0  0  0  0
 22 41  1  0  0  0  0
 22 42  1  0  0  0  0
 23 24  2  0  0  0  0
M  END
> <s_m_source_file>
AV-unprocessed.smi

> <i_m_source_file_index>
856

> <i_lp_mmshare_version>
43012

> <i_f3d_flags>
0

> <s_epik_input>
Tz1jMW4oW0NIM10pYyg9TyluKFtDSDNdKWMoYzEyKW5bY0hdbjJbQ0gyXVtDQEhdKFtPSF0pW0NIMl1PW0NIMl1jM1tjSF1bY0hdW2NIXW8z

> <s_epik_cmdline>
J2VwaWtfcHl0aG9uJywgJy1waCcsICc3LjAnLCAnLXRuJywgJzgnLCAnLW1hJywgJzIwMCcsICctbWV0YWxfYmluZGluZycsICctaW1hZScsICc8aW5maWxlLm1hZT4nLCAnLW9tYWUnLCAnPG91dGZpbGUubWFlPic=

> <r_lp_tautomer_probability>
1

> <r_epik_Ionization_Penalty>
1.33189e-06

> <r_epik_Ionization_Penalty_Charging>
3.64616e-09

> <r_epik_Ionization_Penalty_Neutral>
1.32824e-06

> <r_epik_State_Penalty>
-0

> <r_epik_Charging_Adjusted_Penalty>
3.64616e-09

> <i_epik_Tot_Q>
0

> <i_epik_Tot_abs_Q>
0

> <r_epik_Metal_State_Penalty>
-0

> <b_epik_Metal_Only>
0

> <s_lp_Force_Field>
OPLS_2005

> <r_lp_Energy>
33.5774

> <b_lp_Chiralities_Consistent>
1

> <s_lp_Variant>
AV-unprocessed.smi:856-2

> <Gold.Version>
5.8.1

> <Gold.Id.Protein>
6NUR|6NUR_protein|mol2

> <Gold.PLP.Fitness>
54.7703

> <Gold.PLP.PLP>
-44.5216

> <Gold.PLP.part.hbond>
-4.0000

> <Gold.PLP.part.metal>
0.0000

> <Gold.PLP.part.buried>
-6.3980

> <Gold.PLP.part.nonpolar>
-34.5203

> <Gold.PLP.part.repulsive>
0.0839

> <Gold.PLP.ligand.clash>
0.0000

> <Gold.PLP.ligand.torsion>
0.5573

> <Gold.PLP.Chemscore.Hbond>
2.7520

> <Gold.PLP.Chemscore.CHOScore>
1.0000

> <Gold.PLP.Chemscore.Metal>
0.0000

> <Gold.Chemscore.Hbonds>
donor molecule, donor type, donor heavy atom, donor atom, acceptor molecule, acceptor atom, score
      P1  H  6934  6947       L1    20  0.75
      P1  H  7989  7998       L1    12  1.00
      P1  H  7997  8010       L1     4  1.00
      L1  C     8    28       P1  8028  1.00

> <Gold.PLP.Chemscore.Internal.Correction>
0.1074

> <Gold.Rescore>
     Score         DG    S(hbond)    S(metal)    S(lipo)     H(rot)  DE(clash)    DE(int)     intcor
     11.67     -12.21       2.35        0.00      59.59       3.16       0.09       0.45       ----

> <Gold.Chemscore.Fitness>
11.6729

> <Gold.Chemscore.DG>
-12.2121

> <Gold.Chemscore.ZeroCoef>
-5.4800

> <Gold.Chemscore.Hbond>
2.3502

> <Gold.Chemscore.Metal>
0.0000

> <Gold.Chemscore.Lipo>
59.5870

> <Gold.Chemscore.Internal_Hbond>
0.0000

> <Gold.Chemscore.DEClash>
0.0865

> <Gold.Chemscore.DEInternal>
0.4528

> <Gold.Chemscore.Rot>
3.1599

> <Gold.Chemscore.Internal.Correction>
   9.000000E+99

> <Gold.Chemscore.Hbonds>
donor molecule, donor type, donor heavy atom, donor atom, acceptor molecule, acceptor atom, score
      P1  H  6934  6947       L1    20  0.30
      P1  H  7989  7998       L1    12  0.29
      P1  H  7997  8010       L1     4  0.87

> <Gold.Chemscore.Hbond.Weighted>
-7.8497

> <Gold.Chemscore.Metal.Weighted>
-0.0000

> <Gold.Chemscore.Lipo.Weighted>
-6.9717

> <Gold.Chemscore.Internal_Hbond.Weighted>
0.0000

> <Gold.Chemscore.DEClash.Weighted>
0.0865

> <Gold.Chemscore.DEInternal.Weighted>
0.4528

> <Gold.Chemscore.Rot.Weighted>
8.0893

> <Gold.Chemscore.Internal.Correction.Weighted>
   9.000000E+99

> <Gold.Protein.RotatedTorsions>
[ 6907 6896 6895 6894 ] final  -37.16 input  -60.11 | X-H torsion
[ 7974 7965 7964 7962 ] final -123.44 input  175.53 | X-H torsion
[ 8008 7997 7996 7995 ] final    8.35 input   59.86 | X-H torsion
[ 10167 10162 10161 10158 ] final -156.43 input  -65.29 | X-H torsion
[ 10718 10713 10712 10709 ] final  115.66 input   66.30 | X-H torsion
[ 10763 10752 10751 10750 ] final  -23.45 input  -60.55 | X-H torsion
[ 11005 11000 10999 10996 ] final  -31.64 input  -57.11 | X-H torsion

> <Gold.Protein.ActiveResidues>
 VAL166  LYS551  ARG553  GLY616  TRP617  ASP618  TYR619  PRO620  LYS621  CYS622 
 ASP623  PHE694  ASN695  SER759  ASP760  ASP761  ALA762  ILE779  LEU786  VAL792 
 PHE793  MET794  SER795  GLU796  ALA797  LYS798  CYS799  TRP800  GLU811  SER814 

> <Gold.Protein.RotatedAtoms>
  151.0182  134.9449  159.8044 H   0  0  0  0  0  0  0  0  0  0  0  0  # atno 6907 bound_to 6896
  152.5319  134.2938  159.9063 H   0  0  0  0  0  0  0  0  0  0  0  0  # atno 6908 bound_to 6896
  151.2945  133.4108  159.2669 H   0  0  0  0  0  0  0  0  0  0  0  0  # atno 6909 bound_to 6896
  145.0187  140.7969  143.4394 H   0  0  0  0  0  0  0  0  0  0  0  0  # atno 7974 bound_to 7965
  154.7658  140.2793  155.6178 H   0  0  0  0  0  0  0  0  0  0  0  0  # atno 8008 bound_to 7997
  156.2924  140.2651  156.2375 H   0  0  0  0  0  0  0  0  0  0  0  0  # atno 8009 bound_to 7997
  154.9961  140.0373  157.2330 H   0  0  0  0  0  0  0  0  0  0  0  0  # atno 8010 bound_to 7997
  139.6851  143.9515  152.2357 H   0  0  0  0  0  0  0  0  0  0  0  0  # atno 10167 bound_to 10162
  157.6208  131.1015  150.7362 H   0  0  0  0  0  0  0  0  0  0  0  0  # atno 10718 bound_to 10713
  153.6681  135.6973  153.5156 H   0  0  0  0  0  0  0  0  0  0  0  0  # atno 10763 bound_to 10752
  153.2579  135.4254  155.0864 H   0  0  0  0  0  0  0  0  0  0  0  0  # atno 10764 bound_to 10752
  154.8434  135.3547  154.6225 H   0  0  0  0  0  0  0  0  0  0  0  0  # atno 10765 bound_to 10752
  140.9485  133.7235  156.1183 H   0  0  0  0  0  0  0  0  0  0  0  0  # atno 11005 bound_to 11000
  145.1925  139.2294  143.5235 LP  0  0  0  0  0  0  0  0  0  0  0  0  # atno 17320 bound_to 7965
  146.3482  140.1724  142.8589 LP  0  0  0  0  0  0  0  0  0  0  0  0  # atno 17321 bound_to 7965
  139.9316  144.6738  150.8357 LP  0  0  0  0  0  0  0  0  0  0  0  0  # atno 17342 bound_to 10162
  140.7665  143.3305  151.2421 LP  0  0  0  0  0  0  0  0  0  0  0  0  # atno 17343 bound_to 10162
  156.7719  130.4831  149.5417 LP  0  0  0  0  0  0  0  0  0  0  0  0  # atno 17370 bound_to 10713
  156.1353  130.6207  151.0391 LP  0  0  0  0  0  0  0  0  0  0  0  0  # atno 17371 bound_to 10713
  140.7636  134.3911  157.5521 LP  0  0  0  0  0  0  0  0  0  0  0  0  # atno 17394 bound_to 11000
  139.8840  134.8977  156.2729 LP  0  0  0  0  0  0  0  0  0  0  0  0  # atno 17395 bound_to 11000

$$$$
