AV-unprocessed.smi:1504|AV-procd|sdf|6074|dock10
  -GOLD-   22720 6193D 1   1.00000     0.00000
 Structure written by MMmdl.
 40 41  0  0  0  0  0  0  0  0  2 V2000
  152.7298  139.0102  155.6942 O   0  0  0  0  0  0  0  0  0  0  0  0
  151.5138  138.9954  155.5024 C   0  0  0  0  0  0  0  0  0  0  0  0
  150.7198  140.0653  155.6493 N   0  0  0  0  0  0  0  0  0  0  0  0
  151.1749  141.3888  156.0590 C   0  0  0  0  0  0  0  0  0  0  0  0
  150.2199  142.0236  157.0840 C   0  0  0  0  0  0  0  0  0  0  0  0
  150.9417  142.9431  158.0495 C   0  0  0  0  0  0  0  0  0  0  0  0
  151.8447  142.4534  159.0182 C   0  0  0  0  0  0  0  0  0  0  0  0
  152.4883  143.3634  159.8827 C   0  0  0  0  0  0  0  0  0  0  0  0
  152.2171  144.7420  159.7595 C   0  0  0  0  0  0  0  0  0  0  0  0
  151.3083  145.1763  158.7730 C   0  0  0  0  0  0  0  0  0  0  0  0
  150.7114  144.2735  157.9640 N   0  3  0  0  0  0  0  0  0  0  0  0
  150.8224  137.9105  155.1294 N   0  0  0  0  0  0  0  0  0  0  0  0
  151.3944  136.5864  154.9103 C   0  0  0  0  0  0  0  0  0  0  0  0
  150.5532  135.5020  155.6050 C   0  0  1  0  0  0  0  0  0  0  0  0
  149.7816  134.6232  154.6015 C   0  0  0  0  0  0  0  0  0  0  0  0
  149.2044  133.4188  155.3513 C   0  0  0  0  0  0  0  0  0  0  0  0
  150.4380  133.0053  156.6397 S   0  0  0  0  0  0  0  0  0  0  0  0
  149.7658  132.9476  157.9466 O   0  0  0  0  0  0  0  0  0  0  0  0
  151.2821  131.8955  156.1724 O   0  0  0  0  0  0  0  0  0  0  0  0
  151.3849  134.5695  156.5040 C   0  0  0  0  0  0  0  0  0  0  0  0
  149.7328  139.9564  155.4657 H   0  0  0  0  0  0  0  0  0  0  0  0
  152.1853  141.3244  156.4669 H   0  0  0  0  0  0  0  0  0  0  0  0
  151.2388  142.0151  155.1688 H   0  0  0  0  0  0  0  0  0  0  0  0
  149.4415  142.5895  156.5701 H   0  0  0  0  0  0  0  0  0  0  0  0
  149.7076  141.2483  157.6554 H   0  0  0  0  0  0  0  0  0  0  0  0
  152.0442  141.3946  159.0982 H   0  0  0  0  0  0  0  0  0  0  0  0
  153.1824  143.0079  160.6304 H   0  0  0  0  0  0  0  0  0  0  0  0
  152.6997  145.4553  160.4118 H   0  0  0  0  0  0  0  0  0  0  0  0
  151.0428  146.2103  158.6075 H   0  0  0  0  0  0  0  0  0  0  0  0
  149.8260  138.0029  154.9957 H   0  0  0  0  0  0  0  0  0  0  0  0
  151.4332  136.4006  153.8365 H   0  0  0  0  0  0  0  0  0  0  0  0
  152.4221  136.5417  155.2755 H   0  0  0  0  0  0  0  0  0  0  0  0
  149.8111  135.9916  156.2380 H   0  0  0  0  0  0  0  0  0  0  0  0
  148.9997  135.1848  154.0894 H   0  0  0  0  0  0  0  0  0  0  0  0
  150.4694  134.2634  153.8348 H   0  0  0  0  0  0  0  0  0  0  0  0
  148.2722  133.6845  155.8500 H   0  0  0  0  0  0  0  0  0  0  0  0
  149.0247  132.5578  154.7076 H   0  0  0  0  0  0  0  0  0  0  0  0
  152.3459  134.3359  156.0445 H   0  0  0  0  0  0  0  0  0  0  0  0
  151.5674  134.9842  157.4954 H   0  0  0  0  0  0  0  0  0  0  0  0
  150.0574  144.6103  157.2571 H   0  0  0  0  0  0  0  0  0  0  0  0
  1  2  2  0  0  0  0
  2  3  1  0  0  0  0
  2 12  1  0  0  0  0
  3  4  1  0  0  0  0
  3 21  1  0  0  0  0
  4  5  1  0  0  0  0
  4 22  1  0  0  0  0
  4 23  1  0  0  0  0
  5  6  1  0  0  0  0
  5 24  1  0  0  0  0
  5 25  1  0  0  0  0
  6 11  1  0  0  0  0
  6  7  2  0  0  0  0
  7  8  1  0  0  0  0
  7 26  1  0  0  0  0
  8  9  2  0  0  0  0
  8 27  1  0  0  0  0
  9 10  1  0  0  0  0
  9 28  1  0  0  0  0
 10 11  2  0  0  0  0
 10 29  1  0  0  0  0
 11 40  1  0  0  0  0
 12 13  1  0  0  0  0
 12 30  1  0  0  0  0
 13 14  1  0  0  0  0
 13 31  1  0  0  0  0
 13 32  1  0  0  0  0
 14 20  1  0  0  0  0
 14 15  1  0  0  0  0
 14 33  1  0  0  0  0
 15 16  1  0  0  0  0
 15 34  1  0  0  0  0
 15 35  1  0  0  0  0
 16 17  1  0  0  0  0
 16 36  1  0  0  0  0
 16 37  1  0  0  0  0
 17 18  2  0  0  0  0
 17 19  2  0  0  0  0
 17 20  1  0  0  0  0
 20 38  1  0  0  0  0
 20 39  1  0  0  0  0
M  CHG  1  11   1
M  END
> <s_m_source_file>
AV-unprocessed.smi

> <i_m_source_file_index>
1504

> <i_lp_mmshare_version>
43012

> <i_f3d_flags>
0

> <s_epik_input>
Tz1TMSg9TylbQ0gyXVtDSDJdW0NASF0oW0NIMl0xKVtDSDJdW05IXUMoPU8pW05IXVtDSDJdW0NIMl1jMltjSF1bY0hdW2NIXVtjSF1uMg==

> <s_epik_cmdline>
J2VwaWtfcHl0aG9uJywgJy1waCcsICc3LjAnLCAnLXRuJywgJzgnLCAnLW1hJywgJzIwMCcsICctbWV0YWxfYmluZGluZycsICctaW1hZScsICc8aW5maWxlLm1hZT4nLCAnLW9tYWUnLCAnPG91dGZpbGUubWFlPic=

> <r_epik_Ionization_Penalty>
1.57393

> <r_epik_Ionization_Penalty_Charging>
1.57388

> <r_epik_Ionization_Penalty_Neutral>
4.82054e-05

> <r_epik_State_Penalty>
1.66991

> <r_epik_Charging_Adjusted_Penalty>
3.24379

> <i_epik_Tot_Q>
1

> <i_epik_Tot_abs_Q>
1

> <r_epik_Metal_State_Penalty>
1.71052

> <b_epik_Metal_Only>
0

> <s_lp_Force_Field>
OPLS_2005

> <r_lp_Energy>
6.78157

> <b_lp_Chiralities_Consistent>
1

> <s_lp_Variant>
AV-unprocessed.smi:1504-4

> <Gold.Version>
5.8.1

> <Gold.Id.Protein>
6NUR|6NUR_protein|mol2

> <Gold.PLP.Fitness>
45.6450

> <Gold.PLP.PLP>
-35.9682

> <Gold.PLP.part.hbond>
-3.1236

> <Gold.PLP.part.metal>
0.0000

> <Gold.PLP.part.buried>
-3.2620

> <Gold.PLP.part.nonpolar>
-29.9736

> <Gold.PLP.part.repulsive>
0.2288

> <Gold.PLP.ligand.clash>
0.0000

> <Gold.PLP.ligand.torsion>
1.1664

> <Gold.PLP.Chemscore.Hbond>
4.0000

> <Gold.PLP.Chemscore.CHOScore>
0.0000

> <Gold.PLP.Chemscore.Metal>
0.0000

> <Gold.Chemscore.Hbonds>
donor molecule, donor type, donor heavy atom, donor atom, acceptor molecule, acceptor atom, score
      L1  H    11    40       P1  8028  2.00
      P1  H  6896  6907       L1    18  0.96
      P1  H  7997  8009       L1     1  0.99

> <Gold.PLP.Chemscore.Internal.Correction>
0.0095

> <Gold.Rescore>
     Score         DG    S(hbond)    S(metal)    S(lipo)     H(rot)  DE(clash)    DE(int)     intcor
     17.56     -20.70       2.62        0.00      99.29       2.01       1.96       1.18       ----

> <Gold.Chemscore.Fitness>
17.5610

> <Gold.Chemscore.DG>
-20.7036

> <Gold.Chemscore.ZeroCoef>
-5.4800

> <Gold.Chemscore.Hbond>
2.6240

> <Gold.Chemscore.Metal>
0.0000

> <Gold.Chemscore.Lipo>
99.2887

> <Gold.Chemscore.Internal_Hbond>
0.0000

> <Gold.Chemscore.DEClash>
1.9623

> <Gold.Chemscore.DEInternal>
1.1802

> <Gold.Chemscore.Rot>
2.0146

> <Gold.Chemscore.Internal.Correction>
   9.000000E+99

> <Gold.Chemscore.Hbonds>
donor molecule, donor type, donor heavy atom, donor atom, acceptor molecule, acceptor atom, score
      L1  H    11    40       P1  8028  0.30
      P1  H  6896  6907       L1    18  0.41
      P1  H  7997  8009       L1     1  0.92

> <Gold.Chemscore.Hbond.Weighted>
-8.7641

> <Gold.Chemscore.Metal.Weighted>
-0.0000

> <Gold.Chemscore.Lipo.Weighted>
-11.6168

> <Gold.Chemscore.Internal_Hbond.Weighted>
0.0000

> <Gold.Chemscore.DEClash.Weighted>
1.9623

> <Gold.Chemscore.DEInternal.Weighted>
1.1802

> <Gold.Chemscore.Rot.Weighted>
5.1573

> <Gold.Chemscore.Internal.Correction.Weighted>
   9.000000E+99

> <Gold.Protein.RotatedTorsions>
[ 6907 6896 6895 6894 ] final -151.48 input  -60.11 | X-H torsion
[ 7974 7965 7964 7962 ] final  127.03 input  175.53 | X-H torsion
[ 8008 7997 7996 7995 ] final -156.22 input   59.86 | X-H torsion
[ 10167 10162 10161 10158 ] final   98.07 input  -65.29 | X-H torsion
[ 10718 10713 10712 10709 ] final -104.41 input   66.30 | X-H torsion
[ 10763 10752 10751 10750 ] final -169.81 input  -60.55 | X-H torsion
[ 11005 11000 10999 10996 ] final -107.38 input  -57.11 | X-H torsion

> <Gold.Protein.ActiveResidues>
 VAL166  LYS551  ARG553  GLY616  TRP617  ASP618  TYR619  PRO620  LYS621  CYS622 
 ASP623  PHE694  ASN695  SER759  ASP760  ASP761  ALA762  ILE779  LEU786  VAL792 
 PHE793  MET794  SER795  GLU796  ALA797  LYS798  CYS799  TRP800  GLU811  SER814 

> <Gold.Protein.RotatedAtoms>
  151.2137  133.4541  159.2598 H   0  0  0  0  0  0  0  0  0  0  0  0  # atno 6907 bound_to 6896
  151.0952  134.9940  159.8432 H   0  0  0  0  0  0  0  0  0  0  0  0  # atno 6908 bound_to 6896
  152.5438  134.2067  159.8787 H   0  0  0  0  0  0  0  0  0  0  0  0  # atno 6909 bound_to 6896
  145.0551  139.3850  143.5034 H   0  0  0  0  0  0  0  0  0  0  0  0  # atno 7974 bound_to 7965
  155.7139  140.0781  157.2359 H   0  0  0  0  0  0  0  0  0  0  0  0  # atno 8008 bound_to 7997
  154.4054  140.1625  156.2380 H   0  0  0  0  0  0  0  0  0  0  0  0  # atno 8009 bound_to 7997
  155.9258  140.3394  155.6212 H   0  0  0  0  0  0  0  0  0  0  0  0  # atno 8010 bound_to 7997
  139.7743  144.6911  151.0112 H   0  0  0  0  0  0  0  0  0  0  0  0  # atno 10167 bound_to 10162
  156.0303  130.5514  150.7392 H   0  0  0  0  0  0  0  0  0  0  0  0  # atno 10718 bound_to 10713
  154.6483  135.2908  155.0018 H   0  0  0  0  0  0  0  0  0  0  0  0  # atno 10763 bound_to 10752
  154.1120  135.6561  153.4891 H   0  0  0  0  0  0  0  0  0  0  0  0  # atno 10764 bound_to 10752
  153.0363  135.5267  154.7380 H   0  0  0  0  0  0  0  0  0  0  0  0  # atno 10765 bound_to 10752
  141.0957  133.8976  157.1969 H   0  0  0  0  0  0  0  0  0  0  0  0  # atno 11005 bound_to 11000
  146.3521  140.0222  142.8657 LP  0  0  0  0  0  0  0  0  0  0  0  0  # atno 17320 bound_to 7965
  145.1478  140.9606  143.4451 LP  0  0  0  0  0  0  0  0  0  0  0  0  # atno 17321 bound_to 7965
  140.7815  143.4554  151.0353 LP  0  0  0  0  0  0  0  0  0  0  0  0  # atno 17342 bound_to 10162
  139.8236  143.7786  152.3178 LP  0  0  0  0  0  0  0  0  0  0  0  0  # atno 17343 bound_to 10162
  157.4965  131.0915  151.0365 LP  0  0  0  0  0  0  0  0  0  0  0  0  # atno 17370 bound_to 10713
  157.0757  130.5882  149.5411 LP  0  0  0  0  0  0  0  0  0  0  0  0  # atno 17371 bound_to 10713
  139.9793  135.0103  156.9709 LP  0  0  0  0  0  0  0  0  0  0  0  0  # atno 17394 bound_to 11000
  140.5146  134.0968  155.7278 LP  0  0  0  0  0  0  0  0  0  0  0  0  # atno 17395 bound_to 11000

$$$$
