AV-unprocessed.smi:1142|AV-procd|sdf|4873|dock8
  -GOLD-   22720 3443D 1   1.00000     0.00000
 Structure written by MMmdl.
 33 34  0  0  0  0  0  0  0  0  1 V2000
  153.6207  137.2249  161.1631 C   0  0  0  0  0  0  0  0  0  0  0  0
  152.8099  137.4994  160.2924 C   0  0  0  0  0  0  0  0  0  0  0  0
  151.8387  137.8438  159.2405 C   0  0  0  0  0  0  0  0  0  0  0  0
  151.7039  139.2834  159.0524 N   0  0  0  0  0  0  0  0  0  0  0  0
  152.7221  140.1466  158.8991 C   0  0  0  0  0  0  0  0  0  0  0  0
  153.9061  139.8081  158.8888 O   0  0  0  0  0  0  0  0  0  0  0  0
  152.3153  141.5832  158.6975 C   0  0  0  0  0  0  0  0  0  0  0  0
  152.7405  142.5590  159.6287 C   0  0  0  0  0  0  0  0  0  0  0  0
  152.4060  143.9090  159.4234 C   0  0  0  0  0  0  0  0  0  0  0  0
  151.6595  144.2416  158.2806 C   0  0  0  0  0  0  0  0  0  0  0  0
  151.2467  143.3284  157.3794 N   0  0  0  0  0  0  0  0  0  0  0  0
  151.5595  142.0220  157.5690 C   0  0  0  0  0  0  0  0  0  0  0  0
  151.0609  141.1118  156.6145 N   0  0  0  0  0  0  0  0  0  0  0  0
  152.0154  140.2059  155.9830 C   0  0  0  0  0  0  0  0  0  0  0  0
  151.2623  139.1365  155.1732 C   0  0  0  0  0  0  0  0  0  0  0  0
  150.4028  139.7691  154.2288 O   0  0  0  0  0  0  0  0  0  0  0  0
  149.4271  140.5938  154.8602 C   0  0  0  0  0  0  0  0  0  0  0  0
  150.1275  141.7030  155.6630 C   0  0  0  0  0  0  0  0  0  0  0  0
  154.3313  136.9847  161.9219 H   0  0  0  0  0  0  0  0  0  0  0  0
  152.1336  137.3454  158.3157 H   0  0  0  0  0  0  0  0  0  0  0  0
  150.8709  137.4343  159.5301 H   0  0  0  0  0  0  0  0  0  0  0  0
  150.7645  139.6529  159.0345 H   0  0  0  0  0  0  0  0  0  0  0  0
  153.3291  142.2842  160.4922 H   0  0  0  0  0  0  0  0  0  0  0  0
  152.7210  144.6712  160.1207 H   0  0  0  0  0  0  0  0  0  0  0  0
  151.3856  145.2676  158.0844 H   0  0  0  0  0  0  0  0  0  0  0  0
  152.6773  140.7685  155.3231 H   0  0  0  0  0  0  0  0  0  0  0  0
  152.6370  139.7317  156.7434 H   0  0  0  0  0  0  0  0  0  0  0  0
  151.9696  138.5006  154.6407 H   0  0  0  0  0  0  0  0  0  0  0  0
  150.6819  138.4877  155.8311 H   0  0  0  0  0  0  0  0  0  0  0  0
  148.7834  141.0313  154.0973 H   0  0  0  0  0  0  0  0  0  0  0  0
  148.7892  139.9900  155.5084 H   0  0  0  0  0  0  0  0  0  0  0  0
  149.3848  142.3153  156.1746 H   0  0  0  0  0  0  0  0  0  0  0  0
  150.6751  142.3639  154.9895 H   0  0  0  0  0  0  0  0  0  0  0  0
  1  2  3  0  0  0  0
  1 19  1  0  0  0  0
  2  3  1  0  0  0  0
  3  4  1  0  0  0  0
  3 20  1  0  0  0  0
  3 21  1  0  0  0  0
  4  5  1  0  0  0  0
  4 22  1  0  0  0  0
  5  6  2  0  0  0  0
  5  7  1  0  0  0  0
  7 12  1  0  0  0  0
  7  8  2  0  0  0  0
  8  9  1  0  0  0  0
  8 23  1  0  0  0  0
  9 10  2  0  0  0  0
  9 24  1  0  0  0  0
 10 11  1  0  0  0  0
 10 25  1  0  0  0  0
 11 12  2  0  0  0  0
 12 13  1  0  0  0  0
 13 18  1  0  0  0  0
 13 14  1  0  0  0  0
 14 15  1  0  0  0  0
 14 26  1  0  0  0  0
 14 27  1  0  0  0  0
 15 16  1  0  0  0  0
 15 28  1  0  0  0  0
 15 29  1  0  0  0  0
 16 17  1  0  0  0  0
 17 18  1  0  0  0  0
 17 30  1  0  0  0  0
 17 31  1  0  0  0  0
 18 32  1  0  0  0  0
 18 33  1  0  0  0  0
M  END
> <s_m_source_file>
AV-unprocessed.smi

> <i_m_source_file_index>
1142

> <i_lp_mmshare_version>
43012

> <i_f3d_flags>
0

> <s_epik_input>
W0NIXSNDW0NIMl1bTkhdQyg9TyljMVtjSF1bY0hdW2NIXW5jMU4yW0NIMl1bQ0gyXU9bQ0gyXVtDSDJdMg==

> <s_epik_cmdline>
J2VwaWtfcHl0aG9uJywgJy1waCcsICc3LjAnLCAnLXRuJywgJzgnLCAnLW1hJywgJzIwMCcsICctbWV0YWxfYmluZGluZycsICctaW1hZScsICc8aW5maWxlLm1hZT4nLCAnLW9tYWUnLCAnPG91dGZpbGUubWFlPic=

> <r_lp_tautomer_probability>
1

> <r_epik_Ionization_Penalty>
1.59202e-05

> <r_epik_Ionization_Penalty_Charging>
0

> <r_epik_Ionization_Penalty_Neutral>
1.59202e-05

> <r_epik_State_Penalty>
-0

> <r_epik_Charging_Adjusted_Penalty>
0

> <i_epik_Tot_Q>
0

> <i_epik_Tot_abs_Q>
0

> <r_epik_Metal_State_Penalty>
0.00596736

> <b_epik_Metal_Only>
0

> <s_lp_Force_Field>
OPLS_2005

> <r_lp_Energy>
22.9222

> <b_lp_Chiralities_Consistent>
1

> <s_lp_Variant>
AV-unprocessed.smi:1142-1

> <Gold.Version>
5.8.1

> <Gold.Id.Protein>
6NUR|6NUR_protein|mol2

> <Gold.PLP.Fitness>
41.2465

> <Gold.PLP.PLP>
-37.7193

> <Gold.PLP.part.hbond>
-2.0000

> <Gold.PLP.part.metal>
0.0000

> <Gold.PLP.part.buried>
-5.3436

> <Gold.PLP.part.nonpolar>
-30.7899

> <Gold.PLP.part.repulsive>
0.4520

> <Gold.PLP.ligand.clash>
0.0000

> <Gold.PLP.ligand.torsion>
1.3530

> <Gold.PLP.Chemscore.Hbond>
2.0000

> <Gold.PLP.Chemscore.CHOScore>
0.0000

> <Gold.PLP.Chemscore.Metal>
0.0000

> <Gold.Chemscore.Hbonds>
donor molecule, donor type, donor heavy atom, donor atom, acceptor molecule, acceptor atom, score
      P1  H  7989  7998       L1    16  0.90
      P1  H  7997  8008       L1     6  1.00

> <Gold.PLP.Chemscore.Internal.Correction>
0.2333

> <Gold.Rescore>
     Score         DG    S(hbond)    S(metal)    S(lipo)     H(rot)  DE(clash)    DE(int)     intcor
     15.28     -16.68       0.98        0.00      93.66       1.19       0.02       1.38       ----

> <Gold.Chemscore.Fitness>
15.2844

> <Gold.Chemscore.DG>
-16.6817

> <Gold.Chemscore.ZeroCoef>
-5.4800

> <Gold.Chemscore.Hbond>
0.9839

> <Gold.Chemscore.Metal>
0.0000

> <Gold.Chemscore.Lipo>
93.6645

> <Gold.Chemscore.Internal_Hbond>
0.0000

> <Gold.Chemscore.DEClash>
0.0183

> <Gold.Chemscore.DEInternal>
1.3789

> <Gold.Chemscore.Rot>
1.1887

> <Gold.Chemscore.Internal.Correction>
   9.000000E+99

> <Gold.Chemscore.Hbonds>
donor molecule, donor type, donor heavy atom, donor atom, acceptor molecule, acceptor atom, score
      P1  H  7989  7998       L1    16  0.11
      P1  H  7997  8008       L1     6  0.95

> <Gold.Chemscore.Hbond.Weighted>
-3.2861

> <Gold.Chemscore.Metal.Weighted>
-0.0000

> <Gold.Chemscore.Lipo.Weighted>
-10.9587

> <Gold.Chemscore.Internal_Hbond.Weighted>
0.0000

> <Gold.Chemscore.DEClash.Weighted>
0.0183

> <Gold.Chemscore.DEInternal.Weighted>
1.3789

> <Gold.Chemscore.Rot.Weighted>
3.0432

> <Gold.Chemscore.Internal.Correction.Weighted>
   9.000000E+99

> <Gold.Protein.RotatedTorsions>
[ 6907 6896 6895 6894 ] final -160.58 input  -60.11 | X-H torsion
[ 7974 7965 7964 7962 ] final  122.24 input  175.53 | X-H torsion
[ 8008 7997 7996 7995 ] final -106.43 input   59.86 | X-H torsion
[ 10167 10162 10161 10158 ] final   81.01 input  -65.29 | X-H torsion
[ 10718 10713 10712 10709 ] final  -27.07 input   66.30 | X-H torsion
[ 10763 10752 10751 10750 ] final  -57.02 input  -60.55 | X-H torsion
[ 11005 11000 10999 10996 ] final  -82.07 input  -57.11 | X-H torsion

> <Gold.Protein.ActiveResidues>
 VAL166  LYS551  ARG553  GLY616  TRP617  ASP618  TYR619  PRO620  LYS621  CYS622 
 ASP623  PHE694  ASN695  SER759  ASP760  ASP761  ALA762  ILE779  LEU786  VAL792 
 PHE793  MET794  SER795  GLU796  ALA797  LYS798  CYS799  TRP800  GLU811  SER814 

> <Gold.Protein.RotatedAtoms>
  151.3513  133.3924  159.2680 H   0  0  0  0  0  0  0  0  0  0  0  0  # atno 6907 bound_to 6896
  150.9799  134.9157  159.7848 H   0  0  0  0  0  0  0  0  0  0  0  0  # atno 6908 bound_to 6896
  152.5213  134.3477  159.9292 H   0  0  0  0  0  0  0  0  0  0  0  0  # atno 6909 bound_to 6896
  145.1098  139.3460  143.4769 H   0  0  0  0  0  0  0  0  0  0  0  0  # atno 7974 bound_to 7965
  154.9144  140.0409  157.1964 H   0  0  0  0  0  0  0  0  0  0  0  0  # atno 8008 bound_to 7997
  154.8315  140.2900  155.5697 H   0  0  0  0  0  0  0  0  0  0  0  0  # atno 8009 bound_to 7997
  156.2987  140.2500  156.3242 H   0  0  0  0  0  0  0  0  0  0  0  0  # atno 8010 bound_to 7997
  139.9438  144.6072  150.8227 H   0  0  0  0  0  0  0  0  0  0  0  0  # atno 10167 bound_to 10162
  156.4429  130.4468  149.7040 H   0  0  0  0  0  0  0  0  0  0  0  0  # atno 10718 bound_to 10713
  154.2159  135.6386  153.5129 H   0  0  0  0  0  0  0  0  0  0  0  0  # atno 10763 bound_to 10752
  152.9979  135.5485  154.6166 H   0  0  0  0  0  0  0  0  0  0  0  0  # atno 10764 bound_to 10752
  154.5614  135.2909  155.0889 H   0  0  0  0  0  0  0  0  0  0  0  0  # atno 10765 bound_to 10752
  141.1664  133.7226  156.8517 H   0  0  0  0  0  0  0  0  0  0  0  0  # atno 11005 bound_to 11000
  146.3526  140.1012  142.8608 LP  0  0  0  0  0  0  0  0  0  0  0  0  # atno 17320 bound_to 7965
  145.0859  140.9252  143.4797 LP  0  0  0  0  0  0  0  0  0  0  0  0  # atno 17321 bound_to 7965
  140.7603  143.3149  151.2758 LP  0  0  0  0  0  0  0  0  0  0  0  0  # atno 17342 bound_to 10162
  139.6683  144.0065  152.2737 LP  0  0  0  0  0  0  0  0  0  0  0  0  # atno 17343 bound_to 10162
  156.3898  130.7621  151.2621 LP  0  0  0  0  0  0  0  0  0  0  0  0  # atno 17370 bound_to 10713
  157.7505  131.0271  150.3992 LP  0  0  0  0  0  0  0  0  0  0  0  0  # atno 17371 bound_to 10713
  140.1911  134.8965  157.3061 LP  0  0  0  0  0  0  0  0  0  0  0  0  # atno 17394 bound_to 11000
  140.2289  134.3933  155.7531 LP  0  0  0  0  0  0  0  0  0  0  0  0  # atno 17395 bound_to 11000

$$$$
