AV-unprocessed.smi:3245|AV-procd|sdf|12402|dock9
  -GOLD-   2272018283D 1   1.00000     0.00000
 Structure written by MMmdl.
 36 37  0  0  0  0  0  0  0  0  2 V2000
  146.2783  137.7155  151.0613 C   0  0  0  0  0  0  0  0  0  0  0  0
  145.7043  137.7404  152.4843 C   0  0  2  0  0  0  0  0  0  0  0  0
  144.2520  137.2151  152.4944 C   0  0  0  0  0  0  0  0  0  0  0  0
  144.1300  135.8736  151.9523 N   0  0  0  0  0  0  0  0  0  0  0  0
  144.2959  135.4567  150.6486 C   0  0  0  0  0  0  0  0  0  0  0  0
  144.1016  134.1053  150.6271 C   0  0  0  0  0  0  0  0  0  0  0  0
  143.8123  133.7825  151.9822 C   0  0  0  0  0  0  0  0  0  0  0  0
  143.8307  134.8432  152.7735 N   0  0  0  0  0  0  0  0  0  0  0  0
  145.7785  139.1187  153.0205 N   0  3  0  0  0  0  0  0  0  0  0  0
  147.1002  139.7666  152.8946 C   0  0  0  0  0  0  0  0  0  0  0  0
  147.0384  141.2309  153.3524 C   0  0  0  0  0  0  0  0  0  0  0  0
  147.6556  141.4008  154.6699 N   0  0  0  0  0  0  0  0  0  0  0  0
  148.9534  141.1884  154.9243 C   0  0  0  0  0  0  0  0  0  0  0  0
  149.8208  140.8242  154.1310 O   0  0  0  0  0  0  0  0  0  0  0  0
  149.2106  141.4889  156.3848 C   0  0  0  0  0  0  0  0  0  0  0  0
  147.8750  141.8801  156.7821 N   0  0  0  0  0  0  0  0  0  0  0  0
  147.0027  141.8239  155.7674 C   0  0  0  0  0  0  0  0  0  0  0  0
  145.8106  142.1185  155.8388 O   0  0  0  0  0  0  0  0  0  0  0  0
  146.2735  136.7038  150.6541 H   0  0  0  0  0  0  0  0  0  0  0  0
  147.3098  138.0690  151.0461 H   0  0  0  0  0  0  0  0  0  0  0  0
  145.6992  138.3475  150.3870 H   0  0  0  0  0  0  0  0  0  0  0  0
  146.3261  137.0839  153.0956 H   0  0  0  0  0  0  0  0  0  0  0  0
  143.8471  137.2265  153.5080 H   0  0  0  0  0  0  0  0  0  0  0  0
  143.6143  137.8720  151.9015 H   0  0  0  0  0  0  0  0  0  0  0  0
  144.5404  136.1472  149.8550 H   0  0  0  0  0  0  0  0  0  0  0  0
  144.1560  133.4468  149.7729 H   0  0  0  0  0  0  0  0  0  0  0  0
  143.5940  132.8158  152.4114 H   0  0  0  0  0  0  0  0  0  0  0  0
  145.1095  139.6914  152.5263 H   0  0  0  0  0  0  0  0  0  0  0  0
  147.8366  139.2296  153.4921 H   0  0  0  0  0  0  0  0  0  0  0  0
  147.4291  139.7039  151.8565 H   0  0  0  0  0  0  0  0  0  0  0  0
  147.5303  141.8730  152.6196 H   0  0  0  0  0  0  0  0  0  0  0  0
  146.0002  141.5656  153.3896 H   0  0  0  0  0  0  0  0  0  0  0  0
  149.5494  140.6047  156.9255 H   0  0  0  0  0  0  0  0  0  0  0  0
  149.9229  142.3050  156.5098 H   0  0  0  0  0  0  0  0  0  0  0  0
  147.6426  142.1675  157.7218 H   0  0  0  0  0  0  0  0  0  0  0  0
  145.5183  139.0899  153.9963 H   0  0  0  0  0  0  0  0  0  0  0  0
  1  2  1  0  0  0  0
  1 19  1  0  0  0  0
  1 20  1  0  0  0  0
  1 21  1  0  0  0  0
  2  3  1  0  0  0  0
  2  9  1  0  0  0  0
  2 22  1  0  0  0  0
  3  4  1  0  0  0  0
  3 23  1  0  0  0  0
  3 24  1  0  0  0  0
  4  8  1  0  0  0  0
  4  5  1  0  0  0  0
  5  6  2  0  0  0  0
  5 25  1  0  0  0  0
  6  7  1  0  0  0  0
  6 26  1  0  0  0  0
  7  8  2  0  0  0  0
  7 27  1  0  0  0  0
  9 10  1  0  0  0  0
  9 28  1  0  0  0  0
  9 36  1  0  0  0  0
 10 11  1  0  0  0  0
 10 29  1  0  0  0  0
 10 30  1  0  0  0  0
 11 12  1  0  0  0  0
 11 31  1  0  0  0  0
 11 32  1  0  0  0  0
 12 17  1  0  0  0  0
 12 13  1  0  0  0  0
 13 14  2  0  0  0  0
 13 15  1  0  0  0  0
 15 16  1  0  0  0  0
 15 33  1  0  0  0  0
 15 34  1  0  0  0  0
 16 17  1  0  0  0  0
 16 35  1  0  0  0  0
 17 18  2  0  0  0  0
M  CHG  1   9   1
M  END
> <s_m_source_file>
AV-unprocessed.smi

> <i_m_source_file_index>
3245

> <i_lp_mmshare_version>
43012

> <i_f3d_flags>
0

> <s_epik_input>
bjFbY0hdW2NIXVtjSF1uMVtDSDJdW0NAQEhdKFtDSDNdKVtOSF1bQ0gyXVtDSDJdTjJDKD1PKVtDSDJdW05IXUMyPU8=

> <s_epik_cmdline>
J2VwaWtfcHl0aG9uJywgJy1waCcsICc3LjAnLCAnLXRuJywgJzgnLCAnLW1hJywgJzIwMCcsICctbWV0YWxfYmluZGluZycsICctaW1hZScsICc8aW5maWxlLm1hZT4nLCAnLW9tYWUnLCAnPG91dGZpbGUubWFlPic=

> <r_lp_tautomer_probability>
1

> <r_epik_Ionization_Penalty>
0.0160742

> <r_epik_Ionization_Penalty_Charging>
0.0159586

> <r_epik_Ionization_Penalty_Neutral>
0.000115543

> <r_epik_State_Penalty>
0.0125702

> <r_epik_Charging_Adjusted_Penalty>
0.0285288

> <i_epik_Tot_Q>
1

> <i_epik_Tot_abs_Q>
1

> <r_epik_Metal_State_Penalty>
0.0881892

> <b_epik_Metal_Only>
0

> <s_lp_Force_Field>
OPLS_2005

> <r_lp_Energy>
19.7378

> <b_lp_Chiralities_Consistent>
1

> <s_lp_Variant>
AV-unprocessed.smi:3245-1

> <Gold.Version>
5.8.1

> <Gold.Id.Protein>
6NUR|6NUR_protein|mol2

> <Gold.PLP.Fitness>
41.2854

> <Gold.PLP.PLP>
-27.0156

> <Gold.PLP.part.hbond>
-3.6225

> <Gold.PLP.part.metal>
0.0000

> <Gold.PLP.part.buried>
3.3306

> <Gold.PLP.part.nonpolar>
-28.1687

> <Gold.PLP.part.repulsive>
2.2460

> <Gold.PLP.ligand.clash>
0.0000

> <Gold.PLP.ligand.torsion>
0.4598

> <Gold.PLP.Chemscore.Hbond>
3.1731

> <Gold.PLP.Chemscore.CHOScore>
1.8783

> <Gold.PLP.Chemscore.Metal>
0.0000

> <Gold.Chemscore.Hbonds>
donor molecule, donor type, donor heavy atom, donor atom, acceptor molecule, acceptor atom, score
      L1  H     9    28       P1 10175  2.00
      P1  H  7989  7998       L1    14  0.58
      P1  H  8011  8017       L1    14  0.07
      L1  C     5    25       P1 10171  0.91
      L1  C     7    27       P1 10957  0.38

> <Gold.PLP.Chemscore.Internal.Correction>
0.0351

> <Gold.Rescore>
     Score         DG    S(hbond)    S(metal)    S(lipo)     H(rot)  DE(clash)    DE(int)     intcor
     10.13     -11.28       1.94        0.00      53.99       2.74       0.66       0.50       ----

> <Gold.Chemscore.Fitness>
10.1269

> <Gold.Chemscore.DG>
-11.2826

> <Gold.Chemscore.ZeroCoef>
-5.4800

> <Gold.Chemscore.Hbond>
1.9437

> <Gold.Chemscore.Metal>
0.0000

> <Gold.Chemscore.Lipo>
53.9929

> <Gold.Chemscore.Internal_Hbond>
0.0000

> <Gold.Chemscore.DEClash>
0.6571

> <Gold.Chemscore.DEInternal>
0.4986

> <Gold.Chemscore.Rot>
2.7369

> <Gold.Chemscore.Internal.Correction>
   9.000000E+99

> <Gold.Chemscore.Hbonds>
donor molecule, donor type, donor heavy atom, donor atom, acceptor molecule, acceptor atom, score
      L1  H     9    28       P1 10175  0.95
      P1  H  7989  7998       L1    14  0.58
      P1  H  8011  8017       L1    14  0.06

> <Gold.Chemscore.Hbond.Weighted>
-6.4919

> <Gold.Chemscore.Metal.Weighted>
-0.0000

> <Gold.Chemscore.Lipo.Weighted>
-6.3172

> <Gold.Chemscore.Internal_Hbond.Weighted>
0.0000

> <Gold.Chemscore.DEClash.Weighted>
0.6571

> <Gold.Chemscore.DEInternal.Weighted>
0.4986

> <Gold.Chemscore.Rot.Weighted>
7.0065

> <Gold.Chemscore.Internal.Correction.Weighted>
   9.000000E+99

> <Gold.Protein.RotatedTorsions>
[ 6907 6896 6895 6894 ] final   -1.89 input  -60.11 | X-H torsion
[ 7974 7965 7964 7962 ] final   72.13 input  175.53 | X-H torsion
[ 8008 7997 7996 7995 ] final   62.22 input   59.86 | X-H torsion
[ 10167 10162 10161 10158 ] final  -28.59 input  -65.29 | X-H torsion
[ 10718 10713 10712 10709 ] final  113.90 input   66.30 | X-H torsion
[ 10763 10752 10751 10750 ] final  -67.47 input  -60.55 | X-H torsion
[ 11005 11000 10999 10996 ] final  107.85 input  -57.11 | X-H torsion

> <Gold.Protein.ActiveResidues>
 VAL166  LYS551  ARG553  GLY616  TRP617  ASP618  TYR619  PRO620  LYS621  CYS622 
 ASP623  PHE694  ASN695  SER759  ASP760  ASP761  ALA762  ILE779  LEU786  VAL792 
 PHE793  MET794  SER795  GLU796  ALA797  LYS798  CYS799  TRP800  GLU811  SER814 

> <Gold.Protein.RotatedAtoms>
  151.5388  135.1068  159.9920 H   0  0  0  0  0  0  0  0  0  0  0  0  # atno 6907 bound_to 6896
  152.4545  133.7691  159.6799 H   0  0  0  0  0  0  0  0  0  0  0  0  # atno 6908 bound_to 6896
  150.8484  133.7760  159.3059 H   0  0  0  0  0  0  0  0  0  0  0  0  # atno 6909 bound_to 6896
  145.7572  139.2785  143.1397 H   0  0  0  0  0  0  0  0  0  0  0  0  # atno 7974 bound_to 7965
  155.6109  140.3495  155.4622 H   0  0  0  0  0  0  0  0  0  0  0  0  # atno 8008 bound_to 7997
  156.0155  140.1242  157.0435 H   0  0  0  0  0  0  0  0  0  0  0  0  # atno 8009 bound_to 7997
  154.4296  140.1073  156.5876 H   0  0  0  0  0  0  0  0  0  0  0  0  # atno 8010 bound_to 7997
  140.7268  143.3997  151.1285 H   0  0  0  0  0  0  0  0  0  0  0  0  # atno 10167 bound_to 10162
  157.6312  131.0990  150.7108 H   0  0  0  0  0  0  0  0  0  0  0  0  # atno 10718 bound_to 10713
  154.3750  135.6087  153.5760 H   0  0  0  0  0  0  0  0  0  0  0  0  # atno 10763 bound_to 10752
  152.9789  135.5847  154.4477 H   0  0  0  0  0  0  0  0  0  0  0  0  # atno 10764 bound_to 10752
  154.4237  135.2846  155.1936 H   0  0  0  0  0  0  0  0  0  0  0  0  # atno 10765 bound_to 10752
  139.8834  134.9413  156.5883 H   0  0  0  0  0  0  0  0  0  0  0  0  # atno 11005 bound_to 11000
  146.0299  140.8268  142.9881 LP  0  0  0  0  0  0  0  0  0  0  0  0  # atno 17320 bound_to 7965
  144.6837  140.2753  143.7300 LP  0  0  0  0  0  0  0  0  0  0  0  0  # atno 17321 bound_to 7965
  139.7615  143.8628  152.3101 LP  0  0  0  0  0  0  0  0  0  0  0  0  # atno 17342 bound_to 10162
  139.8515  144.7162  150.9208 LP  0  0  0  0  0  0  0  0  0  0  0  0  # atno 17343 bound_to 10162
  156.7448  130.4750  149.5469 LP  0  0  0  0  0  0  0  0  0  0  0  0  # atno 17370 bound_to 10713
  156.1516  130.6314  151.0603 LP  0  0  0  0  0  0  0  0  0  0  0  0  # atno 17371 bound_to 10713
  140.7975  133.8532  155.8698 LP  0  0  0  0  0  0  0  0  0  0  0  0  # atno 17394 bound_to 11000
  140.9622  134.1640  157.4644 LP  0  0  0  0  0  0  0  0  0  0  0  0  # atno 17395 bound_to 11000

$$$$
