AV-unprocessed.smi:1724|AV-procd|sdf|6949|dock4
  -GOLD-   22720 8163D 1   1.00000     0.00000
 Structure written by MMmdl.
 38 39  0  0  0  0  0  0  0  0  1 V2000
  145.5478  138.6238  152.8924 O   0  0  0  0  0  0  0  0  0  0  0  0
  146.5240  137.9263  152.6189 C   0  0  0  0  0  0  0  0  0  0  0  0
  146.4253  136.6932  152.1008 N   0  0  0  0  0  0  0  0  0  0  0  0
  145.1783  135.9934  151.8023 C   0  0  0  0  0  0  0  0  0  0  0  0
  145.4172  134.5708  151.2553 C   0  0  2  0  0  0  0  0  0  0  0  0
  144.1181  133.8607  150.8285 C   0  0  0  0  0  0  0  0  0  0  0  0
  144.4172  132.4228  150.3897 C   0  0  0  0  0  0  0  0  0  0  0  0
  145.2100  131.6825  151.4769 C   0  0  0  0  0  0  0  0  0  0  0  0
  146.4033  132.3990  151.7717 O   0  0  0  0  0  0  0  0  0  0  0  0
  146.1556  133.7005  152.2934 C   0  0  0  0  0  0  0  0  0  0  0  0
  147.8138  138.2807  152.7684 N   0  0  0  0  0  0  0  0  0  0  0  0
  148.3603  139.4681  153.2856 C   0  0  0  0  0  0  0  0  0  0  0  0
  149.4353  139.5357  154.1143 C   0  0  0  0  0  0  0  0  0  0  0  0
  149.9544  140.8021  154.6038 C   0  0  0  0  0  0  0  0  0  0  0  0
  151.1046  140.8622  155.5968 C   0  0  0  0  0  0  0  0  0  0  0  0
  152.2160  140.3352  155.0813 F   0  0  0  0  0  0  0  0  0  0  0  0
  151.3647  142.1199  155.9543 F   0  0  0  0  0  0  0  0  0  0  0  0
  150.7907  140.1756  156.6947 F   0  0  0  0  0  0  0  0  0  0  0  0
  149.3099  141.9118  154.1985 C   0  0  0  0  0  0  0  0  0  0  0  0
  148.2188  141.8529  153.3289 N   0  0  0  0  0  0  0  0  0  0  0  0
  147.6969  140.7053  152.8408 C   0  0  0  0  0  0  0  0  0  0  0  0
  146.7312  140.7378  152.0787 O   0  0  0  0  0  0  0  0  0  0  0  0
  147.8000  142.7311  153.0578 H   0  0  0  0  0  0  0  0  0  0  0  0
  147.2805  136.1960  151.8991 H   0  0  0  0  0  0  0  0  0  0  0  0
  144.6108  135.9351  152.7317 H   0  0  0  0  0  0  0  0  0  0  0  0
  144.5609  136.5677  151.1093 H   0  0  0  0  0  0  0  0  0  0  0  0
  146.0603  134.6524  150.3774 H   0  0  0  0  0  0  0  0  0  0  0  0
  143.4120  133.8508  151.6597 H   0  0  0  0  0  0  0  0  0  0  0  0
  143.6324  134.3949  150.0118 H   0  0  0  0  0  0  0  0  0  0  0  0
  143.4886  131.8939  150.1734 H   0  0  0  0  0  0  0  0  0  0  0  0
  144.9937  132.4348  149.4639 H   0  0  0  0  0  0  0  0  0  0  0  0
  144.6122  131.5606  152.3815 H   0  0  0  0  0  0  0  0  0  0  0  0
  145.4748  130.6825  151.1329 H   0  0  0  0  0  0  0  0  0  0  0  0
  147.1133  134.1536  152.5505 H   0  0  0  0  0  0  0  0  0  0  0  0
  145.5833  133.6264  153.2195 H   0  0  0  0  0  0  0  0  0  0  0  0
  148.4992  137.6177  152.4360 H   0  0  0  0  0  0  0  0  0  0  0  0
  149.9565  138.6451  154.4241 H   0  0  0  0  0  0  0  0  0  0  0  0
  149.5705  142.9134  154.5070 H   0  0  0  0  0  0  0  0  0  0  0  0
  1  2  2  0  0  0  0
  2  3  1  0  0  0  0
  2 11  1  0  0  0  0
  3  4  1  0  0  0  0
  3 24  1  0  0  0  0
  4  5  1  0  0  0  0
  4 25  1  0  0  0  0
  4 26  1  0  0  0  0
  5 10  1  0  0  0  0
  5  6  1  0  0  0  0
  5 27  1  0  0  0  0
  6  7  1  0  0  0  0
  6 28  1  0  0  0  0
  6 29  1  0  0  0  0
  7  8  1  0  0  0  0
  7 30  1  0  0  0  0
  7 31  1  0  0  0  0
  8  9  1  0  0  0  0
  8 32  1  0  0  0  0
  8 33  1  0  0  0  0
  9 10  1  0  0  0  0
 10 34  1  0  0  0  0
 10 35  1  0  0  0  0
 11 12  1  0  0  0  0
 11 36  1  0  0  0  0
 12 21  1  0  0  0  0
 12 13  2  0  0  0  0
 13 14  1  0  0  0  0
 13 37  1  0  0  0  0
 14 15  1  0  0  0  0
 14 19  2  0  0  0  0
 15 16  1  0  0  0  0
 15 17  1  0  0  0  0
 15 18  1  0  0  0  0
 19 20  1  0  0  0  0
 19 38  1  0  0  0  0
 20 23  1  0  0  0  0
 20 21  1  0  0  0  0
 21 22  2  0  0  0  0
M  END
> <s_m_source_file>
AV-unprocessed.smi

> <i_m_source_file_index>
1724

> <i_lp_mmshare_version>
43012

> <i_f3d_flags>
0

> <s_epik_input>
Tz1jMVtuSF1bY0hdYyhDKEYpKEYpRilbY0hdYzFbTkhdQyg9TylbTkhdW0NIMl1bQ0BASF0yW0NIMl1bQ0gyXVtDSDJdT1tDSDJdMg==

> <s_epik_cmdline>
J2VwaWtfcHl0aG9uJywgJy1waCcsICc3LjAnLCAnLXRuJywgJzgnLCAnLW1hJywgJzIwMCcsICctbWV0YWxfYmluZGluZycsICctaW1hZScsICc8aW5maWxlLm1hZT4nLCAnLW9tYWUnLCAnPG91dGZpbGUubWFlPic=

> <r_lp_tautomer_probability>
1

> <r_epik_Ionization_Penalty>
0.00384958

> <r_epik_Ionization_Penalty_Charging>
0.00382926

> <r_epik_Ionization_Penalty_Neutral>
2.03186e-05

> <r_epik_State_Penalty>
-0

> <r_epik_Charging_Adjusted_Penalty>
0.00382926

> <i_epik_Tot_Q>
0

> <i_epik_Tot_abs_Q>
0

> <r_epik_Metal_State_Penalty>
0.371494

> <b_epik_Metal_Only>
0

> <s_lp_Force_Field>
OPLS_2005

> <r_lp_Energy>
21.9541

> <b_lp_Chiralities_Consistent>
1

> <s_lp_Variant>
AV-unprocessed.smi:1724-1

> <Gold.Version>
5.8.1

> <Gold.Id.Protein>
6NUR|6NUR_protein|mol2

> <Gold.PLP.Fitness>
41.0064

> <Gold.PLP.PLP>
-34.1698

> <Gold.PLP.part.hbond>
-2.2407

> <Gold.PLP.part.metal>
0.0000

> <Gold.PLP.part.buried>
-2.8457

> <Gold.PLP.part.nonpolar>
-32.9859

> <Gold.PLP.part.repulsive>
3.5998

> <Gold.PLP.ligand.clash>
1.4149

> <Gold.PLP.ligand.torsion>
0.3610

> <Gold.PLP.Chemscore.Hbond>
1.9760

> <Gold.PLP.Chemscore.CHOScore>
1.0000

> <Gold.PLP.Chemscore.Metal>
0.0000

> <Gold.Chemscore.Hbonds>
donor molecule, donor type, donor heavy atom, donor atom, acceptor molecule, acceptor atom, score
      L1  H     3    24       P1  7948  0.96
      L1  H    11    36       P1  7948  1.00
      L1  C    19    38       P1  8028  1.00

> <Gold.PLP.Chemscore.Internal.Correction>
0.0455

> <Gold.Rescore>
     Score         DG    S(hbond)    S(metal)    S(lipo)     H(rot)  DE(clash)    DE(int)     intcor
     12.80     -16.36       1.94        0.00      66.79       1.33       0.46       3.10       ----

> <Gold.Chemscore.Fitness>
12.7968

> <Gold.Chemscore.DG>
-16.3571

> <Gold.Chemscore.ZeroCoef>
-5.4800

> <Gold.Chemscore.Hbond>
1.9399

> <Gold.Chemscore.Metal>
0.0000

> <Gold.Chemscore.Lipo>
66.7858

> <Gold.Chemscore.Internal_Hbond>
0.0000

> <Gold.Chemscore.DEClash>
0.4641

> <Gold.Chemscore.DEInternal>
3.0962

> <Gold.Chemscore.Rot>
1.3344

> <Gold.Chemscore.Internal.Correction>
   9.000000E+99

> <Gold.Chemscore.Hbonds>
donor molecule, donor type, donor heavy atom, donor atom, acceptor molecule, acceptor atom, score
      L1  H     3    24       P1  7948  0.92
      L1  H    11    36       P1  7948  0.93

> <Gold.Chemscore.Hbond.Weighted>
-6.4792

> <Gold.Chemscore.Metal.Weighted>
-0.0000

> <Gold.Chemscore.Lipo.Weighted>
-7.8139

> <Gold.Chemscore.Internal_Hbond.Weighted>
0.0000

> <Gold.Chemscore.DEClash.Weighted>
0.4641

> <Gold.Chemscore.DEInternal.Weighted>
3.0962

> <Gold.Chemscore.Rot.Weighted>
3.4160

> <Gold.Chemscore.Internal.Correction.Weighted>
   9.000000E+99

> <Gold.Protein.RotatedTorsions>
[ 6907 6896 6895 6894 ] final -169.37 input  -60.11 | X-H torsion
[ 7974 7965 7964 7962 ] final  -68.60 input  175.53 | X-H torsion
[ 8008 7997 7996 7995 ] final  -73.88 input   59.86 | X-H torsion
[ 10167 10162 10161 10158 ] final  127.95 input  -65.29 | X-H torsion
[ 10718 10713 10712 10709 ] final -168.08 input   66.30 | X-H torsion
[ 10763 10752 10751 10750 ] final  -13.83 input  -60.55 | X-H torsion
[ 11005 11000 10999 10996 ] final  -79.30 input  -57.11 | X-H torsion

> <Gold.Protein.ActiveResidues>
 VAL166  LYS551  ARG553  GLY616  TRP617  ASP618  TYR619  PRO620  LYS621  CYS622 
 ASP623  PHE694  ASN695  SER759  ASP760  ASP761  ALA762  ILE779  LEU786  VAL792 
 PHE793  MET794  SER795  GLU796  ALA797  LYS798  CYS799  TRP800  GLU811  SER814 

> <Gold.Protein.RotatedAtoms>
  151.4906  133.3526  159.2852 H   0  0  0  0  0  0  0  0  0  0  0  0  # atno 6907 bound_to 6896
  150.8837  134.8234  159.7254 H   0  0  0  0  0  0  0  0  0  0  0  0  # atno 6908 bound_to 6896
  152.4779  134.4807  159.9716 H   0  0  0  0  0  0  0  0  0  0  0  0  # atno 6909 bound_to 6896
  145.7145  140.9065  143.0663 H   0  0  0  0  0  0  0  0  0  0  0  0  # atno 7974 bound_to 7965
  154.5284  140.0771  156.8300 H   0  0  0  0  0  0  0  0  0  0  0  0  # atno 8008 bound_to 7997
  155.3427  140.3408  155.4221 H   0  0  0  0  0  0  0  0  0  0  0  0  # atno 8009 bound_to 7997
  156.1756  140.1634  156.8356 H   0  0  0  0  0  0  0  0  0  0  0  0  # atno 8010 bound_to 7997
  139.5552  144.6843  151.4204 H   0  0  0  0  0  0  0  0  0  0  0  0  # atno 10167 bound_to 10162
  156.6918  130.9162  151.3070 H   0  0  0  0  0  0  0  0  0  0  0  0  # atno 10718 bound_to 10713
  153.5191  135.7016  153.5741 H   0  0  0  0  0  0  0  0  0  0  0  0  # atno 10763 bound_to 10752
  153.3797  135.3923  155.1848 H   0  0  0  0  0  0  0  0  0  0  0  0  # atno 10764 bound_to 10752
  154.8696  135.3832  154.4678 H   0  0  0  0  0  0  0  0  0  0  0  0  # atno 10765 bound_to 10752
  141.1667  133.7100  156.8102 H   0  0  0  0  0  0  0  0  0  0  0  0  # atno 11005 bound_to 11000
  144.6933  139.9119  143.7464 LP  0  0  0  0  0  0  0  0  0  0  0  0  # atno 17320 bound_to 7965
  146.0682  139.3672  143.0539 LP  0  0  0  0  0  0  0  0  0  0  0  0  # atno 17321 bound_to 7965
  140.6823  143.8053  150.7138 LP  0  0  0  0  0  0  0  0  0  0  0  0  # atno 17342 bound_to 10162
  140.1510  143.4357  152.2131 LP  0  0  0  0  0  0  0  0  0  0  0  0  # atno 17343 bound_to 10162
  157.7006  130.9329  150.0774 LP  0  0  0  0  0  0  0  0  0  0  0  0  # atno 17370 bound_to 10713
  156.1792  130.3649  149.9058 LP  0  0  0  0  0  0  0  0  0  0  0  0  # atno 17371 bound_to 10713
  140.2193  134.8769  157.3359 LP  0  0  0  0  0  0  0  0  0  0  0  0  # atno 17394 bound_to 11000
  140.2005  134.4261  155.7665 LP  0  0  0  0  0  0  0  0  0  0  0  0  # atno 17395 bound_to 11000

$$$$
