AV-unprocessed.smi:2303|AV-procd|sdf|9242|dock2
  -GOLD-   2272012463D 1   1.00000     0.00000
 Structure written by MMmdl.
 33 34  0  0  0  0  0  0  0  0  1 V2000
  152.1876  144.1110  158.1008 C   0  0  0  0  0  0  0  0  0  0  0  0
  151.5949  143.0751  159.0728 C   0  0  0  0  0  0  0  0  0  0  0  0
  152.2132  143.2314  160.4735 C   0  0  0  0  0  0  0  0  0  0  0  0
  151.6909  141.6341  158.5698 C   0  0  0  0  0  0  0  0  0  0  0  0
  151.9488  140.5399  159.3147 C   0  0  0  0  0  0  0  0  0  0  0  0
  152.0074  139.2396  158.6696 C   0  0  0  0  0  0  0  0  0  0  0  0
  152.2197  138.0601  159.5101 C   0  0  0  0  0  0  0  0  0  0  0  0
  151.3910  137.1555  159.6148 O   0  0  0  0  0  0  0  0  0  0  0  0
  153.3902  138.0060  160.1853 N   0  0  0  0  0  0  0  0  0  0  0  0
  153.8202  136.9887  161.1355 C   0  0  0  0  0  0  0  0  0  0  0  0
  154.9574  137.6523  161.8908 C   0  0  0  0  0  0  0  0  0  0  0  0
  154.6234  139.1291  161.7521 C   0  0  0  0  0  0  0  0  0  0  0  0
  154.0802  139.2080  160.4456 O   0  0  0  0  0  0  0  0  0  0  0  0
  151.7751  139.1379  157.3373 C   0  0  0  0  0  0  0  0  0  0  0  0
  151.5115  140.3216  156.5161 C   0  0  0  0  0  0  0  0  0  0  0  0
  151.3208  140.2815  155.3029 O   0  0  0  0  0  0  0  0  0  0  0  0
  151.4865  141.4952  157.1887 N   0  0  0  0  0  0  0  0  0  0  0  0
  151.7122  144.0545  157.1211 H   0  0  0  0  0  0  0  0  0  0  0  0
  153.2603  143.9665  157.9666 H   0  0  0  0  0  0  0  0  0  0  0  0
  152.0378  145.1247  158.4736 H   0  0  0  0  0  0  0  0  0  0  0  0
  150.5300  143.2960  159.1597 H   0  0  0  0  0  0  0  0  0  0  0  0
  151.7239  142.5912  161.2080 H   0  0  0  0  0  0  0  0  0  0  0  0
  152.1204  144.2576  160.8301 H   0  0  0  0  0  0  0  0  0  0  0  0
  153.2740  142.9788  160.4658 H   0  0  0  0  0  0  0  0  0  0  0  0
  152.1118  140.6181  160.3796 H   0  0  0  0  0  0  0  0  0  0  0  0
  153.0002  136.7416  161.8121 H   0  0  0  0  0  0  0  0  0  0  0  0
  154.1398  136.0765  160.6308 H   0  0  0  0  0  0  0  0  0  0  0  0
  155.0327  137.3259  162.9283 H   0  0  0  0  0  0  0  0  0  0  0  0
  155.9060  137.4400  161.3956 H   0  0  0  0  0  0  0  0  0  0  0  0
  153.8639  139.4246  162.4776 H   0  0  0  0  0  0  0  0  0  0  0  0
  155.4911  139.7779  161.8718 H   0  0  0  0  0  0  0  0  0  0  0  0
  151.7671  138.1720  156.8525 H   0  0  0  0  0  0  0  0  0  0  0  0
  151.3046  142.3421  156.6699 H   0  0  0  0  0  0  0  0  0  0  0  0
  1  2  1  0  0  0  0
  1 18  1  0  0  0  0
  1 19  1  0  0  0  0
  1 20  1  0  0  0  0
  2  3  1  0  0  0  0
  2 21  1  0  0  0  0
  2  4  1  0  0  0  0
  3 22  1  0  0  0  0
  3 23  1  0  0  0  0
  3 24  1  0  0  0  0
  4 17  1  0  0  0  0
  4  5  2  0  0  0  0
  5 25  1  0  0  0  0
  5  6  1  0  0  0  0
  6  7  1  0  0  0  0
  6 14  2  0  0  0  0
  7  8  2  0  0  0  0
  7  9  1  0  0  0  0
  9 13  1  0  0  0  0
  9 10  1  0  0  0  0
 10 11  1  0  0  0  0
 10 26  1  0  0  0  0
 10 27  1  0  0  0  0
 11 12  1  0  0  0  0
 11 28  1  0  0  0  0
 11 29  1  0  0  0  0
 12 13  1  0  0  0  0
 12 30  1  0  0  0  0
 12 31  1  0  0  0  0
 14 15  1  0  0  0  0
 14 32  1  0  0  0  0
 15 16  2  0  0  0  0
 15 17  1  0  0  0  0
 17 33  1  0  0  0  0
M  END
> <s_m_source_file>
AV-unprocessed.smi

> <i_m_source_file_index>
2303

> <i_lp_mmshare_version>
43012

> <i_f3d_flags>
0

> <s_epik_input>
W0NIM11bQ0hdKFtDSDNdKWMxW2NIXWMoW2NIXWMobjEpW09IXSlDKD1PKU4yW0NIMl1bQ0gyXVtDSDJdTzI=

> <s_epik_cmdline>
J2VwaWtfcHl0aG9uJywgJy1waCcsICc3LjAnLCAnLXRuJywgJzgnLCAnLW1hJywgJzIwMCcsICctbWV0YWxfYmluZGluZycsICctaW1hZScsICc8aW5maWxlLm1hZT4nLCAnLW9tYWUnLCAnPG91dGZpbGUubWFlPic=

> <r_lp_tautomer_probability>
1

> <r_epik_Ionization_Penalty>
8.70942e-05

> <r_epik_Ionization_Penalty_Charging>
8.7046e-05

> <r_epik_Ionization_Penalty_Neutral>
4.82304e-08

> <r_epik_State_Penalty>
-0

> <r_epik_Charging_Adjusted_Penalty>
8.7046e-05

> <i_epik_Tot_Q>
0

> <i_epik_Tot_abs_Q>
0

> <r_epik_Metal_State_Penalty>
0.0811253

> <b_epik_Metal_Only>
0

> <s_epik_Chemistry_Notes>
This compound has a N-S or N-O group and may undergo hydrolysis at high or low pH.

> <s_lp_Force_Field>
OPLS_2005

> <r_lp_Energy>
27.1372

> <b_lp_Chiralities_Consistent>
1

> <s_lp_Variant>
AV-unprocessed.smi:2303-1

> <Gold.Version>
5.8.1

> <Gold.Id.Protein>
6NUR|6NUR_protein|mol2

> <Gold.PLP.Fitness>
35.0016

> <Gold.PLP.PLP>
-31.3584

> <Gold.PLP.part.hbond>
-2.0000

> <Gold.PLP.part.metal>
0.0000

> <Gold.PLP.part.buried>
-4.4553

> <Gold.PLP.part.nonpolar>
-25.4062

> <Gold.PLP.part.repulsive>
0.1122

> <Gold.PLP.ligand.clash>
0.0000

> <Gold.PLP.ligand.torsion>
1.7874

> <Gold.PLP.Chemscore.Hbond>
2.0000

> <Gold.PLP.Chemscore.CHOScore>
0.0000

> <Gold.PLP.Chemscore.Metal>
0.0000

> <Gold.Chemscore.Hbonds>
donor molecule, donor type, donor heavy atom, donor atom, acceptor molecule, acceptor atom, score
      P1  H  6896  6908       L1     8  1.00
      P1  H  7989  7998       L1    16  1.00

> <Gold.PLP.Chemscore.Internal.Correction>
1.2181

> <Gold.Rescore>
     Score         DG    S(hbond)    S(metal)    S(lipo)     H(rot)  DE(clash)    DE(int)     intcor
     15.76     -18.57       1.96        0.00      77.83       1.00       0.04       2.78       ----

> <Gold.Chemscore.Fitness>
15.7588

> <Gold.Chemscore.DG>
-18.5716

> <Gold.Chemscore.ZeroCoef>
-5.4800

> <Gold.Chemscore.Hbond>
1.9597

> <Gold.Chemscore.Metal>
0.0000

> <Gold.Chemscore.Lipo>
77.8293

> <Gold.Chemscore.Internal_Hbond>
0.0000

> <Gold.Chemscore.DEClash>
0.0354

> <Gold.Chemscore.DEInternal>
2.7774

> <Gold.Chemscore.Rot>
1.0000

> <Gold.Chemscore.Internal.Correction>
   9.000000E+99

> <Gold.Chemscore.Hbonds>
donor molecule, donor type, donor heavy atom, donor atom, acceptor molecule, acceptor atom, score
      P1  H  6896  6908       L1     8  0.93
      P1  H  7989  7998       L1    16  0.94

> <Gold.Chemscore.Hbond.Weighted>
-6.5456

> <Gold.Chemscore.Metal.Weighted>
-0.0000

> <Gold.Chemscore.Lipo.Weighted>
-9.1060

> <Gold.Chemscore.Internal_Hbond.Weighted>
0.0000

> <Gold.Chemscore.DEClash.Weighted>
0.0354

> <Gold.Chemscore.DEInternal.Weighted>
2.7774

> <Gold.Chemscore.Rot.Weighted>
2.5600

> <Gold.Chemscore.Internal.Correction.Weighted>
   9.000000E+99

> <Gold.Protein.RotatedTorsions>
[ 6907 6896 6895 6894 ] final -136.15 input  -60.11 | X-H torsion
[ 7974 7965 7964 7962 ] final -118.72 input  175.53 | X-H torsion
[ 8008 7997 7996 7995 ] final  -97.52 input   59.86 | X-H torsion
[ 10167 10162 10161 10158 ] final   81.23 input  -65.29 | X-H torsion
[ 10718 10713 10712 10709 ] final -146.83 input   66.30 | X-H torsion
[ 10763 10752 10751 10750 ] final -104.76 input  -60.55 | X-H torsion
[ 11005 11000 10999 10996 ] final  -91.56 input  -57.11 | X-H torsion

> <Gold.Protein.ActiveResidues>
 VAL166  LYS551  ARG553  GLY616  TRP617  ASP618  TYR619  PRO620  LYS621  CYS622 
 ASP623  PHE694  ASN695  SER759  ASP760  ASP761  ALA762  ILE779  LEU786  VAL792 
 PHE793  MET794  SER795  GLU796  ALA797  LYS798  CYS799  TRP800  GLU811  SER814 

> <Gold.Protein.RotatedAtoms>
  151.0065  133.6006  159.2687 H   0  0  0  0  0  0  0  0  0  0  0  0  # atno 6907 bound_to 6896
  151.3173  135.0809  159.9303 H   0  0  0  0  0  0  0  0  0  0  0  0  # atno 6908 bound_to 6896
  152.5288  133.9719  159.7820 H   0  0  0  0  0  0  0  0  0  0  0  0  # atno 6909 bound_to 6896
  145.0706  140.8356  143.4098 H   0  0  0  0  0  0  0  0  0  0  0  0  # atno 7974 bound_to 7965
  154.7888  140.0462  157.1185 H   0  0  0  0  0  0  0  0  0  0  0  0  # atno 8008 bound_to 7997
  154.9615  140.3078  155.5009 H   0  0  0  0  0  0  0  0  0  0  0  0  # atno 8009 bound_to 7997
  156.2947  140.2270  156.4701 H   0  0  0  0  0  0  0  0  0  0  0  0  # atno 8010 bound_to 7997
  139.9414  144.6087  150.8248 H   0  0  0  0  0  0  0  0  0  0  0  0  # atno 10167 bound_to 10162
  156.3999  130.7928  151.2138 H   0  0  0  0  0  0  0  0  0  0  0  0  # atno 10718 bound_to 10713
  154.7901  135.4774  154.0032 H   0  0  0  0  0  0  0  0  0  0  0  0  # atno 10763 bound_to 10752
  153.1617  135.6810  153.8739 H   0  0  0  0  0  0  0  0  0  0  0  0  # atno 10764 bound_to 10752
  153.8351  135.3186  155.3400 H   0  0  0  0  0  0  0  0  0  0  0  0  # atno 10765 bound_to 10752
  141.1542  133.7764  156.9897 H   0  0  0  0  0  0  0  0  0  0  0  0  # atno 11005 bound_to 11000
  145.1297  139.2640  143.5546 LP  0  0  0  0  0  0  0  0  0  0  0  0  # atno 17320 bound_to 7965
  146.3528  140.0944  142.8611 LP  0  0  0  0  0  0  0  0  0  0  0  0  # atno 17321 bound_to 7965
  140.7610  143.3163  151.2725 LP  0  0  0  0  0  0  0  0  0  0  0  0  # atno 17342 bound_to 10162
  139.6701  144.0034  152.2748 LP  0  0  0  0  0  0  0  0  0  0  0  0  # atno 17343 bound_to 10162
  157.7503  131.0290  150.4073 LP  0  0  0  0  0  0  0  0  0  0  0  0  # atno 17370 bound_to 10713
  156.4351  130.3980  149.6734 LP  0  0  0  0  0  0  0  0  0  0  0  0  # atno 17371 bound_to 10713
  140.1011  134.9535  157.1924 LP  0  0  0  0  0  0  0  0  0  0  0  0  # atno 17394 bound_to 11000
  140.3317  134.2802  155.7227 LP  0  0  0  0  0  0  0  0  0  0  0  0  # atno 17395 bound_to 11000

$$$$
