AV-unprocessed.smi:1487|AV-procd|sdf|6021|dock9
  -GOLD-   22720 6123D 1   1.00000     0.00000
 Structure written by MMmdl.
 49 51  0  0  0  0  0  0  0  0  3 V2000
  152.8833  142.8149  161.0643 C   0  0  0  0  0  0  0  0  0  0  0  0
  152.1143  142.4561  159.8040 C   0  0  0  0  0  0  0  0  0  0  0  0
  152.1381  141.1155  159.3586 C   0  0  0  0  0  0  0  0  0  0  0  0
  151.4265  140.8183  158.2024 C   0  0  0  0  0  0  0  0  0  0  0  0
  151.2575  139.6124  157.5195 N   0  3  0  0  0  0  0  0  0  0  0  0
  150.4708  139.8148  156.4270 C   0  0  0  0  0  0  0  0  0  0  0  0
  150.1295  141.1324  156.4041 N   0  0  0  0  0  0  0  0  0  0  0  0
  149.3109  141.8681  155.4297 C   0  0  0  0  0  0  0  0  0  0  0  0
  148.6647  140.9567  154.3665 C   0  0  2  0  0  0  0  0  0  0  0  0
  149.5703  140.8776  153.2842 O   0  0  0  0  0  0  0  0  0  0  0  0
  147.3028  141.4770  153.8531 C   0  0  0  0  0  0  0  0  0  0  0  0
  146.4093  140.3982  153.3566 N   0  3  2  0  0  0  0  0  0  0  0  0
  146.0375  139.4441  154.4343 C   0  0  0  0  0  0  0  0  0  0  0  0
  144.9999  138.4217  153.9415 C   0  0  0  0  0  0  0  0  0  0  0  0
  145.5138  137.6700  152.7073 C   0  0  0  0  0  0  0  0  0  0  0  0
  145.9193  138.6740  151.6183 C   0  0  2  0  0  0  0  0  0  0  0  0
  146.4780  137.9769  150.5254 O   0  0  0  0  0  0  0  0  0  0  0  0
  146.9413  139.6904  152.1606 C   0  0  0  0  0  0  0  0  0  0  0  0
  150.7080  141.7999  157.4917 C   0  0  0  0  0  0  0  0  0  0  0  0
  150.6747  143.1263  157.9181 C   0  0  0  0  0  0  0  0  0  0  0  0
  151.3915  143.4485  159.0928 C   0  0  0  0  0  0  0  0  0  0  0  0
  151.3727  144.8870  159.5812 C   0  0  0  0  0  0  0  0  0  0  0  0
  153.3694  141.9403  161.4974 H   0  0  0  0  0  0  0  0  0  0  0  0
  152.2137  143.2301  161.8178 H   0  0  0  0  0  0  0  0  0  0  0  0
  153.6568  143.5509  160.8441 H   0  0  0  0  0  0  0  0  0  0  0  0
  152.6878  140.3550  159.8943 H   0  0  0  0  0  0  0  0  0  0  0  0
  150.1757  139.0658  155.7059 H   0  0  0  0  0  0  0  0  0  0  0  0
  148.5585  142.4545  155.9571 H   0  0  0  0  0  0  0  0  0  0  0  0
  149.9701  142.5909  154.9465 H   0  0  0  0  0  0  0  0  0  0  0  0
  148.5605  139.9597  154.7930 H   0  0  0  0  0  0  0  0  0  0  0  0
  149.3307  140.1490  152.7324 H   0  0  0  0  0  0  0  0  0  0  0  0
  146.7779  142.0304  154.6325 H   0  0  0  0  0  0  0  0  0  0  0  0
  147.4934  142.1899  153.0493 H   0  0  0  0  0  0  0  0  0  0  0  0
  146.9317  138.9311  154.7921 H   0  0  0  0  0  0  0  0  0  0  0  0
  145.6229  139.9883  155.2840 H   0  0  0  0  0  0  0  0  0  0  0  0
  144.7659  137.7141  154.7375 H   0  0  0  0  0  0  0  0  0  0  0  0
  144.0678  138.9334  153.6983 H   0  0  0  0  0  0  0  0  0  0  0  0
  146.3689  137.0522  152.9857 H   0  0  0  0  0  0  0  0  0  0  0  0
  144.7452  136.9921  152.3341 H   0  0  0  0  0  0  0  0  0  0  0  0
  145.0329  139.2019  151.2635 H   0  0  0  0  0  0  0  0  0  0  0  0
  145.9169  138.0872  149.7727 H   0  0  0  0  0  0  0  0  0  0  0  0
  147.1813  140.4031  151.3728 H   0  0  0  0  0  0  0  0  0  0  0  0
  147.8728  139.1863  152.4248 H   0  0  0  0  0  0  0  0  0  0  0  0
  150.1269  143.8860  157.3809 H   0  0  0  0  0  0  0  0  0  0  0  0
  150.7861  145.5264  158.9211 H   0  0  0  0  0  0  0  0  0  0  0  0
  152.3847  145.2906  159.6220 H   0  0  0  0  0  0  0  0  0  0  0  0
  150.9353  144.9468  160.5781 H   0  0  0  0  0  0  0  0  0  0  0  0
  145.5493  140.8474  153.0760 H   0  0  0  0  0  0  0  0  0  0  0  0
  151.6551  138.7171  157.7748 H   0  0  0  0  0  0  0  0  0  0  0  0
  1  2  1  0  0  0  0
  1 23  1  0  0  0  0
  1 24  1  0  0  0  0
  1 25  1  0  0  0  0
  2 21  1  0  0  0  0
  2  3  2  0  0  0  0
  3  4  1  0  0  0  0
  3 26  1  0  0  0  0
  4 19  2  0  0  0  0
  4  5  1  0  0  0  0
  5  6  2  0  0  0  0
  5 49  1  0  0  0  0
  6  7  1  0  0  0  0
  6 27  1  0  0  0  0
  7  8  1  0  0  0  0
  7 19  1  0  0  0  0
  8  9  1  0  0  0  0
  8 28  1  0  0  0  0
  8 29  1  0  0  0  0
  9 10  1  0  0  0  0
  9 11  1  0  0  0  0
  9 30  1  0  0  0  0
 10 31  1  0  0  0  0
 11 12  1  0  0  0  0
 11 32  1  0  0  0  0
 11 33  1  0  0  0  0
 12 18  1  0  0  0  0
 12 13  1  0  0  0  0
 12 48  1  0  0  0  0
 13 14  1  0  0  0  0
 13 34  1  0  0  0  0
 13 35  1  0  0  0  0
 14 15  1  0  0  0  0
 14 36  1  0  0  0  0
 14 37  1  0  0  0  0
 15 16  1  0  0  0  0
 15 38  1  0  0  0  0
 15 39  1  0  0  0  0
 16 17  1  0  0  0  0
 16 18  1  0  0  0  0
 16 40  1  0  0  0  0
 17 41  1  0  0  0  0
 18 42  1  0  0  0  0
 18 43  1  0  0  0  0
 19 20  1  0  0  0  0
 20 21  2  0  0  0  0
 20 44  1  0  0  0  0
 21 22  1  0  0  0  0
 22 45  1  0  0  0  0
 22 46  1  0  0  0  0
 22 47  1  0  0  0  0
M  CHG  1   5   1
M  CHG  1  12   1
M  END
> <s_m_source_file>
AV-unprocessed.smi

> <i_m_source_file_index>
1487

> <i_lp_mmshare_version>
43012

> <i_f3d_flags>
0

> <s_epik_input>
W0NIM11jKFtjSF0xKWMoW0NIM10pW2NIXWMoYzEyKW4oW2NIXW4yKVtDSDJdW0NASF0oW09IXSlbQ0gyXU4zW0NIMl1bQ0gyXVtDSDJdW0NAQEhdKFtPSF0pW0NIMl0z

> <s_epik_cmdline>
J2VwaWtfcHl0aG9uJywgJy1waCcsICc3LjAnLCAnLXRuJywgJzgnLCAnLW1hJywgJzIwMCcsICctbWV0YWxfYmluZGluZycsICctaW1hZScsICc8aW5maWxlLm1hZT4nLCAnLW9tYWUnLCAnPG91dGZpbGUubWFlPic=

> <r_epik_Ionization_Penalty>
1.1857

> <r_epik_Ionization_Penalty_Charging>
1.1857

> <r_epik_Ionization_Penalty_Neutral>
1.75578e-06

> <r_epik_State_Penalty>
1.26953

> <r_epik_Charging_Adjusted_Penalty>
2.45524

> <i_epik_Tot_Q>
2

> <i_epik_Tot_abs_Q>
2

> <r_epik_Metal_State_Penalty>
5.28243

> <b_epik_Metal_Only>
0

> <s_lp_Force_Field>
OPLS_2005

> <r_lp_Energy>
34.3912

> <b_lp_Chiralities_Consistent>
1

> <s_lp_Variant>
AV-unprocessed.smi:1487-15

> <Gold.Version>
5.8.1

> <Gold.Id.Protein>
6NUR|6NUR_protein|mol2

> <Gold.PLP.Fitness>
58.2804

> <Gold.PLP.PLP>
-44.4441

> <Gold.PLP.part.hbond>
-6.0021

> <Gold.PLP.part.metal>
0.0000

> <Gold.PLP.part.buried>
-0.4118

> <Gold.PLP.part.nonpolar>
-40.1611

> <Gold.PLP.part.repulsive>
0.0669

> <Gold.PLP.ligand.clash>
0.0000

> <Gold.PLP.ligand.torsion>
0.7369

> <Gold.PLP.Chemscore.Hbond>
5.0944

> <Gold.PLP.Chemscore.CHOScore>
0.0000

> <Gold.PLP.Chemscore.Metal>
0.0000

> <Gold.Chemscore.Hbonds>
donor molecule, donor type, donor heavy atom, donor atom, acceptor molecule, acceptor atom, score
      L1  H    10    31       P1  7957  0.51
      L1  H    12    48       P1 10175  1.76
      L1  H    17    41       P1 10171  0.48
      P1  H  7954  7966       L1    17  0.93
      P1  H  7989  7998       L1    10  0.22
      P1  H  8011  8017       L1    10  1.00

> <Gold.PLP.Chemscore.Internal.Correction>
0.0269

> <Gold.Rescore>
     Score         DG    S(hbond)    S(metal)    S(lipo)     H(rot)  DE(clash)    DE(int)     intcor
     22.81     -25.19       3.65        0.00     124.09       2.74       1.51       0.87       ----

> <Gold.Chemscore.Fitness>
22.8073

> <Gold.Chemscore.DG>
-25.1874

> <Gold.Chemscore.ZeroCoef>
-5.4800

> <Gold.Chemscore.Hbond>
3.6524

> <Gold.Chemscore.Metal>
0.0000

> <Gold.Chemscore.Lipo>
124.0932

> <Gold.Chemscore.Internal_Hbond>
0.0000

> <Gold.Chemscore.DEClash>
1.5070

> <Gold.Chemscore.DEInternal>
0.8731

> <Gold.Chemscore.Rot>
2.7384

> <Gold.Chemscore.Internal.Correction>
   9.000000E+99

> <Gold.Chemscore.Hbonds>
donor molecule, donor type, donor heavy atom, donor atom, acceptor molecule, acceptor atom, score
      L1  H    10    31       P1  7957  0.49
      L1  H    12    48       P1 10175  0.46
      L1  H    17    41       P1 10171  0.46
      P1  H  7954  7966       L1    17  0.50
      P1  H  7989  7998       L1    10  0.14
      P1  H  8011  8017       L1    10  0.76

> <Gold.Chemscore.Hbond.Weighted>
-12.1989

> <Gold.Chemscore.Metal.Weighted>
-0.0000

> <Gold.Chemscore.Lipo.Weighted>
-14.5189

> <Gold.Chemscore.Internal_Hbond.Weighted>
0.0000

> <Gold.Chemscore.DEClash.Weighted>
1.5070

> <Gold.Chemscore.DEInternal.Weighted>
0.8731

> <Gold.Chemscore.Rot.Weighted>
7.0103

> <Gold.Chemscore.Internal.Correction.Weighted>
   9.000000E+99

> <Gold.Protein.RotatedTorsions>
[ 6907 6896 6895 6894 ] final   35.94 input  -60.11 | X-H torsion
[ 7974 7965 7964 7962 ] final  148.42 input  175.53 | X-H torsion
[ 8008 7997 7996 7995 ] final  -87.58 input   59.86 | X-H torsion
[ 10167 10162 10161 10158 ] final  154.85 input  -65.29 | X-H torsion
[ 10718 10713 10712 10709 ] final  -88.92 input   66.30 | X-H torsion
[ 10763 10752 10751 10750 ] final  -84.68 input  -60.55 | X-H torsion
[ 11005 11000 10999 10996 ] final   57.15 input  -57.11 | X-H torsion

> <Gold.Protein.ActiveResidues>
 VAL166  LYS551  ARG553  GLY616  TRP617  ASP618  TYR619  PRO620  LYS621  CYS622 
 ASP623  PHE694  ASN695  SER759  ASP760  ASP761  ALA762  ILE779  LEU786  VAL792 
 PHE793  MET794  SER795  GLU796  ALA797  LYS798  CYS799  TRP800  GLU811  SER814 

> <Gold.Protein.RotatedAtoms>
  152.1230  134.9191  160.0562 H   0  0  0  0  0  0  0  0  0  0  0  0  # atno 6907 bound_to 6896
  152.0325  133.3938  159.4311 H   0  0  0  0  0  0  0  0  0  0  0  0  # atno 6908 bound_to 6896
  150.6850  134.3426  159.4918 H   0  0  0  0  0  0  0  0  0  0  0  0  # atno 6909 bound_to 6896
  144.8515  139.6152  143.5972 H   0  0  0  0  0  0  0  0  0  0  0  0  # atno 7974 bound_to 7965
  154.6649  140.0564  157.0102 H   0  0  0  0  0  0  0  0  0  0  0  0  # atno 8008 bound_to 7997
  155.1174  140.3244  155.4487 H   0  0  0  0  0  0  0  0  0  0  0  0  # atno 8009 bound_to 7997
  156.2633  140.2003  156.6297 H   0  0  0  0  0  0  0  0  0  0  0  0  # atno 8010 bound_to 7997
  139.4822  144.5150  151.7965 H   0  0  0  0  0  0  0  0  0  0  0  0  # atno 10167 bound_to 10162
  155.9984  130.4853  150.5093 H   0  0  0  0  0  0  0  0  0  0  0  0  # atno 10718 bound_to 10713
  154.6023  135.5512  153.7387 H   0  0  0  0  0  0  0  0  0  0  0  0  # atno 10763 bound_to 10752
  153.0160  135.6369  154.1697 H   0  0  0  0  0  0  0  0  0  0  0  0  # atno 10764 bound_to 10752
  154.1636  135.2896  155.3081 H   0  0  0  0  0  0  0  0  0  0  0  0  # atno 10765 bound_to 10752
  140.0474  134.5785  155.9305 H   0  0  0  0  0  0  0  0  0  0  0  0  # atno 11005 bound_to 11000
  146.2788  139.6823  142.9243 LP  0  0  0  0  0  0  0  0  0  0  0  0  # atno 17320 bound_to 7965
  145.4491  141.0427  143.2815 LP  0  0  0  0  0  0  0  0  0  0  0  0  # atno 17321 bound_to 7965
  140.4657  144.1658  150.5911 LP  0  0  0  0  0  0  0  0  0  0  0  0  # atno 17342 bound_to 10162
  140.4436  143.2516  151.9440 LP  0  0  0  0  0  0  0  0  0  0  0  0  # atno 17343 bound_to 10162
  157.3068  131.0656  151.2029 LP  0  0  0  0  0  0  0  0  0  0  0  0  # atno 17370 bound_to 10713
  157.2989  130.6833  149.6153 LP  0  0  0  0  0  0  0  0  0  0  0  0  # atno 17371 bound_to 10713
  141.1914  133.6571  156.5454 LP  0  0  0  0  0  0  0  0  0  0  0  0  # atno 17394 bound_to 11000
  140.3971  134.7389  157.4757 LP  0  0  0  0  0  0  0  0  0  0  0  0  # atno 17395 bound_to 11000

$$$$
