AV-unprocessed.smi:1329|AV-procd|sdf|5484|dock5
  -GOLD-   22720 5 63D 1   1.00000     0.00000
 Structure written by MMmdl.
 42 43  0  0  0  0  0  0  0  0  1 V2000
  146.8206  137.0358  162.7436 C   0  0  0  0  0  0  0  0  0  0  0  0
  147.4675  136.2530  161.6331 C   0  0  0  0  0  0  0  0  0  0  0  0
  148.0477  136.9365  160.7019 N   0  0  0  0  0  0  0  0  0  0  0  0
  148.6679  136.3170  159.6352 N   0  0  0  0  0  0  0  0  0  0  0  0
  149.2541  137.2488  158.6636 C   0  0  0  0  0  0  0  0  0  0  0  0
  150.7728  137.4302  158.8822 C   0  0  1  0  0  0  0  0  0  0  0  0
  151.4374  136.4110  158.1614 O   0  0  0  0  0  0  0  0  0  0  0  0
  151.2779  138.7763  158.3363 C   0  0  0  0  0  0  0  0  0  0  0  0
  152.1283  139.3729  159.3018 O   0  0  0  0  0  0  0  0  0  0  0  0
  152.7954  140.5242  158.8147 C   0  0  0  0  0  0  0  0  0  0  0  0
  152.6584  141.6846  159.7788 C   0  0  0  0  0  0  0  0  0  0  0  0
  152.0497  142.8869  159.3620 C   0  0  0  0  0  0  0  0  0  0  0  0
  151.9179  143.9618  160.2630 C   0  0  0  0  0  0  0  0  0  0  0  0
  152.3936  143.8375  161.5828 C   0  0  0  0  0  0  0  0  0  0  0  0
  153.0001  142.6377  162.0023 C   0  0  0  0  0  0  0  0  0  0  0  0
  153.1315  141.5623  161.1020 C   0  0  0  0  0  0  0  0  0  0  0  0
  148.7382  134.9669  159.4547 C   0  0  0  0  0  0  0  0  0  0  0  0
  149.2992  134.4564  158.4840 O   0  0  0  0  0  0  0  0  0  0  0  0
  148.0809  134.1983  160.5140 C   0  0  0  0  0  0  0  0  0  0  0  0
  148.1271  132.7797  160.3619 C   0  0  0  0  0  0  0  0  0  0  0  0
  148.1818  131.6288  160.2509 N   0  0  0  0  0  0  0  0  0  0  0  0
  147.4660  134.7951  161.5655 C   0  0  0  0  0  0  0  0  0  0  0  0
  146.7652  134.0429  162.6887 C   0  0  0  0  0  0  0  0  0  0  0  0
  147.2797  136.7979  163.7033 H   0  0  0  0  0  0  0  0  0  0  0  0
  145.7571  136.8058  162.8107 H   0  0  0  0  0  0  0  0  0  0  0  0
  146.9147  138.1121  162.5916 H   0  0  0  0  0  0  0  0  0  0  0  0
  149.0492  136.9280  157.6399 H   0  0  0  0  0  0  0  0  0  0  0  0
  148.7462  138.2103  158.7580 H   0  0  0  0  0  0  0  0  0  0  0  0
  151.0177  137.3564  159.9425 H   0  0  0  0  0  0  0  0  0  0  0  0
  152.3124  136.7071  157.9627 H   0  0  0  0  0  0  0  0  0  0  0  0
  151.7851  138.6520  157.3776 H   0  0  0  0  0  0  0  0  0  0  0  0
  150.4347  139.4486  158.1704 H   0  0  0  0  0  0  0  0  0  0  0  0
  153.8547  140.3074  158.6675 H   0  0  0  0  0  0  0  0  0  0  0  0
  152.3891  140.8104  157.8429 H   0  0  0  0  0  0  0  0  0  0  0  0
  151.6797  142.9876  158.3520 H   0  0  0  0  0  0  0  0  0  0  0  0
  151.4509  144.8812  159.9419 H   0  0  0  0  0  0  0  0  0  0  0  0
  152.2921  144.6614  162.2737 H   0  0  0  0  0  0  0  0  0  0  0  0
  153.3633  142.5412  163.0150 H   0  0  0  0  0  0  0  0  0  0  0  0
  153.5938  140.6426  161.4297 H   0  0  0  0  0  0  0  0  0  0  0  0
  146.8453  132.9623  162.5751 H   0  0  0  0  0  0  0  0  0  0  0  0
  145.7041  134.2930  162.7103 H   0  0  0  0  0  0  0  0  0  0  0  0
  147.1997  134.3020  163.6545 H   0  0  0  0  0  0  0  0  0  0  0  0
  1  2  1  0  0  0  0
  1 24  1  0  0  0  0
  1 25  1  0  0  0  0
  1 26  1  0  0  0  0
  2 22  1  0  0  0  0
  2  3  2  0  0  0  0
  3  4  1  0  0  0  0
  4  5  1  0  0  0  0
  4 17  1  0  0  0  0
  5  6  1  0  0  0  0
  5 27  1  0  0  0  0
  5 28  1  0  0  0  0
  6  7  1  0  0  0  0
  6  8  1  0  0  0  0
  6 29  1  0  0  0  0
  7 30  1  0  0  0  0
  8  9  1  0  0  0  0
  8 31  1  0  0  0  0
  8 32  1  0  0  0  0
  9 10  1  0  0  0  0
 10 11  1  0  0  0  0
 10 33  1  0  0  0  0
 10 34  1  0  0  0  0
 11 16  1  0  0  0  0
 11 12  2  0  0  0  0
 12 13  1  0  0  0  0
 12 35  1  0  0  0  0
 13 14  2  0  0  0  0
 13 36  1  0  0  0  0
 14 15  1  0  0  0  0
 14 37  1  0  0  0  0
 15 16  2  0  0  0  0
 15 38  1  0  0  0  0
 16 39  1  0  0  0  0
 17 18  2  0  0  0  0
 17 19  1  0  0  0  0
 19 20  1  0  0  0  0
 19 22  2  0  0  0  0
 20 21  3  0  0  0  0
 22 23  1  0  0  0  0
 23 40  1  0  0  0  0
 23 41  1  0  0  0  0
 23 42  1  0  0  0  0
M  END
> <s_m_source_file>
AV-unprocessed.smi

> <i_m_source_file_index>
1329

> <i_lp_mmshare_version>
43012

> <i_f3d_flags>
0

> <s_epik_input>
TiNDYyhjMVtDSDNdKWMoPU8pbihuYzFbQ0gzXSlbQ0gyXVtDQEhdKFtPSF0pW0NIMl1PW0NIMl1jMltjSF1bY0hdW2NIXVtjSF1bY0hdMg==

> <s_epik_cmdline>
J2VwaWtfcHl0aG9uJywgJy1waCcsICc3LjAnLCAnLXRuJywgJzgnLCAnLW1hJywgJzIwMCcsICctbWV0YWxfYmluZGluZycsICctaW1hZScsICc8aW5maWxlLm1hZT4nLCAnLW9tYWUnLCAnPG91dGZpbGUubWFlPic=

> <r_lp_tautomer_probability>
1

> <r_epik_Ionization_Penalty>
6.13319e-08

> <r_epik_Ionization_Penalty_Charging>
2.19172e-10

> <r_epik_Ionization_Penalty_Neutral>
6.11128e-08

> <r_epik_State_Penalty>
-0

> <r_epik_Charging_Adjusted_Penalty>
2.19172e-10

> <i_epik_Tot_Q>
0

> <i_epik_Tot_abs_Q>
0

> <r_epik_Metal_State_Penalty>
-0

> <b_epik_Metal_Only>
0

> <s_lp_Force_Field>
OPLS_2005

> <r_lp_Energy>
31.6334

> <b_lp_Chiralities_Consistent>
1

> <s_lp_Variant>
AV-unprocessed.smi:1329-2

> <Gold.Version>
5.8.1

> <Gold.Id.Protein>
6NUR|6NUR_protein|mol2

> <Gold.PLP.Fitness>
54.0603

> <Gold.PLP.PLP>
-49.2769

> <Gold.PLP.part.hbond>
-4.0000

> <Gold.PLP.part.metal>
0.0000

> <Gold.PLP.part.buried>
-4.6195

> <Gold.PLP.part.nonpolar>
-41.7547

> <Gold.PLP.part.repulsive>
0.0000

> <Gold.PLP.ligand.clash>
0.0000

> <Gold.PLP.ligand.torsion>
1.6278

> <Gold.PLP.Chemscore.Hbond>
2.6249

> <Gold.PLP.Chemscore.CHOScore>
0.0000

> <Gold.PLP.Chemscore.Metal>
0.0000

> <Gold.Chemscore.Hbonds>
donor molecule, donor type, donor heavy atom, donor atom, acceptor molecule, acceptor atom, score
      P1  H  6896  6907       L1     7  0.09
      P1  H  6896  6909       L1    18  0.70
      P1  H  6931  6943       L1     3  0.84
      P1  H  6934  6947       L1     3  0.33

> <Gold.PLP.Chemscore.Internal.Correction>
0.1641

> <Gold.Rescore>
     Score         DG    S(hbond)    S(metal)    S(lipo)     H(rot)  DE(clash)    DE(int)     intcor
     15.57     -18.50       1.31        0.00     128.10       2.48       0.03       2.89       ----

> <Gold.Chemscore.Fitness>
15.5749

> <Gold.Chemscore.DG>
-18.4991

> <Gold.Chemscore.ZeroCoef>
-5.4800

> <Gold.Chemscore.Hbond>
1.3095

> <Gold.Chemscore.Metal>
0.0000

> <Gold.Chemscore.Lipo>
128.1033

> <Gold.Chemscore.Internal_Hbond>
0.0000

> <Gold.Chemscore.DEClash>
0.0343

> <Gold.Chemscore.DEInternal>
2.8899

> <Gold.Chemscore.Rot>
2.4777

> <Gold.Chemscore.Internal.Correction>
   9.000000E+99

> <Gold.Chemscore.Hbonds>
donor molecule, donor type, donor heavy atom, donor atom, acceptor molecule, acceptor atom, score
      P1  H  6896  6909       L1    18  0.07
      P1  H  6931  6943       L1     3  0.15
      P1  H  6934  6947       L1     3  0.14

> <Gold.Chemscore.Hbond.Weighted>
-4.3739

> <Gold.Chemscore.Metal.Weighted>
-0.0000

> <Gold.Chemscore.Lipo.Weighted>
-14.9881

> <Gold.Chemscore.Internal_Hbond.Weighted>
0.0000

> <Gold.Chemscore.DEClash.Weighted>
0.0343

> <Gold.Chemscore.DEInternal.Weighted>
2.8899

> <Gold.Chemscore.Rot.Weighted>
6.3428

> <Gold.Chemscore.Internal.Correction.Weighted>
   9.000000E+99

> <Gold.Protein.RotatedTorsions>
[ 6907 6896 6895 6894 ] final   16.34 input  -60.11 | X-H torsion
[ 7974 7965 7964 7962 ] final  -19.08 input  175.53 | X-H torsion
[ 8008 7997 7996 7995 ] final   67.40 input   59.86 | X-H torsion
[ 10167 10162 10161 10158 ] final  163.17 input  -65.29 | X-H torsion
[ 10718 10713 10712 10709 ] final  105.19 input   66.30 | X-H torsion
[ 10763 10752 10751 10750 ] final    5.91 input  -60.55 | X-H torsion
[ 11005 11000 10999 10996 ] final -160.89 input  -57.11 | X-H torsion

> <Gold.Protein.ActiveResidues>
 VAL166  LYS551  ARG553  GLY616  TRP617  ASP618  TYR619  PRO620  LYS621  CYS622 
 ASP623  PHE694  ASN695  SER759  ASP760  ASP761  ALA762  ILE779  LEU786  VAL792 
 PHE793  MET794  SER795  GLU796  ALA797  LYS798  CYS799  TRP800  GLU811  SER814 

> <Gold.Protein.RotatedAtoms>
  151.8323  135.0617  160.0438 H   0  0  0  0  0  0  0  0  0  0  0  0  # atno 6907 bound_to 6896
  152.2871  133.5521  159.5542 H   0  0  0  0  0  0  0  0  0  0  0  0  # atno 6908 bound_to 6896
  150.7214  134.0398  159.3804 H   0  0  0  0  0  0  0  0  0  0  0  0  # atno 6909 bound_to 6896
  146.1860  140.4011  142.8476 H   0  0  0  0  0  0  0  0  0  0  0  0  # atno 7974 bound_to 7965
  155.6923  140.3496  155.4899 H   0  0  0  0  0  0  0  0  0  0  0  0  # atno 8008 bound_to 7997
  155.9513  140.1120  157.0996 H   0  0  0  0  0  0  0  0  0  0  0  0  # atno 8009 bound_to 7997
  154.4122  140.1193  156.5043 H   0  0  0  0  0  0  0  0  0  0  0  0  # atno 8010 bound_to 7997
  139.4870  144.4364  151.9007 H   0  0  0  0  0  0  0  0  0  0  0  0  # atno 10167 bound_to 10162
  157.6714  131.0822  150.5820 H   0  0  0  0  0  0  0  0  0  0  0  0  # atno 10718 bound_to 10713
  153.2539  135.6916  153.7650 H   0  0  0  0  0  0  0  0  0  0  0  0  # atno 10763 bound_to 10752
  153.6734  135.3340  155.3160 H   0  0  0  0  0  0  0  0  0  0  0  0  # atno 10764 bound_to 10752
  154.8405  135.4505  154.1505 H   0  0  0  0  0  0  0  0  0  0  0  0  # atno 10765 bound_to 10752
  140.6265  134.4696  157.5227 H   0  0  0  0  0  0  0  0  0  0  0  0  # atno 11005 bound_to 11000
  144.8397  140.6838  143.6237 LP  0  0  0  0  0  0  0  0  0  0  0  0  # atno 17320 bound_to 7965
  145.3938  139.1611  143.4214 LP  0  0  0  0  0  0  0  0  0  0  0  0  # atno 17321 bound_to 7965
  140.3814  144.2731  150.5908 LP  0  0  0  0  0  0  0  0  0  0  0  0  # atno 17342 bound_to 10162
  140.5230  143.2261  151.8359 LP  0  0  0  0  0  0  0  0  0  0  0  0  # atno 17343 bound_to 10162
  156.6120  130.4382  149.5855 LP  0  0  0  0  0  0  0  0  0  0  0  0  # atno 17370 bound_to 10713
  156.2422  130.6858  151.1567 LP  0  0  0  0  0  0  0  0  0  0  0  0  # atno 17371 bound_to 10713
  139.9133  134.8299  156.1453 LP  0  0  0  0  0  0  0  0  0  0  0  0  # atno 17394 bound_to 11000
  141.0706  133.6799  156.2132 LP  0  0  0  0  0  0  0  0  0  0  0  0  # atno 17395 bound_to 11000

$$$$
