AV-unprocessed.smi:2198|AV-procd|sdf|8919|dock5
  -GOLD-   2272012133D 1   1.00000     0.00000
 Structure written by MMmdl.
 42 43  0  0  0  0  0  0  0  0  2 V2000
  151.6292  142.1365  156.7535 C   0  0  0  0  0  0  0  0  0  0  0  0
  151.4609  140.7641  156.1377 C   0  0  0  0  0  0  0  0  0  0  0  0
  150.3977  140.5032  155.4776 N   0  0  0  0  0  0  0  0  0  0  0  0
  150.2353  139.2312  154.9033 C   0  0  0  0  0  0  0  0  0  0  0  0
  148.9409  139.0082  154.1406 C   0  0  0  0  0  0  0  0  0  0  0  0
  151.1932  138.2694  155.0354 C   0  0  0  0  0  0  0  0  0  0  0  0
  151.0612  136.8718  154.4309 C   0  0  0  0  0  0  0  0  0  0  0  0
  150.1332  135.9063  155.1717 C   0  0  0  0  0  0  0  0  0  0  0  0
  150.2888  135.6848  156.3727 O   0  0  0  0  0  0  0  0  0  0  0  0
  149.1666  135.3365  154.4363 N   0  0  0  0  0  0  0  0  0  0  0  0
  148.1749  134.3826  154.9294 C   0  0  2  0  0  0  0  0  0  0  0  0
  148.8680  133.0912  155.4049 C   0  0  0  0  0  0  0  0  0  0  0  0
  149.4265  132.2660  154.2327 C   0  0  0  0  0  0  0  0  0  0  0  0
  148.3364  131.9616  153.1933 C   0  0  0  0  0  0  0  0  0  0  0  0
  147.6681  133.2514  152.6799 C   0  0  1  0  0  0  0  0  0  0  0  0
  146.5805  132.9446  151.6409 C   0  0  0  0  0  0  0  0  0  0  0  0
  147.1055  134.0731  153.8585 C   0  0  0  0  0  0  0  0  0  0  0  0
  152.4060  138.6117  155.8000 C   0  0  0  0  0  0  0  0  0  0  0  0
  153.3071  137.7852  155.9385 O   0  0  0  0  0  0  0  0  0  0  0  0
  152.4843  139.8640  156.3343 N   0  5  0  0  0  0  0  0  0  0  0  0
  150.8884  142.8351  156.3623 H   0  0  0  0  0  0  0  0  0  0  0  0
  152.6202  142.5349  156.5334 H   0  0  0  0  0  0  0  0  0  0  0  0
  151.5107  142.0800  157.8356 H   0  0  0  0  0  0  0  0  0  0  0  0
  148.3372  138.2435  154.6294 H   0  0  0  0  0  0  0  0  0  0  0  0
  149.1455  138.6902  153.1183 H   0  0  0  0  0  0  0  0  0  0  0  0
  148.3490  139.9230  154.0924 H   0  0  0  0  0  0  0  0  0  0  0  0
  150.7354  136.9267  153.3918 H   0  0  0  0  0  0  0  0  0  0  0  0
  152.0564  136.4287  154.3840 H   0  0  0  0  0  0  0  0  0  0  0  0
  149.1149  135.5803  153.4580 H   0  0  0  0  0  0  0  0  0  0  0  0
  147.6807  134.8307  155.7934 H   0  0  0  0  0  0  0  0  0  0  0  0
  149.6658  133.3273  156.1103 H   0  0  0  0  0  0  0  0  0  0  0  0
  148.1484  132.4829  155.9542 H   0  0  0  0  0  0  0  0  0  0  0  0
  150.2456  132.8063  153.7562 H   0  0  0  0  0  0  0  0  0  0  0  0
  149.8512  131.3341  154.6068 H   0  0  0  0  0  0  0  0  0  0  0  0
  148.7720  131.4090  152.3603 H   0  0  0  0  0  0  0  0  0  0  0  0
  147.5847  131.3075  153.6374 H   0  0  0  0  0  0  0  0  0  0  0  0
  148.4314  133.8508  152.1816 H   0  0  0  0  0  0  0  0  0  0  0  0
  145.7782  132.3440  152.0708 H   0  0  0  0  0  0  0  0  0  0  0  0
  146.9910  132.3947  150.7934 H   0  0  0  0  0  0  0  0  0  0  0  0
  146.1387  133.8630  151.2533 H   0  0  0  0  0  0  0  0  0  0  0  0
  146.2917  133.5173  154.3262 H   0  0  0  0  0  0  0  0  0  0  0  0
  146.6608  134.9992  153.4920 H   0  0  0  0  0  0  0  0  0  0  0  0
  1  2  1  0  0  0  0
  1 21  1  0  0  0  0
  1 22  1  0  0  0  0
  1 23  1  0  0  0  0
  2 20  1  0  0  0  0
  2  3  2  0  0  0  0
  3  4  1  0  0  0  0
  4  5  1  0  0  0  0
  4  6  2  0  0  0  0
  5 24  1  0  0  0  0
  5 25  1  0  0  0  0
  5 26  1  0  0  0  0
  6  7  1  0  0  0  0
  6 18  1  0  0  0  0
  7  8  1  0  0  0  0
  7 27  1  0  0  0  0
  7 28  1  0  0  0  0
  8  9  2  0  0  0  0
  8 10  1  0  0  0  0
 10 11  1  0  0  0  0
 10 29  1  0  0  0  0
 11 17  1  0  0  0  0
 11 12  1  0  0  0  0
 11 30  1  0  0  0  0
 12 13  1  0  0  0  0
 12 31  1  0  0  0  0
 12 32  1  0  0  0  0
 13 14  1  0  0  0  0
 13 33  1  0  0  0  0
 13 34  1  0  0  0  0
 14 15  1  0  0  0  0
 14 35  1  0  0  0  0
 14 36  1  0  0  0  0
 15 16  1  0  0  0  0
 15 17  1  0  0  0  0
 15 37  1  0  0  0  0
 16 38  1  0  0  0  0
 16 39  1  0  0  0  0
 16 40  1  0  0  0  0
 17 41  1  0  0  0  0
 17 42  1  0  0  0  0
 18 19  2  0  0  0  0
 18 20  1  0  0  0  0
M  CHG  1  20  -1
M  END
> <s_m_source_file>
AV-unprocessed.smi

> <i_m_source_file_index>
2198

> <i_lp_mmshare_version>
43012

> <i_f3d_flags>
0

> <s_epik_input>
W0NIM11jMW5jKFtDSDNdKWMoYyg9TylbbkhdMSlbQ0gyXUMoPU8pW05IXVtDQEBIXTJbQ0gyXVtDSDJdW0NIMl1bQ0BASF0oW0NIM10pW0NIMl0y

> <s_epik_cmdline>
J2VwaWtfcHl0aG9uJywgJy1waCcsICc3LjAnLCAnLXRuJywgJzgnLCAnLW1hJywgJzIwMCcsICctbWV0YWxfYmluZGluZycsICctaW1hZScsICc8aW5maWxlLm1hZT4nLCAnLW9tYWUnLCAnPG91dGZpbGUubWFlPic=

> <r_lp_tautomer_probability>
0.839158

> <r_epik_Ionization_Penalty>
6.67193

> <r_epik_Ionization_Penalty_Charging>
7.66837e-08

> <r_epik_Ionization_Penalty_Neutral>
6.67193

> <r_epik_State_Penalty>
4.51643

> <r_epik_Charging_Adjusted_Penalty>
4.51643

> <i_epik_Tot_Q>
-1

> <i_epik_Tot_abs_Q>
1

> <r_epik_Metal_State_Penalty>
0.851582

> <b_epik_Metal_Only>
1

> <s_lp_Force_Field>
OPLS_2005

> <r_lp_Energy>
13.1445

> <b_lp_Chiralities_Consistent>
1

> <s_lp_Variant>
AV-unprocessed.smi:2198-9

> <Gold.Version>
5.8.1

> <Gold.Id.Protein>
6NUR|6NUR_protein|mol2

> <Gold.PLP.Fitness>
39.7363

> <Gold.PLP.PLP>
-31.2810

> <Gold.PLP.part.hbond>
-3.0799

> <Gold.PLP.part.metal>
0.0000

> <Gold.PLP.part.buried>
-1.2661

> <Gold.PLP.part.nonpolar>
-26.8179

> <Gold.PLP.part.repulsive>
0.0891

> <Gold.PLP.ligand.clash>
0.0000

> <Gold.PLP.ligand.torsion>
0.2899

> <Gold.PLP.Chemscore.Hbond>
3.0091

> <Gold.PLP.Chemscore.CHOScore>
0.0000

> <Gold.PLP.Chemscore.Metal>
0.0000

> <Gold.Chemscore.Hbonds>
donor molecule, donor type, donor heavy atom, donor atom, acceptor molecule, acceptor atom, score
      L1  H    10    29       P1  7948  1.00
      P1  H  7989  7998       L1     3  0.01
      P1  H  7997  8008       L1    20  2.00

> <Gold.PLP.Chemscore.Internal.Correction>
0.0076

> <Gold.Rescore>
     Score         DG    S(hbond)    S(metal)    S(lipo)     H(rot)  DE(clash)    DE(int)     intcor
     15.40     -16.34       2.13        0.00      63.47       1.45       0.60       0.34       ----

> <Gold.Chemscore.Fitness>
15.3955

> <Gold.Chemscore.DG>
-16.3351

> <Gold.Chemscore.ZeroCoef>
-5.4800

> <Gold.Chemscore.Hbond>
2.1343

> <Gold.Chemscore.Metal>
0.0000

> <Gold.Chemscore.Lipo>
63.4672

> <Gold.Chemscore.Internal_Hbond>
0.0000

> <Gold.Chemscore.DEClash>
0.6024

> <Gold.Chemscore.DEInternal>
0.3372

> <Gold.Chemscore.Rot>
1.4450

> <Gold.Chemscore.Internal.Correction>
   9.000000E+99

> <Gold.Chemscore.Hbonds>
donor molecule, donor type, donor heavy atom, donor atom, acceptor molecule, acceptor atom, score
      L1  H    10    29       P1  7948  0.60
      P1  H  7997  8008       L1    20  0.30
      P1  H 10752 10763       L1    19  0.02

> <Gold.Chemscore.Hbond.Weighted>
-7.1286

> <Gold.Chemscore.Metal.Weighted>
-0.0000

> <Gold.Chemscore.Lipo.Weighted>
-7.4257

> <Gold.Chemscore.Internal_Hbond.Weighted>
0.0000

> <Gold.Chemscore.DEClash.Weighted>
0.6024

> <Gold.Chemscore.DEInternal.Weighted>
0.3372

> <Gold.Chemscore.Rot.Weighted>
3.6992

> <Gold.Chemscore.Internal.Correction.Weighted>
   9.000000E+99

> <Gold.Protein.RotatedTorsions>
[ 6907 6896 6895 6894 ] final -109.11 input  -60.11 | X-H torsion
[ 7974 7965 7964 7962 ] final  109.30 input  175.53 | X-H torsion
[ 8008 7997 7996 7995 ] final  -45.18 input   59.86 | X-H torsion
[ 10167 10162 10161 10158 ] final  133.55 input  -65.29 | X-H torsion
[ 10718 10713 10712 10709 ] final   68.42 input   66.30 | X-H torsion
[ 10763 10752 10751 10750 ] final  100.06 input  -60.55 | X-H torsion
[ 11005 11000 10999 10996 ] final   65.86 input  -57.11 | X-H torsion

> <Gold.Protein.ActiveResidues>
 VAL166  LYS551  ARG553  GLY616  TRP617  ASP618  TYR619  PRO620  LYS621  CYS622 
 ASP623  PHE694  ASN695  SER759  ASP760  ASP761  ALA762  ILE779  LEU786  VAL792 
 PHE793  MET794  SER795  GLU796  ALA797  LYS798  CYS799  TRP800  GLU811  SER814 

> <Gold.Protein.RotatedAtoms>
  150.7542  133.9578  159.3505 H   0  0  0  0  0  0  0  0  0  0  0  0  # atno 6907 bound_to 6896
  151.7501  135.0833  160.0339 H   0  0  0  0  0  0  0  0  0  0  0  0  # atno 6908 bound_to 6896
  152.3472  133.6099  159.5954 H   0  0  0  0  0  0  0  0  0  0  0  0  # atno 6909 bound_to 6896
  145.2695  139.2672  143.3974 H   0  0  0  0  0  0  0  0  0  0  0  0  # atno 7974 bound_to 7965
  154.4000  140.1403  156.3805 H   0  0  0  0  0  0  0  0  0  0  0  0  # atno 8008 bound_to 7997
  155.8008  140.3476  155.5381 H   0  0  0  0  0  0  0  0  0  0  0  0  # atno 8009 bound_to 7997
  155.8486  140.0938  157.1680 H   0  0  0  0  0  0  0  0  0  0  0  0  # atno 8010 bound_to 7997
  139.5292  144.6610  151.5012 H   0  0  0  0  0  0  0  0  0  0  0  0  # atno 10167 bound_to 10162
  157.6288  130.9372  150.0375 H   0  0  0  0  0  0  0  0  0  0  0  0  # atno 10718 bound_to 10713
  153.3093  135.4092  155.1321 H   0  0  0  0  0  0  0  0  0  0  0  0  # atno 10763 bound_to 10752
  154.8571  135.3560  154.5746 H   0  0  0  0  0  0  0  0  0  0  0  0  # atno 10764 bound_to 10752
  153.6174  135.7065  153.5382 H   0  0  0  0  0  0  0  0  0  0  0  0  # atno 10765 bound_to 10752
  139.9868  134.6655  156.0162 H   0  0  0  0  0  0  0  0  0  0  0  0  # atno 11005 bound_to 11000
  146.3251  140.3134  142.8628 LP  0  0  0  0  0  0  0  0  0  0  0  0  # atno 17320 bound_to 7965
  144.9347  140.8014  143.5667 LP  0  0  0  0  0  0  0  0  0  0  0  0  # atno 17321 bound_to 7965
  140.6459  143.8796  150.6736 LP  0  0  0  0  0  0  0  0  0  0  0  0  # atno 17342 bound_to 10162
  140.2145  143.3857  152.1692 LP  0  0  0  0  0  0  0  0  0  0  0  0  # atno 17343 bound_to 10162
  156.1477  130.3642  149.9485 LP  0  0  0  0  0  0  0  0  0  0  0  0  # atno 17370 bound_to 10713
  156.7512  130.9116  151.3637 LP  0  0  0  0  0  0  0  0  0  0  0  0  # atno 17371 bound_to 10713
  141.1531  133.6546  156.4077 LP  0  0  0  0  0  0  0  0  0  0  0  0  # atno 17394 bound_to 11000
  140.4987  134.6506  157.5240 LP  0  0  0  0  0  0  0  0  0  0  0  0  # atno 17395 bound_to 11000

$$$$
