AV-unprocessed.smi:1412|AV-procd|sdf|5745|dock6
  -GOLD-   22720 5383D 1   1.00000     0.00000
 Structure written by MMmdl.
 40 41  0  0  0  0  0  0  0  0  2 V2000
  151.9514  137.9430  155.3927 C   0  0  0  0  0  0  0  0  0  0  0  0
  152.0218  139.2068  156.2692 C   0  0  0  0  0  0  0  0  0  0  0  0
  151.2965  139.1133  157.6498 C   0  0  2  0  0  0  0  0  0  0  0  0
  152.0820  138.0664  158.4845 C   0  0  0  0  0  0  0  0  0  0  0  0
  149.8470  138.5773  157.4076 C   0  0  0  0  0  0  0  0  0  0  0  0
  149.0838  138.3483  158.6358 N   0  0  0  0  0  0  0  0  0  0  0  0
  148.9665  137.1909  159.3029 C   0  0  0  0  0  0  0  0  0  0  0  0
  149.5483  136.1816  158.8985 O   0  0  0  0  0  0  0  0  0  0  0  0
  148.1711  137.2726  160.3933 N   0  5  0  0  0  0  0  0  0  0  0  0
  147.8101  136.1551  161.0452 C   0  0  0  0  0  0  0  0  0  0  0  0
  147.6861  134.9703  160.4262 N   0  0  0  0  0  0  0  0  0  0  0  0
  147.3081  133.9442  161.2819 N   0  0  0  0  0  0  0  0  0  0  0  0
  147.1652  134.3823  162.5323 C   0  0  0  0  0  0  0  0  0  0  0  0
  147.4801  136.0869  162.7786 S   0  0  0  0  0  0  0  0  0  0  0  0
  151.2952  140.4324  158.3450 N   0  0  0  0  0  0  0  0  0  0  0  0
  150.6331  141.5219  157.6173 C   0  0  0  0  0  0  0  0  0  0  0  0
  150.5442  142.8061  158.4593 C   0  0  0  0  0  0  0  0  0  0  0  0
  151.8466  143.2005  158.8742 O   0  0  0  0  0  0  0  0  0  0  0  0
  152.5049  142.1910  159.6303 C   0  0  0  0  0  0  0  0  0  0  0  0
  152.6104  140.9037  158.7953 C   0  0  0  0  0  0  0  0  0  0  0  0
  152.5039  138.0928  154.4650 H   0  0  0  0  0  0  0  0  0  0  0  0
  150.9255  137.6963  155.1210 H   0  0  0  0  0  0  0  0  0  0  0  0
  152.3847  137.0765  155.8919 H   0  0  0  0  0  0  0  0  0  0  0  0
  153.0678  139.4795  156.4094 H   0  0  0  0  0  0  0  0  0  0  0  0
  151.6051  140.0279  155.6848 H   0  0  0  0  0  0  0  0  0  0  0  0
  152.3136  137.1715  157.9061 H   0  0  0  0  0  0  0  0  0  0  0  0
  151.5174  137.7312  159.3547 H   0  0  0  0  0  0  0  0  0  0  0  0
  153.0291  138.4669  158.8466 H   0  0  0  0  0  0  0  0  0  0  0  0
  149.2869  139.2396  156.7476 H   0  0  0  0  0  0  0  0  0  0  0  0
  149.8795  137.6159  156.8967 H   0  0  0  0  0  0  0  0  0  0  0  0
  148.5879  139.1432  159.0117 H   0  0  0  0  0  0  0  0  0  0  0  0
  146.8744  133.6975  163.3146 H   0  0  0  0  0  0  0  0  0  0  0  0
  151.1720  141.7457  156.6970 H   0  0  0  0  0  0  0  0  0  0  0  0
  149.6208  141.2419  157.3316 H   0  0  0  0  0  0  0  0  0  0  0  0
  150.0980  143.6113  157.8757 H   0  0  0  0  0  0  0  0  0  0  0  0
  149.9075  142.6518  159.3318 H   0  0  0  0  0  0  0  0  0  0  0  0
  153.4978  142.5451  159.9074 H   0  0  0  0  0  0  0  0  0  0  0  0
  151.9600  142.0059  160.5573 H   0  0  0  0  0  0  0  0  0  0  0  0
  153.1084  140.1521  159.4048 H   0  0  0  0  0  0  0  0  0  0  0  0
  153.2572  141.0963  157.9394 H   0  0  0  0  0  0  0  0  0  0  0  0
  1  2  1  0  0  0  0
  1 21  1  0  0  0  0
  1 22  1  0  0  0  0
  1 23  1  0  0  0  0
  2  3  1  0  0  0  0
  2 24  1  0  0  0  0
  2 25  1  0  0  0  0
  3  4  1  0  0  0  0
  3  5  1  0  0  0  0
  3 15  1  0  0  0  0
  4 26  1  0  0  0  0
  4 27  1  0  0  0  0
  4 28  1  0  0  0  0
  5  6  1  0  0  0  0
  5 29  1  0  0  0  0
  5 30  1  0  0  0  0
  6  7  1  0  0  0  0
  6 31  1  0  0  0  0
  7  8  2  0  0  0  0
  7  9  1  0  0  0  0
  9 10  1  0  0  0  0
 10 14  1  0  0  0  0
 10 11  2  0  0  0  0
 11 12  1  0  0  0  0
 12 13  2  0  0  0  0
 13 14  1  0  0  0  0
 13 32  1  0  0  0  0
 15 20  1  0  0  0  0
 15 16  1  0  0  0  0
 16 17  1  0  0  0  0
 16 33  1  0  0  0  0
 16 34  1  0  0  0  0
 17 18  1  0  0  0  0
 17 35  1  0  0  0  0
 17 36  1  0  0  0  0
 18 19  1  0  0  0  0
 19 20  1  0  0  0  0
 19 37  1  0  0  0  0
 19 38  1  0  0  0  0
 20 39  1  0  0  0  0
 20 40  1  0  0  0  0
M  CHG  1   9  -1
M  END
> <s_m_source_file>
AV-unprocessed.smi

> <i_m_source_file_index>
1412

> <i_lp_mmshare_version>
43012

> <i_f3d_flags>
0

> <s_epik_input>
W0NIMl0xW0NIMl1PW0NIMl1bQ0gyXU4xW0NAQF0oW0NIM10pKFtDSDJdW0NIM10pW0NIMl1bTkhdQyg9TylbTkhdYzJubltjSF1zMg==

> <s_epik_cmdline>
J2VwaWtfcHl0aG9uJywgJy1waCcsICc3LjAnLCAnLXRuJywgJzgnLCAnLW1hJywgJzIwMCcsICctbWV0YWxfYmluZGluZycsICctaW1hZScsICc8aW5maWxlLm1hZT4nLCAnLW9tYWUnLCAnPG91dGZpbGUubWFlPic=

> <r_lp_tautomer_probability>
1

> <r_epik_Ionization_Penalty>
4.84662

> <r_epik_Ionization_Penalty_Charging>
4.3852

> <r_epik_Ionization_Penalty_Neutral>
0.461421

> <r_epik_State_Penalty>
4.67356

> <r_epik_Charging_Adjusted_Penalty>
9.05877

> <i_epik_Tot_Q>
-1

> <i_epik_Tot_abs_Q>
1

> <r_epik_Metal_State_Penalty>
1.08474

> <b_epik_Metal_Only>
1

> <s_lp_Force_Field>
OPLS_2005

> <r_lp_Energy>
39.9544

> <b_lp_Chiralities_Consistent>
1

> <s_lp_Variant>
AV-unprocessed.smi:1412-6

> <Gold.Version>
5.8.1

> <Gold.Id.Protein>
6NUR|6NUR_protein|mol2

> <Gold.PLP.Fitness>
43.9332

> <Gold.PLP.PLP>
-33.8653

> <Gold.PLP.part.hbond>
-3.0000

> <Gold.PLP.part.metal>
0.0000

> <Gold.PLP.part.buried>
-6.3162

> <Gold.PLP.part.nonpolar>
-25.8824

> <Gold.PLP.part.repulsive>
0.2185

> <Gold.PLP.ligand.clash>
0.0000

> <Gold.PLP.ligand.torsion>
0.5007

> <Gold.PLP.Chemscore.Hbond>
3.6209

> <Gold.PLP.Chemscore.CHOScore>
0.0000

> <Gold.PLP.Chemscore.Metal>
0.0000

> <Gold.Chemscore.Hbonds>
donor molecule, donor type, donor heavy atom, donor atom, acceptor molecule, acceptor atom, score
      P1  H  6896  6909       L1     8  1.00
      P1  H  6931  6943       L1     9  1.38
      P1  H  6934  6947       L1     9  1.17

> <Gold.PLP.Chemscore.Internal.Correction>
0.2067

> <Gold.Rescore>
     Score         DG    S(hbond)    S(metal)    S(lipo)     H(rot)  DE(clash)    DE(int)     intcor
     13.39     -15.36       1.78        0.00      73.56       1.82       0.00       1.97       ----

> <Gold.Chemscore.Fitness>
13.3936

> <Gold.Chemscore.DG>
-15.3602

> <Gold.Chemscore.ZeroCoef>
-5.4800

> <Gold.Chemscore.Hbond>
1.7797

> <Gold.Chemscore.Metal>
0.0000

> <Gold.Chemscore.Lipo>
73.5575

> <Gold.Chemscore.Internal_Hbond>
0.0000

> <Gold.Chemscore.DEClash>
0.0000

> <Gold.Chemscore.DEInternal>
1.9666

> <Gold.Chemscore.Rot>
1.8243

> <Gold.Chemscore.Internal.Correction>
   9.000000E+99

> <Gold.Chemscore.Hbonds>
donor molecule, donor type, donor heavy atom, donor atom, acceptor molecule, acceptor atom, score
      P1  H  6896  6909       L1     8  0.94
      P1  H  6931  6943       L1     9  0.14
      P1  H  6934  6947       L1     9  0.54

> <Gold.Chemscore.Hbond.Weighted>
-5.9442

> <Gold.Chemscore.Metal.Weighted>
-0.0000

> <Gold.Chemscore.Lipo.Weighted>
-8.6062

> <Gold.Chemscore.Internal_Hbond.Weighted>
0.0000

> <Gold.Chemscore.DEClash.Weighted>
0.0000

> <Gold.Chemscore.DEInternal.Weighted>
1.9666

> <Gold.Chemscore.Rot.Weighted>
4.6702

> <Gold.Chemscore.Internal.Correction.Weighted>
   9.000000E+99

> <Gold.Protein.RotatedTorsions>
[ 6907 6896 6895 6894 ] final   57.37 input  -60.11 | X-H torsion
[ 7974 7965 7964 7962 ] final  107.89 input  175.53 | X-H torsion
[ 8008 7997 7996 7995 ] final -168.09 input   59.86 | X-H torsion
[ 10167 10162 10161 10158 ] final   25.57 input  -65.29 | X-H torsion
[ 10718 10713 10712 10709 ] final   13.40 input   66.30 | X-H torsion
[ 10763 10752 10751 10750 ] final  -11.05 input  -60.55 | X-H torsion
[ 11005 11000 10999 10996 ] final  114.40 input  -57.11 | X-H torsion

> <Gold.Protein.ActiveResidues>
 VAL166  LYS551  ARG553  GLY616  TRP617  ASP618  TYR619  PRO620  LYS621  CYS622 
 ASP623  PHE694  ASN695  SER759  ASP760  ASP761  ALA762  ILE779  LEU786  VAL792 
 PHE793  MET794  SER795  GLU796  ALA797  LYS798  CYS799  TRP800  GLU811  SER814 

> <Gold.Protein.RotatedAtoms>
  152.3724  134.6713  160.0171 H   0  0  0  0  0  0  0  0  0  0  0  0  # atno 6907 bound_to 6896
  151.7002  133.3305  159.3272 H   0  0  0  0  0  0  0  0  0  0  0  0  # atno 6908 bound_to 6896
  150.7684  134.6558  159.6357 H   0  0  0  0  0  0  0  0  0  0  0  0  # atno 6909 bound_to 6896
  145.2878  139.2610  143.3881 H   0  0  0  0  0  0  0  0  0  0  0  0  # atno 7974 bound_to 7965
  155.8866  140.1018  157.1448 H   0  0  0  0  0  0  0  0  0  0  0  0  # atno 8008 bound_to 7997
  154.4010  140.1318  156.4327 H   0  0  0  0  0  0  0  0  0  0  0  0  # atno 8009 bound_to 7997
  155.7581  140.3463  155.5186 H   0  0  0  0  0  0  0  0  0  0  0  0  # atno 8010 bound_to 7997
  140.5095  144.0183  150.6366 H   0  0  0  0  0  0  0  0  0  0  0  0  # atno 10167 bound_to 10162
  157.0241  130.6166  149.5725 H   0  0  0  0  0  0  0  0  0  0  0  0  # atno 10718 bound_to 10713
  153.4781  135.7017  153.5954 H   0  0  0  0  0  0  0  0  0  0  0  0  # atno 10763 bound_to 10752
  153.4179  135.3832  155.2092 H   0  0  0  0  0  0  0  0  0  0  0  0  # atno 10764 bound_to 10752
  154.8723  135.3920  154.4227 H   0  0  0  0  0  0  0  0  0  0  0  0  # atno 10765 bound_to 10752
  139.8979  134.9567  156.6887 H   0  0  0  0  0  0  0  0  0  0  0  0  # atno 11005 bound_to 11000
  146.3195  140.3361  142.8644 LP  0  0  0  0  0  0  0  0  0  0  0  0  # atno 17320 bound_to 7965
  144.9199  140.7855  143.5755 LP  0  0  0  0  0  0  0  0  0  0  0  0  # atno 17321 bound_to 7965
  140.3502  143.2967  152.0495 LP  0  0  0  0  0  0  0  0  0  0  0  0  # atno 17342 bound_to 10162
  139.4892  144.6379  151.6937 LP  0  0  0  0  0  0  0  0  0  0  0  0  # atno 17343 bound_to 10162
  156.0092  130.5182  150.7932 LP  0  0  0  0  0  0  0  0  0  0  0  0  # atno 17370 bound_to 10713
  157.5227  131.0932  151.0057 LP  0  0  0  0  0  0  0  0  0  0  0  0  # atno 17371 bound_to 10713
  140.7242  133.9114  155.8167 LP  0  0  0  0  0  0  0  0  0  0  0  0  # atno 17394 bound_to 11000
  141.0204  134.0897  157.4127 LP  0  0  0  0  0  0  0  0  0  0  0  0  # atno 17395 bound_to 11000

$$$$
