AV-unprocessed.smi:652|AV-procd|sdf|3195|dock4
  -GOLD-   22720 0123D 1   1.00000     0.00000
 Structure written by MMmdl.
 48 49  0  0  0  0  0  0  0  0  2 V2000
  143.5914  135.3524  153.0866 C   0  0  0  0  0  0  0  0  0  0  0  0
  144.1407  136.3081  152.0155 C   0  0  0  0  0  0  0  0  0  0  0  0
  145.1980  135.6254  151.1381 C   0  0  0  0  0  0  0  0  0  0  0  0
  144.7182  137.4973  152.6365 N   0  0  0  0  0  0  0  0  0  0  0  0
  145.7941  137.5106  153.4393 C   0  0  0  0  0  0  0  0  0  0  0  0
  146.4248  136.4966  153.7401 O   0  0  0  0  0  0  0  0  0  0  0  0
  146.2120  138.8793  153.9869 C   0  0  0  0  0  0  0  0  0  0  0  0
  147.1970  139.6234  153.0612 C   0  0  0  0  0  0  0  0  0  0  0  0
  148.5134  139.8669  153.7029 N   0  3  2  0  0  0  0  0  0  0  0  0
  149.1963  138.6048  154.0744 C   0  0  0  0  0  0  0  0  0  0  0  0
  150.5698  138.8975  154.6985 C   0  0  0  0  0  0  0  0  0  0  0  0
  150.4058  139.7536  155.8215 O   0  0  0  0  0  0  0  0  0  0  0  0
  149.8497  141.0145  155.4619 C   0  0  2  0  0  0  0  0  0  0  0  0
  149.7962  141.8922  156.7203 C   0  0  0  0  0  0  0  0  0  0  0  0
  150.9849  142.7219  156.8437 N   0  0  0  0  0  0  0  0  0  0  0  0
  151.2113  143.4693  158.0060 C   0  0  0  0  0  0  0  0  0  0  0  0
  151.9594  144.6692  158.0149 C   0  0  0  0  0  0  0  0  0  0  0  0
  152.1118  145.3308  159.2459 C   0  0  0  0  0  0  0  0  0  0  0  0
  151.5075  144.7457  160.3733 C   0  0  0  0  0  0  0  0  0  0  0  0
  150.8036  143.5936  160.3058 N   0  0  0  0  0  0  0  0  0  0  0  0
  150.6590  142.9646  159.1339 N   0  0  0  0  0  0  0  0  0  0  0  0
  148.4455  140.7807  154.8707 C   0  0  0  0  0  0  0  0  0  0  0  0
  143.1528  134.4651  152.6296 H   0  0  0  0  0  0  0  0  0  0  0  0
  142.8140  135.8294  153.6845 H   0  0  0  0  0  0  0  0  0  0  0  0
  144.3781  135.0214  153.7652 H   0  0  0  0  0  0  0  0  0  0  0  0
  143.3176  136.6117  151.3660 H   0  0  0  0  0  0  0  0  0  0  0  0
  144.7819  134.7544  150.6308 H   0  0  0  0  0  0  0  0  0  0  0  0
  146.0500  135.2895  151.7301 H   0  0  0  0  0  0  0  0  0  0  0  0
  145.5712  136.3046  150.3708 H   0  0  0  0  0  0  0  0  0  0  0  0
  144.2579  138.3754  152.4455 H   0  0  0  0  0  0  0  0  0  0  0  0
  145.3163  139.4865  154.1284 H   0  0  0  0  0  0  0  0  0  0  0  0
  146.6492  138.7250  154.9733 H   0  0  0  0  0  0  0  0  0  0  0  0
  147.3393  139.0777  152.1267 H   0  0  0  0  0  0  0  0  0  0  0  0
  146.7613  140.5880  152.7939 H   0  0  0  0  0  0  0  0  0  0  0  0
  148.5777  138.0483  154.7803 H   0  0  0  0  0  0  0  0  0  0  0  0
  149.3219  137.9756  153.1923 H   0  0  0  0  0  0  0  0  0  0  0  0
  151.0386  137.9699  155.0271 H   0  0  0  0  0  0  0  0  0  0  0  0
  151.2419  139.3540  153.9699 H   0  0  0  0  0  0  0  0  0  0  0  0
  150.4821  141.4981  154.7145 H   0  0  0  0  0  0  0  0  0  0  0  0
  148.9252  142.5466  156.6688 H   0  0  0  0  0  0  0  0  0  0  0  0
  149.6832  141.2694  157.6088 H   0  0  0  0  0  0  0  0  0  0  0  0
  151.7651  142.5419  156.2279 H   0  0  0  0  0  0  0  0  0  0  0  0
  152.4071  145.0791  157.1222 H   0  0  0  0  0  0  0  0  0  0  0  0
  152.6705  146.2515  159.3235 H   0  0  0  0  0  0  0  0  0  0  0  0
  151.5896  145.2079  161.3458 H   0  0  0  0  0  0  0  0  0  0  0  0
  148.0202  141.7391  154.5744 H   0  0  0  0  0  0  0  0  0  0  0  0
  147.7836  140.3567  155.6278 H   0  0  0  0  0  0  0  0  0  0  0  0
  149.0988  140.3132  153.0110 H   0  0  0  0  0  0  0  0  0  0  0  0
  1  2  1  0  0  0  0
  1 23  1  0  0  0  0
  1 24  1  0  0  0  0
  1 25  1  0  0  0  0
  2  3  1  0  0  0  0
  2  4  1  0  0  0  0
  2 26  1  0  0  0  0
  3 27  1  0  0  0  0
  3 28  1  0  0  0  0
  3 29  1  0  0  0  0
  4  5  1  0  0  0  0
  4 30  1  0  0  0  0
  5  6  2  0  0  0  0
  5  7  1  0  0  0  0
  7  8  1  0  0  0  0
  7 31  1  0  0  0  0
  7 32  1  0  0  0  0
  8  9  1  0  0  0  0
  8 33  1  0  0  0  0
  8 34  1  0  0  0  0
  9 22  1  0  0  0  0
  9 10  1  0  0  0  0
  9 48  1  0  0  0  0
 10 11  1  0  0  0  0
 10 35  1  0  0  0  0
 10 36  1  0  0  0  0
 11 12  1  0  0  0  0
 11 37  1  0  0  0  0
 11 38  1  0  0  0  0
 12 13  1  0  0  0  0
 13 14  1  0  0  0  0
 13 22  1  0  0  0  0
 13 39  1  0  0  0  0
 14 15  1  0  0  0  0
 14 40  1  0  0  0  0
 14 41  1  0  0  0  0
 15 16  1  0  0  0  0
 15 42  1  0  0  0  0
 16 21  1  0  0  0  0
 16 17  2  0  0  0  0
 17 18  1  0  0  0  0
 17 43  1  0  0  0  0
 18 19  2  0  0  0  0
 18 44  1  0  0  0  0
 19 20  1  0  0  0  0
 19 45  1  0  0  0  0
 20 21  2  0  0  0  0
 22 46  1  0  0  0  0
 22 47  1  0  0  0  0
M  CHG  1   9   1
M  END
> <s_m_source_file>
AV-unprocessed.smi

> <i_m_source_file_index>
652

> <i_lp_mmshare_version>
43012

> <i_f3d_flags>
0

> <s_epik_input>
W0NIM11bQ0hdKFtDSDNdKVtOSF1DKD1PKVtDSDJdW0NIMl1OMVtDSDJdW0NIMl1PW0NASF0oW0NIMl0xKVtDSDJdW05IXWMyW2NIXVtjSF1bY0hdbm4y

> <s_epik_cmdline>
J2VwaWtfcHl0aG9uJywgJy1waCcsICc3LjAnLCAnLXRuJywgJzgnLCAnLW1hJywgJzIwMCcsICctbWV0YWxfYmluZGluZycsICctaW1hZScsICc8aW5maWxlLm1hZT4nLCAnLW9tYWUnLCAnPG91dGZpbGUubWFlPic=

> <r_lp_tautomer_probability>
0.999978

> <r_epik_Ionization_Penalty>
0.433079

> <r_epik_Ionization_Penalty_Charging>
0.413784

> <r_epik_Ionization_Penalty_Neutral>
0.0192945

> <r_epik_State_Penalty>
0.425138

> <r_epik_Charging_Adjusted_Penalty>
0.838922

> <i_epik_Tot_Q>
1

> <i_epik_Tot_abs_Q>
1

> <r_epik_Metal_State_Penalty>
0.422073

> <b_epik_Metal_Only>
0

> <s_lp_Force_Field>
OPLS_2005

> <r_lp_Energy>
22.402

> <b_lp_Chiralities_Consistent>
1

> <s_lp_Variant>
AV-unprocessed.smi:652-4

> <Gold.Version>
5.8.1

> <Gold.Id.Protein>
6NUR|6NUR_protein|mol2

> <Gold.PLP.Fitness>
44.1586

> <Gold.PLP.PLP>
-41.3191

> <Gold.PLP.part.hbond>
-4.4394

> <Gold.PLP.part.metal>
0.0000

> <Gold.PLP.part.buried>
-3.7722

> <Gold.PLP.part.nonpolar>
-33.7851

> <Gold.PLP.part.repulsive>
0.4182

> <Gold.PLP.ligand.clash>
0.0000

> <Gold.PLP.ligand.torsion>
1.3871

> <Gold.PLP.Chemscore.Hbond>
1.7680

> <Gold.PLP.Chemscore.CHOScore>
0.0000

> <Gold.PLP.Chemscore.Metal>
0.0000

> <Gold.Chemscore.Hbonds>
donor molecule, donor type, donor heavy atom, donor atom, acceptor molecule, acceptor atom, score
      L1  H     4    30       P1 10175  0.70
      L1  H     9    48       P1  7957  0.77

> <Gold.PLP.Chemscore.Internal.Correction>
0.3098

> <Gold.Rescore>
     Score         DG    S(hbond)    S(metal)    S(lipo)     H(rot)  DE(clash)    DE(int)     intcor
     14.10     -16.85       1.80        0.00      95.37       2.26       0.09       2.66       ----

> <Gold.Chemscore.Fitness>
14.1005

> <Gold.Chemscore.DG>
-16.8503

> <Gold.Chemscore.ZeroCoef>
-5.4800

> <Gold.Chemscore.Hbond>
1.7954

> <Gold.Chemscore.Metal>
0.0000

> <Gold.Chemscore.Lipo>
95.3661

> <Gold.Chemscore.Internal_Hbond>
0.0000

> <Gold.Chemscore.DEClash>
0.0943

> <Gold.Chemscore.DEInternal>
2.6554

> <Gold.Chemscore.Rot>
2.2594

> <Gold.Chemscore.Internal.Correction>
   9.000000E+99

> <Gold.Chemscore.Hbonds>
donor molecule, donor type, donor heavy atom, donor atom, acceptor molecule, acceptor atom, score
      L1  H     4    30       P1 10175  0.71
      L1  H     9    48       P1  7957  0.75

> <Gold.Chemscore.Hbond.Weighted>
-5.9966

> <Gold.Chemscore.Metal.Weighted>
-0.0000

> <Gold.Chemscore.Lipo.Weighted>
-11.1578

> <Gold.Chemscore.Internal_Hbond.Weighted>
0.0000

> <Gold.Chemscore.DEClash.Weighted>
0.0943

> <Gold.Chemscore.DEInternal.Weighted>
2.6554

> <Gold.Chemscore.Rot.Weighted>
5.7841

> <Gold.Chemscore.Internal.Correction.Weighted>
   9.000000E+99

> <Gold.Protein.RotatedTorsions>
[ 6907 6896 6895 6894 ] final  -55.11 input  -60.11 | X-H torsion
[ 7974 7965 7964 7962 ] final  135.89 input  175.53 | X-H torsion
[ 8008 7997 7996 7995 ] final  -72.04 input   59.86 | X-H torsion
[ 10167 10162 10161 10158 ] final   63.71 input  -65.29 | X-H torsion
[ 10718 10713 10712 10709 ] final   52.92 input   66.30 | X-H torsion
[ 10763 10752 10751 10750 ] final  112.57 input  -60.55 | X-H torsion
[ 11005 11000 10999 10996 ] final   25.50 input  -57.11 | X-H torsion

> <Gold.Protein.ActiveResidues>
 VAL166  LYS551  ARG553  GLY616  TRP617  ASP618  TYR619  PRO620  LYS621  CYS622 
 ASP623  PHE694  ASN695  SER759  ASP760  ASP761  ALA762  ILE779  LEU786  VAL792 
 PHE793  MET794  SER795  GLU796  ALA797  LYS798  CYS799  TRP800  GLU811  SER814 

> <Gold.Protein.RotatedAtoms>
  150.8280  134.7520  159.6828 H   0  0  0  0  0  0  0  0  0  0  0  0  # atno 6907 bound_to 6896
  152.4388  134.5629  159.9909 H   0  0  0  0  0  0  0  0  0  0  0  0  # atno 6908 bound_to 6896
  151.5797  133.3342  159.3042 H   0  0  0  0  0  0  0  0  0  0  0  0  # atno 6909 bound_to 6896
  144.9619  139.4701  143.5475 H   0  0  0  0  0  0  0  0  0  0  0  0  # atno 7974 bound_to 7965
  154.5135  140.0804  156.8035 H   0  0  0  0  0  0  0  0  0  0  0  0  # atno 8008 bound_to 7997
  155.3733  140.3424  155.4226 H   0  0  0  0  0  0  0  0  0  0  0  0  # atno 8009 bound_to 7997
  156.1600  140.1585  156.8615 H   0  0  0  0  0  0  0  0  0  0  0  0  # atno 8010 bound_to 7997
  140.1301  144.4651  150.6870 H   0  0  0  0  0  0  0  0  0  0  0  0  # atno 10167 bound_to 10162
  157.5119  130.8506  149.8446 H   0  0  0  0  0  0  0  0  0  0  0  0  # atno 10718 bound_to 10713
  153.4798  135.3682  155.2436 H   0  0  0  0  0  0  0  0  0  0  0  0  # atno 10763 bound_to 10752
  154.8755  135.3951  154.3714 H   0  0  0  0  0  0  0  0  0  0  0  0  # atno 10764 bound_to 10752
  153.4316  135.7082  153.6292 H   0  0  0  0  0  0  0  0  0  0  0  0  # atno 10765 bound_to 10752
  140.3472  134.2268  155.7683 H   0  0  0  0  0  0  0  0  0  0  0  0  # atno 11005 bound_to 11000
  146.3355  139.8774  142.8830 LP  0  0  0  0  0  0  0  0  0  0  0  0  # atno 17320 bound_to 7965
  145.2688  141.0101  143.3784 LP  0  0  0  0  0  0  0  0  0  0  0  0  # atno 17321 bound_to 7965
  140.6822  143.2332  151.5355 LP  0  0  0  0  0  0  0  0  0  0  0  0  # atno 17342 bound_to 10162
  139.5524  144.2362  152.1553 LP  0  0  0  0  0  0  0  0  0  0  0  0  # atno 17343 bound_to 10162
  156.0295  130.3769  150.1729 LP  0  0  0  0  0  0  0  0  0  0  0  0  # atno 17370 bound_to 10713
  156.9918  130.9895  151.3413 LP  0  0  0  0  0  0  0  0  0  0  0  0  # atno 17371 bound_to 10713
  141.2022  133.7943  157.0401 LP  0  0  0  0  0  0  0  0  0  0  0  0  # atno 17394 bound_to 11000
  140.0733  134.9690  157.1503 LP  0  0  0  0  0  0  0  0  0  0  0  0  # atno 17395 bound_to 11000

$$$$
