AV-unprocessed.smi:1347|AV-procd|sdf|5516|dock8
  -GOLD-   22720 5103D 1   1.00000     0.00000
 Structure written by MMmdl.
 38 39  0  0  0  0  0  0  0  0  1 V2000
  145.8459  144.3775  161.6514 C   0  0  0  0  0  0  0  0  0  0  0  0
  147.1886  143.9560  161.4900 O   0  0  0  0  0  0  0  0  0  0  0  0
  148.1064  145.0345  161.5691 C   0  0  0  0  0  0  0  0  0  0  0  0
  149.1028  144.9272  160.4159 C   0  0  0  0  0  0  0  0  0  0  0  0
  149.9714  145.7859  160.2637 O   0  0  0  0  0  0  0  0  0  0  0  0
  148.9735  143.8581  159.6166 N   0  0  0  0  0  0  0  0  0  0  0  0
  149.8534  143.5319  158.4995 C   0  0  0  0  0  0  0  0  0  0  0  0
  151.1383  142.8242  158.9180 C   0  0  0  0  0  0  0  0  0  0  0  0
  151.8900  143.3333  159.9983 C   0  0  0  0  0  0  0  0  0  0  0  0
  153.0729  142.6763  160.3826 C   0  0  0  0  0  0  0  0  0  0  0  0
  153.4622  141.5297  159.6664 C   0  0  0  0  0  0  0  0  0  0  0  0
  152.7567  141.0308  158.6299 N   0  0  0  0  0  0  0  0  0  0  0  0
  151.6159  141.6612  158.2592 C   0  0  0  0  0  0  0  0  0  0  0  0
  150.9025  141.1176  157.1794 N   0  0  0  0  0  0  0  0  0  0  0  0
  150.7280  142.0283  156.0566 C   0  0  0  0  0  0  0  0  0  0  0  0
  149.7897  141.3940  155.0149 C   0  0  0  0  0  0  0  0  0  0  0  0
  150.3011  140.1239  154.6180 O   0  0  0  0  0  0  0  0  0  0  0  0
  150.4057  139.2187  155.7140 C   0  0  0  0  0  0  0  0  0  0  0  0
  151.3628  139.7973  156.7693 C   0  0  0  0  0  0  0  0  0  0  0  0
  145.1803  143.5174  161.5781 H   0  0  0  0  0  0  0  0  0  0  0  0
  145.5608  145.0908  160.8771 H   0  0  0  0  0  0  0  0  0  0  0  0
  145.6926  144.8396  162.6275 H   0  0  0  0  0  0  0  0  0  0  0  0
  147.5826  145.9886  161.4940 H   0  0  0  0  0  0  0  0  0  0  0  0
  148.6309  145.0157  162.5263 H   0  0  0  0  0  0  0  0  0  0  0  0
  148.2290  143.2056  159.8147 H   0  0  0  0  0  0  0  0  0  0  0  0
  149.3085  142.8824  157.8140 H   0  0  0  0  0  0  0  0  0  0  0  0
  150.0844  144.4396  157.9399 H   0  0  0  0  0  0  0  0  0  0  0  0
  151.5639  144.2145  160.5311 H   0  0  0  0  0  0  0  0  0  0  0  0
  153.6663  143.0419  161.2073 H   0  0  0  0  0  0  0  0  0  0  0  0
  154.3645  140.9993  159.9323 H   0  0  0  0  0  0  0  0  0  0  0  0
  150.3148  142.9744  156.4080 H   0  0  0  0  0  0  0  0  0  0  0  0
  151.6961  142.2447  155.6029 H   0  0  0  0  0  0  0  0  0  0  0  0
  148.7820  141.2808  155.4179 H   0  0  0  0  0  0  0  0  0  0  0  0
  149.7118  142.0361  154.1375 H   0  0  0  0  0  0  0  0  0  0  0  0
  149.4197  139.0348  156.1441 H   0  0  0  0  0  0  0  0  0  0  0  0
  150.7794  138.2609  155.3512 H   0  0  0  0  0  0  0  0  0  0  0  0
  152.3702  139.8686  156.3571 H   0  0  0  0  0  0  0  0  0  0  0  0
  151.4123  139.1359  157.6352 H   0  0  0  0  0  0  0  0  0  0  0  0
  1  2  1  0  0  0  0
  1 20  1  0  0  0  0
  1 21  1  0  0  0  0
  1 22  1  0  0  0  0
  2  3  1  0  0  0  0
  3  4  1  0  0  0  0
  3 23  1  0  0  0  0
  3 24  1  0  0  0  0
  4  5  2  0  0  0  0
  4  6  1  0  0  0  0
  6  7  1  0  0  0  0
  6 25  1  0  0  0  0
  7  8  1  0  0  0  0
  7 26  1  0  0  0  0
  7 27  1  0  0  0  0
  8 13  1  0  0  0  0
  8  9  2  0  0  0  0
  9 10  1  0  0  0  0
  9 28  1  0  0  0  0
 10 11  2  0  0  0  0
 10 29  1  0  0  0  0
 11 12  1  0  0  0  0
 11 30  1  0  0  0  0
 12 13  2  0  0  0  0
 13 14  1  0  0  0  0
 14 19  1  0  0  0  0
 14 15  1  0  0  0  0
 15 16  1  0  0  0  0
 15 31  1  0  0  0  0
 15 32  1  0  0  0  0
 16 17  1  0  0  0  0
 16 33  1  0  0  0  0
 16 34  1  0  0  0  0
 17 18  1  0  0  0  0
 18 19  1  0  0  0  0
 18 35  1  0  0  0  0
 18 36  1  0  0  0  0
 19 37  1  0  0  0  0
 19 38  1  0  0  0  0
M  END
> <s_m_source_file>
AV-unprocessed.smi

> <i_m_source_file_index>
1347

> <i_lp_mmshare_version>
43012

> <i_f3d_flags>
0

> <s_epik_input>
W0NIM11PW0NIMl1DKD1PKVtOSF1bQ0gyXWMxW2NIXVtjSF1bY0hdbmMxTjJbQ0gyXVtDSDJdT1tDSDJdW0NIMl0y

> <s_epik_cmdline>
J2VwaWtfcHl0aG9uJywgJy1waCcsICc3LjAnLCAnLXRuJywgJzgnLCAnLW1hJywgJzIwMCcsICctbWV0YWxfYmluZGluZycsICctaW1hZScsICc8aW5maWxlLm1hZT4nLCAnLW9tYWUnLCAnPG91dGZpbGUubWFlPic=

> <r_lp_tautomer_probability>
1

> <r_epik_Ionization_Penalty>
0.00422298

> <r_epik_Ionization_Penalty_Charging>
0

> <r_epik_Ionization_Penalty_Neutral>
0.00422298

> <r_epik_State_Penalty>
0.00303469

> <r_epik_Charging_Adjusted_Penalty>
0.00303469

> <i_epik_Tot_Q>
0

> <i_epik_Tot_abs_Q>
0

> <r_epik_Metal_State_Penalty>
-0

> <b_epik_Metal_Only>
0

> <s_lp_Force_Field>
OPLS_2005

> <r_lp_Energy>
19.5871

> <b_lp_Chiralities_Consistent>
1

> <s_lp_Variant>
AV-unprocessed.smi:1347-1

> <Gold.Version>
5.8.1

> <Gold.Id.Protein>
6NUR|6NUR_protein|mol2

> <Gold.PLP.Fitness>
39.9085

> <Gold.PLP.PLP>
-36.1840

> <Gold.PLP.part.hbond>
-3.0000

> <Gold.PLP.part.metal>
0.0000

> <Gold.PLP.part.buried>
-4.7160

> <Gold.PLP.part.nonpolar>
-28.9687

> <Gold.PLP.part.repulsive>
0.9476

> <Gold.PLP.ligand.clash>
0.0334

> <Gold.PLP.ligand.torsion>
0.7508

> <Gold.PLP.Chemscore.Hbond>
1.7000

> <Gold.PLP.Chemscore.CHOScore>
0.0000

> <Gold.PLP.Chemscore.Metal>
0.0000

> <Gold.Chemscore.Hbonds>
donor molecule, donor type, donor heavy atom, donor atom, acceptor molecule, acceptor atom, score
      P1  H  6933  6944       L1     2  0.94
      P1  H  7989  7998       L1    17  0.70

> <Gold.PLP.Chemscore.Internal.Correction>
0.1596

> <Gold.Rescore>
     Score         DG    S(hbond)    S(metal)    S(lipo)     H(rot)  DE(clash)    DE(int)     intcor
     12.00     -14.69       1.17        0.00      87.70       1.94       1.01       1.69       ----

> <Gold.Chemscore.Fitness>
11.9974

> <Gold.Chemscore.DG>
-14.6942

> <Gold.Chemscore.ZeroCoef>
-5.4800

> <Gold.Chemscore.Hbond>
1.1724

> <Gold.Chemscore.Metal>
0.0000

> <Gold.Chemscore.Lipo>
87.7026

> <Gold.Chemscore.Internal_Hbond>
0.0000

> <Gold.Chemscore.DEClash>
1.0071

> <Gold.Chemscore.DEInternal>
1.6898

> <Gold.Chemscore.Rot>
1.9385

> <Gold.Chemscore.Internal.Correction>
   9.000000E+99

> <Gold.Chemscore.Hbonds>
donor molecule, donor type, donor heavy atom, donor atom, acceptor molecule, acceptor atom, score
      P1  H  6933  6944       L1     2  0.23
      P1  H  7989  7998       L1    17  0.07

> <Gold.Chemscore.Hbond.Weighted>
-3.9157

> <Gold.Chemscore.Metal.Weighted>
-0.0000

> <Gold.Chemscore.Lipo.Weighted>
-10.2612

> <Gold.Chemscore.Internal_Hbond.Weighted>
0.0000

> <Gold.Chemscore.DEClash.Weighted>
1.0071

> <Gold.Chemscore.DEInternal.Weighted>
1.6898

> <Gold.Chemscore.Rot.Weighted>
4.9627

> <Gold.Chemscore.Internal.Correction.Weighted>
   9.000000E+99

> <Gold.Protein.RotatedTorsions>
[ 6907 6896 6895 6894 ] final   -3.08 input  -60.11 | X-H torsion
[ 7974 7965 7964 7962 ] final   -5.79 input  175.53 | X-H torsion
[ 8008 7997 7996 7995 ] final  153.82 input   59.86 | X-H torsion
[ 10167 10162 10161 10158 ] final   57.76 input  -65.29 | X-H torsion
[ 10718 10713 10712 10709 ] final  101.10 input   66.30 | X-H torsion
[ 10763 10752 10751 10750 ] final  -52.54 input  -60.55 | X-H torsion
[ 11005 11000 10999 10996 ] final    5.40 input  -57.11 | X-H torsion

> <Gold.Protein.ActiveResidues>
 VAL166  LYS551  ARG553  GLY616  TRP617  ASP618  TYR619  PRO620  LYS621  CYS622 
 ASP623  PHE694  ASN695  SER759  ASP760  ASP761  ALA762  ILE779  LEU786  VAL792 
 PHE793  MET794  SER795  GLU796  ALA797  LYS798  CYS799  TRP800  GLU811  SER814 

> <Gold.Protein.RotatedAtoms>
  151.5195  135.1067  159.9874 H   0  0  0  0  0  0  0  0  0  0  0  0  # atno 6907 bound_to 6896
  152.4626  133.7851  159.6882 H   0  0  0  0  0  0  0  0  0  0  0  0  # atno 6908 bound_to 6896
  150.8596  133.7600  159.3022 H   0  0  0  0  0  0  0  0  0  0  0  0  # atno 6909 bound_to 6896
  146.2345  140.2074  142.8334 H   0  0  0  0  0  0  0  0  0  0  0  0  # atno 7974 bound_to 7965
  156.2562  140.1983  156.6550 H   0  0  0  0  0  0  0  0  0  0  0  0  # atno 8008 bound_to 7997
  154.6508  140.0572  156.9978 H   0  0  0  0  0  0  0  0  0  0  0  0  # atno 8009 bound_to 7997
  155.1421  140.3243  155.4452 H   0  0  0  0  0  0  0  0  0  0  0  0  # atno 8010 bound_to 7997
  140.1946  144.4051  150.6556 H   0  0  0  0  0  0  0  0  0  0  0  0  # atno 10167 bound_to 10162
  157.6838  131.0717  150.5201 H   0  0  0  0  0  0  0  0  0  0  0  0  # atno 10718 bound_to 10713
  154.1444  135.6500  153.4949 H   0  0  0  0  0  0  0  0  0  0  0  0  # atno 10763 bound_to 10752
  153.0156  135.5323  154.6872 H   0  0  0  0  0  0  0  0  0  0  0  0  # atno 10764 bound_to 10752
  154.6142  135.2957  155.0369 H   0  0  0  0  0  0  0  0  0  0  0  0  # atno 10765 bound_to 10752
  140.5712  134.0101  155.8009 H   0  0  0  0  0  0  0  0  0  0  0  0  # atno 11005 bound_to 11000
  144.9734  140.8390  143.5441 LP  0  0  0  0  0  0  0  0  0  0  0  0  # atno 17320 bound_to 7965
  145.2058  139.2229  143.5169 LP  0  0  0  0  0  0  0  0  0  0  0  0  # atno 17321 bound_to 7965
  140.6432  143.2208  151.6243 LP  0  0  0  0  0  0  0  0  0  0  0  0  # atno 17342 bound_to 10162
  139.5242  144.3111  152.0992 LP  0  0  0  0  0  0  0  0  0  0  0  0  # atno 17343 bound_to 10162
  156.5515  130.4233  149.6105 LP  0  0  0  0  0  0  0  0  0  0  0  0  # atno 17370 bound_to 10713
  156.2898  130.7118  151.1964 LP  0  0  0  0  0  0  0  0  0  0  0  0  # atno 17371 bound_to 10713
  141.1055  133.9700  157.3004 LP  0  0  0  0  0  0  0  0  0  0  0  0  # atno 17394 bound_to 11000
  139.9361  135.0196  156.8560 LP  0  0  0  0  0  0  0  0  0  0  0  0  # atno 17395 bound_to 11000

$$$$
