AV-unprocessed.smi:563|AV-procd|sdf|2946|dock8
  -GOLD-   2262023443D 1   1.00000     0.00000
 Structure written by MMmdl.
 31 32  0  0  0  0  0  0  0  0  1 V2000
  152.9974  138.7715  154.1937 C   0  0  0  0  0  0  0  0  0  0  0  0
  152.0686  139.1347  155.3010 C   0  0  0  0  0  0  0  0  0  0  0  0
  152.4768  139.4661  156.5288 N   0  0  0  0  0  0  0  0  0  0  0  0
  151.4139  139.7671  157.3875 C   0  0  0  0  0  0  0  0  0  0  0  0
  151.6856  140.1549  158.8115 C   0  0  0  0  0  0  0  0  0  0  0  0
  151.6850  141.6772  158.9561 C   0  0  0  0  0  0  0  0  0  0  0  0
  150.7028  142.3288  158.6013 O   0  0  0  0  0  0  0  0  0  0  0  0
  152.7882  142.2296  159.4850 N   0  0  0  0  0  0  0  0  0  0  0  0
  152.9846  143.6578  159.7181 C   0  0  0  0  0  0  0  0  0  0  0  0
  152.0719  144.1587  160.8542 C   0  0  0  0  0  0  0  0  0  0  0  0
  151.3977  145.4274  160.3286 C   0  0  0  0  0  0  0  0  0  0  0  0
  151.3126  145.2121  158.8212 C   0  0  0  0  0  0  0  0  0  0  0  0
  152.6145  144.4900  158.4735 C   0  0  0  0  0  0  0  0  0  0  0  0
  150.1851  139.6539  156.7852 C   0  0  0  0  0  0  0  0  0  0  0  0
  150.3195  139.1728  155.1165 S   0  0  0  0  0  0  0  0  0  0  0  0
  153.9643  138.4610  154.5909 H   0  0  0  0  0  0  0  0  0  0  0  0
  153.1460  139.6287  153.5367 H   0  0  0  0  0  0  0  0  0  0  0  0
  152.5813  137.9502  153.6100 H   0  0  0  0  0  0  0  0  0  0  0  0
  150.9283  139.7330  159.4734 H   0  0  0  0  0  0  0  0  0  0  0  0
  152.6434  139.7569  159.1499 H   0  0  0  0  0  0  0  0  0  0  0  0
  153.5475  141.6161  159.7438 H   0  0  0  0  0  0  0  0  0  0  0  0
  154.0271  143.8444  159.9832 H   0  0  0  0  0  0  0  0  0  0  0  0
  151.3030  143.4194  161.0854 H   0  0  0  0  0  0  0  0  0  0  0  0
  152.6256  144.3442  161.7751 H   0  0  0  0  0  0  0  0  0  0  0  0
  150.4233  145.6057  160.7839 H   0  0  0  0  0  0  0  0  0  0  0  0
  152.0273  146.2931  160.5393 H   0  0  0  0  0  0  0  0  0  0  0  0
  150.4619  144.5696  158.5893 H   0  0  0  0  0  0  0  0  0  0  0  0
  151.1880  146.1438  158.2687 H   0  0  0  0  0  0  0  0  0  0  0  0
  153.3969  145.2280  158.2916 H   0  0  0  0  0  0  0  0  0  0  0  0
  152.5201  143.8962  157.5634 H   0  0  0  0  0  0  0  0  0  0  0  0
  149.2123  139.8273  157.2211 H   0  0  0  0  0  0  0  0  0  0  0  0
  1  2  1  0  0  0  0
  1 16  1  0  0  0  0
  1 17  1  0  0  0  0
  1 18  1  0  0  0  0
  2 15  1  0  0  0  0
  2  3  2  0  0  0  0
  3  4  1  0  0  0  0
  4  5  1  0  0  0  0
  4 14  2  0  0  0  0
  5  6  1  0  0  0  0
  5 19  1  0  0  0  0
  5 20  1  0  0  0  0
  6  7  2  0  0  0  0
  6  8  1  0  0  0  0
  8  9  1  0  0  0  0
  8 21  1  0  0  0  0
  9 13  1  0  0  0  0
  9 10  1  0  0  0  0
  9 22  1  0  0  0  0
 10 11  1  0  0  0  0
 10 23  1  0  0  0  0
 10 24  1  0  0  0  0
 11 12  1  0  0  0  0
 11 25  1  0  0  0  0
 11 26  1  0  0  0  0
 12 13  1  0  0  0  0
 12 27  1  0  0  0  0
 12 28  1  0  0  0  0
 13 29  1  0  0  0  0
 13 30  1  0  0  0  0
 14 15  1  0  0  0  0
 14 31  1  0  0  0  0
M  END
> <s_m_source_file>
AV-unprocessed.smi

> <i_m_source_file_index>
563

> <i_lp_mmshare_version>
43012

> <i_f3d_flags>
0

> <s_epik_input>
W0NIM11jMW5jKFtjSF1zMSlbQ0gyXUMoPU8pW05IXVtDSF0yW0NIMl1bQ0gyXVtDSDJdW0NIMl0y

> <s_epik_cmdline>
J2VwaWtfcHl0aG9uJywgJy1waCcsICc3LjAnLCAnLXRuJywgJzgnLCAnLW1hJywgJzIwMCcsICctbWV0YWxfYmluZGluZycsICctaW1hZScsICc8aW5maWxlLm1hZT4nLCAnLW9tYWUnLCAnPG91dGZpbGUubWFlPic=

> <r_lp_tautomer_probability>
1

> <r_epik_Ionization_Penalty>
6.26871e-05

> <r_epik_Ionization_Penalty_Charging>
0

> <r_epik_Ionization_Penalty_Neutral>
6.26871e-05

> <r_epik_State_Penalty>
-0

> <r_epik_Charging_Adjusted_Penalty>
0

> <i_epik_Tot_Q>
0

> <i_epik_Tot_abs_Q>
0

> <r_epik_Metal_State_Penalty>
-0

> <b_epik_Metal_Only>
0

> <s_lp_Force_Field>
OPLS_2005

> <r_lp_Energy>
15.9106

> <b_lp_Chiralities_Consistent>
1

> <s_lp_Variant>
AV-unprocessed.smi:563-1

> <Gold.Version>
5.8.1

> <Gold.Id.Protein>
6NUR|6NUR_protein|mol2

> <Gold.PLP.Fitness>
38.6169

> <Gold.PLP.PLP>
-36.5093

> <Gold.PLP.part.hbond>
-1.0000

> <Gold.PLP.part.metal>
0.0000

> <Gold.PLP.part.buried>
-5.2694

> <Gold.PLP.part.nonpolar>
-30.1557

> <Gold.PLP.part.repulsive>
0.1280

> <Gold.PLP.ligand.clash>
0.0000

> <Gold.PLP.ligand.torsion>
0.4480

> <Gold.PLP.Chemscore.Hbond>
1.0000

> <Gold.PLP.Chemscore.CHOScore>
0.0000

> <Gold.PLP.Chemscore.Metal>
0.0000

> <Gold.Chemscore.Hbonds>
donor molecule, donor type, donor heavy atom, donor atom, acceptor molecule, acceptor atom, score
      P1  H  7997  8010       L1     3  1.00

> <Gold.PLP.Chemscore.Internal.Correction>
0.0034

> <Gold.Rescore>
     Score         DG    S(hbond)    S(metal)    S(lipo)     H(rot)  DE(clash)    DE(int)     intcor
     13.89     -17.17       0.95        0.00     101.03       1.29       0.07       3.22       ----

> <Gold.Chemscore.Fitness>
13.8897

> <Gold.Chemscore.DG>
-17.1739

> <Gold.Chemscore.ZeroCoef>
-5.4800

> <Gold.Chemscore.Hbond>
0.9544

> <Gold.Chemscore.Metal>
0.0000

> <Gold.Chemscore.Lipo>
101.0269

> <Gold.Chemscore.Internal_Hbond>
0.0000

> <Gold.Chemscore.DEClash>
0.0688

> <Gold.Chemscore.DEInternal>
3.2153

> <Gold.Chemscore.Rot>
1.2946

> <Gold.Chemscore.Internal.Correction>
   9.000000E+99

> <Gold.Chemscore.Hbonds>
donor molecule, donor type, donor heavy atom, donor atom, acceptor molecule, acceptor atom, score
      P1  H  7997  8010       L1     3  0.69

> <Gold.Chemscore.Hbond.Weighted>
-3.1879

> <Gold.Chemscore.Metal.Weighted>
-0.0000

> <Gold.Chemscore.Lipo.Weighted>
-11.8201

> <Gold.Chemscore.Internal_Hbond.Weighted>
0.0000

> <Gold.Chemscore.DEClash.Weighted>
0.0688

> <Gold.Chemscore.DEInternal.Weighted>
3.2153

> <Gold.Chemscore.Rot.Weighted>
3.3141

> <Gold.Chemscore.Internal.Correction.Weighted>
   9.000000E+99

> <Gold.Protein.RotatedTorsions>
[ 6907 6896 6895 6894 ] final -150.07 input  -60.11 | X-H torsion
[ 7974 7965 7964 7962 ] final   85.33 input  175.53 | X-H torsion
[ 8008 7997 7996 7995 ] final   72.82 input   59.86 | X-H torsion
[ 10167 10162 10161 10158 ] final -134.53 input  -65.29 | X-H torsion
[ 10718 10713 10712 10709 ] final   50.26 input   66.30 | X-H torsion
[ 10763 10752 10751 10750 ] final   38.15 input  -60.55 | X-H torsion
[ 11005 11000 10999 10996 ] final   34.28 input  -57.11 | X-H torsion

> <Gold.Protein.ActiveResidues>
 VAL166  LYS551  ARG553  GLY616  TRP617  ASP618  TYR619  PRO620  LYS621  CYS622 
 ASP623  PHE694  ASN695  SER759  ASP760  ASP761  ALA762  ILE779  LEU786  VAL792 
 PHE793  MET794  SER795  GLU796  ALA797  LYS798  CYS799  TRP800  GLU811  SER814 

> <Gold.Protein.RotatedAtoms>
  151.1932  133.4655  159.2594 H   0  0  0  0  0  0  0  0  0  0  0  0  # atno 6907 bound_to 6896
  151.1143  135.0044  159.8519 H   0  0  0  0  0  0  0  0  0  0  0  0  # atno 6908 bound_to 6896
  152.5452  134.1848  159.8703 H   0  0  0  0  0  0  0  0  0  0  0  0  # atno 6909 bound_to 6896
  145.5869  139.2332  143.2321 H   0  0  0  0  0  0  0  0  0  0  0  0  # atno 7974 bound_to 7965
  155.7745  140.3483  155.5264 H   0  0  0  0  0  0  0  0  0  0  0  0  # atno 8008 bound_to 7997
  155.8789  140.0999  157.1519 H   0  0  0  0  0  0  0  0  0  0  0  0  # atno 8009 bound_to 7997
  154.4023  140.1326  156.4159 H   0  0  0  0  0  0  0  0  0  0  0  0  # atno 8010 bound_to 7997
  139.8871  143.6768  152.2618 H   0  0  0  0  0  0  0  0  0  0  0  0  # atno 10167 bound_to 10162
  157.4867  130.8350  149.8155 H   0  0  0  0  0  0  0  0  0  0  0  0  # atno 10718 bound_to 10713
  153.0011  135.6257  154.2259 H   0  0  0  0  0  0  0  0  0  0  0  0  # atno 10763 bound_to 10752
  154.2002  135.2804  155.2995 H   0  0  0  0  0  0  0  0  0  0  0  0  # atno 10764 bound_to 10752
  154.5690  135.5682  153.7136 H   0  0  0  0  0  0  0  0  0  0  0  0  # atno 10765 bound_to 10752
  140.2545  134.3264  155.7878 H   0  0  0  0  0  0  0  0  0  0  0  0  # atno 11005 bound_to 11000
  146.1675  140.6696  142.9248 LP  0  0  0  0  0  0  0  0  0  0  0  0  # atno 17320 bound_to 7965
  144.7368  140.4832  143.6897 LP  0  0  0  0  0  0  0  0  0  0  0  0  # atno 17321 bound_to 7965
  139.7143  144.7614  151.1059 LP  0  0  0  0  0  0  0  0  0  0  0  0  # atno 17342 bound_to 10162
  140.7734  143.5289  150.9447 LP  0  0  0  0  0  0  0  0  0  0  0  0  # atno 17343 bound_to 10162
  156.0151  130.3817  150.2137 LP  0  0  0  0  0  0  0  0  0  0  0  0  # atno 17370 bound_to 10713
  157.0325  131.0011  151.3308 LP  0  0  0  0  0  0  0  0  0  0  0  0  # atno 17371 bound_to 10713
  141.2197  133.7373  156.9090 LP  0  0  0  0  0  0  0  0  0  0  0  0  # atno 17394 bound_to 11000
  140.1525  134.9220  157.2611 LP  0  0  0  0  0  0  0  0  0  0  0  0  # atno 17395 bound_to 11000

$$$$
