AV-unprocessed.smi:2791|AV-procd|sdf|10771|dock6
  -GOLD-   2272015203D 1   1.00000     0.00000
 Structure written by MMmdl.
 35 36  0  0  0  0  0  0  0  0  1 V2000
  145.1820  134.3016  154.5007 C   0  0  0  0  0  0  0  0  0  0  0  0
  145.6956  134.3412  153.1757 O   0  0  0  0  0  0  0  0  0  0  0  0
  145.0244  135.2182  152.2703 C   0  0  0  0  0  0  0  0  0  0  0  0
  145.0331  136.6705  152.7668 C   0  0  0  0  0  0  0  0  0  0  0  0
  146.3978  137.1634  152.8949 N   0  0  0  0  0  0  0  0  0  0  0  0
  146.7384  138.2905  153.5320 C   0  0  0  0  0  0  0  0  0  0  0  0
  145.9212  139.0302  154.0805 O   0  0  0  0  0  0  0  0  0  0  0  0
  148.0666  138.4928  153.4831 N   0  0  0  0  0  0  0  0  0  0  0  0
  148.7893  139.5191  154.0056 C   0  0  0  0  0  0  0  0  0  0  0  0
  148.4040  140.8111  154.2401 C   0  0  0  0  0  0  0  0  0  0  0  0
  149.5829  141.3884  154.7930 C   0  0  0  0  0  0  0  0  0  0  0  0
  150.5885  140.5273  154.8880 N   0  0  0  0  0  0  0  0  0  0  0  0
  150.1002  139.3655  154.4013 N   0  0  0  0  0  0  0  0  0  0  0  0
  150.9433  138.1868  154.3542 C   0  0  0  0  0  0  0  0  0  0  0  0
  145.5635  134.9425  150.8537 C   0  0  0  0  0  0  0  0  0  0  0  0
  144.1200  134.9343  150.3474 C   0  0  0  0  0  0  0  0  0  0  0  0
  143.6951  134.6092  151.7804 C   0  0  0  0  0  0  0  0  0  0  0  0
  145.6954  133.5197  155.0597 H   0  0  0  0  0  0  0  0  0  0  0  0
  144.1156  134.0758  154.5194 H   0  0  0  0  0  0  0  0  0  0  0  0
  145.3508  135.2402  155.0281 H   0  0  0  0  0  0  0  0  0  0  0  0
  144.4948  137.3113  152.0667 H   0  0  0  0  0  0  0  0  0  0  0  0
  144.5143  136.7678  153.7210 H   0  0  0  0  0  0  0  0  0  0  0  0
  147.1257  136.6056  152.4729 H   0  0  0  0  0  0  0  0  0  0  0  0
  148.6032  137.7998  152.9826 H   0  0  0  0  0  0  0  0  0  0  0  0
  147.4500  141.2819  154.0578 H   0  0  0  0  0  0  0  0  0  0  0  0
  149.7374  142.4031  155.1288 H   0  0  0  0  0  0  0  0  0  0  0  0
  150.9896  137.8102  153.3320 H   0  0  0  0  0  0  0  0  0  0  0  0
  150.5275  137.4136  155.0003 H   0  0  0  0  0  0  0  0  0  0  0  0
  151.9541  138.4231  154.6893 H   0  0  0  0  0  0  0  0  0  0  0  0
  146.1835  135.7349  150.4333 H   0  0  0  0  0  0  0  0  0  0  0  0
  146.0446  133.9673  150.7576 H   0  0  0  0  0  0  0  0  0  0  0  0
  143.7804  135.9170  150.0156 H   0  0  0  0  0  0  0  0  0  0  0  0
  143.8958  134.1576  149.6159 H   0  0  0  0  0  0  0  0  0  0  0  0
  143.6195  133.5346  151.9564 H   0  0  0  0  0  0  0  0  0  0  0  0
  142.8000  135.1339  152.1160 H   0  0  0  0  0  0  0  0  0  0  0  0
  1  2  1  0  0  0  0
  1 18  1  0  0  0  0
  1 19  1  0  0  0  0
  1 20  1  0  0  0  0
  2  3  1  0  0  0  0
  3 17  1  0  0  0  0
  3  4  1  0  0  0  0
  3 15  1  0  0  0  0
  4  5  1  0  0  0  0
  4 21  1  0  0  0  0
  4 22  1  0  0  0  0
  5  6  1  0  0  0  0
  5 23  1  0  0  0  0
  6  7  2  0  0  0  0
  6  8  1  0  0  0  0
  8  9  1  0  0  0  0
  8 24  1  0  0  0  0
  9 13  1  0  0  0  0
  9 10  2  0  0  0  0
 10 11  1  0  0  0  0
 10 25  1  0  0  0  0
 11 12  2  0  0  0  0
 11 26  1  0  0  0  0
 12 13  1  0  0  0  0
 13 14  1  0  0  0  0
 14 27  1  0  0  0  0
 14 28  1  0  0  0  0
 14 29  1  0  0  0  0
 15 16  1  0  0  0  0
 15 30  1  0  0  0  0
 15 31  1  0  0  0  0
 16 17  1  0  0  0  0
 16 32  1  0  0  0  0
 16 33  1  0  0  0  0
 17 34  1  0  0  0  0
 17 35  1  0  0  0  0
M  END
> <s_m_source_file>
AV-unprocessed.smi

> <i_m_source_file_index>
2791

> <i_lp_mmshare_version>
43012

> <i_f3d_flags>
0

> <s_epik_input>
W0NIMl0xW0NIMl1bQ0gyXUMxKE9bQ0gzXSlbQ0gyXVtOSF1DKD1PKVtOSF1jMltjSF1bY0hdbm4yW0NIM10=

> <s_epik_cmdline>
J2VwaWtfcHl0aG9uJywgJy1waCcsICc3LjAnLCAnLXRuJywgJzgnLCAnLW1hJywgJzIwMCcsICctbWV0YWxfYmluZGluZycsICctaW1hZScsICc8aW5maWxlLm1hZT4nLCAnLW9tYWUnLCAnPG91dGZpbGUubWFlPic=

> <r_lp_tautomer_probability>
1

> <r_epik_Ionization_Penalty>
4.34911e-05

> <r_epik_Ionization_Penalty_Charging>
0

> <r_epik_Ionization_Penalty_Neutral>
4.34911e-05

> <r_epik_State_Penalty>
-0

> <r_epik_Charging_Adjusted_Penalty>
0

> <i_epik_Tot_Q>
0

> <i_epik_Tot_abs_Q>
0

> <r_epik_Metal_State_Penalty>
-0

> <b_epik_Metal_Only>
0

> <s_lp_Force_Field>
OPLS_2005

> <r_lp_Energy>
18.0019

> <b_lp_Chiralities_Consistent>
1

> <s_lp_Variant>
AV-unprocessed.smi:2791-1

> <Gold.Version>
5.8.1

> <Gold.Id.Protein>
6NUR|6NUR_protein|mol2

> <Gold.PLP.Fitness>
38.2808

> <Gold.PLP.PLP>
-27.5052

> <Gold.PLP.part.hbond>
-3.5423

> <Gold.PLP.part.metal>
0.0000

> <Gold.PLP.part.buried>
-1.7024

> <Gold.PLP.part.nonpolar>
-22.8195

> <Gold.PLP.part.repulsive>
0.3459

> <Gold.PLP.ligand.clash>
0.0000

> <Gold.PLP.ligand.torsion>
0.3854

> <Gold.PLP.Chemscore.Hbond>
2.7500

> <Gold.PLP.Chemscore.CHOScore>
1.0000

> <Gold.PLP.Chemscore.Metal>
0.0000

> <Gold.Chemscore.Hbonds>
donor molecule, donor type, donor heavy atom, donor atom, acceptor molecule, acceptor atom, score
      L1  H     5    23       P1  7948  1.00
      L1  H     8    24       P1  7948  1.00
      P1  H  7989  7998       L1    12  0.80
      L1  C    11    26       P1  8028  1.00

> <Gold.PLP.Chemscore.Internal.Correction>
0.2965

> <Gold.Rescore>
     Score         DG    S(hbond)    S(metal)    S(lipo)     H(rot)  DE(clash)    DE(int)     intcor
     13.31     -13.84       1.98        0.00      48.40       1.53       0.04       0.49       ----

> <Gold.Chemscore.Fitness>
13.3062

> <Gold.Chemscore.DG>
-13.8353

> <Gold.Chemscore.ZeroCoef>
-5.4800

> <Gold.Chemscore.Hbond>
1.9817

> <Gold.Chemscore.Metal>
0.0000

> <Gold.Chemscore.Lipo>
48.4021

> <Gold.Chemscore.Internal_Hbond>
0.0000

> <Gold.Chemscore.DEClash>
0.0431

> <Gold.Chemscore.DEInternal>
0.4860

> <Gold.Chemscore.Rot>
1.5339

> <Gold.Chemscore.Internal.Correction>
   9.000000E+99

> <Gold.Chemscore.Hbonds>
donor molecule, donor type, donor heavy atom, donor atom, acceptor molecule, acceptor atom, score
      L1  H     5    23       P1  7948  0.97
      L1  H     8    24       P1  7948  0.99
      P1  H  7989  7998       L1    12  0.06

> <Gold.Chemscore.Hbond.Weighted>
-6.6190

> <Gold.Chemscore.Metal.Weighted>
-0.0000

> <Gold.Chemscore.Lipo.Weighted>
-5.6630

> <Gold.Chemscore.Internal_Hbond.Weighted>
0.0000

> <Gold.Chemscore.DEClash.Weighted>
0.0431

> <Gold.Chemscore.DEInternal.Weighted>
0.4860

> <Gold.Chemscore.Rot.Weighted>
3.9267

> <Gold.Chemscore.Internal.Correction.Weighted>
   9.000000E+99

> <Gold.Protein.RotatedTorsions>
[ 6907 6896 6895 6894 ] final   90.37 input  -60.11 | X-H torsion
[ 7974 7965 7964 7962 ] final  151.45 input  175.53 | X-H torsion
[ 8008 7997 7996 7995 ] final  -30.79 input   59.86 | X-H torsion
[ 10167 10162 10161 10158 ] final  149.29 input  -65.29 | X-H torsion
[ 10718 10713 10712 10709 ] final  -70.30 input   66.30 | X-H torsion
[ 10763 10752 10751 10750 ] final -130.86 input  -60.55 | X-H torsion
[ 11005 11000 10999 10996 ] final  159.05 input  -57.11 | X-H torsion

> <Gold.Protein.ActiveResidues>
 VAL166  LYS551  ARG553  GLY616  TRP617  ASP618  TYR619  PRO620  LYS621  CYS622 
 ASP623  PHE694  ASN695  SER759  ASP760  ASP761  ALA762  ILE779  LEU786  VAL792 
 PHE793  MET794  SER795  GLU796  ALA797  LYS798  CYS799  TRP800  GLU811  SER814 

> <Gold.Protein.RotatedAtoms>
  152.5444  134.1822  159.8639 H   0  0  0  0  0  0  0  0  0  0  0  0  # atno 6907 bound_to 6896
  151.1824  133.4710  159.2601 H   0  0  0  0  0  0  0  0  0  0  0  0  # atno 6908 bound_to 6896
  151.1165  135.0067  159.8574 H   0  0  0  0  0  0  0  0  0  0  0  0  # atno 6909 bound_to 6896
  144.8292  139.6539  143.6066 H   0  0  0  0  0  0  0  0  0  0  0  0  # atno 7974 bound_to 7965
  154.4237  140.1782  156.1462 H   0  0  0  0  0  0  0  0  0  0  0  0  # atno 8008 bound_to 7997
  155.9951  140.3365  155.6766 H   0  0  0  0  0  0  0  0  0  0  0  0  # atno 8009 bound_to 7997
  155.6319  140.0670  157.2637 H   0  0  0  0  0  0  0  0  0  0  0  0  # atno 8010 bound_to 7997
  139.4863  144.5613  151.7226 H   0  0  0  0  0  0  0  0  0  0  0  0  # atno 10167 bound_to 10162
  156.0414  130.4329  150.2274 H   0  0  0  0  0  0  0  0  0  0  0  0  # atno 10718 bound_to 10713
  154.8754  135.3849  154.4152 H   0  0  0  0  0  0  0  0  0  0  0  0  # atno 10763 bound_to 10752
  153.4861  135.7030  153.5915 H   0  0  0  0  0  0  0  0  0  0  0  0  # atno 10764 bound_to 10752
  153.4309  135.3879  155.2137 H   0  0  0  0  0  0  0  0  0  0  0  0  # atno 10765 bound_to 10752
  140.1924  134.8397  157.2927 H   0  0  0  0  0  0  0  0  0  0  0  0  # atno 11005 bound_to 11000
  146.2596  139.6379  142.9371 LP  0  0  0  0  0  0  0  0  0  0  0  0  # atno 17320 bound_to 7965
  145.4933  141.0438  143.2581 LP  0  0  0  0  0  0  0  0  0  0  0  0  # atno 17321 bound_to 7965
  140.5183  144.0918  150.6015 LP  0  0  0  0  0  0  0  0  0  0  0  0  # atno 17342 bound_to 10162
  140.3867  143.2774  152.0107 LP  0  0  0  0  0  0  0  0  0  0  0  0  # atno 17343 bound_to 10162
  157.0369  131.0024  151.3295 LP  0  0  0  0  0  0  0  0  0  0  0  0  # atno 17370 bound_to 10713
  157.5237  130.8014  149.7838 LP  0  0  0  0  0  0  0  0  0  0  0  0  # atno 17371 bound_to 10713
  140.2144  134.4099  155.7596 LP  0  0  0  0  0  0  0  0  0  0  0  0  # atno 17394 bound_to 11000
  141.2226  133.7134  156.8390 LP  0  0  0  0  0  0  0  0  0  0  0  0  # atno 17395 bound_to 11000

$$$$
