AV-unprocessed.smi:35|AV-procd|sdf|255|dock1
  -GOLD-   2262016 13D 1   1.00000     0.00000
 Structure written by MMmdl.
 29 30  0  0  0  0  0  0  0  0  1 V2000
  151.6285  137.1480  159.8513 O   0  0  0  0  0  0  0  0  0  0  0  0
  151.0632  137.9915  159.1585 C   0  0  0  0  0  0  0  0  0  0  0  0
  151.6955  139.2031  158.8660 N   0  0  0  0  0  0  0  0  0  0  0  0
  151.1560  140.2323  158.0922 C   0  0  0  0  0  0  0  0  0  0  0  0
  151.8068  141.2563  157.8876 O   0  0  0  0  0  0  0  0  0  0  0  0
  149.8616  140.0347  157.5616 N   0  0  0  0  0  0  0  0  0  0  0  0
  149.2537  141.1412  156.7183 C   0  0  2  0  0  0  0  0  0  0  0  0
  147.9471  140.7981  156.3584 O   0  0  0  0  0  0  0  0  0  0  0  0
  147.8896  140.4669  154.9742 C   0  0  1  0  0  0  0  0  0  0  0  0
  146.4603  140.6133  154.4242 C   0  0  0  0  0  0  0  0  0  0  0  0
  146.4085  140.1590  153.0888 O   0  0  0  0  0  0  0  0  0  0  0  0
  148.9373  141.4006  154.3568 C   0  0  1  0  0  0  0  0  0  0  0  0
  148.4160  142.7042  154.1701 O   0  0  0  0  0  0  0  0  0  0  0  0
  150.0373  141.4124  155.4097 C   0  0  2  0  0  0  0  0  0  0  0  0
  150.9995  140.4187  155.0994 O   0  0  0  0  0  0  0  0  0  0  0  0
  149.1941  138.8445  157.8257 C   0  0  0  0  0  0  0  0  0  0  0  0
  149.7322  137.8551  158.5771 C   0  0  0  0  0  0  0  0  0  0  0  0
  148.6201  136.2364  158.8362 Br  0  0  0  0  0  0  0  0  0  0  0  0
  152.6205  139.3448  159.2449 H   0  0  0  0  0  0  0  0  0  0  0  0
  149.1907  142.0128  157.3725 H   0  0  0  0  0  0  0  0  0  0  0  0
  148.2362  139.4410  154.8371 H   0  0  0  0  0  0  0  0  0  0  0  0
  145.7397  140.0698  155.0363 H   0  0  0  0  0  0  0  0  0  0  0  0
  146.1636  141.6625  154.4229 H   0  0  0  0  0  0  0  0  0  0  0  0
  145.5053  140.1458  152.8102 H   0  0  0  0  0  0  0  0  0  0  0  0
  149.2858  141.0374  153.3888 H   0  0  0  0  0  0  0  0  0  0  0  0
  148.7819  143.2722  154.8308 H   0  0  0  0  0  0  0  0  0  0  0  0
  150.5457  142.3754  155.4750 H   0  0  0  0  0  0  0  0  0  0  0  0
  151.1785  139.9239  155.8846 H   0  0  0  0  0  0  0  0  0  0  0  0
  148.2053  138.6786  157.4273 H   0  0  0  0  0  0  0  0  0  0  0  0
  1  2  2  0  0  0  0
  2 17  1  0  0  0  0
  2  3  1  0  0  0  0
  3 19  1  0  0  0  0
  3  4  1  0  0  0  0
  4  5  2  0  0  0  0
  4  6  1  0  0  0  0
  6  7  1  0  0  0  0
  6 16  1  0  0  0  0
  7 14  1  0  0  0  0
  7  8  1  0  0  0  0
  7 20  1  0  0  0  0
  8  9  1  0  0  0  0
  9 10  1  0  0  0  0
  9 12  1  0  0  0  0
  9 21  1  0  0  0  0
 10 11  1  0  0  0  0
 10 22  1  0  0  0  0
 10 23  1  0  0  0  0
 11 24  1  0  0  0  0
 12 13  1  0  0  0  0
 12 14  1  0  0  0  0
 12 25  1  0  0  0  0
 13 26  1  0  0  0  0
 14 15  1  0  0  0  0
 14 27  1  0  0  0  0
 15 28  1  0  0  0  0
 16 17  2  0  0  0  0
 16 29  1  0  0  0  0
 17 18  1  0  0  0  0
M  END
> <s_m_source_file>
AV-unprocessed.smi

> <i_m_source_file_index>
35

> <i_lp_mmshare_version>
43012

> <i_f3d_flags>
0

> <s_epik_input>
Tz1jMVtuSF1jKD1PKW4oW2NIXWMxQnIpW0NAQEhdMk9bQ0BASF0oW0NIMl1bT0hdKVtDQEBIXShbT0hdKVtDQEhdMltPSF0=

> <s_epik_cmdline>
J2VwaWtfcHl0aG9uJywgJy1waCcsICc3LjAnLCAnLXRuJywgJzgnLCAnLW1hJywgJzIwMCcsICctbWV0YWxfYmluZGluZycsICctaW1hZScsICc8aW5maWxlLm1hZT4nLCAnLW9tYWUnLCAnPG91dGZpbGUubWFlPic=

> <r_lp_tautomer_probability>
0.999537

> <r_epik_Ionization_Penalty>
0.10812

> <r_epik_Ionization_Penalty_Charging>
0.108119

> <r_epik_Ionization_Penalty_Neutral>
4.93006e-07

> <r_epik_State_Penalty>
0.0979238

> <r_epik_Charging_Adjusted_Penalty>
0.206043

> <i_epik_Tot_Q>
0

> <i_epik_Tot_abs_Q>
0

> <r_epik_Metal_State_Penalty>
3.07911

> <b_epik_Metal_Only>
0

> <s_epik_Chemistry_Notes>
This compound contains an acetal/aminal-like group ( X-CH(R)-Y where X, Y are N, S, or O) that may be acid/base labile, releasing an aldehyde.

> <s_lp_Force_Field>
OPLS_2005

> <r_lp_Energy>
34.1394

> <b_lp_Chiralities_Consistent>
1

> <s_lp_Variant>
AV-unprocessed.smi:35-9

> <Gold.Version>
5.8.1

> <Gold.Id.Protein>
6NUR|6NUR_protein|mol2

> <Gold.PLP.Fitness>
36.7986

> <Gold.PLP.PLP>
-24.8426

> <Gold.PLP.part.hbond>
-5.7052

> <Gold.PLP.part.metal>
0.0000

> <Gold.PLP.part.buried>
-4.3156

> <Gold.PLP.part.nonpolar>
-14.4617

> <Gold.PLP.part.repulsive>
0.1529

> <Gold.PLP.ligand.clash>
0.0000

> <Gold.PLP.ligand.torsion>
0.0558

> <Gold.PLP.Chemscore.Hbond>
4.0000

> <Gold.PLP.Chemscore.CHOScore>
0.0000

> <Gold.PLP.Chemscore.Metal>
0.0000

> <Gold.Chemscore.Hbonds>
donor molecule, donor type, donor heavy atom, donor atom, acceptor molecule, acceptor atom, score
      L1  H    11    24       P1 10175  1.00
      L1  H    13    26       P1  8028  1.00
      P1  H  6896  6909       L1     1  1.00
      P1  H  7989  7998       L1    15  1.00

> <Gold.PLP.Chemscore.Internal.Correction>
0.0676

> <Gold.Rescore>
     Score         DG    S(hbond)    S(metal)    S(lipo)     H(rot)  DE(clash)    DE(int)     intcor
     12.14     -12.51       3.84        0.00      30.68       3.67       0.05       0.32       ----

> <Gold.Chemscore.Fitness>
12.1426

> <Gold.Chemscore.DG>
-12.5093

> <Gold.Chemscore.ZeroCoef>
-5.4800

> <Gold.Chemscore.Hbond>
3.8428

> <Gold.Chemscore.Metal>
0.0000

> <Gold.Chemscore.Lipo>
30.6826

> <Gold.Chemscore.Internal_Hbond>
0.0000

> <Gold.Chemscore.DEClash>
0.0456

> <Gold.Chemscore.DEInternal>
0.3211

> <Gold.Chemscore.Rot>
3.6701

> <Gold.Chemscore.Internal.Correction>
   9.000000E+99

> <Gold.Chemscore.Hbonds>
donor molecule, donor type, donor heavy atom, donor atom, acceptor molecule, acceptor atom, score
      L1  H    11    24       P1 10175  0.97
      L1  H    13    26       P1  8028  0.95
      P1  H  6896  6909       L1     1  0.97
      P1  H  7989  7998       L1    15  0.48

> <Gold.Chemscore.Hbond.Weighted>
-12.8349

> <Gold.Chemscore.Metal.Weighted>
-0.0000

> <Gold.Chemscore.Lipo.Weighted>
-3.5899

> <Gold.Chemscore.Internal_Hbond.Weighted>
0.0000

> <Gold.Chemscore.DEClash.Weighted>
0.0456

> <Gold.Chemscore.DEInternal.Weighted>
0.3211

> <Gold.Chemscore.Rot.Weighted>
9.3955

> <Gold.Chemscore.Internal.Correction.Weighted>
   9.000000E+99

> <Gold.Protein.RotatedTorsions>
[ 6907 6896 6895 6894 ] final  125.90 input  -60.11 | X-H torsion
[ 7974 7965 7964 7962 ] final   75.47 input  175.53 | X-H torsion
[ 8008 7997 7996 7995 ] final -151.95 input   59.86 | X-H torsion
[ 10167 10162 10161 10158 ] final -166.35 input  -65.29 | X-H torsion
[ 10718 10713 10712 10709 ] final  -33.59 input   66.30 | X-H torsion
[ 10763 10752 10751 10750 ] final  -32.00 input  -60.55 | X-H torsion
[ 11005 11000 10999 10996 ] final -112.15 input  -57.11 | X-H torsion

> <Gold.Protein.ActiveResidues>
 VAL166  LYS551  ARG553  GLY616  TRP617  ASP618  TYR619  PRO620  LYS621  CYS622 
 ASP623  PHE694  ASN695  SER759  ASP760  ASP761  ALA762  ILE779  LEU786  VAL792 
 PHE793  MET794  SER795  GLU796  ALA797  LYS798  CYS799  TRP800  GLU811  SER814 

> <Gold.Protein.RotatedAtoms>
  152.3951  133.6735  159.6269 H   0  0  0  0  0  0  0  0  0  0  0  0  # atno 6907 bound_to 6896
  150.7852  133.8888  159.3316 H   0  0  0  0  0  0  0  0  0  0  0  0  # atno 6908 bound_to 6896
  151.6666  135.0983  160.0241 H   0  0  0  0  0  0  0  0  0  0  0  0  # atno 6909 bound_to 6896
  145.7151  139.2628  143.1628 H   0  0  0  0  0  0  0  0  0  0  0  0  # atno 7974 bound_to 7965
  155.6474  140.0708  157.2598 H   0  0  0  0  0  0  0  0  0  0  0  0  # atno 8008 bound_to 7997
  154.4170  140.1739  156.1688 H   0  0  0  0  0  0  0  0  0  0  0  0  # atno 8009 bound_to 7997
  155.9805  140.3354  155.6662 H   0  0  0  0  0  0  0  0  0  0  0  0  # atno 8010 bound_to 7997
  139.6121  144.0794  152.1852 H   0  0  0  0  0  0  0  0  0  0  0  0  # atno 10167 bound_to 10162
  156.3609  130.4323  149.7625 H   0  0  0  0  0  0  0  0  0  0  0  0  # atno 10718 bound_to 10713
  153.8065  135.6886  153.4847 H   0  0  0  0  0  0  0  0  0  0  0  0  # atno 10763 bound_to 10752
  153.1655  135.4563  154.9830 H   0  0  0  0  0  0  0  0  0  0  0  0  # atno 10764 bound_to 10752
  154.7985  135.3328  154.7549 H   0  0  0  0  0  0  0  0  0  0  0  0  # atno 10765 bound_to 10752
  141.0692  133.9408  157.2519 H   0  0  0  0  0  0  0  0  0  0  0  0  # atno 11005 bound_to 11000
  146.0677  140.7903  142.9703 LP  0  0  0  0  0  0  0  0  0  0  0  0  # atno 17320 bound_to 7965
  144.6931  140.3293  143.7219 LP  0  0  0  0  0  0  0  0  0  0  0  0  # atno 17321 bound_to 7965
  140.0415  144.6003  150.7407 LP  0  0  0  0  0  0  0  0  0  0  0  0  # atno 17342 bound_to 10162
  140.7326  143.2707  151.3897 LP  0  0  0  0  0  0  0  0  0  0  0  0  # atno 17343 bound_to 10162
  156.4789  130.8032  151.3047 LP  0  0  0  0  0  0  0  0  0  0  0  0  # atno 17370 bound_to 10713
  157.7473  131.0012  150.2954 LP  0  0  0  0  0  0  0  0  0  0  0  0  # atno 17371 bound_to 10713
  139.9506  135.0176  156.8983 LP  0  0  0  0  0  0  0  0  0  0  0  0  # atno 17394 bound_to 11000
  140.5709  134.0444  155.7430 LP  0  0  0  0  0  0  0  0  0  0  0  0  # atno 17395 bound_to 11000

$$$$
