AV-unprocessed.smi:138|AV-procd|sdf|1180|dock8
  -GOLD-   2262018333D 1   1.00000     0.00000
 Structure written by MMmdl.
 52 55  0  0  0  0  0  0  0  0  1 V2000
  147.2457  135.9397  156.3283 C   0  0  0  0  0  0  0  0  0  0  0  0
  148.6219  136.3584  156.7367 C   0  0  0  0  0  0  0  0  0  0  0  0
  149.7407  136.5278  155.9762 C   0  0  0  0  0  0  0  0  0  0  0  0
  150.8077  136.9362  156.8238 C   0  0  0  0  0  0  0  0  0  0  0  0
  152.2186  137.2170  156.4542 C   0  0  0  0  0  0  0  0  0  0  0  0
  153.1664  136.5285  156.8352 O   0  0  0  0  0  0  0  0  0  0  0  0
  152.4401  138.4360  155.5391 C   0  0  0  0  0  0  0  0  0  0  0  0
  151.6740  139.6065  155.9507 N   0  0  0  0  0  0  0  0  0  0  0  0
  150.7216  140.1280  155.0397 C   0  0  0  0  0  0  0  0  0  0  0  0
  150.5259  139.6215  153.9335 O   0  0  0  0  0  0  0  0  0  0  0  0
  150.0160  141.3123  155.5150 C   0  0  0  0  0  0  0  0  0  0  0  0
  149.0966  141.8985  154.7294 F   0  0  0  0  0  0  0  0  0  0  0  0
  150.2735  141.8354  156.7330 C   0  0  0  0  0  0  0  0  0  0  0  0
  151.1981  141.2985  157.6107 N   0  0  0  0  0  0  0  0  0  0  0  0
  151.4426  141.9970  158.9309 C   0  0  1  0  0  0  0  0  0  0  0  0
  152.9118  142.3767  159.1688 C   0  0  0  0  0  0  0  0  0  0  0  0
  152.7592  143.6793  159.9240 C   0  0  0  0  0  0  0  0  0  0  0  0
  151.5195  144.2812  159.2712 C   0  0  0  0  0  0  0  0  0  0  0  0
  150.6787  143.1675  158.9804 O   0  0  0  0  0  0  0  0  0  0  0  0
  151.9562  140.1695  157.2194 C   0  0  0  0  0  0  0  0  0  0  0  0
  152.8345  139.7043  157.9479 O   0  0  0  0  0  0  0  0  0  0  0  0
  150.3053  137.0254  158.1025 C   0  0  0  0  0  0  0  0  0  0  0  0
  150.9667  137.4289  159.3919 C   0  0  0  0  0  0  0  0  0  0  0  0
  148.9612  136.6478  158.0528 N   0  0  0  0  0  0  0  0  0  0  0  0
  148.0383  136.5743  159.1815 C   0  0  0  0  0  0  0  0  0  0  0  0
  147.6839  135.1677  159.5421 C   0  0  0  0  0  0  0  0  0  0  0  0
  146.8888  134.6196  160.5106 C   0  0  0  0  0  0  0  0  0  0  0  0
  146.9630  133.2094  160.3412 C   0  0  0  0  0  0  0  0  0  0  0  0
  147.7975  133.0012  159.2804 C   0  0  0  0  0  0  0  0  0  0  0  0
  148.2447  134.1852  158.7810 O   0  0  0  0  0  0  0  0  0  0  0  0
  147.1755  135.8459  155.2443 H   0  0  0  0  0  0  0  0  0  0  0  0
  146.5024  136.6706  156.6461 H   0  0  0  0  0  0  0  0  0  0  0  0
  146.9852  134.9740  156.7622 H   0  0  0  0  0  0  0  0  0  0  0  0
  149.7863  136.3658  154.9092 H   0  0  0  0  0  0  0  0  0  0  0  0
  153.4946  138.7140  155.5082 H   0  0  0  0  0  0  0  0  0  0  0  0
  152.1731  138.2046  154.5067 H   0  0  0  0  0  0  0  0  0  0  0  0
  149.7230  142.7166  157.0286 H   0  0  0  0  0  0  0  0  0  0  0  0
  151.0716  141.3217  159.7029 H   0  0  0  0  0  0  0  0  0  0  0  0
  153.4287  141.6020  159.7357 H   0  0  0  0  0  0  0  0  0  0  0  0
  153.4433  142.5367  158.2317 H   0  0  0  0  0  0  0  0  0  0  0  0
  152.5667  143.4795  160.9789 H   0  0  0  0  0  0  0  0  0  0  0  0
  153.6358  144.3233  159.8511 H   0  0  0  0  0  0  0  0  0  0  0  0
  151.0157  145.0015  159.9157 H   0  0  0  0  0  0  0  0  0  0  0  0
  151.7840  144.7889  158.3435 H   0  0  0  0  0  0  0  0  0  0  0  0
  151.6609  138.2540  159.2361 H   0  0  0  0  0  0  0  0  0  0  0  0
  151.5240  136.5939  159.8164 H   0  0  0  0  0  0  0  0  0  0  0  0
  150.2567  137.7758  160.1400 H   0  0  0  0  0  0  0  0  0  0  0  0
  148.4911  137.0716  160.0394 H   0  0  0  0  0  0  0  0  0  0  0  0
  147.1399  137.1506  158.9643 H   0  0  0  0  0  0  0  0  0  0  0  0
  146.3253  135.1671  161.2517 H   0  0  0  0  0  0  0  0  0  0  0  0
  146.4692  132.4443  160.9220 H   0  0  0  0  0  0  0  0  0  0  0  0
  148.1628  132.1198  158.7746 H   0  0  0  0  0  0  0  0  0  0  0  0
  1  2  1  0  0  0  0
  1 31  1  0  0  0  0
  1 32  1  0  0  0  0
  1 33  1  0  0  0  0
  2 24  1  0  0  0  0
  2  3  2  0  0  0  0
  3  4  1  0  0  0  0
  3 34  1  0  0  0  0
  4  5  1  0  0  0  0
  4 22  2  0  0  0  0
  5  6  2  0  0  0  0
  5  7  1  0  0  0  0
  7  8  1  0  0  0  0
  7 35  1  0  0  0  0
  7 36  1  0  0  0  0
  8 20  1  0  0  0  0
  8  9  1  0  0  0  0
  9 10  2  0  0  0  0
  9 11  1  0  0  0  0
 11 12  1  0  0  0  0
 11 13  2  0  0  0  0
 13 14  1  0  0  0  0
 13 37  1  0  0  0  0
 14 15  1  0  0  0  0
 14 20  1  0  0  0  0
 15 19  1  0  0  0  0
 15 16  1  0  0  0  0
 15 38  1  0  0  0  0
 16 17  1  0  0  0  0
 16 39  1  0  0  0  0
 16 40  1  0  0  0  0
 17 18  1  0  0  0  0
 17 41  1  0  0  0  0
 17 42  1  0  0  0  0
 18 19  1  0  0  0  0
 18 43  1  0  0  0  0
 18 44  1  0  0  0  0
 20 21  2  0  0  0  0
 22 23  1  0  0  0  0
 22 24  1  0  0  0  0
 23 45  1  0  0  0  0
 23 46  1  0  0  0  0
 23 47  1  0  0  0  0
 24 25  1  0  0  0  0
 25 26  1  0  0  0  0
 25 48  1  0  0  0  0
 25 49  1  0  0  0  0
 26 30  1  0  0  0  0
 26 27  2  0  0  0  0
 27 28  1  0  0  0  0
 27 50  1  0  0  0  0
 28 29  2  0  0  0  0
 28 51  1  0  0  0  0
 29 30  1  0  0  0  0
 29 52  1  0  0  0  0
M  END
> <s_m_source_file>
AV-unprocessed.smi

> <i_m_source_file_index>
138

> <i_lp_mmshare_version>
43012

> <i_f3d_flags>
0

> <s_epik_input>
bzFbY0hdW2NIXVtjSF1jMVtDSDJdbjJjKFtDSDNdKWMoW2NIXWMyW0NIM10pQyg9TylbQ0gyXW4zYyg9TyljKEYpW2NIXW4oYzM9TylbQ0BASF00W0NIMl1bQ0gyXVtDSDJdTzQ=

> <s_epik_cmdline>
J2VwaWtfcHl0aG9uJywgJy1waCcsICc3LjAnLCAnLXRuJywgJzgnLCAnLW1hJywgJzIwMCcsICctbWV0YWxfYmluZGluZycsICctaW1hZScsICc8aW5maWxlLm1hZT4nLCAnLW9tYWUnLCAnPG91dGZpbGUubWFlPic=

> <r_lp_tautomer_probability>
1

> <r_epik_Ionization_Penalty>
5.03107e-09

> <r_epik_Ionization_Penalty_Charging>
5.01743e-09

> <r_epik_Ionization_Penalty_Neutral>
1.36377e-11

> <r_epik_State_Penalty>
-0

> <r_epik_Charging_Adjusted_Penalty>
5.01743e-09

> <i_epik_Tot_Q>
0

> <i_epik_Tot_abs_Q>
0

> <r_epik_Metal_State_Penalty>
-0

> <b_epik_Metal_Only>
0

> <s_epik_Chemistry_Notes>
This compound contains an acetal/aminal-like group ( X-CH(R)-Y where X, Y are N, S, or O) that may be acid/base labile, releasing an aldehyde.

> <s_lp_Force_Field>
OPLS_2005

> <r_lp_Energy>
34.2081

> <b_lp_Chiralities_Consistent>
1

> <s_lp_Variant>
AV-unprocessed.smi:138-2

> <Gold.Version>
5.8.1

> <Gold.Id.Protein>
6NUR|6NUR_protein|mol2

> <Gold.PLP.Fitness>
56.3839

> <Gold.PLP.PLP>
-47.5084

> <Gold.PLP.part.hbond>
-4.0000

> <Gold.PLP.part.metal>
0.0000

> <Gold.PLP.part.buried>
-3.8277

> <Gold.PLP.part.nonpolar>
-41.3329

> <Gold.PLP.part.repulsive>
1.3743

> <Gold.PLP.ligand.clash>
0.0000

> <Gold.PLP.ligand.torsion>
1.6382

> <Gold.PLP.Chemscore.Hbond>
3.0000

> <Gold.PLP.Chemscore.CHOScore>
1.0000

> <Gold.PLP.Chemscore.Metal>
0.0000

> <Gold.Chemscore.Hbonds>
donor molecule, donor type, donor heavy atom, donor atom, acceptor molecule, acceptor atom, score
      P1  H  7989  7998       L1    10  0.05
      P1  H  7997  8010       L1    21  1.00
      P1  H 10752 10765       L1     6  1.00
      L1  C    13    37       P1  8028  0.92

> <Gold.PLP.Chemscore.Internal.Correction>
0.1518

> <Gold.Rescore>
     Score         DG    S(hbond)    S(metal)    S(lipo)     H(rot)  DE(clash)    DE(int)     intcor
     16.61     -19.73       2.44        0.00      95.90       2.00       0.31       2.80       ----

> <Gold.Chemscore.Fitness>
16.6097

> <Gold.Chemscore.DG>
-19.7287

> <Gold.Chemscore.ZeroCoef>
-5.4800

> <Gold.Chemscore.Hbond>
2.4366

> <Gold.Chemscore.Metal>
0.0000

> <Gold.Chemscore.Lipo>
95.8952

> <Gold.Chemscore.Internal_Hbond>
0.0000

> <Gold.Chemscore.DEClash>
0.3146

> <Gold.Chemscore.DEInternal>
2.8044

> <Gold.Chemscore.Rot>
1.9958

> <Gold.Chemscore.Internal.Correction>
   9.000000E+99

> <Gold.Chemscore.Hbonds>
donor molecule, donor type, donor heavy atom, donor atom, acceptor molecule, acceptor atom, score
      P1  H  6896  6909       L1    30  0.01
      P1  H  7997  8010       L1    21  0.25
      P1  H 10752 10765       L1     6  0.49

> <Gold.Chemscore.Hbond.Weighted>
-8.1381

> <Gold.Chemscore.Metal.Weighted>
-0.0000

> <Gold.Chemscore.Lipo.Weighted>
-11.2197

> <Gold.Chemscore.Internal_Hbond.Weighted>
0.0000

> <Gold.Chemscore.DEClash.Weighted>
0.3146

> <Gold.Chemscore.DEInternal.Weighted>
2.8044

> <Gold.Chemscore.Rot.Weighted>
5.1092

> <Gold.Chemscore.Internal.Correction.Weighted>
   9.000000E+99

> <Gold.Protein.RotatedTorsions>
[ 6907 6896 6895 6894 ] final   24.34 input  -60.11 | X-H torsion
[ 7974 7965 7964 7962 ] final  154.39 input  175.53 | X-H torsion
[ 8008 7997 7996 7995 ] final   48.99 input   59.86 | X-H torsion
[ 10167 10162 10161 10158 ] final    7.05 input  -65.29 | X-H torsion
[ 10718 10713 10712 10709 ] final   -3.97 input   66.30 | X-H torsion
[ 10763 10752 10751 10750 ] final -120.30 input  -60.55 | X-H torsion
[ 11005 11000 10999 10996 ] final   17.18 input  -57.11 | X-H torsion

> <Gold.Protein.ActiveResidues>
 VAL166  LYS551  ARG553  GLY616  TRP617  ASP618  TYR619  PRO620  LYS621  CYS622 
 ASP623  PHE694  ASN695  SER759  ASP760  ASP761  ALA762  ILE779  LEU786  VAL792 
 PHE793  MET794  SER795  GLU796  ALA797  LYS798  CYS799  TRP800  GLU811  SER814 

> <Gold.Protein.RotatedAtoms>
  151.9561  135.0146  160.0544 H   0  0  0  0  0  0  0  0  0  0  0  0  # atno 6907 bound_to 6896
  152.1910  133.4769  159.5016 H   0  0  0  0  0  0  0  0  0  0  0  0  # atno 6908 bound_to 6896
  150.6935  134.1629  159.4226 H   0  0  0  0  0  0  0  0  0  0  0  0  # atno 6909 bound_to 6896
  144.8092  139.6927  143.6149 H   0  0  0  0  0  0  0  0  0  0  0  0  # atno 7974 bound_to 7965
  155.3947  140.3435  155.4253 H   0  0  0  0  0  0  0  0  0  0  0  0  # atno 8008 bound_to 7997
  156.1537  140.1579  156.8760 H   0  0  0  0  0  0  0  0  0  0  0  0  # atno 8009 bound_to 7997
  154.5076  140.0798  156.7906 H   0  0  0  0  0  0  0  0  0  0  0  0  # atno 8010 bound_to 7997
  140.6394  143.7810  150.7405 H   0  0  0  0  0  0  0  0  0  0  0  0  # atno 10167 bound_to 10162
  156.7681  130.5291  149.5772 H   0  0  0  0  0  0  0  0  0  0  0  0  # atno 10718 bound_to 10713
  154.8640  135.4208  154.2437 H   0  0  0  0  0  0  0  0  0  0  0  0  # atno 10763 bound_to 10752
  153.3397  135.6993  153.6883 H   0  0  0  0  0  0  0  0  0  0  0  0  # atno 10764 bound_to 10752
  153.5866  135.3563  155.2868 H   0  0  0  0  0  0  0  0  0  0  0  0  # atno 10765 bound_to 10752
  140.4388  134.1343  155.7688 H   0  0  0  0  0  0  0  0  0  0  0  0  # atno 11005 bound_to 11000
  146.2388  139.5959  142.9505 LP  0  0  0  0  0  0  0  0  0  0  0  0  # atno 17320 bound_to 7965
  145.5365  141.0424  143.2354 LP  0  0  0  0  0  0  0  0  0  0  0  0  # atno 17321 bound_to 7965
  140.1439  143.4417  152.2176 LP  0  0  0  0  0  0  0  0  0  0  0  0  # atno 17342 bound_to 10162
  139.5603  144.7401  151.4174 LP  0  0  0  0  0  0  0  0  0  0  0  0  # atno 17343 bound_to 10162
  156.1295  130.6168  151.0313 LP  0  0  0  0  0  0  0  0  0  0  0  0  # atno 17370 bound_to 10713
  157.6703  131.0863  150.7627 LP  0  0  0  0  0  0  0  0  0  0  0  0  # atno 17371 bound_to 10713
  141.1714  133.8601  157.1558 LP  0  0  0  0  0  0  0  0  0  0  0  0  # atno 17394 bound_to 11000
  140.0084  134.9999  157.0342 LP  0  0  0  0  0  0  0  0  0  0  0  0  # atno 17395 bound_to 11000

$$$$
