AV-unprocessed.smi:35|AV-procd|sdf|275|dock5
  -GOLD-   2262016 43D 1   1.00000     0.00000
 Structure written by MMmdl.
 28 29  0  0  0  0  0  0  0  0  2 V2000
  151.5831  137.2054  159.9555 O   0  0  0  0  0  0  0  0  0  0  0  0
  151.0945  138.0894  159.2541 C   0  0  0  0  0  0  0  0  0  0  0  0
  151.7800  139.2133  158.8951 N   0  5  0  0  0  0  0  0  0  0  0  0
  151.2328  140.1923  158.1162 C   0  0  0  0  0  0  0  0  0  0  0  0
  151.8476  141.2024  157.7727 O   0  0  0  0  0  0  0  0  0  0  0  0
  149.8935  140.0445  157.6622 N   0  0  0  0  0  0  0  0  0  0  0  0
  149.2882  141.1397  156.8030 C   0  0  2  0  0  0  0  0  0  0  0  0
  147.9508  140.8345  156.5243 O   0  0  0  0  0  0  0  0  0  0  0  0
  147.8089  140.4479  155.1602 C   0  0  1  0  0  0  0  0  0  0  0  0
  146.3627  140.6845  154.6991 C   0  0  0  0  0  0  0  0  0  0  0  0
  146.1830  140.1892  153.3894 O   0  0  0  0  0  0  0  0  0  0  0  0
  148.8276  141.3607  154.4794 C   0  0  2  0  0  0  0  0  0  0  0  0
  149.1549  140.9514  153.1643 O   0  0  0  0  0  0  0  0  0  0  0  0
  150.0083  141.3186  155.4444 C   0  0  2  0  0  0  0  0  0  0  0  0
  150.9112  140.2676  155.1336 O   0  0  0  0  0  0  0  0  0  0  0  0
  149.1739  138.9121  158.0079 C   0  0  0  0  0  0  0  0  0  0  0  0
  149.7222  137.9476  158.7743 C   0  0  0  0  0  0  0  0  0  0  0  0
  148.5786  136.3832  159.1892 Br  0  0  0  0  0  0  0  0  0  0  0  0
  149.2982  142.0385  157.4220 H   0  0  0  0  0  0  0  0  0  0  0  0
  148.1028  139.4046  155.0295 H   0  0  0  0  0  0  0  0  0  0  0  0
  145.6472  140.2247  155.3814 H   0  0  0  0  0  0  0  0  0  0  0  0
  146.1468  141.7531  154.6757 H   0  0  0  0  0  0  0  0  0  0  0  0
  145.2922  140.3592  153.1236 H   0  0  0  0  0  0  0  0  0  0  0  0
  148.4356  142.3784  154.4429 H   0  0  0  0  0  0  0  0  0  0  0  0
  149.1615  140.0068  153.1395 H   0  0  0  0  0  0  0  0  0  0  0  0
  150.5599  142.2593  155.4448 H   0  0  0  0  0  0  0  0  0  0  0  0
  150.9571  139.6875  155.8788 H   0  0  0  0  0  0  0  0  0  0  0  0
  148.1587  138.7833  157.6660 H   0  0  0  0  0  0  0  0  0  0  0  0
  1  2  2  0  0  0  0
  2 17  1  0  0  0  0
  2  3  1  0  0  0  0
  3  4  1  0  0  0  0
  4  5  2  0  0  0  0
  4  6  1  0  0  0  0
  6  7  1  0  0  0  0
  6 16  1  0  0  0  0
  7 14  1  0  0  0  0
  7  8  1  0  0  0  0
  7 19  1  0  0  0  0
  8  9  1  0  0  0  0
  9 10  1  0  0  0  0
  9 12  1  0  0  0  0
  9 20  1  0  0  0  0
 10 11  1  0  0  0  0
 10 21  1  0  0  0  0
 10 22  1  0  0  0  0
 11 23  1  0  0  0  0
 12 13  1  0  0  0  0
 12 14  1  0  0  0  0
 12 24  1  0  0  0  0
 13 25  1  0  0  0  0
 14 15  1  0  0  0  0
 14 26  1  0  0  0  0
 15 27  1  0  0  0  0
 16 17  2  0  0  0  0
 16 28  1  0  0  0  0
 17 18  1  0  0  0  0
M  CHG  1   3  -1
M  END
> <s_m_source_file>
AV-unprocessed.smi

> <i_m_source_file_index>
35

> <i_lp_mmshare_version>
43012

> <i_f3d_flags>
0

> <s_epik_input>
Tz1jMVtuSF1jKD1PKW4oW2NIXWMxQnIpW0NAQEhdMk9bQ0BASF0oW0NIMl1bT0hdKVtDQEBIXShbT0hdKVtDQEhdMltPSF0=

> <s_epik_cmdline>
J2VwaWtfcHl0aG9uJywgJy1waCcsICc3LjAnLCAnLXRuJywgJzgnLCAnLW1hJywgJzIwMCcsICctbWV0YWxfYmluZGluZycsICctaW1hZScsICc8aW5maWxlLm1hZT4nLCAnLW9tYWUnLCAnPG91dGZpbGUubWFlPic=

> <r_epik_Ionization_Penalty>
1.06112

> <r_epik_Ionization_Penalty_Charging>
2.1796e-09

> <r_epik_Ionization_Penalty_Neutral>
1.06112

> <r_epik_State_Penalty>
1.11484

> <r_epik_Charging_Adjusted_Penalty>
1.11484

> <i_epik_Tot_Q>
-1

> <i_epik_Tot_abs_Q>
1

> <r_epik_Metal_State_Penalty>
0.0032876

> <b_epik_Metal_Only>
0

> <s_epik_Chemistry_Notes>
This compound contains an acetal/aminal-like group ( X-CH(R)-Y where X, Y are N, S, or O) that may be acid/base labile, releasing an aldehyde.

> <s_lp_Force_Field>
OPLS_2005

> <r_lp_Energy>
47.3884

> <b_lp_Chiralities_Consistent>
1

> <s_lp_Variant>
AV-unprocessed.smi:35-29

> <Gold.Version>
5.8.1

> <Gold.Id.Protein>
6NUR|6NUR_protein|mol2

> <Gold.PLP.Fitness>
37.6880

> <Gold.PLP.PLP>
-25.7528

> <Gold.PLP.part.hbond>
-5.3434

> <Gold.PLP.part.metal>
0.0000

> <Gold.PLP.part.buried>
-5.8564

> <Gold.PLP.part.nonpolar>
-14.5044

> <Gold.PLP.part.repulsive>
0.0456

> <Gold.PLP.ligand.clash>
0.0000

> <Gold.PLP.ligand.torsion>
0.0694

> <Gold.PLP.Chemscore.Hbond>
4.0000

> <Gold.PLP.Chemscore.CHOScore>
0.0000

> <Gold.PLP.Chemscore.Metal>
0.0000

> <Gold.Chemscore.Hbonds>
donor molecule, donor type, donor heavy atom, donor atom, acceptor molecule, acceptor atom, score
      L1  H    11    23       P1 10175  1.00
      P1  H  6896  6909       L1     1  0.99
      P1  H  7989  7998       L1    15  1.00
      P1  H  8011  8017       L1    13  1.00

> <Gold.PLP.Chemscore.Internal.Correction>
0.0740

> <Gold.Rescore>
     Score         DG    S(hbond)    S(metal)    S(lipo)     H(rot)  DE(clash)    DE(int)     intcor
     12.30     -13.34       4.11        0.00      29.29       3.63       0.10       0.94       ----

> <Gold.Chemscore.Fitness>
12.3042

> <Gold.Chemscore.DG>
-13.3435

> <Gold.Chemscore.ZeroCoef>
-5.4800

> <Gold.Chemscore.Hbond>
4.1076

> <Gold.Chemscore.Metal>
0.0000

> <Gold.Chemscore.Lipo>
29.2902

> <Gold.Chemscore.Internal_Hbond>
0.0000

> <Gold.Chemscore.DEClash>
0.1011

> <Gold.Chemscore.DEInternal>
0.9381

> <Gold.Chemscore.Rot>
3.6261

> <Gold.Chemscore.Internal.Correction>
   9.000000E+99

> <Gold.Chemscore.Hbonds>
donor molecule, donor type, donor heavy atom, donor atom, acceptor molecule, acceptor atom, score
      L1  H    11    23       P1 10175  0.98
      L1  H    13    25       P1  7957  0.01
      P1  H  6896  6909       L1     1  0.93
      P1  H  7989  7998       L1    15  0.30
      P1  H  8011  8017       L1    13  0.60

> <Gold.Chemscore.Hbond.Weighted>
-13.7193

> <Gold.Chemscore.Metal.Weighted>
-0.0000

> <Gold.Chemscore.Lipo.Weighted>
-3.4270

> <Gold.Chemscore.Internal_Hbond.Weighted>
0.0000

> <Gold.Chemscore.DEClash.Weighted>
0.1011

> <Gold.Chemscore.DEInternal.Weighted>
0.9381

> <Gold.Chemscore.Rot.Weighted>
9.2828

> <Gold.Chemscore.Internal.Correction.Weighted>
   9.000000E+99

> <Gold.Protein.RotatedTorsions>
[ 6907 6896 6895 6894 ] final  121.39 input  -60.11 | X-H torsion
[ 7974 7965 7964 7962 ] final  150.17 input  175.53 | X-H torsion
[ 8008 7997 7996 7995 ] final   41.23 input   59.86 | X-H torsion
[ 10167 10162 10161 10158 ] final  173.13 input  -65.29 | X-H torsion
[ 10718 10713 10712 10709 ] final  144.45 input   66.30 | X-H torsion
[ 10763 10752 10751 10750 ] final  -26.78 input  -60.55 | X-H torsion
[ 11005 11000 10999 10996 ] final   93.25 input  -57.11 | X-H torsion

> <Gold.Protein.ActiveResidues>
 VAL166  LYS551  ARG553  GLY616  TRP617  ASP618  TYR619  PRO620  LYS621  CYS622 
 ASP623  PHE694  ASN695  SER759  ASP760  ASP761  ALA762  ILE779  LEU786  VAL792 
 PHE793  MET794  SER795  GLU796  ALA797  LYS798  CYS799  TRP800  GLU811  SER814 

> <Gold.Protein.RotatedAtoms>
  152.4326  133.7303  159.6583 H   0  0  0  0  0  0  0  0  0  0  0  0  # atno 6907 bound_to 6896
  150.8206  133.8249  159.3147 H   0  0  0  0  0  0  0  0  0  0  0  0  # atno 6908 bound_to 6896
  151.5932  135.1054  160.0095 H   0  0  0  0  0  0  0  0  0  0  0  0  # atno 6909 bound_to 6896
  144.8384  139.6374  143.6027 H   0  0  0  0  0  0  0  0  0  0  0  0  # atno 7974 bound_to 7965
  155.2661  140.3362  155.4269 H   0  0  0  0  0  0  0  0  0  0  0  0  # atno 8008 bound_to 7997
  156.2153  140.1786  156.7645 H   0  0  0  0  0  0  0  0  0  0  0  0  # atno 8009 bound_to 7997
  154.5745  140.0664  156.8998 H   0  0  0  0  0  0  0  0  0  0  0  0  # atno 8010 bound_to 7997
  139.5098  144.3295  152.0125 H   0  0  0  0  0  0  0  0  0  0  0  0  # atno 10167 bound_to 10162
  157.3571  131.0959  151.0949 H   0  0  0  0  0  0  0  0  0  0  0  0  # atno 10718 bound_to 10713
  153.7215  135.6944  153.5011 H   0  0  0  0  0  0  0  0  0  0  0  0  # atno 10763 bound_to 10752
  153.2200  135.4373  155.0477 H   0  0  0  0  0  0  0  0  0  0  0  0  # atno 10764 bound_to 10752
  154.8283  135.3458  154.6749 H   0  0  0  0  0  0  0  0  0  0  0  0  # atno 10765 bound_to 10752
  139.8812  134.8779  156.3690 H   0  0  0  0  0  0  0  0  0  0  0  0  # atno 11005 bound_to 11000
  146.2680  139.6566  142.9316 LP  0  0  0  0  0  0  0  0  0  0  0  0  # atno 17320 bound_to 7965
  145.4746  141.0437  143.2679 LP  0  0  0  0  0  0  0  0  0  0  0  0  # atno 17321 bound_to 7965
  140.2735  144.3938  150.6143 LP  0  0  0  0  0  0  0  0  0  0  0  0  # atno 17342 bound_to 10162
  140.6071  143.2168  151.6960 LP  0  0  0  0  0  0  0  0  0  0  0  0  # atno 17343 bound_to 10162
  157.2103  130.6435  149.5771 LP  0  0  0  0  0  0  0  0  0  0  0  0  # atno 17370 bound_to 10713
  155.9731  130.4662  150.6281 LP  0  0  0  0  0  0  0  0  0  0  0  0  # atno 17371 bound_to 10713
  140.9477  133.7472  156.0230 LP  0  0  0  0  0  0  0  0  0  0  0  0  # atno 17394 bound_to 11000
  140.8143  134.3363  157.5402 LP  0  0  0  0  0  0  0  0  0  0  0  0  # atno 17395 bound_to 11000

$$$$
