AV-unprocessed.smi:2830|AV-procd|sdf|10907|dock5
  -GOLD-   2272015353D 1   1.00000     0.00000
 Structure written by MMmdl.
 28 28  0  0  0  0  0  0  0  0  1 V2000
  151.4704  138.0678  154.8134 C   0  0  0  0  0  0  0  0  0  0  0  0
  150.5397  139.0898  155.1242 O   0  0  0  0  0  0  0  0  0  0  0  0
  151.1532  140.2268  155.7109 C   0  0  0  0  0  0  0  0  0  0  0  0
  150.1014  141.3390  155.8737 C   0  0  1  0  0  0  0  0  0  0  0  0
  150.7163  142.5109  156.4945 N   0  0  0  0  0  0  0  0  0  0  0  0
  151.3468  142.4554  157.7470 C   0  0  0  0  0  0  0  0  0  0  0  0
  151.9210  143.6374  158.2610 C   0  0  0  0  0  0  0  0  0  0  0  0
  152.5568  143.5953  159.5173 C   0  0  0  0  0  0  0  0  0  0  0  0
  152.5975  142.3727  160.2157 C   0  0  0  0  0  0  0  0  0  0  0  0
  153.2403  142.2778  161.5151 C   0  0  0  0  0  0  0  0  0  0  0  0
  153.7522  142.2023  162.5501 N   0  0  0  0  0  0  0  0  0  0  0  0
  151.9985  141.2436  159.6214 C   0  0  0  0  0  0  0  0  0  0  0  0
  151.3889  141.2785  158.4169 N   0  0  0  0  0  0  0  0  0  0  0  0
  149.4550  141.6415  154.5122 C   0  0  0  0  0  0  0  0  0  0  0  0
  148.5792  142.6487  154.4661 N   0  0  0  0  0  0  0  0  0  0  0  0
  149.7291  140.9683  153.5199 O   0  0  0  0  0  0  0  0  0  0  0  0
  150.9486  137.2223  154.3652 H   0  0  0  0  0  0  0  0  0  0  0  0
  151.9800  137.7124  155.7099 H   0  0  0  0  0  0  0  0  0  0  0  0
  152.2181  138.4181  154.1005 H   0  0  0  0  0  0  0  0  0  0  0  0
  151.5958  139.9694  156.6753 H   0  0  0  0  0  0  0  0  0  0  0  0
  151.9647  140.5597  155.0604 H   0  0  0  0  0  0  0  0  0  0  0  0
  149.3244  140.9583  156.5394 H   0  0  0  0  0  0  0  0  0  0  0  0
  150.5612  143.4102  156.0628 H   0  0  0  0  0  0  0  0  0  0  0  0
  151.8757  144.5629  157.7059 H   0  0  0  0  0  0  0  0  0  0  0  0
  153.0022  144.4884  159.9316 H   0  0  0  0  0  0  0  0  0  0  0  0
  152.0055  140.2851  160.1200 H   0  0  0  0  0  0  0  0  0  0  0  0
  148.1220  142.8799  153.5960 H   0  0  0  0  0  0  0  0  0  0  0  0
  148.3713  143.1702  155.3052 H   0  0  0  0  0  0  0  0  0  0  0  0
  1  2  1  0  0  0  0
  1 17  1  0  0  0  0
  1 18  1  0  0  0  0
  1 19  1  0  0  0  0
  2  3  1  0  0  0  0
  3  4  1  0  0  0  0
  3 20  1  0  0  0  0
  3 21  1  0  0  0  0
  4  5  1  0  0  0  0
  4 14  1  0  0  0  0
  4 22  1  0  0  0  0
  5  6  1  0  0  0  0
  5 23  1  0  0  0  0
  6 13  1  0  0  0  0
  6  7  2  0  0  0  0
  7  8  1  0  0  0  0
  7 24  1  0  0  0  0
  8  9  2  0  0  0  0
  8 25  1  0  0  0  0
  9 10  1  0  0  0  0
  9 12  1  0  0  0  0
 10 11  3  0  0  0  0
 12 13  2  0  0  0  0
 12 26  1  0  0  0  0
 14 15  1  0  0  0  0
 14 16  2  0  0  0  0
 15 27  1  0  0  0  0
 15 28  1  0  0  0  0
M  END
> <s_m_source_file>
AV-unprocessed.smi

> <i_m_source_file_index>
2830

> <i_lp_mmshare_version>
43012

> <i_f3d_flags>
0

> <s_epik_input>
W0NIM11PW0NIMl1bQ0BASF0oQyg9TylbTkgyXSlbTkhdYzFbY0hdW2NIXWMoQyNOKVtjSF1uMQ==

> <s_epik_cmdline>
J2VwaWtfcHl0aG9uJywgJy1waCcsICc3LjAnLCAnLXRuJywgJzgnLCAnLW1hJywgJzIwMCcsICctbWV0YWxfYmluZGluZycsICctaW1hZScsICc8aW5maWxlLm1hZT4nLCAnLW9tYWUnLCAnPG91dGZpbGUubWFlPic=

> <r_lp_tautomer_probability>
1

> <r_epik_Ionization_Penalty>
4.37908e-06

> <r_epik_Ionization_Penalty_Charging>
0

> <r_epik_Ionization_Penalty_Neutral>
4.37908e-06

> <r_epik_State_Penalty>
-0

> <r_epik_Charging_Adjusted_Penalty>
0

> <i_epik_Tot_Q>
0

> <i_epik_Tot_abs_Q>
0

> <r_epik_Metal_State_Penalty>
-0

> <b_epik_Metal_Only>
0

> <s_lp_Force_Field>
OPLS_2005

> <r_lp_Energy>
3.76959

> <b_lp_Chiralities_Consistent>
1

> <s_lp_Variant>
AV-unprocessed.smi:2830-2

> <Gold.Version>
5.8.1

> <Gold.Id.Protein>
6NUR|6NUR_protein|mol2

> <Gold.PLP.Fitness>
42.6333

> <Gold.PLP.PLP>
-35.5042

> <Gold.PLP.part.hbond>
-4.5432

> <Gold.PLP.part.metal>
0.0000

> <Gold.PLP.part.buried>
-2.2465

> <Gold.PLP.part.nonpolar>
-29.8147

> <Gold.PLP.part.repulsive>
3.8065

> <Gold.PLP.ligand.clash>
0.0000

> <Gold.PLP.ligand.torsion>
0.0931

> <Gold.PLP.Chemscore.Hbond>
2.4278

> <Gold.PLP.Chemscore.CHOScore>
0.0000

> <Gold.PLP.Chemscore.Metal>
0.0000

> <Gold.Chemscore.Hbonds>
donor molecule, donor type, donor heavy atom, donor atom, acceptor molecule, acceptor atom, score
      L1  H     5    23       P1  8028  0.52
      L1  H    15    28       P1  8028  0.53
      P1  H  7989  7998       L1    16  0.29
      P1  H  8011  8017       L1    16  0.80

> <Gold.PLP.Chemscore.Internal.Correction>
0.0319

> <Gold.Rescore>
     Score         DG    S(hbond)    S(metal)    S(lipo)     H(rot)  DE(clash)    DE(int)     intcor
     10.27     -13.45       2.03        0.00      60.86       2.32       1.56       1.62       ----

> <Gold.Chemscore.Fitness>
10.2732

> <Gold.Chemscore.DG>
-13.4536

> <Gold.Chemscore.ZeroCoef>
-5.4800

> <Gold.Chemscore.Hbond>
2.0335

> <Gold.Chemscore.Metal>
0.0000

> <Gold.Chemscore.Lipo>
60.8559

> <Gold.Chemscore.Internal_Hbond>
0.0000

> <Gold.Chemscore.DEClash>
1.5602

> <Gold.Chemscore.DEInternal>
1.6201

> <Gold.Chemscore.Rot>
2.3197

> <Gold.Chemscore.Internal.Correction>
   9.000000E+99

> <Gold.Chemscore.Hbonds>
donor molecule, donor type, donor heavy atom, donor atom, acceptor molecule, acceptor atom, score
      L1  H     5    23       P1  8028  0.52
      L1  H    15    28       P1  8028  0.51
      P1  H  7989  7998       L1    16  0.16
      P1  H  8011  8017       L1    16  0.11

> <Gold.Chemscore.Hbond.Weighted>
-6.7918

> <Gold.Chemscore.Metal.Weighted>
-0.0000

> <Gold.Chemscore.Lipo.Weighted>
-7.1201

> <Gold.Chemscore.Internal_Hbond.Weighted>
0.0000

> <Gold.Chemscore.DEClash.Weighted>
1.5602

> <Gold.Chemscore.DEInternal.Weighted>
1.6201

> <Gold.Chemscore.Rot.Weighted>
5.9384

> <Gold.Chemscore.Internal.Correction.Weighted>
   9.000000E+99

> <Gold.Protein.RotatedTorsions>
[ 6907 6896 6895 6894 ] final   42.29 input  -60.11 | X-H torsion
[ 7974 7965 7964 7962 ] final  -45.24 input  175.53 | X-H torsion
[ 8008 7997 7996 7995 ] final -127.53 input   59.86 | X-H torsion
[ 10167 10162 10161 10158 ] final   35.77 input  -65.29 | X-H torsion
[ 10718 10713 10712 10709 ] final  149.27 input   66.30 | X-H torsion
[ 10763 10752 10751 10750 ] final -175.83 input  -60.55 | X-H torsion
[ 11005 11000 10999 10996 ] final   53.33 input  -57.11 | X-H torsion

> <Gold.Protein.ActiveResidues>
 VAL166  LYS551  ARG553  GLY616  TRP617  ASP618  TYR619  PRO620  LYS621  CYS622 
 ASP623  PHE694  ASN695  SER759  ASP760  ASP761  ALA762  ILE779  LEU786  VAL792 
 PHE793  MET794  SER795  GLU796  ALA797  LYS798  CYS799  TRP800  GLU811  SER814 

> <Gold.Protein.RotatedAtoms>
  152.2060  134.8545  160.0502 H   0  0  0  0  0  0  0  0  0  0  0  0  # atno 6907 bound_to 6896
  151.9380  133.3625  159.3963 H   0  0  0  0  0  0  0  0  0  0  0  0  # atno 6908 bound_to 6896
  150.6965  134.4393  159.5328 H   0  0  0  0  0  0  0  0  0  0  0  0  # atno 6909 bound_to 6896
  145.9840  140.7253  142.9349 H   0  0  0  0  0  0  0  0  0  0  0  0  # atno 7974 bound_to 7965
  155.2477  140.0431  157.2983 H   0  0  0  0  0  0  0  0  0  0  0  0  # atno 8008 bound_to 7997
  154.5788  140.2395  155.8053 H   0  0  0  0  0  0  0  0  0  0  0  0  # atno 8009 bound_to 7997
  156.2178  140.2979  155.9888 H   0  0  0  0  0  0  0  0  0  0  0  0  # atno 8010 bound_to 7997
  140.4191  144.1485  150.6146 H   0  0  0  0  0  0  0  0  0  0  0  0  # atno 10167 bound_to 10162
  157.2983  131.0866  151.1410 H   0  0  0  0  0  0  0  0  0  0  0  0  # atno 10718 bound_to 10713
  154.5796  135.2835  155.0745 H   0  0  0  0  0  0  0  0  0  0  0  0  # atno 10763 bound_to 10752
  154.2087  135.6412  153.5112 H   0  0  0  0  0  0  0  0  0  0  0  0  # atno 10764 bound_to 10752
  153.0084  135.5486  154.6446 H   0  0  0  0  0  0  0  0  0  0  0  0  # atno 10765 bound_to 10752
  140.0776  134.5383  155.8980 H   0  0  0  0  0  0  0  0  0  0  0  0  # atno 11005 bound_to 11000
  144.6869  140.2957  143.7271 LP  0  0  0  0  0  0  0  0  0  0  0  0  # atno 17320 bound_to 7965
  145.7728  139.1863  143.2203 LP  0  0  0  0  0  0  0  0  0  0  0  0  # atno 17321 bound_to 7965
  140.4554  143.2470  151.9292 LP  0  0  0  0  0  0  0  0  0  0  0  0  # atno 17342 bound_to 10162
  139.4782  144.5521  151.8370 LP  0  0  0  0  0  0  0  0  0  0  0  0  # atno 17343 bound_to 10162
  157.2779  130.6736  149.6051 LP  0  0  0  0  0  0  0  0  0  0  0  0  # atno 17370 bound_to 10713
  155.9670  130.4459  150.5518 LP  0  0  0  0  0  0  0  0  0  0  0  0  # atno 17371 bound_to 10713
  141.2035  133.6632  156.6066 LP  0  0  0  0  0  0  0  0  0  0  0  0  # atno 17394 bound_to 11000
  140.3535  134.7748  157.4484 LP  0  0  0  0  0  0  0  0  0  0  0  0  # atno 17395 bound_to 11000

$$$$
