AV-unprocessed.smi:261|AV-procd|sdf|1983|dock1
  -GOLD-   2262021153D 1   1.00000     0.00000
 Structure written by MMmdl.
 51 54  0  0  0  0  0  0  0  0  1 V2000
  152.1524  144.3188  158.9509 C   0  0  0  0  0  0  0  0  0  0  0  0
  151.7737  143.8486  157.6680 O   0  0  0  0  0  0  0  0  0  0  0  0
  151.2226  142.5403  157.6870 C   0  0  1  0  0  0  0  0  0  0  0  0
  150.9979  142.0274  156.2702 C   0  0  0  0  0  0  0  0  0  0  0  0
  150.9457  140.5048  156.4572 C   0  0  1  0  0  0  0  0  0  0  0  0
  151.3386  139.7535  155.1774 C   0  0  0  0  0  0  0  0  0  0  0  0
  150.3850  139.0270  154.5904 N   0  0  0  0  0  0  0  0  0  0  0  0
  152.4752  139.8361  154.7146 O   0  0  0  0  0  0  0  0  0  0  0  0
  151.8778  140.2426  157.5576 N   0  0  0  0  0  0  0  0  0  0  0  0
  151.5621  139.1826  158.3339 C   0  0  0  0  0  0  0  0  0  0  0  0
  152.5479  138.6595  159.1026 N   0  0  0  0  0  0  0  0  0  0  0  0
  152.2968  137.6024  159.8811 C   0  0  0  0  0  0  0  0  0  0  0  0
  151.1541  136.9284  160.0323 N   0  0  0  0  0  0  0  0  0  0  0  0
  150.1622  137.4531  159.2567 C   0  0  0  0  0  0  0  0  0  0  0  0
  150.2774  138.5727  158.3866 C   0  0  0  0  0  0  0  0  0  0  0  0
  149.0608  138.8162  157.7601 N   0  0  0  0  0  0  0  0  0  0  0  0
  148.2707  137.8910  158.2323 C   0  0  0  0  0  0  0  0  0  0  0  0
  148.8503  137.0302  159.1366 N   0  0  0  0  0  0  0  0  0  0  0  0
  148.2046  135.9137  159.8053 C   0  0  0  0  0  0  0  0  0  0  0  0
  147.5580  136.3208  161.1466 C   0  0  2  0  0  0  0  0  0  0  0  0
  148.5912  136.7092  162.0313 O   0  0  0  0  0  0  0  0  0  0  0  0
  146.7729  135.1726  161.8129 C   0  0  2  0  0  0  0  0  0  0  0  0
  147.5697  133.8815  162.0163 C   0  0  0  0  0  0  0  0  0  0  0  0
  146.5005  132.8027  162.0687 C   0  0  0  0  0  0  0  0  0  0  0  0
  145.2740  133.4719  161.4443 C   0  0  0  0  0  0  0  0  0  0  0  0
  145.7450  134.7162  160.9456 O   0  0  0  0  0  0  0  0  0  0  0  0
  152.1698  141.4852  158.2665 C   0  0  0  0  0  0  0  0  0  0  0  0
  150.2702  142.5273  158.2207 H   0  0  0  0  0  0  0  0  0  0  0  0
  149.9320  140.2193  156.7471 H   0  0  0  0  0  0  0  0  0  0  0  0
  152.5386  145.3343  158.8663 H   0  0  0  0  0  0  0  0  0  0  0  0
  152.9354  143.6998  159.3900 H   0  0  0  0  0  0  0  0  0  0  0  0
  151.2998  144.3396  159.6309 H   0  0  0  0  0  0  0  0  0  0  0  0
  150.0877  142.4283  155.8226 H   0  0  0  0  0  0  0  0  0  0  0  0
  151.8387  142.3146  155.6355 H   0  0  0  0  0  0  0  0  0  0  0  0
  150.5896  138.5125  153.7462 H   0  0  0  0  0  0  0  0  0  0  0  0
  149.4607  138.9951  154.9953 H   0  0  0  0  0  0  0  0  0  0  0  0
  153.1316  137.2443  160.4653 H   0  0  0  0  0  0  0  0  0  0  0  0
  147.2358  137.8097  157.9322 H   0  0  0  0  0  0  0  0  0  0  0  0
  147.4557  135.5112  159.1232 H   0  0  0  0  0  0  0  0  0  0  0  0
  148.9385  135.1217  159.9613 H   0  0  0  0  0  0  0  0  0  0  0  0
  146.8954  137.1719  160.9835 H   0  0  0  0  0  0  0  0  0  0  0  0
  149.3423  136.1570  161.8763 H   0  0  0  0  0  0  0  0  0  0  0  0
  146.3415  135.4911  162.7643 H   0  0  0  0  0  0  0  0  0  0  0  0
  148.2219  133.7039  161.1599 H   0  0  0  0  0  0  0  0  0  0  0  0
  148.1893  133.9037  162.9135 H   0  0  0  0  0  0  0  0  0  0  0  0
  146.8096  131.9161  161.5139 H   0  0  0  0  0  0  0  0  0  0  0  0
  146.2901  132.5023  163.0958 H   0  0  0  0  0  0  0  0  0  0  0  0
  144.8310  132.8745  160.6474 H   0  0  0  0  0  0  0  0  0  0  0  0
  144.5086  133.6533  162.2003 H   0  0  0  0  0  0  0  0  0  0  0  0
  153.2060  141.7472  158.0498 H   0  0  0  0  0  0  0  0  0  0  0  0
  152.0754  141.4088  159.3510 H   0  0  0  0  0  0  0  0  0  0  0  0
  1  2  1  0  0  0  0
  1 30  1  0  0  0  0
  1 31  1  0  0  0  0
  1 32  1  0  0  0  0
  2  3  1  0  0  0  0
  3 28  1  0  0  0  0
  3 27  1  0  0  0  0
  3  4  1  0  0  0  0
  4  5  1  0  0  0  0
  4 33  1  0  0  0  0
  4 34  1  0  0  0  0
  5 29  1  0  0  0  0
  5  6  1  0  0  0  0
  5  9  1  0  0  0  0
  6  7  1  0  0  0  0
  6  8  2  0  0  0  0
  7 35  1  0  0  0  0
  7 36  1  0  0  0  0
  9 10  1  0  0  0  0
  9 27  1  0  0  0  0
 10 15  1  0  0  0  0
 10 11  2  0  0  0  0
 11 12  1  0  0  0  0
 12 13  2  0  0  0  0
 12 37  1  0  0  0  0
 13 14  1  0  0  0  0
 14 18  1  0  0  0  0
 14 15  2  0  0  0  0
 15 16  1  0  0  0  0
 16 17  2  0  0  0  0
 17 18  1  0  0  0  0
 17 38  1  0  0  0  0
 18 19  1  0  0  0  0
 19 20  1  0  0  0  0
 19 39  1  0  0  0  0
 19 40  1  0  0  0  0
 20 21  1  0  0  0  0
 20 22  1  0  0  0  0
 20 41  1  0  0  0  0
 21 42  1  0  0  0  0
 22 26  1  0  0  0  0
 22 23  1  0  0  0  0
 22 43  1  0  0  0  0
 23 24  1  0  0  0  0
 23 44  1  0  0  0  0
 23 45  1  0  0  0  0
 24 25  1  0  0  0  0
 24 46  1  0  0  0  0
 24 47  1  0  0  0  0
 25 26  1  0  0  0  0
 25 48  1  0  0  0  0
 25 49  1  0  0  0  0
 27 50  1  0  0  0  0
 27 51  1  0  0  0  0
M  END
> <s_m_source_file>
AV-unprocessed.smi

> <i_m_source_file_index>
261

> <i_lp_mmshare_version>
43012

> <i_f3d_flags>
0

> <s_epik_input>
W0NIM11PW0NASF0xW0NIMl1bQ0BASF0oQyg9TylbTkgyXSlOKFtDSDJdMSljKG5bY0hdbjIpYyhjMjMpbltjSF1uM1tDSDJdW0NASF0oW09IXSlbQ0BASF00W0NIMl1bQ0gyXVtDSDJdTzQ=

> <s_epik_cmdline>
J2VwaWtfcHl0aG9uJywgJy1waCcsICc3LjAnLCAnLXRuJywgJzgnLCAnLW1hJywgJzIwMCcsICctbWV0YWxfYmluZGluZycsICctaW1hZScsICc8aW5maWxlLm1hZT4nLCAnLW9tYWUnLCAnPG91dGZpbGUubWFlPic=

> <r_lp_tautomer_probability>
1

> <r_epik_Ionization_Penalty>
0.000713824

> <r_epik_Ionization_Penalty_Charging>
0

> <r_epik_Ionization_Penalty_Neutral>
0.000713824

> <r_epik_State_Penalty>
0.000402132

> <r_epik_Charging_Adjusted_Penalty>
0.000402132

> <i_epik_Tot_Q>
0

> <i_epik_Tot_abs_Q>
0

> <r_epik_Metal_State_Penalty>
-0

> <b_epik_Metal_Only>
0

> <s_lp_Force_Field>
OPLS_2005

> <r_lp_Energy>
45.6621

> <b_lp_Chiralities_Consistent>
1

> <s_lp_Variant>
AV-unprocessed.smi:261-1

> <Gold.Version>
5.8.1

> <Gold.Id.Protein>
6NUR|6NUR_protein|mol2

> <Gold.PLP.Fitness>
48.0817

> <Gold.PLP.PLP>
-40.5692

> <Gold.PLP.part.hbond>
-4.0619

> <Gold.PLP.part.metal>
0.0000

> <Gold.PLP.part.buried>
-4.4323

> <Gold.PLP.part.nonpolar>
-31.7409

> <Gold.PLP.part.repulsive>
0.2594

> <Gold.PLP.ligand.clash>
0.0000

> <Gold.PLP.ligand.torsion>
0.8248

> <Gold.PLP.Chemscore.Hbond>
2.9913

> <Gold.PLP.Chemscore.CHOScore>
0.0000

> <Gold.PLP.Chemscore.Metal>
0.0000

> <Gold.Chemscore.Hbonds>
donor molecule, donor type, donor heavy atom, donor atom, acceptor molecule, acceptor atom, score
      P1  H  6896  6909       L1    13  1.00
      P1  H  6931  6943       L1    21  1.00
      P1  H  7989  7998       L1     8  0.12
      P1  H  7997  8008       L1     8  0.26

> <Gold.PLP.Chemscore.Internal.Correction>
0.1883

> <Gold.Rescore>
     Score         DG    S(hbond)    S(metal)    S(lipo)     H(rot)  DE(clash)    DE(int)     intcor
     11.93     -14.45       2.51        0.00      83.30       3.57       0.35       2.17       ----

> <Gold.Chemscore.Fitness>
11.9305

> <Gold.Chemscore.DG>
-14.4521

> <Gold.Chemscore.ZeroCoef>
-5.4800

> <Gold.Chemscore.Hbond>
2.5076

> <Gold.Chemscore.Metal>
0.0000

> <Gold.Chemscore.Lipo>
83.3004

> <Gold.Chemscore.Internal_Hbond>
0.0000

> <Gold.Chemscore.DEClash>
0.3518

> <Gold.Chemscore.DEInternal>
2.1698

> <Gold.Chemscore.Rot>
3.5740

> <Gold.Chemscore.Internal.Correction>
   9.000000E+99

> <Gold.Chemscore.Hbonds>
donor molecule, donor type, donor heavy atom, donor atom, acceptor molecule, acceptor atom, score
      P1  H  6896  6909       L1    13  0.80
      P1  H  6931  6943       L1    21  0.59
      P1  H  7997  8008       L1     8  0.27

> <Gold.Chemscore.Hbond.Weighted>
-8.3754

> <Gold.Chemscore.Metal.Weighted>
-0.0000

> <Gold.Chemscore.Lipo.Weighted>
-9.7461

> <Gold.Chemscore.Internal_Hbond.Weighted>
0.0000

> <Gold.Chemscore.DEClash.Weighted>
0.3518

> <Gold.Chemscore.DEInternal.Weighted>
2.1698

> <Gold.Chemscore.Rot.Weighted>
9.1495

> <Gold.Chemscore.Internal.Correction.Weighted>
   9.000000E+99

> <Gold.Protein.RotatedTorsions>
[ 6907 6896 6895 6894 ] final  105.20 input  -60.11 | X-H torsion
[ 7974 7965 7964 7962 ] final   56.89 input  175.53 | X-H torsion
[ 8008 7997 7996 7995 ] final  -16.33 input   59.86 | X-H torsion
[ 10167 10162 10161 10158 ] final  126.97 input  -65.29 | X-H torsion
[ 10718 10713 10712 10709 ] final  144.00 input   66.30 | X-H torsion
[ 10763 10752 10751 10750 ] final  115.59 input  -60.55 | X-H torsion
[ 11005 11000 10999 10996 ] final    7.34 input  -57.11 | X-H torsion

> <Gold.Protein.ActiveResidues>
 VAL166  LYS551  ARG553  GLY616  TRP617  ASP618  TYR619  PRO620  LYS621  CYS622 
 ASP623  PHE694  ASN695  SER759  ASP760  ASP761  ALA762  ILE779  LEU786  VAL792 
 PHE793  MET794  SER795  GLU796  ALA797  LYS798  CYS799  TRP800  GLU811  SER814 

> <Gold.Protein.RotatedAtoms>
  152.5238  133.9563  159.7695 H   0  0  0  0  0  0  0  0  0  0  0  0  # atno 6907 bound_to 6896
  150.9863  133.6186  159.2722 H   0  0  0  0  0  0  0  0  0  0  0  0  # atno 6908 bound_to 6896
  151.3346  135.0855  159.9403 H   0  0  0  0  0  0  0  0  0  0  0  0  # atno 6909 bound_to 6896
  145.9349  139.3839  143.0398 H   0  0  0  0  0  0  0  0  0  0  0  0  # atno 7974 bound_to 7965
  154.5061  140.2172  155.9248 H   0  0  0  0  0  0  0  0  0  0  0  0  # atno 8008 bound_to 7997
  156.1495  140.3164  155.8592 H   0  0  0  0  0  0  0  0  0  0  0  0  # atno 8009 bound_to 7997
  155.3966  140.0481  157.3029 H   0  0  0  0  0  0  0  0  0  0  0  0  # atno 8010 bound_to 7997
  139.5603  144.6877  151.4064 H   0  0  0  0  0  0  0  0  0  0  0  0  # atno 10167 bound_to 10162
  157.3624  131.0967  151.0903 H   0  0  0  0  0  0  0  0  0  0  0  0  # atno 10718 bound_to 10713
  153.5245  135.3591  155.2647 H   0  0  0  0  0  0  0  0  0  0  0  0  # atno 10763 bound_to 10752
  154.8732  135.4053  154.3222 H   0  0  0  0  0  0  0  0  0  0  0  0  # atno 10764 bound_to 10752
  153.3899  135.7071  153.6570 H   0  0  0  0  0  0  0  0  0  0  0  0  # atno 10765 bound_to 10752
  140.5494  134.0298  155.7931 H   0  0  0  0  0  0  0  0  0  0  0  0  # atno 11005 bound_to 11000
  145.8376  140.9597  143.0816 LP  0  0  0  0  0  0  0  0  0  0  0  0  # atno 17320 bound_to 7965
  144.6770  140.0243  143.7483 LP  0  0  0  0  0  0  0  0  0  0  0  0  # atno 17321 bound_to 7965
  140.6881  143.7926  150.7216 LP  0  0  0  0  0  0  0  0  0  0  0  0  # atno 17342 bound_to 10162
  140.1399  143.4450  152.2200 LP  0  0  0  0  0  0  0  0  0  0  0  0  # atno 17343 bound_to 10162
  157.2038  130.6407  149.5748 LP  0  0  0  0  0  0  0  0  0  0  0  0  # atno 17370 bound_to 10713
  155.9740  130.4682  150.6352 LP  0  0  0  0  0  0  0  0  0  0  0  0  # atno 17371 bound_to 10713
  141.1181  133.9507  157.2784 LP  0  0  0  0  0  0  0  0  0  0  0  0  # atno 17394 bound_to 11000
  139.9463  135.0183  156.8862 LP  0  0  0  0  0  0  0  0  0  0  0  0  # atno 17395 bound_to 11000

$$$$
