AV-unprocessed.smi:1873|AV-procd|sdf|7608|dock7
  -GOLD-   22720 9323D 1   1.00000     0.00000
 Structure written by MMmdl.
 36 38  0  0  0  0  0  0  0  0  1 V2000
  150.3604  140.5061  154.7012 O   0  0  0  0  0  0  0  0  0  0  0  0
  149.7163  140.9704  155.8722 C   0  0  1  0  0  0  0  0  0  0  0  0
  150.6382  141.9534  156.6206 C   0  0  0  0  0  0  0  0  0  0  0  0
  151.6110  141.2761  157.4588 N   0  0  0  0  0  0  0  0  0  0  0  0
  152.1899  140.0814  157.2310 C   0  0  0  0  0  0  0  0  0  0  0  0
  153.0594  139.6429  158.1369 N   0  0  0  0  0  0  0  0  0  0  0  0
  153.0438  140.6739  159.0606 C   0  0  0  0  0  0  0  0  0  0  0  0
  153.7528  140.8301  160.2733 C   0  0  0  0  0  0  0  0  0  0  0  0
  153.5727  141.9854  161.0624 C   0  0  0  0  0  0  0  0  0  0  0  0
  152.6837  143.0003  160.6523 C   0  0  0  0  0  0  0  0  0  0  0  0
  151.9658  142.8671  159.4481 C   0  0  0  0  0  0  0  0  0  0  0  0
  152.1482  141.7126  158.6643 C   0  0  0  0  0  0  0  0  0  0  0  0
  148.3652  141.5990  155.5694 C   0  0  0  0  0  0  0  0  0  0  0  0
  147.9522  141.7825  154.2335 C   0  0  0  0  0  0  0  0  0  0  0  0
  146.6981  142.3575  153.9512 C   0  0  0  0  0  0  0  0  0  0  0  0
  145.8410  142.7616  154.9947 C   0  0  0  0  0  0  0  0  0  0  0  0
  144.6226  143.3039  154.6529 O   0  0  0  0  0  0  0  0  0  0  0  0
  144.3916  144.6248  154.8792 C   0  0  0  0  0  0  0  0  0  0  0  0
  143.2225  144.9908  154.3002 F   0  0  0  0  0  0  0  0  0  0  0  0
  144.2823  144.8660  156.2087 F   0  0  0  0  0  0  0  0  0  0  0  0
  146.2514  142.5633  156.3349 C   0  0  0  0  0  0  0  0  0  0  0  0
  147.5057  141.9897  156.6182 C   0  0  0  0  0  0  0  0  0  0  0  0
  149.7303  140.0307  154.1815 H   0  0  0  0  0  0  0  0  0  0  0  0
  149.5523  140.0959  156.5037 H   0  0  0  0  0  0  0  0  0  0  0  0
  151.1714  142.5928  155.9152 H   0  0  0  0  0  0  0  0  0  0  0  0
  150.0467  142.6147  157.2553 H   0  0  0  0  0  0  0  0  0  0  0  0
  151.9571  139.4989  156.3513 H   0  0  0  0  0  0  0  0  0  0  0  0
  154.4365  140.0596  160.5973 H   0  0  0  0  0  0  0  0  0  0  0  0
  154.1198  142.0936  161.9874 H   0  0  0  0  0  0  0  0  0  0  0  0
  152.5533  143.8816  161.2631 H   0  0  0  0  0  0  0  0  0  0  0  0
  151.2836  143.6417  159.1310 H   0  0  0  0  0  0  0  0  0  0  0  0
  148.5941  141.4813  153.4186 H   0  0  0  0  0  0  0  0  0  0  0  0
  146.3922  142.4915  152.9237 H   0  0  0  0  0  0  0  0  0  0  0  0
  145.1798  145.2504  154.4596 H   0  0  0  0  0  0  0  0  0  0  0  0
  145.6103  142.8404  157.1583 H   0  0  0  0  0  0  0  0  0  0  0  0
  147.8045  141.8444  157.6461 H   0  0  0  0  0  0  0  0  0  0  0  0
  1  2  1  0  0  0  0
  1 23  1  0  0  0  0
  2  3  1  0  0  0  0
  2 13  1  0  0  0  0
  2 24  1  0  0  0  0
  3  4  1  0  0  0  0
  3 25  1  0  0  0  0
  3 26  1  0  0  0  0
  4 12  1  0  0  0  0
  4  5  1  0  0  0  0
  5  6  2  0  0  0  0
  5 27  1  0  0  0  0
  6  7  1  0  0  0  0
  7 12  2  0  0  0  0
  7  8  1  0  0  0  0
  8  9  2  0  0  0  0
  8 28  1  0  0  0  0
  9 10  1  0  0  0  0
  9 29  1  0  0  0  0
 10 11  2  0  0  0  0
 10 30  1  0  0  0  0
 11 12  1  0  0  0  0
 11 31  1  0  0  0  0
 13 22  1  0  0  0  0
 13 14  2  0  0  0  0
 14 15  1  0  0  0  0
 14 32  1  0  0  0  0
 15 16  2  0  0  0  0
 15 33  1  0  0  0  0
 16 17  1  0  0  0  0
 16 21  1  0  0  0  0
 17 18  1  0  0  0  0
 18 19  1  0  0  0  0
 18 20  1  0  0  0  0
 18 34  1  0  0  0  0
 21 22  2  0  0  0  0
 21 35  1  0  0  0  0
 22 36  1  0  0  0  0
M  END
> <s_m_source_file>
AV-unprocessed.smi

> <i_m_source_file_index>
1873

> <i_lp_mmshare_version>
43012

> <i_f3d_flags>
0

> <s_epik_input>
RltDSF0oRilPYyhbY0hdW2NIXTEpW2NIXVtjSF1jMVtDQEhdKFtPSF0pW0NIMl1uKFtjSF1uMiljKGMyMylbY0hdW2NIXVtjSF1bY0hdMw==

> <s_epik_cmdline>
J2VwaWtfcHl0aG9uJywgJy1waCcsICc3LjAnLCAnLXRuJywgJzgnLCAnLW1hJywgJzIwMCcsICctbWV0YWxfYmluZGluZycsICctaW1hZScsICc8aW5maWxlLm1hZT4nLCAnLW9tYWUnLCAnPG91dGZpbGUubWFlPic=

> <r_lp_tautomer_probability>
1

> <r_epik_Ionization_Penalty>
0.0696507

> <r_epik_Ionization_Penalty_Charging>
0

> <r_epik_Ionization_Penalty_Neutral>
0.0696507

> <r_epik_State_Penalty>
0.0610247

> <r_epik_Charging_Adjusted_Penalty>
0.0610247

> <i_epik_Tot_Q>
0

> <i_epik_Tot_abs_Q>
0

> <r_epik_Metal_State_Penalty>
6.42746e-05

> <b_epik_Metal_Only>
0

> <s_lp_Force_Field>
OPLS_2005

> <r_lp_Energy>
11.6076

> <b_lp_Chiralities_Consistent>
1

> <s_lp_Variant>
AV-unprocessed.smi:1873-2

> <Gold.Version>
5.8.1

> <Gold.Id.Protein>
6NUR|6NUR_protein|mol2

> <Gold.PLP.Fitness>
49.8756

> <Gold.PLP.PLP>
-45.4939

> <Gold.PLP.part.hbond>
-2.0000

> <Gold.PLP.part.metal>
0.0000

> <Gold.PLP.part.buried>
-5.0460

> <Gold.PLP.part.nonpolar>
-37.8369

> <Gold.PLP.part.repulsive>
0.1883

> <Gold.PLP.ligand.clash>
0.0000

> <Gold.PLP.ligand.torsion>
0.8403

> <Gold.PLP.Chemscore.Hbond>
1.9920

> <Gold.PLP.Chemscore.CHOScore>
0.0000

> <Gold.PLP.Chemscore.Metal>
0.0000

> <Gold.Chemscore.Hbonds>
donor molecule, donor type, donor heavy atom, donor atom, acceptor molecule, acceptor atom, score
      P1  H  7989  7998       L1     1  0.98
      P1  H  7997  8009       L1     6  1.00

> <Gold.PLP.Chemscore.Internal.Correction>
0.0863

> <Gold.Rescore>
     Score         DG    S(hbond)    S(metal)    S(lipo)     H(rot)  DE(clash)    DE(int)     intcor
     14.54     -15.85       1.25        0.00     105.52       2.40       0.37       0.94       ----

> <Gold.Chemscore.Fitness>
14.5360

> <Gold.Chemscore.DG>
-15.8527

> <Gold.Chemscore.ZeroCoef>
-5.4800

> <Gold.Chemscore.Hbond>
1.2478

> <Gold.Chemscore.Metal>
0.0000

> <Gold.Chemscore.Lipo>
105.5190

> <Gold.Chemscore.Internal_Hbond>
0.0000

> <Gold.Chemscore.DEClash>
0.3747

> <Gold.Chemscore.DEInternal>
0.9420

> <Gold.Chemscore.Rot>
2.3986

> <Gold.Chemscore.Internal.Correction>
   9.000000E+99

> <Gold.Chemscore.Hbonds>
donor molecule, donor type, donor heavy atom, donor atom, acceptor molecule, acceptor atom, score
      P1  H  7989  7998       L1     1  0.32
      P1  H  7997  8009       L1     6  0.07

> <Gold.Chemscore.Hbond.Weighted>
-4.1675

> <Gold.Chemscore.Metal.Weighted>
-0.0000

> <Gold.Chemscore.Lipo.Weighted>
-12.3457

> <Gold.Chemscore.Internal_Hbond.Weighted>
0.0000

> <Gold.Chemscore.DEClash.Weighted>
0.3747

> <Gold.Chemscore.DEInternal.Weighted>
0.9420

> <Gold.Chemscore.Rot.Weighted>
6.1405

> <Gold.Chemscore.Internal.Correction.Weighted>
   9.000000E+99

> <Gold.Protein.RotatedTorsions>
[ 6907 6896 6895 6894 ] final  -84.54 input  -60.11 | X-H torsion
[ 7974 7965 7964 7962 ] final -155.40 input  175.53 | X-H torsion
[ 8008 7997 7996 7995 ] final  140.24 input   59.86 | X-H torsion
[ 10167 10162 10161 10158 ] final  173.61 input  -65.29 | X-H torsion
[ 10718 10713 10712 10709 ] final -118.04 input   66.30 | X-H torsion
[ 10763 10752 10751 10750 ] final  -91.47 input  -60.55 | X-H torsion
[ 11005 11000 10999 10996 ] final  -47.06 input  -57.11 | X-H torsion

> <Gold.Protein.ActiveResidues>
 VAL166  LYS551  ARG553  GLY616  TRP617  ASP618  TYR619  PRO620  LYS621  CYS622 
 ASP623  PHE694  ASN695  SER759  ASP760  ASP761  ALA762  ILE779  LEU786  VAL792 
 PHE793  MET794  SER795  GLU796  ALA797  LYS798  CYS799  TRP800  GLU811  SER814 

> <Gold.Protein.RotatedAtoms>
  150.6876  134.3342  159.4839 H   0  0  0  0  0  0  0  0  0  0  0  0  # atno 6907 bound_to 6896
  152.1203  134.9208  160.0572 H   0  0  0  0  0  0  0  0  0  0  0  0  # atno 6908 bound_to 6896
  152.0416  133.3945  159.4376 H   0  0  0  0  0  0  0  0  0  0  0  0  # atno 6909 bound_to 6896
  144.7642  140.4254  143.5954 H   0  0  0  0  0  0  0  0  0  0  0  0  # atno 7974 bound_to 7965
  156.2981  140.2346  156.4369 H   0  0  0  0  0  0  0  0  0  0  0  0  # atno 8008 bound_to 7997
  154.8220  140.0437  157.1438 H   0  0  0  0  0  0  0  0  0  0  0  0  # atno 8009 bound_to 7997
  154.9304  140.3016  155.5174 H   0  0  0  0  0  0  0  0  0  0  0  0  # atno 8010 bound_to 7997
  139.5114  144.3241  152.0174 H   0  0  0  0  0  0  0  0  0  0  0  0  # atno 10167 bound_to 10162
  156.1077  130.6224  150.9241 H   0  0  0  0  0  0  0  0  0  0  0  0  # atno 10718 bound_to 10713
  154.6763  135.5267  153.8204 H   0  0  0  0  0  0  0  0  0  0  0  0  # atno 10763 bound_to 10752
  153.0535  135.6541  154.0645 H   0  0  0  0  0  0  0  0  0  0  0  0  # atno 10764 bound_to 10752
  154.0538  135.2967  155.3316 H   0  0  0  0  0  0  0  0  0  0  0  0  # atno 10765 bound_to 10752
  141.0617  133.6707  156.3243 H   0  0  0  0  0  0  0  0  0  0  0  0  # atno 11005 bound_to 11000
  145.6523  139.1567  143.2855 LP  0  0  0  0  0  0  0  0  0  0  0  0  # atno 17320 bound_to 7965
  146.1734  140.6611  142.9223 LP  0  0  0  0  0  0  0  0  0  0  0  0  # atno 17321 bound_to 7965
  140.2683  144.3992  150.6160 LP  0  0  0  0  0  0  0  0  0  0  0  0  # atno 17342 bound_to 10162
  140.6107  143.2169  151.6891 LP  0  0  0  0  0  0  0  0  0  0  0  0  # atno 17343 bound_to 10162
  157.6256  131.0926  150.8541 LP  0  0  0  0  0  0  0  0  0  0  0  0  # atno 17370 bound_to 10713
  156.8657  130.5128  149.5300 LP  0  0  0  0  0  0  0  0  0  0  0  0  # atno 17371 bound_to 10713
  140.5855  134.5703  157.5488 LP  0  0  0  0  0  0  0  0  0  0  0  0  # atno 17394 bound_to 11000
  139.9439  134.7738  156.0611 LP  0  0  0  0  0  0  0  0  0  0  0  0  # atno 17395 bound_to 11000

$$$$
