AV-unprocessed.smi:1046|AV-procd|sdf|4559|dock9
  -GOLD-   22720 3 03D 1   1.00000     0.00000
 Structure written by MMmdl.
 54 56  0  0  0  0  0  0  0  0  3 V2000
  152.2577  145.1049  160.4266 C   0  0  0  0  0  0  0  0  0  0  0  0
  152.1019  143.8822  159.5383 C   0  0  0  0  0  0  0  0  0  0  0  0
  151.2624  143.9745  158.4052 C   0  0  0  0  0  0  0  0  0  0  0  0
  151.1429  142.8409  157.6100 C   0  0  0  0  0  0  0  0  0  0  0  0
  150.4090  142.6156  156.4434 N   0  3  0  0  0  0  0  0  0  0  0  0
  150.6105  141.3376  156.0190 C   0  0  0  0  0  0  0  0  0  0  0  0
  151.4611  140.7419  156.8982 N   0  0  0  0  0  0  0  0  0  0  0  0
  151.9982  139.3735  156.9049 C   0  0  0  0  0  0  0  0  0  0  0  0
  151.0688  138.3733  157.6214 C   0  0  1  0  0  0  0  0  0  0  0  0
  150.9225  138.7080  158.9872 O   0  0  0  0  0  0  0  0  0  0  0  0
  149.6664  138.1802  157.0016 C   0  0  0  0  0  0  0  0  0  0  0  0
  149.6023  137.3691  155.7767 N   0  0  0  0  0  0  0  0  0  0  0  0
  148.3115  136.7079  155.5460 C   0  0  0  0  0  0  0  0  0  0  0  0
  147.1793  137.6759  155.1382 C   0  0  0  0  0  0  0  0  0  0  0  0
  147.5693  138.4628  153.9408 N   0  3  0  0  0  0  0  0  0  0  0  0
  146.4868  139.3672  153.4777 C   0  0  0  0  0  0  0  0  0  0  0  0
  146.4296  139.4846  151.9449 C   0  0  0  0  0  0  0  0  0  0  0  0
  146.0749  138.2410  151.3787 O   0  0  0  0  0  0  0  0  0  0  0  0
  148.8650  139.1526  154.1718 C   0  0  0  0  0  0  0  0  0  0  0  0
  149.9437  138.1284  154.5735 C   0  0  0  0  0  0  0  0  0  0  0  0
  151.8206  141.6428  157.9084 C   0  0  0  0  0  0  0  0  0  0  0  0
  152.6513  141.5355  159.0215 C   0  0  0  0  0  0  0  0  0  0  0  0
  152.7892  142.6784  159.8410 C   0  0  0  0  0  0  0  0  0  0  0  0
  153.6952  142.5914  161.0574 C   0  0  0  0  0  0  0  0  0  0  0  0
  151.6042  145.9164  160.1060 H   0  0  0  0  0  0  0  0  0  0  0  0
  153.2844  145.4699  160.3950 H   0  0  0  0  0  0  0  0  0  0  0  0
  152.0057  144.8663  161.4601 H   0  0  0  0  0  0  0  0  0  0  0  0
  150.7385  144.8884  158.1667 H   0  0  0  0  0  0  0  0  0  0  0  0
  150.1735  140.8802  155.1430 H   0  0  0  0  0  0  0  0  0  0  0  0
  152.1928  139.0736  155.8756 H   0  0  0  0  0  0  0  0  0  0  0  0
  152.9635  139.4125  157.4110 H   0  0  0  0  0  0  0  0  0  0  0  0
  151.5578  137.3984  157.6017 H   0  0  0  0  0  0  0  0  0  0  0  0
  150.7836  137.9133  159.4793 H   0  0  0  0  0  0  0  0  0  0  0  0
  148.9919  137.7797  157.7574 H   0  0  0  0  0  0  0  0  0  0  0  0
  149.2827  139.1792  156.7892 H   0  0  0  0  0  0  0  0  0  0  0  0
  148.4355  135.9665  154.7552 H   0  0  0  0  0  0  0  0  0  0  0  0
  147.9987  136.1447  156.4213 H   0  0  0  0  0  0  0  0  0  0  0  0
  146.2810  137.0992  154.9148 H   0  0  0  0  0  0  0  0  0  0  0  0
  146.9204  138.3488  155.9561 H   0  0  0  0  0  0  0  0  0  0  0  0
  145.5221  138.9984  153.8302 H   0  0  0  0  0  0  0  0  0  0  0  0
  146.6187  140.3518  153.9286 H   0  0  0  0  0  0  0  0  0  0  0  0
  145.6725  140.2158  151.6605 H   0  0  0  0  0  0  0  0  0  0  0  0
  147.3723  139.8280  151.5207 H   0  0  0  0  0  0  0  0  0  0  0  0
  145.1472  138.2462  151.1947 H   0  0  0  0  0  0  0  0  0  0  0  0
  149.1858  139.6662  153.2664 H   0  0  0  0  0  0  0  0  0  0  0  0
  148.7506  139.9153  154.9437 H   0  0  0  0  0  0  0  0  0  0  0  0
  150.9010  138.6323  154.7124 H   0  0  0  0  0  0  0  0  0  0  0  0
  150.0962  137.4340  153.7459 H   0  0  0  0  0  0  0  0  0  0  0  0
  153.1801  140.6219  159.2496 H   0  0  0  0  0  0  0  0  0  0  0  0
  154.1852  141.6194  161.1216 H   0  0  0  0  0  0  0  0  0  0  0  0
  153.1209  142.7368  161.9725 H   0  0  0  0  0  0  0  0  0  0  0  0
  154.4740  143.3529  161.0115 H   0  0  0  0  0  0  0  0  0  0  0  0
  147.7176  137.7926  153.1995 H   0  0  0  0  0  0  0  0  0  0  0  0
  149.8141  143.2833  155.9696 H   0  0  0  0  0  0  0  0  0  0  0  0
  1  2  1  0  0  0  0
  1 25  1  0  0  0  0
  1 26  1  0  0  0  0
  1 27  1  0  0  0  0
  2 23  1  0  0  0  0
  2  3  2  0  0  0  0
  3  4  1  0  0  0  0
  3 28  1  0  0  0  0
  4 21  2  0  0  0  0
  4  5  1  0  0  0  0
  5  6  2  0  0  0  0
  5 54  1  0  0  0  0
  6  7  1  0  0  0  0
  6 29  1  0  0  0  0
  7  8  1  0  0  0  0
  7 21  1  0  0  0  0
  8  9  1  0  0  0  0
  8 30  1  0  0  0  0
  8 31  1  0  0  0  0
  9 10  1  0  0  0  0
  9 11  1  0  0  0  0
  9 32  1  0  0  0  0
 10 33  1  0  0  0  0
 11 12  1  0  0  0  0
 11 34  1  0  0  0  0
 11 35  1  0  0  0  0
 12 20  1  0  0  0  0
 12 13  1  0  0  0  0
 13 14  1  0  0  0  0
 13 36  1  0  0  0  0
 13 37  1  0  0  0  0
 14 15  1  0  0  0  0
 14 38  1  0  0  0  0
 14 39  1  0  0  0  0
 15 16  1  0  0  0  0
 15 19  1  0  0  0  0
 15 53  1  0  0  0  0
 16 17  1  0  0  0  0
 16 40  1  0  0  0  0
 16 41  1  0  0  0  0
 17 18  1  0  0  0  0
 17 42  1  0  0  0  0
 17 43  1  0  0  0  0
 18 44  1  0  0  0  0
 19 20  1  0  0  0  0
 19 45  1  0  0  0  0
 19 46  1  0  0  0  0
 20 47  1  0  0  0  0
 20 48  1  0  0  0  0
 21 22  1  0  0  0  0
 22 23  2  0  0  0  0
 22 49  1  0  0  0  0
 23 24  1  0  0  0  0
 24 50  1  0  0  0  0
 24 51  1  0  0  0  0
 24 52  1  0  0  0  0
M  CHG  1   5   1
M  CHG  1  15   1
M  END
> <s_m_source_file>
AV-unprocessed.smi

> <i_m_source_file_index>
1046

> <i_lp_mmshare_version>
43012

> <i_f3d_flags>
0

> <s_epik_input>
W0NIM11jKFtjSF0xKWMoW0NIM10pW2NIXWMoYzEyKW4oW2NIXW4yKVtDSDJdW0NASF0oW09IXSlbQ0gyXU4zW0NIMl1bQ0gyXU4oW0NIMl1bQ0gyXTMpW0NIMl1bQ0gyXVtPSF0=

> <s_epik_cmdline>
J2VwaWtfcHl0aG9uJywgJy1waCcsICc3LjAnLCAnLXRuJywgJzgnLCAnLW1hJywgJzIwMCcsICctbWV0YWxfYmluZGluZycsICctaW1hZScsICc8aW5maWxlLm1hZT4nLCAnLW9tYWUnLCAnPG91dGZpbGUubWFlPic=

> <r_epik_Ionization_Penalty>
1.37806

> <r_epik_Ionization_Penalty_Charging>
1.32954

> <r_epik_Ionization_Penalty_Neutral>
0.0485178

> <r_epik_State_Penalty>
2.26587

> <r_epik_Charging_Adjusted_Penalty>
3.59541

> <i_epik_Tot_Q>
2

> <i_epik_Tot_abs_Q>
2

> <r_epik_Metal_State_Penalty>
6.27317

> <b_epik_Metal_Only>
0

> <s_lp_Force_Field>
OPLS_2005

> <r_lp_Energy>
47.9713

> <b_lp_Chiralities_Consistent>
1

> <s_lp_Variant>
AV-unprocessed.smi:1046-12

> <Gold.Version>
5.8.1

> <Gold.Id.Protein>
6NUR|6NUR_protein|mol2

> <Gold.PLP.Fitness>
63.7849

> <Gold.PLP.PLP>
-48.1759

> <Gold.PLP.part.hbond>
-4.6508

> <Gold.PLP.part.metal>
0.0000

> <Gold.PLP.part.buried>
-3.4165

> <Gold.PLP.part.nonpolar>
-40.5479

> <Gold.PLP.part.repulsive>
0.1904

> <Gold.PLP.ligand.clash>
0.0000

> <Gold.PLP.ligand.torsion>
1.2365

> <Gold.PLP.Chemscore.Hbond>
6.0000

> <Gold.PLP.Chemscore.CHOScore>
0.0000

> <Gold.PLP.Chemscore.Metal>
0.0000

> <Gold.Chemscore.Hbonds>
donor molecule, donor type, donor heavy atom, donor atom, acceptor molecule, acceptor atom, score
      L1  H     5    54       P1  8028  2.00
      L1  H    15    53       P1  7948  0.20
      L1  H    18    44       P1 10171  0.85

> <Gold.PLP.Chemscore.Internal.Correction>
0.0819

> <Gold.Rescore>
     Score         DG    S(hbond)    S(metal)    S(lipo)     H(rot)  DE(clash)    DE(int)     intcor
     19.64     -21.29       2.90        0.00     124.21       3.29       0.34       1.31       ----

> <Gold.Chemscore.Fitness>
19.6386

> <Gold.Chemscore.DG>
-21.2895

> <Gold.Chemscore.ZeroCoef>
-5.4800

> <Gold.Chemscore.Hbond>
2.9038

> <Gold.Chemscore.Metal>
0.0000

> <Gold.Chemscore.Lipo>
124.2086

> <Gold.Chemscore.Internal_Hbond>
0.0000

> <Gold.Chemscore.DEClash>
0.3441

> <Gold.Chemscore.DEInternal>
1.3068

> <Gold.Chemscore.Rot>
3.2896

> <Gold.Chemscore.Internal.Correction>
   9.000000E+99

> <Gold.Chemscore.Hbonds>
donor molecule, donor type, donor heavy atom, donor atom, acceptor molecule, acceptor atom, score
      L1  H     5    54       P1  8028  1.00
      L1  H    15    53       P1  7948  0.13
      L1  H    18    44       P1 10171  0.83

> <Gold.Chemscore.Hbond.Weighted>
-9.6986

> <Gold.Chemscore.Metal.Weighted>
-0.0000

> <Gold.Chemscore.Lipo.Weighted>
-14.5324

> <Gold.Chemscore.Internal_Hbond.Weighted>
0.0000

> <Gold.Chemscore.DEClash.Weighted>
0.3441

> <Gold.Chemscore.DEInternal.Weighted>
1.3068

> <Gold.Chemscore.Rot.Weighted>
8.4215

> <Gold.Chemscore.Internal.Correction.Weighted>
   9.000000E+99

> <Gold.Protein.RotatedTorsions>
[ 6907 6896 6895 6894 ] final  159.27 input  -60.11 | X-H torsion
[ 7974 7965 7964 7962 ] final  -78.68 input  175.53 | X-H torsion
[ 8008 7997 7996 7995 ] final    9.64 input   59.86 | X-H torsion
[ 10167 10162 10161 10158 ] final  -56.16 input  -65.29 | X-H torsion
[ 10718 10713 10712 10709 ] final  -20.97 input   66.30 | X-H torsion
[ 10763 10752 10751 10750 ] final   53.02 input  -60.55 | X-H torsion
[ 11005 11000 10999 10996 ] final  167.86 input  -57.11 | X-H torsion

> <Gold.Protein.ActiveResidues>
 VAL166  LYS551  ARG553  GLY616  TRP617  ASP618  TYR619  PRO620  LYS621  CYS622 
 ASP623  PHE694  ASN695  SER759  ASP760  ASP761  ALA762  ILE779  LEU786  VAL792 
 PHE793  MET794  SER795  GLU796  ALA797  LYS798  CYS799  TRP800  GLU811  SER814 

> <Gold.Protein.RotatedAtoms>
  151.9881  133.3781  159.4133 H   0  0  0  0  0  0  0  0  0  0  0  0  # atno 6907 bound_to 6896
  150.6925  134.3966  159.5109 H   0  0  0  0  0  0  0  0  0  0  0  0  # atno 6908 bound_to 6896
  152.1695  134.8845  160.0586 H   0  0  0  0  0  0  0  0  0  0  0  0  # atno 6909 bound_to 6896
  145.5833  140.9444  143.1332 H   0  0  0  0  0  0  0  0  0  0  0  0  # atno 7974 bound_to 7965
  154.7827  140.2821  155.6052 H   0  0  0  0  0  0  0  0  0  0  0  0  # atno 8008 bound_to 7997
  156.2952  140.2620  156.2584 H   0  0  0  0  0  0  0  0  0  0  0  0  # atno 8009 bound_to 7997
  154.9765  140.0375  157.2248 H   0  0  0  0  0  0  0  0  0  0  0  0  # atno 8010 bound_to 7997
  140.6333  143.2470  151.5184 H   0  0  0  0  0  0  0  0  0  0  0  0  # atno 10167 bound_to 10162
  156.5245  130.4640  149.6579 H   0  0  0  0  0  0  0  0  0  0  0  0  # atno 10718 bound_to 10713
  152.9792  135.5793  154.4673 H   0  0  0  0  0  0  0  0  0  0  0  0  # atno 10763 bound_to 10752
  154.4241  135.2772  155.1958 H   0  0  0  0  0  0  0  0  0  0  0  0  # atno 10764 bound_to 10752
  154.3694  135.6171  153.5786 H   0  0  0  0  0  0  0  0  0  0  0  0  # atno 10765 bound_to 10752
  140.2812  134.7749  157.3760 H   0  0  0  0  0  0  0  0  0  0  0  0  # atno 11005 bound_to 11000
  144.7384  139.7519  143.7320 LP  0  0  0  0  0  0  0  0  0  0  0  0  # atno 17320 bound_to 7965
  146.1700  139.4847  142.9933 LP  0  0  0  0  0  0  0  0  0  0  0  0  # atno 17321 bound_to 7965
  139.5545  144.2310  152.1589 LP  0  0  0  0  0  0  0  0  0  0  0  0  # atno 17342 bound_to 10162
  140.1560  144.5070  150.6660 LP  0  0  0  0  0  0  0  0  0  0  0  0  # atno 17343 bound_to 10162
  156.3118  130.7233  151.2127 LP  0  0  0  0  0  0  0  0  0  0  0  0  # atno 17370 bound_to 10713
  157.7431  131.0479  150.4969 LP  0  0  0  0  0  0  0  0  0  0  0  0  # atno 17371 bound_to 10713
  140.1281  134.5130  155.8127 LP  0  0  0  0  0  0  0  0  0  0  0  0  # atno 17394 bound_to 11000
  141.2162  133.6780  156.6990 LP  0  0  0  0  0  0  0  0  0  0  0  0  # atno 17395 bound_to 11000

$$$$
