AV-unprocessed.smi:36|AV-procd|sdf|296|dock9
  -GOLD-   2262016 93D 1   1.00000     0.00000
 Structure written by MMmdl.
 63 66  0  0  0  0  0  0  0  0  2 V2000
  149.5648  136.0806  157.4126 C   0  0  0  0  0  0  0  0  0  0  0  0
  148.7017  136.9232  158.3668 C   0  0  0  0  0  0  0  0  0  0  0  0
  148.8832  136.4271  159.8108 C   0  0  0  0  0  0  0  0  0  0  0  0
  149.1100  138.4027  158.2719 C   0  0  0  0  0  0  0  0  0  0  0  0
  146.8625  136.7549  157.8765 Si  0  0  0  0  0  0  0  0  0  0  0  0
  146.3705  134.9274  157.7049 C   0  0  0  0  0  0  0  0  0  0  0  0
  145.7338  137.6051  159.1467 C   0  0  0  0  0  0  0  0  0  0  0  0
  146.6479  137.5261  156.3842 O   0  0  0  0  0  0  0  0  0  0  0  0
  145.4424  137.5031  155.6471 C   0  0  0  0  0  0  0  0  0  0  0  0
  145.5690  138.4407  154.4356 C   0  0  1  0  0  0  0  0  0  0  0  0
  146.0184  139.7398  154.8183 O   0  0  0  0  0  0  0  0  0  0  0  0
  146.8891  140.2707  153.8636 C   0  0  1  0  0  0  0  0  0  0  0  0
  148.2486  140.3817  154.4786 N   0  0  0  0  0  0  0  0  0  0  0  0
  149.4330  139.9078  154.0378 C   0  0  0  0  0  0  0  0  0  0  0  0
  150.5073  140.1459  154.7882 N   0  0  0  0  0  0  0  0  0  0  0  0
  149.9594  140.8611  155.8429 C   0  0  0  0  0  0  0  0  0  0  0  0
  150.5295  141.4409  157.0097 C   0  0  0  0  0  0  0  0  0  0  0  0
  151.8374  141.3590  157.2981 N   0  5  0  0  0  0  0  0  0  0  0  0
  152.2490  141.3754  158.5913 C   0  0  0  0  0  0  0  0  0  0  0  0
  152.7658  140.4582  159.2328 O   0  0  0  0  0  0  0  0  0  0  0  0
  152.0932  142.7217  159.2472 C   0  0  0  0  0  0  0  0  0  0  0  0
  151.8004  143.8563  158.4559 C   0  0  0  0  0  0  0  0  0  0  0  0
  151.6714  145.1283  159.0467 C   0  0  0  0  0  0  0  0  0  0  0  0
  151.8438  145.2817  160.4353 C   0  0  0  0  0  0  0  0  0  0  0  0
  152.1501  144.1624  161.2317 C   0  0  0  0  0  0  0  0  0  0  0  0
  152.2792  142.8900  160.6415 C   0  0  0  0  0  0  0  0  0  0  0  0
  149.6807  142.0770  157.8572 N   0  0  0  0  0  0  0  0  0  0  0  0
  148.3744  142.1526  157.5767 C   0  0  0  0  0  0  0  0  0  0  0  0
  147.7108  141.6654  156.5237 N   0  0  0  0  0  0  0  0  0  0  0  0
  148.5537  141.0160  155.6690 C   0  0  0  0  0  0  0  0  0  0  0  0
  146.9241  139.2946  152.6843 C   0  0  0  0  0  0  0  0  0  0  0  0
  146.5198  137.9788  153.3220 C   0  0  1  0  0  0  0  0  0  0  0  0
  147.6469  137.2796  153.8166 O   0  0  0  0  0  0  0  0  0  0  0  0
  150.6230  136.1556  157.6652 H   0  0  0  0  0  0  0  0  0  0  0  0
  149.4507  136.4081  156.3790 H   0  0  0  0  0  0  0  0  0  0  0  0
  149.2911  135.0261  157.4559 H   0  0  0  0  0  0  0  0  0  0  0  0
  148.6042  135.3778  159.9093 H   0  0  0  0  0  0  0  0  0  0  0  0
  148.2665  136.9978  160.5059 H   0  0  0  0  0  0  0  0  0  0  0  0
  149.9198  136.5225  160.1358 H   0  0  0  0  0  0  0  0  0  0  0  0
  150.1507  138.5471  158.5643 H   0  0  0  0  0  0  0  0  0  0  0  0
  148.4951  139.0252  158.9231 H   0  0  0  0  0  0  0  0  0  0  0  0
  148.9998  138.7814  157.2555 H   0  0  0  0  0  0  0  0  0  0  0  0
  146.5262  134.3810  158.6346 H   0  0  0  0  0  0  0  0  0  0  0  0
  146.9515  134.4261  156.9313 H   0  0  0  0  0  0  0  0  0  0  0  0
  145.3194  134.8194  157.4404 H   0  0  0  0  0  0  0  0  0  0  0  0
  145.8465  137.1687  160.1389 H   0  0  0  0  0  0  0  0  0  0  0  0
  144.6835  137.5148  158.8707 H   0  0  0  0  0  0  0  0  0  0  0  0
  145.9557  138.6686  159.2315 H   0  0  0  0  0  0  0  0  0  0  0  0
  145.1875  136.4882  155.3406 H   0  0  0  0  0  0  0  0  0  0  0  0
  144.6472  137.8491  156.3076 H   0  0  0  0  0  0  0  0  0  0  0  0
  144.5833  138.5725  153.9863 H   0  0  0  0  0  0  0  0  0  0  0  0
  146.6237  141.2932  153.5927 H   0  0  0  0  0  0  0  0  0  0  0  0
  149.5169  139.3601  153.1117 H   0  0  0  0  0  0  0  0  0  0  0  0
  151.6661  143.7560  157.3883 H   0  0  0  0  0  0  0  0  0  0  0  0
  151.4412  145.9866  158.4330 H   0  0  0  0  0  0  0  0  0  0  0  0
  151.7453  146.2571  160.8883 H   0  0  0  0  0  0  0  0  0  0  0  0
  152.2890  144.2791  162.2964 H   0  0  0  0  0  0  0  0  0  0  0  0
  152.5247  142.0456  161.2697 H   0  0  0  0  0  0  0  0  0  0  0  0
  147.7732  142.6789  158.3030 H   0  0  0  0  0  0  0  0  0  0  0  0
  146.1661  139.6087  151.9658 H   0  0  0  0  0  0  0  0  0  0  0  0
  147.8924  139.2803  152.1813 H   0  0  0  0  0  0  0  0  0  0  0  0
  146.0111  137.3291  152.6092 H   0  0  0  0  0  0  0  0  0  0  0  0
  148.2532  137.1427  153.1049 H   0  0  0  0  0  0  0  0  0  0  0  0
  1  2  1  0  0  0  0
  1 34  1  0  0  0  0
  1 35  1  0  0  0  0
  1 36  1  0  0  0  0
  2  3  1  0  0  0  0
  2  4  1  0  0  0  0
  2  5  1  0  0  0  0
  3 37  1  0  0  0  0
  3 38  1  0  0  0  0
  3 39  1  0  0  0  0
  4 40  1  0  0  0  0
  4 41  1  0  0  0  0
  4 42  1  0  0  0  0
  5  6  1  0  0  0  0
  5  7  1  0  0  0  0
  5  8  1  0  0  0  0
  6 43  1  0  0  0  0
  6 44  1  0  0  0  0
  6 45  1  0  0  0  0
  7 46  1  0  0  0  0
  7 47  1  0  0  0  0
  7 48  1  0  0  0  0
  8  9  1  0  0  0  0
  9 10  1  0  0  0  0
  9 49  1  0  0  0  0
  9 50  1  0  0  0  0
 10 32  1  0  0  0  0
 10 11  1  0  0  0  0
 10 51  1  0  0  0  0
 11 12  1  0  0  0  0
 12 13  1  0  0  0  0
 12 31  1  0  0  0  0
 12 52  1  0  0  0  0
 13 30  1  0  0  0  0
 13 14  1  0  0  0  0
 14 15  2  0  0  0  0
 14 53  1  0  0  0  0
 15 16  1  0  0  0  0
 16 30  2  0  0  0  0
 16 17  1  0  0  0  0
 17 18  1  0  0  0  0
 17 27  2  0  0  0  0
 18 19  1  0  0  0  0
 19 20  2  0  0  0  0
 19 21  1  0  0  0  0
 21 26  1  0  0  0  0
 21 22  2  0  0  0  0
 22 23  1  0  0  0  0
 22 54  1  0  0  0  0
 23 24  2  0  0  0  0
 23 55  1  0  0  0  0
 24 25  1  0  0  0  0
 24 56  1  0  0  0  0
 25 26  2  0  0  0  0
 25 57  1  0  0  0  0
 26 58  1  0  0  0  0
 27 28  1  0  0  0  0
 28 29  2  0  0  0  0
 28 59  1  0  0  0  0
 29 30  1  0  0  0  0
 31 32  1  0  0  0  0
 31 60  1  0  0  0  0
 31 61  1  0  0  0  0
 32 33  1  0  0  0  0
 32 62  1  0  0  0  0
 33 63  1  0  0  0  0
M  CHG  1  18  -1
M  END
> <s_m_source_file>
AV-unprocessed.smi

> <i_m_source_file_index>
36

> <i_lp_mmshare_version>
43012

> <i_f3d_flags>
0

> <s_epik_input>
W0NIM11DKFtDSDNdKShbQ0gzXSlbU2ldKFtDSDNdKShbQ0gzXSlPW0NIMl1bQ0BASF0xT1tDQEhdKFtDSDJdW0NASF0xW09IXSluKFtjSF1uMiljKGMyMyluW2NIXW5jM1tOSF1DKD1PKWM0W2NIXVtjSF1bY0hdW2NIXVtjSF00

> <s_epik_cmdline>
J2VwaWtfcHl0aG9uJywgJy1waCcsICc3LjAnLCAnLXRuJywgJzgnLCAnLW1hJywgJzIwMCcsICctbWV0YWxfYmluZGluZycsICctaW1hZScsICc8aW5maWxlLm1hZT4nLCAnLW9tYWUnLCAnPG91dGZpbGUubWFlPic=

> <r_lp_tautomer_probability>
1

> <r_epik_Ionization_Penalty>
4.75685

> <r_epik_Ionization_Penalty_Charging>
3.55822

> <r_epik_Ionization_Penalty_Neutral>
1.19863

> <r_epik_State_Penalty>
3.564

> <r_epik_Charging_Adjusted_Penalty>
7.12222

> <i_epik_Tot_Q>
-1

> <i_epik_Tot_abs_Q>
1

> <r_epik_Metal_State_Penalty>
0.523258

> <b_epik_Metal_Only>
1

> <s_epik_Chemistry_Notes>
This compound contains an acetal/aminal-like group ( X-CH(R)-Y where X, Y are N, S, or O) that may be acid/base labile, releasing an aldehyde.

> <s_lp_Force_Field>
OPLS_2005

> <r_lp_Energy>
35.5948

> <b_lp_Chiralities_Consistent>
1

> <s_lp_Variant>
AV-unprocessed.smi:36-18

> <Gold.Version>
5.8.1

> <Gold.Id.Protein>
6NUR|6NUR_protein|mol2

> <Gold.PLP.Fitness>
54.3504

> <Gold.PLP.PLP>
-47.6527

> <Gold.PLP.part.hbond>
-2.0000

> <Gold.PLP.part.metal>
0.0000

> <Gold.PLP.part.buried>
-3.4748

> <Gold.PLP.part.nonpolar>
-42.5432

> <Gold.PLP.part.repulsive>
0.4016

> <Gold.PLP.ligand.clash>
0.0000

> <Gold.PLP.ligand.torsion>
1.2617

> <Gold.PLP.Chemscore.Hbond>
2.0000

> <Gold.PLP.Chemscore.CHOScore>
1.0000

> <Gold.PLP.Chemscore.Metal>
0.0000

> <Gold.Chemscore.Hbonds>
donor molecule, donor type, donor heavy atom, donor atom, acceptor molecule, acceptor atom, score
      L1  H    33    63       P1  7948  1.00
      P1  H  7989  7998       L1    15  0.95
      L1  C    14    53       P1  7957  1.00

> <Gold.PLP.Chemscore.Internal.Correction>
0.2211

> <Gold.Rescore>
     Score         DG    S(hbond)    S(metal)    S(lipo)     H(rot)  DE(clash)    DE(int)     intcor
     12.57     -16.51       1.70        0.00     104.25       2.67       0.16       3.78       ----

> <Gold.Chemscore.Fitness>
12.5726

> <Gold.Chemscore.DG>
-16.5143

> <Gold.Chemscore.ZeroCoef>
-5.4800

> <Gold.Chemscore.Hbond>
1.6985

> <Gold.Chemscore.Metal>
0.0000

> <Gold.Chemscore.Lipo>
104.2476

> <Gold.Chemscore.Internal_Hbond>
0.0000

> <Gold.Chemscore.DEClash>
0.1642

> <Gold.Chemscore.DEInternal>
3.7775

> <Gold.Chemscore.Rot>
2.6702

> <Gold.Chemscore.Internal.Correction>
   9.000000E+99

> <Gold.Chemscore.Hbonds>
donor molecule, donor type, donor heavy atom, donor atom, acceptor molecule, acceptor atom, score
      L1  H    33    63       P1  7948  0.98
      P1  H  7989  7998       L1    15  0.21

> <Gold.Chemscore.Hbond.Weighted>
-5.6731

> <Gold.Chemscore.Metal.Weighted>
-0.0000

> <Gold.Chemscore.Lipo.Weighted>
-12.1970

> <Gold.Chemscore.Internal_Hbond.Weighted>
0.0000

> <Gold.Chemscore.DEClash.Weighted>
0.1642

> <Gold.Chemscore.DEInternal.Weighted>
3.7775

> <Gold.Chemscore.Rot.Weighted>
6.8358

> <Gold.Chemscore.Internal.Correction.Weighted>
   9.000000E+99

> <Gold.Protein.RotatedTorsions>
[ 6907 6896 6895 6894 ] final  -48.94 input  -60.11 | X-H torsion
[ 7974 7965 7964 7962 ] final   76.65 input  175.53 | X-H torsion
[ 8008 7997 7996 7995 ] final   79.04 input   59.86 | X-H torsion
[ 10167 10162 10161 10158 ] final  -58.50 input  -65.29 | X-H torsion
[ 10718 10713 10712 10709 ] final   16.50 input   66.30 | X-H torsion
[ 10763 10752 10751 10750 ] final  155.51 input  -60.55 | X-H torsion
[ 11005 11000 10999 10996 ] final  -78.94 input  -57.11 | X-H torsion

> <Gold.Protein.ActiveResidues>
 VAL166  LYS551  ARG553  GLY616  TRP617  ASP618  TYR619  PRO620  LYS621  CYS622 
 ASP623  PHE694  ASN695  SER759  ASP760  ASP761  ALA762  ILE779  LEU786  VAL792 
 PHE793  MET794  SER795  GLU796  ALA797  LYS798  CYS799  TRP800  GLU811  SER814 

> <Gold.Protein.RotatedAtoms>
  150.8855  134.8252  159.7255 H   0  0  0  0  0  0  0  0  0  0  0  0  # atno 6907 bound_to 6896
  152.4805  134.4729  159.9651 H   0  0  0  0  0  0  0  0  0  0  0  0  # atno 6908 bound_to 6896
  151.4798  133.3510  159.2872 H   0  0  0  0  0  0  0  0  0  0  0  0  # atno 6909 bound_to 6896
  145.7001  139.2580  143.1710 H   0  0  0  0  0  0  0  0  0  0  0  0  # atno 7974 bound_to 7965
  155.8641  140.3452  155.5776 H   0  0  0  0  0  0  0  0  0  0  0  0  # atno 8008 bound_to 7997
  155.7901  140.0870  157.2033 H   0  0  0  0  0  0  0  0  0  0  0  0  # atno 8009 bound_to 7997
  154.4013  140.1485  156.3140 H   0  0  0  0  0  0  0  0  0  0  0  0  # atno 8010 bound_to 7997
  140.6193  143.2414  151.5520 H   0  0  0  0  0  0  0  0  0  0  0  0  # atno 10167 bound_to 10162
  157.0688  130.6339  149.5801 H   0  0  0  0  0  0  0  0  0  0  0  0  # atno 10718 bound_to 10713
  154.1695  135.2805  155.3085 H   0  0  0  0  0  0  0  0  0  0  0  0  # atno 10763 bound_to 10752
  154.6086  135.5506  153.7452 H   0  0  0  0  0  0  0  0  0  0  0  0  # atno 10764 bound_to 10752
  153.0169  135.6409  154.1836 H   0  0  0  0  0  0  0  0  0  0  0  0  # atno 10765 bound_to 10752
  141.1666  133.7084  156.8048 H   0  0  0  0  0  0  0  0  0  0  0  0  # atno 11005 bound_to 11000
  146.0805  140.7769  142.9644 LP  0  0  0  0  0  0  0  0  0  0  0  0  # atno 17320 bound_to 7965
  144.6971  140.3481  143.7187 LP  0  0  0  0  0  0  0  0  0  0  0  0  # atno 17321 bound_to 7965
  139.5425  144.2609  152.1379 LP  0  0  0  0  0  0  0  0  0  0  0  0  # atno 17342 bound_to 10162
  140.1825  144.4830  150.6520 LP  0  0  0  0  0  0  0  0  0  0  0  0  # atno 17343 bound_to 10162
  155.9956  130.5024  150.7467 LP  0  0  0  0  0  0  0  0  0  0  0  0  # atno 17370 bound_to 10713
  157.4895  131.0909  151.0443 LP  0  0  0  0  0  0  0  0  0  0  0  0  # atno 17371 bound_to 10713
  140.2230  134.8742  157.3397 LP  0  0  0  0  0  0  0  0  0  0  0  0  # atno 17394 bound_to 11000
  140.1968  134.4304  155.7685 LP  0  0  0  0  0  0  0  0  0  0  0  0  # atno 17395 bound_to 11000

$$$$
