AV-unprocessed.smi:3279|AV-procd|sdf|12548|dock1
  -GOLD-   2272018463D 1   1.00000     0.00000
 Structure written by MMmdl.
 35 35  0  0  0  0  0  0  0  0  2 V2000
  148.6726  138.5980  153.8180 C   0  0  0  0  0  0  0  0  0  0  0  0
  149.3833  139.2986  154.9860 C   0  0  2  0  0  0  0  0  0  0  0  0
  149.0440  140.8039  155.0717 C   0  0  0  0  0  0  0  0  0  0  0  0
  149.7068  141.4594  156.1946 N   0  0  0  0  0  0  0  0  0  0  0  0
  149.0885  141.9367  157.2853 C   0  0  0  0  0  0  0  0  0  0  0  0
  147.8666  141.9263  157.4334 O   0  0  0  0  0  0  0  0  0  0  0  0
  149.9893  142.4818  158.3907 C   0  0  0  0  0  0  0  0  0  0  0  0
  150.9678  143.3361  157.8041 O   0  0  0  0  0  0  0  0  0  0  0  0
  151.8094  144.0936  158.6773 C   0  0  0  0  0  0  0  0  0  0  0  0
  152.9856  144.7355  157.9143 C   0  0  0  0  0  0  0  0  0  0  0  0
  152.3507  143.0612  159.6789 C   0  0  0  0  0  0  0  0  0  0  0  0
  150.9855  145.1574  159.4294 C   0  0  0  0  0  0  0  0  0  0  0  0
  150.8655  139.0429  154.9682 C   0  0  0  0  0  0  0  0  0  0  0  0
  151.7766  140.0259  155.0342 N   0  0  0  0  0  0  0  0  0  0  0  0
  152.9458  139.3751  154.9658 N   0  0  0  0  0  0  0  0  0  0  0  0
  152.7258  138.0589  154.8643 N   0  0  0  0  0  0  0  0  0  0  0  0
  151.4080  137.8190  154.8631 N   0  5  0  0  0  0  0  0  0  0  0  0
  148.8588  137.5237  153.8358 H   0  0  0  0  0  0  0  0  0  0  0  0
  149.0152  138.9806  152.8561 H   0  0  0  0  0  0  0  0  0  0  0  0
  147.5940  138.7470  153.8695 H   0  0  0  0  0  0  0  0  0  0  0  0
  148.9577  138.8498  155.8853 H   0  0  0  0  0  0  0  0  0  0  0  0
  149.3715  141.3069  154.1612 H   0  0  0  0  0  0  0  0  0  0  0  0
  147.9646  140.9521  155.1309 H   0  0  0  0  0  0  0  0  0  0  0  0
  150.7156  141.5025  156.1662 H   0  0  0  0  0  0  0  0  0  0  0  0
  149.3786  143.0247  159.1125 H   0  0  0  0  0  0  0  0  0  0  0  0
  150.4433  141.6341  158.9027 H   0  0  0  0  0  0  0  0  0  0  0  0
  153.6951  145.1937  158.6041 H   0  0  0  0  0  0  0  0  0  0  0  0
  152.6522  145.5197  157.2345 H   0  0  0  0  0  0  0  0  0  0  0  0
  153.5278  143.9927  157.3284 H   0  0  0  0  0  0  0  0  0  0  0  0
  152.9195  142.2807  159.1722 H   0  0  0  0  0  0  0  0  0  0  0  0
  151.5400  142.5760  160.2236 H   0  0  0  0  0  0  0  0  0  0  0  0
  153.0098  143.5263  160.4130 H   0  0  0  0  0  0  0  0  0  0  0  0
  151.5819  145.6362  160.2067 H   0  0  0  0  0  0  0  0  0  0  0  0
  150.1133  144.7128  159.9102 H   0  0  0  0  0  0  0  0  0  0  0  0
  150.6331  145.9491  158.7688 H   0  0  0  0  0  0  0  0  0  0  0  0
  1  2  1  0  0  0  0
  1 18  1  0  0  0  0
  1 19  1  0  0  0  0
  1 20  1  0  0  0  0
  2  3  1  0  0  0  0
  2 13  1  0  0  0  0
  2 21  1  0  0  0  0
  3  4  1  0  0  0  0
  3 22  1  0  0  0  0
  3 23  1  0  0  0  0
  4  5  1  0  0  0  0
  4 24  1  0  0  0  0
  5  6  2  0  0  0  0
  5  7  1  0  0  0  0
  7  8  1  0  0  0  0
  7 25  1  0  0  0  0
  7 26  1  0  0  0  0
  8  9  1  0  0  0  0
  9 10  1  0  0  0  0
  9 11  1  0  0  0  0
  9 12  1  0  0  0  0
 10 27  1  0  0  0  0
 10 28  1  0  0  0  0
 10 29  1  0  0  0  0
 11 30  1  0  0  0  0
 11 31  1  0  0  0  0
 11 32  1  0  0  0  0
 12 33  1  0  0  0  0
 12 34  1  0  0  0  0
 12 35  1  0  0  0  0
 13 17  1  0  0  0  0
 13 14  2  0  0  0  0
 14 15  1  0  0  0  0
 15 16  2  0  0  0  0
 16 17  1  0  0  0  0
M  CHG  1  17  -1
M  END
> <s_m_source_file>
AV-unprocessed.smi

> <i_m_source_file_index>
3279

> <i_lp_mmshare_version>
43012

> <i_f3d_flags>
0

> <s_epik_input>
W25IXTFubm5jMVtDQEhdKFtDSDNdKVtDSDJdW05IXUMoPU8pW0NIMl1PQyhbQ0gzXSkoW0NIM10pW0NIM10=

> <s_epik_cmdline>
J2VwaWtfcHl0aG9uJywgJy1waCcsICc3LjAnLCAnLXRuJywgJzgnLCAnLW1hJywgJzIwMCcsICctbWV0YWxfYmluZGluZycsICctaW1hZScsICc8aW5maWxlLm1hZT4nLCAnLW9tYWUnLCAnPG91dGZpbGUubWFlPic=

> <r_epik_Ionization_Penalty>
0.054353

> <r_epik_Ionization_Penalty_Charging>
0.054353

> <r_epik_Ionization_Penalty_Neutral>
3.0997e-08

> <r_epik_State_Penalty>
0.0139445

> <r_epik_Charging_Adjusted_Penalty>
0.0682975

> <i_epik_Tot_Q>
-1

> <i_epik_Tot_abs_Q>
1

> <r_epik_Metal_State_Penalty>
0.0109703

> <b_epik_Metal_Only>
0

> <s_lp_Force_Field>
OPLS_2005

> <r_lp_Energy>
-0.4509

> <b_lp_Chiralities_Consistent>
1

> <s_lp_Variant>
AV-unprocessed.smi:3279-1

> <Gold.Version>
5.8.1

> <Gold.Id.Protein>
6NUR|6NUR_protein|mol2

> <Gold.PLP.Fitness>
36.4837

> <Gold.PLP.PLP>
-31.2343

> <Gold.PLP.part.hbond>
-3.6064

> <Gold.PLP.part.metal>
0.0000

> <Gold.PLP.part.buried>
-5.4591

> <Gold.PLP.part.nonpolar>
-23.3442

> <Gold.PLP.part.repulsive>
0.5747

> <Gold.PLP.ligand.clash>
0.0000

> <Gold.PLP.ligand.torsion>
0.3805

> <Gold.PLP.Chemscore.Hbond>
1.9600

> <Gold.PLP.Chemscore.CHOScore>
0.0000

> <Gold.PLP.Chemscore.Metal>
0.0000

> <Gold.Chemscore.Hbonds>
donor molecule, donor type, donor heavy atom, donor atom, acceptor molecule, acceptor atom, score
      P1  H  7989  7998       L1    14  0.96
      P1  H  7997  8010       L1    15  1.00

> <Gold.PLP.Chemscore.Internal.Correction>
0.1304

> <Gold.Rescore>
     Score         DG    S(hbond)    S(metal)    S(lipo)     H(rot)  DE(clash)    DE(int)     intcor
     10.74     -13.03       1.63        0.00      75.73       2.64       0.31       1.98       ----

> <Gold.Chemscore.Fitness>
10.7415

> <Gold.Chemscore.DG>
-13.0277

> <Gold.Chemscore.ZeroCoef>
-5.4800

> <Gold.Chemscore.Hbond>
1.6313

> <Gold.Chemscore.Metal>
0.0000

> <Gold.Chemscore.Lipo>
75.7255

> <Gold.Chemscore.Internal_Hbond>
0.0000

> <Gold.Chemscore.DEClash>
0.3054

> <Gold.Chemscore.DEInternal>
1.9808

> <Gold.Chemscore.Rot>
2.6409

> <Gold.Chemscore.Internal.Correction>
   9.000000E+99

> <Gold.Chemscore.Hbonds>
donor molecule, donor type, donor heavy atom, donor atom, acceptor molecule, acceptor atom, score
      P1  H  7989  7998       L1    14  0.23
      P1  H  7997  8010       L1    15  0.92

> <Gold.Chemscore.Hbond.Weighted>
-5.4485

> <Gold.Chemscore.Metal.Weighted>
-0.0000

> <Gold.Chemscore.Lipo.Weighted>
-8.8599

> <Gold.Chemscore.Internal_Hbond.Weighted>
0.0000

> <Gold.Chemscore.DEClash.Weighted>
0.3054

> <Gold.Chemscore.DEInternal.Weighted>
1.9808

> <Gold.Chemscore.Rot.Weighted>
6.7607

> <Gold.Chemscore.Internal.Correction.Weighted>
   9.000000E+99

> <Gold.Protein.RotatedTorsions>
[ 6907 6896 6895 6894 ] final -146.88 input  -60.11 | X-H torsion
[ 7974 7965 7964 7962 ] final  163.95 input  175.53 | X-H torsion
[ 8008 7997 7996 7995 ] final  102.07 input   59.86 | X-H torsion
[ 10167 10162 10161 10158 ] final   96.39 input  -65.29 | X-H torsion
[ 10718 10713 10712 10709 ] final   71.42 input   66.30 | X-H torsion
[ 10763 10752 10751 10750 ] final   70.56 input  -60.55 | X-H torsion
[ 11005 11000 10999 10996 ] final -121.03 input  -57.11 | X-H torsion

> <Gold.Protein.ActiveResidues>
 VAL166  LYS551  ARG553  GLY616  TRP617  ASP618  TYR619  PRO620  LYS621  CYS622 
 ASP623  PHE694  ASN695  SER759  ASP760  ASP761  ALA762  ILE779  LEU786  VAL792 
 PHE793  MET794  SER795  GLU796  ALA797  LYS798  CYS799  TRP800  GLU811  SER814 

> <Gold.Protein.RotatedAtoms>
  151.1478  133.4928  159.2595 H   0  0  0  0  0  0  0  0  0  0  0  0  # atno 6907 bound_to 6896
  151.1586  135.0262  159.8710 H   0  0  0  0  0  0  0  0  0  0  0  0  # atno 6908 bound_to 6896
  152.5463  134.1354  159.8510 H   0  0  0  0  0  0  0  0  0  0  0  0  # atno 6909 bound_to 6896
  144.7566  139.8256  143.6347 H   0  0  0  0  0  0  0  0  0  0  0  0  # atno 7974 bound_to 7965
  156.1359  140.3187  155.8419 H   0  0  0  0  0  0  0  0  0  0  0  0  # atno 8008 bound_to 7997
  155.4246  140.0514  157.3040 H   0  0  0  0  0  0  0  0  0  0  0  0  # atno 8009 bound_to 7997
  154.4936  140.2102  155.9507 H   0  0  0  0  0  0  0  0  0  0  0  0  # atno 8010 bound_to 7997
  139.7898  144.6856  150.9907 H   0  0  0  0  0  0  0  0  0  0  0  0  # atno 10167 bound_to 10162
  157.6450  130.9527  150.0787 H   0  0  0  0  0  0  0  0  0  0  0  0  # atno 10718 bound_to 10713
  153.0349  135.5169  154.7460 H   0  0  0  0  0  0  0  0  0  0  0  0  # atno 10763 bound_to 10752
  154.6445  135.2917  155.0065 H   0  0  0  0  0  0  0  0  0  0  0  0  # atno 10764 bound_to 10752
  154.0971  135.6642  153.4914 H   0  0  0  0  0  0  0  0  0  0  0  0  # atno 10765 bound_to 10752
  141.0100  134.0278  157.3426 H   0  0  0  0  0  0  0  0  0  0  0  0  # atno 11005 bound_to 11000
  146.1584  139.4689  143.0004 LP  0  0  0  0  0  0  0  0  0  0  0  0  # atno 17320 bound_to 7965
  145.6757  141.0204  143.1633 LP  0  0  0  0  0  0  0  0  0  0  0  0  # atno 17321 bound_to 7965
  140.7820  143.4393  151.0576 LP  0  0  0  0  0  0  0  0  0  0  0  0  # atno 17342 bound_to 10162
  139.8070  143.8004  152.3168 LP  0  0  0  0  0  0  0  0  0  0  0  0  # atno 17343 bound_to 10162
  156.1769  130.3648  149.9088 LP  0  0  0  0  0  0  0  0  0  0  0  0  # atno 17370 bound_to 10713
  156.7049  130.8947  151.3603 LP  0  0  0  0  0  0  0  0  0  0  0  0  # atno 17371 bound_to 10713
  139.9084  135.0185  156.7588 LP  0  0  0  0  0  0  0  0  0  0  0  0  # atno 17394 bound_to 11000
  140.6749  133.9526  155.7877 LP  0  0  0  0  0  0  0  0  0  0  0  0  # atno 17395 bound_to 11000

$$$$
