AV-unprocessed.smi:3148|AV-procd|sdf|11997|dock7
  -GOLD-   2272017403D 1   1.00000     0.00000
 Structure written by MMmdl.
 35 37  0  0  0  0  0  0  0  0  2 V2000
  152.9458  138.4331  154.7837 C   0  0  0  0  0  0  0  0  0  0  0  0
  152.6794  139.2656  155.9076 O   0  0  0  0  0  0  0  0  0  0  0  0
  151.6603  140.1903  155.8097 C   0  0  0  0  0  0  0  0  0  0  0  0
  150.5605  139.9253  154.9772 C   0  0  0  0  0  0  0  0  0  0  0  0
  149.5508  140.9050  154.9189 C   0  0  0  0  0  0  0  0  0  0  0  0
  148.3181  140.7396  154.0561 C   0  0  0  0  0  0  0  0  0  0  0  0
  149.6655  142.0442  155.6462 N   0  3  0  0  0  0  0  0  0  0  0  0
  150.7434  142.2386  156.4202 C   0  0  0  0  0  0  0  0  0  0  0  0
  150.8136  143.4216  157.1335 N   0  0  0  0  0  0  0  0  0  0  0  0
  151.9179  143.7795  158.0163 C   0  0  2  0  0  0  0  0  0  0  0  0
  152.0710  142.8294  159.2064 C   0  0  0  0  0  0  0  0  0  0  0  0
  152.0529  143.8052  160.3915 C   0  0  2  0  0  0  0  0  0  0  0  0
  150.6383  144.3319  160.6657 C   0  0  0  0  0  0  0  0  0  0  0  0
  150.4293  145.2860  159.4914 C   0  0  0  0  0  0  0  0  0  0  0  0
  151.7538  145.1400  158.7226 C   0  0  1  0  0  0  0  0  0  0  0  0
  152.6474  144.9520  159.8065 O   0  0  0  0  0  0  0  0  0  0  0  0
  151.7344  141.3417  156.5170 N   0  0  0  0  0  0  0  0  0  0  0  0
  153.7813  137.7723  155.0145 H   0  0  0  0  0  0  0  0  0  0  0  0
  153.2230  139.0211  153.9075 H   0  0  0  0  0  0  0  0  0  0  0  0
  152.0866  137.8075  154.5377 H   0  0  0  0  0  0  0  0  0  0  0  0
  150.4970  139.0087  154.4088 H   0  0  0  0  0  0  0  0  0  0  0  0
  148.2594  139.7321  153.6432 H   0  0  0  0  0  0  0  0  0  0  0  0
  148.3393  141.4479  153.2275 H   0  0  0  0  0  0  0  0  0  0  0  0
  147.4154  140.9199  154.6406 H   0  0  0  0  0  0  0  0  0  0  0  0
  150.1368  144.1373  156.9123 H   0  0  0  0  0  0  0  0  0  0  0  0
  152.8465  143.7776  157.4434 H   0  0  0  0  0  0  0  0  0  0  0  0
  151.2788  142.0828  159.2809 H   0  0  0  0  0  0  0  0  0  0  0  0
  153.0253  142.3046  159.1499 H   0  0  0  0  0  0  0  0  0  0  0  0
  152.5657  143.4341  161.2791 H   0  0  0  0  0  0  0  0  0  0  0  0
  149.8966  143.5332  160.7009 H   0  0  0  0  0  0  0  0  0  0  0  0
  150.6009  144.8747  161.6110 H   0  0  0  0  0  0  0  0  0  0  0  0
  149.5535  145.0385  158.8911 H   0  0  0  0  0  0  0  0  0  0  0  0
  150.3088  146.3080  159.8527 H   0  0  0  0  0  0  0  0  0  0  0  0
  151.9948  145.9978  158.0942 H   0  0  0  0  0  0  0  0  0  0  0  0
  148.9272  142.7463  155.5939 H   0  0  0  0  0  0  0  0  0  0  0  0
  1  2  1  0  0  0  0
  1 18  1  0  0  0  0
  1 19  1  0  0  0  0
  1 20  1  0  0  0  0
  2  3  1  0  0  0  0
  3 17  1  0  0  0  0
  3  4  2  0  0  0  0
  4  5  1  0  0  0  0
  4 21  1  0  0  0  0
  5  6  1  0  0  0  0
  5  7  2  0  0  0  0
  6 22  1  0  0  0  0
  6 23  1  0  0  0  0
  6 24  1  0  0  0  0
  7  8  1  0  0  0  0
  7 35  1  0  0  0  0
  8  9  1  0  0  0  0
  8 17  2  0  0  0  0
  9 10  1  0  0  0  0
  9 25  1  0  0  0  0
 10 15  1  0  0  0  0
 10 11  1  0  0  0  0
 10 26  1  0  0  0  0
 11 12  1  0  0  0  0
 11 27  1  0  0  0  0
 11 28  1  0  0  0  0
 12 16  1  0  0  0  0
 12 13  1  0  0  0  0
 12 29  1  0  0  0  0
 13 14  1  0  0  0  0
 13 30  1  0  0  0  0
 13 31  1  0  0  0  0
 14 15  1  0  0  0  0
 14 32  1  0  0  0  0
 14 33  1  0  0  0  0
 15 16  1  0  0  0  0
 15 34  1  0  0  0  0
M  CHG  1   7   1
M  END
> <s_m_source_file>
AV-unprocessed.smi

> <i_m_source_file_index>
3148

> <i_lp_mmshare_version>
43012

> <i_f3d_flags>
0

> <s_epik_input>
W0NIM11PYzFbY0hdYyhbQ0gzXSluYyhuMSlbTkhdW0NASF0oW0NIMl1bQ0BASF0yMylbQ0BASF0oTzMpW0NIMl1bQ0gyXTI=

> <s_epik_cmdline>
J2VwaWtfcHl0aG9uJywgJy1waCcsICc3LjAnLCAnLXRuJywgJzgnLCAnLW1hJywgJzIwMCcsICctbWV0YWxfYmluZGluZycsICctaW1hZScsICc8aW5maWxlLm1hZT4nLCAnLW9tYWUnLCAnPG91dGZpbGUubWFlPic=

> <r_lp_tautomer_probability>
0.999985

> <r_epik_Ionization_Penalty>
1.09461

> <r_epik_Ionization_Penalty_Charging>
1.0946

> <r_epik_Ionization_Penalty_Neutral>
6.69406e-06

> <r_epik_State_Penalty>
1.15119

> <r_epik_Charging_Adjusted_Penalty>
2.24579

> <i_epik_Tot_Q>
1

> <i_epik_Tot_abs_Q>
1

> <r_epik_Metal_State_Penalty>
1.2392

> <b_epik_Metal_Only>
0

> <s_lp_Force_Field>
OPLS_2005

> <r_lp_Energy>
36.3956

> <b_lp_Chiralities_Consistent>
1

> <s_lp_Variant>
AV-unprocessed.smi:3148-7

> <Gold.Version>
5.8.1

> <Gold.Id.Protein>
6NUR|6NUR_protein|mol2

> <Gold.PLP.Fitness>
47.0824

> <Gold.PLP.PLP>
-34.8500

> <Gold.PLP.part.hbond>
-3.0000

> <Gold.PLP.part.metal>
0.0000

> <Gold.PLP.part.buried>
3.0460

> <Gold.PLP.part.nonpolar>
-35.0458

> <Gold.PLP.part.repulsive>
0.2425

> <Gold.PLP.ligand.clash>
0.0000

> <Gold.PLP.ligand.torsion>
0.3802

> <Gold.PLP.Chemscore.Hbond>
4.3280

> <Gold.PLP.Chemscore.CHOScore>
0.0000

> <Gold.PLP.Chemscore.Metal>
0.0000

> <Gold.Chemscore.Hbonds>
donor molecule, donor type, donor heavy atom, donor atom, acceptor molecule, acceptor atom, score
      L1  H     7    35       P1  8028  1.41
      L1  H     9    25       P1  8028  1.86
      P1  H  7997  8010       L1     2  1.00

> <Gold.PLP.Chemscore.Internal.Correction>
0.0089

> <Gold.Rescore>
     Score         DG    S(hbond)    S(metal)    S(lipo)     H(rot)  DE(clash)    DE(int)     intcor
     18.73     -19.37       1.85        0.00      92.87       1.24       0.33       0.31       ----

> <Gold.Chemscore.Fitness>
18.7321

> <Gold.Chemscore.DG>
-19.3713

> <Gold.Chemscore.ZeroCoef>
-5.4800

> <Gold.Chemscore.Hbond>
1.8542

> <Gold.Chemscore.Metal>
0.0000

> <Gold.Chemscore.Lipo>
92.8740

> <Gold.Chemscore.Internal_Hbond>
0.0000

> <Gold.Chemscore.DEClash>
0.3311

> <Gold.Chemscore.DEInternal>
0.3081

> <Gold.Chemscore.Rot>
1.2376

> <Gold.Chemscore.Internal.Correction>
   9.000000E+99

> <Gold.Chemscore.Hbonds>
donor molecule, donor type, donor heavy atom, donor atom, acceptor molecule, acceptor atom, score
      L1  H     7    35       P1  8028  0.69
      L1  H     9    25       P1  8028  0.85
      P1  H  7997  8010       L1     2  0.43

> <Gold.Chemscore.Hbond.Weighted>
-6.1932

> <Gold.Chemscore.Metal.Weighted>
-0.0000

> <Gold.Chemscore.Lipo.Weighted>
-10.8663

> <Gold.Chemscore.Internal_Hbond.Weighted>
0.0000

> <Gold.Chemscore.DEClash.Weighted>
0.3311

> <Gold.Chemscore.DEInternal.Weighted>
0.3081

> <Gold.Chemscore.Rot.Weighted>
3.1681

> <Gold.Chemscore.Internal.Correction.Weighted>
   9.000000E+99

> <Gold.Protein.RotatedTorsions>
[ 6907 6896 6895 6894 ] final  -27.49 input  -60.11 | X-H torsion
[ 7974 7965 7964 7962 ] final  166.02 input  175.53 | X-H torsion
[ 8008 7997 7996 7995 ] final   77.55 input   59.86 | X-H torsion
[ 10167 10162 10161 10158 ] final  -69.09 input  -65.29 | X-H torsion
[ 10718 10713 10712 10709 ] final -125.18 input   66.30 | X-H torsion
[ 10763 10752 10751 10750 ] final   94.49 input  -60.55 | X-H torsion
[ 11005 11000 10999 10996 ] final  124.38 input  -57.11 | X-H torsion

> <Gold.Protein.ActiveResidues>
 VAL166  LYS551  ARG553  GLY616  TRP617  ASP618  TYR619  PRO620  LYS621  CYS622 
 ASP623  PHE694  ASN695  SER759  ASP760  ASP761  ALA762  ILE779  LEU786  VAL792 
 PHE793  MET794  SER795  GLU796  ALA797  LYS798  CYS799  TRP800  GLU811  SER814 

> <Gold.Protein.RotatedAtoms>
  151.1461  135.0204  159.8647 H   0  0  0  0  0  0  0  0  0  0  0  0  # atno 6907 bound_to 6896
  152.5453  134.1442  159.8502 H   0  0  0  0  0  0  0  0  0  0  0  0  # atno 6908 bound_to 6896
  151.1523  133.4854  159.2628 H   0  0  0  0  0  0  0  0  0  0  0  0  # atno 6909 bound_to 6896
  144.7479  139.8554  143.6376 H   0  0  0  0  0  0  0  0  0  0  0  0  # atno 7974 bound_to 7965
  155.8431  140.3461  155.5645 H   0  0  0  0  0  0  0  0  0  0  0  0  # atno 8008 bound_to 7997
  155.8119  140.0900  157.1919 H   0  0  0  0  0  0  0  0  0  0  0  0  # atno 8009 bound_to 7997
  154.4005  140.1446  156.3384 H   0  0  0  0  0  0  0  0  0  0  0  0  # atno 8010 bound_to 7997
  140.5457  143.2313  151.7005 H   0  0  0  0  0  0  0  0  0  0  0  0  # atno 10167 bound_to 10162
  156.1653  130.6630  151.0106 H   0  0  0  0  0  0  0  0  0  0  0  0  # atno 10718 bound_to 10713
  153.2423  135.4287  155.0711 H   0  0  0  0  0  0  0  0  0  0  0  0  # atno 10763 bound_to 10752
  154.8346  135.3405  154.6632 H   0  0  0  0  0  0  0  0  0  0  0  0  # atno 10764 bound_to 10752
  153.7055  135.7026  153.5108 H   0  0  0  0  0  0  0  0  0  0  0  0  # atno 10765 bound_to 10752
  139.9356  134.9639  156.8400 H   0  0  0  0  0  0  0  0  0  0  0  0  # atno 11005 bound_to 11000
  146.1386  139.4437  143.0123 LP  0  0  0  0  0  0  0  0  0  0  0  0  # atno 17320 bound_to 7965
  145.7053  141.0123  143.1482 LP  0  0  0  0  0  0  0  0  0  0  0  0  # atno 17321 bound_to 7965
  139.5006  144.3898  152.0292 LP  0  0  0  0  0  0  0  0  0  0  0  0  # atno 17342 bound_to 10162
  140.3010  144.3646  150.6060 LP  0  0  0  0  0  0  0  0  0  0  0  0  # atno 17343 bound_to 10162
  157.6763  131.0849  150.7486 LP  0  0  0  0  0  0  0  0  0  0  0  0  # atno 17370 bound_to 10713
  156.7547  130.4780  149.5449 LP  0  0  0  0  0  0  0  0  0  0  0  0  # atno 17371 bound_to 10713
  140.6085  134.0104  155.7567 LP  0  0  0  0  0  0  0  0  0  0  0  0  # atno 17394 bound_to 11000
  141.0967  133.9832  157.3147 LP  0  0  0  0  0  0  0  0  0  0  0  0  # atno 17395 bound_to 11000

$$$$
