AV-unprocessed.smi:1198|AV-procd|sdf|5012|dock3
  -GOLD-   22720 4 23D 1   1.00000     0.00000
 Structure written by MMmdl.
 40 41  0  0  0  0  0  0  0  0  2 V2000
  151.3322  141.2414  158.4971 C   0  0  0  0  0  0  0  0  0  0  0  0
  151.4851  141.2508  157.0820 O   0  0  0  0  0  0  0  0  0  0  0  0
  150.7295  140.3706  156.3352 C   0  0  0  0  0  0  0  0  0  0  0  0
  149.6259  139.7435  156.9463 C   0  0  0  0  0  0  0  0  0  0  0  0
  148.8509  138.8463  156.1881 C   0  0  0  0  0  0  0  0  0  0  0  0
  149.2023  138.5947  154.8467 C   0  0  0  0  0  0  0  0  0  0  0  0
  148.3864  137.6954  154.1076 N   0  0  0  0  0  0  0  0  0  0  0  0
  147.0974  137.3689  154.3035 C   0  0  0  0  0  0  0  0  0  0  0  0
  146.3688  137.8244  155.1843 O   0  0  0  0  0  0  0  0  0  0  0  0
  146.6834  136.4741  153.3954 N   0  0  0  0  0  0  0  0  0  0  0  0
  145.3380  135.9141  153.3239 C   0  0  0  0  0  0  0  0  0  0  0  0
  145.1911  134.9009  152.1721 C   0  0  2  0  0  0  0  0  0  0  0  0
  145.0309  135.5206  150.7849 C   0  0  0  0  0  0  0  0  0  0  0  0
  144.4323  134.3719  149.9775 C   0  0  0  0  0  0  0  0  0  0  0  0
  143.5412  133.6536  150.9143 N   0  3  1  0  0  0  0  0  0  0  0  0
  143.4305  132.2035  150.6511 C   0  0  0  0  0  0  0  0  0  0  0  0
  143.9585  133.9946  152.2952 C   0  0  0  0  0  0  0  0  0  0  0  0
  150.3241  139.2817  154.3209 C   0  0  0  0  0  0  0  0  0  0  0  0
  151.0708  140.1446  155.0426 N   0  0  0  0  0  0  0  0  0  0  0  0
  152.0002  141.9817  158.9369 H   0  0  0  0  0  0  0  0  0  0  0  0
  151.5918  140.2700  158.9204 H   0  0  0  0  0  0  0  0  0  0  0  0
  150.3134  141.4997  158.7896 H   0  0  0  0  0  0  0  0  0  0  0  0
  149.3774  139.9485  157.9771 H   0  0  0  0  0  0  0  0  0  0  0  0
  147.9983  138.3564  156.6355 H   0  0  0  0  0  0  0  0  0  0  0  0
  148.8281  137.2822  153.2996 H   0  0  0  0  0  0  0  0  0  0  0  0
  147.3459  136.1593  152.7014 H   0  0  0  0  0  0  0  0  0  0  0  0
  145.0810  135.4451  154.2752 H   0  0  0  0  0  0  0  0  0  0  0  0
  144.6382  136.7391  153.1888 H   0  0  0  0  0  0  0  0  0  0  0  0
  146.0725  134.2573  152.1489 H   0  0  0  0  0  0  0  0  0  0  0  0
  144.3319  136.3575  150.8199 H   0  0  0  0  0  0  0  0  0  0  0  0
  145.9721  135.8815  150.3684 H   0  0  0  0  0  0  0  0  0  0  0  0
  143.8921  134.7152  149.0947 H   0  0  0  0  0  0  0  0  0  0  0  0
  145.2335  133.7100  149.6436 H   0  0  0  0  0  0  0  0  0  0  0  0
  144.3904  131.7045  150.7917 H   0  0  0  0  0  0  0  0  0  0  0  0
  143.0963  132.0252  149.6283 H   0  0  0  0  0  0  0  0  0  0  0  0
  142.7053  131.7486  151.3265 H   0  0  0  0  0  0  0  0  0  0  0  0
  144.1727  133.1133  152.9020 H   0  0  0  0  0  0  0  0  0  0  0  0
  143.1322  134.5246  152.7704 H   0  0  0  0  0  0  0  0  0  0  0  0
  150.6388  139.1692  153.2955 H   0  0  0  0  0  0  0  0  0  0  0  0
  142.6191  134.0489  150.7953 H   0  0  0  0  0  0  0  0  0  0  0  0
  1  2  1  0  0  0  0
  1 20  1  0  0  0  0
  1 21  1  0  0  0  0
  1 22  1  0  0  0  0
  2  3  1  0  0  0  0
  3 19  1  0  0  0  0
  3  4  2  0  0  0  0
  4  5  1  0  0  0  0
  4 23  1  0  0  0  0
  5  6  2  0  0  0  0
  5 24  1  0  0  0  0
  6  7  1  0  0  0  0
  6 18  1  0  0  0  0
  7  8  1  0  0  0  0
  7 25  1  0  0  0  0
  8  9  2  0  0  0  0
  8 10  1  0  0  0  0
 10 11  1  0  0  0  0
 10 26  1  0  0  0  0
 11 12  1  0  0  0  0
 11 27  1  0  0  0  0
 11 28  1  0  0  0  0
 12 17  1  0  0  0  0
 12 13  1  0  0  0  0
 12 29  1  0  0  0  0
 13 14  1  0  0  0  0
 13 30  1  0  0  0  0
 13 31  1  0  0  0  0
 14 15  1  0  0  0  0
 14 32  1  0  0  0  0
 14 33  1  0  0  0  0
 15 16  1  0  0  0  0
 15 17  1  0  0  0  0
 15 40  1  0  0  0  0
 16 34  1  0  0  0  0
 16 35  1  0  0  0  0
 16 36  1  0  0  0  0
 17 37  1  0  0  0  0
 17 38  1  0  0  0  0
 18 19  2  0  0  0  0
 18 39  1  0  0  0  0
M  CHG  1  15   1
M  END
> <s_m_source_file>
AV-unprocessed.smi

> <i_m_source_file_index>
1198

> <i_lp_mmshare_version>
43012

> <i_f3d_flags>
0

> <s_epik_input>
W0NIM11PYzFbY0hdW2NIXWMoW2NIXW4xKVtOSF1DKD1PKVtOSF1bQ0gyXVtDQEBIXTJbQ0gyXVtDSDJdTihbQ0gzXSlbQ0gyXTI=

> <s_epik_cmdline>
J2VwaWtfcHl0aG9uJywgJy1waCcsICc3LjAnLCAnLXRuJywgJzgnLCAnLW1hJywgJzIwMCcsICctbWV0YWxfYmluZGluZycsICctaW1hZScsICc8aW5maWxlLm1hZT4nLCAnLW9tYWUnLCAnPG91dGZpbGUubWFlPic=

> <r_lp_tautomer_probability>
1

> <r_epik_Ionization_Penalty>
0.00131396

> <r_epik_Ionization_Penalty_Charging>
0.0012301

> <r_epik_Ionization_Penalty_Neutral>
8.38549e-05

> <r_epik_State_Penalty>
0.00081314

> <r_epik_Charging_Adjusted_Penalty>
0.00204324

> <i_epik_Tot_Q>
1

> <i_epik_Tot_abs_Q>
1

> <r_epik_Metal_State_Penalty>
-0

> <b_epik_Metal_Only>
0

> <s_lp_Force_Field>
OPLS_2005

> <r_lp_Energy>
29.8617

> <b_lp_Chiralities_Consistent>
1

> <s_lp_Variant>
AV-unprocessed.smi:1198-3

> <Gold.Version>
5.8.1

> <Gold.Id.Protein>
6NUR|6NUR_protein|mol2

> <Gold.PLP.Fitness>
40.8166

> <Gold.PLP.PLP>
-25.4658

> <Gold.PLP.part.hbond>
-4.0000

> <Gold.PLP.part.metal>
0.0000

> <Gold.PLP.part.buried>
-2.5293

> <Gold.PLP.part.nonpolar>
-19.7066

> <Gold.PLP.part.repulsive>
0.1023

> <Gold.PLP.ligand.clash>
0.0180

> <Gold.PLP.ligand.torsion>
0.4767

> <Gold.PLP.Chemscore.Hbond>
4.4340

> <Gold.PLP.Chemscore.CHOScore>
1.0000

> <Gold.PLP.Chemscore.Metal>
0.0000

> <Gold.Chemscore.Hbonds>
donor molecule, donor type, donor heavy atom, donor atom, acceptor molecule, acceptor atom, score
      L1  H     7    25       P1  7948  1.00
      L1  H    10    26       P1  7948  1.00
      L1  H    15    40       P1 10186  1.84
      P1  H  7989  7998       L1    19  0.45
      L1  C    18    39       P1  7957  1.00

> <Gold.PLP.Chemscore.Internal.Correction>
0.0201

> <Gold.Rescore>
     Score         DG    S(hbond)    S(metal)    S(lipo)     H(rot)  DE(clash)    DE(int)     intcor
     15.77     -17.99       2.87        0.00      58.26       1.51       0.44       1.79       ----

> <Gold.Chemscore.Fitness>
15.7657

> <Gold.Chemscore.DG>
-17.9909

> <Gold.Chemscore.ZeroCoef>
-5.4800

> <Gold.Chemscore.Hbond>
2.8659

> <Gold.Chemscore.Metal>
0.0000

> <Gold.Chemscore.Lipo>
58.2636

> <Gold.Chemscore.Internal_Hbond>
0.0000

> <Gold.Chemscore.DEClash>
0.4393

> <Gold.Chemscore.DEInternal>
1.7858

> <Gold.Chemscore.Rot>
1.5149

> <Gold.Chemscore.Internal.Correction>
   9.000000E+99

> <Gold.Chemscore.Hbonds>
donor molecule, donor type, donor heavy atom, donor atom, acceptor molecule, acceptor atom, score
      L1  H     7    25       P1  7948  0.99
      L1  H    10    26       P1  7948  0.97
      L1  H    15    40       P1 10186  0.50
      P1  H  7989  7998       L1    19  0.02

> <Gold.Chemscore.Hbond.Weighted>
-9.5721

> <Gold.Chemscore.Metal.Weighted>
-0.0000

> <Gold.Chemscore.Lipo.Weighted>
-6.8168

> <Gold.Chemscore.Internal_Hbond.Weighted>
0.0000

> <Gold.Chemscore.DEClash.Weighted>
0.4393

> <Gold.Chemscore.DEInternal.Weighted>
1.7858

> <Gold.Chemscore.Rot.Weighted>
3.8781

> <Gold.Chemscore.Internal.Correction.Weighted>
   9.000000E+99

> <Gold.Protein.RotatedTorsions>
[ 6907 6896 6895 6894 ] final -106.88 input  -60.11 | X-H torsion
[ 7974 7965 7964 7962 ] final  -97.05 input  175.53 | X-H torsion
[ 8008 7997 7996 7995 ] final  -32.34 input   59.86 | X-H torsion
[ 10167 10162 10161 10158 ] final  170.64 input  -65.29 | X-H torsion
[ 10718 10713 10712 10709 ] final   65.71 input   66.30 | X-H torsion
[ 10763 10752 10751 10750 ] final   18.54 input  -60.55 | X-H torsion
[ 11005 11000 10999 10996 ] final  142.33 input  -57.11 | X-H torsion

> <Gold.Protein.ActiveResidues>
 VAL166  LYS551  ARG553  GLY616  TRP617  ASP618  TYR619  PRO620  LYS621  CYS622 
 ASP623  PHE694  ASN695  SER759  ASP760  ASP761  ALA762  ILE779  LEU786  VAL792 
 PHE793  MET794  SER795  GLU796  ALA797  LYS798  CYS799  TRP800  GLU811  SER814 

> <Gold.Protein.RotatedAtoms>
  150.7413  133.9910  159.3606 H   0  0  0  0  0  0  0  0  0  0  0  0  # atno 6907 bound_to 6896
  151.7857  135.0747  160.0389 H   0  0  0  0  0  0  0  0  0  0  0  0  # atno 6908 bound_to 6896
  152.3243  133.5851  159.5802 H   0  0  0  0  0  0  0  0  0  0  0  0  # atno 6909 bound_to 6896
  145.3388  140.9456  143.2619 H   0  0  0  0  0  0  0  0  0  0  0  0  # atno 7974 bound_to 7965
  154.4183  140.1740  156.1711 H   0  0  0  0  0  0  0  0  0  0  0  0  # atno 8008 bound_to 7997
  155.9759  140.3381  155.6594 H   0  0  0  0  0  0  0  0  0  0  0  0  # atno 8009 bound_to 7997
  155.6564  140.0696  157.2560 H   0  0  0  0  0  0  0  0  0  0  0  0  # atno 8010 bound_to 7997
  139.5024  144.3574  151.9860 H   0  0  0  0  0  0  0  0  0  0  0  0  # atno 10167 bound_to 10162
  157.6123  130.9228  150.0012 H   0  0  0  0  0  0  0  0  0  0  0  0  # atno 10718 bound_to 10713
  153.1240  135.6725  153.9288 H   0  0  0  0  0  0  0  0  0  0  0  0  # atno 10763 bound_to 10752
  153.8795  135.3060  155.3446 H   0  0  0  0  0  0  0  0  0  0  0  0  # atno 10764 bound_to 10752
  154.7648  135.4970  153.9613 H   0  0  0  0  0  0  0  0  0  0  0  0  # atno 10765 bound_to 10752
  140.0469  134.9276  157.0946 H   0  0  0  0  0  0  0  0  0  0  0  0  # atno 11005 bound_to 11000
  144.8806  139.4909  143.6725 LP  0  0  0  0  0  0  0  0  0  0  0  0  # atno 17320 bound_to 7965
  146.3016  139.7444  142.9087 LP  0  0  0  0  0  0  0  0  0  0  0  0  # atno 17321 bound_to 7965
  140.3011  144.3646  150.6060 LP  0  0  0  0  0  0  0  0  0  0  0  0  # atno 17342 bound_to 10162
  140.5873  143.2169  151.7319 LP  0  0  0  0  0  0  0  0  0  0  0  0  # atno 17343 bound_to 10162
  156.1230  130.3645  149.9855 LP  0  0  0  0  0  0  0  0  0  0  0  0  # atno 17370 bound_to 10713
  156.7932  130.9263  151.3646 LP  0  0  0  0  0  0  0  0  0  0  0  0  # atno 17371 bound_to 10713
  140.3980  134.2113  155.7164 LP  0  0  0  0  0  0  0  0  0  0  0  0  # atno 17394 bound_to 11000
  141.1911  133.8202  157.0892 LP  0  0  0  0  0  0  0  0  0  0  0  0  # atno 17395 bound_to 11000

$$$$
