AV-unprocessed.smi:157|AV-procd|sdf|1313|dock9
  -GOLD-   2262019 03D 1   1.00000     0.00000
 Structure written by MMmdl.
 36 38  0  0  0  0  0  0  0  0  2 V2000
  146.6296  139.8234  152.3094 O   0  0  0  0  0  0  0  0  0  0  0  0
  146.7112  139.0201  153.4672 C   0  0  0  0  0  0  0  0  0  0  0  0
  145.5750  137.9868  153.4631 C   0  0  1  0  0  0  0  0  0  0  0  0
  146.1174  136.6708  153.5070 O   0  0  0  0  0  0  0  0  0  0  0  0
  145.1738  135.7848  154.0327 C   0  0  2  0  0  0  0  0  0  0  0  0
  144.5940  134.9749  152.9139 N   0  0  0  0  0  0  0  0  0  0  0  0
  143.3513  135.0753  152.3937 C   0  0  0  0  0  0  0  0  0  0  0  0
  143.1050  134.2343  151.4036 N   0  3  0  0  0  0  0  0  0  0  0  0
  144.2557  133.4973  151.2208 C   0  0  0  0  0  0  0  0  0  0  0  0
  145.1702  133.9773  152.1618 C   0  0  0  0  0  0  0  0  0  0  0  0
  146.4941  133.5843  152.4107 N   0  0  0  0  0  0  0  0  0  0  0  0
  147.1892  132.8913  151.5685 C   0  0  0  0  0  0  0  0  0  0  0  0
  146.7957  132.3345  150.3631 N   0  0  0  0  0  0  0  0  0  0  0  0
  145.5724  131.5668  150.2104 C   0  0  0  0  0  0  0  0  0  0  0  0
  144.3027  132.4282  150.1737 C   0  0  2  0  0  0  0  0  0  0  0  0
  144.1454  132.9421  148.8671 O   0  0  0  0  0  0  0  0  0  0  0  0
  144.0763  136.6306  154.6910 C   0  0  0  0  0  0  0  0  0  0  0  0
  144.7121  138.0079  154.7253 C   0  0  2  0  0  0  0  0  0  0  0  0
  143.7276  139.0204  154.6868 O   0  0  0  0  0  0  0  0  0  0  0  0
  144.9411  138.0982  152.5808 H   0  0  0  0  0  0  0  0  0  0  0  0
  145.6459  135.0604  154.6973 H   0  0  0  0  0  0  0  0  0  0  0  0
  143.4512  131.7672  150.3393 H   0  0  0  0  0  0  0  0  0  0  0  0
  145.3336  138.1158  155.6157 H   0  0  0  0  0  0  0  0  0  0  0  0
  145.7396  140.1285  152.2176 H   0  0  0  0  0  0  0  0  0  0  0  0
  147.6880  138.5393  153.5297 H   0  0  0  0  0  0  0  0  0  0  0  0
  146.6173  139.6787  154.3310 H   0  0  0  0  0  0  0  0  0  0  0  0
  142.6233  135.7804  152.7535 H   0  0  0  0  0  0  0  0  0  0  0  0
  148.2358  132.6811  151.7939 H   0  0  0  0  0  0  0  0  0  0  0  0
  147.5091  132.0230  149.7193 H   0  0  0  0  0  0  0  0  0  0  0  0
  145.6412  130.9390  149.3212 H   0  0  0  0  0  0  0  0  0  0  0  0
  145.5104  130.8830  151.0584 H   0  0  0  0  0  0  0  0  0  0  0  0
  144.9216  133.4288  148.6368 H   0  0  0  0  0  0  0  0  0  0  0  0
  143.1789  136.6263  154.0687 H   0  0  0  0  0  0  0  0  0  0  0  0
  143.8225  136.2455  155.6790 H   0  0  0  0  0  0  0  0  0  0  0  0
  143.9173  139.5987  153.9636 H   0  0  0  0  0  0  0  0  0  0  0  0
  142.2376  134.1504  150.8886 H   0  0  0  0  0  0  0  0  0  0  0  0
  1  2  1  0  0  0  0
  1 24  1  0  0  0  0
  2  3  1  0  0  0  0
  2 25  1  0  0  0  0
  2 26  1  0  0  0  0
  3 20  1  0  0  0  0
  3 18  1  0  0  0  0
  3  4  1  0  0  0  0
  4  5  1  0  0  0  0
  5 21  1  0  0  0  0
  5  6  1  0  0  0  0
  5 17  1  0  0  0  0
  6 10  1  0  0  0  0
  6  7  1  0  0  0  0
  7  8  2  0  0  0  0
  7 27  1  0  0  0  0
  8  9  1  0  0  0  0
  8 36  1  0  0  0  0
  9 15  1  0  0  0  0
  9 10  2  0  0  0  0
 10 11  1  0  0  0  0
 11 12  2  0  0  0  0
 12 13  1  0  0  0  0
 12 28  1  0  0  0  0
 13 14  1  0  0  0  0
 13 29  1  0  0  0  0
 14 15  1  0  0  0  0
 14 30  1  0  0  0  0
 14 31  1  0  0  0  0
 15 22  1  0  0  0  0
 15 16  1  0  0  0  0
 16 32  1  0  0  0  0
 17 18  1  0  0  0  0
 17 33  1  0  0  0  0
 17 34  1  0  0  0  0
 18 23  1  0  0  0  0
 18 19  1  0  0  0  0
 19 35  1  0  0  0  0
M  CHG  1   8   1
M  END
> <s_m_source_file>
AV-unprocessed.smi

> <i_m_source_file_index>
157

> <i_lp_mmshare_version>
43012

> <i_f3d_flags>
0

> <s_epik_input>
W09IXVtDSDJdW0NASF0xT1tDQEhdKFtDSDJdW0NAQEhdMVtPSF0pbihbY0hdbjIpYyhjMjMpTj1bQ0hdW05IXVtDSDJdW0NASF0zW09IXQ==

> <s_epik_cmdline>
J2VwaWtfcHl0aG9uJywgJy1waCcsICc3LjAnLCAnLXRuJywgJzgnLCAnLW1hJywgJzIwMCcsICctbWV0YWxfYmluZGluZycsICctaW1hZScsICc8aW5maWxlLm1hZT4nLCAnLW9tYWUnLCAnPG91dGZpbGUubWFlPic=

> <r_epik_Ionization_Penalty>
1.68594

> <r_epik_Ionization_Penalty_Charging>
0

> <r_epik_Ionization_Penalty_Neutral>
1.68594

> <r_epik_State_Penalty>
1.79006

> <r_epik_Charging_Adjusted_Penalty>
1.79006

> <i_epik_Tot_Q>
1

> <i_epik_Tot_abs_Q>
1

> <r_epik_Metal_State_Penalty>
5.85324

> <b_epik_Metal_Only>
0

> <s_epik_Chemistry_Notes>
This compound has an imine and may undergo hydrolysis. This compound contains an acetal/aminal-like group ( X-CH(R)-Y where X, Y are N, S, or O) that may be acid/base labile, releasing an aldehyde.

> <s_lp_Force_Field>
OPLS_2005

> <r_lp_Energy>
52.2724

> <b_lp_Chiralities_Consistent>
1

> <s_lp_Variant>
AV-unprocessed.smi:157-23

> <Gold.Version>
5.8.1

> <Gold.Id.Protein>
6NUR|6NUR_protein|mol2

> <Gold.PLP.Fitness>
40.1413

> <Gold.PLP.PLP>
-24.1520

> <Gold.PLP.part.hbond>
-5.4963

> <Gold.PLP.part.metal>
0.0000

> <Gold.PLP.part.buried>
-4.8897

> <Gold.PLP.part.nonpolar>
-15.5377

> <Gold.PLP.part.repulsive>
0.3812

> <Gold.PLP.ligand.clash>
0.0000

> <Gold.PLP.ligand.torsion>
0.9344

> <Gold.PLP.Chemscore.Hbond>
5.3680

> <Gold.PLP.Chemscore.CHOScore>
0.5778

> <Gold.PLP.Chemscore.Metal>
0.0000

> <Gold.Chemscore.Hbonds>
donor molecule, donor type, donor heavy atom, donor atom, acceptor molecule, acceptor atom, score
      L1  H     1    24       P1 10175  0.84
      L1  H     8    36       P1 10186  2.00
      L1  H    13    29       P1 10747  0.48
      L1  H    16    32       P1  7921  0.88
      L1  H    19    35       P1 10175  1.00
      L1  C    12    28       P1 10747  0.57

> <Gold.PLP.Chemscore.Internal.Correction>
0.0205

> <Gold.Rescore>
     Score         DG    S(hbond)    S(metal)    S(lipo)     H(rot)  DE(clash)    DE(int)     intcor
     12.95     -14.07       4.03        0.00      38.68       3.67       0.12       1.00       ----

> <Gold.Chemscore.Fitness>
12.9520

> <Gold.Chemscore.DG>
-14.0739

> <Gold.Chemscore.ZeroCoef>
-5.4800

> <Gold.Chemscore.Hbond>
4.0279

> <Gold.Chemscore.Metal>
0.0000

> <Gold.Chemscore.Lipo>
38.6790

> <Gold.Chemscore.Internal_Hbond>
0.0000

> <Gold.Chemscore.DEClash>
0.1186

> <Gold.Chemscore.DEInternal>
1.0033

> <Gold.Chemscore.Rot>
3.6659

> <Gold.Chemscore.Internal.Correction>
   9.000000E+99

> <Gold.Chemscore.Hbonds>
donor molecule, donor type, donor heavy atom, donor atom, acceptor molecule, acceptor atom, score
      L1  H     1    24       P1 10175  0.55
      L1  H     8    36       P1 10186  0.25
      L1  H    13    29       P1 10747  0.48
      L1  H    16    32       P1  7921  0.67
      L1  H    19    35       P1 10175  0.99

> <Gold.Chemscore.Hbond.Weighted>
-13.4533

> <Gold.Chemscore.Metal.Weighted>
-0.0000

> <Gold.Chemscore.Lipo.Weighted>
-4.5254

> <Gold.Chemscore.Internal_Hbond.Weighted>
0.0000

> <Gold.Chemscore.DEClash.Weighted>
0.1186

> <Gold.Chemscore.DEInternal.Weighted>
1.0033

> <Gold.Chemscore.Rot.Weighted>
9.3848

> <Gold.Chemscore.Internal.Correction.Weighted>
   9.000000E+99

> <Gold.Protein.RotatedTorsions>
[ 6907 6896 6895 6894 ] final  -53.43 input  -60.11 | X-H torsion
[ 7974 7965 7964 7962 ] final   77.32 input  175.53 | X-H torsion
[ 8008 7997 7996 7995 ] final  -81.01 input   59.86 | X-H torsion
[ 10167 10162 10161 10158 ] final   66.44 input  -65.29 | X-H torsion
[ 10718 10713 10712 10709 ] final -108.73 input   66.30 | X-H torsion
[ 10763 10752 10751 10750 ] final  173.65 input  -60.55 | X-H torsion
[ 11005 11000 10999 10996 ] final  126.60 input  -57.11 | X-H torsion

> <Gold.Protein.ActiveResidues>
 VAL166  LYS551  ARG553  GLY616  TRP617  ASP618  TYR619  PRO620  LYS621  CYS622 
 ASP623  PHE694  ASN695  SER759  ASP760  ASP761  ALA762  ILE779  LEU786  VAL792 
 PHE793  MET794  SER795  GLU796  ALA797  LYS798  CYS799  TRP800  GLU811  SER814 

> <Gold.Protein.RotatedAtoms>
  150.8427  134.7725  159.6945 H   0  0  0  0  0  0  0  0  0  0  0  0  # atno 6907 bound_to 6896
  152.4511  134.5388  159.9843 H   0  0  0  0  0  0  0  0  0  0  0  0  # atno 6908 bound_to 6896
  151.5525  133.3377  159.2991 H   0  0  0  0  0  0  0  0  0  0  0  0  # atno 6909 bound_to 6896
  145.6915  139.2554  143.1757 H   0  0  0  0  0  0  0  0  0  0  0  0  # atno 7974 bound_to 7965
  154.5941  140.0654  156.9279 H   0  0  0  0  0  0  0  0  0  0  0  0  # atno 8008 bound_to 7997
  155.2245  140.3332  155.4293 H   0  0  0  0  0  0  0  0  0  0  0  0  # atno 8009 bound_to 7997
  156.2275  140.1826  156.7310 H   0  0  0  0  0  0  0  0  0  0  0  0  # atno 8010 bound_to 7997
  140.1004  144.4909  150.7041 H   0  0  0  0  0  0  0  0  0  0  0  0  # atno 10167 bound_to 10162
  156.0500  130.5727  150.8001 H   0  0  0  0  0  0  0  0  0  0  0  0  # atno 10718 bound_to 10713
  154.4430  135.2762  155.1834 H   0  0  0  0  0  0  0  0  0  0  0  0  # atno 10763 bound_to 10752
  154.3693  135.6112  153.5735 H   0  0  0  0  0  0  0  0  0  0  0  0  # atno 10764 bound_to 10752
  152.9842  135.5853  154.4761 H   0  0  0  0  0  0  0  0  0  0  0  0  # atno 10765 bound_to 10752
  139.9464  134.9629  156.8731 H   0  0  0  0  0  0  0  0  0  0  0  0  # atno 11005 bound_to 11000
  146.0877  140.7691  142.9610 LP  0  0  0  0  0  0  0  0  0  0  0  0  # atno 17320 bound_to 7965
  144.6995  140.3589  143.7167 LP  0  0  0  0  0  0  0  0  0  0  0  0  # atno 17321 bound_to 7965
  140.6981  143.2416  151.4944 LP  0  0  0  0  0  0  0  0  0  0  0  0  # atno 17342 bound_to 10162
  139.5674  144.2009  152.1786 LP  0  0  0  0  0  0  0  0  0  0  0  0  # atno 17343 bound_to 10162
  157.5417  131.0941  150.9819 LP  0  0  0  0  0  0  0  0  0  0  0  0  # atno 17370 bound_to 10713
  157.0100  130.5633  149.5320 LP  0  0  0  0  0  0  0  0  0  0  0  0  # atno 17371 bound_to 10713
  140.5823  134.0340  155.7469 LP  0  0  0  0  0  0  0  0  0  0  0  0  # atno 17394 bound_to 11000
  141.1116  133.9607  157.2900 LP  0  0  0  0  0  0  0  0  0  0  0  0  # atno 17395 bound_to 11000

$$$$
