AV-unprocessed.smi:652|AV-procd|sdf|3202|dock1
  -GOLD-   22720 0133D 1   1.00000     0.00000
 Structure written by MMmdl.
 48 49  0  0  0  0  0  0  0  0  2 V2000
  143.8563  143.9359  161.8012 C   0  0  0  0  0  0  0  0  0  0  0  0
  145.1478  143.3826  161.1847 C   0  0  0  0  0  0  0  0  0  0  0  0
  146.3739  144.2099  161.6037 C   0  0  0  0  0  0  0  0  0  0  0  0
  145.0197  143.3577  159.7305 N   0  0  0  0  0  0  0  0  0  0  0  0
  145.9199  142.8408  158.8794 C   0  0  0  0  0  0  0  0  0  0  0  0
  146.9657  142.3030  159.2437 O   0  0  0  0  0  0  0  0  0  0  0  0
  145.5815  142.9356  157.3879 C   0  0  0  0  0  0  0  0  0  0  0  0
  145.5200  141.5605  156.6871 C   0  0  0  0  0  0  0  0  0  0  0  0
  146.6211  141.2466  155.7747 N   0  0  0  0  0  0  0  0  0  0  0  0
  146.5392  141.9892  154.5200 C   0  0  0  0  0  0  0  0  0  0  0  0
  147.7107  141.6538  153.5818 C   0  0  0  0  0  0  0  0  0  0  0  0
  148.9448  141.8927  154.2516 O   0  0  0  0  0  0  0  0  0  0  0  0
  149.0825  141.1395  155.4535 C   0  0  1  0  0  0  0  0  0  0  0  0
  150.4574  141.4634  156.0545 C   0  0  0  0  0  0  0  0  0  0  0  0
  150.5049  142.8090  156.6067 N   0  0  0  0  0  0  0  0  0  0  0  0
  151.1880  143.0660  157.8024 C   0  0  0  0  0  0  0  0  0  0  0  0
  151.2800  144.3429  158.4033 C   0  0  0  0  0  0  0  0  0  0  0  0
  151.9971  144.4627  159.6059 C   0  0  0  0  0  0  0  0  0  0  0  0
  152.5787  143.2979  160.1367 C   0  0  0  0  0  0  0  0  0  0  0  0
  152.4790  142.0856  159.5472 N   0  0  0  0  0  0  0  0  0  0  0  0
  151.7875  142.0037  158.3967 N   0  3  0  0  0  0  0  0  0  0  0  0
  147.9147  141.5017  156.3949 C   0  0  0  0  0  0  0  0  0  0  0  0
  143.9083  143.9279  162.8903 H   0  0  0  0  0  0  0  0  0  0  0  0
  142.9928  143.3374  161.5092 H   0  0  0  0  0  0  0  0  0  0  0  0
  143.6728  144.9634  161.4850 H   0  0  0  0  0  0  0  0  0  0  0  0
  145.2770  142.3608  161.5459 H   0  0  0  0  0  0  0  0  0  0  0  0
  146.4785  144.2320  162.6888 H   0  0  0  0  0  0  0  0  0  0  0  0
  146.2944  145.2407  161.2565 H   0  0  0  0  0  0  0  0  0  0  0  0
  147.2940  143.7912  161.1953 H   0  0  0  0  0  0  0  0  0  0  0  0
  144.1845  143.7710  159.3415 H   0  0  0  0  0  0  0  0  0  0  0  0
  144.6335  143.4629  157.2803 H   0  0  0  0  0  0  0  0  0  0  0  0
  146.3228  143.5600  156.8874 H   0  0  0  0  0  0  0  0  0  0  0  0
  145.4406  140.7787  157.4435 H   0  0  0  0  0  0  0  0  0  0  0  0
  144.5824  141.5232  156.1307 H   0  0  0  0  0  0  0  0  0  0  0  0
  145.6047  141.7638  154.0070 H   0  0  0  0  0  0  0  0  0  0  0  0
  146.5345  143.0611  154.7236 H   0  0  0  0  0  0  0  0  0  0  0  0
  147.6593  140.6130  153.2582 H   0  0  0  0  0  0  0  0  0  0  0  0
  147.6666  142.2703  152.6839 H   0  0  0  0  0  0  0  0  0  0  0  0
  149.0424  140.0773  155.2033 H   0  0  0  0  0  0  0  0  0  0  0  0
  150.6752  140.7536  156.8535 H   0  0  0  0  0  0  0  0  0  0  0  0
  151.2338  141.3465  155.2977 H   0  0  0  0  0  0  0  0  0  0  0  0
  150.1413  143.5746  156.0573 H   0  0  0  0  0  0  0  0  0  0  0  0
  150.8190  145.2158  157.9654 H   0  0  0  0  0  0  0  0  0  0  0  0
  152.0980  145.4151  160.1050 H   0  0  0  0  0  0  0  0  0  0  0  0
  153.1390  143.3373  161.0594 H   0  0  0  0  0  0  0  0  0  0  0  0
  147.9869  142.5526  156.6806 H   0  0  0  0  0  0  0  0  0  0  0  0
  147.9968  140.9224  157.3153 H   0  0  0  0  0  0  0  0  0  0  0  0
  151.7078  141.0921  157.9457 H   0  0  0  0  0  0  0  0  0  0  0  0
  1  2  1  0  0  0  0
  1 23  1  0  0  0  0
  1 24  1  0  0  0  0
  1 25  1  0  0  0  0
  2  3  1  0  0  0  0
  2  4  1  0  0  0  0
  2 26  1  0  0  0  0
  3 27  1  0  0  0  0
  3 28  1  0  0  0  0
  3 29  1  0  0  0  0
  4  5  1  0  0  0  0
  4 30  1  0  0  0  0
  5  6  2  0  0  0  0
  5  7  1  0  0  0  0
  7  8  1  0  0  0  0
  7 31  1  0  0  0  0
  7 32  1  0  0  0  0
  8  9  1  0  0  0  0
  8 33  1  0  0  0  0
  8 34  1  0  0  0  0
  9 22  1  0  0  0  0
  9 10  1  0  0  0  0
 10 11  1  0  0  0  0
 10 35  1  0  0  0  0
 10 36  1  0  0  0  0
 11 12  1  0  0  0  0
 11 37  1  0  0  0  0
 11 38  1  0  0  0  0
 12 13  1  0  0  0  0
 13 14  1  0  0  0  0
 13 22  1  0  0  0  0
 13 39  1  0  0  0  0
 14 15  1  0  0  0  0
 14 40  1  0  0  0  0
 14 41  1  0  0  0  0
 15 16  1  0  0  0  0
 15 42  1  0  0  0  0
 16 21  1  0  0  0  0
 16 17  2  0  0  0  0
 17 18  1  0  0  0  0
 17 43  1  0  0  0  0
 18 19  2  0  0  0  0
 18 44  1  0  0  0  0
 19 20  1  0  0  0  0
 19 45  1  0  0  0  0
 20 21  2  0  0  0  0
 21 48  1  0  0  0  0
 22 46  1  0  0  0  0
 22 47  1  0  0  0  0
M  CHG  1  21   1
M  END
> <s_m_source_file>
AV-unprocessed.smi

> <i_m_source_file_index>
652

> <i_lp_mmshare_version>
43012

> <i_f3d_flags>
0

> <s_epik_input>
W0NIM11bQ0hdKFtDSDNdKVtOSF1DKD1PKVtDSDJdW0NIMl1OMVtDSDJdW0NIMl1PW0NASF0oW0NIMl0xKVtDSDJdW05IXWMyW2NIXVtjSF1bY0hdbm4y

> <s_epik_cmdline>
J2VwaWtfcHl0aG9uJywgJy1waCcsICc3LjAnLCAnLXRuJywgJzgnLCAnLW1hJywgJzIwMCcsICctbWV0YWxfYmluZGluZycsICctaW1hZScsICc8aW5maWxlLm1hZT4nLCAnLW9tYWUnLCAnPG91dGZpbGUubWFlPic=

> <r_epik_Ionization_Penalty>
2.70989

> <r_epik_Ionization_Penalty_Charging>
2.3023

> <r_epik_Ionization_Penalty_Neutral>
0.407592

> <r_epik_State_Penalty>
2.65305

> <r_epik_Charging_Adjusted_Penalty>
4.95534

> <i_epik_Tot_Q>
1

> <i_epik_Tot_abs_Q>
1

> <r_epik_Metal_State_Penalty>
2.66064

> <b_epik_Metal_Only>
0

> <s_lp_Force_Field>
OPLS_2005

> <r_lp_Energy>
26.0263

> <b_lp_Chiralities_Consistent>
1

> <s_lp_Variant>
AV-unprocessed.smi:652-11

> <Gold.Version>
5.8.1

> <Gold.Id.Protein>
6NUR|6NUR_protein|mol2

> <Gold.PLP.Fitness>
52.0995

> <Gold.PLP.PLP>
-44.6093

> <Gold.PLP.part.hbond>
-3.4626

> <Gold.PLP.part.metal>
0.0000

> <Gold.PLP.part.buried>
-8.5300

> <Gold.PLP.part.nonpolar>
-33.5505

> <Gold.PLP.part.repulsive>
0.5371

> <Gold.PLP.ligand.clash>
0.1030

> <Gold.PLP.ligand.torsion>
0.6470

> <Gold.PLP.Chemscore.Hbond>
2.9040

> <Gold.PLP.Chemscore.CHOScore>
0.0000

> <Gold.PLP.Chemscore.Metal>
0.0000

> <Gold.Chemscore.Hbonds>
donor molecule, donor type, donor heavy atom, donor atom, acceptor molecule, acceptor atom, score
      L1  H    15    42       P1  8028  2.00
      P1  H  6934  6946       L1     6  0.74
      P1  H  8011  8017       L1    12  0.12

> <Gold.PLP.Chemscore.Internal.Correction>
0.1751

> <Gold.Rescore>
     Score         DG    S(hbond)    S(metal)    S(lipo)     H(rot)  DE(clash)    DE(int)     intcor
     16.04     -16.84       2.01        0.00      89.64       2.28       0.01       0.79       ----

> <Gold.Chemscore.Fitness>
16.0414

> <Gold.Chemscore.DG>
-16.8407

> <Gold.Chemscore.ZeroCoef>
-5.4800

> <Gold.Chemscore.Hbond>
2.0065

> <Gold.Chemscore.Metal>
0.0000

> <Gold.Chemscore.Lipo>
89.6393

> <Gold.Chemscore.Internal_Hbond>
0.0000

> <Gold.Chemscore.DEClash>
0.0106

> <Gold.Chemscore.DEInternal>
0.7887

> <Gold.Chemscore.Rot>
2.2768

> <Gold.Chemscore.Internal.Correction>
   9.000000E+99

> <Gold.Chemscore.Hbonds>
donor molecule, donor type, donor heavy atom, donor atom, acceptor molecule, acceptor atom, score
      L1  H    15    42       P1  8028  0.96
      P1  H  6934  6946       L1     6  0.68

> <Gold.Chemscore.Hbond.Weighted>
-6.7016

> <Gold.Chemscore.Metal.Weighted>
-0.0000

> <Gold.Chemscore.Lipo.Weighted>
-10.4878

> <Gold.Chemscore.Internal_Hbond.Weighted>
0.0000

> <Gold.Chemscore.DEClash.Weighted>
0.0106

> <Gold.Chemscore.DEInternal.Weighted>
0.7887

> <Gold.Chemscore.Rot.Weighted>
5.8286

> <Gold.Chemscore.Internal.Correction.Weighted>
   9.000000E+99

> <Gold.Protein.RotatedTorsions>
[ 6907 6896 6895 6894 ] final -154.55 input  -60.11 | X-H torsion
[ 7974 7965 7964 7962 ] final   12.40 input  175.53 | X-H torsion
[ 8008 7997 7996 7995 ] final -125.36 input   59.86 | X-H torsion
[ 10167 10162 10161 10158 ] final -111.12 input  -65.29 | X-H torsion
[ 10718 10713 10712 10709 ] final   95.74 input   66.30 | X-H torsion
[ 10763 10752 10751 10750 ] final -100.35 input  -60.55 | X-H torsion
[ 11005 11000 10999 10996 ] final   62.22 input  -57.11 | X-H torsion

> <Gold.Protein.ActiveResidues>
 VAL166  LYS551  ARG553  GLY616  TRP617  ASP618  TYR619  PRO620  LYS621  CYS622 
 ASP623  PHE694  ASN695  SER759  ASP760  ASP761  ALA762  ILE779  LEU786  VAL792 
 PHE793  MET794  SER795  GLU796  ALA797  LYS798  CYS799  TRP800  GLU811  SER814 

> <Gold.Protein.RotatedAtoms>
  151.2591  133.4311  159.2614 H   0  0  0  0  0  0  0  0  0  0  0  0  # atno 6907 bound_to 6896
  151.0547  134.9697  159.8240 H   0  0  0  0  0  0  0  0  0  0  0  0  # atno 6908 bound_to 6896
  152.5388  134.2544  159.8964 H   0  0  0  0  0  0  0  0  0  0  0  0  # atno 6909 bound_to 6896
  146.2352  139.9343  142.8492 H   0  0  0  0  0  0  0  0  0  0  0  0  # atno 7974 bound_to 7965
  155.2120  140.0419  157.2935 H   0  0  0  0  0  0  0  0  0  0  0  0  # atno 8008 bound_to 7997
  154.6005  140.2451  155.7770 H   0  0  0  0  0  0  0  0  0  0  0  0  # atno 8009 bound_to 7997
  156.2318  140.2935  156.0217 H   0  0  0  0  0  0  0  0  0  0  0  0  # atno 8010 bound_to 7997
  140.1370  143.4311  152.1588 H   0  0  0  0  0  0  0  0  0  0  0  0  # atno 10167 bound_to 10162
  157.6935  131.0555  150.4385 H   0  0  0  0  0  0  0  0  0  0  0  0  # atno 10718 bound_to 10713
  154.7572  135.4938  153.9397 H   0  0  0  0  0  0  0  0  0  0  0  0  # atno 10763 bound_to 10752
  153.1210  135.6731  153.9344 H   0  0  0  0  0  0  0  0  0  0  0  0  # atno 10764 bound_to 10752
  153.9076  135.3102  155.3427 H   0  0  0  0  0  0  0  0  0  0  0  0  # atno 10765 bound_to 10752
  140.0107  134.6301  155.9785 H   0  0  0  0  0  0  0  0  0  0  0  0  # atno 11005 bound_to 11000
  145.2014  140.9856  143.4153 LP  0  0  0  0  0  0  0  0  0  0  0  0  # atno 17320 bound_to 7965
  144.9770  139.3822  143.6281 LP  0  0  0  0  0  0  0  0  0  0  0  0  # atno 17321 bound_to 7965
  139.5491  144.7323  151.4491 LP  0  0  0  0  0  0  0  0  0  0  0  0  # atno 17342 bound_to 10162
  140.6783  143.8140  150.7087 LP  0  0  0  0  0  0  0  0  0  0  0  0  # atno 17343 bound_to 10162
  156.4746  130.4060  149.6498 LP  0  0  0  0  0  0  0  0  0  0  0  0  # atno 17370 bound_to 10713
  156.3566  130.7459  151.2426 LP  0  0  0  0  0  0  0  0  0  0  0  0  # atno 17371 bound_to 10713
  141.1709  133.6537  156.4647 LP  0  0  0  0  0  0  0  0  0  0  0  0  # atno 17394 bound_to 11000
  140.4560  134.6885  157.5063 LP  0  0  0  0  0  0  0  0  0  0  0  0  # atno 17395 bound_to 11000

$$$$
