AV-unprocessed.smi:2069|AV-procd|sdf|8431|dock6
  -GOLD-   2272011123D 1   1.00000     0.00000
 Structure written by MMmdl.
 38 39  0  0  0  0  0  0  0  0  1 V2000
  150.5933  142.1230  156.1194 C   0  0  0  0  0  0  0  0  0  0  0  0
  150.2540  140.8738  155.3808 C   0  0  0  0  0  0  0  0  0  0  0  0
  151.1592  140.1687  154.6913 N   0  0  0  0  0  0  0  0  0  0  0  0
  150.6048  139.0490  154.0873 N   0  0  0  0  0  0  0  0  0  0  0  0
  149.2932  138.9423  154.3405 C   0  0  0  0  0  0  0  0  0  0  0  0
  148.4756  137.8928  153.8445 N   0  0  0  0  0  0  0  0  0  0  0  0
  147.2481  137.5275  154.2540 C   0  0  0  0  0  0  0  0  0  0  0  0
  146.6108  138.0664  155.1590 O   0  0  0  0  0  0  0  0  0  0  0  0
  146.7908  136.4886  153.5396 N   0  0  0  0  0  0  0  0  0  0  0  0
  145.4956  135.8360  153.7199 C   0  0  0  0  0  0  0  0  0  0  0  0
  144.8256  135.4286  152.3768 C   0  0  2  0  0  0  0  0  0  0  0  0
  143.4055  136.0469  152.3087 C   0  0  0  0  0  0  0  0  0  0  0  0
  144.8242  133.9639  152.1503 N   0  0  0  0  0  0  0  0  0  0  0  0
  146.1770  133.4069  152.0313 C   0  0  0  0  0  0  0  0  0  0  0  0
  146.1800  131.8916  151.7656 C   0  0  0  0  0  0  0  0  0  0  0  0
  145.4307  131.6091  150.5923 O   0  0  0  0  0  0  0  0  0  0  0  0
  144.0875  132.0589  150.6987 C   0  0  0  0  0  0  0  0  0  0  0  0
  144.0679  133.5759  150.9535 C   0  0  0  0  0  0  0  0  0  0  0  0
  148.6236  140.2136  155.3487 S   0  0  0  0  0  0  0  0  0  0  0  0
  151.6377  142.3931  155.9604 H   0  0  0  0  0  0  0  0  0  0  0  0
  150.4279  141.9809  157.1874 H   0  0  0  0  0  0  0  0  0  0  0  0
  149.9644  142.9429  155.7720 H   0  0  0  0  0  0  0  0  0  0  0  0
  148.8721  137.3579  153.0860 H   0  0  0  0  0  0  0  0  0  0  0  0
  147.3851  136.1157  152.8140 H   0  0  0  0  0  0  0  0  0  0  0  0
  145.7157  134.9632  154.3310 H   0  0  0  0  0  0  0  0  0  0  0  0
  144.8125  136.4545  154.3050 H   0  0  0  0  0  0  0  0  0  0  0  0
  145.4092  135.8900  151.5783 H   0  0  0  0  0  0  0  0  0  0  0  0
  143.4094  137.1191  152.4998 H   0  0  0  0  0  0  0  0  0  0  0  0
  142.7401  135.5862  153.0395 H   0  0  0  0  0  0  0  0  0  0  0  0
  142.9523  135.9414  151.3243 H   0  0  0  0  0  0  0  0  0  0  0  0
  146.7175  133.9158  151.2318 H   0  0  0  0  0  0  0  0  0  0  0  0
  146.7418  133.5653  152.9477 H   0  0  0  0  0  0  0  0  0  0  0  0
  147.2009  131.5342  151.6305 H   0  0  0  0  0  0  0  0  0  0  0  0
  145.7610  131.3491  152.6145 H   0  0  0  0  0  0  0  0  0  0  0  0
  143.5594  131.8232  149.7746 H   0  0  0  0  0  0  0  0  0  0  0  0
  143.5786  131.5250  151.5029 H   0  0  0  0  0  0  0  0  0  0  0  0
  143.0233  133.8666  151.0482 H   0  0  0  0  0  0  0  0  0  0  0  0
  144.4649  134.0953  150.0800 H   0  0  0  0  0  0  0  0  0  0  0  0
  1  2  1  0  0  0  0
  1 20  1  0  0  0  0
  1 21  1  0  0  0  0
  1 22  1  0  0  0  0
  2 19  1  0  0  0  0
  2  3  2  0  0  0  0
  3  4  1  0  0  0  0
  4  5  2  0  0  0  0
  5  6  1  0  0  0  0
  5 19  1  0  0  0  0
  6  7  1  0  0  0  0
  6 23  1  0  0  0  0
  7  8  2  0  0  0  0
  7  9  1  0  0  0  0
  9 10  1  0  0  0  0
  9 24  1  0  0  0  0
 10 11  1  0  0  0  0
 10 25  1  0  0  0  0
 10 26  1  0  0  0  0
 11 12  1  0  0  0  0
 11 13  1  0  0  0  0
 11 27  1  0  0  0  0
 12 28  1  0  0  0  0
 12 29  1  0  0  0  0
 12 30  1  0  0  0  0
 13 18  1  0  0  0  0
 13 14  1  0  0  0  0
 14 15  1  0  0  0  0
 14 31  1  0  0  0  0
 14 32  1  0  0  0  0
 15 16  1  0  0  0  0
 15 33  1  0  0  0  0
 15 34  1  0  0  0  0
 16 17  1  0  0  0  0
 17 18  1  0  0  0  0
 17 35  1  0  0  0  0
 17 36  1  0  0  0  0
 18 37  1  0  0  0  0
 18 38  1  0  0  0  0
M  END
> <s_m_source_file>
AV-unprocessed.smi

> <i_m_source_file_index>
2069

> <i_lp_mmshare_version>
43012

> <i_f3d_flags>
0

> <s_epik_input>
W0NIM11jMW5uYyhzMSlbTkhdQyg9TylbTkhdW0NIMl1bQ0BIXShbQ0gzXSlOMltDSDJdW0NIMl1PW0NIMl1bQ0gyXTI=

> <s_epik_cmdline>
J2VwaWtfcHl0aG9uJywgJy1waCcsICc3LjAnLCAnLXRuJywgJzgnLCAnLW1hJywgJzIwMCcsICctbWV0YWxfYmluZGluZycsICctaW1hZScsICc8aW5maWxlLm1hZT4nLCAnLW9tYWUnLCAnPG91dGZpbGUubWFlPic=

> <r_lp_tautomer_probability>
1

> <r_epik_Ionization_Penalty>
0.221104

> <r_epik_Ionization_Penalty_Charging>
0

> <r_epik_Ionization_Penalty_Neutral>
0.221104

> <r_epik_State_Penalty>
0.209349

> <r_epik_Charging_Adjusted_Penalty>
0.209349

> <i_epik_Tot_Q>
0

> <i_epik_Tot_abs_Q>
0

> <r_epik_Metal_State_Penalty>
0.561068

> <b_epik_Metal_Only>
0

> <s_lp_Force_Field>
OPLS_2005

> <r_lp_Energy>
28.2762

> <b_lp_Chiralities_Consistent>
1

> <s_lp_Variant>
AV-unprocessed.smi:2069-1

> <Gold.Version>
5.8.1

> <Gold.Id.Protein>
6NUR|6NUR_protein|mol2

> <Gold.PLP.Fitness>
33.7989

> <Gold.PLP.PLP>
-26.8360

> <Gold.PLP.part.hbond>
-3.4158

> <Gold.PLP.part.metal>
0.0000

> <Gold.PLP.part.buried>
-5.0607

> <Gold.PLP.part.nonpolar>
-18.6251

> <Gold.PLP.part.repulsive>
0.5025

> <Gold.PLP.ligand.clash>
0.0000

> <Gold.PLP.ligand.torsion>
0.9712

> <Gold.PLP.Chemscore.Hbond>
2.9600

> <Gold.PLP.Chemscore.CHOScore>
0.0000

> <Gold.PLP.Chemscore.Metal>
0.0000

> <Gold.Chemscore.Hbonds>
donor molecule, donor type, donor heavy atom, donor atom, acceptor molecule, acceptor atom, score
      L1  H     6    23       P1  7948  1.00
      L1  H     9    24       P1  7948  0.99
      P1  H  7989  7998       L1     3  0.83

> <Gold.PLP.Chemscore.Internal.Correction>
0.0254

> <Gold.Rescore>
     Score         DG    S(hbond)    S(metal)    S(lipo)     H(rot)  DE(clash)    DE(int)     intcor
     13.60     -15.90       2.33        0.00      57.69       1.60       0.19       2.11       ----

> <Gold.Chemscore.Fitness>
13.6006

> <Gold.Chemscore.DG>
-15.9022

> <Gold.Chemscore.ZeroCoef>
-5.4800

> <Gold.Chemscore.Hbond>
2.3271

> <Gold.Chemscore.Metal>
0.0000

> <Gold.Chemscore.Lipo>
57.6907

> <Gold.Chemscore.Internal_Hbond>
0.0000

> <Gold.Chemscore.DEClash>
0.1936

> <Gold.Chemscore.DEInternal>
2.1080

> <Gold.Chemscore.Rot>
1.6016

> <Gold.Chemscore.Internal.Correction>
   9.000000E+99

> <Gold.Chemscore.Hbonds>
donor molecule, donor type, donor heavy atom, donor atom, acceptor molecule, acceptor atom, score
      L1  H     6    23       P1  7948  0.99
      L1  H     9    24       P1  7948  0.93
      P1  H  7989  7998       L1     3  0.18

> <Gold.Chemscore.Hbond.Weighted>
-7.7725

> <Gold.Chemscore.Metal.Weighted>
-0.0000

> <Gold.Chemscore.Lipo.Weighted>
-6.7498

> <Gold.Chemscore.Internal_Hbond.Weighted>
0.0000

> <Gold.Chemscore.DEClash.Weighted>
0.1936

> <Gold.Chemscore.DEInternal.Weighted>
2.1080

> <Gold.Chemscore.Rot.Weighted>
4.1001

> <Gold.Chemscore.Internal.Correction.Weighted>
   9.000000E+99

> <Gold.Protein.RotatedTorsions>
[ 6907 6896 6895 6894 ] final -170.52 input  -60.11 | X-H torsion
[ 7974 7965 7964 7962 ] final  161.16 input  175.53 | X-H torsion
[ 8008 7997 7996 7995 ] final  -93.47 input   59.86 | X-H torsion
[ 10167 10162 10161 10158 ] final  -93.66 input  -65.29 | X-H torsion
[ 10718 10713 10712 10709 ] final  -81.33 input   66.30 | X-H torsion
[ 10763 10752 10751 10750 ] final  138.72 input  -60.55 | X-H torsion
[ 11005 11000 10999 10996 ] final -156.79 input  -57.11 | X-H torsion

> <Gold.Protein.ActiveResidues>
 VAL166  LYS551  ARG553  GLY616  TRP617  ASP618  TYR619  PRO620  LYS621  CYS622 
 ASP623  PHE694  ASN695  SER759  ASP760  ASP761  ALA762  ILE779  LEU786  VAL792 
 PHE793  MET794  SER795  GLU796  ALA797  LYS798  CYS799  TRP800  GLU811  SER814 

> <Gold.Protein.RotatedAtoms>
  151.5091  133.3488  159.2881 H   0  0  0  0  0  0  0  0  0  0  0  0  # atno 6907 bound_to 6896
  150.8724  134.8102  159.7175 H   0  0  0  0  0  0  0  0  0  0  0  0  # atno 6908 bound_to 6896
  152.4707  134.4977  159.9766 H   0  0  0  0  0  0  0  0  0  0  0  0  # atno 6909 bound_to 6896
  144.7700  139.7858  143.6300 H   0  0  0  0  0  0  0  0  0  0  0  0  # atno 7974 bound_to 7965
  154.7361  140.0498  157.0770 H   0  0  0  0  0  0  0  0  0  0  0  0  # atno 8008 bound_to 7997
  155.0239  140.3150  155.4764 H   0  0  0  0  0  0  0  0  0  0  0  0  # atno 8009 bound_to 7997
  156.2853  140.2162  156.5358 H   0  0  0  0  0  0  0  0  0  0  0  0  # atno 8010 bound_to 7997
  140.3223  143.3042  152.0032 H   0  0  0  0  0  0  0  0  0  0  0  0  # atno 10167 bound_to 10162
  156.0052  130.4600  150.3936 H   0  0  0  0  0  0  0  0  0  0  0  0  # atno 10718 bound_to 10713
  153.8943  135.3029  155.3448 H   0  0  0  0  0  0  0  0  0  0  0  0  # atno 10763 bound_to 10752
  154.7701  135.4890  153.9635 H   0  0  0  0  0  0  0  0  0  0  0  0  # atno 10764 bound_to 10752
  153.1280  135.6797  153.9324 H   0  0  0  0  0  0  0  0  0  0  0  0  # atno 10765 bound_to 10752
  140.6717  134.4240  157.5231 H   0  0  0  0  0  0  0  0  0  0  0  0  # atno 11005 bound_to 11000
  146.1839  139.5044  142.9849 LP  0  0  0  0  0  0  0  0  0  0  0  0  # atno 17320 bound_to 7965
  145.6353  141.0295  143.1841 LP  0  0  0  0  0  0  0  0  0  0  0  0  # atno 17321 bound_to 7965
  139.4872  144.6301  151.7087 LP  0  0  0  0  0  0  0  0  0  0  0  0  # atno 17342 bound_to 10162
  140.5472  144.0484  150.6112 LP  0  0  0  0  0  0  0  0  0  0  0  0  # atno 17343 bound_to 10162
  157.2009  131.0438  151.2651 LP  0  0  0  0  0  0  0  0  0  0  0  0  # atno 17370 bound_to 10713
  157.3976  130.7316  149.6743 LP  0  0  0  0  0  0  0  0  0  0  0  0  # atno 17371 bound_to 10713
  139.8979  134.8625  156.2022 LP  0  0  0  0  0  0  0  0  0  0  0  0  # atno 17394 bound_to 11000
  141.0387  133.6949  156.1559 LP  0  0  0  0  0  0  0  0  0  0  0  0  # atno 17395 bound_to 11000

$$$$
