AV-unprocessed.smi:1406|AV-procd|sdf|5724|dock2
  -GOLD-   22720 5353D 1   1.00000     0.00000
 Structure written by MMmdl.
 41 43  0  0  0  0  0  0  0  0  2 V2000
  147.3958  128.0298  150.9598 C   0  0  0  0  0  0  0  0  0  0  0  0
  148.3541  128.1935  152.1569 C   0  0  1  0  0  0  0  0  0  0  0  0
  147.9577  129.3625  153.0713 C   0  0  0  0  0  0  0  0  0  0  0  0
  147.7589  129.1805  154.2729 O   0  0  0  0  0  0  0  0  0  0  0  0
  147.8437  130.5642  152.4838 N   0  0  0  0  0  0  0  0  0  0  0  0
  147.4759  131.8032  153.1623 C   0  0  1  0  0  0  0  0  0  0  0  0
  148.6397  132.4426  153.9099 C   0  0  0  0  0  0  0  0  0  0  0  0
  148.1594  133.8845  154.0810 C   0  0  0  0  0  0  0  0  0  0  0  0
  147.3629  134.1936  152.8715 N   0  3  2  0  0  0  0  0  0  0  0  0
  146.2107  135.0983  153.1054 C   0  0  0  0  0  0  0  0  0  0  0  0
  145.4584  135.3710  151.7900 C   0  0  0  0  0  0  0  0  0  0  0  0
  145.1043  134.0826  151.0179 C   0  0  0  0  0  0  0  0  0  0  0  0
  145.5608  132.8128  151.7531 C   0  0  0  0  0  0  0  0  0  0  0  0
  147.0420  132.9097  152.1849 C   0  0  2  0  0  0  0  0  0  0  0  0
  148.4845  126.9677  152.9351 N   0  0  0  0  0  0  0  0  0  0  0  0
  149.5717  126.2516  153.2300 C   0  0  0  0  0  0  0  0  0  0  0  0
  149.3342  125.2070  154.0104 N   0  0  0  0  0  0  0  0  0  0  0  0
  147.9865  125.3512  154.1802 C   0  0  0  0  0  0  0  0  0  0  0  0
  147.4296  126.3960  153.5679 N   0  0  0  0  0  0  0  0  0  0  0  0
  147.3482  128.9445  150.3679 H   0  0  0  0  0  0  0  0  0  0  0  0
  146.3798  127.7888  151.2753 H   0  0  0  0  0  0  0  0  0  0  0  0
  147.7340  127.2314  150.2989 H   0  0  0  0  0  0  0  0  0  0  0  0
  149.3408  128.4168  151.7474 H   0  0  0  0  0  0  0  0  0  0  0  0
  148.0282  130.6238  151.4928 H   0  0  0  0  0  0  0  0  0  0  0  0
  146.6798  131.6163  153.8865 H   0  0  0  0  0  0  0  0  0  0  0  0
  148.8560  131.9532  154.8602 H   0  0  0  0  0  0  0  0  0  0  0  0
  149.5454  132.4202  153.3013 H   0  0  0  0  0  0  0  0  0  0  0  0
  147.5282  133.9497  154.9689 H   0  0  0  0  0  0  0  0  0  0  0  0
  148.9829  134.5877  154.2065 H   0  0  0  0  0  0  0  0  0  0  0  0
  145.5359  134.6538  153.8389 H   0  0  0  0  0  0  0  0  0  0  0  0
  146.5655  136.0361  153.5340 H   0  0  0  0  0  0  0  0  0  0  0  0
  144.5516  135.9387  152.0010 H   0  0  0  0  0  0  0  0  0  0  0  0
  146.0699  136.0109  151.1523 H   0  0  0  0  0  0  0  0  0  0  0  0
  144.0300  134.0371  150.8360 H   0  0  0  0  0  0  0  0  0  0  0  0
  145.5751  134.1145  150.0345 H   0  0  0  0  0  0  0  0  0  0  0  0
  144.9260  132.6558  152.6264 H   0  0  0  0  0  0  0  0  0  0  0  0
  145.4106  131.9430  151.1134 H   0  0  0  0  0  0  0  0  0  0  0  0
  147.6746  132.8779  151.2962 H   0  0  0  0  0  0  0  0  0  0  0  0
  150.5587  126.5021  152.8700 H   0  0  0  0  0  0  0  0  0  0  0  0
  147.3994  124.6710  154.7793 H   0  0  0  0  0  0  0  0  0  0  0  0
  147.9809  134.6848  152.2414 H   0  0  0  0  0  0  0  0  0  0  0  0
  1  2  1  0  0  0  0
  1 20  1  0  0  0  0
  1 21  1  0  0  0  0
  1 22  1  0  0  0  0
  2  3  1  0  0  0  0
  2 15  1  0  0  0  0
  2 23  1  0  0  0  0
  3  4  2  0  0  0  0
  3  5  1  0  0  0  0
  5  6  1  0  0  0  0
  5 24  1  0  0  0  0
  6 14  1  0  0  0  0
  6  7  1  0  0  0  0
  6 25  1  0  0  0  0
  7  8  1  0  0  0  0
  7 26  1  0  0  0  0
  7 27  1  0  0  0  0
  8  9  1  0  0  0  0
  8 28  1  0  0  0  0
  8 29  1  0  0  0  0
  9 14  1  0  0  0  0
  9 10  1  0  0  0  0
  9 41  1  0  0  0  0
 10 11  1  0  0  0  0
 10 30  1  0  0  0  0
 10 31  1  0  0  0  0
 11 12  1  0  0  0  0
 11 32  1  0  0  0  0
 11 33  1  0  0  0  0
 12 13  1  0  0  0  0
 12 34  1  0  0  0  0
 12 35  1  0  0  0  0
 13 14  1  0  0  0  0
 13 36  1  0  0  0  0
 13 37  1  0  0  0  0
 14 38  1  0  0  0  0
 15 19  1  0  0  0  0
 15 16  1  0  0  0  0
 16 17  2  0  0  0  0
 16 39  1  0  0  0  0
 17 18  1  0  0  0  0
 18 19  2  0  0  0  0
 18 40  1  0  0  0  0
M  CHG  1   9   1
M  END
> <s_m_source_file>
AV-unprocessed.smi

> <i_m_source_file_index>
1406

> <i_lp_mmshare_version>
43012

> <i_f3d_flags>
0

> <s_epik_input>
bjFbY0hdbltjSF1uMVtDQEhdKFtDSDNdKUMoPU8pW05IXVtDQEhdKFtDSDJdW0NIMl0yKVtDQEBIXShOMjMpW0NIMl1bQ0gyXVtDSDJdW0NIMl0z

> <s_epik_cmdline>
J2VwaWtfcHl0aG9uJywgJy1waCcsICc3LjAnLCAnLXRuJywgJzgnLCAnLW1hJywgJzIwMCcsICctbWV0YWxfYmluZGluZycsICctaW1hZScsICc8aW5maWxlLm1hZT4nLCAnLW9tYWUnLCAnPG91dGZpbGUubWFlPic=

> <r_lp_tautomer_probability>
1

> <r_epik_Ionization_Penalty>
0.00197066

> <r_epik_Ionization_Penalty_Charging>
0.00196223

> <r_epik_Ionization_Penalty_Neutral>
8.43107e-06

> <r_epik_State_Penalty>
0.00133866

> <r_epik_Charging_Adjusted_Penalty>
0.00330089

> <i_epik_Tot_Q>
1

> <i_epik_Tot_abs_Q>
1

> <r_epik_Metal_State_Penalty>
-0

> <b_epik_Metal_Only>
0

> <s_lp_Force_Field>
OPLS_2005

> <r_lp_Energy>
45.3415

> <b_lp_Chiralities_Consistent>
1

> <s_lp_Variant>
AV-unprocessed.smi:1406-16

> <Gold.Version>
5.8.1

> <Gold.Id.Protein>
6NUR|6NUR_protein|mol2

> <Gold.PLP.Fitness>
40.9018

> <Gold.PLP.PLP>
-29.4358

> <Gold.PLP.part.hbond>
-2.5999

> <Gold.PLP.part.metal>
0.0000

> <Gold.PLP.part.buried>
-2.3967

> <Gold.PLP.part.nonpolar>
-24.4434

> <Gold.PLP.part.repulsive>
0.1041

> <Gold.PLP.ligand.clash>
0.0000

> <Gold.PLP.ligand.torsion>
0.3183

> <Gold.PLP.Chemscore.Hbond>
3.0000

> <Gold.PLP.Chemscore.CHOScore>
1.0000

> <Gold.PLP.Chemscore.Metal>
0.0000

> <Gold.Chemscore.Hbonds>
donor molecule, donor type, donor heavy atom, donor atom, acceptor molecule, acceptor atom, score
      L1  H     5    24       P1 10747  1.00
      L1  H     9    41       P1  7948  2.00
      L1  C    16    39       P1 10737  1.00

> <Gold.PLP.Chemscore.Internal.Correction>
0.1026

> <Gold.Rescore>
     Score         DG    S(hbond)    S(metal)    S(lipo)     H(rot)  DE(clash)    DE(int)     intcor
     11.58     -13.14       1.85        0.00      53.87       1.89       0.21       1.36       ----

> <Gold.Chemscore.Fitness>
11.5803

> <Gold.Chemscore.DG>
-13.1442

> <Gold.Chemscore.ZeroCoef>
-5.4800

> <Gold.Chemscore.Hbond>
1.8537

> <Gold.Chemscore.Metal>
0.0000

> <Gold.Chemscore.Lipo>
53.8661

> <Gold.Chemscore.Internal_Hbond>
0.0000

> <Gold.Chemscore.DEClash>
0.2085

> <Gold.Chemscore.DEInternal>
1.3554

> <Gold.Chemscore.Rot>
1.8865

> <Gold.Chemscore.Internal.Correction>
   9.000000E+99

> <Gold.Chemscore.Hbonds>
donor molecule, donor type, donor heavy atom, donor atom, acceptor molecule, acceptor atom, score
      L1  H     5    24       P1 10747  0.92
      L1  H     9    41       P1  7948  0.42

> <Gold.Chemscore.Hbond.Weighted>
-6.1914

> <Gold.Chemscore.Metal.Weighted>
-0.0000

> <Gold.Chemscore.Lipo.Weighted>
-6.3023

> <Gold.Chemscore.Internal_Hbond.Weighted>
0.0000

> <Gold.Chemscore.DEClash.Weighted>
0.2085

> <Gold.Chemscore.DEInternal.Weighted>
1.3554

> <Gold.Chemscore.Rot.Weighted>
4.8295

> <Gold.Chemscore.Internal.Correction.Weighted>
   9.000000E+99

> <Gold.Protein.RotatedTorsions>
[ 6907 6896 6895 6894 ] final  139.94 input  -60.11 | X-H torsion
[ 7974 7965 7964 7962 ] final  -98.02 input  175.53 | X-H torsion
[ 8008 7997 7996 7995 ] final  140.85 input   59.86 | X-H torsion
[ 10167 10162 10161 10158 ] final -179.15 input  -65.29 | X-H torsion
[ 10718 10713 10712 10709 ] final -137.18 input   66.30 | X-H torsion
[ 10763 10752 10751 10750 ] final  -73.15 input  -60.55 | X-H torsion
[ 11005 11000 10999 10996 ] final  -65.89 input  -57.11 | X-H torsion

> <Gold.Protein.ActiveResidues>
 VAL166  LYS551  ARG553  GLY616  TRP617  ASP618  TYR619  PRO620  LYS621  CYS622 
 ASP623  PHE694  ASN695  SER759  ASP760  ASP761  ALA762  ILE779  LEU786  VAL792 
 PHE793  MET794  SER795  GLU796  ALA797  LYS798  CYS799  TRP800  GLU811  SER814 

> <Gold.Protein.RotatedAtoms>
  152.2490  133.5199  159.5314 H   0  0  0  0  0  0  0  0  0  0  0  0  # atno 6907 bound_to 6896
  150.7087  134.0986  159.3966 H   0  0  0  0  0  0  0  0  0  0  0  0  # atno 6908 bound_to 6896
  151.8906  135.0418  160.0548 H   0  0  0  0  0  0  0  0  0  0  0  0  # atno 6909 bound_to 6896
  145.3261  140.9432  143.2688 H   0  0  0  0  0  0  0  0  0  0  0  0  # atno 7974 bound_to 7965
  156.2974  140.2330  156.4469 H   0  0  0  0  0  0  0  0  0  0  0  0  # atno 8008 bound_to 7997
  154.8136  140.0441  157.1381 H   0  0  0  0  0  0  0  0  0  0  0  0  # atno 8009 bound_to 7997
  154.9395  140.3027  155.5131 H   0  0  0  0  0  0  0  0  0  0  0  0  # atno 8010 bound_to 7997
  139.5399  144.2391  152.0874 H   0  0  0  0  0  0  0  0  0  0  0  0  # atno 10167 bound_to 10162
  156.2852  130.7344  151.1353 H   0  0  0  0  0  0  0  0  0  0  0  0  # atno 10718 bound_to 10713
  154.4555  135.5907  153.6220 H   0  0  0  0  0  0  0  0  0  0  0  0  # atno 10763 bound_to 10752
  152.9818  135.6031  154.3551 H   0  0  0  0  0  0  0  0  0  0  0  0  # atno 10764 bound_to 10752
  154.3418  135.2841  155.2398 H   0  0  0  0  0  0  0  0  0  0  0  0  # atno 10765 bound_to 10752
  141.1467  133.6689  156.6055 H   0  0  0  0  0  0  0  0  0  0  0  0  # atno 11005 bound_to 11000
  144.8901  139.4786  143.6682 LP  0  0  0  0  0  0  0  0  0  0  0  0  # atno 17320 bound_to 7965
  146.3064  139.7594  142.9053 LP  0  0  0  0  0  0  0  0  0  0  0  0  # atno 17321 bound_to 7965
  140.1868  144.4791  150.6499 LP  0  0  0  0  0  0  0  0  0  0  0  0  # atno 17342 bound_to 10162
  140.6624  143.2256  151.5823 LP  0  0  0  0  0  0  0  0  0  0  0  0  # atno 17343 bound_to 10162
  157.7326  131.0598  150.5617 LP  0  0  0  0  0  0  0  0  0  0  0  0  # atno 17370 bound_to 10713
  156.5728  130.4284  149.6012 LP  0  0  0  0  0  0  0  0  0  0  0  0  # atno 17371 bound_to 10713
  140.3655  134.7650  157.4563 LP  0  0  0  0  0  0  0  0  0  0  0  0  # atno 17394 bound_to 11000
  140.0751  134.5808  155.8600 LP  0  0  0  0  0  0  0  0  0  0  0  0  # atno 17395 bound_to 11000

$$$$
