AV-unprocessed.smi:1923|AV-procd|sdf|7789|dock4
  -GOLD-   22720 9533D 1   1.00000     0.00000
 Structure written by MMmdl.
 55 57  0  0  0  0  0  0  0  0  2 V2000
  148.3410  132.1429  153.9102 C   0  0  0  0  0  0  0  0  0  0  0  0
  147.2276  133.0624  153.3895 C   0  0  2  0  0  0  0  0  0  0  0  0
  147.3269  133.2735  151.8696 C   0  0  0  0  0  0  0  0  0  0  0  0
  146.2262  134.2217  151.3638 C   0  0  0  0  0  0  0  0  0  0  0  0
  146.2732  135.5286  152.0697 N   0  3  1  0  0  0  0  0  0  0  0  0
  145.3047  136.5037  151.5070 C   0  0  0  0  0  0  0  0  0  0  0  0
  145.8153  137.9519  151.5847 C   0  0  0  0  0  0  0  0  0  0  0  0
  147.1155  138.0028  152.2394 N   0  0  0  0  0  0  0  0  0  0  0  0
  147.4607  138.9172  153.1556 C   0  0  0  0  0  0  0  0  0  0  0  0
  146.7003  139.8046  153.5413 O   0  0  0  0  0  0  0  0  0  0  0  0
  148.7161  138.7196  153.5933 N   0  0  0  0  0  0  0  0  0  0  0  0
  149.4579  139.4821  154.5362 C   0  0  0  0  0  0  0  0  0  0  0  0
  150.6820  139.0709  155.1130 C   0  0  0  0  0  0  0  0  0  0  0  0
  151.3096  139.9109  156.0526 C   0  0  0  0  0  0  0  0  0  0  0  0
  150.6987  141.1379  156.4037 C   0  0  0  0  0  0  0  0  0  0  0  0
  151.3110  141.9935  157.3455 N   0  0  0  0  0  0  0  0  0  0  0  0
  150.8305  143.3715  157.4350 C   0  0  0  0  0  0  0  0  0  0  0  0
  151.7907  144.2200  158.2858 C   0  0  0  0  0  0  0  0  0  0  0  0
  151.9626  143.6140  159.5626 O   0  0  0  0  0  0  0  0  0  0  0  0
  152.5352  142.3148  159.4590 C   0  0  0  0  0  0  0  0  0  0  0  0
  151.6045  141.3974  158.6468 C   0  0  0  0  0  0  0  0  0  0  0  0
  149.5227  141.5258  155.8522 N   0  0  0  0  0  0  0  0  0  0  0  0
  148.9238  140.7174  154.9533 C   0  0  0  0  0  0  0  0  0  0  0  0
  146.1449  135.3547  153.5416 C   0  0  0  0  0  0  0  0  0  0  0  0
  147.2448  134.4305  154.0909 C   0  0  0  0  0  0  0  0  0  0  0  0
  149.3277  132.5688  153.7251 H   0  0  0  0  0  0  0  0  0  0  0  0
  148.3033  131.1672  153.4249 H   0  0  0  0  0  0  0  0  0  0  0  0
  148.2452  131.9799  154.9841 H   0  0  0  0  0  0  0  0  0  0  0  0
  146.2722  132.5813  153.6050 H   0  0  0  0  0  0  0  0  0  0  0  0
  148.3056  133.6835  151.6154 H   0  0  0  0  0  0  0  0  0  0  0  0
  147.2505  132.3155  151.3539 H   0  0  0  0  0  0  0  0  0  0  0  0
  146.3561  134.3756  150.2917 H   0  0  0  0  0  0  0  0  0  0  0  0
  145.2440  133.7665  151.5022 H   0  0  0  0  0  0  0  0  0  0  0  0
  145.1275  136.2663  150.4568 H   0  0  0  0  0  0  0  0  0  0  0  0
  144.3429  136.4024  152.0123 H   0  0  0  0  0  0  0  0  0  0  0  0
  145.9115  138.3875  150.5900 H   0  0  0  0  0  0  0  0  0  0  0  0
  145.1083  138.5697  152.1411 H   0  0  0  0  0  0  0  0  0  0  0  0
  147.7946  137.3023  151.9797 H   0  0  0  0  0  0  0  0  0  0  0  0
  149.1852  137.8979  153.2416 H   0  0  0  0  0  0  0  0  0  0  0  0
  151.1474  138.1297  154.8659 H   0  0  0  0  0  0  0  0  0  0  0  0
  152.2530  139.6086  156.4822 H   0  0  0  0  0  0  0  0  0  0  0  0
  150.7478  143.8089  156.4392 H   0  0  0  0  0  0  0  0  0  0  0  0
  149.8341  143.3781  157.8788 H   0  0  0  0  0  0  0  0  0  0  0  0
  152.7566  144.3297  157.7903 H   0  0  0  0  0  0  0  0  0  0  0  0
  151.3862  145.2232  158.4201 H   0  0  0  0  0  0  0  0  0  0  0  0
  153.5213  142.3758  158.9955 H   0  0  0  0  0  0  0  0  0  0  0  0
  152.6795  141.9101  160.4609 H   0  0  0  0  0  0  0  0  0  0  0  0
  150.6669  141.2478  159.1838 H   0  0  0  0  0  0  0  0  0  0  0  0
  152.0719  140.4188  158.5483 H   0  0  0  0  0  0  0  0  0  0  0  0
  147.9866  141.0736  154.5510 H   0  0  0  0  0  0  0  0  0  0  0  0
  146.2139  136.3168  154.0472 H   0  0  0  0  0  0  0  0  0  0  0  0
  145.1612  134.9453  153.7771 H   0  0  0  0  0  0  0  0  0  0  0  0
  147.1103  134.3004  155.1656 H   0  0  0  0  0  0  0  0  0  0  0  0
  148.2186  134.9043  153.9572 H   0  0  0  0  0  0  0  0  0  0  0  0
  147.1936  135.9070  151.8961 H   0  0  0  0  0  0  0  0  0  0  0  0
  1  2  1  0  0  0  0
  1 26  1  0  0  0  0
  1 27  1  0  0  0  0
  1 28  1  0  0  0  0
  2 25  1  0  0  0  0
  2  3  1  0  0  0  0
  2 29  1  0  0  0  0
  3  4  1  0  0  0  0
  3 30  1  0  0  0  0
  3 31  1  0  0  0  0
  4  5  1  0  0  0  0
  4 32  1  0  0  0  0
  4 33  1  0  0  0  0
  5  6  1  0  0  0  0
  5 24  1  0  0  0  0
  5 55  1  0  0  0  0
  6  7  1  0  0  0  0
  6 34  1  0  0  0  0
  6 35  1  0  0  0  0
  7  8  1  0  0  0  0
  7 36  1  0  0  0  0
  7 37  1  0  0  0  0
  8  9  1  0  0  0  0
  8 38  1  0  0  0  0
  9 10  2  0  0  0  0
  9 11  1  0  0  0  0
 11 12  1  0  0  0  0
 11 39  1  0  0  0  0
 12 23  1  0  0  0  0
 12 13  2  0  0  0  0
 13 14  1  0  0  0  0
 13 40  1  0  0  0  0
 14 15  2  0  0  0  0
 14 41  1  0  0  0  0
 15 16  1  0  0  0  0
 15 22  1  0  0  0  0
 16 21  1  0  0  0  0
 16 17  1  0  0  0  0
 17 18  1  0  0  0  0
 17 42  1  0  0  0  0
 17 43  1  0  0  0  0
 18 19  1  0  0  0  0
 18 44  1  0  0  0  0
 18 45  1  0  0  0  0
 19 20  1  0  0  0  0
 20 21  1  0  0  0  0
 20 46  1  0  0  0  0
 20 47  1  0  0  0  0
 21 48  1  0  0  0  0
 21 49  1  0  0  0  0
 22 23  2  0  0  0  0
 23 50  1  0  0  0  0
 24 25  1  0  0  0  0
 24 51  1  0  0  0  0
 24 52  1  0  0  0  0
 25 53  1  0  0  0  0
 25 54  1  0  0  0  0
M  CHG  1   5   1
M  END
> <s_m_source_file>
AV-unprocessed.smi

> <i_m_source_file_index>
1923

> <i_lp_mmshare_version>
43012

> <i_f3d_flags>
0

> <s_epik_input>
W0NIM11bQ0hdMVtDSDJdW0NIMl1OKFtDSDJdW0NIMl0xKVtDSDJdW0NIMl1bTkhdQyg9TylbTkhdYzJbY0hdW2NIXWMobltjSF0yKU4zW0NIMl1bQ0gyXU9bQ0gyXVtDSDJdMw==

> <s_epik_cmdline>
J2VwaWtfcHl0aG9uJywgJy1waCcsICc3LjAnLCAnLXRuJywgJzgnLCAnLW1hJywgJzIwMCcsICctbWV0YWxfYmluZGluZycsICctaW1hZScsICc8aW5maWxlLm1hZT4nLCAnLW9tYWUnLCAnPG91dGZpbGUubWFlPic=

> <r_lp_tautomer_probability>
1

> <r_epik_Ionization_Penalty>
0.00307683

> <r_epik_Ionization_Penalty_Charging>
0.00139388

> <r_epik_Ionization_Penalty_Neutral>
0.00168296

> <r_epik_State_Penalty>
-0

> <r_epik_Charging_Adjusted_Penalty>
0.00139388

> <i_epik_Tot_Q>
1

> <i_epik_Tot_abs_Q>
1

> <r_epik_Metal_State_Penalty>
-0

> <b_epik_Metal_Only>
0

> <s_lp_Force_Field>
OPLS_2005

> <r_lp_Energy>
34.4311

> <b_lp_Chiralities_Consistent>
1

> <s_lp_Variant>
AV-unprocessed.smi:1923-1

> <Gold.Version>
5.8.1

> <Gold.Id.Protein>
6NUR|6NUR_protein|mol2

> <Gold.PLP.Fitness>
53.0893

> <Gold.PLP.PLP>
-43.8231

> <Gold.PLP.part.hbond>
-4.1976

> <Gold.PLP.part.metal>
0.0000

> <Gold.PLP.part.buried>
3.6433

> <Gold.PLP.part.nonpolar>
-44.9255

> <Gold.PLP.part.repulsive>
0.5325

> <Gold.PLP.ligand.clash>
0.0000

> <Gold.PLP.ligand.torsion>
1.0751

> <Gold.PLP.Chemscore.Hbond>
3.6792

> <Gold.PLP.Chemscore.CHOScore>
0.0000

> <Gold.PLP.Chemscore.Metal>
0.0000

> <Gold.Chemscore.Hbonds>
donor molecule, donor type, donor heavy atom, donor atom, acceptor molecule, acceptor atom, score
      L1  H     5    55       P1  7948  2.00
      L1  H     8    38       P1  7948  1.00
      L1  H    11    39       P1  7948  0.60

> <Gold.PLP.Chemscore.Internal.Correction>
0.3788

> <Gold.Rescore>
     Score         DG    S(hbond)    S(metal)    S(lipo)     H(rot)  DE(clash)    DE(int)     intcor
     18.49     -23.26       2.84        0.00     105.98       1.60       1.44       3.34       ----

> <Gold.Chemscore.Fitness>
18.4926

> <Gold.Chemscore.DG>
-23.2641

> <Gold.Chemscore.ZeroCoef>
-5.4800

> <Gold.Chemscore.Hbond>
2.8365

> <Gold.Chemscore.Metal>
0.0000

> <Gold.Chemscore.Lipo>
105.9832

> <Gold.Chemscore.Internal_Hbond>
0.0000

> <Gold.Chemscore.DEClash>
1.4351

> <Gold.Chemscore.DEInternal>
3.3363

> <Gold.Chemscore.Rot>
1.5976

> <Gold.Chemscore.Internal.Correction>
   9.000000E+99

> <Gold.Chemscore.Hbonds>
donor molecule, donor type, donor heavy atom, donor atom, acceptor molecule, acceptor atom, score
      L1  H     5    55       P1  7948  1.00
      L1  H     8    38       P1  7948  0.96
      L1  H    11    39       P1  7948  0.60

> <Gold.Chemscore.Hbond.Weighted>
-9.4740

> <Gold.Chemscore.Metal.Weighted>
-0.0000

> <Gold.Chemscore.Lipo.Weighted>
-12.4000

> <Gold.Chemscore.Internal_Hbond.Weighted>
0.0000

> <Gold.Chemscore.DEClash.Weighted>
1.4351

> <Gold.Chemscore.DEInternal.Weighted>
3.3363

> <Gold.Chemscore.Rot.Weighted>
4.0899

> <Gold.Chemscore.Internal.Correction.Weighted>
   9.000000E+99

> <Gold.Protein.RotatedTorsions>
[ 6907 6896 6895 6894 ] final  105.22 input  -60.11 | X-H torsion
[ 7974 7965 7964 7962 ] final -132.37 input  175.53 | X-H torsion
[ 8008 7997 7996 7995 ] final -135.11 input   59.86 | X-H torsion
[ 10167 10162 10161 10158 ] final -117.03 input  -65.29 | X-H torsion
[ 10718 10713 10712 10709 ] final  -98.69 input   66.30 | X-H torsion
[ 10763 10752 10751 10750 ] final -177.07 input  -60.55 | X-H torsion
[ 11005 11000 10999 10996 ] final -132.10 input  -57.11 | X-H torsion

> <Gold.Protein.ActiveResidues>
 VAL166  LYS551  ARG553  GLY616  TRP617  ASP618  TYR619  PRO620  LYS621  CYS622 
 ASP623  PHE694  ASN695  SER759  ASP760  ASP761  ALA762  ILE779  LEU786  VAL792 
 PHE793  MET794  SER795  GLU796  ALA797  LYS798  CYS799  TRP800  GLU811  SER814 

> <Gold.Protein.RotatedAtoms>
  152.5238  133.9561  159.7694 H   0  0  0  0  0  0  0  0  0  0  0  0  # atno 6907 bound_to 6896
  150.9861  133.6188  159.2722 H   0  0  0  0  0  0  0  0  0  0  0  0  # atno 6908 bound_to 6896
  151.3348  135.0856  159.9404 H   0  0  0  0  0  0  0  0  0  0  0  0  # atno 6909 bound_to 6896
  144.9291  140.7107  143.4917 H   0  0  0  0  0  0  0  0  0  0  0  0  # atno 7974 bound_to 7965
  155.3732  140.0489  157.3045 H   0  0  0  0  0  0  0  0  0  0  0  0  # atno 8008 bound_to 7997
  154.5119  140.2195  155.9102 H   0  0  0  0  0  0  0  0  0  0  0  0  # atno 8009 bound_to 7997
  156.1593  140.3120  155.8785 H   0  0  0  0  0  0  0  0  0  0  0  0  # atno 8010 bound_to 7997
  140.0728  143.4861  152.1970 H   0  0  0  0  0  0  0  0  0  0  0  0  # atno 10167 bound_to 10162
  156.0114  130.5249  150.6560 H   0  0  0  0  0  0  0  0  0  0  0  0  # atno 10718 bound_to 10713
  154.5646  135.2823  155.0886 H   0  0  0  0  0  0  0  0  0  0  0  0  # atno 10763 bound_to 10752
  154.2281  135.6379  153.5170 H   0  0  0  0  0  0  0  0  0  0  0  0  # atno 10764 bound_to 10752
  153.0039  135.5530  154.6251 H   0  0  0  0  0  0  0  0  0  0  0  0  # atno 10765 bound_to 10752
  140.9200  134.1456  157.4321 H   0  0  0  0  0  0  0  0  0  0  0  0  # atno 11005 bound_to 11000
  145.3170  139.1800  143.4608 LP  0  0  0  0  0  0  0  0  0  0  0  0  # atno 17320 bound_to 7965
  146.3239  140.3183  142.8631 LP  0  0  0  0  0  0  0  0  0  0  0  0  # atno 17321 bound_to 7965
  139.5826  144.7517  151.3602 LP  0  0  0  0  0  0  0  0  0  0  0  0  # atno 17342 bound_to 10162
  140.7117  143.7373  150.7579 LP  0  0  0  0  0  0  0  0  0  0  0  0  # atno 17343 bound_to 10162
  157.4312  131.0849  151.1037 LP  0  0  0  0  0  0  0  0  0  0  0  0  # atno 17370 bound_to 10713
  157.1609  130.6225  149.5610 LP  0  0  0  0  0  0  0  0  0  0  0  0  # atno 17371 bound_to 10713
  139.8773  134.9968  156.5813 LP  0  0  0  0  0  0  0  0  0  0  0  0  # atno 17394 bound_to 11000
  140.8000  133.8513  155.8718 LP  0  0  0  0  0  0  0  0  0  0  0  0  # atno 17395 bound_to 11000

$$$$
