AV-unprocessed.smi:1021|AV-procd|sdf|4454|dock6
  -GOLD-   22720 2423D 1   1.00000     0.00000
 Structure written by MMmdl.
 42 44  0  0  0  0  0  0  0  0  1 V2000
  149.2727  141.1214  153.1786 O   0  0  0  0  0  0  0  0  0  0  0  0
  149.2694  140.4358  154.4134 C   0  0  0  0  0  0  0  0  0  0  0  0
  150.6466  139.8166  154.6892 C   0  0  0  0  0  0  0  0  0  0  0  0
  150.8212  139.3326  156.1370 C   0  0  0  0  0  0  0  0  0  0  0  0
  151.2208  140.4381  157.0713 C   0  0  0  0  0  0  0  0  0  0  0  0
  150.8857  141.7008  156.8023 N   0  0  0  0  0  0  0  0  0  0  0  0
  151.4314  142.3980  157.8596 C   0  0  0  0  0  0  0  0  0  0  0  0
  151.4237  143.7816  158.1475 C   0  0  0  0  0  0  0  0  0  0  0  0
  152.0678  144.2743  159.3010 C   0  0  0  0  0  0  0  0  0  0  0  0
  152.7290  143.3923  160.1794 C   0  0  0  0  0  0  0  0  0  0  0  0
  152.7461  142.0101  159.9115 C   0  0  0  0  0  0  0  0  0  0  0  0
  152.0966  141.5214  158.7612 C   0  0  0  0  0  0  0  0  0  0  0  0
  151.9226  140.2478  158.2230 N   0  0  0  0  0  0  0  0  0  0  0  0
  152.4417  139.0146  158.8103 C   0  0  0  0  0  0  0  0  0  0  0  0
  153.9063  139.1383  159.2799 C   0  0  2  0  0  0  0  0  0  0  0  0
  154.7301  138.5077  158.3200 O   0  0  0  0  0  0  0  0  0  0  0  0
  154.1268  138.5837  160.6796 C   0  0  0  0  0  0  0  0  0  0  0  0
  153.7110  137.2707  160.9885 C   0  0  0  0  0  0  0  0  0  0  0  0
  153.9083  136.7491  162.2819 C   0  0  0  0  0  0  0  0  0  0  0  0
  154.5229  137.5373  163.2740 C   0  0  0  0  0  0  0  0  0  0  0  0
  154.7145  137.0348  164.5166 F   0  0  0  0  0  0  0  0  0  0  0  0
  154.9418  138.8472  162.9715 C   0  0  0  0  0  0  0  0  0  0  0  0
  154.7467  139.3686  161.6776 C   0  0  0  0  0  0  0  0  0  0  0  0
  149.1280  140.4944  152.4864 H   0  0  0  0  0  0  0  0  0  0  0  0
  148.9835  141.1207  155.2121 H   0  0  0  0  0  0  0  0  0  0  0  0
  148.5105  139.6542  154.3701 H   0  0  0  0  0  0  0  0  0  0  0  0
  150.7954  138.9727  154.0147 H   0  0  0  0  0  0  0  0  0  0  0  0
  151.4231  140.5363  154.4410 H   0  0  0  0  0  0  0  0  0  0  0  0
  149.9231  138.8304  156.4865 H   0  0  0  0  0  0  0  0  0  0  0  0
  151.6001  138.5697  156.1656 H   0  0  0  0  0  0  0  0  0  0  0  0
  150.9237  144.4651  157.4773 H   0  0  0  0  0  0  0  0  0  0  0  0
  152.0571  145.3338  159.5108 H   0  0  0  0  0  0  0  0  0  0  0  0
  153.2235  143.7777  161.0590 H   0  0  0  0  0  0  0  0  0  0  0  0
  153.2548  141.3348  160.5832 H   0  0  0  0  0  0  0  0  0  0  0  0
  151.8130  138.6685  159.6268 H   0  0  0  0  0  0  0  0  0  0  0  0
  152.3722  138.2454  158.0399 H   0  0  0  0  0  0  0  0  0  0  0  0
  154.2013  140.1876  159.2792 H   0  0  0  0  0  0  0  0  0  0  0  0
  154.1754  138.0933  157.6766 H   0  0  0  0  0  0  0  0  0  0  0  0
  153.2422  136.6573  160.2329 H   0  0  0  0  0  0  0  0  0  0  0  0
  153.5894  135.7433  162.5120 H   0  0  0  0  0  0  0  0  0  0  0  0
  155.4182  139.4507  163.7297 H   0  0  0  0  0  0  0  0  0  0  0  0
  155.0786  140.3717  161.4538 H   0  0  0  0  0  0  0  0  0  0  0  0
  1  2  1  0  0  0  0
  1 24  1  0  0  0  0
  2  3  1  0  0  0  0
  2 25  1  0  0  0  0
  2 26  1  0  0  0  0
  3  4  1  0  0  0  0
  3 27  1  0  0  0  0
  3 28  1  0  0  0  0
  4  5  1  0  0  0  0
  4 29  1  0  0  0  0
  4 30  1  0  0  0  0
  5 13  1  0  0  0  0
  5  6  2  0  0  0  0
  6  7  1  0  0  0  0
  7 12  2  0  0  0  0
  7  8  1  0  0  0  0
  8  9  2  0  0  0  0
  8 31  1  0  0  0  0
  9 10  1  0  0  0  0
  9 32  1  0  0  0  0
 10 11  2  0  0  0  0
 10 33  1  0  0  0  0
 11 12  1  0  0  0  0
 11 34  1  0  0  0  0
 12 13  1  0  0  0  0
 13 14  1  0  0  0  0
 14 15  1  0  0  0  0
 14 35  1  0  0  0  0
 14 36  1  0  0  0  0
 15 16  1  0  0  0  0
 15 17  1  0  0  0  0
 15 37  1  0  0  0  0
 16 38  1  0  0  0  0
 17 23  1  0  0  0  0
 17 18  2  0  0  0  0
 18 19  1  0  0  0  0
 18 39  1  0  0  0  0
 19 20  2  0  0  0  0
 19 40  1  0  0  0  0
 20 21  1  0  0  0  0
 20 22  1  0  0  0  0
 22 23  2  0  0  0  0
 22 41  1  0  0  0  0
 23 42  1  0  0  0  0
M  END
> <s_m_source_file>
AV-unprocessed.smi

> <i_m_source_file_index>
1021

> <i_lp_mmshare_version>
43012

> <i_f3d_flags>
0

> <s_epik_input>
W09IXVtDSDJdW0NIMl1bQ0gyXWMobjEpbihjKGMxMilbY0hdW2NIXVtjSF1bY0hdMilbQ0gyXVtDQEhdKFtPSF0pYzNbY0hdW2NIXWMoRilbY0hdW2NIXTM=

> <s_epik_cmdline>
J2VwaWtfcHl0aG9uJywgJy1waCcsICc3LjAnLCAnLXRuJywgJzgnLCAnLW1hJywgJzIwMCcsICctbWV0YWxfYmluZGluZycsICctaW1hZScsICc8aW5maWxlLm1hZT4nLCAnLW9tYWUnLCAnPG91dGZpbGUubWFlPic=

> <r_epik_Ionization_Penalty>
0.182562

> <r_epik_Ionization_Penalty_Charging>
0

> <r_epik_Ionization_Penalty_Neutral>
0.182562

> <r_epik_State_Penalty>
0.172086

> <r_epik_Charging_Adjusted_Penalty>
0.172086

> <i_epik_Tot_Q>
0

> <i_epik_Tot_abs_Q>
0

> <r_epik_Metal_State_Penalty>
0.000199649

> <b_epik_Metal_Only>
0

> <s_lp_Force_Field>
OPLS_2005

> <r_lp_Energy>
12.4475

> <b_lp_Chiralities_Consistent>
1

> <s_lp_Variant>
AV-unprocessed.smi:1021-1

> <Gold.Version>
5.8.1

> <Gold.Id.Protein>
6NUR|6NUR_protein|mol2

> <Gold.PLP.Fitness>
56.2646

> <Gold.PLP.PLP>
-50.6529

> <Gold.PLP.part.hbond>
-3.4094

> <Gold.PLP.part.metal>
0.0000

> <Gold.PLP.part.buried>
-3.8136

> <Gold.PLP.part.nonpolar>
-44.0067

> <Gold.PLP.part.repulsive>
0.0636

> <Gold.PLP.ligand.clash>
0.0000

> <Gold.PLP.ligand.torsion>
1.4681

> <Gold.PLP.Chemscore.Hbond>
2.8086

> <Gold.PLP.Chemscore.CHOScore>
0.0000

> <Gold.PLP.Chemscore.Metal>
0.0000

> <Gold.Chemscore.Hbonds>
donor molecule, donor type, donor heavy atom, donor atom, acceptor molecule, acceptor atom, score
      L1  H     1    24       P1  7957  0.76
      P1  H  7997  8010       L1    16  0.93
      P1  H  8011  8017       L1     1  1.00

> <Gold.PLP.Chemscore.Internal.Correction>
0.1221

> <Gold.Rescore>
     Score         DG    S(hbond)    S(metal)    S(lipo)     H(rot)  DE(clash)    DE(int)     intcor
     16.95     -18.41       1.43        0.00     136.93       3.07       0.17       1.29       ----

> <Gold.Chemscore.Fitness>
16.9502

> <Gold.Chemscore.DG>
-18.4118

> <Gold.Chemscore.ZeroCoef>
-5.4800

> <Gold.Chemscore.Hbond>
1.4314

> <Gold.Chemscore.Metal>
0.0000

> <Gold.Chemscore.Lipo>
136.9300

> <Gold.Chemscore.Internal_Hbond>
0.0000

> <Gold.Chemscore.DEClash>
0.1722

> <Gold.Chemscore.DEInternal>
1.2894

> <Gold.Chemscore.Rot>
3.0741

> <Gold.Chemscore.Internal.Correction>
   9.000000E+99

> <Gold.Chemscore.Hbonds>
donor molecule, donor type, donor heavy atom, donor atom, acceptor molecule, acceptor atom, score
      L1  H     1    24       P1  7957  0.73
      P1  H  7997  8010       L1    16  0.05
      P1  H  8011  8017       L1     1  0.30

> <Gold.Chemscore.Hbond.Weighted>
-4.7808

> <Gold.Chemscore.Metal.Weighted>
-0.0000

> <Gold.Chemscore.Lipo.Weighted>
-16.0208

> <Gold.Chemscore.Internal_Hbond.Weighted>
0.0000

> <Gold.Chemscore.DEClash.Weighted>
0.1722

> <Gold.Chemscore.DEInternal.Weighted>
1.2894

> <Gold.Chemscore.Rot.Weighted>
7.8698

> <Gold.Chemscore.Internal.Correction.Weighted>
   9.000000E+99

> <Gold.Protein.RotatedTorsions>
[ 6907 6896 6895 6894 ] final -107.29 input  -60.11 | X-H torsion
[ 7974 7965 7964 7962 ] final  -93.05 input  175.53 | X-H torsion
[ 8008 7997 7996 7995 ] final  -10.74 input   59.86 | X-H torsion
[ 10167 10162 10161 10158 ] final  118.62 input  -65.29 | X-H torsion
[ 10718 10713 10712 10709 ] final   31.49 input   66.30 | X-H torsion
[ 10763 10752 10751 10750 ] final  -67.68 input  -60.55 | X-H torsion
[ 11005 11000 10999 10996 ] final   -0.02 input  -57.11 | X-H torsion

> <Gold.Protein.ActiveResidues>
 VAL166  LYS551  ARG553  GLY616  TRP617  ASP618  TYR619  PRO620  LYS621  CYS622 
 ASP623  PHE694  ASN695  SER759  ASP760  ASP761  ALA762  ILE779  LEU786  VAL792 
 PHE793  MET794  SER795  GLU796  ALA797  LYS798  CYS799  TRP800  GLU811  SER814 

> <Gold.Protein.RotatedAtoms>
  150.7436  133.9848  159.3587 H   0  0  0  0  0  0  0  0  0  0  0  0  # atno 6907 bound_to 6896
  151.7792  135.0764  160.0380 H   0  0  0  0  0  0  0  0  0  0  0  0  # atno 6908 bound_to 6896
  152.3286  133.5896  159.5830 H   0  0  0  0  0  0  0  0  0  0  0  0  # atno 6909 bound_to 6896
  145.3916  140.9529  143.2337 H   0  0  0  0  0  0  0  0  0  0  0  0  # atno 7974 bound_to 7965
  154.5527  140.2321  155.8459 H   0  0  0  0  0  0  0  0  0  0  0  0  # atno 8008 bound_to 7997
  156.1961  140.3065  155.9391 H   0  0  0  0  0  0  0  0  0  0  0  0  # atno 8009 bound_to 7997
  155.3039  140.0432  157.3021 H   0  0  0  0  0  0  0  0  0  0  0  0  # atno 8010 bound_to 7997
  139.6100  144.7079  151.2867 H   0  0  0  0  0  0  0  0  0  0  0  0  # atno 10167 bound_to 10162
  157.2732  130.7218  149.6515 H   0  0  0  0  0  0  0  0  0  0  0  0  # atno 10718 bound_to 10713
  154.3780  135.6080  153.5775 H   0  0  0  0  0  0  0  0  0  0  0  0  # atno 10763 bound_to 10752
  152.9788  135.5854  154.4444 H   0  0  0  0  0  0  0  0  0  0  0  0  # atno 10764 bound_to 10752
  154.4209  135.2846  155.1954 H   0  0  0  0  0  0  0  0  0  0  0  0  # atno 10765 bound_to 10752
  140.6316  133.9570  155.8277 H   0  0  0  0  0  0  0  0  0  0  0  0  # atno 11005 bound_to 11000
  144.8436  139.5433  143.6889 LP  0  0  0  0  0  0  0  0  0  0  0  0  # atno 17320 bound_to 7965
  146.2794  139.6839  142.9239 LP  0  0  0  0  0  0  0  0  0  0  0  0  # atno 17321 bound_to 7965
  140.7312  143.6859  150.7962 LP  0  0  0  0  0  0  0  0  0  0  0  0  # atno 17342 bound_to 10162
  140.0451  143.5306  152.2700 LP  0  0  0  0  0  0  0  0  0  0  0  0  # atno 17343 bound_to 10162
  155.9663  130.4361  150.5120 LP  0  0  0  0  0  0  0  0  0  0  0  0  # atno 17370 bound_to 10713
  157.3048  131.0652  151.2042 LP  0  0  0  0  0  0  0  0  0  0  0  0  # atno 17371 bound_to 10713
  141.0671  134.0261  157.3579 LP  0  0  0  0  0  0  0  0  0  0  0  0  # atno 17394 bound_to 11000
  139.9114  135.0190  156.7705 LP  0  0  0  0  0  0  0  0  0  0  0  0  # atno 17395 bound_to 11000

$$$$
