AV-unprocessed.smi:910|AV-procd|sdf|4135|dock3
  -GOLD-   22720 2 43D 1   1.00000     0.00000
 Structure written by MMmdl.
 45 46  0  0  0  0  0  0  0  0  2 V2000
  147.4980  132.4121  161.5839 C   0  0  0  0  0  0  0  0  0  0  0  0
  147.3149  133.8816  161.3684 C   0  0  0  0  0  0  0  0  0  0  0  0
  148.2718  134.6636  160.7391 N   0  0  0  0  0  0  0  0  0  0  0  0
  147.7736  135.9012  160.7165 C   0  0  0  0  0  0  0  0  0  0  0  0
  148.3680  136.9879  160.1977 N   0  5  0  0  0  0  0  0  0  0  0  0
  149.3107  136.8439  159.2390 C   0  0  0  0  0  0  0  0  0  0  0  0
  149.7886  135.7796  158.8385 O   0  0  0  0  0  0  0  0  0  0  0  0
  149.7260  138.0036  158.7095 N   0  0  0  0  0  0  0  0  0  0  0  0
  150.7185  138.1513  157.6498 C   0  0  0  0  0  0  0  0  0  0  0  0
  152.1210  138.3951  158.2234 C   0  0  0  0  0  0  0  0  0  0  0  0
  152.5007  139.7377  157.9589 O   0  0  0  0  0  0  0  0  0  0  0  0
  152.0141  140.6778  158.9073 C   0  0  1  0  0  0  0  0  0  0  0  0
  153.1071  140.9326  159.9668 C   0  0  0  0  0  0  0  0  0  0  0  0
  152.6956  142.0404  160.9474 C   0  0  0  0  0  0  0  0  0  0  0  0
  152.3469  143.3350  160.1999 C   0  0  0  0  0  0  0  0  0  0  0  0
  151.2548  143.0883  159.1479 C   0  0  0  0  0  0  0  0  0  0  0  0
  151.6557  141.9791  158.1547 C   0  0  2  0  0  0  0  0  0  0  0  0
  150.5422  141.7495  157.1200 C   0  0  0  0  0  0  0  0  0  0  0  0
  146.5471  135.9703  161.3088 O   0  0  0  0  0  0  0  0  0  0  0  0
  146.2671  134.6933  161.7109 C   0  0  0  0  0  0  0  0  0  0  0  0
  144.9648  134.4507  162.3944 C   0  0  0  0  0  0  0  0  0  0  0  0
  147.4881  132.1679  162.6460 H   0  0  0  0  0  0  0  0  0  0  0  0
  148.4455  132.0617  161.1732 H   0  0  0  0  0  0  0  0  0  0  0  0
  146.7006  131.8438  161.1050 H   0  0  0  0  0  0  0  0  0  0  0  0
  149.3078  138.8516  159.0633 H   0  0  0  0  0  0  0  0  0  0  0  0
  150.7157  137.2480  157.0395 H   0  0  0  0  0  0  0  0  0  0  0  0
  150.4347  138.9717  156.9888 H   0  0  0  0  0  0  0  0  0  0  0  0
  152.1123  138.2323  159.3018 H   0  0  0  0  0  0  0  0  0  0  0  0
  152.8326  137.6870  157.7978 H   0  0  0  0  0  0  0  0  0  0  0  0
  151.1121  140.2983  159.3917 H   0  0  0  0  0  0  0  0  0  0  0  0
  153.3235  140.0206  160.5226 H   0  0  0  0  0  0  0  0  0  0  0  0
  154.0366  141.2150  159.4705 H   0  0  0  0  0  0  0  0  0  0  0  0
  151.8361  141.7108  161.5321 H   0  0  0  0  0  0  0  0  0  0  0  0
  153.5014  142.2265  161.6578 H   0  0  0  0  0  0  0  0  0  0  0  0
  152.0168  144.0959  160.9075 H   0  0  0  0  0  0  0  0  0  0  0  0
  153.2404  143.7302  159.7146 H   0  0  0  0  0  0  0  0  0  0  0  0
  150.3251  142.8150  159.6495 H   0  0  0  0  0  0  0  0  0  0  0  0
  151.0530  144.0152  158.6100 H   0  0  0  0  0  0  0  0  0  0  0  0
  152.5438  142.3162  157.6176 H   0  0  0  0  0  0  0  0  0  0  0  0
  149.6285  141.3899  157.5943 H   0  0  0  0  0  0  0  0  0  0  0  0
  150.8401  141.0137  156.3727 H   0  0  0  0  0  0  0  0  0  0  0  0
  150.3022  142.6720  156.5912 H   0  0  0  0  0  0  0  0  0  0  0  0
  144.9149  133.4373  162.7931 H   0  0  0  0  0  0  0  0  0  0  0  0
  144.1352  134.5821  161.6998 H   0  0  0  0  0  0  0  0  0  0  0  0
  144.8274  135.1467  163.2219 H   0  0  0  0  0  0  0  0  0  0  0  0
  1 22  1  0  0  0  0
  1 23  1  0  0  0  0
  1 24  1  0  0  0  0
  1  2  1  0  0  0  0
  2  3  1  0  0  0  0
  2 20  2  0  0  0  0
  3  4  2  0  0  0  0
  4 19  1  0  0  0  0
  4  5  1  0  0  0  0
  5  6  1  0  0  0  0
  6  8  1  0  0  0  0
  6  7  2  0  0  0  0
  8  9  1  0  0  0  0
  8 25  1  0  0  0  0
  9 10  1  0  0  0  0
  9 26  1  0  0  0  0
  9 27  1  0  0  0  0
 10 11  1  0  0  0  0
 10 28  1  0  0  0  0
 10 29  1  0  0  0  0
 11 12  1  0  0  0  0
 12 17  1  0  0  0  0
 12 13  1  0  0  0  0
 12 30  1  0  0  0  0
 13 14  1  0  0  0  0
 13 31  1  0  0  0  0
 13 32  1  0  0  0  0
 14 15  1  0  0  0  0
 14 33  1  0  0  0  0
 14 34  1  0  0  0  0
 15 16  1  0  0  0  0
 15 35  1  0  0  0  0
 15 36  1  0  0  0  0
 16 17  1  0  0  0  0
 16 37  1  0  0  0  0
 16 38  1  0  0  0  0
 17 18  1  0  0  0  0
 17 39  1  0  0  0  0
 18 40  1  0  0  0  0
 18 41  1  0  0  0  0
 18 42  1  0  0  0  0
 19 20  1  0  0  0  0
 20 21  1  0  0  0  0
 21 43  1  0  0  0  0
 21 44  1  0  0  0  0
 21 45  1  0  0  0  0
M  CHG  1   5  -1
M  END
> <s_m_source_file>
AV-unprocessed.smi

> <i_m_source_file_index>
910

> <i_lp_mmshare_version>
43012

> <i_f3d_flags>
0

> <s_epik_input>
W0NIM11jMW5jKG9jMVtDSDNdKVtOSF1DKD1PKVtOSF1bQ0gyXVtDSDJdT1tDQEBIXTJbQ0gyXVtDSDJdW0NIMl1bQ0gyXVtDQEhdMltDSDNd

> <s_epik_cmdline>
J2VwaWtfcHl0aG9uJywgJy1waCcsICc3LjAnLCAnLXRuJywgJzgnLCAnLW1hJywgJzIwMCcsICctbWV0YWxfYmluZGluZycsICctaW1hZScsICc8aW5maWxlLm1hZT4nLCAnLW9tYWUnLCAnPG91dGZpbGUubWFlPic=

> <r_lp_tautomer_probability>
0.107061

> <r_epik_Ionization_Penalty>
10.1763

> <r_epik_Ionization_Penalty_Charging>
7.13067

> <r_epik_Ionization_Penalty_Neutral>
3.04564

> <r_epik_State_Penalty>
5.57927

> <r_epik_Charging_Adjusted_Penalty>
12.7099

> <i_epik_Tot_Q>
-1

> <i_epik_Tot_abs_Q>
1

> <r_epik_Metal_State_Penalty>
1.52303

> <b_epik_Metal_Only>
1

> <s_lp_Force_Field>
OPLS_2005

> <r_lp_Energy>
4.71828

> <b_lp_Chiralities_Consistent>
1

> <s_lp_Variant>
AV-unprocessed.smi:910-20

> <Gold.Version>
5.8.1

> <Gold.Id.Protein>
6NUR|6NUR_protein|mol2

> <Gold.PLP.Fitness>
47.2787

> <Gold.PLP.PLP>
-37.9578

> <Gold.PLP.part.hbond>
-3.5024

> <Gold.PLP.part.metal>
0.0000

> <Gold.PLP.part.buried>
-4.6761

> <Gold.PLP.part.nonpolar>
-30.1271

> <Gold.PLP.part.repulsive>
0.2100

> <Gold.PLP.ligand.clash>
0.0000

> <Gold.PLP.ligand.torsion>
1.2724

> <Gold.PLP.Chemscore.Hbond>
3.9368

> <Gold.PLP.Chemscore.CHOScore>
0.0000

> <Gold.PLP.Chemscore.Metal>
0.0000

> <Gold.Chemscore.Hbonds>
donor molecule, donor type, donor heavy atom, donor atom, acceptor molecule, acceptor atom, score
      P1  H  6896  6907       L1     7  1.00
      P1  H  6931  6943       L1     5  0.77
      P1  H  7997  8010       L1    11  0.37

> <Gold.PLP.Chemscore.Internal.Correction>
0.0554

> <Gold.Rescore>
     Score         DG    S(hbond)    S(metal)    S(lipo)     H(rot)  DE(clash)    DE(int)     intcor
     17.62     -20.58       2.20        0.00     101.76       1.62       0.07       2.89       ----

> <Gold.Chemscore.Fitness>
17.6181

> <Gold.Chemscore.DG>
-20.5802

> <Gold.Chemscore.ZeroCoef>
-5.4800

> <Gold.Chemscore.Hbond>
2.1955

> <Gold.Chemscore.Metal>
0.0000

> <Gold.Chemscore.Lipo>
101.7645

> <Gold.Chemscore.Internal_Hbond>
0.0000

> <Gold.Chemscore.DEClash>
0.0726

> <Gold.Chemscore.DEInternal>
2.8895

> <Gold.Chemscore.Rot>
1.6169

> <Gold.Chemscore.Internal.Correction>
   9.000000E+99

> <Gold.Chemscore.Hbonds>
donor molecule, donor type, donor heavy atom, donor atom, acceptor molecule, acceptor atom, score
      P1  H  6896  6907       L1     7  0.98
      P1  H  6931  6943       L1     5  0.21
      P1  H  6934  6947       L1     5  0.02
      P1  H  7997  8010       L1    11  0.35

> <Gold.Chemscore.Hbond.Weighted>
-7.3330

> <Gold.Chemscore.Metal.Weighted>
-0.0000

> <Gold.Chemscore.Lipo.Weighted>
-11.9065

> <Gold.Chemscore.Internal_Hbond.Weighted>
0.0000

> <Gold.Chemscore.DEClash.Weighted>
0.0726

> <Gold.Chemscore.DEInternal.Weighted>
2.8895

> <Gold.Chemscore.Rot.Weighted>
4.1393

> <Gold.Chemscore.Internal.Correction.Weighted>
   9.000000E+99

> <Gold.Protein.RotatedTorsions>
[ 6907 6896 6895 6894 ] final  -73.32 input  -60.11 | X-H torsion
[ 7974 7965 7964 7962 ] final   93.15 input  175.53 | X-H torsion
[ 8008 7997 7996 7995 ] final   52.45 input   59.86 | X-H torsion
[ 10167 10162 10161 10158 ] final   28.05 input  -65.29 | X-H torsion
[ 10718 10713 10712 10709 ] final -179.71 input   66.30 | X-H torsion
[ 10763 10752 10751 10750 ] final   99.46 input  -60.55 | X-H torsion
[ 11005 11000 10999 10996 ] final -131.80 input  -57.11 | X-H torsion

> <Gold.Protein.ActiveResidues>
 VAL166  LYS551  ARG553  GLY616  TRP617  ASP618  TYR619  PRO620  LYS621  CYS622 
 ASP623  PHE694  ASN695  SER759  ASP760  ASP761  ALA762  ILE779  LEU786  VAL792 
 PHE793  MET794  SER795  GLU796  ALA797  LYS798  CYS799  TRP800  GLU811  SER814 

> <Gold.Protein.RotatedAtoms>
  150.7135  134.5034  159.5571 H   0  0  0  0  0  0  0  0  0  0  0  0  # atno 6907 bound_to 6896
  152.2626  134.8015  160.0437 H   0  0  0  0  0  0  0  0  0  0  0  0  # atno 6908 bound_to 6896
  151.8723  133.3443  159.3775 H   0  0  0  0  0  0  0  0  0  0  0  0  # atno 6909 bound_to 6896
  145.4827  139.2278  143.2873 H   0  0  0  0  0  0  0  0  0  0  0  0  # atno 7974 bound_to 7965
  155.4520  140.3458  155.4302 H   0  0  0  0  0  0  0  0  0  0  0  0  # atno 8008 bound_to 7997
  156.1214  140.1488  156.9228 H   0  0  0  0  0  0  0  0  0  0  0  0  # atno 8009 bound_to 7997
  154.4826  140.0865  156.7393 H   0  0  0  0  0  0  0  0  0  0  0  0  # atno 8010 bound_to 7997
  140.4886  144.0502  150.6289 H   0  0  0  0  0  0  0  0  0  0  0  0  # atno 10167 bound_to 10162
  156.8631  130.9758  151.3081 H   0  0  0  0  0  0  0  0  0  0  0  0  # atno 10718 bound_to 10713
  153.3016  135.4113  155.1258 H   0  0  0  0  0  0  0  0  0  0  0  0  # atno 10763 bound_to 10752
  154.8551  135.3543  154.5843 H   0  0  0  0  0  0  0  0  0  0  0  0  # atno 10764 bound_to 10752
  153.6269  135.7062  153.5348 H   0  0  0  0  0  0  0  0  0  0  0  0  # atno 10765 bound_to 10752
  140.9227  134.1423  157.4301 H   0  0  0  0  0  0  0  0  0  0  0  0  # atno 11005 bound_to 11000
  146.2331  140.5615  142.8966 LP  0  0  0  0  0  0  0  0  0  0  0  0  # atno 17320 bound_to 7965
  144.7879  140.5974  143.6561 LP  0  0  0  0  0  0  0  0  0  0  0  0  # atno 17321 bound_to 7965
  140.3765  143.2826  152.0219 LP  0  0  0  0  0  0  0  0  0  0  0  0  # atno 17342 bound_to 10162
  139.4847  144.6189  151.7294 LP  0  0  0  0  0  0  0  0  0  0  0  0  # atno 17343 bound_to 10162
  157.6239  130.8676  149.9155 LP  0  0  0  0  0  0  0  0  0  0  0  0  # atno 17370 bound_to 10713
  156.0766  130.3678  150.0665 LP  0  0  0  0  0  0  0  0  0  0  0  0  # atno 17371 bound_to 10713
  139.8779  134.9977  156.5861 LP  0  0  0  0  0  0  0  0  0  0  0  0  # atno 17394 bound_to 11000
  140.7967  133.8538  155.8691 LP  0  0  0  0  0  0  0  0  0  0  0  0  # atno 17395 bound_to 11000

$$$$
