AV-unprocessed.smi:1588|AV-procd|sdf|6390|dock4
  -GOLD-   22720 7 23D 1   1.00000     0.00000
 Structure written by MMmdl.
 37 38  0  0  0  0  0  0  0  0  2 V2000
  145.9097  132.3270  150.2246 C   0  0  0  0  0  0  0  0  0  0  0  0
  145.8609  131.6753  151.6133 C   0  0  0  0  0  0  0  0  0  0  0  0
  147.2159  131.4389  152.1639 N   0  3  2  0  0  0  0  0  0  0  0  0
  147.2501  130.4916  153.2989 C   0  0  0  0  0  0  0  0  0  0  0  0
  148.4519  130.9122  154.1400 C   0  0  0  0  0  0  0  0  0  0  0  0
  148.4207  132.4333  154.0226 C   0  0  1  0  0  0  0  0  0  0  0  0
  149.7501  133.1164  154.3969 C   0  0  0  0  0  0  0  0  0  0  0  0
  149.7224  134.5521  154.1327 N   0  0  0  0  0  0  0  0  0  0  0  0
  150.4669  135.4752  154.7584 C   0  0  0  0  0  0  0  0  0  0  0  0
  151.2839  135.2081  155.6398 O   0  0  0  0  0  0  0  0  0  0  0  0
  150.2071  136.7083  154.2944 N   0  0  0  0  0  0  0  0  0  0  0  0
  150.8071  137.9261  154.7039 C   0  0  0  0  0  0  0  0  0  0  0  0
  150.3923  139.2165  154.2755 C   0  0  0  0  0  0  0  0  0  0  0  0
  151.1358  140.1688  154.8204 N   0  0  0  0  0  0  0  0  0  0  0  0
  152.0209  139.4988  155.5925 N   0  0  0  0  0  0  0  0  0  0  0  0
  151.8585  138.1316  155.5528 C   0  0  0  0  0  0  0  0  0  0  0  0
  147.9514  132.6594  152.5758 C   0  0  0  0  0  0  0  0  0  0  0  0
  152.7219  139.9835  156.1351 H   0  0  0  0  0  0  0  0  0  0  0  0
  144.9043  132.4527  149.8225 H   0  0  0  0  0  0  0  0  0  0  0  0
  146.4723  131.7124  149.5215 H   0  0  0  0  0  0  0  0  0  0  0  0
  146.3754  133.3121  150.2560 H   0  0  0  0  0  0  0  0  0  0  0  0
  145.2786  132.2865  152.3047 H   0  0  0  0  0  0  0  0  0  0  0  0
  145.3448  130.7177  151.5296 H   0  0  0  0  0  0  0  0  0  0  0  0
  146.3398  130.5917  153.8930 H   0  0  0  0  0  0  0  0  0  0  0  0
  147.3166  129.4583  152.9577 H   0  0  0  0  0  0  0  0  0  0  0  0
  148.3874  130.5648  155.1718 H   0  0  0  0  0  0  0  0  0  0  0  0
  149.3701  130.5143  153.7049 H   0  0  0  0  0  0  0  0  0  0  0  0
  147.6389  132.7971  154.6921 H   0  0  0  0  0  0  0  0  0  0  0  0
  149.9376  132.9845  155.4628 H   0  0  0  0  0  0  0  0  0  0  0  0
  150.5872  132.6424  153.8808 H   0  0  0  0  0  0  0  0  0  0  0  0
  149.0759  134.8687  153.4247 H   0  0  0  0  0  0  0  0  0  0  0  0
  149.5075  136.7859  153.5707 H   0  0  0  0  0  0  0  0  0  0  0  0
  149.5932  139.4881  153.6013 H   0  0  0  0  0  0  0  0  0  0  0  0
  152.4878  137.4583  156.1159 H   0  0  0  0  0  0  0  0  0  0  0  0
  148.8009  132.7690  151.9015 H   0  0  0  0  0  0  0  0  0  0  0  0
  147.3499  133.5662  152.4978 H   0  0  0  0  0  0  0  0  0  0  0  0
  147.7643  131.0149  151.4289 H   0  0  0  0  0  0  0  0  0  0  0  0
  1  2  1  0  0  0  0
  1 19  1  0  0  0  0
  1 20  1  0  0  0  0
  1 21  1  0  0  0  0
  2  3  1  0  0  0  0
  2 22  1  0  0  0  0
  2 23  1  0  0  0  0
  3 17  1  0  0  0  0
  3  4  1  0  0  0  0
  3 37  1  0  0  0  0
  4  5  1  0  0  0  0
  4 24  1  0  0  0  0
  4 25  1  0  0  0  0
  5  6  1  0  0  0  0
  5 26  1  0  0  0  0
  5 27  1  0  0  0  0
  6  7  1  0  0  0  0
  6 17  1  0  0  0  0
  6 28  1  0  0  0  0
  7  8  1  0  0  0  0
  7 29  1  0  0  0  0
  7 30  1  0  0  0  0
  8  9  1  0  0  0  0
  8 31  1  0  0  0  0
  9 10  2  0  0  0  0
  9 11  1  0  0  0  0
 11 12  1  0  0  0  0
 11 32  1  0  0  0  0
 12 16  2  0  0  0  0
 12 13  1  0  0  0  0
 13 14  2  0  0  0  0
 13 33  1  0  0  0  0
 14 15  1  0  0  0  0
 15 18  1  0  0  0  0
 15 16  1  0  0  0  0
 16 34  1  0  0  0  0
 17 35  1  0  0  0  0
 17 36  1  0  0  0  0
M  CHG  1   3   1
M  END
> <s_m_source_file>
AV-unprocessed.smi

> <i_m_source_file_index>
1588

> <i_lp_mmshare_version>
43012

> <i_f3d_flags>
0

> <s_epik_input>
W0NIM11bQ0gyXU4xW0NIMl1bQ0gyXVtDQEhdKFtDSDJdMSlbQ0gyXVtOSF1DKD1PKVtOSF1jMltjSF1uW25IXVtjSF0y

> <s_epik_cmdline>
J2VwaWtfcHl0aG9uJywgJy1waCcsICc3LjAnLCAnLXRuJywgJzgnLCAnLW1hJywgJzIwMCcsICctbWV0YWxfYmluZGluZycsICctaW1hZScsICc8aW5maWxlLm1hZT4nLCAnLW9tYWUnLCAnPG91dGZpbGUubWFlPic=

> <r_lp_tautomer_probability>
0.5

> <r_epik_Ionization_Penalty>
0.000628417

> <r_epik_Ionization_Penalty_Charging>
0.000582718

> <r_epik_Ionization_Penalty_Neutral>
4.56984e-05

> <r_epik_State_Penalty>
0.000366292

> <r_epik_Charging_Adjusted_Penalty>
0.00094901

> <i_epik_Tot_Q>
1

> <i_epik_Tot_abs_Q>
1

> <r_epik_Metal_State_Penalty>
-0

> <b_epik_Metal_Only>
0

> <s_lp_Force_Field>
OPLS_2005

> <r_lp_Energy>
30.8561

> <b_lp_Chiralities_Consistent>
1

> <s_lp_Variant>
AV-unprocessed.smi:1588-2

> <Gold.Version>
5.8.1

> <Gold.Id.Protein>
6NUR|6NUR_protein|mol2

> <Gold.PLP.Fitness>
47.1332

> <Gold.PLP.PLP>
-30.9067

> <Gold.PLP.part.hbond>
-6.1422

> <Gold.PLP.part.metal>
0.0000

> <Gold.PLP.part.buried>
-0.5955

> <Gold.PLP.part.nonpolar>
-23.7022

> <Gold.PLP.part.repulsive>
0.4097

> <Gold.PLP.ligand.clash>
0.0000

> <Gold.PLP.ligand.torsion>
0.2995

> <Gold.PLP.Chemscore.Hbond>
4.6016

> <Gold.PLP.Chemscore.CHOScore>
1.0000

> <Gold.PLP.Chemscore.Metal>
0.0000

> <Gold.Chemscore.Hbonds>
donor molecule, donor type, donor heavy atom, donor atom, acceptor molecule, acceptor atom, score
      L1  H     3    37       P1 10747  1.00
      L1  H     8    31       P1  7948  0.71
      L1  H    11    32       P1  7948  0.90
      P1  H  7989  7998       L1    14  0.95
      P1  H 10752 10763       L1    10  1.00
      L1  C    13    33       P1  7957  1.00

> <Gold.PLP.Chemscore.Internal.Correction>
0.0206

> <Gold.Rescore>
     Score         DG    S(hbond)    S(metal)    S(lipo)     H(rot)  DE(clash)    DE(int)     intcor
     17.98     -19.79       3.11        0.00      68.09       1.58       0.42       1.39       ----

> <Gold.Chemscore.Fitness>
17.9768

> <Gold.Chemscore.DG>
-19.7861

> <Gold.Chemscore.ZeroCoef>
-5.4800

> <Gold.Chemscore.Hbond>
3.1054

> <Gold.Chemscore.Metal>
0.0000

> <Gold.Chemscore.Lipo>
68.0927

> <Gold.Chemscore.Internal_Hbond>
0.0000

> <Gold.Chemscore.DEClash>
0.4164

> <Gold.Chemscore.DEInternal>
1.3929

> <Gold.Chemscore.Rot>
1.5753

> <Gold.Chemscore.Internal.Correction>
   9.000000E+99

> <Gold.Chemscore.Hbonds>
donor molecule, donor type, donor heavy atom, donor atom, acceptor molecule, acceptor atom, score
      L1  H     3    37       P1 10747  0.99
      L1  H     8    31       P1  7948  0.13
      L1  H    11    32       P1  7948  0.72
      P1  H  7989  7998       L1    14  0.20
      P1  H 10752 10763       L1    10  0.43

> <Gold.Chemscore.Hbond.Weighted>
-10.3720

> <Gold.Chemscore.Metal.Weighted>
-0.0000

> <Gold.Chemscore.Lipo.Weighted>
-7.9668

> <Gold.Chemscore.Internal_Hbond.Weighted>
0.0000

> <Gold.Chemscore.DEClash.Weighted>
0.4164

> <Gold.Chemscore.DEInternal.Weighted>
1.3929

> <Gold.Chemscore.Rot.Weighted>
4.0328

> <Gold.Chemscore.Internal.Correction.Weighted>
   9.000000E+99

> <Gold.Protein.RotatedTorsions>
[ 6907 6896 6895 6894 ] final -164.48 input  -60.11 | X-H torsion
[ 7974 7965 7964 7962 ] final  -82.47 input  175.53 | X-H torsion
[ 8008 7997 7996 7995 ] final  -81.58 input   59.86 | X-H torsion
[ 10167 10162 10161 10158 ] final  -13.24 input  -65.29 | X-H torsion
[ 10718 10713 10712 10709 ] final   87.69 input   66.30 | X-H torsion
[ 10763 10752 10751 10750 ] final   72.50 input  -60.55 | X-H torsion
[ 11005 11000 10999 10996 ] final -123.01 input  -57.11 | X-H torsion

> <Gold.Protein.ActiveResidues>
 VAL166  LYS551  ARG553  GLY616  TRP617  ASP618  TYR619  PRO620  LYS621  CYS622 
 ASP623  PHE694  ASN695  SER759  ASP760  ASP761  ALA762  ILE779  LEU786  VAL792 
 PHE793  MET794  SER795  GLU796  ALA797  LYS798  CYS799  TRP800  GLU811  SER814 

> <Gold.Protein.RotatedAtoms>
  151.4125  133.3723  159.2745 H   0  0  0  0  0  0  0  0  0  0  0  0  # atno 6907 bound_to 6896
  150.9353  134.8767  159.7588 H   0  0  0  0  0  0  0  0  0  0  0  0  # atno 6908 bound_to 6896
  152.5047  134.4072  159.9488 H   0  0  0  0  0  0  0  0  0  0  0  0  # atno 6909 bound_to 6896
  145.5328  140.9519  143.1593 H   0  0  0  0  0  0  0  0  0  0  0  0  # atno 7974 bound_to 7965
  154.5998  140.0646  156.9353 H   0  0  0  0  0  0  0  0  0  0  0  0  # atno 8008 bound_to 7997
  155.2152  140.3326  155.4305 H   0  0  0  0  0  0  0  0  0  0  0  0  # atno 8009 bound_to 7997
  156.2311  140.1841  156.7225 H   0  0  0  0  0  0  0  0  0  0  0  0  # atno 8010 bound_to 7997
  140.7178  143.5447  150.9369 H   0  0  0  0  0  0  0  0  0  0  0  0  # atno 10167 bound_to 10162
  157.6942  131.0265  150.3161 H   0  0  0  0  0  0  0  0  0  0  0  0  # atno 10718 bound_to 10713
  153.0462  135.5098  154.7753 H   0  0  0  0  0  0  0  0  0  0  0  0  # atno 10763 bound_to 10752
  154.6650  135.2944  154.9819 H   0  0  0  0  0  0  0  0  0  0  0  0  # atno 10764 bound_to 10752
  154.0656  135.6684  153.4870 H   0  0  0  0  0  0  0  0  0  0  0  0  # atno 10765 bound_to 10752
  140.9951  134.0483  157.3607 H   0  0  0  0  0  0  0  0  0  0  0  0  # atno 11005 bound_to 11000
  144.7617  139.6941  143.7232 LP  0  0  0  0  0  0  0  0  0  0  0  0  # atno 17320 bound_to 7965
  146.2033  139.5341  142.9729 LP  0  0  0  0  0  0  0  0  0  0  0  0  # atno 17321 bound_to 7965
  139.9170  143.6652  152.3104 LP  0  0  0  0  0  0  0  0  0  0  0  0  # atno 17342 bound_to 10162
  139.7055  144.7628  151.1201 LP  0  0  0  0  0  0  0  0  0  0  0  0  # atno 17343 bound_to 10162
  156.3655  130.3854  149.7217 LP  0  0  0  0  0  0  0  0  0  0  0  0  # atno 17370 bound_to 10713
  156.4648  130.7969  151.2988 LP  0  0  0  0  0  0  0  0  0  0  0  0  # atno 17371 bound_to 10713
  139.9011  135.0164  156.7271 LP  0  0  0  0  0  0  0  0  0  0  0  0  # atno 17394 bound_to 11000
  140.6978  133.9333  155.8005 LP  0  0  0  0  0  0  0  0  0  0  0  0  # atno 17395 bound_to 11000

$$$$
