AV-unprocessed.smi:266|AV-procd|sdf|2035|dock1
  -GOLD-   2262021243D 1   1.00000     0.00000
 Structure written by MMmdl.
 52 55  0  0  0  0  0  0  0  0  1 V2000
  146.3636  142.6632  155.2285 C   0  0  0  0  0  0  0  0  0  0  0  0
  146.1843  141.2276  154.7105 C   0  0  2  0  0  0  0  0  0  0  0  0
  145.6692  140.4406  155.7812 O   0  0  0  0  0  0  0  0  0  0  0  0
  146.1171  139.1063  155.6226 C   0  0  0  0  0  0  0  0  0  0  0  0
  147.5567  139.2980  155.1712 C   0  0  0  0  0  0  0  0  0  0  0  0
  147.4649  140.4915  154.2235 C   0  0  1  0  0  0  0  0  0  0  0  0
  147.2030  139.9923  152.9220 O   0  0  0  0  0  0  0  0  0  0  0  0
  148.7647  141.3364  154.1600 C   0  0  0  0  0  0  0  0  0  0  0  0
  149.5667  141.2593  155.3720 N   0  0  0  0  0  0  0  0  0  0  0  0
  149.3226  141.9032  156.5635 C   0  0  0  0  0  0  0  0  0  0  0  0
  150.1929  141.6737  157.5078 N   0  0  0  0  0  0  0  0  0  0  0  0
  151.1025  140.7953  156.9302 C   0  0  0  0  0  0  0  0  0  0  0  0
  152.2862  140.1405  157.3807 C   0  0  0  0  0  0  0  0  0  0  0  0
  152.8227  140.2511  158.6197 N   0  0  0  0  0  0  0  0  0  0  0  0
  152.2254  141.3375  159.3838 C   0  0  0  0  0  0  0  0  0  0  0  0
  153.1627  139.0319  159.3531 C   0  0  0  0  0  0  0  0  0  0  0  0
  153.7527  139.2891  160.7566 C   0  0  1  0  0  0  0  0  0  0  0  0
  154.1079  137.9905  161.5094 C   0  0  0  0  0  0  0  0  0  0  0  0
  154.9457  138.3526  162.7392 C   0  0  0  0  0  0  0  0  0  0  0  0
  155.9479  139.8025  162.2426 S   0  0  0  0  0  0  0  0  0  0  0  0
  155.7284  140.8894  163.2087 O   0  0  0  0  0  0  0  0  0  0  0  0
  157.3072  139.3634  161.8922 O   0  0  0  0  0  0  0  0  0  0  0  0
  155.0203  140.1546  160.7010 C   0  0  0  0  0  0  0  0  0  0  0  0
  152.9435  139.3476  156.4973 N   0  0  0  0  0  0  0  0  0  0  0  0
  152.4685  139.1820  155.2596 C   0  0  0  0  0  0  0  0  0  0  0  0
  151.3764  139.7131  154.7072 N   0  0  0  0  0  0  0  0  0  0  0  0
  150.7214  140.5261  155.5847 C   0  0  0  0  0  0  0  0  0  0  0  0
  146.7516  143.3223  154.4517 H   0  0  0  0  0  0  0  0  0  0  0  0
  147.0429  142.6996  156.0804 H   0  0  0  0  0  0  0  0  0  0  0  0
  145.4085  143.0741  155.5561 H   0  0  0  0  0  0  0  0  0  0  0  0
  145.4303  141.2401  153.9210 H   0  0  0  0  0  0  0  0  0  0  0  0
  146.0362  138.5407  156.5510 H   0  0  0  0  0  0  0  0  0  0  0  0
  145.5256  138.6046  154.8552 H   0  0  0  0  0  0  0  0  0  0  0  0
  148.1605  139.5553  156.0421 H   0  0  0  0  0  0  0  0  0  0  0  0
  147.9900  138.4048  154.7188 H   0  0  0  0  0  0  0  0  0  0  0  0
  148.0198  139.9454  152.4493 H   0  0  0  0  0  0  0  0  0  0  0  0
  149.3866  141.0163  153.3229 H   0  0  0  0  0  0  0  0  0  0  0  0
  148.5298  142.3865  153.9857 H   0  0  0  0  0  0  0  0  0  0  0  0
  148.4761  142.5585  156.7092 H   0  0  0  0  0  0  0  0  0  0  0  0
  152.3937  142.2969  158.8936 H   0  0  0  0  0  0  0  0  0  0  0  0
  152.6604  141.3941  160.3819 H   0  0  0  0  0  0  0  0  0  0  0  0
  151.1501  141.1885  159.4906 H   0  0  0  0  0  0  0  0  0  0  0  0
  152.2580  138.4314  159.4563 H   0  0  0  0  0  0  0  0  0  0  0  0
  153.8483  138.4296  158.7576 H   0  0  0  0  0  0  0  0  0  0  0  0
  153.0333  139.8339  161.3684 H   0  0  0  0  0  0  0  0  0  0  0  0
  153.2173  137.4273  161.7906 H   0  0  0  0  0  0  0  0  0  0  0  0
  154.6983  137.3466  160.8564 H   0  0  0  0  0  0  0  0  0  0  0  0
  154.3048  138.6529  163.5685 H   0  0  0  0  0  0  0  0  0  0  0  0
  155.5918  137.5403  163.0719 H   0  0  0  0  0  0  0  0  0  0  0  0
  155.6542  139.8717  159.8603 H   0  0  0  0  0  0  0  0  0  0  0  0
  154.8028  141.2204  160.6278 H   0  0  0  0  0  0  0  0  0  0  0  0
  153.0457  138.5303  154.6205 H   0  0  0  0  0  0  0  0  0  0  0  0
  1  2  1  0  0  0  0
  1 28  1  0  0  0  0
  1 29  1  0  0  0  0
  1 30  1  0  0  0  0
  2  6  1  0  0  0  0
  2  3  1  0  0  0  0
  2 31  1  0  0  0  0
  3  4  1  0  0  0  0
  4  5  1  0  0  0  0
  4 32  1  0  0  0  0
  4 33  1  0  0  0  0
  5  6  1  0  0  0  0
  5 34  1  0  0  0  0
  5 35  1  0  0  0  0
  6  7  1  0  0  0  0
  6  8  1  0  0  0  0
  7 36  1  0  0  0  0
  8  9  1  0  0  0  0
  8 37  1  0  0  0  0
  8 38  1  0  0  0  0
  9 27  1  0  0  0  0
  9 10  1  0  0  0  0
 10 11  2  0  0  0  0
 10 39  1  0  0  0  0
 11 12  1  0  0  0  0
 12 27  2  0  0  0  0
 12 13  1  0  0  0  0
 13 14  1  0  0  0  0
 13 24  2  0  0  0  0
 14 15  1  0  0  0  0
 14 16  1  0  0  0  0
 15 40  1  0  0  0  0
 15 41  1  0  0  0  0
 15 42  1  0  0  0  0
 16 17  1  0  0  0  0
 16 43  1  0  0  0  0
 16 44  1  0  0  0  0
 17 23  1  0  0  0  0
 17 18  1  0  0  0  0
 17 45  1  0  0  0  0
 18 19  1  0  0  0  0
 18 46  1  0  0  0  0
 18 47  1  0  0  0  0
 19 20  1  0  0  0  0
 19 48  1  0  0  0  0
 19 49  1  0  0  0  0
 20 21  2  0  0  0  0
 20 22  2  0  0  0  0
 20 23  1  0  0  0  0
 23 50  1  0  0  0  0
 23 51  1  0  0  0  0
 24 25  1  0  0  0  0
 25 26  2  0  0  0  0
 25 52  1  0  0  0  0
 26 27  1  0  0  0  0
M  END
> <s_m_source_file>
AV-unprocessed.smi

> <i_m_source_file_index>
266

> <i_lp_mmshare_version>
43012

> <i_f3d_flags>
0

> <s_epik_input>
W0NIMl0xW0NIMl1PW0NAQEhdKFtDSDNdKVtDQEBdMShbT0hdKVtDSDJdbihbY0hdbjIpYyhjMjMpbltjSF1uYzNOKFtDSDNdKVtDSDJdW0NAQEhdKFtDSDJdNClbQ0gyXVtDSDJdUzQoPU8pPU8=

> <s_epik_cmdline>
J2VwaWtfcHl0aG9uJywgJy1waCcsICc3LjAnLCAnLXRuJywgJzgnLCAnLW1hJywgJzIwMCcsICctbWV0YWxfYmluZGluZycsICctaW1hZScsICc8aW5maWxlLm1hZT4nLCAnLW9tYWUnLCAnPG91dGZpbGUubWFlPic=

> <r_lp_tautomer_probability>
1

> <r_epik_Ionization_Penalty>
0.00155497

> <r_epik_Ionization_Penalty_Charging>
0

> <r_epik_Ionization_Penalty_Neutral>
0.00155497

> <r_epik_State_Penalty>
-0

> <r_epik_Charging_Adjusted_Penalty>
0

> <i_epik_Tot_Q>
0

> <i_epik_Tot_abs_Q>
0

> <r_epik_Metal_State_Penalty>
-0

> <b_epik_Metal_Only>
0

> <s_lp_Force_Field>
OPLS_2005

> <r_lp_Energy>
31.7586

> <b_lp_Chiralities_Consistent>
1

> <s_lp_Variant>
AV-unprocessed.smi:266-5

> <Gold.Version>
5.8.1

> <Gold.Id.Protein>
6NUR|6NUR_protein|mol2

> <Gold.PLP.Fitness>
46.9189

> <Gold.PLP.PLP>
-37.9576

> <Gold.PLP.part.hbond>
-4.2192

> <Gold.PLP.part.metal>
0.0000

> <Gold.PLP.part.buried>
-2.2459

> <Gold.PLP.part.nonpolar>
-31.0721

> <Gold.PLP.part.repulsive>
0.1962

> <Gold.PLP.ligand.clash>
0.0000

> <Gold.PLP.ligand.torsion>
1.2104

> <Gold.PLP.Chemscore.Hbond>
2.9500

> <Gold.PLP.Chemscore.CHOScore>
0.6019

> <Gold.PLP.Chemscore.Metal>
0.0000

> <Gold.Chemscore.Hbonds>
donor molecule, donor type, donor heavy atom, donor atom, acceptor molecule, acceptor atom, score
      L1  H     7    36       P1  7957  0.99
      P1  H  7989  7998       L1    26  0.90
      P1  H  7997  8008       L1    24  1.00
      L1  C    10    39       P1  8028  0.62

> <Gold.PLP.Chemscore.Internal.Correction>
0.7263

> <Gold.Rescore>
     Score         DG    S(hbond)    S(metal)    S(lipo)     H(rot)  DE(clash)    DE(int)     intcor
      9.50     -12.47       1.74        0.00      70.54       2.76       0.36       2.61       ----

> <Gold.Chemscore.Fitness>
9.5004

> <Gold.Chemscore.DG>
-12.4701

> <Gold.Chemscore.ZeroCoef>
-5.4800

> <Gold.Chemscore.Hbond>
1.7403

> <Gold.Chemscore.Metal>
0.0000

> <Gold.Chemscore.Lipo>
70.5355

> <Gold.Chemscore.Internal_Hbond>
0.0000

> <Gold.Chemscore.DEClash>
0.3566

> <Gold.Chemscore.DEInternal>
2.6131

> <Gold.Chemscore.Rot>
2.7637

> <Gold.Chemscore.Internal.Correction>
   9.000000E+99

> <Gold.Chemscore.Hbonds>
donor molecule, donor type, donor heavy atom, donor atom, acceptor molecule, acceptor atom, score
      L1  H     7    36       P1  7957  0.92
      P1  H  7989  7998       L1    26  0.17
      P1  H  7997  8008       L1    24  0.12

> <Gold.Chemscore.Hbond.Weighted>
-5.8125

> <Gold.Chemscore.Metal.Weighted>
-0.0000

> <Gold.Chemscore.Lipo.Weighted>
-8.2527

> <Gold.Chemscore.Internal_Hbond.Weighted>
0.0000

> <Gold.Chemscore.DEClash.Weighted>
0.3566

> <Gold.Chemscore.DEInternal.Weighted>
2.6131

> <Gold.Chemscore.Rot.Weighted>
7.0750

> <Gold.Chemscore.Internal.Correction.Weighted>
   9.000000E+99

> <Gold.Protein.RotatedTorsions>
[ 6907 6896 6895 6894 ] final   50.09 input  -60.11 | X-H torsion
[ 7974 7965 7964 7962 ] final -145.39 input  175.53 | X-H torsion
[ 8008 7997 7996 7995 ] final  -30.64 input   59.86 | X-H torsion
[ 10167 10162 10161 10158 ] final  -58.91 input  -65.29 | X-H torsion
[ 10718 10713 10712 10709 ] final   71.27 input   66.30 | X-H torsion
[ 10763 10752 10751 10750 ] final  -60.54 input  -60.55 | X-H torsion
[ 11005 11000 10999 10996 ] final    9.21 input  -57.11 | X-H torsion

> <Gold.Protein.ActiveResidues>
 VAL166  LYS551  ARG553  GLY616  TRP617  ASP618  TYR619  PRO620  LYS621  CYS622 
 ASP623  PHE694  ASN695  SER759  ASP760  ASP761  ALA762  ILE779  LEU786  VAL792 
 PHE793  MET794  SER795  GLU796  ALA797  LYS798  CYS799  TRP800  GLU811  SER814 

> <Gold.Protein.RotatedAtoms>
  152.2980  134.7644  160.0363 H   0  0  0  0  0  0  0  0  0  0  0  0  # atno 6907 bound_to 6896
  151.8168  133.3384  159.3580 H   0  0  0  0  0  0  0  0  0  0  0  0  # atno 6908 bound_to 6896
  150.7260  134.5541  159.5854 H   0  0  0  0  0  0  0  0  0  0  0  0  # atno 6909 bound_to 6896
  144.8230  140.5589  143.5565 H   0  0  0  0  0  0  0  0  0  0  0  0  # atno 7974 bound_to 7965
  154.4243  140.1786  156.1438 H   0  0  0  0  0  0  0  0  0  0  0  0  # atno 8008 bound_to 7997
  155.9970  140.3363  155.6783 H   0  0  0  0  0  0  0  0  0  0  0  0  # atno 8009 bound_to 7997
  155.6295  140.0668  157.2644 H   0  0  0  0  0  0  0  0  0  0  0  0  # atno 8010 bound_to 7997
  140.6168  143.2405  151.5578 H   0  0  0  0  0  0  0  0  0  0  0  0  # atno 10167 bound_to 10162
  157.6443  130.9520  150.0766 H   0  0  0  0  0  0  0  0  0  0  0  0  # atno 10718 bound_to 10713
  154.2707  135.6291  153.5309 H   0  0  0  0  0  0  0  0  0  0  0  0  # atno 10763 bound_to 10752
  152.9880  135.5609  154.5603 H   0  0  0  0  0  0  0  0  0  0  0  0  # atno 10764 bound_to 10752
  154.5172  135.2880  155.1268 H   0  0  0  0  0  0  0  0  0  0  0  0  # atno 10765 bound_to 10752
  140.5283  134.0492  155.7865 H   0  0  0  0  0  0  0  0  0  0  0  0  # atno 11005 bound_to 11000
  145.5062  139.1481  143.3630 LP  0  0  0  0  0  0  0  0  0  0  0  0  # atno 17320 bound_to 7965
  146.2536  140.5202  142.8883 LP  0  0  0  0  0  0  0  0  0  0  0  0  # atno 17321 bound_to 7965
  139.5405  144.2661  152.1341 LP  0  0  0  0  0  0  0  0  0  0  0  0  # atno 17342 bound_to 10162
  140.1872  144.4787  150.6498 LP  0  0  0  0  0  0  0  0  0  0  0  0  # atno 17343 bound_to 10162
  156.1754  130.3648  149.9107 LP  0  0  0  0  0  0  0  0  0  0  0  0  # atno 17370 bound_to 10713
  156.7072  130.8956  151.3605 LP  0  0  0  0  0  0  0  0  0  0  0  0  # atno 17371 bound_to 10713
  141.1296  133.9325  157.2564 LP  0  0  0  0  0  0  0  0  0  0  0  0  # atno 17394 bound_to 11000
  139.9568  135.0163  156.9151 LP  0  0  0  0  0  0  0  0  0  0  0  0  # atno 17395 bound_to 11000

$$$$
