AV-unprocessed.smi:716|AV-procd|sdf|3486|dock6
  -GOLD-   22720 0483D 1   1.00000     0.00000
 Structure written by MMmdl.
 48 50  0  0  0  0  0  0  0  0  1 V2000
  152.6704  142.7564  159.4235 C   0  0  0  0  0  0  0  0  0  0  0  0
  151.3827  142.4057  158.6752 C   0  0  0  0  0  0  0  0  0  0  0  0
  151.6338  141.3017  157.8215 O   0  0  0  0  0  0  0  0  0  0  0  0
  150.4661  140.8385  157.1539 C   0  0  2  0  0  0  0  0  0  0  0  0
  149.4455  140.2273  158.1226 C   0  0  0  0  0  0  0  0  0  0  0  0
  150.1991  138.9097  157.9367 C   0  0  1  0  0  0  0  0  0  0  0  0
  149.3056  137.7590  157.9072 N   0  0  0  0  0  0  0  0  0  0  0  0
  149.4378  136.6700  158.6771 C   0  0  0  0  0  0  0  0  0  0  0  0
  150.3119  136.5462  159.5345 O   0  0  0  0  0  0  0  0  0  0  0  0
  148.4345  135.5391  158.4341 C   0  0  0  0  0  0  0  0  0  0  0  0
  148.0009  134.9323  159.6994 N   0  0  0  0  0  0  0  0  0  0  0  0
  148.0415  133.5474  159.7057 N   0  0  0  0  0  0  0  0  0  0  0  0
  147.6439  132.8734  160.7344 C   0  0  0  0  0  0  0  0  0  0  0  0
  147.7089  131.3772  160.6517 C   0  0  0  0  0  0  0  0  0  0  0  0
  147.1582  133.5775  161.9057 C   0  0  0  0  0  0  0  0  0  0  0  0
  147.1220  134.9271  161.8989 C   0  0  0  0  0  0  0  0  0  0  0  0
  147.5572  135.7011  160.7388 C   0  0  0  0  0  0  0  0  0  0  0  0
  147.5145  136.9305  160.6945 O   0  0  0  0  0  0  0  0  0  0  0  0
  150.6594  139.4277  156.5455 C   0  0  0  0  0  0  0  0  0  0  0  0
  149.8113  139.1016  155.3079 C   0  0  0  0  0  0  0  0  0  0  0  0
  150.4665  137.9181  154.5908 C   0  0  0  0  0  0  0  0  0  0  0  0
  151.9178  137.8868  155.0734 C   0  0  0  0  0  0  0  0  0  0  0  0
  152.0590  139.0420  156.0692 C   0  0  0  0  0  0  0  0  0  0  0  0
  152.5129  143.6006  160.0951 H   0  0  0  0  0  0  0  0  0  0  0  0
  153.4660  143.0245  158.7279 H   0  0  0  0  0  0  0  0  0  0  0  0
  153.0169  141.9132  160.0214 H   0  0  0  0  0  0  0  0  0  0  0  0
  150.5934  142.1677  159.3890 H   0  0  0  0  0  0  0  0  0  0  0  0
  151.0482  143.2622  158.0881 H   0  0  0  0  0  0  0  0  0  0  0  0
  150.0509  141.5638  156.4521 H   0  0  0  0  0  0  0  0  0  0  0  0
  149.4664  140.6217  159.1386 H   0  0  0  0  0  0  0  0  0  0  0  0
  148.4328  140.2157  157.7152 H   0  0  0  0  0  0  0  0  0  0  0  0
  151.0233  138.8152  158.6479 H   0  0  0  0  0  0  0  0  0  0  0  0
  148.5590  137.7739  157.2271 H   0  0  0  0  0  0  0  0  0  0  0  0
  147.5728  135.9434  157.8997 H   0  0  0  0  0  0  0  0  0  0  0  0
  148.8672  134.7943  157.7631 H   0  0  0  0  0  0  0  0  0  0  0  0
  147.3375  130.9146  161.5663 H   0  0  0  0  0  0  0  0  0  0  0  0
  148.7347  131.0400  160.5000 H   0  0  0  0  0  0  0  0  0  0  0  0
  147.1044  131.0082  159.8226 H   0  0  0  0  0  0  0  0  0  0  0  0
  146.8315  133.0199  162.7711 H   0  0  0  0  0  0  0  0  0  0  0  0
  146.7600  135.4507  162.7716 H   0  0  0  0  0  0  0  0  0  0  0  0
  148.7670  138.8948  155.5439 H   0  0  0  0  0  0  0  0  0  0  0  0
  149.8053  139.9583  154.6330 H   0  0  0  0  0  0  0  0  0  0  0  0
  149.9704  136.9863  154.8596 H   0  0  0  0  0  0  0  0  0  0  0  0
  150.3975  138.0205  153.5075 H   0  0  0  0  0  0  0  0  0  0  0  0
  152.1256  136.9345  155.5624 H   0  0  0  0  0  0  0  0  0  0  0  0
  152.6226  137.9881  154.2475 H   0  0  0  0  0  0  0  0  0  0  0  0
  152.5255  139.8911  155.5681 H   0  0  0  0  0  0  0  0  0  0  0  0
  152.7158  138.7684  156.8956 H   0  0  0  0  0  0  0  0  0  0  0  0
  1  2  1  0  0  0  0
  1 24  1  0  0  0  0
  1 25  1  0  0  0  0
  1 26  1  0  0  0  0
  2  3  1  0  0  0  0
  2 27  1  0  0  0  0
  2 28  1  0  0  0  0
  3  4  1  0  0  0  0
  4 19  1  0  0  0  0
  4  5  1  0  0  0  0
  4 29  1  0  0  0  0
  5  6  1  0  0  0  0
  5 30  1  0  0  0  0
  5 31  1  0  0  0  0
  6  7  1  0  0  0  0
  6 19  1  0  0  0  0
  6 32  1  0  0  0  0
  7  8  1  0  0  0  0
  7 33  1  0  0  0  0
  8  9  2  0  0  0  0
  8 10  1  0  0  0  0
 10 11  1  0  0  0  0
 10 34  1  0  0  0  0
 10 35  1  0  0  0  0
 11 17  1  0  0  0  0
 11 12  1  0  0  0  0
 12 13  2  0  0  0  0
 13 14  1  0  0  0  0
 13 15  1  0  0  0  0
 14 36  1  0  0  0  0
 14 37  1  0  0  0  0
 14 38  1  0  0  0  0
 15 16  2  0  0  0  0
 15 39  1  0  0  0  0
 16 17  1  0  0  0  0
 16 40  1  0  0  0  0
 17 18  2  0  0  0  0
 19 23  1  0  0  0  0
 19 20  1  0  0  0  0
 20 21  1  0  0  0  0
 20 41  1  0  0  0  0
 20 42  1  0  0  0  0
 21 22  1  0  0  0  0
 21 43  1  0  0  0  0
 21 44  1  0  0  0  0
 22 23  1  0  0  0  0
 22 45  1  0  0  0  0
 22 46  1  0  0  0  0
 23 47  1  0  0  0  0
 23 48  1  0  0  0  0
M  END
> <s_m_source_file>
AV-unprocessed.smi

> <i_m_source_file_index>
716

> <i_lp_mmshare_version>
43012

> <i_f3d_flags>
0

> <s_epik_input>
W0NIMl0xW0NIMl1bQ0gyXVtDSDJdQzEyW0NASF0oT1tDSDJdW0NIM10pW0NIMl1bQ0BIXTJbTkhdQyg9TylbQ0gyXW4zbmMoW0NIM10pW2NIXVtjSF1jMz1P

> <s_epik_cmdline>
J2VwaWtfcHl0aG9uJywgJy1waCcsICc3LjAnLCAnLXRuJywgJzgnLCAnLW1hJywgJzIwMCcsICctbWV0YWxfYmluZGluZycsICctaW1hZScsICc8aW5maWxlLm1hZT4nLCAnLW9tYWUnLCAnPG91dGZpbGUubWFlPic=

> <r_lp_tautomer_probability>
1

> <r_epik_Ionization_Penalty>
4.75561e-08

> <r_epik_Ionization_Penalty_Charging>
2.86617e-08

> <r_epik_Ionization_Penalty_Neutral>
1.88944e-08

> <r_epik_State_Penalty>
-0

> <r_epik_Charging_Adjusted_Penalty>
2.86617e-08

> <i_epik_Tot_Q>
0

> <i_epik_Tot_abs_Q>
0

> <r_epik_Metal_State_Penalty>
-0

> <b_epik_Metal_Only>
0

> <s_lp_Force_Field>
OPLS_2005

> <r_lp_Energy>
50.4804

> <b_lp_Chiralities_Consistent>
1

> <s_lp_Variant>
AV-unprocessed.smi:716-1

> <Gold.Version>
5.8.1

> <Gold.Id.Protein>
6NUR|6NUR_protein|mol2

> <Gold.PLP.Fitness>
47.8588

> <Gold.PLP.PLP>
-40.5549

> <Gold.PLP.part.hbond>
-3.0662

> <Gold.PLP.part.metal>
0.0000

> <Gold.PLP.part.buried>
-5.0609

> <Gold.PLP.part.nonpolar>
-33.6389

> <Gold.PLP.part.repulsive>
0.1162

> <Gold.PLP.ligand.clash>
0.0000

> <Gold.PLP.ligand.torsion>
0.5750

> <Gold.PLP.Chemscore.Hbond>
2.6960

> <Gold.PLP.Chemscore.CHOScore>
0.0000

> <Gold.PLP.Chemscore.Metal>
0.0000

> <Gold.Chemscore.Hbonds>
donor molecule, donor type, donor heavy atom, donor atom, acceptor molecule, acceptor atom, score
      P1  H  6896  6907       L1     9  1.00
      P1  H  6931  6943       L1    18  0.19
      P1  H  6934  6947       L1    18  0.75

> <Gold.PLP.Chemscore.Internal.Correction>
0.3659

> <Gold.Rescore>
     Score         DG    S(hbond)    S(metal)    S(lipo)     H(rot)  DE(clash)    DE(int)     intcor
     19.10     -21.06       2.70        0.00      93.92       1.73       0.02       1.94       ----

> <Gold.Chemscore.Fitness>
19.0985

> <Gold.Chemscore.DG>
-21.0555

> <Gold.Chemscore.ZeroCoef>
-5.4800

> <Gold.Chemscore.Hbond>
2.7028

> <Gold.Chemscore.Metal>
0.0000

> <Gold.Chemscore.Lipo>
93.9243

> <Gold.Chemscore.Internal_Hbond>
0.0000

> <Gold.Chemscore.DEClash>
0.0210

> <Gold.Chemscore.DEInternal>
1.9360

> <Gold.Chemscore.Rot>
1.7348

> <Gold.Chemscore.Internal.Correction>
   9.000000E+99

> <Gold.Chemscore.Hbonds>
donor molecule, donor type, donor heavy atom, donor atom, acceptor molecule, acceptor atom, score
      P1  H  6896  6907       L1     9  0.99
      P1  H  6931  6943       L1    18  0.20
      P1  H  6934  6947       L1    18  0.72

> <Gold.Chemscore.Hbond.Weighted>
-9.0275

> <Gold.Chemscore.Metal.Weighted>
-0.0000

> <Gold.Chemscore.Lipo.Weighted>
-10.9891

> <Gold.Chemscore.Internal_Hbond.Weighted>
0.0000

> <Gold.Chemscore.DEClash.Weighted>
0.0210

> <Gold.Chemscore.DEInternal.Weighted>
1.9360

> <Gold.Chemscore.Rot.Weighted>
4.4411

> <Gold.Chemscore.Internal.Correction.Weighted>
   9.000000E+99

> <Gold.Protein.RotatedTorsions>
[ 6907 6896 6895 6894 ] final  -28.63 input  -60.11 | X-H torsion
[ 7974 7965 7964 7962 ] final   59.07 input  175.53 | X-H torsion
[ 8008 7997 7996 7995 ] final -144.33 input   59.86 | X-H torsion
[ 10167 10162 10161 10158 ] final  -18.09 input  -65.29 | X-H torsion
[ 10718 10713 10712 10709 ] final   45.03 input   66.30 | X-H torsion
[ 10763 10752 10751 10750 ] final   86.42 input  -60.55 | X-H torsion
[ 11005 11000 10999 10996 ] final  -97.05 input  -57.11 | X-H torsion

> <Gold.Protein.ActiveResidues>
 VAL166  LYS551  ARG553  GLY616  TRP617  ASP618  TYR619  PRO620  LYS621  CYS622 
 ASP623  PHE694  ASN695  SER759  ASP760  ASP761  ALA762  ILE779  LEU786  VAL792 
 PHE793  MET794  SER795  GLU796  ALA797  LYS798  CYS799  TRP800  GLU811  SER814 

> <Gold.Protein.RotatedAtoms>
  151.1303  135.0126  159.8578 H   0  0  0  0  0  0  0  0  0  0  0  0  # atno 6907 bound_to 6896
  152.5450  134.1619  159.8571 H   0  0  0  0  0  0  0  0  0  0  0  0  # atno 6908 bound_to 6896
  151.1685  133.4754  159.2627 H   0  0  0  0  0  0  0  0  0  0  0  0  # atno 6909 bound_to 6896
  145.9112  139.3655  143.0534 H   0  0  0  0  0  0  0  0  0  0  0  0  # atno 7974 bound_to 7965
  155.5252  140.0595  157.2899 H   0  0  0  0  0  0  0  0  0  0  0  0  # atno 8008 bound_to 7997
  154.4503  140.1945  156.0484 H   0  0  0  0  0  0  0  0  0  0  0  0  # atno 8009 bound_to 7997
  156.0691  140.3262  155.7557 H   0  0  0  0  0  0  0  0  0  0  0  0  # atno 8010 bound_to 7997
  140.7255  143.4950  150.9942 H   0  0  0  0  0  0  0  0  0  0  0  0  # atno 10167 bound_to 10162
  157.4331  130.8037  149.7622 H   0  0  0  0  0  0  0  0  0  0  0  0  # atno 10718 bound_to 10713
  153.1568  135.4581  154.9716 H   0  0  0  0  0  0  0  0  0  0  0  0  # atno 10763 bound_to 10752
  154.7868  135.3206  154.7871 H   0  0  0  0  0  0  0  0  0  0  0  0  # atno 10764 bound_to 10752
  153.8367  135.6934  153.4862 H   0  0  0  0  0  0  0  0  0  0  0  0  # atno 10765 bound_to 10752
  141.1391  133.8143  157.0654 H   0  0  0  0  0  0  0  0  0  0  0  0  # atno 11005 bound_to 11000
  145.8669  140.9443  143.0671 LP  0  0  0  0  0  0  0  0  0  0  0  0  # atno 17320 bound_to 7965
  144.6743  140.0604  143.7476 LP  0  0  0  0  0  0  0  0  0  0  0  0  # atno 17321 bound_to 7965
  139.8657  143.7257  152.3170 LP  0  0  0  0  0  0  0  0  0  0  0  0  # atno 17342 bound_to 10162
  139.7488  144.7540  151.0538 LP  0  0  0  0  0  0  0  0  0  0  0  0  # atno 17343 bound_to 10162
  155.9921  130.3933  150.2958 LP  0  0  0  0  0  0  0  0  0  0  0  0  # atno 17370 bound_to 10713
  157.1116  131.0223  151.3045 LP  0  0  0  0  0  0  0  0  0  0  0  0  # atno 17371 bound_to 10713
  140.0544  134.9788  157.1195 LP  0  0  0  0  0  0  0  0  0  0  0  0  # atno 17394 bound_to 11000
  140.3941  134.2153  155.7165 LP  0  0  0  0  0  0  0  0  0  0  0  0  # atno 17395 bound_to 11000

$$$$
