AV-unprocessed.smi:1574|AV-procd|sdf|6336|dock2
  -GOLD-   22720 6553D 1   1.00000     0.00000
 Structure written by MMmdl.
 40 41  0  0  0  0  0  0  0  0  1 V2000
  151.1381  145.2460  159.4701 C   0  0  0  0  0  0  0  0  0  0  0  0
  152.2109  144.3240  160.0696 C   0  0  1  0  0  0  0  0  0  0  0  0
  151.8315  143.8623  161.4908 C   0  0  0  0  0  0  0  0  0  0  0  0
  152.9273  142.9804  162.1098 C   0  0  0  0  0  0  0  0  0  0  0  0
  153.2522  141.7785  161.2103 C   0  0  0  0  0  0  0  0  0  0  0  0
  153.6311  142.2310  159.7898 C   0  0  0  0  0  0  0  0  0  0  0  0
  152.5401  143.1162  159.1599 C   0  0  1  0  0  0  0  0  0  0  0  0
  151.3821  142.3097  158.9855 O   0  0  0  0  0  0  0  0  0  0  0  0
  150.5101  142.7354  157.9507 C   0  0  0  0  0  0  0  0  0  0  0  0
  150.6197  141.7613  156.7694 C   0  0  0  0  0  0  0  0  0  0  0  0
  149.5010  141.9144  155.8453 N   0  0  0  0  0  0  0  0  0  0  0  0
  149.3183  141.1999  154.7237 C   0  0  0  0  0  0  0  0  0  0  0  0
  150.0983  140.3315  154.3334 O   0  0  0  0  0  0  0  0  0  0  0  0
  148.0618  141.5130  153.9127 C   0  0  0  0  0  0  0  0  0  0  0  0
  147.2850  140.3101  153.6846 N   0  0  0  0  0  0  0  0  0  0  0  0
  147.0809  139.5955  152.5761 C   0  0  0  0  0  0  0  0  0  0  0  0
  146.2839  138.5620  152.8009 N   0  0  0  0  0  0  0  0  0  0  0  0
  145.9941  138.6759  154.1504 N   0  0  0  0  0  0  0  0  0  0  0  0
  146.5850  139.7115  154.6802 N   0  0  0  0  0  0  0  0  0  0  0  0
  150.1745  144.7416  159.3950 H   0  0  0  0  0  0  0  0  0  0  0  0
  151.4207  145.5813  158.4720 H   0  0  0  0  0  0  0  0  0  0  0  0
  150.9973  146.1333  160.0877 H   0  0  0  0  0  0  0  0  0  0  0  0
  153.1217  144.9186  160.1539 H   0  0  0  0  0  0  0  0  0  0  0  0
  151.6590  144.7287  162.1302 H   0  0  0  0  0  0  0  0  0  0  0  0
  150.8913  143.3103  161.4635 H   0  0  0  0  0  0  0  0  0  0  0  0
  153.8291  143.5738  162.2655 H   0  0  0  0  0  0  0  0  0  0  0  0
  152.6116  142.6325  163.0939 H   0  0  0  0  0  0  0  0  0  0  0  0
  154.0668  141.1986  161.6448 H   0  0  0  0  0  0  0  0  0  0  0  0
  152.3896  141.1119  161.1666 H   0  0  0  0  0  0  0  0  0  0  0  0
  154.5693  142.7858  159.8271 H   0  0  0  0  0  0  0  0  0  0  0  0
  153.8152  141.3610  159.1588 H   0  0  0  0  0  0  0  0  0  0  0  0
  152.9113  143.4765  158.1982 H   0  0  0  0  0  0  0  0  0  0  0  0
  149.4781  142.7859  158.3009 H   0  0  0  0  0  0  0  0  0  0  0  0
  150.7962  143.7393  157.6342 H   0  0  0  0  0  0  0  0  0  0  0  0
  151.5345  141.9690  156.2143 H   0  0  0  0  0  0  0  0  0  0  0  0
  150.6994  140.7317  157.1223 H   0  0  0  0  0  0  0  0  0  0  0  0
  148.8088  142.6108  156.0808 H   0  0  0  0  0  0  0  0  0  0  0  0
  147.4434  142.2327  154.4508 H   0  0  0  0  0  0  0  0  0  0  0  0
  148.3251  141.9660  152.9555 H   0  0  0  0  0  0  0  0  0  0  0  0
  147.5093  139.8334  151.6136 H   0  0  0  0  0  0  0  0  0  0  0  0
  1  2  1  0  0  0  0
  1 20  1  0  0  0  0
  1 21  1  0  0  0  0
  1 22  1  0  0  0  0
  2  7  1  0  0  0  0
  2  3  1  0  0  0  0
  2 23  1  0  0  0  0
  3  4  1  0  0  0  0
  3 24  1  0  0  0  0
  3 25  1  0  0  0  0
  4  5  1  0  0  0  0
  4 26  1  0  0  0  0
  4 27  1  0  0  0  0
  5  6  1  0  0  0  0
  5 28  1  0  0  0  0
  5 29  1  0  0  0  0
  6  7  1  0  0  0  0
  6 30  1  0  0  0  0
  6 31  1  0  0  0  0
  7  8  1  0  0  0  0
  7 32  1  0  0  0  0
  8  9  1  0  0  0  0
  9 10  1  0  0  0  0
  9 33  1  0  0  0  0
  9 34  1  0  0  0  0
 10 11  1  0  0  0  0
 10 35  1  0  0  0  0
 10 36  1  0  0  0  0
 11 12  1  0  0  0  0
 11 37  1  0  0  0  0
 12 13  2  0  0  0  0
 12 14  1  0  0  0  0
 14 15  1  0  0  0  0
 14 38  1  0  0  0  0
 14 39  1  0  0  0  0
 15 19  1  0  0  0  0
 15 16  1  0  0  0  0
 16 17  2  0  0  0  0
 16 40  1  0  0  0  0
 17 18  1  0  0  0  0
 18 19  2  0  0  0  0
M  END
> <s_m_source_file>
AV-unprocessed.smi

> <i_m_source_file_index>
1574

> <i_lp_mmshare_version>
43012

> <i_f3d_flags>
0

> <s_epik_input>
W0NIM11bQ0BASF0xW0NIMl1bQ0gyXVtDSDJdW0NIMl1bQ0BIXTFPW0NIMl1bQ0gyXVtOSF1DKD1PKVtDSDJdbjJbY0hdbm5uMg==

> <s_epik_cmdline>
J2VwaWtfcHl0aG9uJywgJy1waCcsICc3LjAnLCAnLXRuJywgJzgnLCAnLW1hJywgJzIwMCcsICctbWV0YWxfYmluZGluZycsICctaW1hZScsICc8aW5maWxlLm1hZT4nLCAnLW9tYWUnLCAnPG91dGZpbGUubWFlPic=

> <r_lp_tautomer_probability>
1

> <r_epik_Ionization_Penalty>
1.44269e-06

> <r_epik_Ionization_Penalty_Charging>
0

> <r_epik_Ionization_Penalty_Neutral>
1.44269e-06

> <r_epik_State_Penalty>
-0

> <r_epik_Charging_Adjusted_Penalty>
0

> <i_epik_Tot_Q>
0

> <i_epik_Tot_abs_Q>
0

> <r_epik_Metal_State_Penalty>
-0

> <b_epik_Metal_Only>
0

> <s_lp_Force_Field>
OPLS_2005

> <r_lp_Energy>
13.6049

> <b_lp_Chiralities_Consistent>
1

> <s_lp_Variant>
AV-unprocessed.smi:1574-2

> <Gold.Version>
5.8.1

> <Gold.Id.Protein>
6NUR|6NUR_protein|mol2

> <Gold.PLP.Fitness>
51.3929

> <Gold.PLP.PLP>
-44.7968

> <Gold.PLP.part.hbond>
-2.0000

> <Gold.PLP.part.metal>
0.0000

> <Gold.PLP.part.buried>
-2.7630

> <Gold.PLP.part.nonpolar>
-40.2203

> <Gold.PLP.part.repulsive>
0.7413

> <Gold.PLP.ligand.clash>
0.0000

> <Gold.PLP.ligand.torsion>
0.8392

> <Gold.PLP.Chemscore.Hbond>
1.7389

> <Gold.PLP.Chemscore.CHOScore>
1.0000

> <Gold.PLP.Chemscore.Metal>
0.0000

> <Gold.Chemscore.Hbonds>
donor molecule, donor type, donor heavy atom, donor atom, acceptor molecule, acceptor atom, score
      L1  H    11    37       P1  8028  0.39
      P1  H  7989  7998       L1    13  0.93
      L1  C    16    40       P1  7957  0.96

> <Gold.PLP.Chemscore.Internal.Correction>
0.0577

> <Gold.Rescore>
     Score         DG    S(hbond)    S(metal)    S(lipo)     H(rot)  DE(clash)    DE(int)     intcor
     14.51     -15.53       1.53        0.00     105.75       2.90       0.07       0.95       ----

> <Gold.Chemscore.Fitness>
14.5084

> <Gold.Chemscore.DG>
-15.5277

> <Gold.Chemscore.ZeroCoef>
-5.4800

> <Gold.Chemscore.Hbond>
1.5304

> <Gold.Chemscore.Metal>
0.0000

> <Gold.Chemscore.Lipo>
105.7508

> <Gold.Chemscore.Internal_Hbond>
0.0000

> <Gold.Chemscore.DEClash>
0.0679

> <Gold.Chemscore.DEInternal>
0.9514

> <Gold.Chemscore.Rot>
2.9050

> <Gold.Chemscore.Internal.Correction>
   9.000000E+99

> <Gold.Chemscore.Hbonds>
donor molecule, donor type, donor heavy atom, donor atom, acceptor molecule, acceptor atom, score
      L1  H    11    37       P1  8028  0.40
      P1  H  7989  7998       L1    13  0.86

> <Gold.Chemscore.Hbond.Weighted>
-5.1115

> <Gold.Chemscore.Metal.Weighted>
-0.0000

> <Gold.Chemscore.Lipo.Weighted>
-12.3728

> <Gold.Chemscore.Internal_Hbond.Weighted>
0.0000

> <Gold.Chemscore.DEClash.Weighted>
0.0679

> <Gold.Chemscore.DEInternal.Weighted>
0.9514

> <Gold.Chemscore.Rot.Weighted>
7.4367

> <Gold.Chemscore.Internal.Correction.Weighted>
   9.000000E+99

> <Gold.Protein.RotatedTorsions>
[ 6907 6896 6895 6894 ] final  120.28 input  -60.11 | X-H torsion
[ 7974 7965 7964 7962 ] final -148.47 input  175.53 | X-H torsion
[ 8008 7997 7996 7995 ] final    2.78 input   59.86 | X-H torsion
[ 10167 10162 10161 10158 ] final  -85.29 input  -65.29 | X-H torsion
[ 10718 10713 10712 10709 ] final   53.13 input   66.30 | X-H torsion
[ 10763 10752 10751 10750 ] final  -68.68 input  -60.55 | X-H torsion
[ 11005 11000 10999 10996 ] final -141.31 input  -57.11 | X-H torsion

> <Gold.Protein.ActiveResidues>
 VAL166  LYS551  ARG553  GLY616  TRP617  ASP618  TYR619  PRO620  LYS621  CYS622 
 ASP623  PHE694  ASN695  SER759  ASP760  ASP761  ALA762  ILE779  LEU786  VAL792 
 PHE793  MET794  SER795  GLU796  ALA797  LYS798  CYS799  TRP800  GLU811  SER814 

> <Gold.Protein.RotatedAtoms>
  152.4410  133.7447  159.6660 H   0  0  0  0  0  0  0  0  0  0  0  0  # atno 6907 bound_to 6896
  150.8300  133.8096  159.3108 H   0  0  0  0  0  0  0  0  0  0  0  0  # atno 6908 bound_to 6896
  151.5753  135.1063  160.0056 H   0  0  0  0  0  0  0  0  0  0  0  0  # atno 6909 bound_to 6896
  144.8027  140.5192  143.5696 H   0  0  0  0  0  0  0  0  0  0  0  0  # atno 7974 bound_to 7965
  154.6957  140.2662  155.6769 H   0  0  0  0  0  0  0  0  0  0  0  0  # atno 8008 bound_to 7997
  156.2747  140.2782  156.1474 H   0  0  0  0  0  0  0  0  0  0  0  0  # atno 8009 bound_to 7997
  155.0835  140.0373  157.2636 H   0  0  0  0  0  0  0  0  0  0  0  0  # atno 8010 bound_to 7997
  140.4051  143.2646  151.9091 H   0  0  0  0  0  0  0  0  0  0  0  0  # atno 10167 bound_to 10162
  157.5138  130.8519  149.8469 H   0  0  0  0  0  0  0  0  0  0  0  0  # atno 10718 bound_to 10713
  154.3926  135.6049  153.5851 H   0  0  0  0  0  0  0  0  0  0  0  0  # atno 10763 bound_to 10752
  152.9787  135.5887  154.4280 H   0  0  0  0  0  0  0  0  0  0  0  0  # atno 10764 bound_to 10752
  154.4066  135.2843  155.2041 H   0  0  0  0  0  0  0  0  0  0  0  0  # atno 10765 bound_to 10752
  140.8336  134.2487  157.4845 H   0  0  0  0  0  0  0  0  0  0  0  0  # atno 11005 bound_to 11000
  145.5513  139.1477  143.3393 LP  0  0  0  0  0  0  0  0  0  0  0  0  # atno 17320 bound_to 7965
  146.2312  140.5651  142.8974 LP  0  0  0  0  0  0  0  0  0  0  0  0  # atno 17321 bound_to 7965
  139.4783  144.5594  151.8263 LP  0  0  0  0  0  0  0  0  0  0  0  0  # atno 17342 bound_to 10162
  140.4698  144.1603  150.5916 LP  0  0  0  0  0  0  0  0  0  0  0  0  # atno 17343 bound_to 10162
  156.0307  130.3765  150.1696 LP  0  0  0  0  0  0  0  0  0  0  0  0  # atno 17370 bound_to 10713
  156.9886  130.9886  151.3420 LP  0  0  0  0  0  0  0  0  0  0  0  0  # atno 17371 bound_to 10713
  139.8704  134.9599  156.4347 LP  0  0  0  0  0  0  0  0  0  0  0  0  # atno 17394 bound_to 11000
  140.8971  133.7806  155.9638 LP  0  0  0  0  0  0  0  0  0  0  0  0  # atno 17395 bound_to 11000

$$$$
