AV-unprocessed.smi:2173|AV-procd|sdf|8839|dock7
  -GOLD-   2272012 33D 1   1.00000     0.00000
 Structure written by MMmdl.
 35 36  0  0  0  0  0  0  0  0  1 V2000
  153.2066  139.6195  157.7954 O   0  0  0  0  0  0  0  0  0  0  0  0
  152.8895  139.6565  158.9848 C   0  0  0  0  0  0  0  0  0  0  0  0
  152.9155  138.5810  159.7864 N   0  0  0  0  0  0  0  0  0  0  0  0
  153.3899  137.2565  159.3988 C   0  0  0  0  0  0  0  0  0  0  0  0
  154.7447  136.8880  160.0396 C   0  0  0  0  0  0  0  0  0  0  0  0
  154.6422  136.4708  161.4982 C   0  0  0  0  0  0  0  0  0  0  0  0
  154.1625  137.3746  162.4698 C   0  0  0  0  0  0  0  0  0  0  0  0
  154.1081  136.9507  163.8120 C   0  0  0  0  0  0  0  0  0  0  0  0
  154.5346  135.6467  164.1301 C   0  0  0  0  0  0  0  0  0  0  0  0
  154.9962  134.8198  163.0870 C   0  0  0  0  0  0  0  0  0  0  0  0
  155.0514  135.2164  161.7977 N   0  0  0  0  0  0  0  0  0  0  0  0
  152.4561  140.9779  159.6323 C   0  0  1  0  0  0  0  0  0  0  0  0
  153.3879  141.3427  160.8105 C   0  0  0  0  0  0  0  0  0  0  0  0
  153.1468  142.7540  161.3155 C   0  0  0  0  0  0  0  0  0  0  0  0
  152.4680  143.6820  160.6195 C   0  0  0  0  0  0  0  0  0  0  0  0
  151.8703  143.4264  159.2468 C   0  0  0  0  0  0  0  0  0  0  0  0
  152.4045  142.1296  158.6083 C   0  0  0  0  0  0  0  0  0  0  0  0
  152.6369  138.7016  160.7494 H   0  0  0  0  0  0  0  0  0  0  0  0
  152.6345  136.5365  159.7144 H   0  0  0  0  0  0  0  0  0  0  0  0
  153.4510  137.1804  158.3120 H   0  0  0  0  0  0  0  0  0  0  0  0
  155.2079  136.0804  159.4720 H   0  0  0  0  0  0  0  0  0  0  0  0
  155.4292  137.7343  159.9633 H   0  0  0  0  0  0  0  0  0  0  0  0
  153.8477  138.3705  162.1947 H   0  0  0  0  0  0  0  0  0  0  0  0
  153.7476  137.6142  164.5840 H   0  0  0  0  0  0  0  0  0  0  0  0
  154.5083  135.2885  165.1486 H   0  0  0  0  0  0  0  0  0  0  0  0
  155.3315  133.8141  163.2934 H   0  0  0  0  0  0  0  0  0  0  0  0
  151.4468  140.8467  160.0277 H   0  0  0  0  0  0  0  0  0  0  0  0
  153.2284  140.6468  161.6349 H   0  0  0  0  0  0  0  0  0  0  0  0
  154.4381  141.2609  160.5263 H   0  0  0  0  0  0  0  0  0  0  0  0
  153.5617  143.0026  162.2812 H   0  0  0  0  0  0  0  0  0  0  0  0
  152.3177  144.6653  161.0405 H   0  0  0  0  0  0  0  0  0  0  0  0
  150.7866  143.3751  159.3555 H   0  0  0  0  0  0  0  0  0  0  0  0
  152.0842  144.2754  158.5971 H   0  0  0  0  0  0  0  0  0  0  0  0
  153.4064  142.3131  158.2163 H   0  0  0  0  0  0  0  0  0  0  0  0
  151.7848  141.8589  157.7524 H   0  0  0  0  0  0  0  0  0  0  0  0
  1  2  2  0  0  0  0
  2  3  1  0  0  0  0
  2 12  1  0  0  0  0
  3  4  1  0  0  0  0
  3 18  1  0  0  0  0
  4  5  1  0  0  0  0
  4 19  1  0  0  0  0
  4 20  1  0  0  0  0
  5  6  1  0  0  0  0
  5 21  1  0  0  0  0
  5 22  1  0  0  0  0
  6 11  1  0  0  0  0
  6  7  2  0  0  0  0
  7  8  1  0  0  0  0
  7 23  1  0  0  0  0
  8  9  2  0  0  0  0
  8 24  1  0  0  0  0
  9 10  1  0  0  0  0
  9 25  1  0  0  0  0
 10 11  2  0  0  0  0
 10 26  1  0  0  0  0
 12 17  1  0  0  0  0
 12 13  1  0  0  0  0
 12 27  1  0  0  0  0
 13 14  1  0  0  0  0
 13 28  1  0  0  0  0
 13 29  1  0  0  0  0
 14 15  2  0  0  0  0
 14 30  1  0  0  0  0
 15 16  1  0  0  0  0
 15 31  1  0  0  0  0
 16 17  1  0  0  0  0
 16 32  1  0  0  0  0
 16 33  1  0  0  0  0
 17 34  1  0  0  0  0
 17 35  1  0  0  0  0
M  END
> <s_m_source_file>
AV-unprocessed.smi

> <i_m_source_file_index>
2173

> <i_lp_mmshare_version>
43012

> <i_f3d_flags>
0

> <s_epik_input>
W0NIMl0xW0NIMl1bQ0hdPVtDSF1bQ0gyXVtDQEhdMUMoPU8pW05IXVtDSDJdW0NIMl1jMltjSF1bY0hdW2NIXVtjSF1uMg==

> <s_epik_cmdline>
J2VwaWtfcHl0aG9uJywgJy1waCcsICc3LjAnLCAnLXRuJywgJzgnLCAnLW1hJywgJzIwMCcsICctbWV0YWxfYmluZGluZycsICctaW1hZScsICc8aW5maWxlLm1hZT4nLCAnLW9tYWUnLCAnPG91dGZpbGUubWFlPic=

> <r_epik_Ionization_Penalty>
0.0268825

> <r_epik_Ionization_Penalty_Charging>
0

> <r_epik_Ionization_Penalty_Neutral>
0.0268825

> <r_epik_State_Penalty>
0.0219706

> <r_epik_Charging_Adjusted_Penalty>
0.0219706

> <i_epik_Tot_Q>
0

> <i_epik_Tot_abs_Q>
0

> <r_epik_Metal_State_Penalty>
0.0210138

> <b_epik_Metal_Only>
0

> <s_lp_Force_Field>
OPLS_2005

> <r_lp_Energy>
8.2635

> <b_lp_Chiralities_Consistent>
1

> <s_lp_Variant>
AV-unprocessed.smi:2173-2

> <Gold.Version>
5.8.1

> <Gold.Id.Protein>
6NUR|6NUR_protein|mol2

> <Gold.PLP.Fitness>
40.8980

> <Gold.PLP.PLP>
-38.1626

> <Gold.PLP.part.hbond>
-1.0000

> <Gold.PLP.part.metal>
0.0000

> <Gold.PLP.part.buried>
-4.0351

> <Gold.PLP.part.nonpolar>
-32.8524

> <Gold.PLP.part.repulsive>
0.0886

> <Gold.PLP.ligand.clash>
0.0000

> <Gold.PLP.ligand.torsion>
0.1490

> <Gold.PLP.Chemscore.Hbond>
1.0000

> <Gold.PLP.Chemscore.CHOScore>
0.0000

> <Gold.PLP.Chemscore.Metal>
0.0000

> <Gold.Chemscore.Hbonds>
donor molecule, donor type, donor heavy atom, donor atom, acceptor molecule, acceptor atom, score
      P1  H  7997  8009       L1     1  1.00

> <Gold.PLP.Chemscore.Internal.Correction>
0.0335

> <Gold.Rescore>
     Score         DG    S(hbond)    S(metal)    S(lipo)     H(rot)  DE(clash)    DE(int)     intcor
     18.66     -18.80       1.00        0.00     115.78       1.39       0.01       0.13       ----

> <Gold.Chemscore.Fitness>
18.6580

> <Gold.Chemscore.DG>
-18.7995

> <Gold.Chemscore.ZeroCoef>
-5.4800

> <Gold.Chemscore.Hbond>
0.9981

> <Gold.Chemscore.Metal>
0.0000

> <Gold.Chemscore.Lipo>
115.7768

> <Gold.Chemscore.Internal_Hbond>
0.0000

> <Gold.Chemscore.DEClash>
0.0130

> <Gold.Chemscore.DEInternal>
0.1285

> <Gold.Chemscore.Rot>
1.3907

> <Gold.Chemscore.Internal.Correction>
   9.000000E+99

> <Gold.Chemscore.Hbonds>
donor molecule, donor type, donor heavy atom, donor atom, acceptor molecule, acceptor atom, score
      P1  H  7997  8009       L1     1  0.99

> <Gold.Chemscore.Hbond.Weighted>
-3.3337

> <Gold.Chemscore.Metal.Weighted>
-0.0000

> <Gold.Chemscore.Lipo.Weighted>
-13.5459

> <Gold.Chemscore.Internal_Hbond.Weighted>
0.0000

> <Gold.Chemscore.DEClash.Weighted>
0.0130

> <Gold.Chemscore.DEInternal.Weighted>
0.1285

> <Gold.Chemscore.Rot.Weighted>
3.5601

> <Gold.Chemscore.Internal.Correction.Weighted>
   9.000000E+99

> <Gold.Protein.RotatedTorsions>
[ 6907 6896 6895 6894 ] final -162.80 input  -60.11 | X-H torsion
[ 7974 7965 7964 7962 ] final  169.93 input  175.53 | X-H torsion
[ 8008 7997 7996 7995 ] final  165.68 input   59.86 | X-H torsion
[ 10167 10162 10161 10158 ] final -110.23 input  -65.29 | X-H torsion
[ 10718 10713 10712 10709 ] final -168.85 input   66.30 | X-H torsion
[ 10763 10752 10751 10750 ] final  139.95 input  -60.55 | X-H torsion
[ 11005 11000 10999 10996 ] final  -68.36 input  -57.11 | X-H torsion

> <Gold.Protein.ActiveResidues>
 VAL166  LYS551  ARG553  GLY616  TRP617  ASP618  TYR619  PRO620  LYS621  CYS622 
 ASP623  PHE694  ASN695  SER759  ASP760  ASP761  ALA762  ILE779  LEU786  VAL792 
 PHE793  MET794  SER795  GLU796  ALA797  LYS798  CYS799  TRP800  GLU811  SER814 

> <Gold.Protein.RotatedAtoms>
  151.3861  133.3805  159.2715 H   0  0  0  0  0  0  0  0  0  0  0  0  # atno 6907 bound_to 6896
  150.9541  134.8938  159.7700 H   0  0  0  0  0  0  0  0  0  0  0  0  # atno 6908 bound_to 6896
  152.5123  134.3817  159.9406 H   0  0  0  0  0  0  0  0  0  0  0  0  # atno 6909 bound_to 6896
  144.7339  139.9127  143.6416 H   0  0  0  0  0  0  0  0  0  0  0  0  # atno 7974 bound_to 7965
  156.1780  140.1663  156.8326 H   0  0  0  0  0  0  0  0  0  0  0  0  # atno 8008 bound_to 7997
  154.5328  140.0753  156.8409 H   0  0  0  0  0  0  0  0  0  0  0  0  # atno 8009 bound_to 7997
  155.3371  140.3382  155.4241 H   0  0  0  0  0  0  0  0  0  0  0  0  # atno 8010 bound_to 7997
  140.1467  143.4233  152.1524 H   0  0  0  0  0  0  0  0  0  0  0  0  # atno 10167 bound_to 10162
  156.7030  130.9204  151.3081 H   0  0  0  0  0  0  0  0  0  0  0  0  # atno 10718 bound_to 10713
  153.9147  135.3007  155.3448 H   0  0  0  0  0  0  0  0  0  0  0  0  # atno 10763 bound_to 10752
  154.7606  135.4936  153.9460 H   0  0  0  0  0  0  0  0  0  0  0  0  # atno 10764 bound_to 10752
  153.1174  135.6774  153.9497 H   0  0  0  0  0  0  0  0  0  0  0  0  # atno 10765 bound_to 10752
  141.1530  133.6739  156.6435 H   0  0  0  0  0  0  0  0  0  0  0  0  # atno 11005 bound_to 11000
  146.0989  139.3983  143.0359 LP  0  0  0  0  0  0  0  0  0  0  0  0  # atno 17320 bound_to 7965
  145.7607  140.9936  143.1202 LP  0  0  0  0  0  0  0  0  0  0  0  0  # atno 17321 bound_to 7965
  139.5446  144.7287  151.4625 LP  0  0  0  0  0  0  0  0  0  0  0  0  # atno 17342 bound_to 10162
  140.6728  143.8257  150.7020 LP  0  0  0  0  0  0  0  0  0  0  0  0  # atno 17343 bound_to 10162
  157.6966  130.9288  150.0661 LP  0  0  0  0  0  0  0  0  0  0  0  0  # atno 17370 bound_to 10713
  156.1715  130.3646  149.9158 LP  0  0  0  0  0  0  0  0  0  0  0  0  # atno 17371 bound_to 10713
  140.3375  134.7877  157.4373 LP  0  0  0  0  0  0  0  0  0  0  0  0  # atno 17394 bound_to 11000
  140.0965  134.5530  155.8393 LP  0  0  0  0  0  0  0  0  0  0  0  0  # atno 17395 bound_to 11000

$$$$
