AV-unprocessed.smi:227|AV-procd|sdf|1733|dock2
  -GOLD-   2262020223D 1   1.00000     0.00000
 Structure written by MMmdl.
 54 58  0  0  0  0  0  0  0  0  1 V2000
  149.1106  134.3225  158.5159 O   0  0  0  0  0  0  0  0  0  0  0  0
  147.9426  133.6407  158.9272 C   0  0  0  0  0  0  0  0  0  0  0  0
  146.9676  134.5768  159.6786 C   0  0  2  0  0  0  0  0  0  0  0  0
  146.4709  135.6838  158.7130 C   0  0  0  0  0  0  0  0  0  0  0  0
  145.8722  135.1835  157.4878 N   0  0  0  0  0  0  0  0  0  0  0  0
  144.7289  134.4253  157.3825 C   0  0  0  0  0  0  0  0  0  0  0  0
  144.3943  134.0922  156.1665 N   0  0  0  0  0  0  0  0  0  0  0  0
  145.3944  134.6398  155.3708 C   0  0  0  0  0  0  0  0  0  0  0  0
  145.6543  134.6632  153.9697 C   0  0  0  0  0  0  0  0  0  0  0  0
  144.8555  134.0650  153.0439 N   0  0  0  0  0  0  0  0  0  0  0  0
  143.5422  134.6075  152.7193 C   0  0  1  0  0  0  0  0  0  0  0  0
  143.8487  135.8555  151.8645 C   0  0  0  0  0  0  0  0  0  0  0  0
  145.1221  135.4090  151.1317 C   0  0  0  0  0  0  0  0  0  0  0  0
  145.2863  133.9657  151.6573 C   0  0  2  0  0  0  0  0  0  0  0  0
  144.2117  133.0169  151.0769 C   0  0  2  0  0  0  0  0  0  0  0  0
  144.0851  132.9432  149.5437 C   0  0  0  0  0  0  0  0  0  0  0  0
  142.9779  132.1455  149.1824 O   0  0  0  0  0  0  0  0  0  0  0  0
  142.9514  133.5198  151.8050 C   0  0  0  0  0  0  0  0  0  0  0  0
  146.7500  135.3522  153.5525 N   0  0  0  0  0  0  0  0  0  0  0  0
  147.5531  135.9505  154.4361 C   0  0  0  0  0  0  0  0  0  0  0  0
  147.4432  135.9969  155.7642 N   0  0  0  0  0  0  0  0  0  0  0  0
  146.3348  135.3275  156.1911 C   0  0  0  0  0  0  0  0  0  0  0  0
  147.5697  135.1149  161.0097 C   0  0  2  0  0  0  0  0  0  0  0  0
  146.5515  135.3641  162.1118 C   0  0  0  0  0  0  0  0  0  0  0  0
  147.3174  136.2797  163.0547 C   0  0  0  0  0  0  0  0  0  0  0  0
  148.0548  137.1322  162.1929 O   0  0  0  0  0  0  0  0  0  0  0  0
  148.2469  136.4934  160.9336 C   0  0  0  0  0  0  0  0  0  0  0  0
  149.4404  133.9099  157.7322 H   0  0  0  0  0  0  0  0  0  0  0  0
  147.4600  133.2165  158.0463 H   0  0  0  0  0  0  0  0  0  0  0  0
  148.2315  132.7932  159.5487 H   0  0  0  0  0  0  0  0  0  0  0  0
  146.1068  133.9590  159.9380 H   0  0  0  0  0  0  0  0  0  0  0  0
  145.7536  136.3311  159.2184 H   0  0  0  0  0  0  0  0  0  0  0  0
  147.3039  136.3241  158.4205 H   0  0  0  0  0  0  0  0  0  0  0  0
  144.1411  134.1341  158.2408 H   0  0  0  0  0  0  0  0  0  0  0  0
  142.9064  134.8170  153.5803 H   0  0  0  0  0  0  0  0  0  0  0  0
  143.0353  136.1089  151.1839 H   0  0  0  0  0  0  0  0  0  0  0  0
  144.0492  136.7275  152.4879 H   0  0  0  0  0  0  0  0  0  0  0  0
  145.0462  135.4813  150.0480 H   0  0  0  0  0  0  0  0  0  0  0  0
  145.9689  136.0245  151.4382 H   0  0  0  0  0  0  0  0  0  0  0  0
  146.2911  133.5741  151.5098 H   0  0  0  0  0  0  0  0  0  0  0  0
  144.4284  132.0103  151.4400 H   0  0  0  0  0  0  0  0  0  0  0  0
  143.9340  133.9437  149.1377 H   0  0  0  0  0  0  0  0  0  0  0  0
  144.9879  132.5529  149.0754 H   0  0  0  0  0  0  0  0  0  0  0  0
  142.2117  132.6967  149.1379 H   0  0  0  0  0  0  0  0  0  0  0  0
  142.5031  132.7161  152.3905 H   0  0  0  0  0  0  0  0  0  0  0  0
  142.1874  133.9114  151.1322 H   0  0  0  0  0  0  0  0  0  0  0  0
  148.4043  136.4675  154.0181 H   0  0  0  0  0  0  0  0  0  0  0  0
  148.3003  134.3977  161.3877 H   0  0  0  0  0  0  0  0  0  0  0  0
  145.6761  135.8824  161.7173 H   0  0  0  0  0  0  0  0  0  0  0  0
  146.2173  134.4504  162.6044 H   0  0  0  0  0  0  0  0  0  0  0  0
  146.6640  136.8461  163.7186 H   0  0  0  0  0  0  0  0  0  0  0  0
  148.0132  135.7039  163.6664 H   0  0  0  0  0  0  0  0  0  0  0  0
  149.3115  136.4122  160.7170 H   0  0  0  0  0  0  0  0  0  0  0  0
  147.7912  137.1204  160.1666 H   0  0  0  0  0  0  0  0  0  0  0  0
  1  2  1  0  0  0  0
  1 28  1  0  0  0  0
  2  3  1  0  0  0  0
  2 29  1  0  0  0  0
  2 30  1  0  0  0  0
  3  4  1  0  0  0  0
  3 23  1  0  0  0  0
  3 31  1  0  0  0  0
  4  5  1  0  0  0  0
  4 32  1  0  0  0  0
  4 33  1  0  0  0  0
  5 22  1  0  0  0  0
  5  6  1  0  0  0  0
  6  7  2  0  0  0  0
  6 34  1  0  0  0  0
  7  8  1  0  0  0  0
  8 22  2  0  0  0  0
  8  9  1  0  0  0  0
  9 10  1  0  0  0  0
  9 19  2  0  0  0  0
 10 14  1  0  0  0  0
 10 11  1  0  0  0  0
 11 18  1  0  0  0  0
 11 12  1  0  0  0  0
 11 35  1  0  0  0  0
 12 13  1  0  0  0  0
 12 36  1  0  0  0  0
 12 37  1  0  0  0  0
 13 14  1  0  0  0  0
 13 38  1  0  0  0  0
 13 39  1  0  0  0  0
 14 15  1  0  0  0  0
 14 40  1  0  0  0  0
 15 16  1  0  0  0  0
 15 18  1  0  0  0  0
 15 41  1  0  0  0  0
 16 17  1  0  0  0  0
 16 42  1  0  0  0  0
 16 43  1  0  0  0  0
 17 44  1  0  0  0  0
 18 45  1  0  0  0  0
 18 46  1  0  0  0  0
 19 20  1  0  0  0  0
 20 21  2  0  0  0  0
 20 47  1  0  0  0  0
 21 22  1  0  0  0  0
 23 27  1  0  0  0  0
 23 24  1  0  0  0  0
 23 48  1  0  0  0  0
 24 25  1  0  0  0  0
 24 49  1  0  0  0  0
 24 50  1  0  0  0  0
 25 26  1  0  0  0  0
 25 51  1  0  0  0  0
 25 52  1  0  0  0  0
 26 27  1  0  0  0  0
 27 53  1  0  0  0  0
 27 54  1  0  0  0  0
M  END
> <s_m_source_file>
AV-unprocessed.smi

> <i_m_source_file_index>
227

> <i_lp_mmshare_version>
43012

> <i_f3d_flags>
0

> <s_epik_input>
W0NIMl0xT1tDSDJdW0NIMl1bQ0BIXTFbQ0BIXShbQ0gyXVtPSF0pW0NIMl1uKFtjSF1uMiljKGMyMyluW2NIXW5jM04oW0NASF00NSlbQ0BASF0oW0NIMl1bQ0gyXTQpW0NASF0oW0NIMl01KVtDSDJdW09IXQ==

> <s_epik_cmdline>
J2VwaWtfcHl0aG9uJywgJy1waCcsICc3LjAnLCAnLXRuJywgJzgnLCAnLW1hJywgJzIwMCcsICctbWV0YWxfYmluZGluZycsICctaW1hZScsICc8aW5maWxlLm1hZT4nLCAnLW9tYWUnLCAnPG91dGZpbGUubWFlPic=

> <r_lp_tautomer_probability>
1

> <r_epik_Ionization_Penalty>
0.0055791

> <r_epik_Ionization_Penalty_Charging>
0

> <r_epik_Ionization_Penalty_Neutral>
0.0055791

> <r_epik_State_Penalty>
0.00401299

> <r_epik_Charging_Adjusted_Penalty>
0.00401299

> <i_epik_Tot_Q>
0

> <i_epik_Tot_abs_Q>
0

> <r_epik_Metal_State_Penalty>
-0

> <b_epik_Metal_Only>
0

> <s_lp_Force_Field>
OPLS_2005

> <r_lp_Energy>
89.6515

> <b_lp_Chiralities_Consistent>
1

> <s_lp_Variant>
AV-unprocessed.smi:227-7

> <Gold.Version>
5.8.1

> <Gold.Id.Protein>
6NUR|6NUR_protein|mol2

> <Gold.PLP.Fitness>
48.0497

> <Gold.PLP.PLP>
-35.9561

> <Gold.PLP.part.hbond>
-5.0354

> <Gold.PLP.part.metal>
0.0000

> <Gold.PLP.part.buried>
-4.3402

> <Gold.PLP.part.nonpolar>
-28.4116

> <Gold.PLP.part.repulsive>
1.6021

> <Gold.PLP.ligand.clash>
0.0000

> <Gold.PLP.ligand.torsion>
1.0540

> <Gold.PLP.Chemscore.Hbond>
3.8200

> <Gold.PLP.Chemscore.CHOScore>
0.8766

> <Gold.PLP.Chemscore.Metal>
0.0000

> <Gold.Chemscore.Hbonds>
donor molecule, donor type, donor heavy atom, donor atom, acceptor molecule, acceptor atom, score
      L1  H    17    44       P1 10186  0.75
      P1  H  6896  6908       L1     1  0.75
      P1  H  6931  6943       L1    26  0.74
      P1  H  6934  6947       L1    26  0.01
      P1  H 10785 10796       L1    17  0.93
      L1  C    20    47       P1  7948  0.83

> <Gold.PLP.Chemscore.Internal.Correction>
0.1118

> <Gold.Rescore>
     Score         DG    S(hbond)    S(metal)    S(lipo)     H(rot)  DE(clash)    DE(int)     intcor
     12.77     -17.30       3.40        0.00      82.84       3.61       2.67       1.87       ----

> <Gold.Chemscore.Fitness>
12.7710

> <Gold.Chemscore.DG>
-17.3038

> <Gold.Chemscore.ZeroCoef>
-5.4800

> <Gold.Chemscore.Hbond>
3.4027

> <Gold.Chemscore.Metal>
0.0000

> <Gold.Chemscore.Lipo>
82.8447

> <Gold.Chemscore.Internal_Hbond>
0.0000

> <Gold.Chemscore.DEClash>
2.6671

> <Gold.Chemscore.DEInternal>
1.8657

> <Gold.Chemscore.Rot>
3.6071

> <Gold.Chemscore.Internal.Correction>
   9.000000E+99

> <Gold.Chemscore.Hbonds>
donor molecule, donor type, donor heavy atom, donor atom, acceptor molecule, acceptor atom, score
      L1  H    17    44       P1 10186  0.74
      P1  H  6896  6908       L1     1  0.09
      P1  H  6931  6943       L1    26  0.10
      P1  H 10785 10796       L1    17  0.87

> <Gold.Chemscore.Hbond.Weighted>
-11.3651

> <Gold.Chemscore.Metal.Weighted>
-0.0000

> <Gold.Chemscore.Lipo.Weighted>
-9.6928

> <Gold.Chemscore.Internal_Hbond.Weighted>
0.0000

> <Gold.Chemscore.DEClash.Weighted>
2.6671

> <Gold.Chemscore.DEInternal.Weighted>
1.8657

> <Gold.Chemscore.Rot.Weighted>
9.2342

> <Gold.Chemscore.Internal.Correction.Weighted>
   9.000000E+99

> <Gold.Protein.RotatedTorsions>
[ 6907 6896 6895 6894 ] final  146.08 input  -60.11 | X-H torsion
[ 7974 7965 7964 7962 ] final -120.89 input  175.53 | X-H torsion
[ 8008 7997 7996 7995 ] final -174.16 input   59.86 | X-H torsion
[ 10167 10162 10161 10158 ] final   33.77 input  -65.29 | X-H torsion
[ 10718 10713 10712 10709 ] final  -24.65 input   66.30 | X-H torsion
[ 10763 10752 10751 10750 ] final  109.17 input  -60.55 | X-H torsion
[ 11005 11000 10999 10996 ] final  154.22 input  -57.11 | X-H torsion

> <Gold.Protein.ActiveResidues>
 VAL166  LYS551  ARG553  GLY616  TRP617  ASP618  TYR619  PRO620  LYS621  CYS622 
 ASP623  PHE694  ASN695  SER759  ASP760  ASP761  ALA762  ILE779  LEU786  VAL792 
 PHE793  MET794  SER795  GLU796  ALA797  LYS798  CYS799  TRP800  GLU811  SER814 

> <Gold.Protein.RotatedAtoms>
  152.1726  133.4653  159.4916 H   0  0  0  0  0  0  0  0  0  0  0  0  # atno 6907 bound_to 6896
  150.6922  134.1934  159.4303 H   0  0  0  0  0  0  0  0  0  0  0  0  # atno 6908 bound_to 6896
  151.9842  135.0012  160.0609 H   0  0  0  0  0  0  0  0  0  0  0  0  # atno 6909 bound_to 6896
  145.0464  140.8185  143.4235 H   0  0  0  0  0  0  0  0  0  0  0  0  # atno 7974 bound_to 7965
  155.9665  140.1154  157.0850 H   0  0  0  0  0  0  0  0  0  0  0  0  # atno 8008 bound_to 7997
  154.4145  140.1171  156.5317 H   0  0  0  0  0  0  0  0  0  0  0  0  # atno 8009 bound_to 7997
  155.6652  140.3473  155.4800 H   0  0  0  0  0  0  0  0  0  0  0  0  # atno 8010 bound_to 7997
  140.4376  144.1234  150.6169 H   0  0  0  0  0  0  0  0  0  0  0  0  # atno 10167 bound_to 10162
  156.4748  130.4532  149.6847 H   0  0  0  0  0  0  0  0  0  0  0  0  # atno 10718 bound_to 10713
  153.4310  135.3788  155.2170 H   0  0  0  0  0  0  0  0  0  0  0  0  # atno 10763 bound_to 10752
  154.8750  135.3840  154.4268 H   0  0  0  0  0  0  0  0  0  0  0  0  # atno 10764 bound_to 10752
  153.4800  135.7088  153.6006 H   0  0  0  0  0  0  0  0  0  0  0  0  # atno 10765 bound_to 10752
  140.1469  134.8701  157.2404 H   0  0  0  0  0  0  0  0  0  0  0  0  # atno 11005 bound_to 11000
  145.1582  139.2474  143.5405 LP  0  0  0  0  0  0  0  0  0  0  0  0  # atno 17320 bound_to 7965
  146.3514  140.1303  142.8597 LP  0  0  0  0  0  0  0  0  0  0  0  0  # atno 17321 bound_to 7965
  140.4355  143.2549  151.9540 LP  0  0  0  0  0  0  0  0  0  0  0  0  # atno 17342 bound_to 10162
  139.4788  144.5704  151.8098 LP  0  0  0  0  0  0  0  0  0  0  0  0  # atno 17343 bound_to 10162
  156.3582  130.7467  151.2436 LP  0  0  0  0  0  0  0  0  0  0  0  0  # atno 17370 bound_to 10713
  157.7488  131.0358  150.4379 LP  0  0  0  0  0  0  0  0  0  0  0  0  # atno 17371 bound_to 10713
  140.2652  134.3524  155.7392 LP  0  0  0  0  0  0  0  0  0  0  0  0  # atno 17394 bound_to 11000
  141.2194  133.7392  156.9141 LP  0  0  0  0  0  0  0  0  0  0  0  0  # atno 17395 bound_to 11000

$$$$
