AV-unprocessed.smi:47|AV-procd|sdf|426|dock4
  -GOLD-   2262016303D 1   1.00000     0.00000
 Structure written by MMmdl.
 32 34  0  0  0  0  0  0  0  0  2 V2000
  145.2921  139.6387  155.1068 O   0  0  0  0  0  0  0  0  0  0  0  0
  146.4561  140.4275  155.2335 C   0  0  2  0  0  0  0  0  0  0  0  0
  146.2684  141.8305  154.6598 C   0  0  0  0  0  0  0  0  0  0  0  0
  147.6261  142.2939  154.3208 N   0  3  0  0  0  0  0  0  0  0  0  0
  148.4998  141.1118  154.1457 C   0  0  1  0  0  0  0  0  0  0  0  0
  149.6781  141.1736  155.0692 C   0  0  0  0  0  0  0  0  0  0  0  0
  150.6818  140.3110  154.9524 N   0  0  0  0  0  0  0  0  0  0  0  0
  151.4813  140.6754  155.9758 N   0  0  0  0  0  0  0  0  0  0  0  0
  150.9372  141.6951  156.6519 C   0  0  0  0  0  0  0  0  0  0  0  0
  151.5366  142.3343  157.8254 C   0  0  0  0  0  0  0  0  0  0  0  0
  151.2273  143.6766  158.1467 C   0  0  0  0  0  0  0  0  0  0  0  0
  151.8039  144.2923  159.2745 C   0  0  0  0  0  0  0  0  0  0  0  0
  152.6949  143.5731  160.0928 C   0  0  0  0  0  0  0  0  0  0  0  0
  153.0089  142.2369  159.7822 C   0  0  0  0  0  0  0  0  0  0  0  0
  152.4333  141.6203  158.6543 C   0  0  0  0  0  0  0  0  0  0  0  0
  149.7697  142.0507  156.1140 N   0  0  0  0  0  0  0  0  0  0  0  0
  147.6163  139.8809  154.4056 C   0  0  0  0  0  0  0  0  0  0  0  0
  146.7457  140.4899  156.2836 H   0  0  0  0  0  0  0  0  0  0  0  0
  148.8617  141.0955  153.1166 H   0  0  0  0  0  0  0  0  0  0  0  0
  152.3571  140.2136  156.1774 H   0  0  0  0  0  0  0  0  0  0  0  0
  144.6958  140.0699  154.5133 H   0  0  0  0  0  0  0  0  0  0  0  0
  145.6837  141.7921  153.7392 H   0  0  0  0  0  0  0  0  0  0  0  0
  145.7687  142.5093  155.3512 H   0  0  0  0  0  0  0  0  0  0  0  0
  147.6139  142.8652  153.4884 H   0  0  0  0  0  0  0  0  0  0  0  0
  150.5465  144.2481  157.5334 H   0  0  0  0  0  0  0  0  0  0  0  0
  151.5620  145.3179  159.5119 H   0  0  0  0  0  0  0  0  0  0  0  0
  153.1370  144.0455  160.9578 H   0  0  0  0  0  0  0  0  0  0  0  0
  153.6926  141.6840  160.4096 H   0  0  0  0  0  0  0  0  0  0  0  0
  152.6892  140.5941  158.4348 H   0  0  0  0  0  0  0  0  0  0  0  0
  148.1425  139.0547  154.8858 H   0  0  0  0  0  0  0  0  0  0  0  0
  147.2355  139.5134  153.4509 H   0  0  0  0  0  0  0  0  0  0  0  0
  147.9886  142.8304  155.0967 H   0  0  0  0  0  0  0  0  0  0  0  0
  1  2  1  0  0  0  0
  1 21  1  0  0  0  0
  2 18  1  0  0  0  0
  2 17  1  0  0  0  0
  2  3  1  0  0  0  0
  3  4  1  0  0  0  0
  3 22  1  0  0  0  0
  3 23  1  0  0  0  0
  4  5  1  0  0  0  0
  4 24  1  0  0  0  0
  4 32  1  0  0  0  0
  5 19  1  0  0  0  0
  5  6  1  0  0  0  0
  5 17  1  0  0  0  0
  6 16  1  0  0  0  0
  6  7  2  0  0  0  0
  7  8  1  0  0  0  0
  8 20  1  0  0  0  0
  8  9  1  0  0  0  0
  9 10  1  0  0  0  0
  9 16  2  0  0  0  0
 10 15  1  0  0  0  0
 10 11  2  0  0  0  0
 11 12  1  0  0  0  0
 11 25  1  0  0  0  0
 12 13  2  0  0  0  0
 12 26  1  0  0  0  0
 13 14  1  0  0  0  0
 13 27  1  0  0  0  0
 14 15  2  0  0  0  0
 14 28  1  0  0  0  0
 15 29  1  0  0  0  0
 17 30  1  0  0  0  0
 17 31  1  0  0  0  0
M  CHG  1   4   1
M  END
> <s_m_source_file>
AV-unprocessed.smi

> <i_m_source_file_index>
47

> <i_lp_mmshare_version>
43012

> <i_f3d_flags>
0

> <s_epik_input>
W09IXVtDQEhdMVtDSDJdW05IXVtDQEBIXShbQ0gyXTEpYzJuW25IXWMobjIpLWMzW2NIXVtjSF1bY0hdW2NIXVtjSF0z

> <s_epik_cmdline>
J2VwaWtfcHl0aG9uJywgJy1waCcsICc3LjAnLCAnLXRuJywgJzgnLCAnLW1hJywgJzIwMCcsICctbWV0YWxfYmluZGluZycsICctaW1hZScsICc8aW5maWxlLm1hZT4nLCAnLW9tYWUnLCAnPG91dGZpbGUubWFlPic=

> <r_lp_tautomer_probability>
0.948284

> <r_epik_Ionization_Penalty>
0.163822

> <r_epik_Ionization_Penalty_Charging>
0.0371552

> <r_epik_Ionization_Penalty_Neutral>
0.126667

> <r_epik_State_Penalty>
0.318338

> <r_epik_Charging_Adjusted_Penalty>
0.355493

> <i_epik_Tot_Q>
1

> <i_epik_Tot_abs_Q>
1

> <r_epik_Metal_State_Penalty>
0.81572

> <b_epik_Metal_Only>
0

> <s_lp_Force_Field>
OPLS_2005

> <r_lp_Energy>
24.5404

> <b_lp_Chiralities_Consistent>
1

> <s_lp_Variant>
AV-unprocessed.smi:47-4

> <Gold.Version>
5.8.1

> <Gold.Id.Protein>
6NUR|6NUR_protein|mol2

> <Gold.PLP.Fitness>
46.4232

> <Gold.PLP.PLP>
-35.5258

> <Gold.PLP.part.hbond>
-3.0000

> <Gold.PLP.part.metal>
0.0000

> <Gold.PLP.part.buried>
-4.3122

> <Gold.PLP.part.nonpolar>
-30.1251

> <Gold.PLP.part.repulsive>
2.9743

> <Gold.PLP.ligand.clash>
0.0000

> <Gold.PLP.ligand.torsion>
0.5347

> <Gold.PLP.Chemscore.Hbond>
3.9840

> <Gold.PLP.Chemscore.CHOScore>
0.0000

> <Gold.PLP.Chemscore.Metal>
0.0000

> <Gold.Chemscore.Hbonds>
donor molecule, donor type, donor heavy atom, donor atom, acceptor molecule, acceptor atom, score
      L1  H     1    21       P1 10175  0.32
      L1  H     4    32       P1  8028  1.26
      P1  H  7989  7998       L1     7  1.00

> <Gold.PLP.Chemscore.Internal.Correction>
0.0148

> <Gold.Rescore>
     Score         DG    S(hbond)    S(metal)    S(lipo)     H(rot)  DE(clash)    DE(int)     intcor
     16.33     -17.91       1.90        0.00      84.71       1.50       1.39       0.19       ----

> <Gold.Chemscore.Fitness>
16.3299

> <Gold.Chemscore.DG>
-17.9079

> <Gold.Chemscore.ZeroCoef>
-5.4800

> <Gold.Chemscore.Hbond>
1.9004

> <Gold.Chemscore.Metal>
0.0000

> <Gold.Chemscore.Lipo>
84.7146

> <Gold.Chemscore.Internal_Hbond>
0.0000

> <Gold.Chemscore.DEClash>
1.3916

> <Gold.Chemscore.DEInternal>
0.1863

> <Gold.Chemscore.Rot>
1.4966

> <Gold.Chemscore.Internal.Correction>
   9.000000E+99

> <Gold.Chemscore.Hbonds>
donor molecule, donor type, donor heavy atom, donor atom, acceptor molecule, acceptor atom, score
      L1  H     1    21       P1 10175  0.33
      L1  H     4    32       P1  8028  0.57
      P1  H  7989  7998       L1     7  0.17

> <Gold.Chemscore.Hbond.Weighted>
-6.3475

> <Gold.Chemscore.Metal.Weighted>
-0.0000

> <Gold.Chemscore.Lipo.Weighted>
-9.9116

> <Gold.Chemscore.Internal_Hbond.Weighted>
0.0000

> <Gold.Chemscore.DEClash.Weighted>
1.3916

> <Gold.Chemscore.DEInternal.Weighted>
0.1863

> <Gold.Chemscore.Rot.Weighted>
3.8312

> <Gold.Chemscore.Internal.Correction.Weighted>
   9.000000E+99

> <Gold.Protein.RotatedTorsions>
[ 6907 6896 6895 6894 ] final  165.43 input  -60.11 | X-H torsion
[ 7974 7965 7964 7962 ] final   -9.28 input  175.53 | X-H torsion
[ 8008 7997 7996 7995 ] final -154.47 input   59.86 | X-H torsion
[ 10167 10162 10161 10158 ] final    0.95 input  -65.29 | X-H torsion
[ 10718 10713 10712 10709 ] final  127.49 input   66.30 | X-H torsion
[ 10763 10752 10751 10750 ] final   55.79 input  -60.55 | X-H torsion
[ 11005 11000 10999 10996 ] final   12.49 input  -57.11 | X-H torsion

> <Gold.Protein.ActiveResidues>
 VAL166  LYS551  ARG553  GLY616  TRP617  ASP618  TYR619  PRO620  LYS621  CYS622 
 ASP623  PHE694  ASN695  SER759  ASP760  ASP761  ALA762  ILE779  LEU786  VAL792 
 PHE793  MET794  SER795  GLU796  ALA797  LYS798  CYS799  TRP800  GLU811  SER814 

> <Gold.Protein.RotatedAtoms>
  151.8946  133.3524  159.3809 H   0  0  0  0  0  0  0  0  0  0  0  0  # atno 6907 bound_to 6896
  150.7095  134.4890  159.5516 H   0  0  0  0  0  0  0  0  0  0  0  0  # atno 6908 bound_to 6896
  152.2466  134.8175  160.0503 H   0  0  0  0  0  0  0  0  0  0  0  0  # atno 6909 bound_to 6896
  146.2256  140.2593  142.8351 H   0  0  0  0  0  0  0  0  0  0  0  0  # atno 7974 bound_to 7965
  155.6868  140.0750  157.2463 H   0  0  0  0  0  0  0  0  0  0  0  0  # atno 8008 bound_to 7997
  154.4095  140.1672  156.2095 H   0  0  0  0  0  0  0  0  0  0  0  0  # atno 8009 bound_to 7997
  155.9487  140.3379  155.6392 H   0  0  0  0  0  0  0  0  0  0  0  0  # atno 8010 bound_to 7997
  140.6705  143.7061  150.7913 H   0  0  0  0  0  0  0  0  0  0  0  0  # atno 10167 bound_to 10162
  157.5328  131.1098  150.8982 H   0  0  0  0  0  0  0  0  0  0  0  0  # atno 10718 bound_to 10713
  152.9822  135.5699  154.5123 H   0  0  0  0  0  0  0  0  0  0  0  0  # atno 10763 bound_to 10752
  154.4625  135.2782  155.1704 H   0  0  0  0  0  0  0  0  0  0  0  0  # atno 10764 bound_to 10752
  154.3286  135.6254  153.5594 H   0  0  0  0  0  0  0  0  0  0  0  0  # atno 10765 bound_to 10752
  140.4914  134.0836  155.7772 H   0  0  0  0  0  0  0  0  0  0  0  0  # atno 11005 bound_to 11000
  144.9352  140.8018  143.5664 LP  0  0  0  0  0  0  0  0  0  0  0  0  # atno 17320 bound_to 7965
  145.2539  139.2020  143.4927 LP  0  0  0  0  0  0  0  0  0  0  0  0  # atno 17321 bound_to 7965
  140.0746  143.5028  152.2562 LP  0  0  0  0  0  0  0  0  0  0  0  0  # atno 17342 bound_to 10162
  139.5972  144.7571  151.3259 LP  0  0  0  0  0  0  0  0  0  0  0  0  # atno 17343 bound_to 10162
  156.9558  130.5436  149.5284 LP  0  0  0  0  0  0  0  0  0  0  0  0  # atno 17370 bound_to 10713
  156.0436  130.5515  150.8828 LP  0  0  0  0  0  0  0  0  0  0  0  0  # atno 17371 bound_to 10713
  141.1482  133.9017  157.2164 LP  0  0  0  0  0  0  0  0  0  0  0  0  # atno 17394 bound_to 11000
  139.9767  135.0111  156.9648 LP  0  0  0  0  0  0  0  0  0  0  0  0  # atno 17395 bound_to 11000

$$$$
