AV-unprocessed.smi:311|AV-procd|sdf|2297|dock2
  -GOLD-   2262022193D 1   1.00000     0.00000
 Structure written by MMmdl.
 44 46  0  0  0  0  0  0  0  0  2 V2000
  150.7279  136.0448  155.0671 C   0  0  0  0  0  0  0  0  0  0  0  0
  150.3704  134.9176  155.9932 C   0  0  0  0  0  0  0  0  0  0  0  0
  150.4987  135.0768  157.2997 N   0  0  0  0  0  0  0  0  0  0  0  0
  150.1040  133.8649  157.8743 O   0  0  0  0  0  0  0  0  0  0  0  0
  149.7487  133.0133  156.8791 C   0  0  0  0  0  0  0  0  0  0  0  0
  149.3059  131.6504  157.2923 C   0  0  0  0  0  0  0  0  0  0  0  0
  149.8936  133.6174  155.6600 C   0  0  0  0  0  0  0  0  0  0  0  0
  149.6318  133.0525  154.2879 C   0  0  0  0  0  0  0  0  0  0  0  0
  148.1331  133.1164  154.0016 C   0  0  0  0  0  0  0  0  0  0  0  0
  147.3720  132.2992  154.5191 O   0  0  0  0  0  0  0  0  0  0  0  0
  147.7204  134.1127  153.2031 N   0  0  0  0  0  0  0  0  0  0  0  0
  146.3282  134.4245  152.8990 C   0  0  2  0  0  0  0  0  0  0  0  0
  145.5181  134.8323  154.1240 C   0  0  0  0  0  0  0  0  0  0  0  0
  144.0829  134.5958  153.6507 C   0  0  0  0  0  0  0  0  0  0  0  0
  144.1419  133.4161  152.7584 N   0  3  1  0  0  0  0  0  0  0  0  0
  143.1634  133.4286  151.6437 C   0  0  0  0  0  0  0  0  0  0  0  0
  143.3122  132.1606  150.7835 C   0  0  0  0  0  0  0  0  0  0  0  0
  144.7612  131.9211  150.3091 C   0  0  0  0  0  0  0  0  0  0  0  0
  145.7406  132.9771  150.8463 C   0  0  0  0  0  0  0  0  0  0  0  0
  145.5632  133.2005  152.3652 C   0  0  1  0  0  0  0  0  0  0  0  0
  151.5960  135.7870  154.4601 H   0  0  0  0  0  0  0  0  0  0  0  0
  150.9644  136.9590  155.6131 H   0  0  0  0  0  0  0  0  0  0  0  0
  149.9043  136.2692  154.3896 H   0  0  0  0  0  0  0  0  0  0  0  0
  148.5319  131.2735  156.6239 H   0  0  0  0  0  0  0  0  0  0  0  0
  148.9001  131.6608  158.3043 H   0  0  0  0  0  0  0  0  0  0  0  0
  150.1422  130.9517  157.2701 H   0  0  0  0  0  0  0  0  0  0  0  0
  150.1794  133.5998  153.5194 H   0  0  0  0  0  0  0  0  0  0  0  0
  149.9604  132.0155  154.2122 H   0  0  0  0  0  0  0  0  0  0  0  0
  148.4220  134.7284  152.8175 H   0  0  0  0  0  0  0  0  0  0  0  0
  146.2701  135.2419  152.1767 H   0  0  0  0  0  0  0  0  0  0  0  0
  145.7455  134.1806  154.9693 H   0  0  0  0  0  0  0  0  0  0  0  0
  145.6982  135.8632  154.4304 H   0  0  0  0  0  0  0  0  0  0  0  0
  143.3891  134.4381  154.4768 H   0  0  0  0  0  0  0  0  0  0  0  0
  143.7416  135.4678  153.0902 H   0  0  0  0  0  0  0  0  0  0  0  0
  142.1531  133.4886  152.0497 H   0  0  0  0  0  0  0  0  0  0  0  0
  143.3096  134.3195  151.0306 H   0  0  0  0  0  0  0  0  0  0  0  0
  142.9801  131.2966  151.3608 H   0  0  0  0  0  0  0  0  0  0  0  0
  142.6441  132.2202  149.9237 H   0  0  0  0  0  0  0  0  0  0  0  0
  145.0851  130.9319  150.6345 H   0  0  0  0  0  0  0  0  0  0  0  0
  144.8015  131.9074  149.2193 H   0  0  0  0  0  0  0  0  0  0  0  0
  146.7652  132.6749  150.6271 H   0  0  0  0  0  0  0  0  0  0  0  0
  145.5839  133.9151  150.3115 H   0  0  0  0  0  0  0  0  0  0  0  0
  145.8895  132.3050  152.8971 H   0  0  0  0  0  0  0  0  0  0  0  0
  143.9033  132.6178  153.3293 H   0  0  0  0  0  0  0  0  0  0  0  0
  1  2  1  0  0  0  0
  1 21  1  0  0  0  0
  1 22  1  0  0  0  0
  1 23  1  0  0  0  0
  2  7  1  0  0  0  0
  2  3  2  0  0  0  0
  3  4  1  0  0  0  0
  4  5  1  0  0  0  0
  5  6  1  0  0  0  0
  5  7  2  0  0  0  0
  6 24  1  0  0  0  0
  6 25  1  0  0  0  0
  6 26  1  0  0  0  0
  7  8  1  0  0  0  0
  8  9  1  0  0  0  0
  8 27  1  0  0  0  0
  8 28  1  0  0  0  0
  9 10  2  0  0  0  0
  9 11  1  0  0  0  0
 11 12  1  0  0  0  0
 11 29  1  0  0  0  0
 12 20  1  0  0  0  0
 12 13  1  0  0  0  0
 12 30  1  0  0  0  0
 13 14  1  0  0  0  0
 13 31  1  0  0  0  0
 13 32  1  0  0  0  0
 14 15  1  0  0  0  0
 14 33  1  0  0  0  0
 14 34  1  0  0  0  0
 15 20  1  0  0  0  0
 15 16  1  0  0  0  0
 15 44  1  0  0  0  0
 16 17  1  0  0  0  0
 16 35  1  0  0  0  0
 16 36  1  0  0  0  0
 17 18  1  0  0  0  0
 17 37  1  0  0  0  0
 17 38  1  0  0  0  0
 18 19  1  0  0  0  0
 18 39  1  0  0  0  0
 18 40  1  0  0  0  0
 19 20  1  0  0  0  0
 19 41  1  0  0  0  0
 19 42  1  0  0  0  0
 20 43  1  0  0  0  0
M  CHG  1  15   1
M  END
> <s_m_source_file>
AV-unprocessed.smi

> <i_m_source_file_index>
311

> <i_lp_mmshare_version>
43012

> <i_f3d_flags>
0

> <s_epik_input>
W0NIM11jMW5vYyhbQ0gzXSljMVtDSDJdQyg9TylbTkhdW0NASF0oW0NIMl1bQ0gyXTIpW0NAQEhdKE4yMylbQ0gyXVtDSDJdW0NIMl1bQ0gyXTM=

> <s_epik_cmdline>
J2VwaWtfcHl0aG9uJywgJy1waCcsICc3LjAnLCAnLXRuJywgJzgnLCAnLW1hJywgJzIwMCcsICctbWV0YWxfYmluZGluZycsICctaW1hZScsICc8aW5maWxlLm1hZT4nLCAnLW9tYWUnLCAnPG91dGZpbGUubWFlPic=

> <r_epik_Ionization_Penalty>
0.00173669

> <r_epik_Ionization_Penalty_Charging>
0.0017366

> <r_epik_Ionization_Penalty_Neutral>
9.2145e-08

> <r_epik_State_Penalty>
0.00117499

> <r_epik_Charging_Adjusted_Penalty>
0.00291159

> <i_epik_Tot_Q>
1

> <i_epik_Tot_abs_Q>
1

> <r_epik_Metal_State_Penalty>
-0

> <b_epik_Metal_Only>
0

> <s_lp_Force_Field>
OPLS_2005

> <r_lp_Energy>
32.9133

> <b_lp_Chiralities_Consistent>
1

> <s_lp_Variant>
AV-unprocessed.smi:311-1

> <Gold.Version>
5.8.1

> <Gold.Id.Protein>
6NUR|6NUR_protein|mol2

> <Gold.PLP.Fitness>
38.7084

> <Gold.PLP.PLP>
-27.9485

> <Gold.PLP.part.hbond>
-3.7745

> <Gold.PLP.part.metal>
0.0000

> <Gold.PLP.part.buried>
-4.5928

> <Gold.PLP.part.nonpolar>
-23.2959

> <Gold.PLP.part.repulsive>
0.0207

> <Gold.PLP.ligand.clash>
0.0000

> <Gold.PLP.ligand.torsion>
0.5394

> <Gold.PLP.Chemscore.Hbond>
3.9413

> <Gold.PLP.Chemscore.CHOScore>
0.0000

> <Gold.PLP.Chemscore.Metal>
0.0000

> <Gold.Chemscore.Hbonds>
donor molecule, donor type, donor heavy atom, donor atom, acceptor molecule, acceptor atom, score
      L1  H    11    29       P1  7948  1.00
      L1  H    15    44       P1 10957  1.74
      P1  H  6896  6908       L1     4  1.00

> <Gold.PLP.Chemscore.Internal.Correction>
0.0149

> <Gold.Rescore>
     Score         DG    S(hbond)    S(metal)    S(lipo)     H(rot)  DE(clash)    DE(int)     intcor
     17.25     -19.22       2.75        0.00      68.62       1.36       0.18       1.79       ----

> <Gold.Chemscore.Fitness>
17.2501

> <Gold.Chemscore.DG>
-19.2218

> <Gold.Chemscore.ZeroCoef>
-5.4800

> <Gold.Chemscore.Hbond>
2.7505

> <Gold.Chemscore.Metal>
0.0000

> <Gold.Chemscore.Lipo>
68.6183

> <Gold.Chemscore.Internal_Hbond>
0.0000

> <Gold.Chemscore.DEClash>
0.1771

> <Gold.Chemscore.DEInternal>
1.7946

> <Gold.Chemscore.Rot>
1.3567

> <Gold.Chemscore.Internal.Correction>
   9.000000E+99

> <Gold.Chemscore.Hbonds>
donor molecule, donor type, donor heavy atom, donor atom, acceptor molecule, acceptor atom, score
      L1  H    11    29       P1  7948  0.39
      L1  H    15    44       P1 10957  0.24
      P1  H  6896  6908       L1     4  0.46

> <Gold.Chemscore.Hbond.Weighted>
-9.1865

> <Gold.Chemscore.Metal.Weighted>
-0.0000

> <Gold.Chemscore.Lipo.Weighted>
-8.0283

> <Gold.Chemscore.Internal_Hbond.Weighted>
0.0000

> <Gold.Chemscore.DEClash.Weighted>
0.1771

> <Gold.Chemscore.DEInternal.Weighted>
1.7946

> <Gold.Chemscore.Rot.Weighted>
3.4731

> <Gold.Chemscore.Internal.Correction.Weighted>
   9.000000E+99

> <Gold.Protein.RotatedTorsions>
[ 6907 6896 6895 6894 ] final  121.87 input  -60.11 | X-H torsion
[ 7974 7965 7964 7962 ] final  -12.40 input  175.53 | X-H torsion
[ 8008 7997 7996 7995 ] final  104.95 input   59.86 | X-H torsion
[ 10167 10162 10161 10158 ] final   22.57 input  -65.29 | X-H torsion
[ 10718 10713 10712 10709 ] final   97.01 input   66.30 | X-H torsion
[ 10763 10752 10751 10750 ] final   72.96 input  -60.55 | X-H torsion
[ 11005 11000 10999 10996 ] final  168.02 input  -57.11 | X-H torsion

> <Gold.Protein.ActiveResidues>
 VAL166  LYS551  ARG553  GLY616  TRP617  ASP618  TYR619  PRO620  LYS621  CYS622 
 ASP623  PHE694  ASN695  SER759  ASP760  ASP761  ALA762  ILE779  LEU786  VAL792 
 PHE793  MET794  SER795  GLU796  ALA797  LYS798  CYS799  TRP800  GLU811  SER814 

> <Gold.Protein.RotatedAtoms>
  152.4288  133.7241  159.6549 H   0  0  0  0  0  0  0  0  0  0  0  0  # atno 6907 bound_to 6896
  150.8166  133.8316  159.3164 H   0  0  0  0  0  0  0  0  0  0  0  0  # atno 6908 bound_to 6896
  151.6010  135.1049  160.0112 H   0  0  0  0  0  0  0  0  0  0  0  0  # atno 6909 bound_to 6896
  146.2153  140.3051  142.8378 H   0  0  0  0  0  0  0  0  0  0  0  0  # atno 7974 bound_to 7965
  156.1617  140.3139  155.8818 H   0  0  0  0  0  0  0  0  0  0  0  0  # atno 8008 bound_to 7997
  155.3769  140.0485  157.3061 H   0  0  0  0  0  0  0  0  0  0  0  0  # atno 8009 bound_to 7997
  154.5153  140.2179  155.9089 H   0  0  0  0  0  0  0  0  0  0  0  0  # atno 8010 bound_to 7997
  140.5338  143.9795  150.6480 H   0  0  0  0  0  0  0  0  0  0  0  0  # atno 10167 bound_to 10162
  157.6919  131.0596  150.4578 H   0  0  0  0  0  0  0  0  0  0  0  0  # atno 10718 bound_to 10713
  153.0491  135.5081  154.7821 H   0  0  0  0  0  0  0  0  0  0  0  0  # atno 10763 bound_to 10752
  154.6698  135.2951  154.9759 H   0  0  0  0  0  0  0  0  0  0  0  0  # atno 10764 bound_to 10752
  154.0582  135.6694  153.4861 H   0  0  0  0  0  0  0  0  0  0  0  0  # atno 10765 bound_to 10752
  140.2829  134.7736  157.3773 H   0  0  0  0  0  0  0  0  0  0  0  0  # atno 11005 bound_to 11000
  144.9029  140.7664  143.5856 LP  0  0  0  0  0  0  0  0  0  0  0  0  # atno 17320 bound_to 7965
  145.2978  139.1861  143.4706 LP  0  0  0  0  0  0  0  0  0  0  0  0  # atno 17321 bound_to 7965
  140.3178  143.3157  152.0815 LP  0  0  0  0  0  0  0  0  0  0  0  0  # atno 17342 bound_to 10162
  139.4963  144.6594  151.6499 LP  0  0  0  0  0  0  0  0  0  0  0  0  # atno 17343 bound_to 10162
  156.4925  130.4098  149.6399 LP  0  0  0  0  0  0  0  0  0  0  0  0  # atno 17370 bound_to 10713
  156.3404  130.7379  151.2323 LP  0  0  0  0  0  0  0  0  0  0  0  0  # atno 17371 bound_to 10713
  140.1267  134.5149  155.8139 LP  0  0  0  0  0  0  0  0  0  0  0  0  # atno 17394 bound_to 11000
  141.2159  133.6775  156.6964 LP  0  0  0  0  0  0  0  0  0  0  0  0  # atno 17395 bound_to 11000

$$$$
