AV-unprocessed.smi:1198|AV-procd|sdf|5012|dock5
  -GOLD-   22720 4 23D 1   1.00000     0.00000
 Structure written by MMmdl.
 40 41  0  0  0  0  0  0  0  0  2 V2000
  151.4204  141.6716  157.9116 C   0  0  0  0  0  0  0  0  0  0  0  0
  151.2833  141.5770  156.4980 O   0  0  0  0  0  0  0  0  0  0  0  0
  150.9129  140.3638  155.9553 C   0  0  0  0  0  0  0  0  0  0  0  0
  151.0063  139.2099  156.7580 C   0  0  0  0  0  0  0  0  0  0  0  0
  150.6277  137.9705  156.2094 C   0  0  0  0  0  0  0  0  0  0  0  0
  150.1747  137.9159  154.8760 C   0  0  0  0  0  0  0  0  0  0  0  0
  149.7854  136.6492  154.3618 N   0  0  0  0  0  0  0  0  0  0  0  0
  149.7202  135.4649  154.9940 C   0  0  0  0  0  0  0  0  0  0  0  0
  149.9828  135.2706  156.1805 O   0  0  0  0  0  0  0  0  0  0  0  0
  149.3132  134.4960  154.1620 N   0  0  0  0  0  0  0  0  0  0  0  0
  149.1328  133.0959  154.5309 C   0  0  0  0  0  0  0  0  0  0  0  0
  147.8449  132.4987  153.9313 C   0  0  2  0  0  0  0  0  0  0  0  0
  147.7978  130.9720  153.8967 C   0  0  0  0  0  0  0  0  0  0  0  0
  146.7145  130.6989  152.8566 C   0  0  0  0  0  0  0  0  0  0  0  0
  146.8619  131.7667  151.8438 N   0  3  1  0  0  0  0  0  0  0  0  0
  145.5955  132.1585  151.1902 C   0  0  0  0  0  0  0  0  0  0  0  0
  147.6015  132.8898  152.4673 C   0  0  0  0  0  0  0  0  0  0  0  0
  150.1080  139.1329  154.1539 C   0  0  0  0  0  0  0  0  0  0  0  0
  150.4685  140.3253  154.6749 N   0  0  0  0  0  0  0  0  0  0  0  0
  151.7247  142.6838  158.1773 H   0  0  0  0  0  0  0  0  0  0  0  0
  152.1844  140.9885  158.2855 H   0  0  0  0  0  0  0  0  0  0  0  0
  150.4763  141.4662  158.4182 H   0  0  0  0  0  0  0  0  0  0  0  0
  151.3601  139.2748  157.7763 H   0  0  0  0  0  0  0  0  0  0  0  0
  150.6884  137.0730  156.8079 H   0  0  0  0  0  0  0  0  0  0  0  0
  149.4739  136.6543  153.4018 H   0  0  0  0  0  0  0  0  0  0  0  0
  149.1107  134.7451  153.2047 H   0  0  0  0  0  0  0  0  0  0  0  0
  150.0013  132.5150  154.2159 H   0  0  0  0  0  0  0  0  0  0  0  0
  149.1018  133.0372  155.6191 H   0  0  0  0  0  0  0  0  0  0  0  0
  146.9876  132.8446  154.5118 H   0  0  0  0  0  0  0  0  0  0  0  0
  148.7530  130.5690  153.5568 H   0  0  0  0  0  0  0  0  0  0  0  0
  147.5693  130.5308  154.8676 H   0  0  0  0  0  0  0  0  0  0  0  0
  146.8012  129.7082  152.4094 H   0  0  0  0  0  0  0  0  0  0  0  0
  145.7338  130.7677  153.3309 H   0  0  0  0  0  0  0  0  0  0  0  0
  144.9009  132.5946  151.9096 H   0  0  0  0  0  0  0  0  0  0  0  0
  145.1177  131.2916  150.7323 H   0  0  0  0  0  0  0  0  0  0  0  0
  145.7834  132.8928  150.4063 H   0  0  0  0  0  0  0  0  0  0  0  0
  147.0693  133.8395  152.3932 H   0  0  0  0  0  0  0  0  0  0  0  0
  148.5457  133.0028  151.9330 H   0  0  0  0  0  0  0  0  0  0  0  0
  149.7424  139.1812  153.1405 H   0  0  0  0  0  0  0  0  0  0  0  0
  147.4672  131.3990  151.1233 H   0  0  0  0  0  0  0  0  0  0  0  0
  1  2  1  0  0  0  0
  1 20  1  0  0  0  0
  1 21  1  0  0  0  0
  1 22  1  0  0  0  0
  2  3  1  0  0  0  0
  3 19  1  0  0  0  0
  3  4  2  0  0  0  0
  4  5  1  0  0  0  0
  4 23  1  0  0  0  0
  5  6  2  0  0  0  0
  5 24  1  0  0  0  0
  6  7  1  0  0  0  0
  6 18  1  0  0  0  0
  7  8  1  0  0  0  0
  7 25  1  0  0  0  0
  8  9  2  0  0  0  0
  8 10  1  0  0  0  0
 10 11  1  0  0  0  0
 10 26  1  0  0  0  0
 11 12  1  0  0  0  0
 11 27  1  0  0  0  0
 11 28  1  0  0  0  0
 12 17  1  0  0  0  0
 12 13  1  0  0  0  0
 12 29  1  0  0  0  0
 13 14  1  0  0  0  0
 13 30  1  0  0  0  0
 13 31  1  0  0  0  0
 14 15  1  0  0  0  0
 14 32  1  0  0  0  0
 14 33  1  0  0  0  0
 15 16  1  0  0  0  0
 15 17  1  0  0  0  0
 15 40  1  0  0  0  0
 16 34  1  0  0  0  0
 16 35  1  0  0  0  0
 16 36  1  0  0  0  0
 17 37  1  0  0  0  0
 17 38  1  0  0  0  0
 18 19  2  0  0  0  0
 18 39  1  0  0  0  0
M  CHG  1  15   1
M  END
> <s_m_source_file>
AV-unprocessed.smi

> <i_m_source_file_index>
1198

> <i_lp_mmshare_version>
43012

> <i_f3d_flags>
0

> <s_epik_input>
W0NIM11PYzFbY0hdW2NIXWMoW2NIXW4xKVtOSF1DKD1PKVtOSF1bQ0gyXVtDQEBIXTJbQ0gyXVtDSDJdTihbQ0gzXSlbQ0gyXTI=

> <s_epik_cmdline>
J2VwaWtfcHl0aG9uJywgJy1waCcsICc3LjAnLCAnLXRuJywgJzgnLCAnLW1hJywgJzIwMCcsICctbWV0YWxfYmluZGluZycsICctaW1hZScsICc8aW5maWxlLm1hZT4nLCAnLW9tYWUnLCAnPG91dGZpbGUubWFlPic=

> <r_lp_tautomer_probability>
1

> <r_epik_Ionization_Penalty>
0.00131396

> <r_epik_Ionization_Penalty_Charging>
0.0012301

> <r_epik_Ionization_Penalty_Neutral>
8.38549e-05

> <r_epik_State_Penalty>
0.00081314

> <r_epik_Charging_Adjusted_Penalty>
0.00204324

> <i_epik_Tot_Q>
1

> <i_epik_Tot_abs_Q>
1

> <r_epik_Metal_State_Penalty>
-0

> <b_epik_Metal_Only>
0

> <s_lp_Force_Field>
OPLS_2005

> <r_lp_Energy>
29.8617

> <b_lp_Chiralities_Consistent>
1

> <s_lp_Variant>
AV-unprocessed.smi:1198-3

> <Gold.Version>
5.8.1

> <Gold.Id.Protein>
6NUR|6NUR_protein|mol2

> <Gold.PLP.Fitness>
42.5387

> <Gold.PLP.PLP>
-29.7295

> <Gold.PLP.part.hbond>
-4.4055

> <Gold.PLP.part.metal>
0.0000

> <Gold.PLP.part.buried>
-1.9273

> <Gold.PLP.part.nonpolar>
-23.2510

> <Gold.PLP.part.repulsive>
0.2281

> <Gold.PLP.ligand.clash>
0.0024

> <Gold.PLP.ligand.torsion>
0.4683

> <Gold.PLP.Chemscore.Hbond>
3.5760

> <Gold.PLP.Chemscore.CHOScore>
1.0000

> <Gold.PLP.Chemscore.Metal>
0.0000

> <Gold.Chemscore.Hbonds>
donor molecule, donor type, donor heavy atom, donor atom, acceptor molecule, acceptor atom, score
      L1  H     7    25       P1  7948  1.00
      L1  H    10    26       P1  7948  0.61
      L1  H    15    40       P1 10747  1.00
      P1  H  7989  7998       L1    19  1.00
      L1  C    18    39       P1  7957  1.00

> <Gold.PLP.Chemscore.Internal.Correction>
0.0201

> <Gold.Rescore>
     Score         DG    S(hbond)    S(metal)    S(lipo)     H(rot)  DE(clash)    DE(int)     intcor
     15.18     -16.84       2.41        0.00      61.47       1.51       0.01       1.64       ----

> <Gold.Chemscore.Fitness>
15.1841

> <Gold.Chemscore.DG>
-16.8379

> <Gold.Chemscore.ZeroCoef>
-5.4800

> <Gold.Chemscore.Hbond>
2.4083

> <Gold.Chemscore.Metal>
0.0000

> <Gold.Chemscore.Lipo>
61.4725

> <Gold.Chemscore.Internal_Hbond>
0.0000

> <Gold.Chemscore.DEClash>
0.0106

> <Gold.Chemscore.DEInternal>
1.6432

> <Gold.Chemscore.Rot>
1.5149

> <Gold.Chemscore.Internal.Correction>
   9.000000E+99

> <Gold.Chemscore.Hbonds>
donor molecule, donor type, donor heavy atom, donor atom, acceptor molecule, acceptor atom, score
      L1  H     7    25       P1  7948  0.78
      L1  H    10    26       P1  7948  0.05
      L1  H    15    40       P1 10747  1.00
      P1  H  7989  7998       L1    19  0.27

> <Gold.Chemscore.Hbond.Weighted>
-8.0437

> <Gold.Chemscore.Metal.Weighted>
-0.0000

> <Gold.Chemscore.Lipo.Weighted>
-7.1923

> <Gold.Chemscore.Internal_Hbond.Weighted>
0.0000

> <Gold.Chemscore.DEClash.Weighted>
0.0106

> <Gold.Chemscore.DEInternal.Weighted>
1.6432

> <Gold.Chemscore.Rot.Weighted>
3.8781

> <Gold.Chemscore.Internal.Correction.Weighted>
   9.000000E+99

> <Gold.Protein.RotatedTorsions>
[ 6907 6896 6895 6894 ] final -152.24 input  -60.11 | X-H torsion
[ 7974 7965 7964 7962 ] final -163.04 input  175.53 | X-H torsion
[ 8008 7997 7996 7995 ] final  142.68 input   59.86 | X-H torsion
[ 10167 10162 10161 10158 ] final   52.89 input  -65.29 | X-H torsion
[ 10718 10713 10712 10709 ] final   42.85 input   66.30 | X-H torsion
[ 10763 10752 10751 10750 ] final -129.59 input  -60.55 | X-H torsion
[ 11005 11000 10999 10996 ] final  -68.12 input  -57.11 | X-H torsion

> <Gold.Protein.ActiveResidues>
 VAL166  LYS551  ARG553  GLY616  TRP617  ASP618  TYR619  PRO620  LYS621  CYS622 
 ASP623  PHE694  ASN695  SER759  ASP760  ASP761  ALA762  ILE779  LEU786  VAL792 
 PHE793  MET794  SER795  GLU796  ALA797  LYS798  CYS799  TRP800  GLU811  SER814 

> <Gold.Protein.RotatedAtoms>
  151.2249  133.4482  159.2601 H   0  0  0  0  0  0  0  0  0  0  0  0  # atno 6907 bound_to 6896
  151.0849  134.9881  159.8384 H   0  0  0  0  0  0  0  0  0  0  0  0  # atno 6908 bound_to 6896
  152.5428  134.2186  159.8831 H   0  0  0  0  0  0  0  0  0  0  0  0  # atno 6909 bound_to 6896
  144.7338  140.3165  143.6178 H   0  0  0  0  0  0  0  0  0  0  0  0  # atno 7974 bound_to 7965
  156.2945  140.2282  156.4768 H   0  0  0  0  0  0  0  0  0  0  0  0  # atno 8008 bound_to 7997
  154.7887  140.0455  157.1205 H   0  0  0  0  0  0  0  0  0  0  0  0  # atno 8009 bound_to 7997
  154.9671  140.3062  155.5008 H   0  0  0  0  0  0  0  0  0  0  0  0  # atno 8010 bound_to 7997
  140.2466  144.3525  150.6362 H   0  0  0  0  0  0  0  0  0  0  0  0  # atno 10167 bound_to 10162
  157.4094  130.7906  149.7417 H   0  0  0  0  0  0  0  0  0  0  0  0  # atno 10718 bound_to 10713
  154.8757  135.3890  154.3944 H   0  0  0  0  0  0  0  0  0  0  0  0  # atno 10763 bound_to 10752
  153.4676  135.7029  153.6018 H   0  0  0  0  0  0  0  0  0  0  0  0  # atno 10764 bound_to 10752
  153.4489  135.3838  155.2240 H   0  0  0  0  0  0  0  0  0  0  0  0  # atno 10765 bound_to 10752
  141.1524  133.6734  156.6398 H   0  0  0  0  0  0  0  0  0  0  0  0  # atno 11005 bound_to 11000
  145.7612  139.1825  143.2266 LP  0  0  0  0  0  0  0  0  0  0  0  0  # atno 17320 bound_to 7965
  146.0985  140.7572  142.9560 LP  0  0  0  0  0  0  0  0  0  0  0  0  # atno 17321 bound_to 7965
  140.6073  143.2168  151.6956 LP  0  0  0  0  0  0  0  0  0  0  0  0  # atno 17342 bound_to 10162
  139.5060  144.3698  152.0481 LP  0  0  0  0  0  0  0  0  0  0  0  0  # atno 17343 bound_to 10162
  155.9846  130.3990  150.3302 LP  0  0  0  0  0  0  0  0  0  0  0  0  # atno 17370 bound_to 10713
  157.1439  131.0303  151.2915 LP  0  0  0  0  0  0  0  0  0  0  0  0  # atno 17371 bound_to 10713
  140.3402  134.7855  157.4392 LP  0  0  0  0  0  0  0  0  0  0  0  0  # atno 17394 bound_to 11000
  140.0944  134.5557  155.8413 LP  0  0  0  0  0  0  0  0  0  0  0  0  # atno 17395 bound_to 11000

$$$$
