AV-unprocessed.smi:456|AV-procd|sdf|2618|dock7
  -GOLD-   2262023 23D 1   1.00000     0.00000
 Structure written by MMmdl.
 33 35  0  0  0  0  0  0  0  0  2 V2000
  151.8826  144.3865  162.0584 O   0  0  0  0  0  0  0  0  0  0  0  0
  152.4063  143.2226  161.4477 C   0  0  1  0  0  0  0  0  0  0  0  0
  153.0749  143.5957  160.1101 C   0  0  0  0  0  0  0  0  0  0  0  0
  152.1481  143.5344  158.9723 N   0  0  0  0  0  0  0  0  0  0  0  0
  151.6683  144.5310  158.1800 C   0  0  0  0  0  0  0  0  0  0  0  0
  150.8358  143.9623  157.2641 N   0  3  0  0  0  0  0  0  0  0  0  0
  150.7823  142.5825  157.4759 C   0  0  0  0  0  0  0  0  0  0  0  0
  150.0808  141.5829  156.8097 C   0  0  0  0  0  0  0  0  0  0  0  0
  150.2485  140.2650  157.2841 C   0  0  0  0  0  0  0  0  0  0  0  0
  149.5894  139.2536  156.6711 F   0  0  0  0  0  0  0  0  0  0  0  0
  151.0879  139.9812  158.3826 C   0  0  0  0  0  0  0  0  0  0  0  0
  151.2206  138.7020  158.8060 F   0  0  0  0  0  0  0  0  0  0  0  0
  151.7937  141.0035  159.0507 C   0  0  0  0  0  0  0  0  0  0  0  0
  151.6228  142.3018  158.5733 C   0  0  0  0  0  0  0  0  0  0  0  0
  153.3705  142.4769  162.3563 C   0  0  0  0  0  0  0  0  0  0  0  0
  153.6830  142.9995  163.6298 C   0  0  0  0  0  0  0  0  0  0  0  0
  154.5676  142.3111  164.4825 C   0  0  0  0  0  0  0  0  0  0  0  0
  155.1421  141.0941  164.0683 C   0  0  0  0  0  0  0  0  0  0  0  0
  154.8310  140.5654  162.8008 C   0  0  0  0  0  0  0  0  0  0  0  0
  153.9472  141.2539  161.9472 C   0  0  0  0  0  0  0  0  0  0  0  0
  151.8733  145.0815  161.4178 H   0  0  0  0  0  0  0  0  0  0  0  0
  151.5555  142.5699  161.2480 H   0  0  0  0  0  0  0  0  0  0  0  0
  153.4742  144.6100  160.1532 H   0  0  0  0  0  0  0  0  0  0  0  0
  153.9210  142.9397  159.9007 H   0  0  0  0  0  0  0  0  0  0  0  0
  151.9032  145.5823  158.2655 H   0  0  0  0  0  0  0  0  0  0  0  0
  149.4367  141.7955  155.9691 H   0  0  0  0  0  0  0  0  0  0  0  0
  152.4325  140.7765  159.8912 H   0  0  0  0  0  0  0  0  0  0  0  0
  153.2447  143.9305  163.9589 H   0  0  0  0  0  0  0  0  0  0  0  0
  154.8042  142.7163  165.4554 H   0  0  0  0  0  0  0  0  0  0  0  0
  155.8196  140.5657  164.7227 H   0  0  0  0  0  0  0  0  0  0  0  0
  155.2692  139.6305  162.4835 H   0  0  0  0  0  0  0  0  0  0  0  0
  153.7118  140.8380  160.9785 H   0  0  0  0  0  0  0  0  0  0  0  0
  150.3411  144.4811  156.5496 H   0  0  0  0  0  0  0  0  0  0  0  0
  1  2  1  0  0  0  0
  1 21  1  0  0  0  0
  2  3  1  0  0  0  0
  2 15  1  0  0  0  0
  2 22  1  0  0  0  0
  3  4  1  0  0  0  0
  3 23  1  0  0  0  0
  3 24  1  0  0  0  0
  4 14  1  0  0  0  0
  4  5  1  0  0  0  0
  5  6  2  0  0  0  0
  5 25  1  0  0  0  0
  6  7  1  0  0  0  0
  6 33  1  0  0  0  0
  7 14  2  0  0  0  0
  7  8  1  0  0  0  0
  8  9  2  0  0  0  0
  8 26  1  0  0  0  0
  9 10  1  0  0  0  0
  9 11  1  0  0  0  0
 11 12  1  0  0  0  0
 11 13  2  0  0  0  0
 13 14  1  0  0  0  0
 13 27  1  0  0  0  0
 15 20  1  0  0  0  0
 15 16  2  0  0  0  0
 16 17  1  0  0  0  0
 16 28  1  0  0  0  0
 17 18  2  0  0  0  0
 17 29  1  0  0  0  0
 18 19  1  0  0  0  0
 18 30  1  0  0  0  0
 19 20  2  0  0  0  0
 19 31  1  0  0  0  0
 20 32  1  0  0  0  0
M  CHG  1   6   1
M  END
> <s_m_source_file>
AV-unprocessed.smi

> <i_m_source_file_index>
456

> <i_lp_mmshare_version>
43012

> <i_f3d_flags>
0

> <s_epik_input>
W2NIXTFbY0hdW2NIXVtjSF1bY0hdYzFbQ0BIXShbT0hdKVtDSDJdbihbY0hdbjIpYyhjMjMpW2NIXWMoRiljKEYpW2NIXTM=

> <s_epik_cmdline>
J2VwaWtfcHl0aG9uJywgJy1waCcsICc3LjAnLCAnLXRuJywgJzgnLCAnLW1hJywgJzIwMCcsICctbWV0YWxfYmluZGluZycsICctaW1hZScsICc8aW5maWxlLm1hZT4nLCAnLW9tYWUnLCAnPG91dGZpbGUubWFlPic=

> <r_epik_Ionization_Penalty>
2.16139

> <r_epik_Ionization_Penalty_Charging>
2.16138

> <r_epik_Ionization_Penalty_Neutral>
1.34362e-06

> <r_epik_State_Penalty>
2.30198

> <r_epik_Charging_Adjusted_Penalty>
4.46337

> <i_epik_Tot_Q>
1

> <i_epik_Tot_abs_Q>
1

> <r_epik_Metal_State_Penalty>
6.38245

> <b_epik_Metal_Only>
0

> <s_lp_Force_Field>
OPLS_2005

> <r_lp_Energy>
14.9755

> <b_lp_Chiralities_Consistent>
1

> <s_lp_Variant>
AV-unprocessed.smi:456-4

> <Gold.Version>
5.8.1

> <Gold.Id.Protein>
6NUR|6NUR_protein|mol2

> <Gold.PLP.Fitness>
54.6218

> <Gold.PLP.PLP>
-49.5581

> <Gold.PLP.part.hbond>
-3.0000

> <Gold.PLP.part.metal>
0.0000

> <Gold.PLP.part.buried>
-4.4964

> <Gold.PLP.part.nonpolar>
-41.1010

> <Gold.PLP.part.repulsive>
0.0146

> <Gold.PLP.ligand.clash>
0.0000

> <Gold.PLP.ligand.torsion>
0.4778

> <Gold.PLP.Chemscore.Hbond>
2.0000

> <Gold.PLP.Chemscore.CHOScore>
0.0000

> <Gold.PLP.Chemscore.Metal>
0.0000

> <Gold.Chemscore.Hbonds>
donor molecule, donor type, donor heavy atom, donor atom, acceptor molecule, acceptor atom, score
      L1  H     6    33       P1  8028  1.98

> <Gold.PLP.Chemscore.Internal.Correction>
0.0192

> <Gold.Rescore>
     Score         DG    S(hbond)    S(metal)    S(lipo)     H(rot)  DE(clash)    DE(int)     intcor
     15.68     -17.82       0.96        0.00     122.28       2.03       1.52       0.62       ----

> <Gold.Chemscore.Fitness>
15.6813

> <Gold.Chemscore.DG>
-17.8221

> <Gold.Chemscore.ZeroCoef>
-5.4800

> <Gold.Chemscore.Hbond>
0.9645

> <Gold.Chemscore.Metal>
0.0000

> <Gold.Chemscore.Lipo>
122.2764

> <Gold.Chemscore.Internal_Hbond>
0.0000

> <Gold.Chemscore.DEClash>
1.5214

> <Gold.Chemscore.DEInternal>
0.6194

> <Gold.Chemscore.Rot>
2.0256

> <Gold.Chemscore.Internal.Correction>
   9.000000E+99

> <Gold.Chemscore.Hbonds>
donor molecule, donor type, donor heavy atom, donor atom, acceptor molecule, acceptor atom, score
      L1  H     6    33       P1  8028  0.92

> <Gold.Chemscore.Hbond.Weighted>
-3.2213

> <Gold.Chemscore.Metal.Weighted>
-0.0000

> <Gold.Chemscore.Lipo.Weighted>
-14.3063

> <Gold.Chemscore.Internal_Hbond.Weighted>
0.0000

> <Gold.Chemscore.DEClash.Weighted>
1.5214

> <Gold.Chemscore.DEInternal.Weighted>
0.6194

> <Gold.Chemscore.Rot.Weighted>
5.1855

> <Gold.Chemscore.Internal.Correction.Weighted>
   9.000000E+99

> <Gold.Protein.RotatedTorsions>
[ 6907 6896 6895 6894 ] final  -58.55 input  -60.11 | X-H torsion
[ 7974 7965 7964 7962 ] final  -47.89 input  175.53 | X-H torsion
[ 8008 7997 7996 7995 ] final  -23.58 input   59.86 | X-H torsion
[ 10167 10162 10161 10158 ] final -115.68 input  -65.29 | X-H torsion
[ 10718 10713 10712 10709 ] final  122.47 input   66.30 | X-H torsion
[ 10763 10752 10751 10750 ] final  -68.53 input  -60.55 | X-H torsion
[ 11005 11000 10999 10996 ] final  -33.65 input  -57.11 | X-H torsion

> <Gold.Protein.ActiveResidues>
 VAL166  LYS551  ARG553  GLY616  TRP617  ASP618  TYR619  PRO620  LYS621  CYS622 
 ASP623  PHE694  ASN695  SER759  ASP760  ASP761  ALA762  ILE779  LEU786  VAL792 
 PHE793  MET794  SER795  GLU796  ALA797  LYS798  CYS799  TRP800  GLU811  SER814 

> <Gold.Protein.RotatedAtoms>
  150.7998  134.7083  159.6589 H   0  0  0  0  0  0  0  0  0  0  0  0  # atno 6907 bound_to 6896
  152.4114  134.6115  160.0036 H   0  0  0  0  0  0  0  0  0  0  0  0  # atno 6908 bound_to 6896
  151.6357  133.3292  159.3155 H   0  0  0  0  0  0  0  0  0  0  0  0  # atno 6909 bound_to 6896
  145.9569  140.7517  142.9477 H   0  0  0  0  0  0  0  0  0  0  0  0  # atno 7974 bound_to 7965
  154.4577  140.1977  156.0333 H   0  0  0  0  0  0  0  0  0  0  0  0  # atno 8008 bound_to 7997
  156.0779  140.3275  155.7628 H   0  0  0  0  0  0  0  0  0  0  0  0  # atno 8009 bound_to 7997
  155.5159  140.0565  157.2906 H   0  0  0  0  0  0  0  0  0  0  0  0  # atno 8010 bound_to 7997
  140.0874  143.4731  152.1890 H   0  0  0  0  0  0  0  0  0  0  0  0  # atno 10167 bound_to 10162
  157.5740  131.1081  150.8314 H   0  0  0  0  0  0  0  0  0  0  0  0  # atno 10718 bound_to 10713
  154.3904  135.6054  153.5840 H   0  0  0  0  0  0  0  0  0  0  0  0  # atno 10763 bound_to 10752
  152.9787  135.5882  154.4304 H   0  0  0  0  0  0  0  0  0  0  0  0  # atno 10764 bound_to 10752
  154.4088  135.2844  155.2028 H   0  0  0  0  0  0  0  0  0  0  0  0  # atno 10765 bound_to 10752
  140.9652  133.7141  156.1433 H   0  0  0  0  0  0  0  0  0  0  0  0  # atno 11005 bound_to 11000
  144.6807  140.2527  143.7329 LP  0  0  0  0  0  0  0  0  0  0  0  0  # atno 17320 bound_to 7965
  145.8094  139.1997  143.2002 LP  0  0  0  0  0  0  0  0  0  0  0  0  # atno 17321 bound_to 7965
  139.5744  144.7480  151.3804 LP  0  0  0  0  0  0  0  0  0  0  0  0  # atno 17342 bound_to 10162
  140.7046  143.7546  150.7460 LP  0  0  0  0  0  0  0  0  0  0  0  0  # atno 17343 bound_to 10162
  156.8778  130.5168  149.5292 LP  0  0  0  0  0  0  0  0  0  0  0  0  # atno 17370 bound_to 10713
  156.0785  130.5801  150.9518 LP  0  0  0  0  0  0  0  0  0  0  0  0  # atno 17371 bound_to 10713
  140.7410  134.4150  157.5554 LP  0  0  0  0  0  0  0  0  0  0  0  0  # atno 17394 bound_to 11000
  139.8892  134.8837  156.2434 LP  0  0  0  0  0  0  0  0  0  0  0  0  # atno 17395 bound_to 11000

$$$$
