AV-unprocessed.smi:1831|AV-procd|sdf|7461|dock8
  -GOLD-   22720 9153D 1   1.00000     0.00000
 Structure written by MMmdl.
 40 41  0  0  0  0  0  0  0  0  3 V2000
  150.9742  141.1946  156.2285 C   0  0  0  0  0  0  0  0  0  0  0  0
  151.3613  139.8016  155.8672 C   0  0  0  0  0  0  0  0  0  0  0  0
  152.6030  139.4630  155.5114 N   0  0  0  0  0  0  0  0  0  0  0  0
  152.7133  138.1106  155.2219 N   0  0  0  0  0  0  0  0  0  0  0  0
  151.5587  137.4454  155.3685 C   0  0  0  0  0  0  0  0  0  0  0  0
  151.4526  136.1266  155.1358 N   0  5  0  0  0  0  0  0  0  0  0  0
  150.3104  135.4749  155.4500 C   0  0  0  0  0  0  0  0  0  0  0  0
  149.7838  135.4202  156.5636 O   0  0  0  0  0  0  0  0  0  0  0  0
  149.7461  134.8517  154.4064 N   0  0  0  0  0  0  0  0  0  0  0  0
  148.5055  134.0830  154.4222 C   0  0  0  0  0  0  0  0  0  0  0  0
  148.6400  132.8168  153.5613 C   0  0  1  0  0  0  0  0  0  0  0  0
  149.1787  131.5912  154.2984 C   0  0  0  0  0  0  0  0  0  0  0  0
  148.6342  130.3928  153.5100 C   0  0  0  0  0  0  0  0  0  0  0  0
  147.5843  130.9091  152.5952 N   0  3  1  0  0  0  0  0  0  0  0  0
  146.3849  130.0369  152.4489 C   0  0  0  0  0  0  0  0  0  0  0  0
  146.7612  128.6740  151.8368 C   0  0  0  0  0  0  0  0  0  0  0  0
  145.2948  130.7036  151.5877 C   0  0  0  0  0  0  0  0  0  0  0  0
  147.3143  132.3047  153.0045 C   0  0  0  0  0  0  0  0  0  0  0  0
  150.2144  138.4727  155.8666 S   0  0  0  0  0  0  0  0  0  0  0  0
  151.8417  141.7529  156.5817 H   0  0  0  0  0  0  0  0  0  0  0  0
  150.2236  141.1823  157.0189 H   0  0  0  0  0  0  0  0  0  0  0  0
  150.5596  141.7025  155.3577 H   0  0  0  0  0  0  0  0  0  0  0  0
  150.2241  134.9232  153.5201 H   0  0  0  0  0  0  0  0  0  0  0  0
  148.2778  133.8200  155.4557 H   0  0  0  0  0  0  0  0  0  0  0  0
  147.6641  134.6747  154.0585 H   0  0  0  0  0  0  0  0  0  0  0  0
  149.3019  133.0291  152.7194 H   0  0  0  0  0  0  0  0  0  0  0  0
  150.2672  131.5889  154.3641 H   0  0  0  0  0  0  0  0  0  0  0  0
  148.7871  131.5649  155.3165 H   0  0  0  0  0  0  0  0  0  0  0  0
  149.4181  129.9186  152.9186 H   0  0  0  0  0  0  0  0  0  0  0  0
  148.2419  129.6461  154.2019 H   0  0  0  0  0  0  0  0  0  0  0  0
  145.9690  129.8635  153.4428 H   0  0  0  0  0  0  0  0  0  0  0  0
  145.8788  128.0452  151.7138 H   0  0  0  0  0  0  0  0  0  0  0  0
  147.4593  128.1190  152.4636 H   0  0  0  0  0  0  0  0  0  0  0  0
  147.2188  128.7943  150.8542 H   0  0  0  0  0  0  0  0  0  0  0  0
  144.4438  130.0357  151.4494 H   0  0  0  0  0  0  0  0  0  0  0  0
  145.6733  130.9634  150.5983 H   0  0  0  0  0  0  0  0  0  0  0  0
  144.9077  131.6124  152.0486 H   0  0  0  0  0  0  0  0  0  0  0  0
  146.5496  132.3179  153.7835 H   0  0  0  0  0  0  0  0  0  0  0  0
  146.9619  132.9113  152.1696 H   0  0  0  0  0  0  0  0  0  0  0  0
  148.0175  130.9723  151.6848 H   0  0  0  0  0  0  0  0  0  0  0  0
  1  2  1  0  0  0  0
  1 20  1  0  0  0  0
  1 21  1  0  0  0  0
  1 22  1  0  0  0  0
  2 19  1  0  0  0  0
  2  3  2  0  0  0  0
  3  4  1  0  0  0  0
  4  5  2  0  0  0  0
  5  6  1  0  0  0  0
  5 19  1  0  0  0  0
  6  7  1  0  0  0  0
  7  8  2  0  0  0  0
  7  9  1  0  0  0  0
  9 10  1  0  0  0  0
  9 23  1  0  0  0  0
 10 11  1  0  0  0  0
 10 24  1  0  0  0  0
 10 25  1  0  0  0  0
 11 18  1  0  0  0  0
 11 12  1  0  0  0  0
 11 26  1  0  0  0  0
 12 13  1  0  0  0  0
 12 27  1  0  0  0  0
 12 28  1  0  0  0  0
 13 14  1  0  0  0  0
 13 29  1  0  0  0  0
 13 30  1  0  0  0  0
 14 15  1  0  0  0  0
 14 18  1  0  0  0  0
 14 40  1  0  0  0  0
 15 16  1  0  0  0  0
 15 17  1  0  0  0  0
 15 31  1  0  0  0  0
 16 32  1  0  0  0  0
 16 33  1  0  0  0  0
 16 34  1  0  0  0  0
 17 35  1  0  0  0  0
 17 36  1  0  0  0  0
 17 37  1  0  0  0  0
 18 38  1  0  0  0  0
 18 39  1  0  0  0  0
M  CHG  1   6  -1
M  CHG  1  14   1
M  END
> <s_m_source_file>
AV-unprocessed.smi

> <i_m_source_file_index>
1831

> <i_lp_mmshare_version>
43012

> <i_f3d_flags>
0

> <s_epik_input>
W0NIM11jMW5uYyhzMSlbTkhdQyg9TylbTkhdW0NIMl1bQ0BASF0yW0NIMl1bQ0gyXU4oW0NIMl0yKVtDSF0oW0NIM10pW0NIM10=

> <s_epik_cmdline>
J2VwaWtfcHl0aG9uJywgJy1waCcsICc3LjAnLCAnLXRuJywgJzgnLCAnLW1hJywgJzIwMCcsICctbWV0YWxfYmluZGluZycsICctaW1hZScsICc8aW5maWxlLm1hZT4nLCAnLW9tYWUnLCAnPG91dGZpbGUubWFlPic=

> <r_lp_tautomer_probability>
1

> <r_epik_Ionization_Penalty>
4.24531

> <r_epik_Ionization_Penalty_Charging>
4.11954

> <r_epik_Ionization_Penalty_Neutral>
0.125766

> <r_epik_State_Penalty>
4.11879

> <r_epik_Charging_Adjusted_Penalty>
8.23833

> <i_epik_Tot_Q>
0

> <i_epik_Tot_abs_Q>
2

> <r_epik_Metal_State_Penalty>
0.659341

> <b_epik_Metal_Only>
1

> <s_lp_Force_Field>
OPLS_2005

> <r_lp_Energy>
24.973

> <b_lp_Chiralities_Consistent>
1

> <s_lp_Variant>
AV-unprocessed.smi:1831-6

> <Gold.Version>
5.8.1

> <Gold.Id.Protein>
6NUR|6NUR_protein|mol2

> <Gold.PLP.Fitness>
46.2587

> <Gold.PLP.PLP>
-36.3095

> <Gold.PLP.part.hbond>
-5.2716

> <Gold.PLP.part.metal>
0.0000

> <Gold.PLP.part.buried>
-3.0191

> <Gold.PLP.part.nonpolar>
-27.2892

> <Gold.PLP.part.repulsive>
0.2372

> <Gold.PLP.ligand.clash>
0.0000

> <Gold.PLP.ligand.torsion>
1.0606

> <Gold.PLP.Chemscore.Hbond>
4.0000

> <Gold.PLP.Chemscore.CHOScore>
0.0000

> <Gold.PLP.Chemscore.Metal>
0.0000

> <Gold.Chemscore.Hbonds>
donor molecule, donor type, donor heavy atom, donor atom, acceptor molecule, acceptor atom, score
      L1  H    14    40       P1 10747  1.00
      P1  H  7997  8010       L1     3  1.00
      P1  H 10752 10764       L1     6  2.00

> <Gold.PLP.Chemscore.Internal.Correction>
0.0705

> <Gold.Rescore>
     Score         DG    S(hbond)    S(metal)    S(lipo)     H(rot)  DE(clash)    DE(int)     intcor
     17.44     -18.39       2.47        0.00      72.78       1.51       0.02       0.93       ----

> <Gold.Chemscore.Fitness>
17.4400

> <Gold.Chemscore.DG>
-18.3857

> <Gold.Chemscore.ZeroCoef>
-5.4800

> <Gold.Chemscore.Hbond>
2.4744

> <Gold.Chemscore.Metal>
0.0000

> <Gold.Chemscore.Lipo>
72.7761

> <Gold.Chemscore.Internal_Hbond>
0.0000

> <Gold.Chemscore.DEClash>
0.0164

> <Gold.Chemscore.DEInternal>
0.9293

> <Gold.Chemscore.Rot>
1.5131

> <Gold.Chemscore.Internal.Correction>
   9.000000E+99

> <Gold.Chemscore.Hbonds>
donor molecule, donor type, donor heavy atom, donor atom, acceptor molecule, acceptor atom, score
      L1  H    14    40       P1 10747  1.00
      P1  H  7997  8010       L1     3  0.66
      P1  H 10752 10764       L1     6  0.65

> <Gold.Chemscore.Hbond.Weighted>
-8.2644

> <Gold.Chemscore.Metal.Weighted>
-0.0000

> <Gold.Chemscore.Lipo.Weighted>
-8.5148

> <Gold.Chemscore.Internal_Hbond.Weighted>
0.0000

> <Gold.Chemscore.DEClash.Weighted>
0.0164

> <Gold.Chemscore.DEInternal.Weighted>
0.9293

> <Gold.Chemscore.Rot.Weighted>
3.8735

> <Gold.Chemscore.Internal.Correction.Weighted>
   9.000000E+99

> <Gold.Protein.RotatedTorsions>
[ 6907 6896 6895 6894 ] final -166.85 input  -60.11 | X-H torsion
[ 7974 7965 7964 7962 ] final  169.44 input  175.53 | X-H torsion
[ 8008 7997 7996 7995 ] final  104.02 input   59.86 | X-H torsion
[ 10167 10162 10161 10158 ] final   -9.26 input  -65.29 | X-H torsion
[ 10718 10713 10712 10709 ] final -122.34 input   66.30 | X-H torsion
[ 10763 10752 10751 10750 ] final  -51.65 input  -60.55 | X-H torsion
[ 11005 11000 10999 10996 ] final   12.11 input  -57.11 | X-H torsion

> <Gold.Protein.ActiveResidues>
 VAL166  LYS551  ARG553  GLY616  TRP617  ASP618  TYR619  PRO620  LYS621  CYS622 
 ASP623  PHE694  ASN695  SER759  ASP760  ASP761  ALA762  ILE779  LEU786  VAL792 
 PHE793  MET794  SER795  GLU796  ALA797  LYS798  CYS799  TRP800  GLU811  SER814 

> <Gold.Protein.RotatedAtoms>
  151.4502  133.3619  159.2793 H   0  0  0  0  0  0  0  0  0  0  0  0  # atno 6907 bound_to 6896
  150.9096  134.8514  159.7427 H   0  0  0  0  0  0  0  0  0  0  0  0  # atno 6908 bound_to 6896
  152.4925  134.4430  159.9602 H   0  0  0  0  0  0  0  0  0  0  0  0  # atno 6909 bound_to 6896
  144.7355  139.9054  143.6412 H   0  0  0  0  0  0  0  0  0  0  0  0  # atno 7974 bound_to 7965
  156.1536  140.3155  155.8689 H   0  0  0  0  0  0  0  0  0  0  0  0  # atno 8008 bound_to 7997
  155.3922  140.0494  157.3057 H   0  0  0  0  0  0  0  0  0  0  0  0  # atno 8009 bound_to 7997
  154.5081  140.2154  155.9222 H   0  0  0  0  0  0  0  0  0  0  0  0  # atno 8010 bound_to 7997
  140.7082  143.5877  150.8925 H   0  0  0  0  0  0  0  0  0  0  0  0  # atno 10167 bound_to 10162
  156.1410  130.6466  150.9771 H   0  0  0  0  0  0  0  0  0  0  0  0  # atno 10718 bound_to 10713
  154.1299  135.6521  153.4920 H   0  0  0  0  0  0  0  0  0  0  0  0  # atno 10763 bound_to 10752
  153.0198  135.5290  154.7011 H   0  0  0  0  0  0  0  0  0  0  0  0  # atno 10764 bound_to 10752
  154.6243  135.2968  155.0260 H   0  0  0  0  0  0  0  0  0  0  0  0  # atno 10765 bound_to 10752
  140.4957  134.0796  155.7781 H   0  0  0  0  0  0  0  0  0  0  0  0  # atno 11005 bound_to 11000
  146.1040  139.4038  143.0329 LP  0  0  0  0  0  0  0  0  0  0  0  0  # atno 17320 bound_to 7965
  145.7537  140.9962  143.1236 LP  0  0  0  0  0  0  0  0  0  0  0  0  # atno 17321 bound_to 7965
  139.9603  143.6171  152.3004 LP  0  0  0  0  0  0  0  0  0  0  0  0  # atno 17342 bound_to 10162
  139.6721  144.7660  151.1763 LP  0  0  0  0  0  0  0  0  0  0  0  0  # atno 17343 bound_to 10162
  157.6576  131.0886  150.7912 LP  0  0  0  0  0  0  0  0  0  0  0  0  # atno 17370 bound_to 10713
  156.7988  130.4914  149.5373 LP  0  0  0  0  0  0  0  0  0  0  0  0  # atno 17371 bound_to 10713
  141.1461  133.9052  157.2211 LP  0  0  0  0  0  0  0  0  0  0  0  0  # atno 17394 bound_to 11000
  139.9743  135.0119  156.9591 LP  0  0  0  0  0  0  0  0  0  0  0  0  # atno 17395 bound_to 11000

$$$$
