AV-unprocessed.smi:180|AV-procd|sdf|1452|dock1
  -GOLD-   2262019253D 1   1.00000     0.00000
 Structure written by MMmdl.
 54 57  0  0  0  0  0  0  0  0  1 V2000
  148.2498  128.6602  152.9736 C   0  0  0  0  0  0  0  0  0  0  0  0
  148.1445  130.0711  153.5426 C   0  0  0  0  0  0  0  0  0  0  0  0
  147.8808  130.2375  154.7330 O   0  0  0  0  0  0  0  0  0  0  0  0
  148.3473  131.0779  152.6798 N   0  0  0  0  0  0  0  0  0  0  0  0
  148.2800  132.4956  153.0172 C   0  0  0  0  0  0  0  0  0  0  0  0
  149.5091  132.9477  153.8239 C   0  0  1  0  0  0  0  0  0  0  0  0
  149.2415  134.2605  154.5838 C   0  0  0  0  0  0  0  0  0  0  0  0
  150.3960  134.6044  155.4036 N   0  0  0  0  0  0  0  0  0  0  0  0
  150.3155  135.8161  155.9911 C   0  0  0  0  0  0  0  0  0  0  0  0
  149.5078  135.9230  157.0739 N   0  0  0  0  0  0  0  0  0  0  0  0
  149.3837  137.0971  157.7003 C   0  0  0  0  0  0  0  0  0  0  0  0
  149.9680  138.2628  157.4139 N   0  0  0  0  0  0  0  0  0  0  0  0
  150.7827  138.1557  156.3250 C   0  0  0  0  0  0  0  0  0  0  0  0
  151.0101  136.9801  155.5560 C   0  0  0  0  0  0  0  0  0  0  0  0
  151.8913  137.2558  154.5172 N   0  0  0  0  0  0  0  0  0  0  0  0
  152.1721  138.5215  154.6670 C   0  0  0  0  0  0  0  0  0  0  0  0
  151.5617  139.1370  155.7370 N   0  0  0  0  0  0  0  0  0  0  0  0
  151.6979  140.5296  156.1350 C   0  0  0  0  0  0  0  0  0  0  0  0
  151.8799  140.7479  157.6591 C   0  0  0  0  0  0  0  0  0  0  0  0
  150.5955  140.5488  158.2214 O   0  0  0  0  0  0  0  0  0  0  0  0
  152.8539  139.7370  158.3023 C   0  0  0  0  0  0  0  0  0  0  0  0
  153.0874  140.0337  159.7946 C   0  0  0  0  0  0  0  0  0  0  0  0
  153.5489  141.3697  159.9595 O   0  0  0  0  0  0  0  0  0  0  0  0
  152.6054  142.3399  159.5201 C   0  0  0  0  0  0  0  0  0  0  0  0
  152.3468  142.1770  158.0113 C   0  0  0  0  0  0  0  0  0  0  0  0
  150.7827  133.5351  156.3135 C   0  0  0  0  0  0  0  0  0  0  0  0
  151.0025  132.2351  155.5229 C   0  0  0  0  0  0  0  0  0  0  0  0
  149.8302  131.9305  154.7726 O   0  0  0  0  0  0  0  0  0  0  0  0
  149.0695  128.5898  152.2579 H   0  0  0  0  0  0  0  0  0  0  0  0
  147.3238  128.3880  152.4665 H   0  0  0  0  0  0  0  0  0  0  0  0
  148.4305  127.9366  153.7691 H   0  0  0  0  0  0  0  0  0  0  0  0
  148.5518  130.8471  151.7183 H   0  0  0  0  0  0  0  0  0  0  0  0
  148.1873  133.0865  152.1043 H   0  0  0  0  0  0  0  0  0  0  0  0
  147.3699  132.6711  153.5913 H   0  0  0  0  0  0  0  0  0  0  0  0
  150.3536  133.0918  153.1470 H   0  0  0  0  0  0  0  0  0  0  0  0
  149.0385  135.0677  153.8785 H   0  0  0  0  0  0  0  0  0  0  0  0
  148.3572  134.1504  155.2123 H   0  0  0  0  0  0  0  0  0  0  0  0
  148.7224  137.1030  158.5540 H   0  0  0  0  0  0  0  0  0  0  0  0
  152.8437  139.0435  154.0010 H   0  0  0  0  0  0  0  0  0  0  0  0
  152.5465  140.9499  155.5931 H   0  0  0  0  0  0  0  0  0  0  0  0
  150.8180  141.0694  155.7811 H   0  0  0  0  0  0  0  0  0  0  0  0
  150.5068  141.1143  158.9734 H   0  0  0  0  0  0  0  0  0  0  0  0
  152.4893  138.7172  158.1731 H   0  0  0  0  0  0  0  0  0  0  0  0
  153.8202  139.7837  157.8008 H   0  0  0  0  0  0  0  0  0  0  0  0
  152.1781  139.8761  160.3766 H   0  0  0  0  0  0  0  0  0  0  0  0
  153.8383  139.3528  160.1953 H   0  0  0  0  0  0  0  0  0  0  0  0
  151.6808  142.2508  160.0922 H   0  0  0  0  0  0  0  0  0  0  0  0
  153.0055  143.3333  159.7233 H   0  0  0  0  0  0  0  0  0  0  0  0
  153.2767  142.4026  157.4897 H   0  0  0  0  0  0  0  0  0  0  0  0
  151.6178  142.9139  157.6721 H   0  0  0  0  0  0  0  0  0  0  0  0
  151.6951  133.8092  156.8450 H   0  0  0  0  0  0  0  0  0  0  0  0
  150.0036  133.3855  157.0620 H   0  0  0  0  0  0  0  0  0  0  0  0
  151.8613  132.3251  154.8558 H   0  0  0  0  0  0  0  0  0  0  0  0
  151.2126  131.4112  156.2047 H   0  0  0  0  0  0  0  0  0  0  0  0
  1  2  1  0  0  0  0
  1 29  1  0  0  0  0
  1 30  1  0  0  0  0
  1 31  1  0  0  0  0
  2  3  2  0  0  0  0
  2  4  1  0  0  0  0
  4  5  1  0  0  0  0
  4 32  1  0  0  0  0
  5  6  1  0  0  0  0
  5 33  1  0  0  0  0
  5 34  1  0  0  0  0
  6 28  1  0  0  0  0
  6  7  1  0  0  0  0
  6 35  1  0  0  0  0
  7  8  1  0  0  0  0
  7 36  1  0  0  0  0
  7 37  1  0  0  0  0
  8  9  1  0  0  0  0
  8 26  1  0  0  0  0
  9 14  1  0  0  0  0
  9 10  2  0  0  0  0
 10 11  1  0  0  0  0
 11 12  2  0  0  0  0
 11 38  1  0  0  0  0
 12 13  1  0  0  0  0
 13 17  1  0  0  0  0
 13 14  2  0  0  0  0
 14 15  1  0  0  0  0
 15 16  2  0  0  0  0
 16 17  1  0  0  0  0
 16 39  1  0  0  0  0
 17 18  1  0  0  0  0
 18 19  1  0  0  0  0
 18 40  1  0  0  0  0
 18 41  1  0  0  0  0
 19 25  1  0  0  0  0
 19 20  1  0  0  0  0
 19 21  1  0  0  0  0
 20 42  1  0  0  0  0
 21 22  1  0  0  0  0
 21 43  1  0  0  0  0
 21 44  1  0  0  0  0
 22 23  1  0  0  0  0
 22 45  1  0  0  0  0
 22 46  1  0  0  0  0
 23 24  1  0  0  0  0
 24 25  1  0  0  0  0
 24 47  1  0  0  0  0
 24 48  1  0  0  0  0
 25 49  1  0  0  0  0
 25 50  1  0  0  0  0
 26 27  1  0  0  0  0
 26 51  1  0  0  0  0
 26 52  1  0  0  0  0
 27 28  1  0  0  0  0
 27 53  1  0  0  0  0
 27 54  1  0  0  0  0
M  END
> <s_m_source_file>
AV-unprocessed.smi

> <i_m_source_file_index>
180

> <i_lp_mmshare_version>
43012

> <i_f3d_flags>
0

> <s_epik_input>
W0NIM11DKD1PKVtOSF1bQ0gyXVtDQEBIXTFbQ0gyXU4oW0NIMl1bQ0gyXU8xKWMobltjSF1uMiljKGMyMyluW2NIXW4zW0NIMl1DNChbT0hdKVtDSDJdW0NIMl1PW0NIMl1bQ0gyXTQ=

> <s_epik_cmdline>
J2VwaWtfcHl0aG9uJywgJy1waCcsICc3LjAnLCAnLXRuJywgJzgnLCAnLW1hJywgJzIwMCcsICctbWV0YWxfYmluZGluZycsICctaW1hZScsICc8aW5maWxlLm1hZT4nLCAnLW9tYWUnLCAnPG91dGZpbGUubWFlPic=

> <r_lp_tautomer_probability>
1

> <r_epik_Ionization_Penalty>
7.38871e-05

> <r_epik_Ionization_Penalty_Charging>
0

> <r_epik_Ionization_Penalty_Neutral>
7.38871e-05

> <r_epik_State_Penalty>
-0

> <r_epik_Charging_Adjusted_Penalty>
0

> <i_epik_Tot_Q>
0

> <i_epik_Tot_abs_Q>
0

> <r_epik_Metal_State_Penalty>
-0

> <b_epik_Metal_Only>
0

> <s_lp_Force_Field>
OPLS_2005

> <r_lp_Energy>
30.2573

> <b_lp_Chiralities_Consistent>
1

> <s_lp_Variant>
AV-unprocessed.smi:180-2

> <Gold.Version>
5.8.1

> <Gold.Id.Protein>
6NUR|6NUR_protein|mol2

> <Gold.PLP.Fitness>
44.6270

> <Gold.PLP.PLP>
-40.1197

> <Gold.PLP.part.hbond>
-2.0000

> <Gold.PLP.part.metal>
0.0000

> <Gold.PLP.part.buried>
-7.7592

> <Gold.PLP.part.nonpolar>
-29.8691

> <Gold.PLP.part.repulsive>
0.2691

> <Gold.PLP.ligand.clash>
0.0000

> <Gold.PLP.ligand.torsion>
0.8813

> <Gold.PLP.Chemscore.Hbond>
1.9760

> <Gold.PLP.Chemscore.CHOScore>
0.0000

> <Gold.PLP.Chemscore.Metal>
0.0000

> <Gold.Chemscore.Hbonds>
donor molecule, donor type, donor heavy atom, donor atom, acceptor molecule, acceptor atom, score
      L1  H     4    32       P1 10747  0.89
      P1  H 10752 10763       L1    15  0.93

> <Gold.PLP.Chemscore.Internal.Correction>
0.3419

> <Gold.Rescore>
     Score         DG    S(hbond)    S(metal)    S(lipo)     H(rot)  DE(clash)    DE(int)     intcor
      8.63     -13.11       1.73        0.00      81.09       2.99       0.10       4.37       ----

> <Gold.Chemscore.Fitness>
8.6308

> <Gold.Chemscore.DG>
-13.1052

> <Gold.Chemscore.ZeroCoef>
-5.4800

> <Gold.Chemscore.Hbond>
1.7330

> <Gold.Chemscore.Metal>
0.0000

> <Gold.Chemscore.Lipo>
81.0900

> <Gold.Chemscore.Internal_Hbond>
0.0000

> <Gold.Chemscore.DEClash>
0.0998

> <Gold.Chemscore.DEInternal>
4.3747

> <Gold.Chemscore.Rot>
2.9885

> <Gold.Chemscore.Internal.Correction>
   9.000000E+99

> <Gold.Chemscore.Hbonds>
donor molecule, donor type, donor heavy atom, donor atom, acceptor molecule, acceptor atom, score
      L1  H     4    32       P1 10747  0.83
      P1  H 10752 10763       L1    15  0.63

> <Gold.Chemscore.Hbond.Weighted>
-5.7883

> <Gold.Chemscore.Metal.Weighted>
-0.0000

> <Gold.Chemscore.Lipo.Weighted>
-9.4875

> <Gold.Chemscore.Internal_Hbond.Weighted>
0.0000

> <Gold.Chemscore.DEClash.Weighted>
0.0998

> <Gold.Chemscore.DEInternal.Weighted>
4.3747

> <Gold.Chemscore.Rot.Weighted>
7.6506

> <Gold.Chemscore.Internal.Correction.Weighted>
   9.000000E+99

> <Gold.Protein.RotatedTorsions>
[ 6907 6896 6895 6894 ] final   17.50 input  -60.11 | X-H torsion
[ 7974 7965 7964 7962 ] final  -61.01 input  175.53 | X-H torsion
[ 8008 7997 7996 7995 ] final -149.88 input   59.86 | X-H torsion
[ 10167 10162 10161 10158 ] final -134.51 input  -65.29 | X-H torsion
[ 10718 10713 10712 10709 ] final  -32.71 input   66.30 | X-H torsion
[ 10763 10752 10751 10750 ] final   34.62 input  -60.55 | X-H torsion
[ 11005 11000 10999 10996 ] final  -73.49 input  -57.11 | X-H torsion

> <Gold.Protein.ActiveResidues>
 VAL166  LYS551  ARG553  GLY616  TRP617  ASP618  TYR619  PRO620  LYS621  CYS622 
 ASP623  PHE694  ASN695  SER759  ASP760  ASP761  ALA762  ILE779  LEU786  VAL792 
 PHE793  MET794  SER795  GLU796  ALA797  LYS798  CYS799  TRP800  GLU811  SER814 

> <Gold.Protein.RotatedAtoms>
  151.8506  135.0559  160.0458 H   0  0  0  0  0  0  0  0  0  0  0  0  # atno 6907 bound_to 6896
  152.2739  133.5403  159.5464 H   0  0  0  0  0  0  0  0  0  0  0  0  # atno 6908 bound_to 6896
  150.7162  134.0574  159.3862 H   0  0  0  0  0  0  0  0  0  0  0  0  # atno 6909 bound_to 6896
  145.8086  140.8612  143.0194 H   0  0  0  0  0  0  0  0  0  0  0  0  # atno 7974 bound_to 7965
  155.6147  140.0675  157.2696 H   0  0  0  0  0  0  0  0  0  0  0  0  # atno 8008 bound_to 7997
  154.4244  140.1795  156.1357 H   0  0  0  0  0  0  0  0  0  0  0  0  # atno 8009 bound_to 7997
  156.0057  140.3331  155.6893 H   0  0  0  0  0  0  0  0  0  0  0  0  # atno 8010 bound_to 7997
  139.8873  143.6765  152.2618 H   0  0  0  0  0  0  0  0  0  0  0  0  # atno 10167 bound_to 10162
  156.3716  130.4340  149.7541 H   0  0  0  0  0  0  0  0  0  0  0  0  # atno 10718 bound_to 10713
  153.0156  135.6355  154.1697 H   0  0  0  0  0  0  0  0  0  0  0  0  # atno 10763 bound_to 10752
  154.1436  135.2833  155.3156 H   0  0  0  0  0  0  0  0  0  0  0  0  # atno 10764 bound_to 10752
  154.6106  135.5558  153.7530 H   0  0  0  0  0  0  0  0  0  0  0  0  # atno 10765 bound_to 10752
  141.1623  133.6880  156.7219 H   0  0  0  0  0  0  0  0  0  0  0  0  # atno 11005 bound_to 11000
  144.6760  140.0363  143.7482 LP  0  0  0  0  0  0  0  0  0  0  0  0  # atno 17320 bound_to 7965
  145.9801  139.2935  143.1047 LP  0  0  0  0  0  0  0  0  0  0  0  0  # atno 17321 bound_to 7965
  139.7141  144.7615  151.1063 LP  0  0  0  0  0  0  0  0  0  0  0  0  # atno 17342 bound_to 10162
  140.7733  143.5292  150.9444 LP  0  0  0  0  0  0  0  0  0  0  0  0  # atno 17343 bound_to 10162
  156.4666  130.7977  151.2996 LP  0  0  0  0  0  0  0  0  0  0  0  0  # atno 17370 bound_to 10713
  157.7484  131.0049  150.3093 LP  0  0  0  0  0  0  0  0  0  0  0  0  # atno 17371 bound_to 10713
  140.2809  134.8317  157.3933 LP  0  0  0  0  0  0  0  0  0  0  0  0  # atno 17394 bound_to 11000
  140.1434  134.4943  155.8014 LP  0  0  0  0  0  0  0  0  0  0  0  0  # atno 17395 bound_to 11000

$$$$
