AV-unprocessed.smi:179|AV-procd|sdf|1449|dock4
  -GOLD-   2262019243D 1   1.00000     0.00000
 Structure written by MMmdl.
 44 47  0  0  0  0  0  0  0  0  1 V2000
  146.6202  132.4383  150.4998 O   0  0  0  0  0  0  0  0  0  0  0  0
  145.5015  132.2420  149.6580 C   0  0  0  0  0  0  0  0  0  0  0  0
  144.3855  133.2768  149.9043 C   0  0  0  0  0  0  0  0  0  0  0  0
  143.2834  133.0154  148.8604 C   0  0  0  0  0  0  0  0  0  0  0  0
  143.4657  133.8053  147.7024 O   0  0  0  0  0  0  0  0  0  0  0  0
  143.8899  133.4504  151.3599 C   0  0  0  0  0  0  0  0  0  0  0  0
  143.8382  134.9658  151.1491 C   0  0  0  0  0  0  0  0  0  0  0  0
  144.1170  135.8786  152.2230 N   0  0  0  0  0  0  0  0  0  0  0  0
  143.4951  135.9089  153.4518 C   0  0  0  0  0  0  0  0  0  0  0  0
  143.9232  136.8283  154.2730 N   0  0  0  0  0  0  0  0  0  0  0  0
  144.9182  137.4827  153.5591 C   0  0  0  0  0  0  0  0  0  0  0  0
  145.7840  138.5679  153.8634 C   0  0  0  0  0  0  0  0  0  0  0  0
  145.7431  139.2315  155.1211 N   0  0  0  0  0  0  0  0  0  0  0  0
  147.0163  139.3242  155.8291 C   0  0  0  0  0  0  0  0  0  0  0  0
  146.9095  140.8501  155.7577 C   0  0  0  0  0  0  0  0  0  0  0  0
  146.8030  141.5050  157.0056 O   0  0  0  0  0  0  0  0  0  0  0  0
  148.0242  141.6250  155.0438 C   0  0  0  0  0  0  0  0  0  0  0  0
  149.1978  141.4102  155.6402 F   0  0  0  0  0  0  0  0  0  0  0  0
  148.1294  141.2690  153.7646 F   0  0  0  0  0  0  0  0  0  0  0  0
  145.5731  140.6772  155.0283 C   0  0  0  0  0  0  0  0  0  0  0  0
  146.6525  138.9462  152.8871 N   0  0  0  0  0  0  0  0  0  0  0  0
  146.6776  138.3153  151.7097 C   0  0  0  0  0  0  0  0  0  0  0  0
  145.9303  137.2907  151.2986 N   0  0  0  0  0  0  0  0  0  0  0  0
  145.0528  136.9006  152.2663 C   0  0  0  0  0  0  0  0  0  0  0  0
  144.8262  134.7570  149.9977 C   0  0  0  0  0  0  0  0  0  0  0  0
  147.2876  131.8120  150.2645 H   0  0  0  0  0  0  0  0  0  0  0  0
  145.8494  132.2855  148.6254 H   0  0  0  0  0  0  0  0  0  0  0  0
  145.1403  131.2271  149.8262 H   0  0  0  0  0  0  0  0  0  0  0  0
  143.2715  131.9700  148.5512 H   0  0  0  0  0  0  0  0  0  0  0  0
  142.2954  133.2220  149.2731 H   0  0  0  0  0  0  0  0  0  0  0  0
  144.3928  133.9242  147.5619 H   0  0  0  0  0  0  0  0  0  0  0  0
  142.9212  132.9980  151.5741 H   0  0  0  0  0  0  0  0  0  0  0  0
  144.6246  133.1520  152.1083 H   0  0  0  0  0  0  0  0  0  0  0  0
  142.8622  135.2479  150.7502 H   0  0  0  0  0  0  0  0  0  0  0  0
  142.7081  135.2213  153.7257 H   0  0  0  0  0  0  0  0  0  0  0  0
  146.9502  138.9292  156.8432 H   0  0  0  0  0  0  0  0  0  0  0  0
  147.8743  138.9140  155.2951 H   0  0  0  0  0  0  0  0  0  0  0  0
  146.2825  140.9482  157.5645 H   0  0  0  0  0  0  0  0  0  0  0  0
  147.8462  142.7012  155.0516 H   0  0  0  0  0  0  0  0  0  0  0  0
  145.5664  141.0667  154.0093 H   0  0  0  0  0  0  0  0  0  0  0  0
  144.7114  141.0262  155.5985 H   0  0  0  0  0  0  0  0  0  0  0  0
  147.3986  138.6845  150.9954 H   0  0  0  0  0  0  0  0  0  0  0  0
  145.8647  134.8888  150.3027 H   0  0  0  0  0  0  0  0  0  0  0  0
  144.6111  135.3539  149.1109 H   0  0  0  0  0  0  0  0  0  0  0  0
  1  2  1  0  0  0  0
  1 26  1  0  0  0  0
  2  3  1  0  0  0  0
  2 27  1  0  0  0  0
  2 28  1  0  0  0  0
  3 25  1  0  0  0  0
  3  4  1  0  0  0  0
  3  6  1  0  0  0  0
  4  5  1  0  0  0  0
  4 29  1  0  0  0  0
  4 30  1  0  0  0  0
  5 31  1  0  0  0  0
  6  7  1  0  0  0  0
  6 32  1  0  0  0  0
  6 33  1  0  0  0  0
  7  8  1  0  0  0  0
  7 25  1  0  0  0  0
  7 34  1  0  0  0  0
  8 24  1  0  0  0  0
  8  9  1  0  0  0  0
  9 10  2  0  0  0  0
  9 35  1  0  0  0  0
 10 11  1  0  0  0  0
 11 24  2  0  0  0  0
 11 12  1  0  0  0  0
 12 13  1  0  0  0  0
 12 21  2  0  0  0  0
 13 20  1  0  0  0  0
 13 14  1  0  0  0  0
 14 15  1  0  0  0  0
 14 36  1  0  0  0  0
 14 37  1  0  0  0  0
 15 16  1  0  0  0  0
 15 17  1  0  0  0  0
 15 20  1  0  0  0  0
 16 38  1  0  0  0  0
 17 18  1  0  0  0  0
 17 19  1  0  0  0  0
 17 39  1  0  0  0  0
 20 40  1  0  0  0  0
 20 41  1  0  0  0  0
 21 22  1  0  0  0  0
 22 23  2  0  0  0  0
 22 42  1  0  0  0  0
 23 24  1  0  0  0  0
 25 43  1  0  0  0  0
 25 44  1  0  0  0  0
M  END
> <s_m_source_file>
AV-unprocessed.smi

> <i_m_source_file_index>
179

> <i_lp_mmshare_version>
43012

> <i_f3d_flags>
0

> <s_epik_input>
W09IXVtDSDJdQzEoW0NIMl1bT0hdKVtDSDJdW0NIXShbQ0gyXTEpbihbY0hdbjIpYyhjMjMpbltjSF1uYzNOKFtDSDJdNClbQ0gyXUM0KFtPSF0pW0NIXShGKUY=

> <s_epik_cmdline>
J2VwaWtfcHl0aG9uJywgJy1waCcsICc3LjAnLCAnLXRuJywgJzgnLCAnLW1hJywgJzIwMCcsICctbWV0YWxfYmluZGluZycsICctaW1hZScsICc8aW5maWxlLm1hZT4nLCAnLW9tYWUnLCAnPG91dGZpbGUubWFlPic=

> <r_lp_tautomer_probability>
1

> <r_epik_Ionization_Penalty>
0.00851647

> <r_epik_Ionization_Penalty_Charging>
0

> <r_epik_Ionization_Penalty_Neutral>
0.00851647

> <r_epik_State_Penalty>
0.00617896

> <r_epik_Charging_Adjusted_Penalty>
0.00617896

> <i_epik_Tot_Q>
0

> <i_epik_Tot_abs_Q>
0

> <r_epik_Metal_State_Penalty>
0.00609441

> <b_epik_Metal_Only>
0

> <s_lp_Force_Field>
OPLS_2005

> <r_lp_Energy>
53.402

> <b_lp_Chiralities_Consistent>
1

> <s_lp_Variant>
AV-unprocessed.smi:179-1

> <Gold.Version>
5.8.1

> <Gold.Id.Protein>
6NUR|6NUR_protein|mol2

> <Gold.PLP.Fitness>
45.0173

> <Gold.PLP.PLP>
-34.7378

> <Gold.PLP.part.hbond>
-4.8845

> <Gold.PLP.part.metal>
0.0000

> <Gold.PLP.part.buried>
1.6945

> <Gold.PLP.part.nonpolar>
-34.0372

> <Gold.PLP.part.repulsive>
2.3095

> <Gold.PLP.ligand.clash>
0.0000

> <Gold.PLP.ligand.torsion>
1.2022

> <Gold.PLP.Chemscore.Hbond>
3.0000

> <Gold.PLP.Chemscore.CHOScore>
1.0000

> <Gold.PLP.Chemscore.Metal>
0.0000

> <Gold.Chemscore.Hbonds>
donor molecule, donor type, donor heavy atom, donor atom, acceptor molecule, acceptor atom, score
      L1  H     1    26       P1 10747  1.00
      L1  H     5    31       P1  7921  1.00
      P1  H 10192 10197       L1     5  0.94
      L1  C    22    42       P1  7957  0.98

> <Gold.PLP.Chemscore.Internal.Correction>
0.6840

> <Gold.Rescore>
     Score         DG    S(hbond)    S(metal)    S(lipo)     H(rot)  DE(clash)    DE(int)     intcor
      5.40     -12.10       2.89        0.00      66.36       4.22       3.48       3.22       ----

> <Gold.Chemscore.Fitness>
5.4013

> <Gold.Chemscore.DG>
-12.1002

> <Gold.Chemscore.ZeroCoef>
-5.4800

> <Gold.Chemscore.Hbond>
2.8942

> <Gold.Chemscore.Metal>
0.0000

> <Gold.Chemscore.Lipo>
66.3642

> <Gold.Chemscore.Internal_Hbond>
0.0000

> <Gold.Chemscore.DEClash>
3.4756

> <Gold.Chemscore.DEInternal>
3.2233

> <Gold.Chemscore.Rot>
4.2230

> <Gold.Chemscore.Internal.Correction>
   9.000000E+99

> <Gold.Chemscore.Hbonds>
donor molecule, donor type, donor heavy atom, donor atom, acceptor molecule, acceptor atom, score
      L1  H     1    26       P1 10747  0.99
      L1  H     5    31       P1  7921  0.99
      P1  H 10192 10197       L1     5  0.88

> <Gold.Chemscore.Hbond.Weighted>
-9.6665

> <Gold.Chemscore.Metal.Weighted>
-0.0000

> <Gold.Chemscore.Lipo.Weighted>
-7.7646

> <Gold.Chemscore.Internal_Hbond.Weighted>
0.0000

> <Gold.Chemscore.DEClash.Weighted>
3.4756

> <Gold.Chemscore.DEInternal.Weighted>
3.2233

> <Gold.Chemscore.Rot.Weighted>
10.8110

> <Gold.Chemscore.Internal.Correction.Weighted>
   9.000000E+99

> <Gold.Protein.RotatedTorsions>
[ 6907 6896 6895 6894 ] final   81.06 input  -60.11 | X-H torsion
[ 7974 7965 7964 7962 ] final  -55.28 input  175.53 | X-H torsion
[ 8008 7997 7996 7995 ] final  179.08 input   59.86 | X-H torsion
[ 10167 10162 10161 10158 ] final   34.77 input  -65.29 | X-H torsion
[ 10718 10713 10712 10709 ] final  175.69 input   66.30 | X-H torsion
[ 10763 10752 10751 10750 ] final  -82.81 input  -60.55 | X-H torsion
[ 11005 11000 10999 10996 ] final  -45.31 input  -57.11 | X-H torsion

> <Gold.Protein.ActiveResidues>
 VAL166  LYS551  ARG553  GLY616  TRP617  ASP618  TYR619  PRO620  LYS621  CYS622 
 ASP623  PHE694  ASN695  SER759  ASP760  ASP761  ALA762  ILE779  LEU786  VAL792 
 PHE793  MET794  SER795  GLU796  ALA797  LYS798  CYS799  TRP800  GLU811  SER814 

> <Gold.Protein.RotatedAtoms>
  152.5256  134.3262  159.9166 H   0  0  0  0  0  0  0  0  0  0  0  0  # atno 6907 bound_to 6896
  151.3212  133.4033  159.2662 H   0  0  0  0  0  0  0  0  0  0  0  0  # atno 6908 bound_to 6896
  150.9958  134.9299  159.7983 H   0  0  0  0  0  0  0  0  0  0  0  0  # atno 6909 bound_to 6896
  145.8760  140.8181  142.9864 H   0  0  0  0  0  0  0  0  0  0  0  0  # atno 7974 bound_to 7965
  156.0474  140.1317  157.0088 H   0  0  0  0  0  0  0  0  0  0  0  0  # atno 8008 bound_to 7997
  154.4419  140.1018  156.6397 H   0  0  0  0  0  0  0  0  0  0  0  0  # atno 8009 bound_to 7997
  155.5575  140.3464  155.4485 H   0  0  0  0  0  0  0  0  0  0  0  0  # atno 8010 bound_to 7997
  140.4284  144.1360  150.6156 H   0  0  0  0  0  0  0  0  0  0  0  0  # atno 10167 bound_to 10162
  156.9311  130.9971  151.2987 H   0  0  0  0  0  0  0  0  0  0  0  0  # atno 10718 bound_to 10713
  154.5802  135.5578  153.7178 H   0  0  0  0  0  0  0  0  0  0  0  0  # atno 10763 bound_to 10752
  153.0079  135.6318  154.1993 H   0  0  0  0  0  0  0  0  0  0  0  0  # atno 10764 bound_to 10752
  154.1934  135.2881  155.2994 H   0  0  0  0  0  0  0  0  0  0  0  0  # atno 10765 bound_to 10752
  141.0507  133.6744  156.2995 H   0  0  0  0  0  0  0  0  0  0  0  0  # atno 11005 bound_to 11000
  144.6726  140.1311  143.7443 LP  0  0  0  0  0  0  0  0  0  0  0  0  # atno 17320 bound_to 7965
  145.9081  139.2470  143.1454 LP  0  0  0  0  0  0  0  0  0  0  0  0  # atno 17321 bound_to 7965
  140.4455  143.2508  151.9417 LP  0  0  0  0  0  0  0  0  0  0  0  0  # atno 17342 bound_to 10162
  139.4784  144.5613  151.8234 LP  0  0  0  0  0  0  0  0  0  0  0  0  # atno 17343 bound_to 10162
  157.5846  130.8400  149.8571 LP  0  0  0  0  0  0  0  0  0  0  0  0  # atno 17370 bound_to 10713
  156.0446  130.3731  150.1348 LP  0  0  0  0  0  0  0  0  0  0  0  0  # atno 17371 bound_to 10713
  140.6061  134.5506  157.5526 LP  0  0  0  0  0  0  0  0  0  0  0  0  # atno 17394 bound_to 11000
  139.9348  134.7896  156.0833 LP  0  0  0  0  0  0  0  0  0  0  0  0  # atno 17395 bound_to 11000

$$$$
