AV-unprocessed.smi:230|AV-procd|sdf|1764|dock4
  -GOLD-   2262020293D 1   1.00000     0.00000
 Structure written by MMmdl.
 56 59  0  0  0  0  0  0  0  0  1 V2000
  151.8603  140.0184  156.7578 C   0  0  0  0  0  0  0  0  0  0  0  0
  151.2748  139.9174  158.1731 C   0  0  0  0  0  0  0  0  0  0  0  0
  151.1500  141.2780  158.9097 C   0  0  1  0  0  0  0  0  0  0  0  0
  152.5385  141.8040  159.3392 C   0  0  0  0  0  0  0  0  0  0  0  0
  152.4402  143.0802  159.9672 O   0  0  0  0  0  0  0  0  0  0  0  0
  151.8137  144.0995  159.1861 C   0  0  0  0  0  0  0  0  0  0  0  0
  151.6828  145.3116  160.1213 C   0  0  0  0  0  0  0  0  0  0  0  0
  152.6769  144.4865  157.9661 C   0  0  0  0  0  0  0  0  0  0  0  0
  150.4141  143.6034  158.7723 C   0  0  0  0  0  0  0  0  0  0  0  0
  150.4876  142.3088  158.1015 N   0  0  0  0  0  0  0  0  0  0  0  0
  149.3052  141.9479  157.5525 C   0  0  0  0  0  0  0  0  0  0  0  0
  148.2074  141.7846  158.3374 N   0  0  0  0  0  0  0  0  0  0  0  0
  147.0508  141.3957  157.7915 C   0  0  0  0  0  0  0  0  0  0  0  0
  146.7831  141.1126  156.5143 N   0  0  0  0  0  0  0  0  0  0  0  0
  147.8871  141.2720  155.7286 C   0  0  0  0  0  0  0  0  0  0  0  0
  149.1750  141.6903  156.1632 C   0  0  0  0  0  0  0  0  0  0  0  0
  150.0519  141.7391  155.0877 N   0  0  0  0  0  0  0  0  0  0  0  0
  149.3243  141.3609  154.0721 C   0  0  0  0  0  0  0  0  0  0  0  0
  148.0161  141.0494  154.3690 N   0  0  0  0  0  0  0  0  0  0  0  0
  146.9993  140.5840  153.4386 C   0  0  0  0  0  0  0  0  0  0  0  0
  147.0294  139.0541  153.1970 C   0  0  0  0  0  0  0  0  0  0  0  0
  148.3876  138.6482  153.1856 O   0  0  0  0  0  0  0  0  0  0  0  0
  146.2919  138.2612  154.2987 C   0  0  0  0  0  0  0  0  0  0  0  0
  146.1517  136.7698  153.9451 C   0  0  0  0  0  0  0  0  0  0  0  0
  145.5172  136.6225  152.6806 O   0  0  0  0  0  0  0  0  0  0  0  0
  146.2701  137.1937  151.6174 C   0  0  0  0  0  0  0  0  0  0  0  0
  146.4085  138.7120  151.8280 C   0  0  0  0  0  0  0  0  0  0  0  0
  152.0148  139.0251  156.3358 H   0  0  0  0  0  0  0  0  0  0  0  0
  152.8249  140.5265  156.7674 H   0  0  0  0  0  0  0  0  0  0  0  0
  151.1989  140.5570  156.0798 H   0  0  0  0  0  0  0  0  0  0  0  0
  150.3007  139.4286  158.1307 H   0  0  0  0  0  0  0  0  0  0  0  0
  151.9261  139.2443  158.7306 H   0  0  0  0  0  0  0  0  0  0  0  0
  150.5477  141.1299  159.8075 H   0  0  0  0  0  0  0  0  0  0  0  0
  152.9957  141.1280  160.0606 H   0  0  0  0  0  0  0  0  0  0  0  0
  153.2200  141.8492  158.4897 H   0  0  0  0  0  0  0  0  0  0  0  0
  151.1844  146.1449  159.6249 H   0  0  0  0  0  0  0  0  0  0  0  0
  152.6607  145.6607  160.4542 H   0  0  0  0  0  0  0  0  0  0  0  0
  151.1040  145.0629  161.0116 H   0  0  0  0  0  0  0  0  0  0  0  0
  152.2446  145.3370  157.4386 H   0  0  0  0  0  0  0  0  0  0  0  0
  152.7632  143.6771  157.2419 H   0  0  0  0  0  0  0  0  0  0  0  0
  153.6857  144.7659  158.2710 H   0  0  0  0  0  0  0  0  0  0  0  0
  149.7851  143.5085  159.6591 H   0  0  0  0  0  0  0  0  0  0  0  0
  149.9349  144.3357  158.1202 H   0  0  0  0  0  0  0  0  0  0  0  0
  146.2229  141.2903  158.4772 H   0  0  0  0  0  0  0  0  0  0  0  0
  149.7270  141.2858  153.0723 H   0  0  0  0  0  0  0  0  0  0  0  0
  146.0246  140.8824  153.8265 H   0  0  0  0  0  0  0  0  0  0  0  0
  147.1273  141.1203  152.4970 H   0  0  0  0  0  0  0  0  0  0  0  0
  148.8894  139.2937  152.7113 H   0  0  0  0  0  0  0  0  0  0  0  0
  146.7990  138.3620  155.2592 H   0  0  0  0  0  0  0  0  0  0  0  0
  145.2935  138.6797  154.4339 H   0  0  0  0  0  0  0  0  0  0  0  0
  147.1238  136.2742  153.9372 H   0  0  0  0  0  0  0  0  0  0  0  0
  145.5482  136.2652  154.7000 H   0  0  0  0  0  0  0  0  0  0  0  0
  147.2475  136.7135  151.5486 H   0  0  0  0  0  0  0  0  0  0  0  0
  145.7553  136.9946  150.6774 H   0  0  0  0  0  0  0  0  0  0  0  0
  145.4157  139.1595  151.7616 H   0  0  0  0  0  0  0  0  0  0  0  0
  146.9950  139.1510  151.0199 H   0  0  0  0  0  0  0  0  0  0  0  0
  1  2  1  0  0  0  0
  1 28  1  0  0  0  0
  1 29  1  0  0  0  0
  1 30  1  0  0  0  0
  2  3  1  0  0  0  0
  2 31  1  0  0  0  0
  2 32  1  0  0  0  0
  3 10  1  0  0  0  0
  3  4  1  0  0  0  0
  3 33  1  0  0  0  0
  4  5  1  0  0  0  0
  4 34  1  0  0  0  0
  4 35  1  0  0  0  0
  5  6  1  0  0  0  0
  6  7  1  0  0  0  0
  6  8  1  0  0  0  0
  6  9  1  0  0  0  0
  7 36  1  0  0  0  0
  7 37  1  0  0  0  0
  7 38  1  0  0  0  0
  8 39  1  0  0  0  0
  8 40  1  0  0  0  0
  8 41  1  0  0  0  0
  9 10  1  0  0  0  0
  9 42  1  0  0  0  0
  9 43  1  0  0  0  0
 10 11  1  0  0  0  0
 11 16  1  0  0  0  0
 11 12  2  0  0  0  0
 12 13  1  0  0  0  0
 13 14  2  0  0  0  0
 13 44  1  0  0  0  0
 14 15  1  0  0  0  0
 15 19  1  0  0  0  0
 15 16  2  0  0  0  0
 16 17  1  0  0  0  0
 17 18  2  0  0  0  0
 18 19  1  0  0  0  0
 18 45  1  0  0  0  0
 19 20  1  0  0  0  0
 20 21  1  0  0  0  0
 20 46  1  0  0  0  0
 20 47  1  0  0  0  0
 21 27  1  0  0  0  0
 21 22  1  0  0  0  0
 21 23  1  0  0  0  0
 22 48  1  0  0  0  0
 23 24  1  0  0  0  0
 23 49  1  0  0  0  0
 23 50  1  0  0  0  0
 24 25  1  0  0  0  0
 24 51  1  0  0  0  0
 24 52  1  0  0  0  0
 25 26  1  0  0  0  0
 26 27  1  0  0  0  0
 26 53  1  0  0  0  0
 26 54  1  0  0  0  0
 27 55  1  0  0  0  0
 27 56  1  0  0  0  0
M  END
> <s_m_source_file>
AV-unprocessed.smi

> <i_m_source_file_index>
230

> <i_lp_mmshare_version>
43012

> <i_f3d_flags>
0

> <s_epik_input>
W0NIM11DMShbQ0gzXSlPW0NIMl1bQ0BASF0oW0NIMl1bQ0gzXSlOKFtDSDJdMSljKG5bY0hdbjIpYyhjMjMpbltjSF1uM1tDSDJdQzQoW09IXSlbQ0gyXVtDSDJdT1tDSDJdW0NIMl00

> <s_epik_cmdline>
J2VwaWtfcHl0aG9uJywgJy1waCcsICc3LjAnLCAnLXRuJywgJzgnLCAnLW1hJywgJzIwMCcsICctbWV0YWxfYmluZGluZycsICctaW1hZScsICc8aW5maWxlLm1hZT4nLCAnLW9tYWUnLCAnPG91dGZpbGUubWFlPic=

> <r_lp_tautomer_probability>
1

> <r_epik_Ionization_Penalty>
0.000120535

> <r_epik_Ionization_Penalty_Charging>
0

> <r_epik_Ionization_Penalty_Neutral>
0.000120535

> <r_epik_State_Penalty>
-0

> <r_epik_Charging_Adjusted_Penalty>
0

> <i_epik_Tot_Q>
0

> <i_epik_Tot_abs_Q>
0

> <r_epik_Metal_State_Penalty>
-0

> <b_epik_Metal_Only>
0

> <s_lp_Force_Field>
OPLS_2005

> <r_lp_Energy>
34.4524

> <b_lp_Chiralities_Consistent>
1

> <s_lp_Variant>
AV-unprocessed.smi:230-2

> <Gold.Version>
5.8.1

> <Gold.Id.Protein>
6NUR|6NUR_protein|mol2

> <Gold.PLP.Fitness>
47.4486

> <Gold.PLP.PLP>
-43.0730

> <Gold.PLP.part.hbond>
-3.2491

> <Gold.PLP.part.metal>
0.0000

> <Gold.PLP.part.buried>
3.4731

> <Gold.PLP.part.nonpolar>
-43.6784

> <Gold.PLP.part.repulsive>
0.5435

> <Gold.PLP.ligand.clash>
0.0000

> <Gold.PLP.ligand.torsion>
0.9054

> <Gold.PLP.Chemscore.Hbond>
1.0000

> <Gold.PLP.Chemscore.CHOScore>
1.0000

> <Gold.PLP.Chemscore.Metal>
0.0000

> <Gold.Chemscore.Hbonds>
donor molecule, donor type, donor heavy atom, donor atom, acceptor molecule, acceptor atom, score
      L1  H    22    48       P1  7957  1.00
      L1  C    18    45       P1  7957  1.00

> <Gold.PLP.Chemscore.Internal.Correction>
0.1865

> <Gold.Rescore>
     Score         DG    S(hbond)    S(metal)    S(lipo)     H(rot)  DE(clash)    DE(int)     intcor
     13.23     -15.54       1.00        0.00     105.87       2.21       0.81       1.50       ----

> <Gold.Chemscore.Fitness>
13.2327

> <Gold.Chemscore.DG>
-15.5402

> <Gold.Chemscore.ZeroCoef>
-5.4800

> <Gold.Chemscore.Hbond>
0.9978

> <Gold.Chemscore.Metal>
0.0000

> <Gold.Chemscore.Lipo>
105.8721

> <Gold.Chemscore.Internal_Hbond>
0.0000

> <Gold.Chemscore.DEClash>
0.8102

> <Gold.Chemscore.DEInternal>
1.4973

> <Gold.Chemscore.Rot>
2.2107

> <Gold.Chemscore.Internal.Correction>
   9.000000E+99

> <Gold.Chemscore.Hbonds>
donor molecule, donor type, donor heavy atom, donor atom, acceptor molecule, acceptor atom, score
      L1  H    22    48       P1  7957  0.97

> <Gold.Chemscore.Hbond.Weighted>
-3.3326

> <Gold.Chemscore.Metal.Weighted>
-0.0000

> <Gold.Chemscore.Lipo.Weighted>
-12.3870

> <Gold.Chemscore.Internal_Hbond.Weighted>
0.0000

> <Gold.Chemscore.DEClash.Weighted>
0.8102

> <Gold.Chemscore.DEInternal.Weighted>
1.4973

> <Gold.Chemscore.Rot.Weighted>
5.6595

> <Gold.Chemscore.Internal.Correction.Weighted>
   9.000000E+99

> <Gold.Protein.RotatedTorsions>
[ 6907 6896 6895 6894 ] final -150.89 input  -60.11 | X-H torsion
[ 7974 7965 7964 7962 ] final   28.89 input  175.53 | X-H torsion
[ 8008 7997 7996 7995 ] final  150.19 input   59.86 | X-H torsion
[ 10167 10162 10161 10158 ] final -167.40 input  -65.29 | X-H torsion
[ 10718 10713 10712 10709 ] final  -95.34 input   66.30 | X-H torsion
[ 10763 10752 10751 10750 ] final   -7.49 input  -60.55 | X-H torsion
[ 11005 11000 10999 10996 ] final -151.85 input  -57.11 | X-H torsion

> <Gold.Protein.ActiveResidues>
 VAL166  LYS551  ARG553  GLY616  TRP617  ASP618  TYR619  PRO620  LYS621  CYS622 
 ASP623  PHE694  ASN695  SER759  ASP760  ASP761  ALA762  ILE779  LEU786  VAL792 
 PHE793  MET794  SER795  GLU796  ALA797  LYS798  CYS799  TRP800  GLU811  SER814 

> <Gold.Protein.RotatedAtoms>
  151.2051  133.4588  159.2596 H   0  0  0  0  0  0  0  0  0  0  0  0  # atno 6907 bound_to 6896
  151.1031  134.9984  159.8468 H   0  0  0  0  0  0  0  0  0  0  0  0  # atno 6908 bound_to 6896
  152.5445  134.1976  159.8752 H   0  0  0  0  0  0  0  0  0  0  0  0  # atno 6909 bound_to 6896
  146.1703  139.6995  142.8972 H   0  0  0  0  0  0  0  0  0  0  0  0  # atno 7974 bound_to 7965
  156.2725  140.2081  156.5978 H   0  0  0  0  0  0  0  0  0  0  0  0  # atno 8008 bound_to 7997
  154.6931  140.0528  157.0406 H   0  0  0  0  0  0  0  0  0  0  0  0  # atno 8009 bound_to 7997
  155.0839  140.3189  155.4596 H   0  0  0  0  0  0  0  0  0  0  0  0  # atno 8010 bound_to 7997
  139.6052  144.0928  152.1785 H   0  0  0  0  0  0  0  0  0  0  0  0  # atno 10167 bound_to 10162
  156.0042  130.5105  150.6062 H   0  0  0  0  0  0  0  0  0  0  0  0  # atno 10718 bound_to 10713
  153.4271  135.7011  153.6255 H   0  0  0  0  0  0  0  0  0  0  0  0  # atno 10763 bound_to 10752
  153.4685  135.3720  155.2378 H   0  0  0  0  0  0  0  0  0  0  0  0  # atno 10764 bound_to 10752
  154.8724  135.4037  154.3649 H   0  0  0  0  0  0  0  0  0  0  0  0  # atno 10765 bound_to 10752
  140.7252  134.3683  157.5176 H   0  0  0  0  0  0  0  0  0  0  0  0  # atno 11005 bound_to 11000
  145.4358  141.0418  143.2885 LP  0  0  0  0  0  0  0  0  0  0  0  0  # atno 17320 bound_to 7965
  144.8153  139.5888  143.7011 LP  0  0  0  0  0  0  0  0  0  0  0  0  # atno 17321 bound_to 7965
  140.0533  144.5915  150.7319 LP  0  0  0  0  0  0  0  0  0  0  0  0  # atno 17342 bound_to 10162
  140.7279  143.2657  151.4054 LP  0  0  0  0  0  0  0  0  0  0  0  0  # atno 17343 bound_to 10162
  157.3902  131.0794  151.1400 LP  0  0  0  0  0  0  0  0  0  0  0  0  # atno 17370 bound_to 10713
  157.2095  130.6431  149.5768 LP  0  0  0  0  0  0  0  0  0  0  0  0  # atno 17371 bound_to 10713
  139.8839  134.8981  156.2738 LP  0  0  0  0  0  0  0  0  0  0  0  0  # atno 17394 bound_to 11000
  140.9969  133.7175  156.0900 LP  0  0  0  0  0  0  0  0  0  0  0  0  # atno 17395 bound_to 11000

$$$$
