AV-unprocessed.smi:3186|AV-procd|sdf|12174|dock3
  -GOLD-   2272018 13D 1   1.00000     0.00000
 Structure written by MMmdl.
 37 38  0  0  0  0  0  0  0  0  2 V2000
  152.0248  138.7997  158.1654 C   0  0  0  0  0  0  0  0  0  0  0  0
  151.6927  138.6076  156.6962 C   0  0  0  0  0  0  0  0  0  0  0  0
  152.2809  137.5416  155.9804 C   0  0  0  0  0  0  0  0  0  0  0  0
  152.0442  137.2982  154.6745 N   0  0  0  0  0  0  0  0  0  0  0  0
  151.2002  138.1231  154.0218 C   0  0  0  0  0  0  0  0  0  0  0  0
  150.5590  139.2160  154.6367 C   0  0  0  0  0  0  0  0  0  0  0  0
  150.8071  139.4693  156.0021 C   0  0  0  0  0  0  0  0  0  0  0  0
  150.1162  140.6421  156.6798 C   0  0  0  0  0  0  0  0  0  0  0  0
  150.7041  141.9912  156.2430 C   0  0  0  0  0  0  0  0  0  0  0  0
  150.2961  143.0704  157.1666 N   0  3  0  0  0  0  0  0  0  0  0  0
  151.3044  143.4462  158.1830 C   0  0  1  0  0  0  0  0  0  0  0  0
  150.8339  144.6680  159.0039 C   0  0  0  0  0  0  0  0  0  0  0  0
  151.8732  145.1289  160.0392 C   0  0  0  0  0  0  0  0  0  0  0  0
  152.1993  144.0411  161.0714 C   0  0  0  0  0  0  0  0  0  0  0  0
  152.9168  142.5804  160.2737 S   0  0  0  0  0  0  0  0  0  0  0  0
  151.5830  142.2369  159.0941 C   0  0  0  0  0  0  0  0  0  0  0  0
  152.6311  137.9756  158.5432 H   0  0  0  0  0  0  0  0  0  0  0  0
  151.1178  138.8467  158.7676 H   0  0  0  0  0  0  0  0  0  0  0  0
  152.5869  139.7226  158.3099 H   0  0  0  0  0  0  0  0  0  0  0  0
  152.9632  136.8612  156.4689 H   0  0  0  0  0  0  0  0  0  0  0  0
  151.0287  137.9055  152.9779 H   0  0  0  0  0  0  0  0  0  0  0  0
  149.8902  139.8441  154.0666 H   0  0  0  0  0  0  0  0  0  0  0  0
  149.0456  140.6100  156.4769 H   0  0  0  0  0  0  0  0  0  0  0  0
  150.2161  140.5299  157.7604 H   0  0  0  0  0  0  0  0  0  0  0  0
  151.7932  141.9321  156.2207 H   0  0  0  0  0  0  0  0  0  0  0  0
  150.3766  142.2246  155.2306 H   0  0  0  0  0  0  0  0  0  0  0  0
  150.0497  143.8927  156.6344 H   0  0  0  0  0  0  0  0  0  0  0  0
  152.2311  143.6954  157.6631 H   0  0  0  0  0  0  0  0  0  0  0  0
  150.6204  145.5074  158.3429 H   0  0  0  0  0  0  0  0  0  0  0  0
  149.8957  144.4351  159.5095 H   0  0  0  0  0  0  0  0  0  0  0  0
  152.7870  145.4416  159.5324 H   0  0  0  0  0  0  0  0  0  0  0  0
  151.4960  146.0112  160.5573 H   0  0  0  0  0  0  0  0  0  0  0  0
  152.9071  144.4199  161.8091 H   0  0  0  0  0  0  0  0  0  0  0  0
  151.2994  143.7468  161.6126 H   0  0  0  0  0  0  0  0  0  0  0  0
  150.6863  141.9555  159.6478 H   0  0  0  0  0  0  0  0  0  0  0  0
  151.8746  141.3711  158.4986 H   0  0  0  0  0  0  0  0  0  0  0  0
  149.4731  142.7479  157.6557 H   0  0  0  0  0  0  0  0  0  0  0  0
  1  2  1  0  0  0  0
  1 17  1  0  0  0  0
  1 18  1  0  0  0  0
  1 19  1  0  0  0  0
  2  7  1  0  0  0  0
  2  3  2  0  0  0  0
  3  4  1  0  0  0  0
  3 20  1  0  0  0  0
  4  5  2  0  0  0  0
  5  6  1  0  0  0  0
  5 21  1  0  0  0  0
  6  7  2  0  0  0  0
  6 22  1  0  0  0  0
  7  8  1  0  0  0  0
  8  9  1  0  0  0  0
  8 23  1  0  0  0  0
  8 24  1  0  0  0  0
  9 10  1  0  0  0  0
  9 25  1  0  0  0  0
  9 26  1  0  0  0  0
 10 11  1  0  0  0  0
 10 27  1  0  0  0  0
 10 37  1  0  0  0  0
 11 16  1  0  0  0  0
 11 12  1  0  0  0  0
 11 28  1  0  0  0  0
 12 13  1  0  0  0  0
 12 29  1  0  0  0  0
 12 30  1  0  0  0  0
 13 14  1  0  0  0  0
 13 31  1  0  0  0  0
 13 32  1  0  0  0  0
 14 15  1  0  0  0  0
 14 33  1  0  0  0  0
 14 34  1  0  0  0  0
 15 16  1  0  0  0  0
 16 35  1  0  0  0  0
 16 36  1  0  0  0  0
M  CHG  1  10   1
M  END
> <s_m_source_file>
AV-unprocessed.smi

> <i_m_source_file_index>
3186

> <i_lp_mmshare_version>
43012

> <i_f3d_flags>
0

> <s_epik_input>
W0NIM11jMVtjSF1uW2NIXVtjSF1jMVtDSDJdW0NIMl1bTkhdW0NAQEhdMltDSDJdW0NIMl1bQ0gyXVNbQ0gyXTI=

> <s_epik_cmdline>
J2VwaWtfcHl0aG9uJywgJy1waCcsICc3LjAnLCAnLXRuJywgJzgnLCAnLW1hJywgJzIwMCcsICctbWV0YWxfYmluZGluZycsICctaW1hZScsICc8aW5maWxlLm1hZT4nLCAnLW9tYWUnLCAnPG91dGZpbGUubWFlPic=

> <r_epik_Ionization_Penalty>
0.00563987

> <r_epik_Ionization_Penalty_Charging>
0.00306352

> <r_epik_Ionization_Penalty_Neutral>
0.00257635

> <r_epik_State_Penalty>
0.00506628

> <r_epik_Charging_Adjusted_Penalty>
0.0081298

> <i_epik_Tot_Q>
1

> <i_epik_Tot_abs_Q>
1

> <r_epik_Metal_State_Penalty>
-0

> <b_epik_Metal_Only>
0

> <s_lp_Force_Field>
OPLS_2005

> <r_lp_Energy>
10.8164

> <b_lp_Chiralities_Consistent>
1

> <s_lp_Variant>
AV-unprocessed.smi:3186-2

> <Gold.Version>
5.8.1

> <Gold.Id.Protein>
6NUR|6NUR_protein|mol2

> <Gold.PLP.Fitness>
47.8438

> <Gold.PLP.PLP>
-37.0269

> <Gold.PLP.part.hbond>
-2.0000

> <Gold.PLP.part.metal>
0.0000

> <Gold.PLP.part.buried>
-6.1205

> <Gold.PLP.part.nonpolar>
-30.0343

> <Gold.PLP.part.repulsive>
0.1114

> <Gold.PLP.ligand.clash>
0.0000

> <Gold.PLP.ligand.torsion>
0.4900

> <Gold.PLP.Chemscore.Hbond>
2.8640

> <Gold.PLP.Chemscore.CHOScore>
1.0634

> <Gold.PLP.Chemscore.Metal>
0.0000

> <Gold.Chemscore.Hbonds>
donor molecule, donor type, donor heavy atom, donor atom, acceptor molecule, acceptor atom, score
      L1  H    10    27       P1  8028  1.98
      P1  H 10752 10763       L1     4  0.86
      L1  C     5    21       P1  7948  0.04
      L1  C     5    21       P1  7949  1.00

> <Gold.PLP.Chemscore.Internal.Correction>
0.0148

> <Gold.Rescore>
     Score         DG    S(hbond)    S(metal)    S(lipo)     H(rot)  DE(clash)    DE(int)     intcor
     21.07     -21.59       1.75        0.00     116.28       1.30       0.01       0.51       ----

> <Gold.Chemscore.Fitness>
21.0679

> <Gold.Chemscore.DG>
-21.5906

> <Gold.Chemscore.ZeroCoef>
-5.4800

> <Gold.Chemscore.Hbond>
1.7492

> <Gold.Chemscore.Metal>
0.0000

> <Gold.Chemscore.Lipo>
116.2763

> <Gold.Chemscore.Internal_Hbond>
0.0000

> <Gold.Chemscore.DEClash>
0.0120

> <Gold.Chemscore.DEInternal>
0.5107

> <Gold.Chemscore.Rot>
1.3031

> <Gold.Chemscore.Internal.Correction>
   9.000000E+99

> <Gold.Chemscore.Hbonds>
donor molecule, donor type, donor heavy atom, donor atom, acceptor molecule, acceptor atom, score
      L1  H    10    27       P1  8028  0.93
      P1  H 10752 10763       L1     4  0.39

> <Gold.Chemscore.Hbond.Weighted>
-5.8423

> <Gold.Chemscore.Metal.Weighted>
-0.0000

> <Gold.Chemscore.Lipo.Weighted>
-13.6043

> <Gold.Chemscore.Internal_Hbond.Weighted>
0.0000

> <Gold.Chemscore.DEClash.Weighted>
0.0120

> <Gold.Chemscore.DEInternal.Weighted>
0.5107

> <Gold.Chemscore.Rot.Weighted>
3.3361

> <Gold.Chemscore.Internal.Correction.Weighted>
   9.000000E+99

> <Gold.Protein.RotatedTorsions>
[ 6907 6896 6895 6894 ] final   -0.21 input  -60.11 | X-H torsion
[ 7974 7965 7964 7962 ] final -141.00 input  175.53 | X-H torsion
[ 8008 7997 7996 7995 ] final -125.30 input   59.86 | X-H torsion
[ 10167 10162 10161 10158 ] final  118.91 input  -65.29 | X-H torsion
[ 10718 10713 10712 10709 ] final  124.77 input   66.30 | X-H torsion
[ 10763 10752 10751 10750 ] final   44.92 input  -60.55 | X-H torsion
[ 11005 11000 10999 10996 ] final  -65.06 input  -57.11 | X-H torsion

> <Gold.Protein.ActiveResidues>
 VAL166  LYS551  ARG553  GLY616  TRP617  ASP618  TYR619  PRO620  LYS621  CYS622 
 ASP623  PHE694  ASN695  SER759  ASP760  ASP761  ALA762  ILE779  LEU786  VAL792 
 PHE793  MET794  SER795  GLU796  ALA797  LYS798  CYS799  TRP800  GLU811  SER814 

> <Gold.Protein.RotatedAtoms>
  151.5659  135.1064  159.9983 H   0  0  0  0  0  0  0  0  0  0  0  0  # atno 6907 bound_to 6896
  152.4424  133.7469  159.6683 H   0  0  0  0  0  0  0  0  0  0  0  0  # atno 6908 bound_to 6896
  150.8332  133.7987  159.3113 H   0  0  0  0  0  0  0  0  0  0  0  0  # atno 6909 bound_to 6896
  144.8554  140.6133  143.5363 H   0  0  0  0  0  0  0  0  0  0  0  0  # atno 7974 bound_to 7965
  155.2111  140.0419  157.2933 H   0  0  0  0  0  0  0  0  0  0  0  0  # atno 8008 bound_to 7997
  154.6011  140.2452  155.7762 H   0  0  0  0  0  0  0  0  0  0  0  0  # atno 8009 bound_to 7997
  156.2321  140.2934  156.0226 H   0  0  0  0  0  0  0  0  0  0  0  0  # atno 8010 bound_to 7997
  139.6080  144.7075  151.2908 H   0  0  0  0  0  0  0  0  0  0  0  0  # atno 10167 bound_to 10162
  157.5558  131.1092  150.8624 H   0  0  0  0  0  0  0  0  0  0  0  0  # atno 10718 bound_to 10713
  152.9833  135.6056  154.3352 H   0  0  0  0  0  0  0  0  0  0  0  0  # atno 10763 bound_to 10752
  154.3053  135.2772  155.2594 H   0  0  0  0  0  0  0  0  0  0  0  0  # atno 10764 bound_to 10752
  154.4828  135.5913  153.6458 H   0  0  0  0  0  0  0  0  0  0  0  0  # atno 10765 bound_to 10752
  141.1443  133.6675  156.5928 H   0  0  0  0  0  0  0  0  0  0  0  0  # atno 11005 bound_to 11000
  145.4417  139.1535  143.3966 LP  0  0  0  0  0  0  0  0  0  0  0  0  # atno 17320 bound_to 7965
  146.2818  140.4539  142.8773 LP  0  0  0  0  0  0  0  0  0  0  0  0  # atno 17321 bound_to 7965
  140.7299  143.6895  150.7934 LP  0  0  0  0  0  0  0  0  0  0  0  0  # atno 17342 bound_to 10162
  140.0484  143.5275  152.2685 LP  0  0  0  0  0  0  0  0  0  0  0  0  # atno 17343 bound_to 10162
  156.9136  130.5289  149.5280 LP  0  0  0  0  0  0  0  0  0  0  0  0  # atno 17370 bound_to 10713
  156.0617  130.5668  150.9206 LP  0  0  0  0  0  0  0  0  0  0  0  0  # atno 17371 bound_to 10713
  140.3749  134.7573  157.4623 LP  0  0  0  0  0  0  0  0  0  0  0  0  # atno 17394 bound_to 11000
  140.0682  134.5900  155.8672 LP  0  0  0  0  0  0  0  0  0  0  0  0  # atno 17395 bound_to 11000

$$$$
