AV-unprocessed.smi:1712|AV-procd|sdf|6903|dock7
  -GOLD-   22720 8103D 1   1.00000     0.00000
 Structure written by MMmdl.
 38 39  0  0  0  0  0  0  0  0  2 V2000
  147.0918  140.4154  154.0563 C   0  0  0  0  0  0  0  0  0  0  0  0
  147.4889  139.2793  153.0811 C   0  0  2  0  0  0  0  0  0  0  0  0
  146.2252  138.5681  152.5189 C   0  0  0  0  0  0  0  0  0  0  0  0
  146.4954  137.2359  151.9816 N   0  0  0  0  0  0  0  0  0  0  0  0
  145.5793  136.2739  151.7948 C   0  0  0  0  0  0  0  0  0  0  0  0
  144.3800  136.4222  152.0301 O   0  0  0  0  0  0  0  0  0  0  0  0
  146.1397  135.1500  151.3189 N   0  0  0  0  0  0  0  0  0  0  0  0
  145.4848  133.9379  150.9831 C   0  0  0  0  0  0  0  0  0  0  0  0
  146.1340  132.6831  150.8275 C   0  0  0  0  0  0  0  0  0  0  0  0
  145.2713  131.7281  150.5105 N   0  0  0  0  0  0  0  0  0  0  0  0
  144.0776  132.3613  150.4625 N   0  0  0  0  0  0  0  0  0  0  0  0
  144.1590  133.7073  150.7431 C   0  0  0  0  0  0  0  0  0  0  0  0
  148.4450  138.3120  153.7208 N   0  3  0  0  0  0  0  0  0  0  0  0
  149.7789  138.8978  154.0387 C   0  0  0  0  0  0  0  0  0  0  0  0
  150.7124  137.8683  154.6974 C   0  0  0  0  0  0  0  0  0  0  0  0
  150.1032  137.3468  155.8666 O   0  0  0  0  0  0  0  0  0  0  0  0
  148.9018  136.6620  155.5532 C   0  0  0  0  0  0  0  0  0  0  0  0
  147.8922  137.6418  154.9325 C   0  0  0  0  0  0  0  0  0  0  0  0
  143.2256  131.8668  150.2389 H   0  0  0  0  0  0  0  0  0  0  0  0
  146.3791  141.1069  153.6097 H   0  0  0  0  0  0  0  0  0  0  0  0
  147.9372  141.0386  154.3422 H   0  0  0  0  0  0  0  0  0  0  0  0
  146.6380  140.0175  154.9645 H   0  0  0  0  0  0  0  0  0  0  0  0
  148.0072  139.7378  152.2371 H   0  0  0  0  0  0  0  0  0  0  0  0
  145.4944  138.3969  153.3075 H   0  0  0  0  0  0  0  0  0  0  0  0
  145.7352  139.2003  151.7761 H   0  0  0  0  0  0  0  0  0  0  0  0
  147.4563  137.0241  151.7548 H   0  0  0  0  0  0  0  0  0  0  0  0
  147.1390  135.1620  151.1768 H   0  0  0  0  0  0  0  0  0  0  0  0
  147.1808  132.4380  150.9307 H   0  0  0  0  0  0  0  0  0  0  0  0
  143.2919  134.3508  150.7439 H   0  0  0  0  0  0  0  0  0  0  0  0
  150.2799  139.2437  153.1364 H   0  0  0  0  0  0  0  0  0  0  0  0
  149.6530  139.7604  154.6951 H   0  0  0  0  0  0  0  0  0  0  0  0
  150.9555  137.0611  154.0044 H   0  0  0  0  0  0  0  0  0  0  0  0
  151.6547  138.3417  154.9742 H   0  0  0  0  0  0  0  0  0  0  0  0
  149.1045  135.8291  154.8777 H   0  0  0  0  0  0  0  0  0  0  0  0
  148.4931  136.2342  156.4690 H   0  0  0  0  0  0  0  0  0  0  0  0
  147.6043  138.3952  155.6675 H   0  0  0  0  0  0  0  0  0  0  0  0
  147.0005  137.0669  154.6909 H   0  0  0  0  0  0  0  0  0  0  0  0
  148.6112  137.5824  153.0422 H   0  0  0  0  0  0  0  0  0  0  0  0
  1  2  1  0  0  0  0
  1 20  1  0  0  0  0
  1 21  1  0  0  0  0
  1 22  1  0  0  0  0
  2  3  1  0  0  0  0
  2 13  1  0  0  0  0
  2 23  1  0  0  0  0
  3  4  1  0  0  0  0
  3 24  1  0  0  0  0
  3 25  1  0  0  0  0
  4  5  1  0  0  0  0
  4 26  1  0  0  0  0
  5  6  2  0  0  0  0
  5  7  1  0  0  0  0
  7  8  1  0  0  0  0
  7 27  1  0  0  0  0
  8 12  2  0  0  0  0
  8  9  1  0  0  0  0
  9 10  2  0  0  0  0
  9 28  1  0  0  0  0
 10 11  1  0  0  0  0
 11 19  1  0  0  0  0
 11 12  1  0  0  0  0
 12 29  1  0  0  0  0
 13 18  1  0  0  0  0
 13 14  1  0  0  0  0
 13 38  1  0  0  0  0
 14 15  1  0  0  0  0
 14 30  1  0  0  0  0
 14 31  1  0  0  0  0
 15 16  1  0  0  0  0
 15 32  1  0  0  0  0
 15 33  1  0  0  0  0
 16 17  1  0  0  0  0
 17 18  1  0  0  0  0
 17 34  1  0  0  0  0
 17 35  1  0  0  0  0
 18 36  1  0  0  0  0
 18 37  1  0  0  0  0
M  CHG  1  13   1
M  END
> <s_m_source_file>
AV-unprocessed.smi

> <i_m_source_file_index>
1712

> <i_lp_mmshare_version>
43012

> <i_f3d_flags>
0

> <s_epik_input>
W0NIMl0xW0NIMl1PW0NIMl1bQ0gyXU4xW0NASF0oW0NIM10pW0NIMl1bTkhdQyg9TylbTkhdYzJbY0hdbltuSF1bY0hdMg==

> <s_epik_cmdline>
J2VwaWtfcHl0aG9uJywgJy1waCcsICc3LjAnLCAnLXRuJywgJzgnLCAnLW1hJywgJzIwMCcsICctbWV0YWxfYmluZGluZycsICctaW1hZScsICc8aW5maWxlLm1hZT4nLCAnLW9tYWUnLCAnPG91dGZpbGUubWFlPic=

> <r_lp_tautomer_probability>
0.5

> <r_epik_Ionization_Penalty>
0.646007

> <r_epik_Ionization_Penalty_Charging>
0.645968

> <r_epik_Ionization_Penalty_Neutral>
3.91929e-05

> <r_epik_State_Penalty>
0.664063

> <r_epik_Charging_Adjusted_Penalty>
1.31003

> <i_epik_Tot_Q>
1

> <i_epik_Tot_abs_Q>
1

> <r_epik_Metal_State_Penalty>
0.664064

> <b_epik_Metal_Only>
0

> <s_lp_Force_Field>
OPLS_2005

> <r_lp_Energy>
23.9653

> <b_lp_Chiralities_Consistent>
1

> <s_lp_Variant>
AV-unprocessed.smi:1712-3

> <Gold.Version>
5.8.1

> <Gold.Id.Protein>
6NUR|6NUR_protein|mol2

> <Gold.PLP.Fitness>
41.0309

> <Gold.PLP.PLP>
-25.1021

> <Gold.PLP.part.hbond>
-3.0064

> <Gold.PLP.part.metal>
0.0000

> <Gold.PLP.part.buried>
-3.2353

> <Gold.PLP.part.nonpolar>
-19.9953

> <Gold.PLP.part.repulsive>
1.1069

> <Gold.PLP.ligand.clash>
0.0000

> <Gold.PLP.ligand.torsion>
0.4927

> <Gold.PLP.Chemscore.Hbond>
3.6354

> <Gold.PLP.Chemscore.CHOScore>
1.9861

> <Gold.PLP.Chemscore.Metal>
0.0000

> <Gold.Chemscore.Hbonds>
donor molecule, donor type, donor heavy atom, donor atom, acceptor molecule, acceptor atom, score
      L1  H     4    26       P1  7948  1.00
      L1  H     7    27       P1  7948  0.58
      L1  H    13    38       P1  7948  2.00
      L1  C     9    28       P1 10747  1.00
      L1  C    12    29       P1 10186  0.90

> <Gold.PLP.Chemscore.Internal.Correction>
0.0497

> <Gold.Rescore>
     Score         DG    S(hbond)    S(metal)    S(lipo)     H(rot)  DE(clash)    DE(int)     intcor
     15.09     -16.61       2.65        0.00      56.11       1.68       0.07       1.44       ----

> <Gold.Chemscore.Fitness>
15.0933

> <Gold.Chemscore.DG>
-16.6074

> <Gold.Chemscore.ZeroCoef>
-5.4800

> <Gold.Chemscore.Hbond>
2.6514

> <Gold.Chemscore.Metal>
0.0000

> <Gold.Chemscore.Lipo>
56.1127

> <Gold.Chemscore.Internal_Hbond>
0.0000

> <Gold.Chemscore.DEClash>
0.0732

> <Gold.Chemscore.DEInternal>
1.4409

> <Gold.Chemscore.Rot>
1.6771

> <Gold.Chemscore.Internal.Correction>
   9.000000E+99

> <Gold.Chemscore.Hbonds>
donor molecule, donor type, donor heavy atom, donor atom, acceptor molecule, acceptor atom, score
      L1  H     4    26       P1  7948  0.99
      L1  H     7    27       P1  7948  0.40
      L1  H    13    38       P1  7948  1.00

> <Gold.Chemscore.Hbond.Weighted>
-8.8557

> <Gold.Chemscore.Metal.Weighted>
-0.0000

> <Gold.Chemscore.Lipo.Weighted>
-6.5652

> <Gold.Chemscore.Internal_Hbond.Weighted>
0.0000

> <Gold.Chemscore.DEClash.Weighted>
0.0732

> <Gold.Chemscore.DEInternal.Weighted>
1.4409

> <Gold.Chemscore.Rot.Weighted>
4.2935

> <Gold.Chemscore.Internal.Correction.Weighted>
   9.000000E+99

> <Gold.Protein.RotatedTorsions>
[ 6907 6896 6895 6894 ] final  119.34 input  -60.11 | X-H torsion
[ 7974 7965 7964 7962 ] final   85.12 input  175.53 | X-H torsion
[ 8008 7997 7996 7995 ] final -115.58 input   59.86 | X-H torsion
[ 10167 10162 10161 10158 ] final   49.21 input  -65.29 | X-H torsion
[ 10718 10713 10712 10709 ] final  113.31 input   66.30 | X-H torsion
[ 10763 10752 10751 10750 ] final -134.33 input  -60.55 | X-H torsion
[ 11005 11000 10999 10996 ] final   85.21 input  -57.11 | X-H torsion

> <Gold.Protein.ActiveResidues>
 VAL166  LYS551  ARG553  GLY616  TRP617  ASP618  TYR619  PRO620  LYS621  CYS622 
 ASP623  PHE694  ASN695  SER759  ASP760  ASP761  ALA762  ILE779  LEU786  VAL792 
 PHE793  MET794  SER795  GLU796  ALA797  LYS798  CYS799  TRP800  GLU811  SER814 

> <Gold.Protein.RotatedAtoms>
  152.4479  133.7571  159.6725 H   0  0  0  0  0  0  0  0  0  0  0  0  # atno 6907 bound_to 6896
  150.8383  133.7967  159.3077 H   0  0  0  0  0  0  0  0  0  0  0  0  # atno 6908 bound_to 6896
  151.5600  135.1068  160.0022 H   0  0  0  0  0  0  0  0  0  0  0  0  # atno 6909 bound_to 6896
  145.5898  139.2336  143.2306 H   0  0  0  0  0  0  0  0  0  0  0  0  # atno 7974 bound_to 7965
  155.0543  140.0393  157.2554 H   0  0  0  0  0  0  0  0  0  0  0  0  # atno 8008 bound_to 7997
  154.7112  140.2693  155.6604 H   0  0  0  0  0  0  0  0  0  0  0  0  # atno 8009 bound_to 7997
  156.2790  140.2721  156.1754 H   0  0  0  0  0  0  0  0  0  0  0  0  # atno 8010 bound_to 7997
  140.2853  144.3109  150.6254 H   0  0  0  0  0  0  0  0  0  0  0  0  # atno 10167 bound_to 10162
  157.6345  131.0981  150.7022 H   0  0  0  0  0  0  0  0  0  0  0  0  # atno 10718 bound_to 10713
  154.8720  135.3738  154.4719 H   0  0  0  0  0  0  0  0  0  0  0  0  # atno 10763 bound_to 10752
  153.5378  135.7027  153.5656 H   0  0  0  0  0  0  0  0  0  0  0  0  # atno 10764 bound_to 10752
  153.3831  135.3991  155.1836 H   0  0  0  0  0  0  0  0  0  0  0  0  # atno 10765 bound_to 10752
  139.8978  134.8271  156.2551 H   0  0  0  0  0  0  0  0  0  0  0  0  # atno 11005 bound_to 11000
  146.1655  140.6724  142.9257 LP  0  0  0  0  0  0  0  0  0  0  0  0  # atno 17320 bound_to 7965
  144.7356  140.4799  143.6906 LP  0  0  0  0  0  0  0  0  0  0  0  0  # atno 17321 bound_to 7965
  140.5778  143.2175  151.7483 LP  0  0  0  0  0  0  0  0  0  0  0  0  # atno 17342 bound_to 10162
  139.4952  144.4124  152.0066 LP  0  0  0  0  0  0  0  0  0  0  0  0  # atno 17343 bound_to 10162
  156.7355  130.4723  149.5489 LP  0  0  0  0  0  0  0  0  0  0  0  0  # atno 17370 bound_to 10713
  156.1574  130.6351  151.0674 LP  0  0  0  0  0  0  0  0  0  0  0  0  # atno 17371 bound_to 10713
  141.0199  133.7047  156.1250 LP  0  0  0  0  0  0  0  0  0  0  0  0  # atno 17394 bound_to 11000
  140.7249  134.4318  157.5571 LP  0  0  0  0  0  0  0  0  0  0  0  0  # atno 17395 bound_to 11000

$$$$
