AV-unprocessed.smi:992|AV-procd|sdf|4330|dock5
  -GOLD-   22720 2233D 1   1.00000     0.00000
 Structure written by MMmdl.
 32 33  0  0  0  0  0  0  0  0  1 V2000
  151.4739  144.9146  159.0970 C   0  0  0  0  0  0  0  0  0  0  0  0
  152.1588  143.6419  158.5880 C   0  0  2  0  0  0  0  0  0  0  0  0
  151.2519  142.8364  157.6381 C   0  0  0  0  0  0  0  0  0  0  0  0
  151.9073  141.5922  157.2559 N   0  0  0  0  0  0  0  0  0  0  0  0
  151.1941  140.8595  156.2966 C   0  0  0  0  0  0  0  0  0  0  0  0
  151.7343  139.6452  155.8224 C   0  0  0  0  0  0  0  0  0  0  0  0
  151.0143  138.9143  154.8577 C   0  0  0  0  0  0  0  0  0  0  0  0
  149.7823  139.4231  154.4020 C   0  0  0  0  0  0  0  0  0  0  0  0
  149.0340  138.7353  153.4478 N   0  0  0  0  0  0  0  0  0  0  0  0
  149.3250  140.6453  154.9351 C   0  0  0  0  0  0  0  0  0  0  0  0
  150.0093  141.3515  155.8602 N   0  0  0  0  0  0  0  0  0  0  0  0
  152.3114  140.8016  158.4116 C   0  0  0  0  0  0  0  0  0  0  0  0
  153.1991  141.6464  159.3451 C   0  0  2  0  0  0  0  0  0  0  0  0
  153.5742  140.8904  160.6242 C   0  0  0  0  0  0  0  0  0  0  0  0
  152.4937  142.8306  159.7124 O   0  0  0  0  0  0  0  0  0  0  0  0
  151.2077  145.5735  158.2700 H   0  0  0  0  0  0  0  0  0  0  0  0
  152.1311  145.4706  159.7660 H   0  0  0  0  0  0  0  0  0  0  0  0
  150.5612  144.6798  159.6451 H   0  0  0  0  0  0  0  0  0  0  0  0
  153.0754  143.9255  158.0675 H   0  0  0  0  0  0  0  0  0  0  0  0
  150.3017  142.6158  158.1273 H   0  0  0  0  0  0  0  0  0  0  0  0
  151.0270  143.4224  156.7459 H   0  0  0  0  0  0  0  0  0  0  0  0
  152.6820  139.2792  156.1896 H   0  0  0  0  0  0  0  0  0  0  0  0
  151.4039  137.9814  154.4772 H   0  0  0  0  0  0  0  0  0  0  0  0
  149.3521  137.8589  153.0591 H   0  0  0  0  0  0  0  0  0  0  0  0
  148.1519  139.0923  153.1095 H   0  0  0  0  0  0  0  0  0  0  0  0
  148.3857  141.0707  154.6126 H   0  0  0  0  0  0  0  0  0  0  0  0
  151.4267  140.4573  158.9498 H   0  0  0  0  0  0  0  0  0  0  0  0
  152.8522  139.9148  158.0789 H   0  0  0  0  0  0  0  0  0  0  0  0
  154.1174  141.9252  158.8252 H   0  0  0  0  0  0  0  0  0  0  0  0
  154.1266  139.9796  160.3929 H   0  0  0  0  0  0  0  0  0  0  0  0
  152.6862  140.6087  161.1913 H   0  0  0  0  0  0  0  0  0  0  0  0
  154.2016  141.5044  161.2706 H   0  0  0  0  0  0  0  0  0  0  0  0
  1  2  1  0  0  0  0
  1 16  1  0  0  0  0
  1 17  1  0  0  0  0
  1 18  1  0  0  0  0
  2 15  1  0  0  0  0
  2  3  1  0  0  0  0
  2 19  1  0  0  0  0
  3  4  1  0  0  0  0
  3 20  1  0  0  0  0
  3 21  1  0  0  0  0
  4  5  1  0  0  0  0
  4 12  1  0  0  0  0
  5 11  1  0  0  0  0
  5  6  2  0  0  0  0
  6  7  1  0  0  0  0
  6 22  1  0  0  0  0
  7  8  2  0  0  0  0
  7 23  1  0  0  0  0
  8  9  1  0  0  0  0
  8 10  1  0  0  0  0
  9 24  1  0  0  0  0
  9 25  1  0  0  0  0
 10 11  2  0  0  0  0
 10 26  1  0  0  0  0
 12 13  1  0  0  0  0
 12 27  1  0  0  0  0
 12 28  1  0  0  0  0
 13 14  1  0  0  0  0
 13 15  1  0  0  0  0
 13 29  1  0  0  0  0
 14 30  1  0  0  0  0
 14 31  1  0  0  0  0
 14 32  1  0  0  0  0
M  END
> <s_m_source_file>
AV-unprocessed.smi

> <i_m_source_file_index>
992

> <i_lp_mmshare_version>
43012

> <i_f3d_flags>
0

> <s_epik_input>
W0NIM11bQ0BASF0xW0NIMl1OKFtDSDJdW0NASF0oTzEpW0NIM10pYzJbY0hdW2NIXWMoW05IMl0pW2NIXW4y

> <s_epik_cmdline>
J2VwaWtfcHl0aG9uJywgJy1waCcsICc3LjAnLCAnLXRuJywgJzgnLCAnLW1hJywgJzIwMCcsICctbWV0YWxfYmluZGluZycsICctaW1hZScsICc8aW5maWxlLm1hZT4nLCAnLW9tYWUnLCAnPG91dGZpbGUubWFlPic=

> <r_lp_tautomer_probability>
1

> <r_epik_Ionization_Penalty>
0.0126232

> <r_epik_Ionization_Penalty_Charging>
0

> <r_epik_Ionization_Penalty_Neutral>
0.0126232

> <r_epik_State_Penalty>
0.00976577

> <r_epik_Charging_Adjusted_Penalty>
0.00976577

> <i_epik_Tot_Q>
0

> <i_epik_Tot_abs_Q>
0

> <r_epik_Metal_State_Penalty>
9.84661e-06

> <b_epik_Metal_Only>
0

> <s_lp_Force_Field>
OPLS_2005

> <r_lp_Energy>
20.2951

> <b_lp_Chiralities_Consistent>
1

> <s_lp_Variant>
AV-unprocessed.smi:992-2

> <Gold.Version>
5.8.1

> <Gold.Id.Protein>
6NUR|6NUR_protein|mol2

> <Gold.PLP.Fitness>
37.3268

> <Gold.PLP.PLP>
-34.3772

> <Gold.PLP.part.hbond>
-2.0000

> <Gold.PLP.part.metal>
0.0000

> <Gold.PLP.part.buried>
-2.6299

> <Gold.PLP.part.nonpolar>
-30.7163

> <Gold.PLP.part.repulsive>
0.1959

> <Gold.PLP.ligand.clash>
0.0000

> <Gold.PLP.ligand.torsion>
0.0737

> <Gold.PLP.Chemscore.Hbond>
1.0000

> <Gold.PLP.Chemscore.CHOScore>
0.0000

> <Gold.PLP.Chemscore.Metal>
0.0000

> <Gold.Chemscore.Hbonds>
donor molecule, donor type, donor heavy atom, donor atom, acceptor molecule, acceptor atom, score
      L1  H     9    24       P1  7948  0.98

> <Gold.PLP.Chemscore.Internal.Correction>
0.0969

> <Gold.Rescore>
     Score         DG    S(hbond)    S(metal)    S(lipo)     H(rot)  DE(clash)    DE(int)     intcor
     15.94     -16.08       0.99        0.00      84.31       1.00       0.07       0.06       ----

> <Gold.Chemscore.Fitness>
15.9398

> <Gold.Chemscore.DG>
-16.0788

> <Gold.Chemscore.ZeroCoef>
-5.4800

> <Gold.Chemscore.Hbond>
0.9865

> <Gold.Chemscore.Metal>
0.0000

> <Gold.Chemscore.Lipo>
84.3081

> <Gold.Chemscore.Internal_Hbond>
0.0000

> <Gold.Chemscore.DEClash>
0.0749

> <Gold.Chemscore.DEInternal>
0.0642

> <Gold.Chemscore.Rot>
1.0000

> <Gold.Chemscore.Internal.Correction>
   9.000000E+99

> <Gold.Chemscore.Hbonds>
donor molecule, donor type, donor heavy atom, donor atom, acceptor molecule, acceptor atom, score
      L1  H     9    24       P1  7948  0.84

> <Gold.Chemscore.Hbond.Weighted>
-3.2948

> <Gold.Chemscore.Metal.Weighted>
-0.0000

> <Gold.Chemscore.Lipo.Weighted>
-9.8640

> <Gold.Chemscore.Internal_Hbond.Weighted>
0.0000

> <Gold.Chemscore.DEClash.Weighted>
0.0749

> <Gold.Chemscore.DEInternal.Weighted>
0.0642

> <Gold.Chemscore.Rot.Weighted>
2.5600

> <Gold.Chemscore.Internal.Correction.Weighted>
   9.000000E+99

> <Gold.Protein.RotatedTorsions>
[ 6907 6896 6895 6894 ] final  118.40 input  -60.11 | X-H torsion
[ 7974 7965 7964 7962 ] final  149.77 input  175.53 | X-H torsion
[ 8008 7997 7996 7995 ] final  -56.31 input   59.86 | X-H torsion
[ 10167 10162 10161 10158 ] final -148.08 input  -65.29 | X-H torsion
[ 10718 10713 10712 10709 ] final  143.00 input   66.30 | X-H torsion
[ 10763 10752 10751 10750 ] final  111.80 input  -60.55 | X-H torsion
[ 11005 11000 10999 10996 ] final -118.35 input  -57.11 | X-H torsion

> <Gold.Protein.ActiveResidues>
 VAL166  LYS551  ARG553  GLY616  TRP617  ASP618  TYR619  PRO620  LYS621  CYS622 
 ASP623  PHE694  ASN695  SER759  ASP760  ASP761  ALA762  ILE779  LEU786  VAL792 
 PHE793  MET794  SER795  GLU796  ALA797  LYS798  CYS799  TRP800  GLU811  SER814 

> <Gold.Protein.RotatedAtoms>
  152.4545  133.7696  159.6791 H   0  0  0  0  0  0  0  0  0  0  0  0  # atno 6907 bound_to 6896
  150.8467  133.7840  159.3046 H   0  0  0  0  0  0  0  0  0  0  0  0  # atno 6908 bound_to 6896
  151.5448  135.1071  159.9987 H   0  0  0  0  0  0  0  0  0  0  0  0  # atno 6909 bound_to 6896
  144.8414  139.6322  143.6015 H   0  0  0  0  0  0  0  0  0  0  0  0  # atno 7974 bound_to 7965
  154.4225  140.1133  156.5616 H   0  0  0  0  0  0  0  0  0  0  0  0  # atno 8008 bound_to 7997
  155.6305  140.3495  155.4662 H   0  0  0  0  0  0  0  0  0  0  0  0  # atno 8009 bound_to 7997
  155.9952  140.1187  157.0590 H   0  0  0  0  0  0  0  0  0  0  0  0  # atno 8010 bound_to 7997
  139.7564  143.8442  152.2598 H   0  0  0  0  0  0  0  0  0  0  0  0  # atno 10167 bound_to 10162
  157.3740  131.0983  151.0801 H   0  0  0  0  0  0  0  0  0  0  0  0  # atno 10718 bound_to 10713
  153.4686  135.3706  155.2378 H   0  0  0  0  0  0  0  0  0  0  0  0  # atno 10763 bound_to 10752
  154.8757  135.3926  154.3839 H   0  0  0  0  0  0  0  0  0  0  0  0  # atno 10764 bound_to 10752
  153.4424  135.7084  153.6225 H   0  0  0  0  0  0  0  0  0  0  0  0  # atno 10765 bound_to 10752
  141.0292  134.0008  157.3169 H   0  0  0  0  0  0  0  0  0  0  0  0  # atno 11005 bound_to 11000
  146.2705  139.6625  142.9299 LP  0  0  0  0  0  0  0  0  0  0  0  0  # atno 17320 bound_to 7965
  145.4687  141.0435  143.2711 LP  0  0  0  0  0  0  0  0  0  0  0  0  # atno 17321 bound_to 7965
  139.8435  144.7198  150.9301 LP  0  0  0  0  0  0  0  0  0  0  0  0  # atno 17342 bound_to 10162
  140.7803  143.3962  151.1226 LP  0  0  0  0  0  0  0  0  0  0  0  0  # atno 17343 bound_to 10162
  157.1895  130.6345  149.5699 LP  0  0  0  0  0  0  0  0  0  0  0  0  # atno 17370 bound_to 10713
  155.9761  130.4727  150.6507 LP  0  0  0  0  0  0  0  0  0  0  0  0  # atno 17371 bound_to 10713
  139.9196  135.0199  156.8014 LP  0  0  0  0  0  0  0  0  0  0  0  0  # atno 17394 bound_to 11000
  140.6437  133.9794  155.7720 LP  0  0  0  0  0  0  0  0  0  0  0  0  # atno 17395 bound_to 11000

$$$$
