AV-unprocessed.smi:102|AV-procd|sdf|969|dock7
  -GOLD-   2262017523D 1   1.00000     0.00000
 Structure written by MMmdl.
 43 44  0  0  0  0  0  0  0  0  2 V2000
  150.5183  131.9533  155.7056 C   0  0  0  0  0  0  0  0  0  0  0  0
  150.3932  132.4073  157.1538 C   0  0  0  0  0  0  0  0  0  0  0  0
  151.3866  132.6287  157.8468 O   0  0  0  0  0  0  0  0  0  0  0  0
  149.1157  132.5203  157.5466 O   0  0  0  0  0  0  0  0  0  0  0  0
  148.7842  133.4078  158.6015 C   0  0  0  0  0  0  0  0  0  0  0  0
  148.4072  134.7799  158.0220 C   0  0  2  0  0  0  0  0  0  0  0  0
  149.5350  135.3828  157.3897 O   0  0  0  0  0  0  0  0  0  0  0  0
  149.9253  136.5291  158.0832 C   0  0  1  0  0  0  0  0  0  0  0  0
  150.7096  137.4493  157.1580 N   0  0  0  0  0  0  0  0  0  0  0  0
  150.4212  138.8036  157.0683 C   0  0  0  0  0  0  0  0  0  0  0  0
  151.1376  139.6285  156.2781 C   0  0  0  0  0  0  0  0  0  0  0  0
  150.8267  140.9348  156.2178 F   0  0  0  0  0  0  0  0  0  0  0  0
  152.2611  139.0977  155.5114 C   0  0  0  0  0  0  0  0  0  0  0  0
  152.8845  139.8438  154.7577 O   0  0  0  0  0  0  0  0  0  0  0  0
  152.5775  137.7820  155.6786 N   0  5  0  0  0  0  0  0  0  0  0  0
  151.8687  136.9493  156.4968 C   0  0  0  0  0  0  0  0  0  0  0  0
  152.1982  135.7806  156.6985 O   0  0  0  0  0  0  0  0  0  0  0  0
  148.5961  137.0904  158.6151 C   0  0  1  0  0  0  0  0  0  0  0  0
  147.8326  137.7153  157.5853 O   0  0  0  0  0  0  0  0  0  0  0  0
  146.6078  138.2015  157.8473 C   0  0  0  0  0  0  0  0  0  0  0  0
  145.9058  138.7059  156.5939 C   0  0  0  0  0  0  0  0  0  0  0  0
  146.0705  138.2571  158.9534 O   0  0  0  0  0  0  0  0  0  0  0  0
  147.9027  135.8076  159.0514 C   0  0  2  0  0  0  0  0  0  0  0  0
  148.2945  135.4799  160.3820 O   0  0  0  0  0  0  0  0  0  0  0  0
  147.7162  136.0870  161.4332 C   0  0  0  0  0  0  0  0  0  0  0  0
  147.6863  135.1991  162.6699 C   0  0  0  0  0  0  0  0  0  0  0  0
  147.2530  137.2272  161.4490 O   0  0  0  0  0  0  0  0  0  0  0  0
  149.8541  132.5341  155.0654 H   0  0  0  0  0  0  0  0  0  0  0  0
  150.2526  130.8998  155.6167 H   0  0  0  0  0  0  0  0  0  0  0  0
  151.5408  132.0831  155.3505 H   0  0  0  0  0  0  0  0  0  0  0  0
  147.9376  132.9924  159.1502 H   0  0  0  0  0  0  0  0  0  0  0  0
  149.6164  133.5031  159.3007 H   0  0  0  0  0  0  0  0  0  0  0  0
  147.6383  134.6529  157.2587 H   0  0  0  0  0  0  0  0  0  0  0  0
  150.6228  136.2705  158.8820 H   0  0  0  0  0  0  0  0  0  0  0  0
  149.6225  139.2342  157.6510 H   0  0  0  0  0  0  0  0  0  0  0  0
  148.7899  137.7799  159.4385 H   0  0  0  0  0  0  0  0  0  0  0  0
  146.4982  139.4876  156.1176 H   0  0  0  0  0  0  0  0  0  0  0  0
  144.9269  139.1170  156.8414 H   0  0  0  0  0  0  0  0  0  0  0  0
  145.7692  137.8915  155.8823 H   0  0  0  0  0  0  0  0  0  0  0  0
  146.8158  135.8906  158.9979 H   0  0  0  0  0  0  0  0  0  0  0  0
  147.2766  134.2192  162.4247 H   0  0  0  0  0  0  0  0  0  0  0  0
  147.0685  135.6471  163.4484 H   0  0  0  0  0  0  0  0  0  0  0  0
  148.6945  135.0655  163.0624 H   0  0  0  0  0  0  0  0  0  0  0  0
  1  2  1  0  0  0  0
  1 28  1  0  0  0  0
  1 29  1  0  0  0  0
  1 30  1  0  0  0  0
  2  3  2  0  0  0  0
  2  4  1  0  0  0  0
  4  5  1  0  0  0  0
  5  6  1  0  0  0  0
  5 31  1  0  0  0  0
  5 32  1  0  0  0  0
  6 23  1  0  0  0  0
  6  7  1  0  0  0  0
  6 33  1  0  0  0  0
  7  8  1  0  0  0  0
  8  9  1  0  0  0  0
  8 18  1  0  0  0  0
  8 34  1  0  0  0  0
  9 16  1  0  0  0  0
  9 10  1  0  0  0  0
 10 11  2  0  0  0  0
 10 35  1  0  0  0  0
 11 12  1  0  0  0  0
 11 13  1  0  0  0  0
 13 14  2  0  0  0  0
 13 15  1  0  0  0  0
 15 16  1  0  0  0  0
 16 17  2  0  0  0  0
 18 19  1  0  0  0  0
 18 23  1  0  0  0  0
 18 36  1  0  0  0  0
 19 20  1  0  0  0  0
 20 21  1  0  0  0  0
 20 22  2  0  0  0  0
 21 37  1  0  0  0  0
 21 38  1  0  0  0  0
 21 39  1  0  0  0  0
 23 24  1  0  0  0  0
 23 40  1  0  0  0  0
 24 25  1  0  0  0  0
 25 26  1  0  0  0  0
 25 27  2  0  0  0  0
 26 41  1  0  0  0  0
 26 42  1  0  0  0  0
 26 43  1  0  0  0  0
M  CHG  1  15  -1
M  END
> <s_m_source_file>
AV-unprocessed.smi

> <i_m_source_file_index>
102

> <i_lp_mmshare_version>
43012

> <i_f3d_flags>
0

> <s_epik_input>
W0NIM11DKD1PKU9bQ0gyXVtDQEBIXTFPW0NASF0oW0NAQEhdKE9DKD1PKVtDSDNdKVtDQEhdMU9DKD1PKVtDSDNdKW4yW2NIXWMoRiljKD1PKVtuSF1jMj1P

> <s_epik_cmdline>
J2VwaWtfcHl0aG9uJywgJy1waCcsICc3LjAnLCAnLXRuJywgJzgnLCAnLW1hJywgJzIwMCcsICctbWV0YWxfYmluZGluZycsICctaW1hZScsICc8aW5maWxlLm1hZT4nLCAnLW9tYWUnLCAnPG91dGZpbGUubWFlPic=

> <r_epik_Ionization_Penalty>
1.40304

> <r_epik_Ionization_Penalty_Charging>
1.43915e-08

> <r_epik_Ionization_Penalty_Neutral>
1.40304

> <r_epik_State_Penalty>
1.48536

> <r_epik_Charging_Adjusted_Penalty>
1.48536

> <i_epik_Tot_Q>
-1

> <i_epik_Tot_abs_Q>
1

> <r_epik_Metal_State_Penalty>
0.00663881

> <b_epik_Metal_Only>
0

> <s_epik_Chemistry_Notes>
This compound has an ester and may undergo hydrolysis at high or low pH. This compound contains an acetal/aminal-like group ( X-CH(R)-Y where X, Y are N, S, or O) that may be acid/base labile, releasing an aldehyde.

> <s_lp_Force_Field>
OPLS_2005

> <r_lp_Energy>
30.6684

> <b_lp_Chiralities_Consistent>
1

> <s_lp_Variant>
AV-unprocessed.smi:102-25

> <Gold.Version>
5.8.1

> <Gold.Id.Protein>
6NUR|6NUR_protein|mol2

> <Gold.PLP.Fitness>
45.3072

> <Gold.PLP.PLP>
-32.3027

> <Gold.PLP.part.hbond>
-7.9694

> <Gold.PLP.part.metal>
0.0000

> <Gold.PLP.part.buried>
-4.5688

> <Gold.PLP.part.nonpolar>
-20.4731

> <Gold.PLP.part.repulsive>
0.0545

> <Gold.PLP.ligand.clash>
0.0000

> <Gold.PLP.ligand.torsion>
1.3404

> <Gold.PLP.Chemscore.Hbond>
5.1690

> <Gold.PLP.Chemscore.CHOScore>
0.0000

> <Gold.PLP.Chemscore.Metal>
0.0000

> <Gold.Chemscore.Hbonds>
donor molecule, donor type, donor heavy atom, donor atom, acceptor molecule, acceptor atom, score
      P1  H  6896  6909       L1     3  1.00
      P1  H  6931  6943       L1    27  0.63
      P1  H  6934  6947       L1    27  0.98
      P1  H  7989  7998       L1    14  0.40
      P1  H  7997  8010       L1    14  1.00
      P1  H 10752 10764       L1    17  1.00

> <Gold.PLP.Chemscore.Internal.Correction>
0.1784

> <Gold.Rescore>
     Score         DG    S(hbond)    S(metal)    S(lipo)     H(rot)  DE(clash)    DE(int)     intcor
      6.73     -13.27       4.19        0.00      34.32       4.00       0.07       6.47       ----

> <Gold.Chemscore.Fitness>
6.7264

> <Gold.Chemscore.DG>
-13.2683

> <Gold.Chemscore.ZeroCoef>
-5.4800

> <Gold.Chemscore.Hbond>
4.1916

> <Gold.Chemscore.Metal>
0.0000

> <Gold.Chemscore.Lipo>
34.3228

> <Gold.Chemscore.Internal_Hbond>
0.0000

> <Gold.Chemscore.DEClash>
0.0715

> <Gold.Chemscore.DEInternal>
6.4705

> <Gold.Chemscore.Rot>
3.9951

> <Gold.Chemscore.Internal.Correction>
   9.000000E+99

> <Gold.Chemscore.Hbonds>
donor molecule, donor type, donor heavy atom, donor atom, acceptor molecule, acceptor atom, score
      P1  H  6896  6909       L1     3  0.94
      P1  H  6931  6943       L1    27  0.12
      P1  H  6934  6947       L1    27  0.93
      P1  H  7989  7998       L1    14  0.33
      P1  H  7997  8010       L1    14  0.57
      P1  H 10752 10764       L1    17  0.40

> <Gold.Chemscore.Hbond.Weighted>
-14.0000

> <Gold.Chemscore.Metal.Weighted>
-0.0000

> <Gold.Chemscore.Lipo.Weighted>
-4.0158

> <Gold.Chemscore.Internal_Hbond.Weighted>
0.0000

> <Gold.Chemscore.DEClash.Weighted>
0.0715

> <Gold.Chemscore.DEInternal.Weighted>
6.4705

> <Gold.Chemscore.Rot.Weighted>
10.2274

> <Gold.Chemscore.Internal.Correction.Weighted>
   9.000000E+99

> <Gold.Protein.RotatedTorsions>
[ 6907 6896 6895 6894 ] final  -53.27 input  -60.11 | X-H torsion
[ 7974 7965 7964 7962 ] final   72.04 input  175.53 | X-H torsion
[ 8008 7997 7996 7995 ] final  123.72 input   59.86 | X-H torsion
[ 10167 10162 10161 10158 ] final  -88.44 input  -65.29 | X-H torsion
[ 10718 10713 10712 10709 ] final  132.28 input   66.30 | X-H torsion
[ 10763 10752 10751 10750 ] final  -12.85 input  -60.55 | X-H torsion
[ 11005 11000 10999 10996 ] final  -71.91 input  -57.11 | X-H torsion

> <Gold.Protein.ActiveResidues>
 VAL166  LYS551  ARG553  GLY616  TRP617  ASP618  TYR619  PRO620  LYS621  CYS622 
 ASP623  PHE694  ASN695  SER759  ASP760  ASP761  ALA762  ILE779  LEU786  VAL792 
 PHE793  MET794  SER795  GLU796  ALA797  LYS798  CYS799  TRP800  GLU811  SER814 

> <Gold.Protein.RotatedAtoms>
  150.8442  134.7745  159.6956 H   0  0  0  0  0  0  0  0  0  0  0  0  # atno 6907 bound_to 6896
  152.4523  134.5364  159.9836 H   0  0  0  0  0  0  0  0  0  0  0  0  # atno 6908 bound_to 6896
  151.5498  133.3381  159.2986 H   0  0  0  0  0  0  0  0  0  0  0  0  # atno 6909 bound_to 6896
  145.7584  139.2790  143.1391 H   0  0  0  0  0  0  0  0  0  0  0  0  # atno 7974 bound_to 7965
  156.2776  140.2756  156.1672 H   0  0  0  0  0  0  0  0  0  0  0  0  # atno 8008 bound_to 7997
  155.0692  140.0387  157.2620 H   0  0  0  0  0  0  0  0  0  0  0  0  # atno 8009 bound_to 7997
  154.7054  140.2657  155.6685 H   0  0  0  0  0  0  0  0  0  0  0  0  # atno 8010 bound_to 7997
  140.3746  143.2777  151.9458 H   0  0  0  0  0  0  0  0  0  0  0  0  # atno 10167 bound_to 10162
  157.4887  131.1089  150.9586 H   0  0  0  0  0  0  0  0  0  0  0  0  # atno 10718 bound_to 10713
  153.5046  135.7017  153.5813 H   0  0  0  0  0  0  0  0  0  0  0  0  # atno 10763 bound_to 10752
  153.3930  135.3891  155.1936 H   0  0  0  0  0  0  0  0  0  0  0  0  # atno 10764 bound_to 10752
  154.8708  135.3863  154.4520 H   0  0  0  0  0  0  0  0  0  0  0  0  # atno 10765 bound_to 10752
  141.1600  133.6831  156.6978 H   0  0  0  0  0  0  0  0  0  0  0  0  # atno 11005 bound_to 11000
  146.0288  140.8277  142.9886 LP  0  0  0  0  0  0  0  0  0  0  0  0  # atno 17320 bound_to 7965
  144.6835  140.2738  143.7302 LP  0  0  0  0  0  0  0  0  0  0  0  0  # atno 17321 bound_to 7965
  139.4800  144.5875  151.7829 LP  0  0  0  0  0  0  0  0  0  0  0  0  # atno 17342 bound_to 10162
  140.4998  144.1185  150.5968 LP  0  0  0  0  0  0  0  0  0  0  0  0  # atno 17343 bound_to 10162
  157.0295  130.5706  149.5341 LP  0  0  0  0  0  0  0  0  0  0  0  0  # atno 17370 bound_to 10713
  156.0161  130.5255  150.8138 LP  0  0  0  0  0  0  0  0  0  0  0  0  # atno 17371 bound_to 10713
  140.2981  134.8186  157.4074 LP  0  0  0  0  0  0  0  0  0  0  0  0  # atno 17394 bound_to 11000
  140.1286  134.5125  155.8124 LP  0  0  0  0  0  0  0  0  0  0  0  0  # atno 17395 bound_to 11000

$$$$
