AV-unprocessed.smi:1572|AV-procd|sdf|6327|dock2
  -GOLD-   22720 6533D 1   1.00000     0.00000
 Structure written by MMmdl.
 43 44  0  0  0  0  0  0  0  0  2 V2000
  143.8508  132.5167  149.9718 C   0  0  0  0  0  0  0  0  0  0  0  0
  145.0388  133.4002  149.9227 N   0  3  0  0  0  0  0  0  0  0  0  0
  146.3215  132.6947  150.1430 C   0  0  0  0  0  0  0  0  0  0  0  0
  146.5306  132.3538  151.6322 C   0  0  0  0  0  0  0  0  0  0  0  0
  146.5165  133.5806  152.4463 N   0  0  0  0  0  0  0  0  0  0  0  0
  146.9532  133.3966  153.8571 C   0  0  0  0  0  0  0  0  0  0  0  0
  146.0808  132.3063  154.5299 C   0  0  0  0  0  0  0  0  0  0  0  0
  148.4368  132.9659  153.9490 C   0  0  0  0  0  0  0  0  0  0  0  0
  146.7716  134.7174  154.6643 C   0  0  0  0  0  0  0  0  0  0  0  0
  147.6161  135.8107  154.1819 N   0  0  0  0  0  0  0  0  0  0  0  0
  147.7705  137.0030  154.7753 C   0  0  0  0  0  0  0  0  0  0  0  0
  147.2143  137.3167  155.8274 O   0  0  0  0  0  0  0  0  0  0  0  0
  148.5944  137.7917  154.0669 N   0  0  0  0  0  0  0  0  0  0  0  0
  148.9955  139.1191  154.3588 C   0  0  0  0  0  0  0  0  0  0  0  0
  150.2313  139.3108  154.8348 N   0  0  0  0  0  0  0  0  0  0  0  0
  150.4928  140.6536  155.0780 N   0  0  0  0  0  0  0  0  0  0  0  0
  149.4421  141.4225  154.7760 C   0  0  0  0  0  0  0  0  0  0  0  0
  148.0279  140.5835  154.1637 S   0  0  0  0  0  0  0  0  0  0  0  0
  145.1901  134.2006  152.2855 C   0  0  0  0  0  0  0  0  0  0  0  0
  144.9469  134.5810  150.8110 C   0  0  0  0  0  0  0  0  0  0  0  0
  143.7166  132.0657  150.9550 H   0  0  0  0  0  0  0  0  0  0  0  0
  143.9438  131.7131  149.2408 H   0  0  0  0  0  0  0  0  0  0  0  0
  142.9477  133.0784  149.7311 H   0  0  0  0  0  0  0  0  0  0  0  0
  146.3584  131.7903  149.5344 H   0  0  0  0  0  0  0  0  0  0  0  0
  147.1360  133.3322  149.7956 H   0  0  0  0  0  0  0  0  0  0  0  0
  145.7681  131.6535  151.9739 H   0  0  0  0  0  0  0  0  0  0  0  0
  147.4859  131.8399  151.7102 H   0  0  0  0  0  0  0  0  0  0  0  0
  146.2209  132.3030  155.6114 H   0  0  0  0  0  0  0  0  0  0  0  0
  146.3335  131.3007  154.1945 H   0  0  0  0  0  0  0  0  0  0  0  0
  145.0177  132.4628  154.3427 H   0  0  0  0  0  0  0  0  0  0  0  0
  148.7316  132.8267  154.9898 H   0  0  0  0  0  0  0  0  0  0  0  0
  149.1116  133.7126  153.5310 H   0  0  0  0  0  0  0  0  0  0  0  0
  148.6283  132.0204  153.4424 H   0  0  0  0  0  0  0  0  0  0  0  0
  145.7222  135.0172  154.6510 H   0  0  0  0  0  0  0  0  0  0  0  0
  146.9876  134.5681  155.7216 H   0  0  0  0  0  0  0  0  0  0  0  0
  148.1100  135.6475  153.3170 H   0  0  0  0  0  0  0  0  0  0  0  0
  148.9752  137.4019  153.2176 H   0  0  0  0  0  0  0  0  0  0  0  0
  149.5008  142.4917  154.9154 H   0  0  0  0  0  0  0  0  0  0  0  0
  144.4051  133.5332  152.6411 H   0  0  0  0  0  0  0  0  0  0  0  0
  145.1104  135.1174  152.8655 H   0  0  0  0  0  0  0  0  0  0  0  0
  145.6895  135.3152  150.4954 H   0  0  0  0  0  0  0  0  0  0  0  0
  143.9737  135.0592  150.6950 H   0  0  0  0  0  0  0  0  0  0  0  0
  145.0673  133.7559  148.9778 H   0  0  0  0  0  0  0  0  0  0  0  0
  1  2  1  0  0  0  0
  1 21  1  0  0  0  0
  1 22  1  0  0  0  0
  1 23  1  0  0  0  0
  2 20  1  0  0  0  0
  2  3  1  0  0  0  0
  2 43  1  0  0  0  0
  3  4  1  0  0  0  0
  3 24  1  0  0  0  0
  3 25  1  0  0  0  0
  4  5  1  0  0  0  0
  4 26  1  0  0  0  0
  4 27  1  0  0  0  0
  5  6  1  0  0  0  0
  5 19  1  0  0  0  0
  6  7  1  0  0  0  0
  6  8  1  0  0  0  0
  6  9  1  0  0  0  0
  7 28  1  0  0  0  0
  7 29  1  0  0  0  0
  7 30  1  0  0  0  0
  8 31  1  0  0  0  0
  8 32  1  0  0  0  0
  8 33  1  0  0  0  0
  9 10  1  0  0  0  0
  9 34  1  0  0  0  0
  9 35  1  0  0  0  0
 10 11  1  0  0  0  0
 10 36  1  0  0  0  0
 11 12  2  0  0  0  0
 11 13  1  0  0  0  0
 13 14  1  0  0  0  0
 13 37  1  0  0  0  0
 14 18  1  0  0  0  0
 14 15  2  0  0  0  0
 15 16  1  0  0  0  0
 16 17  2  0  0  0  0
 17 18  1  0  0  0  0
 17 38  1  0  0  0  0
 19 20  1  0  0  0  0
 19 39  1  0  0  0  0
 19 40  1  0  0  0  0
 20 41  1  0  0  0  0
 20 42  1  0  0  0  0
M  CHG  1   2   1
M  END
> <s_m_source_file>
AV-unprocessed.smi

> <i_m_source_file_index>
1572

> <i_lp_mmshare_version>
43012

> <i_f3d_flags>
0

> <s_epik_input>
W0NIM11OMVtDSDJdW0NIMl1OKFtDSDJdW0NIMl0xKUMoW0NIM10pKFtDSDNdKVtDSDJdW05IXUMoPU8pW05IXWMybm5bY0hdczI=

> <s_epik_cmdline>
J2VwaWtfcHl0aG9uJywgJy1waCcsICc3LjAnLCAnLXRuJywgJzgnLCAnLW1hJywgJzIwMCcsICctbWV0YWxfYmluZGluZycsICctaW1hZScsICc8aW5maWxlLm1hZT4nLCAnLW9tYWUnLCAnPG91dGZpbGUubWFlPic=

> <r_lp_tautomer_probability>
1

> <r_epik_Ionization_Penalty>
0.0267369

> <r_epik_Ionization_Penalty_Charging>
0.0242302

> <r_epik_Ionization_Penalty_Neutral>
0.00250668

> <r_epik_State_Penalty>
0.128805

> <r_epik_Charging_Adjusted_Penalty>
0.153036

> <i_epik_Tot_Q>
1

> <i_epik_Tot_abs_Q>
1

> <r_epik_Metal_State_Penalty>
0.462629

> <b_epik_Metal_Only>
0

> <s_lp_Force_Field>
OPLS_2005

> <r_lp_Energy>
23.6119

> <b_lp_Chiralities_Consistent>
1

> <s_lp_Variant>
AV-unprocessed.smi:1572-1

> <Gold.Version>
5.8.1

> <Gold.Id.Protein>
6NUR|6NUR_protein|mol2

> <Gold.PLP.Fitness>
41.4760

> <Gold.PLP.PLP>
-29.1907

> <Gold.PLP.part.hbond>
-4.0000

> <Gold.PLP.part.metal>
0.0000

> <Gold.PLP.part.buried>
-2.4923

> <Gold.PLP.part.nonpolar>
-22.6472

> <Gold.PLP.part.repulsive>
0.4274

> <Gold.PLP.ligand.clash>
0.0000

> <Gold.PLP.ligand.torsion>
0.8315

> <Gold.PLP.Chemscore.Hbond>
3.6256

> <Gold.PLP.Chemscore.CHOScore>
1.0000

> <Gold.PLP.Chemscore.Metal>
0.0000

> <Gold.Chemscore.Hbonds>
donor molecule, donor type, donor heavy atom, donor atom, acceptor molecule, acceptor atom, score
      L1  H     2    43       P1  7921  0.91
      L1  H    10    36       P1  7948  1.00
      L1  H    13    37       P1  7948  1.00
      P1  H  7989  7998       L1    16  0.68
      L1  C    17    38       P1  8028  1.00

> <Gold.PLP.Chemscore.Internal.Correction>
0.0716

> <Gold.Rescore>
     Score         DG    S(hbond)    S(metal)    S(lipo)     H(rot)  DE(clash)    DE(int)     intcor
     17.24     -18.18       2.85        0.00      64.17       1.70       0.18       0.75       ----

> <Gold.Chemscore.Fitness>
17.2439

> <Gold.Chemscore.DG>
-18.1768

> <Gold.Chemscore.ZeroCoef>
-5.4800

> <Gold.Chemscore.Hbond>
2.8533

> <Gold.Chemscore.Metal>
0.0000

> <Gold.Chemscore.Lipo>
64.1659

> <Gold.Chemscore.Internal_Hbond>
0.0000

> <Gold.Chemscore.DEClash>
0.1834

> <Gold.Chemscore.DEInternal>
0.7494

> <Gold.Chemscore.Rot>
1.6956

> <Gold.Chemscore.Internal.Correction>
   9.000000E+99

> <Gold.Chemscore.Hbonds>
donor molecule, donor type, donor heavy atom, donor atom, acceptor molecule, acceptor atom, score
      L1  H     2    43       P1  7921  0.77
      L1  H    10    36       P1  7948  0.97
      L1  H    13    37       P1  7948  0.98
      P1  H  7989  7998       L1    16  0.03

> <Gold.Chemscore.Hbond.Weighted>
-9.5301

> <Gold.Chemscore.Metal.Weighted>
-0.0000

> <Gold.Chemscore.Lipo.Weighted>
-7.5074

> <Gold.Chemscore.Internal_Hbond.Weighted>
0.0000

> <Gold.Chemscore.DEClash.Weighted>
0.1834

> <Gold.Chemscore.DEInternal.Weighted>
0.7494

> <Gold.Chemscore.Rot.Weighted>
4.3407

> <Gold.Chemscore.Internal.Correction.Weighted>
   9.000000E+99

> <Gold.Protein.RotatedTorsions>
[ 6907 6896 6895 6894 ] final -151.61 input  -60.11 | X-H torsion
[ 7974 7965 7964 7962 ] final  142.77 input  175.53 | X-H torsion
[ 8008 7997 7996 7995 ] final -118.67 input   59.86 | X-H torsion
[ 10167 10162 10161 10158 ] final -137.10 input  -65.29 | X-H torsion
[ 10718 10713 10712 10709 ] final  -39.63 input   66.30 | X-H torsion
[ 10763 10752 10751 10750 ] final  -50.51 input  -60.55 | X-H torsion
[ 11005 11000 10999 10996 ] final   -9.81 input  -57.11 | X-H torsion

> <Gold.Protein.ActiveResidues>
 VAL166  LYS551  ARG553  GLY616  TRP617  ASP618  TYR619  PRO620  LYS621  CYS622 
 ASP623  PHE694  ASN695  SER759  ASP760  ASP761  ALA762  ILE779  LEU786  VAL792 
 PHE793  MET794  SER795  GLU796  ALA797  LYS798  CYS799  TRP800  GLU811  SER814 

> <Gold.Protein.RotatedAtoms>
  151.2156  133.4531  159.2599 H   0  0  0  0  0  0  0  0  0  0  0  0  # atno 6907 bound_to 6896
  151.0935  134.9930  159.8424 H   0  0  0  0  0  0  0  0  0  0  0  0  # atno 6908 bound_to 6896
  152.5437  134.2087  159.8794 H   0  0  0  0  0  0  0  0  0  0  0  0  # atno 6909 bound_to 6896
  144.8979  139.5465  143.5767 H   0  0  0  0  0  0  0  0  0  0  0  0  # atno 7974 bound_to 7965
  155.1034  140.0396  157.2703 H   0  0  0  0  0  0  0  0  0  0  0  0  # atno 8008 bound_to 7997
  154.6740  140.2618  155.6951 H   0  0  0  0  0  0  0  0  0  0  0  0  # atno 8009 bound_to 7997
  156.2669  140.2792  156.1260 H   0  0  0  0  0  0  0  0  0  0  0  0  # atno 8010 bound_to 7997
  139.8611  143.7075  152.2650 H   0  0  0  0  0  0  0  0  0  0  0  0  # atno 10167 bound_to 10162
  156.2903  130.4227  149.8245 H   0  0  0  0  0  0  0  0  0  0  0  0  # atno 10718 bound_to 10713
  154.1115  135.6548  153.4886 H   0  0  0  0  0  0  0  0  0  0  0  0  # atno 10763 bound_to 10752
  153.0255  135.5248  154.7187 H   0  0  0  0  0  0  0  0  0  0  0  0  # atno 10764 bound_to 10752
  154.6369  135.2983  155.0120 H   0  0  0  0  0  0  0  0  0  0  0  0  # atno 10765 bound_to 10752
  140.7381  133.8693  155.8946 H   0  0  0  0  0  0  0  0  0  0  0  0  # atno 11005 bound_to 11000
  146.3092  139.7685  142.9033 LP  0  0  0  0  0  0  0  0  0  0  0  0  # atno 17320 bound_to 7965
  145.3668  141.0336  143.3254 LP  0  0  0  0  0  0  0  0  0  0  0  0  # atno 17321 bound_to 7965
  139.7372  144.7568  151.0708 LP  0  0  0  0  0  0  0  0  0  0  0  0  # atno 17342 bound_to 10162
  140.7775  143.5016  150.9765 LP  0  0  0  0  0  0  0  0  0  0  0  0  # atno 17343 bound_to 10162
  156.5661  130.8404  151.3343 LP  0  0  0  0  0  0  0  0  0  0  0  0  # atno 17370 bound_to 10713
  157.7340  130.9740  150.2009 LP  0  0  0  0  0  0  0  0  0  0  0  0  # atno 17371 bound_to 10713
  140.9861  134.1341  157.4451 LP  0  0  0  0  0  0  0  0  0  0  0  0  # atno 17394 bound_to 11000
  139.8812  135.0026  156.6135 LP  0  0  0  0  0  0  0  0  0  0  0  0  # atno 17395 bound_to 11000

$$$$
