AV-unprocessed.smi:602|AV-procd|sdf|3035|dock2
  -GOLD-   2262023553D 1   1.00000     0.00000
 Structure written by MMmdl.
 47 48  0  0  0  0  0  0  0  0  1 V2000
  148.0485  141.8342  154.2253 C   0  0  0  0  0  0  0  0  0  0  0  0
  148.8883  141.1221  155.2899 C   0  0  0  0  0  0  0  0  0  0  0  0
  149.0419  139.6192  155.0035 C   0  0  0  0  0  0  0  0  0  0  0  0
  149.4681  138.8732  156.1706 N   0  0  0  0  0  0  0  0  0  0  0  0
  148.6600  137.9428  156.8300 C   0  0  0  0  0  0  0  0  0  0  0  0
  147.3820  137.7246  156.3359 N   0  0  0  0  0  0  0  0  0  0  0  0
  149.1133  137.2345  157.9071 C   0  0  0  0  0  0  0  0  0  0  0  0
  148.2944  136.3061  158.5767 N   0  0  0  0  0  0  0  0  0  0  0  0
  147.8328  135.1444  157.7980 C   0  0  0  0  0  0  0  0  0  0  0  0
  148.4960  133.8317  158.2612 C   0  0  0  0  0  0  0  0  0  0  0  0
  149.8759  133.7674  157.9287 O   0  0  0  0  0  0  0  0  0  0  0  0
  150.1264  133.5751  156.5454 C   0  0  0  0  0  0  0  0  0  0  0  0
  148.0088  136.4235  159.9011 C   0  0  0  0  0  0  0  0  0  0  0  0
  148.4482  137.3502  160.5832 O   0  0  0  0  0  0  0  0  0  0  0  0
  147.1094  135.3626  160.5745 C   0  0  0  0  0  0  0  0  0  0  0  0
  146.0134  135.9483  161.4819 C   0  0  0  0  0  0  0  0  0  0  0  0
  146.3119  134.8360  162.4902 C   0  0  0  0  0  0  0  0  0  0  0  0
  147.6863  134.6834  161.8338 C   0  0  0  0  0  0  0  0  0  0  0  0
  150.4694  137.4536  158.4286 C   0  0  0  0  0  0  0  0  0  0  0  0
  150.9613  136.8942  159.4077 O   0  0  0  0  0  0  0  0  0  0  0  0
  151.2293  138.3761  157.7145 N   0  0  0  0  0  0  0  0  0  0  0  0
  150.8008  139.0863  156.5986 C   0  0  0  0  0  0  0  0  0  0  0  0
  151.5816  139.8557  156.0373 O   0  0  0  0  0  0  0  0  0  0  0  0
  152.1748  138.5377  158.0299 H   0  0  0  0  0  0  0  0  0  0  0  0
  147.9564  142.8971  154.4492 H   0  0  0  0  0  0  0  0  0  0  0  0
  147.0427  141.4162  154.1738 H   0  0  0  0  0  0  0  0  0  0  0  0
  148.5024  141.7397  153.2385 H   0  0  0  0  0  0  0  0  0  0  0  0
  149.8727  141.5887  155.3428 H   0  0  0  0  0  0  0  0  0  0  0  0
  148.4265  141.2683  156.2670 H   0  0  0  0  0  0  0  0  0  0  0  0
  148.1174  139.1743  154.6308 H   0  0  0  0  0  0  0  0  0  0  0  0
  149.7777  139.4334  154.2215 H   0  0  0  0  0  0  0  0  0  0  0  0
  147.0341  138.2166  155.5252 H   0  0  0  0  0  0  0  0  0  0  0  0
  146.7286  137.1117  156.8020 H   0  0  0  0  0  0  0  0  0  0  0  0
  146.7540  135.0388  157.9208 H   0  0  0  0  0  0  0  0  0  0  0  0
  147.9738  135.2984  156.7278 H   0  0  0  0  0  0  0  0  0  0  0  0
  148.4084  133.7436  159.3440 H   0  0  0  0  0  0  0  0  0  0  0  0
  147.9673  132.9709  157.8490 H   0  0  0  0  0  0  0  0  0  0  0  0
  151.2022  133.5412  156.3738 H   0  0  0  0  0  0  0  0  0  0  0  0
  149.7196  134.3851  155.9402 H   0  0  0  0  0  0  0  0  0  0  0  0
  149.7025  132.6326  156.1970 H   0  0  0  0  0  0  0  0  0  0  0  0
  146.7222  134.6146  159.8819 H   0  0  0  0  0  0  0  0  0  0  0  0
  146.2462  136.9437  161.8651 H   0  0  0  0  0  0  0  0  0  0  0  0
  145.0086  135.9076  161.0601 H   0  0  0  0  0  0  0  0  0  0  0  0
  146.3364  135.1586  163.5315 H   0  0  0  0  0  0  0  0  0  0  0  0
  145.6776  133.9593  162.3510 H   0  0  0  0  0  0  0  0  0  0  0  0
  147.9936  133.6476  161.6862 H   0  0  0  0  0  0  0  0  0  0  0  0
  148.4545  135.2544  162.3576 H   0  0  0  0  0  0  0  0  0  0  0  0
  1  2  1  0  0  0  0
  1 25  1  0  0  0  0
  1 26  1  0  0  0  0
  1 27  1  0  0  0  0
  2  3  1  0  0  0  0
  2 28  1  0  0  0  0
  2 29  1  0  0  0  0
  3  4  1  0  0  0  0
  3 30  1  0  0  0  0
  3 31  1  0  0  0  0
  4 22  1  0  0  0  0
  4  5  1  0  0  0  0
  5  6  1  0  0  0  0
  5  7  2  0  0  0  0
  6 32  1  0  0  0  0
  6 33  1  0  0  0  0
  7  8  1  0  0  0  0
  7 19  1  0  0  0  0
  8  9  1  0  0  0  0
  8 13  1  0  0  0  0
  9 10  1  0  0  0  0
  9 34  1  0  0  0  0
  9 35  1  0  0  0  0
 10 11  1  0  0  0  0
 10 36  1  0  0  0  0
 10 37  1  0  0  0  0
 11 12  1  0  0  0  0
 12 38  1  0  0  0  0
 12 39  1  0  0  0  0
 12 40  1  0  0  0  0
 13 14  2  0  0  0  0
 13 15  1  0  0  0  0
 15 18  1  0  0  0  0
 15 16  1  0  0  0  0
 15 41  1  0  0  0  0
 16 17  1  0  0  0  0
 16 42  1  0  0  0  0
 16 43  1  0  0  0  0
 17 18  1  0  0  0  0
 17 44  1  0  0  0  0
 17 45  1  0  0  0  0
 18 46  1  0  0  0  0
 18 47  1  0  0  0  0
 19 20  2  0  0  0  0
 19 21  1  0  0  0  0
 21 24  1  0  0  0  0
 21 22  1  0  0  0  0
 22 23  2  0  0  0  0
M  END
> <s_m_source_file>
AV-unprocessed.smi

> <i_m_source_file_index>
602

> <i_lp_mmshare_version>
43012

> <i_f3d_flags>
0

> <s_epik_input>
W0NIM11bQ0gyXVtDSDJdbjFjKFtOSDJdKWMoYyg9TylbbkhdYzE9TylOKFtDSDJdW0NIMl1PW0NIM10pQyg9TylbQ0hdMltDSDJdW0NIMl1bQ0gyXTI=

> <s_epik_cmdline>
J2VwaWtfcHl0aG9uJywgJy1waCcsICc3LjAnLCAnLXRuJywgJzgnLCAnLW1hJywgJzIwMCcsICctbWV0YWxfYmluZGluZycsICctaW1hZScsICc8aW5maWxlLm1hZT4nLCAnLW9tYWUnLCAnPG91dGZpbGUubWFlPic=

> <r_lp_tautomer_probability>
1

> <r_epik_Ionization_Penalty>
1.77098e-05

> <r_epik_Ionization_Penalty_Charging>
5.46221e-06

> <r_epik_Ionization_Penalty_Neutral>
1.22476e-05

> <r_epik_State_Penalty>
-0

> <r_epik_Charging_Adjusted_Penalty>
5.46221e-06

> <i_epik_Tot_Q>
0

> <i_epik_Tot_abs_Q>
0

> <r_epik_Metal_State_Penalty>
-0

> <b_epik_Metal_Only>
0

> <s_epik_Chemistry_Notes>
This compound has an imine and may undergo hydrolysis.

> <s_lp_Force_Field>
OPLS_2005

> <r_lp_Energy>
36.0285

> <b_lp_Chiralities_Consistent>
1

> <s_lp_Variant>
AV-unprocessed.smi:602-1

> <Gold.Version>
5.8.1

> <Gold.Id.Protein>
6NUR|6NUR_protein|mol2

> <Gold.PLP.Fitness>
36.6307

> <Gold.PLP.PLP>
-27.5998

> <Gold.PLP.part.hbond>
-3.9945

> <Gold.PLP.part.metal>
0.0000

> <Gold.PLP.part.buried>
-4.1335

> <Gold.PLP.part.nonpolar>
-19.6391

> <Gold.PLP.part.repulsive>
0.0310

> <Gold.PLP.ligand.clash>
0.0083

> <Gold.PLP.ligand.torsion>
1.6159

> <Gold.PLP.Chemscore.Hbond>
3.1170

> <Gold.PLP.Chemscore.CHOScore>
0.0000

> <Gold.PLP.Chemscore.Metal>
0.0000

> <Gold.Chemscore.Hbonds>
donor molecule, donor type, donor heavy atom, donor atom, acceptor molecule, acceptor atom, score
      P1  H  6896  6908       L1    11  0.99
      P1  H  6896  6909       L1    20  1.00
      P1  H  6931  6943       L1    14  0.69
      P1  H  6934  6947       L1    14  0.41

> <Gold.PLP.Chemscore.Internal.Correction>
2.9200

> <Gold.Rescore>
     Score         DG    S(hbond)    S(metal)    S(lipo)     H(rot)  DE(clash)    DE(int)     intcor
     14.63     -16.92       3.21        0.00      52.69       2.12       0.33       1.95       ----

> <Gold.Chemscore.Fitness>
14.6316

> <Gold.Chemscore.DG>
-16.9156

> <Gold.Chemscore.ZeroCoef>
-5.4800

> <Gold.Chemscore.Hbond>
3.2051

> <Gold.Chemscore.Metal>
0.0000

> <Gold.Chemscore.Lipo>
52.6865

> <Gold.Chemscore.Internal_Hbond>
0.0000

> <Gold.Chemscore.DEClash>
0.3335

> <Gold.Chemscore.DEInternal>
1.9506

> <Gold.Chemscore.Rot>
2.1226

> <Gold.Chemscore.Internal.Correction>
   9.000000E+99

> <Gold.Chemscore.Hbonds>
donor molecule, donor type, donor heavy atom, donor atom, acceptor molecule, acceptor atom, score
      P1  H  6896  6908       L1    11  0.85
      P1  H  6896  6909       L1    20  1.00
      P1  H  6931  6943       L1    14  0.70
      P1  H  6934  6947       L1    14  0.40

> <Gold.Chemscore.Hbond.Weighted>
-10.7051

> <Gold.Chemscore.Metal.Weighted>
-0.0000

> <Gold.Chemscore.Lipo.Weighted>
-6.1643

> <Gold.Chemscore.Internal_Hbond.Weighted>
0.0000

> <Gold.Chemscore.DEClash.Weighted>
0.3335

> <Gold.Chemscore.DEInternal.Weighted>
1.9506

> <Gold.Chemscore.Rot.Weighted>
5.4338

> <Gold.Chemscore.Internal.Correction.Weighted>
   9.000000E+99

> <Gold.Protein.RotatedTorsions>
[ 6907 6896 6895 6894 ] final  107.97 input  -60.11 | X-H torsion
[ 7974 7965 7964 7962 ] final  -41.37 input  175.53 | X-H torsion
[ 8008 7997 7996 7995 ] final -114.45 input   59.86 | X-H torsion
[ 10167 10162 10161 10158 ] final -130.65 input  -65.29 | X-H torsion
[ 10718 10713 10712 10709 ] final  112.60 input   66.30 | X-H torsion
[ 10763 10752 10751 10750 ] final  -43.97 input  -60.55 | X-H torsion
[ 11005 11000 10999 10996 ] final   65.45 input  -57.11 | X-H torsion

> <Gold.Protein.ActiveResidues>
 VAL166  LYS551  ARG553  GLY616  TRP617  ASP618  TYR619  PRO620  LYS621  CYS622 
 ASP623  PHE694  ASN695  SER759  ASP760  ASP761  ALA762  ILE779  LEU786  VAL792 
 PHE793  MET794  SER795  GLU796  ALA797  LYS798  CYS799  TRP800  GLU811  SER814 

> <Gold.Protein.RotatedAtoms>
  152.5132  133.9157  159.7509 H   0  0  0  0  0  0  0  0  0  0  0  0  # atno 6907 bound_to 6896
  150.9540  133.6509  159.2773 H   0  0  0  0  0  0  0  0  0  0  0  0  # atno 6908 bound_to 6896
  151.3777  135.0939  159.9539 H   0  0  0  0  0  0  0  0  0  0  0  0  # atno 6909 bound_to 6896
  146.0218  140.6841  142.9175 H   0  0  0  0  0  0  0  0  0  0  0  0  # atno 7974 bound_to 7965
  155.0366  140.0392  157.2494 H   0  0  0  0  0  0  0  0  0  0  0  0  # atno 8008 bound_to 7997
  154.7252  140.2719  155.6482 H   0  0  0  0  0  0  0  0  0  0  0  0  # atno 8009 bound_to 7997
  156.2827  140.2695  156.1935 H   0  0  0  0  0  0  0  0  0  0  0  0  # atno 8010 bound_to 7997
  139.9271  143.6315  152.2539 H   0  0  0  0  0  0  0  0  0  0  0  0  # atno 10167 bound_to 10162
  157.6384  131.0970  150.6918 H   0  0  0  0  0  0  0  0  0  0  0  0  # atno 10718 bound_to 10713
  154.0043  135.6689  153.4761 H   0  0  0  0  0  0  0  0  0  0  0  0  # atno 10763 bound_to 10752
  153.0648  135.5007  154.8172 H   0  0  0  0  0  0  0  0  0  0  0  0  # atno 10764 bound_to 10752
  154.7034  135.3083  154.9271 H   0  0  0  0  0  0  0  0  0  0  0  0  # atno 10765 bound_to 10752
  139.9894  134.6616  156.0118 H   0  0  0  0  0  0  0  0  0  0  0  0  # atno 11005 bound_to 11000
  144.6993  140.3579  143.7169 LP  0  0  0  0  0  0  0  0  0  0  0  0  # atno 17320 bound_to 7965
  145.7182  139.1702  143.2500 LP  0  0  0  0  0  0  0  0  0  0  0  0  # atno 17321 bound_to 7965
  139.6813  144.7655  151.1604 LP  0  0  0  0  0  0  0  0  0  0  0  0  # atno 17342 bound_to 10162
  140.7647  143.5721  150.8984 LP  0  0  0  0  0  0  0  0  0  0  0  0  # atno 17343 bound_to 10162
  156.7246  130.4691  149.5514 LP  0  0  0  0  0  0  0  0  0  0  0  0  # atno 17370 bound_to 10713
  156.1643  130.6394  151.0758 LP  0  0  0  0  0  0  0  0  0  0  0  0  # atno 17371 bound_to 10713
  141.1552  133.6543  156.4140 LP  0  0  0  0  0  0  0  0  0  0  0  0  # atno 17394 bound_to 11000
  140.4939  134.6550  157.5222 LP  0  0  0  0  0  0  0  0  0  0  0  0  # atno 17395 bound_to 11000

$$$$
