AV-unprocessed.smi:1692|AV-procd|sdf|6780|dock7
  -GOLD-   22720 7543D 1   1.00000     0.00000
 Structure written by MMmdl.
 46 47  0  0  0  0  0  0  0  0  2 V2000
  150.8895  134.8411  156.6815 C   0  0  0  0  0  0  0  0  0  0  0  0
  150.6561  136.2199  156.0544 C   0  0  2  0  0  0  0  0  0  0  0  0
  149.7844  136.1398  154.7845 C   0  0  0  0  0  0  0  0  0  0  0  0
  149.6381  137.4713  154.1473 N   0  3  1  0  0  0  0  0  0  0  0  0
  148.6630  138.3568  154.8382 C   0  0  0  0  0  0  0  0  0  0  0  0
  147.9066  139.2729  153.8616 C   0  0  0  0  0  0  0  0  0  0  0  0
  146.5773  138.6553  153.3966 C   0  0  0  0  0  0  0  0  0  0  0  0
  146.7835  137.3814  152.7170 N   0  0  0  0  0  0  0  0  0  0  0  0
  145.8238  136.4766  152.4745 C   0  0  0  0  0  0  0  0  0  0  0  0
  144.6466  136.6357  152.7995 O   0  0  0  0  0  0  0  0  0  0  0  0
  146.3184  135.3992  151.8400 N   0  0  0  0  0  0  0  0  0  0  0  0
  145.6231  134.2379  151.4087 C   0  0  0  0  0  0  0  0  0  0  0  0
  146.4371  133.2268  150.8500 C   0  0  0  0  0  0  0  0  0  0  0  0
  145.8446  132.0342  150.3917 C   0  0  0  0  0  0  0  0  0  0  0  0
  144.4511  131.8834  150.5036 C   0  0  0  0  0  0  0  0  0  0  0  0
  143.7134  132.9386  151.0713 C   0  0  0  0  0  0  0  0  0  0  0  0
  144.2793  134.0827  151.5111 N   0  0  0  0  0  0  0  0  0  0  0  0
  150.9731  138.0777  153.9083 C   0  0  0  0  0  0  0  0  0  0  0  0
  151.8309  138.0925  155.1921 C   0  0  2  0  0  0  0  0  0  0  0  0
  153.2528  138.5989  154.9267 C   0  0  0  0  0  0  0  0  0  0  0  0
  151.9233  136.7689  155.7087 O   0  0  0  0  0  0  0  0  0  0  0  0
  149.9467  134.3789  156.9758 H   0  0  0  0  0  0  0  0  0  0  0  0
  151.5129  134.9191  157.5726 H   0  0  0  0  0  0  0  0  0  0  0  0
  151.3892  134.1684  155.9838 H   0  0  0  0  0  0  0  0  0  0  0  0
  150.1779  136.8580  156.7992 H   0  0  0  0  0  0  0  0  0  0  0  0
  150.2528  135.4677  154.0638 H   0  0  0  0  0  0  0  0  0  0  0  0
  148.8061  135.7124  155.0077 H   0  0  0  0  0  0  0  0  0  0  0  0
  147.9263  137.7368  155.3507 H   0  0  0  0  0  0  0  0  0  0  0  0
  149.1542  138.9465  155.6121 H   0  0  0  0  0  0  0  0  0  0  0  0
  147.7060  140.2358  154.3300 H   0  0  0  0  0  0  0  0  0  0  0  0
  148.5347  139.4767  152.9933 H   0  0  0  0  0  0  0  0  0  0  0  0
  145.9278  138.4796  154.2546 H   0  0  0  0  0  0  0  0  0  0  0  0
  146.0439  139.3447  152.7398 H   0  0  0  0  0  0  0  0  0  0  0  0
  147.7245  137.1706  152.4178 H   0  0  0  0  0  0  0  0  0  0  0  0
  147.3082  135.4090  151.6432 H   0  0  0  0  0  0  0  0  0  0  0  0
  147.5065  133.3584  150.7719 H   0  0  0  0  0  0  0  0  0  0  0  0
  146.4497  131.2497  149.9622 H   0  0  0  0  0  0  0  0  0  0  0  0
  143.9605  130.9834  150.1636 H   0  0  0  0  0  0  0  0  0  0  0  0
  142.6413  132.8630  151.1752 H   0  0  0  0  0  0  0  0  0  0  0  0
  151.4776  137.4824  153.1459 H   0  0  0  0  0  0  0  0  0  0  0  0
  150.8827  139.0806  153.4936 H   0  0  0  0  0  0  0  0  0  0  0  0
  151.3773  138.7393  155.9441 H   0  0  0  0  0  0  0  0  0  0  0  0
  153.2403  139.6177  154.5386 H   0  0  0  0  0  0  0  0  0  0  0  0
  153.7677  137.9696  154.2001 H   0  0  0  0  0  0  0  0  0  0  0  0
  153.8436  138.6006  155.8430 H   0  0  0  0  0  0  0  0  0  0  0  0
  149.2345  137.2972  153.2379 H   0  0  0  0  0  0  0  0  0  0  0  0
  1  2  1  0  0  0  0
  1 22  1  0  0  0  0
  1 23  1  0  0  0  0
  1 24  1  0  0  0  0
  2 21  1  0  0  0  0
  2  3  1  0  0  0  0
  2 25  1  0  0  0  0
  3  4  1  0  0  0  0
  3 26  1  0  0  0  0
  3 27  1  0  0  0  0
  4  5  1  0  0  0  0
  4 18  1  0  0  0  0
  4 46  1  0  0  0  0
  5  6  1  0  0  0  0
  5 28  1  0  0  0  0
  5 29  1  0  0  0  0
  6  7  1  0  0  0  0
  6 30  1  0  0  0  0
  6 31  1  0  0  0  0
  7  8  1  0  0  0  0
  7 32  1  0  0  0  0
  7 33  1  0  0  0  0
  8  9  1  0  0  0  0
  8 34  1  0  0  0  0
  9 10  2  0  0  0  0
  9 11  1  0  0  0  0
 11 12  1  0  0  0  0
 11 35  1  0  0  0  0
 12 17  1  0  0  0  0
 12 13  2  0  0  0  0
 13 14  1  0  0  0  0
 13 36  1  0  0  0  0
 14 15  2  0  0  0  0
 14 37  1  0  0  0  0
 15 16  1  0  0  0  0
 15 38  1  0  0  0  0
 16 17  2  0  0  0  0
 16 39  1  0  0  0  0
 18 19  1  0  0  0  0
 18 40  1  0  0  0  0
 18 41  1  0  0  0  0
 19 20  1  0  0  0  0
 19 21  1  0  0  0  0
 19 42  1  0  0  0  0
 20 43  1  0  0  0  0
 20 44  1  0  0  0  0
 20 45  1  0  0  0  0
M  CHG  1   4   1
M  END
> <s_m_source_file>
AV-unprocessed.smi

> <i_m_source_file_index>
1692

> <i_lp_mmshare_version>
43012

> <i_f3d_flags>
0

> <s_epik_input>
W0NIM11bQ0BASF0xW0NIMl1OKFtDSDJdW0NASF0oTzEpW0NIM10pW0NIMl1bQ0gyXVtDSDJdW05IXUMoPU8pW05IXWMyW2NIXVtjSF1bY0hdW2NIXW4y

> <s_epik_cmdline>
J2VwaWtfcHl0aG9uJywgJy1waCcsICc3LjAnLCAnLXRuJywgJzgnLCAnLW1hJywgJzIwMCcsICctbWV0YWxfYmluZGluZycsICctaW1hZScsICc8aW5maWxlLm1hZT4nLCAnLW9tYWUnLCAnPG91dGZpbGUubWFlPic=

> <r_epik_Ionization_Penalty>
0.270538

> <r_epik_Ionization_Penalty_Charging>
0.270496

> <r_epik_Ionization_Penalty_Neutral>
4.22978e-05

> <r_epik_State_Penalty>
0.262618

> <r_epik_Charging_Adjusted_Penalty>
0.533114

> <i_epik_Tot_Q>
1

> <i_epik_Tot_abs_Q>
1

> <r_epik_Metal_State_Penalty>
0.262618

> <b_epik_Metal_Only>
0

> <s_lp_Force_Field>
OPLS_2005

> <r_lp_Energy>
18.3

> <b_lp_Chiralities_Consistent>
1

> <s_lp_Variant>
AV-unprocessed.smi:1692-3

> <Gold.Version>
5.8.1

> <Gold.Id.Protein>
6NUR|6NUR_protein|mol2

> <Gold.PLP.Fitness>
49.8946

> <Gold.PLP.PLP>
-33.2184

> <Gold.PLP.part.hbond>
-4.0000

> <Gold.PLP.part.metal>
0.0000

> <Gold.PLP.part.buried>
-3.0102

> <Gold.PLP.part.nonpolar>
-27.6789

> <Gold.PLP.part.repulsive>
0.4854

> <Gold.PLP.ligand.clash>
0.0000

> <Gold.PLP.ligand.torsion>
0.6936

> <Gold.PLP.Chemscore.Hbond>
5.0000

> <Gold.PLP.Chemscore.CHOScore>
1.0000

> <Gold.PLP.Chemscore.Metal>
0.0000

> <Gold.Chemscore.Hbonds>
donor molecule, donor type, donor heavy atom, donor atom, acceptor molecule, acceptor atom, score
      L1  H     4    46       P1  7948  2.00
      L1  H     8    34       P1  7948  1.00
      L1  H    11    35       P1  7948  1.00
      P1  H 10752 10765       L1    21  1.00
      L1  C    16    39       P1 10186  0.31

> <Gold.PLP.Chemscore.Internal.Correction>
0.0633

> <Gold.Rescore>
     Score         DG    S(hbond)    S(metal)    S(lipo)     H(rot)  DE(clash)    DE(int)     intcor
     21.66     -23.60       3.74        0.00      86.95       1.78       0.05       1.89       ----

> <Gold.Chemscore.Fitness>
21.6623

> <Gold.Chemscore.DG>
-23.5990

> <Gold.Chemscore.ZeroCoef>
-5.4800

> <Gold.Chemscore.Hbond>
3.7443

> <Gold.Chemscore.Metal>
0.0000

> <Gold.Chemscore.Lipo>
86.9511

> <Gold.Chemscore.Internal_Hbond>
0.0000

> <Gold.Chemscore.DEClash>
0.0463

> <Gold.Chemscore.DEInternal>
1.8904

> <Gold.Chemscore.Rot>
1.7814

> <Gold.Chemscore.Internal.Correction>
   9.000000E+99

> <Gold.Chemscore.Hbonds>
donor molecule, donor type, donor heavy atom, donor atom, acceptor molecule, acceptor atom, score
      L1  H     4    46       P1  7948  0.93
      L1  H     8    34       P1  7948  0.98
      L1  H    11    35       P1  7948  0.92
      P1  H 10752 10765       L1    21  0.82

> <Gold.Chemscore.Hbond.Weighted>
-12.5060

> <Gold.Chemscore.Metal.Weighted>
-0.0000

> <Gold.Chemscore.Lipo.Weighted>
-10.1733

> <Gold.Chemscore.Internal_Hbond.Weighted>
0.0000

> <Gold.Chemscore.DEClash.Weighted>
0.0463

> <Gold.Chemscore.DEInternal.Weighted>
1.8904

> <Gold.Chemscore.Rot.Weighted>
4.5603

> <Gold.Chemscore.Internal.Correction.Weighted>
   9.000000E+99

> <Gold.Protein.RotatedTorsions>
[ 6907 6896 6895 6894 ] final   95.57 input  -60.11 | X-H torsion
[ 7974 7965 7964 7962 ] final   32.53 input  175.53 | X-H torsion
[ 8008 7997 7996 7995 ] final -146.86 input   59.86 | X-H torsion
[ 10167 10162 10161 10158 ] final  -98.47 input  -65.29 | X-H torsion
[ 10718 10713 10712 10709 ] final  -68.08 input   66.30 | X-H torsion
[ 10763 10752 10751 10750 ] final -159.12 input  -60.55 | X-H torsion
[ 11005 11000 10999 10996 ] final  -55.80 input  -57.11 | X-H torsion

> <Gold.Protein.ActiveResidues>
 VAL166  LYS551  ARG553  GLY616  TRP617  ASP618  TYR619  PRO620  LYS621  CYS622 
 ASP623  PHE694  ASN695  SER759  ASP760  ASP761  ALA762  ILE779  LEU786  VAL792 
 PHE793  MET794  SER795  GLU796  ALA797  LYS798  CYS799  TRP800  GLU811  SER814 

> <Gold.Protein.RotatedAtoms>
  152.5442  134.1020  159.8321 H   0  0  0  0  0  0  0  0  0  0  0  0  # atno 6907 bound_to 6896
  151.1097  133.5175  159.2613 H   0  0  0  0  0  0  0  0  0  0  0  0  # atno 6908 bound_to 6896
  151.1898  135.0407  159.8882 H   0  0  0  0  0  0  0  0  0  0  0  0  # atno 6909 bound_to 6896
  146.1480  139.6513  142.9118 H   0  0  0  0  0  0  0  0  0  0  0  0  # atno 7974 bound_to 7965
  155.5662  140.0630  157.2817 H   0  0  0  0  0  0  0  0  0  0  0  0  # atno 8008 bound_to 7997
  154.4375  140.1877  156.0878 H   0  0  0  0  0  0  0  0  0  0  0  0  # atno 8009 bound_to 7997
  156.0410  140.3295  155.7248 H   0  0  0  0  0  0  0  0  0  0  0  0  # atno 8010 bound_to 7997
  140.2726  143.3334  152.0519 H   0  0  0  0  0  0  0  0  0  0  0  0  # atno 10167 bound_to 10162
  156.0524  130.4288  150.1948 H   0  0  0  0  0  0  0  0  0  0  0  0  # atno 10718 bound_to 10713
  154.7501  135.3090  154.8573 H   0  0  0  0  0  0  0  0  0  0  0  0  # atno 10763 bound_to 10752
  153.9363  135.6779  153.4749 H   0  0  0  0  0  0  0  0  0  0  0  0  # atno 10764 bound_to 10752
  153.1097  135.4872  154.8941 H   0  0  0  0  0  0  0  0  0  0  0  0  # atno 10765 bound_to 10752
  141.1091  133.6611  156.4524 H   0  0  0  0  0  0  0  0  0  0  0  0  # atno 11005 bound_to 11000
  145.4891  141.0438  143.2603 LP  0  0  0  0  0  0  0  0  0  0  0  0  # atno 17320 bound_to 7965
  144.7869  139.6408  143.7130 LP  0  0  0  0  0  0  0  0  0  0  0  0  # atno 17321 bound_to 7965
  139.4984  144.6646  151.6386 LP  0  0  0  0  0  0  0  0  0  0  0  0  # atno 17342 bound_to 10162
  140.5877  143.9835  150.6305 LP  0  0  0  0  0  0  0  0  0  0  0  0  # atno 17343 bound_to 10162
  157.0029  130.9928  151.3386 LP  0  0  0  0  0  0  0  0  0  0  0  0  # atno 17370 bound_to 10713
  157.5463  130.8152  149.8089 LP  0  0  0  0  0  0  0  0  0  0  0  0  # atno 17371 bound_to 10713
  140.4824  134.6652  157.5177 LP  0  0  0  0  0  0  0  0  0  0  0  0  # atno 17394 bound_to 11000
  139.9975  134.6888  155.9585 LP  0  0  0  0  0  0  0  0  0  0  0  0  # atno 17395 bound_to 11000

$$$$
