AV-unprocessed.smi:1619|AV-procd|sdf|6488|dock8
  -GOLD-   22720 7153D 1   1.00000     0.00000
 Structure written by MMmdl.
 44 46  0  0  0  0  0  0  0  0  2 V2000
  152.2918  143.4777  160.7551 C   0  0  0  0  0  0  0  0  0  0  0  0
  152.1559  142.4889  159.6106 C   0  0  0  0  0  0  0  0  0  0  0  0
  151.3053  142.8046  158.5275 C   0  0  0  0  0  0  0  0  0  0  0  0
  151.1496  141.9118  157.4449 C   0  0  0  0  0  0  0  0  0  0  0  0
  150.3819  142.0156  156.2978 N   0  0  0  0  0  0  0  0  0  0  0  0
  150.6578  140.8684  155.6852 C   0  0  0  0  0  0  0  0  0  0  0  0
  151.5259  140.0372  156.2941 N   0  0  0  0  0  0  0  0  0  0  0  0
  151.9799  138.7436  155.8169 C   0  0  0  0  0  0  0  0  0  0  0  0
  151.1202  138.1998  154.6584 C   0  0  1  0  0  0  0  0  0  0  0  0
  151.7677  137.0559  154.1399 O   0  0  0  0  0  0  0  0  0  0  0  0
  149.6858  137.8125  155.0802 C   0  0  0  0  0  0  0  0  0  0  0  0
  148.6929  138.1026  154.0192 N   0  3  0  0  0  0  0  0  0  0  0  0
  147.3137  137.6958  154.3533 C   0  0  0  0  0  0  0  0  0  0  0  0
  146.4255  138.5444  153.4501 C   0  0  0  0  0  0  0  0  0  0  0  0
  147.1601  139.8808  153.4113 C   0  0  0  0  0  0  0  0  0  0  0  0
  148.6426  139.5139  153.5643 C   0  0  0  0  0  0  0  0  0  0  0  0
  151.8744  140.6844  157.4751 C   0  0  0  0  0  0  0  0  0  0  0  0
  152.7225  140.3582  158.5482 C   0  0  0  0  0  0  0  0  0  0  0  0
  152.8677  141.2625  159.6211 C   0  0  0  0  0  0  0  0  0  0  0  0
  153.7878  140.9024  160.7744 C   0  0  0  0  0  0  0  0  0  0  0  0
  151.6656  144.3565  160.5990 H   0  0  0  0  0  0  0  0  0  0  0  0
  153.3242  143.8151  160.8476 H   0  0  0  0  0  0  0  0  0  0  0  0
  151.9919  143.0171  161.6965 H   0  0  0  0  0  0  0  0  0  0  0  0
  150.7623  143.7384  158.5200 H   0  0  0  0  0  0  0  0  0  0  0  0
  150.2083  140.6214  154.7343 H   0  0  0  0  0  0  0  0  0  0  0  0
  153.0203  138.8433  155.5042 H   0  0  0  0  0  0  0  0  0  0  0  0
  151.9711  138.0442  156.6546 H   0  0  0  0  0  0  0  0  0  0  0  0
  151.0845  138.9504  153.8688 H   0  0  0  0  0  0  0  0  0  0  0  0
  151.2830  136.7490  153.3881 H   0  0  0  0  0  0  0  0  0  0  0  0
  149.6550  136.7484  155.3199 H   0  0  0  0  0  0  0  0  0  0  0  0
  149.3860  138.3418  155.9857 H   0  0  0  0  0  0  0  0  0  0  0  0
  147.1619  136.6260  154.2075 H   0  0  0  0  0  0  0  0  0  0  0  0
  147.1026  137.9289  155.3985 H   0  0  0  0  0  0  0  0  0  0  0  0
  146.3895  138.1103  152.4499 H   0  0  0  0  0  0  0  0  0  0  0  0
  145.4027  138.6311  153.8187 H   0  0  0  0  0  0  0  0  0  0  0  0
  146.9574  140.4442  152.4998 H   0  0  0  0  0  0  0  0  0  0  0  0
  146.8454  140.4947  154.2565 H   0  0  0  0  0  0  0  0  0  0  0  0
  149.1300  140.1902  154.2688 H   0  0  0  0  0  0  0  0  0  0  0  0
  149.1687  139.5943  152.6124 H   0  0  0  0  0  0  0  0  0  0  0  0
  153.2560  139.4193  158.5475 H   0  0  0  0  0  0  0  0  0  0  0  0
  154.2856  139.9474  160.6036 H   0  0  0  0  0  0  0  0  0  0  0  0
  153.2226  140.8241  161.7035 H   0  0  0  0  0  0  0  0  0  0  0  0
  154.5593  141.6622  160.9012 H   0  0  0  0  0  0  0  0  0  0  0  0
  148.9554  137.5537  153.2125 H   0  0  0  0  0  0  0  0  0  0  0  0
  1  2  1  0  0  0  0
  1 21  1  0  0  0  0
  1 22  1  0  0  0  0
  1 23  1  0  0  0  0
  2 19  1  0  0  0  0
  2  3  2  0  0  0  0
  3  4  1  0  0  0  0
  3 24  1  0  0  0  0
  4 17  2  0  0  0  0
  4  5  1  0  0  0  0
  5  6  2  0  0  0  0
  6  7  1  0  0  0  0
  6 25  1  0  0  0  0
  7  8  1  0  0  0  0
  7 17  1  0  0  0  0
  8  9  1  0  0  0  0
  8 26  1  0  0  0  0
  8 27  1  0  0  0  0
  9 10  1  0  0  0  0
  9 11  1  0  0  0  0
  9 28  1  0  0  0  0
 10 29  1  0  0  0  0
 11 12  1  0  0  0  0
 11 30  1  0  0  0  0
 11 31  1  0  0  0  0
 12 16  1  0  0  0  0
 12 13  1  0  0  0  0
 12 44  1  0  0  0  0
 13 14  1  0  0  0  0
 13 32  1  0  0  0  0
 13 33  1  0  0  0  0
 14 15  1  0  0  0  0
 14 34  1  0  0  0  0
 14 35  1  0  0  0  0
 15 16  1  0  0  0  0
 15 36  1  0  0  0  0
 15 37  1  0  0  0  0
 16 38  1  0  0  0  0
 16 39  1  0  0  0  0
 17 18  1  0  0  0  0
 18 19  2  0  0  0  0
 18 40  1  0  0  0  0
 19 20  1  0  0  0  0
 20 41  1  0  0  0  0
 20 42  1  0  0  0  0
 20 43  1  0  0  0  0
M  CHG  1  12   1
M  END
> <s_m_source_file>
AV-unprocessed.smi

> <i_m_source_file_index>
1619

> <i_lp_mmshare_version>
43012

> <i_f3d_flags>
0

> <s_epik_input>
W0NIM11jKFtjSF0xKWMoW0NIM10pW2NIXWMoYzEyKW4oW2NIXW4yKVtDSDJdW0NASF0oW09IXSlbQ0gyXU4zW0NIMl1bQ0gyXVtDSDJdW0NIMl0z

> <s_epik_cmdline>
J2VwaWtfcHl0aG9uJywgJy1waCcsICc3LjAnLCAnLXRuJywgJzgnLCAnLW1hJywgJzIwMCcsICctbWV0YWxfYmluZGluZycsICctaW1hZScsICc8aW5maWxlLm1hZT4nLCAnLW9tYWUnLCAnPG91dGZpbGUubWFlPic=

> <r_epik_Ionization_Penalty>
0.0947557

> <r_epik_Ionization_Penalty_Charging>
0.00674132

> <r_epik_Ionization_Penalty_Neutral>
0.0880144

> <r_epik_State_Penalty>
0.0806172

> <r_epik_Charging_Adjusted_Penalty>
0.0873585

> <i_epik_Tot_Q>
1

> <i_epik_Tot_abs_Q>
1

> <r_epik_Metal_State_Penalty>
8.03852e-05

> <b_epik_Metal_Only>
0

> <s_lp_Force_Field>
OPLS_2005

> <r_lp_Energy>
32.1533

> <b_lp_Chiralities_Consistent>
1

> <s_lp_Variant>
AV-unprocessed.smi:1619-2

> <Gold.Version>
5.8.1

> <Gold.Id.Protein>
6NUR|6NUR_protein|mol2

> <Gold.PLP.Fitness>
50.2313

> <Gold.PLP.PLP>
-39.5904

> <Gold.PLP.part.hbond>
-3.0000

> <Gold.PLP.part.metal>
0.0000

> <Gold.PLP.part.buried>
-1.8160

> <Gold.PLP.part.nonpolar>
-35.0840

> <Gold.PLP.part.repulsive>
0.1155

> <Gold.PLP.ligand.clash>
0.0000

> <Gold.PLP.ligand.torsion>
0.6916

> <Gold.PLP.Chemscore.Hbond>
4.0000

> <Gold.PLP.Chemscore.CHOScore>
0.0000

> <Gold.PLP.Chemscore.Metal>
0.0000

> <Gold.Chemscore.Hbonds>
donor molecule, donor type, donor heavy atom, donor atom, acceptor molecule, acceptor atom, score
      L1  H    10    29       P1  7949  0.96
      L1  H    12    44       P1  7948  2.00
      P1  H 10752 10765       L1    10  1.00

> <Gold.PLP.Chemscore.Internal.Correction>
0.0241

> <Gold.Rescore>
     Score         DG    S(hbond)    S(metal)    S(lipo)     H(rot)  DE(clash)    DE(int)     intcor
     19.23     -21.73       2.47        0.00     112.75       2.02       1.83       0.67       ----

> <Gold.Chemscore.Fitness>
19.2294

> <Gold.Chemscore.DG>
-21.7293

> <Gold.Chemscore.ZeroCoef>
-5.4800

> <Gold.Chemscore.Hbond>
2.4659

> <Gold.Chemscore.Metal>
0.0000

> <Gold.Chemscore.Lipo>
112.7454

> <Gold.Chemscore.Internal_Hbond>
0.0000

> <Gold.Chemscore.DEClash>
1.8307

> <Gold.Chemscore.DEInternal>
0.6692

> <Gold.Chemscore.Rot>
2.0227

> <Gold.Chemscore.Internal.Correction>
   9.000000E+99

> <Gold.Chemscore.Hbonds>
donor molecule, donor type, donor heavy atom, donor atom, acceptor molecule, acceptor atom, score
      L1  H    10    29       P1  7949  0.57
      L1  H    12    44       P1  7948  1.00
      P1  H 10752 10765       L1    10  0.25

> <Gold.Chemscore.Hbond.Weighted>
-8.2360

> <Gold.Chemscore.Metal.Weighted>
-0.0000

> <Gold.Chemscore.Lipo.Weighted>
-13.1912

> <Gold.Chemscore.Internal_Hbond.Weighted>
0.0000

> <Gold.Chemscore.DEClash.Weighted>
1.8307

> <Gold.Chemscore.DEInternal.Weighted>
0.6692

> <Gold.Chemscore.Rot.Weighted>
5.1780

> <Gold.Chemscore.Internal.Correction.Weighted>
   9.000000E+99

> <Gold.Protein.RotatedTorsions>
[ 6907 6896 6895 6894 ] final -140.74 input  -60.11 | X-H torsion
[ 7974 7965 7964 7962 ] final    4.55 input  175.53 | X-H torsion
[ 8008 7997 7996 7995 ] final   15.12 input   59.86 | X-H torsion
[ 10167 10162 10161 10158 ] final   98.96 input  -65.29 | X-H torsion
[ 10718 10713 10712 10709 ] final  142.78 input   66.30 | X-H torsion
[ 10763 10752 10751 10750 ] final  165.89 input  -60.55 | X-H torsion
[ 11005 11000 10999 10996 ] final  111.72 input  -57.11 | X-H torsion

> <Gold.Protein.ActiveResidues>
 VAL166  LYS551  ARG553  GLY616  TRP617  ASP618  TYR619  PRO620  LYS621  CYS622 
 ASP623  PHE694  ASN695  SER759  ASP760  ASP761  ALA762  ILE779  LEU786  VAL792 
 PHE793  MET794  SER795  GLU796  ALA797  LYS798  CYS799  TRP800  GLU811  SER814 

> <Gold.Protein.RotatedAtoms>
  151.0646  133.5516  159.2631 H   0  0  0  0  0  0  0  0  0  0  0  0  # atno 6907 bound_to 6896
  151.2478  135.0611  159.9060 H   0  0  0  0  0  0  0  0  0  0  0  0  # atno 6908 bound_to 6896
  152.5403  134.0411  159.8121 H   0  0  0  0  0  0  0  0  0  0  0  0  # atno 6909 bound_to 6896
  146.2443  140.0517  142.8374 H   0  0  0  0  0  0  0  0  0  0  0  0  # atno 7974 bound_to 7965
  154.8581  140.2940  155.5556 H   0  0  0  0  0  0  0  0  0  0  0  0  # atno 8008 bound_to 7997
  156.3019  140.2483  156.3483 H   0  0  0  0  0  0  0  0  0  0  0  0  # atno 8009 bound_to 7997
  154.8948  140.0393  157.1849 H   0  0  0  0  0  0  0  0  0  0  0  0  # atno 8010 bound_to 7997
  139.7661  144.6938  151.0223 H   0  0  0  0  0  0  0  0  0  0  0  0  # atno 10167 bound_to 10162
  157.3766  131.0986  151.0778 H   0  0  0  0  0  0  0  0  0  0  0  0  # atno 10718 bound_to 10713
  154.3308  135.2755  155.2473 H   0  0  0  0  0  0  0  0  0  0  0  0  # atno 10763 bound_to 10752
  154.4785  135.5864  153.6376 H   0  0  0  0  0  0  0  0  0  0  0  0  # atno 10764 bound_to 10752
  152.9867  135.6105  154.3500 H   0  0  0  0  0  0  0  0  0  0  0  0  # atno 10765 bound_to 10752
  139.8910  134.9514  156.6475 H   0  0  0  0  0  0  0  0  0  0  0  0  # atno 11005 bound_to 11000
  145.0978  140.9326  143.4730 LP  0  0  0  0  0  0  0  0  0  0  0  0  # atno 17320 bound_to 7965
  145.0703  139.3036  143.5835 LP  0  0  0  0  0  0  0  0  0  0  0  0  # atno 17321 bound_to 7965
  140.7811  143.4641  151.0236 LP  0  0  0  0  0  0  0  0  0  0  0  0  # atno 17342 bound_to 10162
  139.8326  143.7670  152.3180 LP  0  0  0  0  0  0  0  0  0  0  0  0  # atno 17343 bound_to 10162
  157.1863  130.6332  149.5689 LP  0  0  0  0  0  0  0  0  0  0  0  0  # atno 17370 bound_to 10713
  155.9766  130.4737  150.6542 LP  0  0  0  0  0  0  0  0  0  0  0  0  # atno 17371 bound_to 10713
  140.7546  133.8868  155.8372 LP  0  0  0  0  0  0  0  0  0  0  0  0  # atno 17394 bound_to 11000
  140.9972  134.1199  157.4352 LP  0  0  0  0  0  0  0  0  0  0  0  0  # atno 17395 bound_to 11000

$$$$
