AV-unprocessed.smi:1560|AV-procd|sdf|6280|dock9
  -GOLD-   22720 6473D 1   1.00000     0.00000
 Structure written by MMmdl.
 46 47  0  0  0  0  0  0  0  0  2 V2000
  150.6203  135.4718  156.4539 C   0  0  0  0  0  0  0  0  0  0  0  0
  150.8978  133.9875  156.1543 C   0  0  0  0  0  0  0  0  0  0  0  0
  149.7648  133.2237  155.3962 C   0  0  2  0  0  0  0  0  0  0  0  0
  149.4992  134.0234  154.0920 C   0  0  0  0  0  0  0  0  0  0  0  0
  148.4622  133.2596  156.2614 C   0  0  0  0  0  0  0  0  0  0  0  0
  148.7148  133.3582  157.6982 N   0  0  0  0  0  0  0  0  0  0  0  0
  147.7903  133.2645  158.6656 C   0  0  0  0  0  0  0  0  0  0  0  0
  146.5844  133.1475  158.4456 O   0  0  0  0  0  0  0  0  0  0  0  0
  148.3102  133.3123  160.1062 C   0  0  0  0  0  0  0  0  0  0  0  0
  147.7955  134.4857  160.8285 N   0  0  0  0  0  0  0  0  0  0  0  0
  146.9051  134.2627  161.8935 C   0  0  0  0  0  0  0  0  0  0  0  0
  146.3976  135.2777  162.6187 C   0  0  0  0  0  0  0  0  0  0  0  0
  146.7942  136.6378  162.2751 C   0  0  0  0  0  0  0  0  0  0  0  0
  146.3390  137.5771  162.9248 O   0  0  0  0  0  0  0  0  0  0  0  0
  147.6630  136.8022  161.2350 N   0  5  0  0  0  0  0  0  0  0  0  0
  148.1733  135.7606  160.5079 C   0  0  0  0  0  0  0  0  0  0  0  0
  148.9605  135.9312  159.5759 O   0  0  0  0  0  0  0  0  0  0  0  0
  150.1844  131.8291  155.0782 N   0  0  0  0  0  0  0  0  0  0  0  0
  149.1794  131.0143  154.3854 C   0  0  0  0  0  0  0  0  0  0  0  0
  149.7380  129.6436  153.9659 C   0  0  0  0  0  0  0  0  0  0  0  0
  150.2397  128.9586  155.1073 O   0  0  0  0  0  0  0  0  0  0  0  0
  151.2584  129.6924  155.7766 C   0  0  0  0  0  0  0  0  0  0  0  0
  150.7072  131.0598  156.2141 C   0  0  0  0  0  0  0  0  0  0  0  0
  151.4662  135.9165  156.9785 H   0  0  0  0  0  0  0  0  0  0  0  0
  149.7442  135.5986  157.0891 H   0  0  0  0  0  0  0  0  0  0  0  0
  150.4633  136.0498  155.5436 H   0  0  0  0  0  0  0  0  0  0  0  0
  151.8379  133.9074  155.6083 H   0  0  0  0  0  0  0  0  0  0  0  0
  151.0982  133.5040  157.1105 H   0  0  0  0  0  0  0  0  0  0  0  0
  149.4232  135.0958  154.2772 H   0  0  0  0  0  0  0  0  0  0  0  0
  148.5650  133.7278  153.6144 H   0  0  0  0  0  0  0  0  0  0  0  0
  150.2967  133.8810  153.3623 H   0  0  0  0  0  0  0  0  0  0  0  0
  147.8578  134.1289  156.0061 H   0  0  0  0  0  0  0  0  0  0  0  0
  147.8330  132.3931  156.0575 H   0  0  0  0  0  0  0  0  0  0  0  0
  149.6796  133.4485  157.9818 H   0  0  0  0  0  0  0  0  0  0  0  0
  148.0486  132.3953  160.6383 H   0  0  0  0  0  0  0  0  0  0  0  0
  149.4005  133.3260  160.0762 H   0  0  0  0  0  0  0  0  0  0  0  0
  146.6693  133.2266  162.0872 H   0  0  0  0  0  0  0  0  0  0  0  0
  145.7175  135.0894  163.4364 H   0  0  0  0  0  0  0  0  0  0  0  0
  148.3130  130.8544  155.0270 H   0  0  0  0  0  0  0  0  0  0  0  0
  148.8215  131.5163  153.4884 H   0  0  0  0  0  0  0  0  0  0  0  0
  148.9549  129.0408  153.5056 H   0  0  0  0  0  0  0  0  0  0  0  0
  150.5301  129.7601  153.2246 H   0  0  0  0  0  0  0  0  0  0  0  0
  151.5949  129.1245  156.6440 H   0  0  0  0  0  0  0  0  0  0  0  0
  152.1210  129.8159  155.1197 H   0  0  0  0  0  0  0  0  0  0  0  0
  151.5099  131.5972  156.7152 H   0  0  0  0  0  0  0  0  0  0  0  0
  149.9245  130.8987  156.9549 H   0  0  0  0  0  0  0  0  0  0  0  0
  1  2  1  0  0  0  0
  1 24  1  0  0  0  0
  1 25  1  0  0  0  0
  1 26  1  0  0  0  0
  2  3  1  0  0  0  0
  2 27  1  0  0  0  0
  2 28  1  0  0  0  0
  3  4  1  0  0  0  0
  3  5  1  0  0  0  0
  3 18  1  0  0  0  0
  4 29  1  0  0  0  0
  4 30  1  0  0  0  0
  4 31  1  0  0  0  0
  5  6  1  0  0  0  0
  5 32  1  0  0  0  0
  5 33  1  0  0  0  0
  6  7  1  0  0  0  0
  6 34  1  0  0  0  0
  7  8  2  0  0  0  0
  7  9  1  0  0  0  0
  9 10  1  0  0  0  0
  9 35  1  0  0  0  0
  9 36  1  0  0  0  0
 10 16  1  0  0  0  0
 10 11  1  0  0  0  0
 11 12  2  0  0  0  0
 11 37  1  0  0  0  0
 12 13  1  0  0  0  0
 12 38  1  0  0  0  0
 13 14  2  0  0  0  0
 13 15  1  0  0  0  0
 15 16  1  0  0  0  0
 16 17  2  0  0  0  0
 18 23  1  0  0  0  0
 18 19  1  0  0  0  0
 19 20  1  0  0  0  0
 19 39  1  0  0  0  0
 19 40  1  0  0  0  0
 20 21  1  0  0  0  0
 20 41  1  0  0  0  0
 20 42  1  0  0  0  0
 21 22  1  0  0  0  0
 22 23  1  0  0  0  0
 22 43  1  0  0  0  0
 22 44  1  0  0  0  0
 23 45  1  0  0  0  0
 23 46  1  0  0  0  0
M  CHG  1  15  -1
M  END
> <s_m_source_file>
AV-unprocessed.smi

> <i_m_source_file_index>
1560

> <i_lp_mmshare_version>
43012

> <i_f3d_flags>
0

> <s_epik_input>
W0NIMl0xW0NIMl1PW0NIMl1bQ0gyXU4xW0NAQF0oW0NIM10pKFtDSDJdW0NIM10pW0NIMl1bTkhdQyg9TylbQ0gyXW4yW2NIXVtjSF1jKD1PKVtuSF1jMj1P

> <s_epik_cmdline>
J2VwaWtfcHl0aG9uJywgJy1waCcsICc3LjAnLCAnLXRuJywgJzgnLCAnLW1hJywgJzIwMCcsICctbWV0YWxfYmluZGluZycsICctaW1hZScsICc8aW5maWxlLm1hZT4nLCAnLW9tYWUnLCAnPG91dGZpbGUubWFlPic=

> <r_lp_tautomer_probability>
0.999537

> <r_epik_Ionization_Penalty>
3.35108

> <r_epik_Ionization_Penalty_Charging>
2.65778e-08

> <r_epik_Ionization_Penalty_Neutral>
3.35108

> <r_epik_State_Penalty>
3.36199

> <r_epik_Charging_Adjusted_Penalty>
3.36199

> <i_epik_Tot_Q>
-1

> <i_epik_Tot_abs_Q>
1

> <r_epik_Metal_State_Penalty>
0.748914

> <b_epik_Metal_Only>
1

> <s_lp_Force_Field>
OPLS_2005

> <r_lp_Energy>
50.983

> <b_lp_Chiralities_Consistent>
1

> <s_lp_Variant>
AV-unprocessed.smi:1560-6

> <Gold.Version>
5.8.1

> <Gold.Id.Protein>
6NUR|6NUR_protein|mol2

> <Gold.PLP.Fitness>
40.4898

> <Gold.PLP.PLP>
-32.5785

> <Gold.PLP.part.hbond>
-4.1012

> <Gold.PLP.part.metal>
0.0000

> <Gold.PLP.part.buried>
-4.5631

> <Gold.PLP.part.nonpolar>
-24.7084

> <Gold.PLP.part.repulsive>
0.1128

> <Gold.PLP.ligand.clash>
0.1133

> <Gold.PLP.ligand.torsion>
0.8836

> <Gold.PLP.Chemscore.Hbond>
3.2211

> <Gold.PLP.Chemscore.CHOScore>
0.0000

> <Gold.PLP.Chemscore.Metal>
0.0000

> <Gold.Chemscore.Hbonds>
donor molecule, donor type, donor heavy atom, donor atom, acceptor molecule, acceptor atom, score
      P1  H  6896  6907       L1    17  0.71
      P1  H  6931  6943       L1    15  1.62
      P1  H  6934  6947       L1    15  0.49

> <Gold.PLP.Chemscore.Internal.Correction>
0.1285

> <Gold.Rescore>
     Score         DG    S(hbond)    S(metal)    S(lipo)     H(rot)  DE(clash)    DE(int)     intcor
     10.74     -12.31       1.70        0.00      62.72       2.42       0.06       1.52       ----

> <Gold.Chemscore.Fitness>
10.7398

> <Gold.Chemscore.DG>
-12.3121

> <Gold.Chemscore.ZeroCoef>
-5.4800

> <Gold.Chemscore.Hbond>
1.7030

> <Gold.Chemscore.Metal>
0.0000

> <Gold.Chemscore.Lipo>
62.7224

> <Gold.Chemscore.Internal_Hbond>
0.0000

> <Gold.Chemscore.DEClash>
0.0565

> <Gold.Chemscore.DEInternal>
1.5157

> <Gold.Chemscore.Rot>
2.4197

> <Gold.Chemscore.Internal.Correction>
   9.000000E+99

> <Gold.Chemscore.Hbonds>
donor molecule, donor type, donor heavy atom, donor atom, acceptor molecule, acceptor atom, score
      P1  H  6896  6907       L1    17  0.64
      P1  H  6931  6943       L1    15  0.37
      P1  H  6934  6947       L1    15  0.03

> <Gold.Chemscore.Hbond.Weighted>
-5.6879

> <Gold.Chemscore.Metal.Weighted>
-0.0000

> <Gold.Chemscore.Lipo.Weighted>
-7.3385

> <Gold.Chemscore.Internal_Hbond.Weighted>
0.0000

> <Gold.Chemscore.DEClash.Weighted>
0.0565

> <Gold.Chemscore.DEInternal.Weighted>
1.5157

> <Gold.Chemscore.Rot.Weighted>
6.1943

> <Gold.Chemscore.Internal.Correction.Weighted>
   9.000000E+99

> <Gold.Protein.RotatedTorsions>
[ 6907 6896 6895 6894 ] final  -60.01 input  -60.11 | X-H torsion
[ 7974 7965 7964 7962 ] final   44.43 input  175.53 | X-H torsion
[ 8008 7997 7996 7995 ] final -171.76 input   59.86 | X-H torsion
[ 10167 10162 10161 10158 ] final  115.98 input  -65.29 | X-H torsion
[ 10718 10713 10712 10709 ] final   39.03 input   66.30 | X-H torsion
[ 10763 10752 10751 10750 ] final   56.46 input  -60.55 | X-H torsion
[ 11005 11000 10999 10996 ] final  -91.08 input  -57.11 | X-H torsion

> <Gold.Protein.ActiveResidues>
 VAL166  LYS551  ARG553  GLY616  TRP617  ASP618  TYR619  PRO620  LYS621  CYS622 
 ASP623  PHE694  ASN695  SER759  ASP760  ASP761  ALA762  ILE779  LEU786  VAL792 
 PHE793  MET794  SER795  GLU796  ALA797  LYS798  CYS799  TRP800  GLU811  SER814 

> <Gold.Protein.RotatedAtoms>
  150.7888  134.6894  159.6487 H   0  0  0  0  0  0  0  0  0  0  0  0  # atno 6907 bound_to 6896
  152.3989  134.6316  160.0087 H   0  0  0  0  0  0  0  0  0  0  0  0  # atno 6908 bound_to 6896
  151.6593  133.3281  159.3206 H   0  0  0  0  0  0  0  0  0  0  0  0  # atno 6909 bound_to 6896
  146.0569  139.5076  142.9683 H   0  0  0  0  0  0  0  0  0  0  0  0  # atno 7974 bound_to 7965
  155.9358  140.1099  157.1095 H   0  0  0  0  0  0  0  0  0  0  0  0  # atno 8008 bound_to 7997
  154.4079  140.1228  156.4928 H   0  0  0  0  0  0  0  0  0  0  0  0  # atno 8009 bound_to 7997
  155.7023  140.3472  155.4940 H   0  0  0  0  0  0  0  0  0  0  0  0  # atno 8010 bound_to 7997
  139.6279  144.7111  151.2495 H   0  0  0  0  0  0  0  0  0  0  0  0  # atno 10167 bound_to 10162
  157.3658  130.7674  149.7082 H   0  0  0  0  0  0  0  0  0  0  0  0  # atno 10718 bound_to 10713
  152.9832  135.5675  154.5233 H   0  0  0  0  0  0  0  0  0  0  0  0  # atno 10763 bound_to 10752
  154.4717  135.2785  155.1640 H   0  0  0  0  0  0  0  0  0  0  0  0  # atno 10764 bound_to 10752
  154.3185  135.6274  153.5550 H   0  0  0  0  0  0  0  0  0  0  0  0  # atno 10765 bound_to 10752
  141.1552  133.7733  156.9829 H   0  0  0  0  0  0  0  0  0  0  0  0  # atno 11005 bound_to 11000
  145.6627  141.0236  143.1700 LP  0  0  0  0  0  0  0  0  0  0  0  0  # atno 17320 bound_to 7965
  144.7153  139.8219  143.7401 LP  0  0  0  0  0  0  0  0  0  0  0  0  # atno 17321 bound_to 7965
  140.7421  143.6535  150.8228 LP  0  0  0  0  0  0  0  0  0  0  0  0  # atno 17342 bound_to 10162
  140.0155  143.5597  152.2822 LP  0  0  0  0  0  0  0  0  0  0  0  0  # atno 17343 bound_to 10162
  155.9746  130.4101  150.3912 LP  0  0  0  0  0  0  0  0  0  0  0  0  # atno 17370 bound_to 10713
  157.1996  131.0435  151.2657 LP  0  0  0  0  0  0  0  0  0  0  0  0  # atno 17371 bound_to 10713
  140.1054  134.9510  157.1986 LP  0  0  0  0  0  0  0  0  0  0  0  0  # atno 17394 bound_to 11000
  140.3263  134.2859  155.7236 LP  0  0  0  0  0  0  0  0  0  0  0  0  # atno 17395 bound_to 11000

$$$$
