AV-unprocessed.smi:3112|AV-procd|sdf|11851|dock2
  -GOLD-   2272017233D 1   1.00000     0.00000
 Structure written by MMmdl.
 36 36  0  0  0  0  0  0  0  0  1 V2000
  146.9936  141.8203  154.9468 C   0  0  0  0  0  0  0  0  0  0  0  0
  148.2173  141.6592  154.0342 C   0  0  0  0  0  0  0  0  0  0  0  0
  149.3928  140.9273  154.7119 C   0  0  1  0  0  0  0  0  0  0  0  0
  150.2435  140.4148  153.7068 O   0  0  0  0  0  0  0  0  0  0  0  0
  150.2390  141.8473  155.6082 C   0  0  0  0  0  0  0  0  0  0  0  0
  149.4527  142.3736  156.7253 N   0  0  0  0  0  0  0  0  0  0  0  0
  150.0802  142.2343  158.0431 C   0  0  1  0  0  0  0  0  0  0  0  0
  150.2944  140.7332  158.3151 C   0  0  0  0  0  0  0  0  0  0  0  0
  151.4057  143.0480  158.1432 C   0  0  1  0  0  0  0  0  0  0  0  0
  151.2445  144.5611  157.9054 C   0  0  0  0  0  0  0  0  0  0  0  0
  152.0825  142.8245  159.4152 N   0  0  0  0  0  0  0  0  0  0  0  0
  153.3225  142.2604  159.6345 C   0  0  0  0  0  0  0  0  0  0  0  0
  153.5366  142.2542  160.9830 C   0  0  0  0  0  0  0  0  0  0  0  0
  152.3566  142.8445  161.5148 C   0  0  0  0  0  0  0  0  0  0  0  0
  151.4886  143.1843  160.5762 N   0  0  0  0  0  0  0  0  0  0  0  0
  146.1999  142.3666  154.4367 H   0  0  0  0  0  0  0  0  0  0  0  0
  147.2478  142.3729  155.8518 H   0  0  0  0  0  0  0  0  0  0  0  0
  146.5877  140.8537  155.2461 H   0  0  0  0  0  0  0  0  0  0  0  0
  147.9285  141.1366  153.1214 H   0  0  0  0  0  0  0  0  0  0  0  0
  148.5380  142.6538  153.7233 H   0  0  0  0  0  0  0  0  0  0  0  0
  149.0223  140.0871  155.3011 H   0  0  0  0  0  0  0  0  0  0  0  0
  149.7961  140.4747  152.8765 H   0  0  0  0  0  0  0  0  0  0  0  0
  151.1005  141.2933  155.9760 H   0  0  0  0  0  0  0  0  0  0  0  0
  150.6403  142.6693  155.0138 H   0  0  0  0  0  0  0  0  0  0  0  0
  149.2554  143.3539  156.5514 H   0  0  0  0  0  0  0  0  0  0  0  0
  149.3920  142.5931  158.8101 H   0  0  0  0  0  0  0  0  0  0  0  0
  150.6417  140.5489  159.3317 H   0  0  0  0  0  0  0  0  0  0  0  0
  151.0266  140.3058  157.6293 H   0  0  0  0  0  0  0  0  0  0  0  0
  149.3636  140.1775  158.1956 H   0  0  0  0  0  0  0  0  0  0  0  0
  152.0797  142.6745  157.3703 H   0  0  0  0  0  0  0  0  0  0  0  0
  150.9875  144.7750  156.8685 H   0  0  0  0  0  0  0  0  0  0  0  0
  152.1752  145.0907  158.1113 H   0  0  0  0  0  0  0  0  0  0  0  0
  150.4714  144.9883  158.5450 H   0  0  0  0  0  0  0  0  0  0  0  0
  153.9423  141.9124  158.8214 H   0  0  0  0  0  0  0  0  0  0  0  0
  154.4039  141.8846  161.5095 H   0  0  0  0  0  0  0  0  0  0  0  0
  152.1063  143.0347  162.5482 H   0  0  0  0  0  0  0  0  0  0  0  0
  1  2  1  0  0  0  0
  1 16  1  0  0  0  0
  1 17  1  0  0  0  0
  1 18  1  0  0  0  0
  2  3  1  0  0  0  0
  2 19  1  0  0  0  0
  2 20  1  0  0  0  0
  3  4  1  0  0  0  0
  3  5  1  0  0  0  0
  3 21  1  0  0  0  0
  4 22  1  0  0  0  0
  5  6  1  0  0  0  0
  5 23  1  0  0  0  0
  5 24  1  0  0  0  0
  6  7  1  0  0  0  0
  6 25  1  0  0  0  0
  7  8  1  0  0  0  0
  7  9  1  0  0  0  0
  7 26  1  0  0  0  0
  8 27  1  0  0  0  0
  8 28  1  0  0  0  0
  8 29  1  0  0  0  0
  9 10  1  0  0  0  0
  9 11  1  0  0  0  0
  9 30  1  0  0  0  0
 10 31  1  0  0  0  0
 10 32  1  0  0  0  0
 10 33  1  0  0  0  0
 11 15  1  0  0  0  0
 11 12  1  0  0  0  0
 12 13  2  0  0  0  0
 12 34  1  0  0  0  0
 13 14  1  0  0  0  0
 13 35  1  0  0  0  0
 14 15  2  0  0  0  0
 14 36  1  0  0  0  0
M  END
> <s_m_source_file>
AV-unprocessed.smi

> <i_m_source_file_index>
3112

> <i_lp_mmshare_version>
43012

> <i_f3d_flags>
0

> <s_epik_input>
W0NIM11bQ0gyXVtDQEhdKFtPSF0pW0NIMl1bTkhdW0NASF0oW0NIM10pW0NASF0oW0NIM10pbjFbY0hdW2NIXVtjSF1uMQ==

> <s_epik_cmdline>
J2VwaWtfcHl0aG9uJywgJy1waCcsICc3LjAnLCAnLXRuJywgJzgnLCAnLW1hJywgJzIwMCcsICctbWV0YWxfYmluZGluZycsICctaW1hZScsICc8aW5maWxlLm1hZT4nLCAnLW9tYWUnLCAnPG91dGZpbGUubWFlPic=

> <r_lp_tautomer_probability>
1

> <r_epik_Ionization_Penalty>
2.16876

> <r_epik_Ionization_Penalty_Charging>
0

> <r_epik_Ionization_Penalty_Neutral>
2.16876

> <r_epik_State_Penalty>
2.30854

> <r_epik_Charging_Adjusted_Penalty>
2.30854

> <i_epik_Tot_Q>
0

> <i_epik_Tot_abs_Q>
0

> <r_epik_Metal_State_Penalty>
2.3073

> <b_epik_Metal_Only>
0

> <s_lp_Force_Field>
OPLS_2005

> <r_lp_Energy>
16.1769

> <b_lp_Chiralities_Consistent>
1

> <s_lp_Variant>
AV-unprocessed.smi:3112-16

> <Gold.Version>
5.8.1

> <Gold.Id.Protein>
6NUR|6NUR_protein|mol2

> <Gold.PLP.Fitness>
47.7567

> <Gold.PLP.PLP>
-40.3387

> <Gold.PLP.part.hbond>
-3.1230

> <Gold.PLP.part.metal>
0.0000

> <Gold.PLP.part.buried>
-4.9204

> <Gold.PLP.part.nonpolar>
-31.9373

> <Gold.PLP.part.repulsive>
0.0651

> <Gold.PLP.ligand.clash>
0.0000

> <Gold.PLP.ligand.torsion>
0.6076

> <Gold.PLP.Chemscore.Hbond>
2.8320

> <Gold.PLP.Chemscore.CHOScore>
0.0000

> <Gold.PLP.Chemscore.Metal>
0.0000

> <Gold.Chemscore.Hbonds>
donor molecule, donor type, donor heavy atom, donor atom, acceptor molecule, acceptor atom, score
      L1  H     4    22       P1  7957  1.00
      L1  H     6    25       P1  8028  1.00
      P1  H  7989  7998       L1     4  0.56

> <Gold.PLP.Chemscore.Internal.Correction>
0.1372

> <Gold.Rescore>
     Score         DG    S(hbond)    S(metal)    S(lipo)     H(rot)  DE(clash)    DE(int)     intcor
     18.41     -19.16       2.56        0.00      94.54       2.31       0.04       0.71       ----

> <Gold.Chemscore.Fitness>
18.4093

> <Gold.Chemscore.DG>
-19.1628

> <Gold.Chemscore.ZeroCoef>
-5.4800

> <Gold.Chemscore.Hbond>
2.5560

> <Gold.Chemscore.Metal>
0.0000

> <Gold.Chemscore.Lipo>
94.5422

> <Gold.Chemscore.Internal_Hbond>
0.0000

> <Gold.Chemscore.DEClash>
0.0437

> <Gold.Chemscore.DEInternal>
0.7098

> <Gold.Chemscore.Rot>
2.3108

> <Gold.Chemscore.Internal.Correction>
   9.000000E+99

> <Gold.Chemscore.Hbonds>
donor molecule, donor type, donor heavy atom, donor atom, acceptor molecule, acceptor atom, score
      L1  H     4    22       P1  7957  0.96
      L1  H     6    25       P1  8028  0.99
      P1  H  7989  7998       L1     4  0.30

> <Gold.Chemscore.Hbond.Weighted>
-8.5371

> <Gold.Chemscore.Metal.Weighted>
-0.0000

> <Gold.Chemscore.Lipo.Weighted>
-11.0614

> <Gold.Chemscore.Internal_Hbond.Weighted>
0.0000

> <Gold.Chemscore.DEClash.Weighted>
0.0437

> <Gold.Chemscore.DEInternal.Weighted>
0.7098

> <Gold.Chemscore.Rot.Weighted>
5.9157

> <Gold.Chemscore.Internal.Correction.Weighted>
   9.000000E+99

> <Gold.Protein.RotatedTorsions>
[ 6907 6896 6895 6894 ] final    5.15 input  -60.11 | X-H torsion
[ 7974 7965 7964 7962 ] final -136.39 input  175.53 | X-H torsion
[ 8008 7997 7996 7995 ] final -143.41 input   59.86 | X-H torsion
[ 10167 10162 10161 10158 ] final   19.92 input  -65.29 | X-H torsion
[ 10718 10713 10712 10709 ] final  169.72 input   66.30 | X-H torsion
[ 10763 10752 10751 10750 ] final -172.76 input  -60.55 | X-H torsion
[ 11005 11000 10999 10996 ] final   62.40 input  -57.11 | X-H torsion

> <Gold.Protein.ActiveResidues>
 VAL166  LYS551  ARG553  GLY616  TRP617  ASP618  TYR619  PRO620  LYS621  CYS622 
 ASP623  PHE694  ASN695  SER759  ASP760  ASP761  ALA762  ILE779  LEU786  VAL792 
 PHE793  MET794  SER795  GLU796  ALA797  LYS798  CYS799  TRP800  GLU811  SER814 

> <Gold.Protein.RotatedAtoms>
  151.6528  135.0999  160.0163 H   0  0  0  0  0  0  0  0  0  0  0  0  # atno 6907 bound_to 6896
  152.3991  133.6787  159.6310 H   0  0  0  0  0  0  0  0  0  0  0  0  # atno 6908 bound_to 6896
  150.7894  133.8739  159.3307 H   0  0  0  0  0  0  0  0  0  0  0  0  # atno 6909 bound_to 6896
  144.8931  140.6669  143.5133 H   0  0  0  0  0  0  0  0  0  0  0  0  # atno 7974 bound_to 7965
  155.5101  140.0582  157.2925 H   0  0  0  0  0  0  0  0  0  0  0  0  # atno 8008 bound_to 7997
  154.4555  140.1970  156.0341 H   0  0  0  0  0  0  0  0  0  0  0  0  # atno 8009 bound_to 7997
  156.0790  140.3249  155.7674 H   0  0  0  0  0  0  0  0  0  0  0  0  # atno 8010 bound_to 7997
  140.5543  143.9453  150.6598 H   0  0  0  0  0  0  0  0  0  0  0  0  # atno 10167 bound_to 10162
  157.0185  131.0225  151.2782 H   0  0  0  0  0  0  0  0  0  0  0  0  # atno 10718 bound_to 10713
  154.6156  135.2869  155.0383 H   0  0  0  0  0  0  0  0  0  0  0  0  # atno 10763 bound_to 10752
  154.1597  135.6490  153.4987 H   0  0  0  0  0  0  0  0  0  0  0  0  # atno 10764 bound_to 10752
  153.0213  135.5375  154.6926 H   0  0  0  0  0  0  0  0  0  0  0  0  # atno 10765 bound_to 10752
  140.0095  134.6319  155.9803 H   0  0  0  0  0  0  0  0  0  0  0  0  # atno 11005 bound_to 11000
  145.3748  139.1650  143.4312 LP  0  0  0  0  0  0  0  0  0  0  0  0  # atno 17320 bound_to 7965
  146.3065  140.3823  142.8685 LP  0  0  0  0  0  0  0  0  0  0  0  0  # atno 17321 bound_to 7965
  140.2887  143.3339  152.1083 LP  0  0  0  0  0  0  0  0  0  0  0  0  # atno 17342 bound_to 10162
  139.5041  144.6768  151.6108 LP  0  0  0  0  0  0  0  0  0  0  0  0  # atno 17343 bound_to 10162
  157.5267  130.8032  149.7870 LP  0  0  0  0  0  0  0  0  0  0  0  0  # atno 17370 bound_to 10713
  156.0110  130.3833  150.2264 LP  0  0  0  0  0  0  0  0  0  0  0  0  # atno 17371 bound_to 10713
  141.1700  133.6537  156.4619 LP  0  0  0  0  0  0  0  0  0  0  0  0  # atno 17394 bound_to 11000
  140.4581  134.6867  157.5072 LP  0  0  0  0  0  0  0  0  0  0  0  0  # atno 17395 bound_to 11000

$$$$
