AV-unprocessed.smi:1146|AV-procd|sdf|4886|dock4
  -GOLD-   22720 3463D 1   1.00000     0.00000
 Structure written by MMmdl.
 46 47  0  0  0  0  0  0  0  0  1 V2000
  152.8668  142.7016  162.3536 C   0  0  0  0  0  0  0  0  0  0  0  0
  152.9500  142.7867  160.8245 C   0  0  0  0  0  0  0  0  0  0  0  0
  153.2781  141.4895  160.2383 N   0  0  0  0  0  0  0  0  0  0  0  0
  154.2015  140.6108  160.6934 C   0  0  0  0  0  0  0  0  0  0  0  0
  154.9202  140.7658  161.6804 O   0  0  0  0  0  0  0  0  0  0  0  0
  154.1989  139.5330  159.8735 N   0  0  0  0  0  0  0  0  0  0  0  0
  155.0534  138.3486  159.9952 C   0  0  0  0  0  0  0  0  0  0  0  0
  154.3691  137.1413  160.6895 C   0  0  0  0  0  0  0  0  0  0  0  0
  155.2526  135.8823  160.7875 C   0  0  0  0  0  0  0  0  0  0  0  0
  153.8759  137.5540  162.0868 C   0  0  0  0  0  0  0  0  0  0  0  0
  153.2026  136.8128  159.9609 O   0  0  0  0  0  0  0  0  0  0  0  0
  153.2541  139.7357  158.8546 C   0  0  0  0  0  0  0  0  0  0  0  0
  152.8726  138.9260  157.7701 C   0  0  0  0  0  0  0  0  0  0  0  0
  151.8666  139.4359  156.9155 C   0  0  0  0  0  0  0  0  0  0  0  0
  151.3287  138.4752  155.5073 S   0  0  0  0  0  0  0  0  0  0  0  0
  150.9955  139.3773  154.3935 O   0  0  0  0  0  0  0  0  0  0  0  0
  152.3044  137.3902  155.3195 O   0  0  0  0  0  0  0  0  0  0  0  0
  149.8522  137.7732  156.0816 N   0  0  0  0  0  0  0  0  0  0  0  0
  149.3320  138.2260  157.3759 C   0  0  0  0  0  0  0  0  0  0  0  0
  149.6308  136.3494  155.8112 C   0  0  0  0  0  0  0  0  0  0  0  0
  151.2796  140.7081  157.1408 C   0  0  0  0  0  0  0  0  0  0  0  0
  151.6830  141.4981  158.2422 C   0  0  0  0  0  0  0  0  0  0  0  0
  152.6776  140.9688  159.0837 C   0  0  0  0  0  0  0  0  0  0  0  0
  152.6178  143.6724  162.7824 H   0  0  0  0  0  0  0  0  0  0  0  0
  153.8166  142.3820  162.7836 H   0  0  0  0  0  0  0  0  0  0  0  0
  152.0998  141.9934  162.6684 H   0  0  0  0  0  0  0  0  0  0  0  0
  152.0011  143.1445  160.4221 H   0  0  0  0  0  0  0  0  0  0  0  0
  153.6978  143.5236  160.5307 H   0  0  0  0  0  0  0  0  0  0  0  0
  155.3648  138.0567  158.9923 H   0  0  0  0  0  0  0  0  0  0  0  0
  155.9789  138.6126  160.5104 H   0  0  0  0  0  0  0  0  0  0  0  0
  156.1722  136.0895  161.3352 H   0  0  0  0  0  0  0  0  0  0  0  0
  155.5293  135.4982  159.8054 H   0  0  0  0  0  0  0  0  0  0  0  0
  154.7350  135.0777  161.3109 H   0  0  0  0  0  0  0  0  0  0  0  0
  154.7101  137.8251  162.7348 H   0  0  0  0  0  0  0  0  0  0  0  0
  153.3329  136.7433  162.5746 H   0  0  0  0  0  0  0  0  0  0  0  0
  153.2063  138.4139  162.0362 H   0  0  0  0  0  0  0  0  0  0  0  0
  152.5747  137.5118  160.0644 H   0  0  0  0  0  0  0  0  0  0  0  0
  153.3229  137.9598  157.5996 H   0  0  0  0  0  0  0  0  0  0  0  0
  148.3268  137.8388  157.5450 H   0  0  0  0  0  0  0  0  0  0  0  0
  149.2806  139.3141  157.4081 H   0  0  0  0  0  0  0  0  0  0  0  0
  149.9802  137.8828  158.1828 H   0  0  0  0  0  0  0  0  0  0  0  0
  148.5833  136.0872  155.9627 H   0  0  0  0  0  0  0  0  0  0  0  0
  150.2453  135.7396  156.4742 H   0  0  0  0  0  0  0  0  0  0  0  0
  149.8937  136.1125  154.7802 H   0  0  0  0  0  0  0  0  0  0  0  0
  150.5188  141.0762  156.4684 H   0  0  0  0  0  0  0  0  0  0  0  0
  151.2427  142.4672  158.4243 H   0  0  0  0  0  0  0  0  0  0  0  0
  1  2  1  0  0  0  0
  1 24  1  0  0  0  0
  1 25  1  0  0  0  0
  1 26  1  0  0  0  0
  2  3  1  0  0  0  0
  2 27  1  0  0  0  0
  2 28  1  0  0  0  0
  3 23  1  0  0  0  0
  3  4  1  0  0  0  0
  4  5  2  0  0  0  0
  4  6  1  0  0  0  0
  6  7  1  0  0  0  0
  6 12  1  0  0  0  0
  7  8  1  0  0  0  0
  7 29  1  0  0  0  0
  7 30  1  0  0  0  0
  8  9  1  0  0  0  0
  8 10  1  0  0  0  0
  8 11  1  0  0  0  0
  9 31  1  0  0  0  0
  9 32  1  0  0  0  0
  9 33  1  0  0  0  0
 10 34  1  0  0  0  0
 10 35  1  0  0  0  0
 10 36  1  0  0  0  0
 11 37  1  0  0  0  0
 12 23  2  0  0  0  0
 12 13  1  0  0  0  0
 13 14  2  0  0  0  0
 13 38  1  0  0  0  0
 14 15  1  0  0  0  0
 14 21  1  0  0  0  0
 15 16  2  0  0  0  0
 15 17  2  0  0  0  0
 15 18  1  0  0  0  0
 18 19  1  0  0  0  0
 18 20  1  0  0  0  0
 19 39  1  0  0  0  0
 19 40  1  0  0  0  0
 19 41  1  0  0  0  0
 20 42  1  0  0  0  0
 20 43  1  0  0  0  0
 20 44  1  0  0  0  0
 21 22  2  0  0  0  0
 21 45  1  0  0  0  0
 22 23  1  0  0  0  0
 22 46  1  0  0  0  0
M  END
> <s_m_source_file>
AV-unprocessed.smi

> <i_m_source_file_index>
1146

> <i_lp_mmshare_version>
43012

> <i_f3d_flags>
0

> <s_epik_input>
W0NIM11DKFtDSDNdKShbT0hdKVtDSDJdbjFjKD1PKW4oW0NIMl1bQ0gzXSljKGMxMilbY0hdW2NIXWMoW2NIXTIpUyg9TykoPU8pTihbQ0gzXSlbQ0gzXQ==

> <s_epik_cmdline>
J2VwaWtfcHl0aG9uJywgJy1waCcsICc3LjAnLCAnLXRuJywgJzgnLCAnLW1hJywgJzIwMCcsICctbWV0YWxfYmluZGluZycsICctaW1hZScsICc8aW5maWxlLm1hZT4nLCAnLW9tYWUnLCAnPG91dGZpbGUubWFlPic=

> <r_lp_tautomer_probability>
1

> <r_epik_Ionization_Penalty>
3.29736e-08

> <r_epik_Ionization_Penalty_Charging>
1.95861e-09

> <r_epik_Ionization_Penalty_Neutral>
3.1015e-08

> <r_epik_State_Penalty>
-0

> <r_epik_Charging_Adjusted_Penalty>
1.95861e-09

> <i_epik_Tot_Q>
0

> <i_epik_Tot_abs_Q>
0

> <r_epik_Metal_State_Penalty>
-0

> <b_epik_Metal_Only>
0

> <s_lp_Force_Field>
OPLS_2005

> <r_lp_Energy>
36.7985

> <b_lp_Chiralities_Consistent>
1

> <s_lp_Variant>
AV-unprocessed.smi:1146-1

> <Gold.Version>
5.8.1

> <Gold.Id.Protein>
6NUR|6NUR_protein|mol2

> <Gold.PLP.Fitness>
46.8218

> <Gold.PLP.PLP>
-39.7973

> <Gold.PLP.part.hbond>
-3.8534

> <Gold.PLP.part.metal>
0.0000

> <Gold.PLP.part.buried>
-5.3458

> <Gold.PLP.part.nonpolar>
-30.9934

> <Gold.PLP.part.repulsive>
0.2003

> <Gold.PLP.ligand.clash>
0.0000

> <Gold.PLP.ligand.torsion>
1.9709

> <Gold.PLP.Chemscore.Hbond>
2.7176

> <Gold.PLP.Chemscore.CHOScore>
0.0000

> <Gold.PLP.Chemscore.Metal>
0.0000

> <Gold.Chemscore.Hbonds>
donor molecule, donor type, donor heavy atom, donor atom, acceptor molecule, acceptor atom, score
      P1  H  6896  6908       L1    11  0.80
      P1  H  7989  7998       L1    16  1.00
      P1  H 10752 10763       L1    17  0.68

> <Gold.PLP.Chemscore.Internal.Correction>
2.8134

> <Gold.Rescore>
     Score         DG    S(hbond)    S(metal)    S(lipo)     H(rot)  DE(clash)    DE(int)     intcor
     17.82     -19.67       2.83        0.00      85.18       2.04       0.08       1.77       ----

> <Gold.Chemscore.Fitness>
17.8172

> <Gold.Chemscore.DG>
-19.6687

> <Gold.Chemscore.ZeroCoef>
-5.4800

> <Gold.Chemscore.Hbond>
2.8265

> <Gold.Chemscore.Metal>
0.0000

> <Gold.Chemscore.Lipo>
85.1830

> <Gold.Chemscore.Internal_Hbond>
0.0000

> <Gold.Chemscore.DEClash>
0.0773

> <Gold.Chemscore.DEInternal>
1.7742

> <Gold.Chemscore.Rot>
2.0383

> <Gold.Chemscore.Internal.Correction>
   9.000000E+99

> <Gold.Chemscore.Hbonds>
donor molecule, donor type, donor heavy atom, donor atom, acceptor molecule, acceptor atom, score
      P1  H  6896  6908       L1    11  0.47
      P1  H  7989  7998       L1    16  1.00
      P1  H 10752 10763       L1    17  0.63

> <Gold.Chemscore.Hbond.Weighted>
-9.4404

> <Gold.Chemscore.Metal.Weighted>
-0.0000

> <Gold.Chemscore.Lipo.Weighted>
-9.9664

> <Gold.Chemscore.Internal_Hbond.Weighted>
0.0000

> <Gold.Chemscore.DEClash.Weighted>
0.0773

> <Gold.Chemscore.DEInternal.Weighted>
1.7742

> <Gold.Chemscore.Rot.Weighted>
5.2181

> <Gold.Chemscore.Internal.Correction.Weighted>
   9.000000E+99

> <Gold.Protein.RotatedTorsions>
[ 6907 6896 6895 6894 ] final  -86.14 input  -60.11 | X-H torsion
[ 7974 7965 7964 7962 ] final -153.79 input  175.53 | X-H torsion
[ 8008 7997 7996 7995 ] final  -51.45 input   59.86 | X-H torsion
[ 10167 10162 10161 10158 ] final   34.65 input  -65.29 | X-H torsion
[ 10718 10713 10712 10709 ] final -175.69 input   66.30 | X-H torsion
[ 10763 10752 10751 10750 ] final   55.54 input  -60.55 | X-H torsion
[ 11005 11000 10999 10996 ] final -135.29 input  -57.11 | X-H torsion

> <Gold.Protein.ActiveResidues>
 VAL166  LYS551  ARG553  GLY616  TRP617  ASP618  TYR619  PRO620  LYS621  CYS622 
 ASP623  PHE694  ASN695  SER759  ASP760  ASP761  ALA762  ILE779  LEU786  VAL792 
 PHE793  MET794  SER795  GLU796  ALA797  LYS798  CYS799  TRP800  GLU811  SER814 

> <Gold.Protein.RotatedAtoms>
  150.6868  134.3096  159.4740 H   0  0  0  0  0  0  0  0  0  0  0  0  # atno 6907 bound_to 6896
  152.0983  134.9357  160.0579 H   0  0  0  0  0  0  0  0  0  0  0  0  # atno 6908 bound_to 6896
  152.0646  133.4043  159.4469 H   0  0  0  0  0  0  0  0  0  0  0  0  # atno 6909 bound_to 6896
  144.7722  140.4477  143.5899 H   0  0  0  0  0  0  0  0  0  0  0  0  # atno 7974 bound_to 7965
  154.4083  140.1247  156.4831 H   0  0  0  0  0  0  0  0  0  0  0  0  # atno 8008 bound_to 7997
  155.7065  140.3494  155.4936 H   0  0  0  0  0  0  0  0  0  0  0  0  # atno 8009 bound_to 7997
  155.9339  140.1074  157.1100 H   0  0  0  0  0  0  0  0  0  0  0  0  # atno 8010 bound_to 7997
  140.4295  144.1345  150.6157 H   0  0  0  0  0  0  0  0  0  0  0  0  # atno 10167 bound_to 10162
  156.8037  130.9561  151.3118 H   0  0  0  0  0  0  0  0  0  0  0  0  # atno 10718 bound_to 10713
  152.9818  135.5707  154.5083 H   0  0  0  0  0  0  0  0  0  0  0  0  # atno 10763 bound_to 10752
  154.4591  135.2781  155.1728 H   0  0  0  0  0  0  0  0  0  0  0  0  # atno 10764 bound_to 10752
  154.3323  135.6246  153.5611 H   0  0  0  0  0  0  0  0  0  0  0  0  # atno 10765 bound_to 10752
  140.8912  134.1809  157.4526 H   0  0  0  0  0  0  0  0  0  0  0  0  # atno 11005 bound_to 11000
  145.6289  139.1533  143.2980 LP  0  0  0  0  0  0  0  0  0  0  0  0  # atno 17320 bound_to 7965
  146.1877  140.6394  142.9160 LP  0  0  0  0  0  0  0  0  0  0  0  0  # atno 17321 bound_to 7965
  140.4443  143.2513  151.9431 LP  0  0  0  0  0  0  0  0  0  0  0  0  # atno 17342 bound_to 10162
  139.4784  144.5624  151.8218 LP  0  0  0  0  0  0  0  0  0  0  0  0  # atno 17343 bound_to 10162
  157.6541  130.8909  149.9693 LP  0  0  0  0  0  0  0  0  0  0  0  0  # atno 17370 bound_to 10713
  156.1086  130.3651  150.0089 LP  0  0  0  0  0  0  0  0  0  0  0  0  # atno 17371 bound_to 10713
  139.8730  134.9859  156.5302 LP  0  0  0  0  0  0  0  0  0  0  0  0  # atno 17394 bound_to 11000
  140.8344  133.8253  155.9015 LP  0  0  0  0  0  0  0  0  0  0  0  0  # atno 17395 bound_to 11000

$$$$
