AV-unprocessed.smi:745|AV-procd|sdf|3573|dock7
  -GOLD-   22720 0563D 1   1.00000     0.00000
 Structure written by MMmdl.
 42 43  0  0  0  0  0  0  0  0  2 V2000
  149.4003  131.8360  153.7660 C   0  0  0  0  0  0  0  0  0  0  0  0
  148.2685  132.8771  153.7182 C   0  0  1  0  0  0  0  0  0  0  0  0
  148.8844  134.2048  153.7448 N   0  0  0  0  0  0  0  0  0  0  0  0
  149.7500  134.6535  154.6671 C   0  0  0  0  0  0  0  0  0  0  0  0
  150.1029  133.9951  155.6460 O   0  0  0  0  0  0  0  0  0  0  0  0
  150.1618  135.9008  154.3793 N   0  0  0  0  0  0  0  0  0  0  0  0
  151.0649  136.7176  155.1105 C   0  0  0  0  0  0  0  0  0  0  0  0
  151.1092  138.0710  154.7063 C   0  0  0  0  0  0  0  0  0  0  0  0
  151.9733  138.9642  155.3689 C   0  0  0  0  0  0  0  0  0  0  0  0
  152.7718  138.4805  156.4206 C   0  0  0  0  0  0  0  0  0  0  0  0
  152.6664  137.1193  156.7606 C   0  0  0  0  0  0  0  0  0  0  0  0
  151.8386  136.2616  156.1274 N   0  0  0  0  0  0  0  0  0  0  0  0
  147.3346  132.7189  152.4858 C   0  0  2  0  0  0  0  0  0  0  0  0
  146.3035  133.8667  152.3709 C   0  0  0  0  0  0  0  0  0  0  0  0
  145.3503  133.6755  151.1802 C   0  0  0  0  0  0  0  0  0  0  0  0
  144.6529  132.3709  151.2632 N   0  3  1  0  0  0  0  0  0  0  0  0
  143.6332  132.2067  150.2052 C   0  0  0  0  0  0  0  0  0  0  0  0
  145.6120  131.2423  151.3053 C   0  0  0  0  0  0  0  0  0  0  0  0
  146.5690  131.3769  152.5012 C   0  0  0  0  0  0  0  0  0  0  0  0
  149.0178  130.8253  153.9041 H   0  0  0  0  0  0  0  0  0  0  0  0
  150.0742  132.0311  154.6012 H   0  0  0  0  0  0  0  0  0  0  0  0
  149.9944  131.8499  152.8517 H   0  0  0  0  0  0  0  0  0  0  0  0
  147.6687  132.7377  154.6196 H   0  0  0  0  0  0  0  0  0  0  0  0
  148.6512  134.8226  152.9811 H   0  0  0  0  0  0  0  0  0  0  0  0
  149.7887  136.3138  153.5376 H   0  0  0  0  0  0  0  0  0  0  0  0
  150.4888  138.4261  153.8961 H   0  0  0  0  0  0  0  0  0  0  0  0
  152.0217  140.0022  155.0744 H   0  0  0  0  0  0  0  0  0  0  0  0
  153.4465  139.1349  156.9524 H   0  0  0  0  0  0  0  0  0  0  0  0
  153.2615  136.7077  157.5625 H   0  0  0  0  0  0  0  0  0  0  0  0
  147.9554  132.7397  151.5883 H   0  0  0  0  0  0  0  0  0  0  0  0
  145.7243  133.9341  153.2931 H   0  0  0  0  0  0  0  0  0  0  0  0
  146.8069  134.8262  152.2539 H   0  0  0  0  0  0  0  0  0  0  0  0
  144.6159  134.4821  151.1710 H   0  0  0  0  0  0  0  0  0  0  0  0
  145.9029  133.7378  150.2413 H   0  0  0  0  0  0  0  0  0  0  0  0
  144.0923  132.2062  149.2157 H   0  0  0  0  0  0  0  0  0  0  0  0
  142.9042  133.0166  150.2447 H   0  0  0  0  0  0  0  0  0  0  0  0
  143.0938  131.2676  150.3332 H   0  0  0  0  0  0  0  0  0  0  0  0
  145.0657  130.3014  151.3821 H   0  0  0  0  0  0  0  0  0  0  0  0
  146.1774  131.2057  150.3724 H   0  0  0  0  0  0  0  0  0  0  0  0
  147.2638  130.5378  152.4774 H   0  0  0  0  0  0  0  0  0  0  0  0
  146.0048  131.2850  153.4304 H   0  0  0  0  0  0  0  0  0  0  0  0
  144.1575  132.3632  152.1434 H   0  0  0  0  0  0  0  0  0  0  0  0
  1  2  1  0  0  0  0
  1 20  1  0  0  0  0
  1 21  1  0  0  0  0
  1 22  1  0  0  0  0
  2  3  1  0  0  0  0
  2 13  1  0  0  0  0
  2 23  1  0  0  0  0
  3  4  1  0  0  0  0
  3 24  1  0  0  0  0
  4  5  2  0  0  0  0
  4  6  1  0  0  0  0
  6  7  1  0  0  0  0
  6 25  1  0  0  0  0
  7 12  1  0  0  0  0
  7  8  2  0  0  0  0
  8  9  1  0  0  0  0
  8 26  1  0  0  0  0
  9 10  2  0  0  0  0
  9 27  1  0  0  0  0
 10 11  1  0  0  0  0
 10 28  1  0  0  0  0
 11 12  2  0  0  0  0
 11 29  1  0  0  0  0
 13 19  1  0  0  0  0
 13 14  1  0  0  0  0
 13 30  1  0  0  0  0
 14 15  1  0  0  0  0
 14 31  1  0  0  0  0
 14 32  1  0  0  0  0
 15 16  1  0  0  0  0
 15 33  1  0  0  0  0
 15 34  1  0  0  0  0
 16 17  1  0  0  0  0
 16 18  1  0  0  0  0
 16 42  1  0  0  0  0
 17 35  1  0  0  0  0
 17 36  1  0  0  0  0
 17 37  1  0  0  0  0
 18 19  1  0  0  0  0
 18 38  1  0  0  0  0
 18 39  1  0  0  0  0
 19 40  1  0  0  0  0
 19 41  1  0  0  0  0
M  CHG  1  16   1
M  END
> <s_m_source_file>
AV-unprocessed.smi

> <i_m_source_file_index>
745

> <i_lp_mmshare_version>
43012

> <i_f3d_flags>
0

> <s_epik_input>
W0NIMl0xW0NIMl1OKFtDSDNdKVtDSDJdW0NIMl1bQ0hdMVtDQEhdKFtDSDNdKVtOSF1DKD1PKVtOSF1jMltjSF1bY0hdW2NIXVtjSF1uMg==

> <s_epik_cmdline>
J2VwaWtfcHl0aG9uJywgJy1waCcsICc3LjAnLCAnLXRuJywgJzgnLCAnLW1hJywgJzIwMCcsICctbWV0YWxfYmluZGluZycsICctaW1hZScsICc8aW5maWxlLm1hZT4nLCAnLW9tYWUnLCAnPG91dGZpbGUubWFlPic=

> <r_epik_Ionization_Penalty>
0.0011087

> <r_epik_Ionization_Penalty_Charging>
0.00106265

> <r_epik_Ionization_Penalty_Neutral>
4.60506e-05

> <r_epik_State_Penalty>
0.000695551

> <r_epik_Charging_Adjusted_Penalty>
0.0017582

> <i_epik_Tot_Q>
1

> <i_epik_Tot_abs_Q>
1

> <r_epik_Metal_State_Penalty>
-0

> <b_epik_Metal_Only>
0

> <s_lp_Force_Field>
OPLS_2005

> <r_lp_Energy>
20.1287

> <b_lp_Chiralities_Consistent>
1

> <s_lp_Variant>
AV-unprocessed.smi:745-2

> <Gold.Version>
5.8.1

> <Gold.Id.Protein>
6NUR|6NUR_protein|mol2

> <Gold.PLP.Fitness>
42.1482

> <Gold.PLP.PLP>
-34.1937

> <Gold.PLP.part.hbond>
-3.8743

> <Gold.PLP.part.metal>
0.0000

> <Gold.PLP.part.buried>
-3.1431

> <Gold.PLP.part.nonpolar>
-27.4312

> <Gold.PLP.part.repulsive>
0.1387

> <Gold.PLP.ligand.clash>
0.0000

> <Gold.PLP.ligand.torsion>
0.0811

> <Gold.PLP.Chemscore.Hbond>
2.7000

> <Gold.PLP.Chemscore.CHOScore>
0.0000

> <Gold.PLP.Chemscore.Metal>
0.0000

> <Gold.Chemscore.Hbonds>
donor molecule, donor type, donor heavy atom, donor atom, acceptor molecule, acceptor atom, score
      L1  H     3    24       P1  7948  1.00
      L1  H     6    25       P1  7948  1.00
      P1  H 10752 10765       L1    12  0.65

> <Gold.PLP.Chemscore.Internal.Correction>
0.0166

> <Gold.Rescore>
     Score         DG    S(hbond)    S(metal)    S(lipo)     H(rot)  DE(clash)    DE(int)     intcor
     13.53     -16.23       1.40        0.00      79.60       1.26       0.19       2.51       ----

> <Gold.Chemscore.Fitness>
13.5328

> <Gold.Chemscore.DG>
-16.2324

> <Gold.Chemscore.ZeroCoef>
-5.4800

> <Gold.Chemscore.Hbond>
1.3967

> <Gold.Chemscore.Metal>
0.0000

> <Gold.Chemscore.Lipo>
79.6004

> <Gold.Chemscore.Internal_Hbond>
0.0000

> <Gold.Chemscore.DEClash>
0.1862

> <Gold.Chemscore.DEInternal>
2.5134

> <Gold.Chemscore.Rot>
1.2601

> <Gold.Chemscore.Internal.Correction>
   9.000000E+99

> <Gold.Chemscore.Hbonds>
donor molecule, donor type, donor heavy atom, donor atom, acceptor molecule, acceptor atom, score
      L1  H     3    24       P1  7948  0.29
      L1  H     6    25       P1  7948  0.25
      P1  H 10752 10765       L1    12  0.02

> <Gold.Chemscore.Hbond.Weighted>
-4.6651

> <Gold.Chemscore.Metal.Weighted>
-0.0000

> <Gold.Chemscore.Lipo.Weighted>
-9.3133

> <Gold.Chemscore.Internal_Hbond.Weighted>
0.0000

> <Gold.Chemscore.DEClash.Weighted>
0.1862

> <Gold.Chemscore.DEInternal.Weighted>
2.5134

> <Gold.Chemscore.Rot.Weighted>
3.2260

> <Gold.Chemscore.Internal.Correction.Weighted>
   9.000000E+99

> <Gold.Protein.RotatedTorsions>
[ 6907 6896 6895 6894 ] final  -96.57 input  -60.11 | X-H torsion
[ 7974 7965 7964 7962 ] final  -18.94 input  175.53 | X-H torsion
[ 8008 7997 7996 7995 ] final  -25.23 input   59.86 | X-H torsion
[ 10167 10162 10161 10158 ] final  -48.50 input  -65.29 | X-H torsion
[ 10718 10713 10712 10709 ] final -141.00 input   66.30 | X-H torsion
[ 10763 10752 10751 10750 ] final -139.81 input  -60.55 | X-H torsion
[ 11005 11000 10999 10996 ] final   58.55 input  -57.11 | X-H torsion

> <Gold.Protein.ActiveResidues>
 VAL166  LYS551  ARG553  GLY616  TRP617  ASP618  TYR619  PRO620  LYS621  CYS622 
 ASP623  PHE694  ASN695  SER759  ASP760  ASP761  ALA762  ILE779  LEU786  VAL792 
 PHE793  MET794  SER795  GLU796  ALA797  LYS798  CYS799  TRP800  GLU811  SER814 

> <Gold.Protein.RotatedAtoms>
  150.6992  134.1483  159.4130 H   0  0  0  0  0  0  0  0  0  0  0  0  # atno 6907 bound_to 6896
  151.9466  135.0186  160.0548 H   0  0  0  0  0  0  0  0  0  0  0  0  # atno 6908 bound_to 6896
  152.2047  133.4832  159.5114 H   0  0  0  0  0  0  0  0  0  0  0  0  # atno 6909 bound_to 6896
  146.1867  140.3992  142.8474 H   0  0  0  0  0  0  0  0  0  0  0  0  # atno 7974 bound_to 7965
  154.4487  140.1932  156.0587 H   0  0  0  0  0  0  0  0  0  0  0  0  # atno 8008 bound_to 7997
  156.0599  140.3298  155.7422 H   0  0  0  0  0  0  0  0  0  0  0  0  # atno 8009 bound_to 7997
  155.5428  140.0588  157.2857 H   0  0  0  0  0  0  0  0  0  0  0  0  # atno 8010 bound_to 7997
  140.6728  143.2737  151.4080 H   0  0  0  0  0  0  0  0  0  0  0  0  # atno 10167 bound_to 10162
  156.3289  130.7575  151.1689 H   0  0  0  0  0  0  0  0  0  0  0  0  # atno 10718 bound_to 10713
  154.8598  135.3571  154.5607 H   0  0  0  0  0  0  0  0  0  0  0  0  # atno 10763 bound_to 10752
  153.6222  135.7005  153.5311 H   0  0  0  0  0  0  0  0  0  0  0  0  # atno 10764 bound_to 10752
  153.3119  135.4176  155.1303 H   0  0  0  0  0  0  0  0  0  0  0  0  # atno 10765 bound_to 10752
  140.0369  134.5930  155.9432 H   0  0  0  0  0  0  0  0  0  0  0  0  # atno 11005 bound_to 11000
  144.8410  140.6857  143.6229 LP  0  0  0  0  0  0  0  0  0  0  0  0  # atno 17320 bound_to 7965
  145.3918  139.1615  143.4225 LP  0  0  0  0  0  0  0  0  0  0  0  0  # atno 17321 bound_to 7965
  139.6005  144.1306  152.2192 LP  0  0  0  0  0  0  0  0  0  0  0  0  # atno 17342 bound_to 10162
  140.0689  144.5796  150.7207 LP  0  0  0  0  0  0  0  0  0  0  0  0  # atno 17343 bound_to 10162
  157.7426  131.0487  150.5007 LP  0  0  0  0  0  0  0  0  0  0  0  0  # atno 17370 bound_to 10713
  156.5170  130.4153  149.6270 LP  0  0  0  0  0  0  0  0  0  0  0  0  # atno 17371 bound_to 10713
  141.1862  133.6557  156.5230 LP  0  0  0  0  0  0  0  0  0  0  0  0  # atno 17394 bound_to 11000
  140.4133  134.7253  157.4848 LP  0  0  0  0  0  0  0  0  0  0  0  0  # atno 17395 bound_to 11000

$$$$
