AV-unprocessed.smi:1386|AV-procd|sdf|5638|dock6
  -GOLD-   22720 5253D 1   1.00000     0.00000
 Structure written by MMmdl.
 35 36  0  0  0  0  0  0  0  0  1 V2000
  151.0438  139.2723  156.8529 C   0  0  0  0  0  0  0  0  0  0  0  0
  150.3907  140.6337  156.5717 C   0  0  2  0  0  0  0  0  0  0  0  0
  150.1945  140.8677  155.0618 C   0  0  0  0  0  0  0  0  0  0  0  0
  148.7917  140.9054  154.6907 N   0  0  0  0  0  0  0  0  0  0  0  0
  148.1441  140.0848  153.7769 C   0  0  0  0  0  0  0  0  0  0  0  0
  146.8249  140.4780  153.7619 C   0  0  0  0  0  0  0  0  0  0  0  0
  146.6397  141.5332  154.6521 N   0  0  0  0  0  0  0  0  0  0  0  0
  147.8479  141.7317  155.1626 C   0  0  0  0  0  0  0  0  0  0  0  0
  151.2099  141.7033  157.1379 N   0  0  0  0  0  0  0  0  0  0  0  0
  151.7513  141.7158  158.3678 C   0  0  0  0  0  0  0  0  0  0  0  0
  151.6399  140.7654  159.1435 O   0  0  0  0  0  0  0  0  0  0  0  0
  152.4118  142.8590  158.6831 N   0  0  0  0  0  0  0  0  0  0  0  0
  153.2610  143.0710  159.8672 C   0  0  0  0  0  0  0  0  0  0  0  0
  152.4392  143.7861  160.9522 C   0  0  0  0  0  0  0  0  0  0  0  0
  151.9065  145.4315  160.3851 S   0  0  0  0  0  0  0  0  0  0  0  0
  151.1985  144.9854  158.7685 C   0  0  0  0  0  0  0  0  0  0  0  0
  152.1725  144.1127  157.9586 C   0  0  0  0  0  0  0  0  0  0  0  0
  150.4371  138.4577  156.4570 H   0  0  0  0  0  0  0  0  0  0  0  0
  151.1596  139.1036  157.9240 H   0  0  0  0  0  0  0  0  0  0  0  0
  152.0317  139.2034  156.3960 H   0  0  0  0  0  0  0  0  0  0  0  0
  149.4057  140.6405  157.0427 H   0  0  0  0  0  0  0  0  0  0  0  0
  150.6666  141.8007  154.7502 H   0  0  0  0  0  0  0  0  0  0  0  0
  150.6722  140.0699  154.4919 H   0  0  0  0  0  0  0  0  0  0  0  0
  148.6602  139.3089  153.2310 H   0  0  0  0  0  0  0  0  0  0  0  0
  146.0014  140.0855  153.1841 H   0  0  0  0  0  0  0  0  0  0  0  0
  148.0500  142.4914  155.9034 H   0  0  0  0  0  0  0  0  0  0  0  0
  151.3484  142.5190  156.5597 H   0  0  0  0  0  0  0  0  0  0  0  0
  153.6821  142.1474  160.2648 H   0  0  0  0  0  0  0  0  0  0  0  0
  154.1271  143.6773  159.5983 H   0  0  0  0  0  0  0  0  0  0  0  0
  151.5602  143.1965  161.2152 H   0  0  0  0  0  0  0  0  0  0  0  0
  153.0291  143.9041  161.8613 H   0  0  0  0  0  0  0  0  0  0  0  0
  150.2564  144.4588  158.9254 H   0  0  0  0  0  0  0  0  0  0  0  0
  150.9659  145.9007  158.2240 H   0  0  0  0  0  0  0  0  0  0  0  0
  153.1128  144.6430  157.8023 H   0  0  0  0  0  0  0  0  0  0  0  0
  151.7711  143.9377  156.9592 H   0  0  0  0  0  0  0  0  0  0  0  0
  1  2  1  0  0  0  0
  1 18  1  0  0  0  0
  1 19  1  0  0  0  0
  1 20  1  0  0  0  0
  2  3  1  0  0  0  0
  2  9  1  0  0  0  0
  2 21  1  0  0  0  0
  3  4  1  0  0  0  0
  3 22  1  0  0  0  0
  3 23  1  0  0  0  0
  4  8  1  0  0  0  0
  4  5  1  0  0  0  0
  5  6  2  0  0  0  0
  5 24  1  0  0  0  0
  6  7  1  0  0  0  0
  6 25  1  0  0  0  0
  7  8  2  0  0  0  0
  8 26  1  0  0  0  0
  9 10  1  0  0  0  0
  9 27  1  0  0  0  0
 10 11  2  0  0  0  0
 10 12  1  0  0  0  0
 12 17  1  0  0  0  0
 12 13  1  0  0  0  0
 13 14  1  0  0  0  0
 13 28  1  0  0  0  0
 13 29  1  0  0  0  0
 14 15  1  0  0  0  0
 14 30  1  0  0  0  0
 14 31  1  0  0  0  0
 15 16  1  0  0  0  0
 16 17  1  0  0  0  0
 16 32  1  0  0  0  0
 16 33  1  0  0  0  0
 17 34  1  0  0  0  0
 17 35  1  0  0  0  0
M  END
> <s_m_source_file>
AV-unprocessed.smi

> <i_m_source_file_index>
1386

> <i_lp_mmshare_version>
43012

> <i_f3d_flags>
0

> <s_epik_input>
W2NIXTFuW2NIXVtjSF1uMVtDSDJdW0NAQEhdKFtDSDNdKVtOSF1DKD1PKU4yW0NIMl1bQ0gyXVNbQ0gyXVtDSDJdMg==

> <s_epik_cmdline>
J2VwaWtfcHl0aG9uJywgJy1waCcsICc3LjAnLCAnLXRuJywgJzgnLCAnLW1hJywgJzIwMCcsICctbWV0YWxfYmluZGluZycsICctaW1hZScsICc8aW5maWxlLm1hZT4nLCAnLW9tYWUnLCAnPG91dGZpbGUubWFlPic=

> <r_lp_tautomer_probability>
1

> <r_epik_Ionization_Penalty>
0.622677

> <r_epik_Ionization_Penalty_Charging>
0.62263

> <r_epik_Ionization_Penalty_Neutral>
4.67019e-05

> <r_epik_State_Penalty>
0.63879

> <r_epik_Charging_Adjusted_Penalty>
1.26142

> <i_epik_Tot_Q>
0

> <i_epik_Tot_abs_Q>
0

> <r_epik_Metal_State_Penalty>
0.307117

> <b_epik_Metal_Only>
0

> <s_lp_Force_Field>
OPLS_2005

> <r_lp_Energy>
25.5009

> <b_lp_Chiralities_Consistent>
1

> <s_lp_Variant>
AV-unprocessed.smi:1386-3

> <Gold.Version>
5.8.1

> <Gold.Id.Protein>
6NUR|6NUR_protein|mol2

> <Gold.PLP.Fitness>
42.1768

> <Gold.PLP.PLP>
-37.0625

> <Gold.PLP.part.hbond>
0.0000

> <Gold.PLP.part.metal>
0.0000

> <Gold.PLP.part.buried>
-1.8505

> <Gold.PLP.part.nonpolar>
-35.0105

> <Gold.PLP.part.repulsive>
0.1942

> <Gold.PLP.ligand.clash>
1.0381

> <Gold.PLP.ligand.torsion>
0.9874

> <Gold.PLP.Chemscore.Hbond>
0.0000

> <Gold.PLP.Chemscore.CHOScore>
2.6969

> <Gold.PLP.Chemscore.Metal>
0.0000

> <Gold.Chemscore.Hbonds>
donor molecule, donor type, donor heavy atom, donor atom, acceptor molecule, acceptor atom, score
      L1  C     5    24       P1  7957  0.69
      L1  C     6    25       P1 10175  1.00
      L1  C     8    26       P1  8028  1.00

> <Gold.PLP.Chemscore.Internal.Correction>
0.0366

> <Gold.Rescore>
     Score         DG    S(hbond)    S(metal)    S(lipo)     H(rot)  DE(clash)    DE(int)     intcor
      9.85     -12.06       0.00        0.00      91.05       1.59       0.05       2.17       ----

> <Gold.Chemscore.Fitness>
9.8495

> <Gold.Chemscore.DG>
-12.0618

> <Gold.Chemscore.ZeroCoef>
-5.4800

> <Gold.Chemscore.Hbond>
0.0000

> <Gold.Chemscore.Metal>
0.0000

> <Gold.Chemscore.Lipo>
91.0461

> <Gold.Chemscore.Internal_Hbond>
0.0000

> <Gold.Chemscore.DEClash>
0.0456

> <Gold.Chemscore.DEInternal>
2.1667

> <Gold.Chemscore.Rot>
1.5901

> <Gold.Chemscore.Internal.Correction>
   9.000000E+99

> <Gold.Chemscore.Hbond.Weighted>
-0.0000

> <Gold.Chemscore.Metal.Weighted>
-0.0000

> <Gold.Chemscore.Lipo.Weighted>
-10.6524

> <Gold.Chemscore.Internal_Hbond.Weighted>
0.0000

> <Gold.Chemscore.DEClash.Weighted>
0.0456

> <Gold.Chemscore.DEInternal.Weighted>
2.1667

> <Gold.Chemscore.Rot.Weighted>
4.0706

> <Gold.Chemscore.Internal.Correction.Weighted>
   9.000000E+99

> <Gold.Protein.RotatedTorsions>
[ 6907 6896 6895 6894 ] final  138.34 input  -60.11 | X-H torsion
[ 7974 7965 7964 7962 ] final -135.08 input  175.53 | X-H torsion
[ 8008 7997 7996 7995 ] final  163.33 input   59.86 | X-H torsion
[ 10167 10162 10161 10158 ] final -120.43 input  -65.29 | X-H torsion
[ 10718 10713 10712 10709 ] final  138.66 input   66.30 | X-H torsion
[ 10763 10752 10751 10750 ] final   64.71 input  -60.55 | X-H torsion
[ 11005 11000 10999 10996 ] final   78.72 input  -57.11 | X-H torsion

> <Gold.Protein.ActiveResidues>
 VAL166  LYS551  ARG553  GLY616  TRP617  ASP618  TYR619  PRO620  LYS621  CYS622 
 ASP623  PHE694  ASN695  SER759  ASP760  ASP761  ALA762  ILE779  LEU786  VAL792 
 PHE793  MET794  SER795  GLU796  ALA797  LYS798  CYS799  TRP800  GLU811  SER814 

> <Gold.Protein.RotatedAtoms>
  152.2677  133.5354  159.5419 H   0  0  0  0  0  0  0  0  0  0  0  0  # atno 6907 bound_to 6896
  150.7147  134.0742  159.3884 H   0  0  0  0  0  0  0  0  0  0  0  0  # atno 6908 bound_to 6896
  151.8657  135.0508  160.0525 H   0  0  0  0  0  0  0  0  0  0  0  0  # atno 6909 bound_to 6896
  144.9045  140.6815  143.5064 H   0  0  0  0  0  0  0  0  0  0  0  0  # atno 7974 bound_to 7965
  156.1965  140.1726  156.7988 H   0  0  0  0  0  0  0  0  0  0  0  0  # atno 8008 bound_to 7997
  154.5536  140.0713  156.8739 H   0  0  0  0  0  0  0  0  0  0  0  0  # atno 8009 bound_to 7997
  155.2981  140.3360  155.4251 H   0  0  0  0  0  0  0  0  0  0  0  0  # atno 8010 bound_to 7997
  140.0359  143.5201  152.2154 H   0  0  0  0  0  0  0  0  0  0  0  0  # atno 10167 bound_to 10162
  157.4229  131.1040  151.0334 H   0  0  0  0  0  0  0  0  0  0  0  0  # atno 10718 bound_to 10713
  153.0067  135.5383  154.6553 H   0  0  0  0  0  0  0  0  0  0  0  0  # atno 10763 bound_to 10752
  154.5775  135.2847  155.0768 H   0  0  0  0  0  0  0  0  0  0  0  0  # atno 10764 bound_to 10752
  154.1910  135.6500  153.5112 H   0  0  0  0  0  0  0  0  0  0  0  0  # atno 10765 bound_to 10752
  139.9201  134.7786  156.1686 H   0  0  0  0  0  0  0  0  0  0  0  0  # atno 11005 bound_to 11000
  145.3559  139.1694  143.4409 LP  0  0  0  0  0  0  0  0  0  0  0  0  # atno 17320 bound_to 7965
  146.3126  140.3616  142.8665 LP  0  0  0  0  0  0  0  0  0  0  0  0  # atno 17321 bound_to 7965
  139.6045  144.7592  151.3094 LP  0  0  0  0  0  0  0  0  0  0  0  0  # atno 17342 bound_to 10162
  140.7281  143.6944  150.7896 LP  0  0  0  0  0  0  0  0  0  0  0  0  # atno 17343 bound_to 10162
  157.1258  130.6081  149.5516 LP  0  0  0  0  0  0  0  0  0  0  0  0  # atno 17370 bound_to 10713
  155.9887  130.4931  150.7180 LP  0  0  0  0  0  0  0  0  0  0  0  0  # atno 17371 bound_to 10713
  141.0714  133.6795  156.2148 LP  0  0  0  0  0  0  0  0  0  0  0  0  # atno 17394 bound_to 11000
  140.6500  134.5076  157.5576 LP  0  0  0  0  0  0  0  0  0  0  0  0  # atno 17395 bound_to 11000

$$$$
