AV-unprocessed.smi:2217|AV-procd|sdf|8975|dock2
  -GOLD-   2272012193D 1   1.00000     0.00000
 Structure written by MMmdl.
 45 48  0  0  0  0  0  0  0  0  1 V2000
  154.4917  142.2770  163.8488 C   0  0  0  0  0  0  0  0  0  0  0  0
  153.6726  142.2365  162.5759 C   0  0  0  0  0  0  0  0  0  0  0  0
  153.8305  141.1968  161.6402 C   0  0  0  0  0  0  0  0  0  0  0  0
  153.0471  141.2123  160.4703 C   0  0  0  0  0  0  0  0  0  0  0  0
  152.1246  142.2621  160.2595 C   0  0  0  0  0  0  0  0  0  0  0  0
  151.4004  142.1740  159.0338 N   0  0  0  0  0  0  0  0  0  0  0  0
  151.6214  141.4502  157.9155 C   0  0  0  0  0  0  0  0  0  0  0  0
  152.5906  140.6985  157.8265 O   0  0  0  0  0  0  0  0  0  0  0  0
  150.7294  141.6030  156.9253 N   0  0  0  0  0  0  0  0  0  0  0  0
  150.8189  140.9793  155.6118 C   0  0  1  0  0  0  0  0  0  0  0  0
  151.0758  139.4753  155.6985 C   0  0  2  0  0  0  0  0  0  0  0  0
  152.2201  138.5950  155.3427 C   0  0  0  0  0  0  0  0  0  0  0  0
  151.4252  137.5054  154.5762 C   0  0  0  0  0  0  0  0  0  0  0  0
  150.0882  138.0350  154.4069 O   0  0  0  0  0  0  0  0  0  0  0  0
  150.2747  139.4360  154.4127 C   0  0  1  0  0  0  0  0  0  0  0  0
  149.4201  140.5745  155.0078 C   0  0  0  0  0  0  0  0  0  0  0  0
  148.7892  141.5610  154.0151 C   0  0  0  0  0  0  0  0  0  0  0  0
  147.2972  141.6827  154.3327 C   0  0  0  0  0  0  0  0  0  0  0  0
  147.1800  141.2655  155.7913 C   0  0  0  0  0  0  0  0  0  0  0  0
  148.2551  140.1947  155.9466 C   0  0  0  0  0  0  0  0  0  0  0  0
  151.9830  143.2598  161.1693 N   0  0  0  0  0  0  0  0  0  0  0  0
  152.7328  143.2451  162.2911 C   0  0  0  0  0  0  0  0  0  0  0  0
  154.9698  141.3161  164.0412 H   0  0  0  0  0  0  0  0  0  0  0  0
  153.8583  142.5181  164.7032 H   0  0  0  0  0  0  0  0  0  0  0  0
  155.2684  143.0380  163.7715 H   0  0  0  0  0  0  0  0  0  0  0  0
  154.5397  140.4002  161.8111 H   0  0  0  0  0  0  0  0  0  0  0  0
  153.1580  140.4221  159.7419 H   0  0  0  0  0  0  0  0  0  0  0  0
  150.5458  142.7113  159.0181 H   0  0  0  0  0  0  0  0  0  0  0  0
  149.9574  142.2363  157.0801 H   0  0  0  0  0  0  0  0  0  0  0  0
  151.4835  141.4952  154.9122 H   0  0  0  0  0  0  0  0  0  0  0  0
  150.5320  139.0428  156.5441 H   0  0  0  0  0  0  0  0  0  0  0  0
  152.9411  139.1030  154.7007 H   0  0  0  0  0  0  0  0  0  0  0  0
  152.7367  138.1994  156.2175 H   0  0  0  0  0  0  0  0  0  0  0  0
  151.8800  137.3038  153.6056 H   0  0  0  0  0  0  0  0  0  0  0  0
  151.3794  136.5676  155.1305 H   0  0  0  0  0  0  0  0  0  0  0  0
  150.8360  139.7558  153.5269 H   0  0  0  0  0  0  0  0  0  0  0  0
  149.2574  142.5408  154.1118 H   0  0  0  0  0  0  0  0  0  0  0  0
  148.9356  141.2509  152.9798 H   0  0  0  0  0  0  0  0  0  0  0  0
  146.9073  142.6841  154.1484 H   0  0  0  0  0  0  0  0  0  0  0  0
  146.7337  140.9865  153.7101 H   0  0  0  0  0  0  0  0  0  0  0  0
  147.4115  142.1143  156.4363 H   0  0  0  0  0  0  0  0  0  0  0  0
  146.1839  140.9070  156.0518 H   0  0  0  0  0  0  0  0  0  0  0  0
  147.8420  139.2302  155.6491 H   0  0  0  0  0  0  0  0  0  0  0  0
  148.5478  140.0961  156.9920 H   0  0  0  0  0  0  0  0  0  0  0  0
  152.5781  144.0637  162.9785 H   0  0  0  0  0  0  0  0  0  0  0  0
  1  2  1  0  0  0  0
  1 23  1  0  0  0  0
  1 24  1  0  0  0  0
  1 25  1  0  0  0  0
  2 22  1  0  0  0  0
  2  3  2  0  0  0  0
  3  4  1  0  0  0  0
  3 26  1  0  0  0  0
  4  5  2  0  0  0  0
  4 27  1  0  0  0  0
  5  6  1  0  0  0  0
  5 21  1  0  0  0  0
  6  7  1  0  0  0  0
  6 28  1  0  0  0  0
  7  8  2  0  0  0  0
  7  9  1  0  0  0  0
  9 10  1  0  0  0  0
  9 29  1  0  0  0  0
 10 16  1  0  0  0  0
 10 11  1  0  0  0  0
 10 30  1  0  0  0  0
 11 15  1  0  0  0  0
 11 12  1  0  0  0  0
 11 31  1  0  0  0  0
 12 13  1  0  0  0  0
 12 32  1  0  0  0  0
 12 33  1  0  0  0  0
 13 14  1  0  0  0  0
 13 34  1  0  0  0  0
 13 35  1  0  0  0  0
 14 15  1  0  0  0  0
 15 16  1  0  0  0  0
 15 36  1  0  0  0  0
 16 20  1  0  0  0  0
 16 17  1  0  0  0  0
 17 18  1  0  0  0  0
 17 37  1  0  0  0  0
 17 38  1  0  0  0  0
 18 19  1  0  0  0  0
 18 39  1  0  0  0  0
 18 40  1  0  0  0  0
 19 20  1  0  0  0  0
 19 41  1  0  0  0  0
 19 42  1  0  0  0  0
 20 43  1  0  0  0  0
 20 44  1  0  0  0  0
 21 22  2  0  0  0  0
 22 45  1  0  0  0  0
M  END
> <s_m_source_file>
AV-unprocessed.smi

> <i_m_source_file_index>
2217

> <i_lp_mmshare_version>
43012

> <i_f3d_flags>
0

> <s_epik_input>
W0NIM11jMVtjSF1bY0hdYyhuW2NIXTEpW05IXUMoPU8pW05IXVtDQEBIXTJbQ0BASF0oW0NIMl1bQ0gyXU8zKVtDQEhdM0MyNFtDSDJdW0NIMl1bQ0gyXVtDSDJdNA==

> <s_epik_cmdline>
J2VwaWtfcHl0aG9uJywgJy1waCcsICc3LjAnLCAnLXRuJywgJzgnLCAnLW1hJywgJzIwMCcsICctbWV0YWxfYmluZGluZycsICctaW1hZScsICc8aW5maWxlLm1hZT4nLCAnLW9tYWUnLCAnPG91dGZpbGUubWFlPic=

> <r_lp_tautomer_probability>
1

> <r_epik_Ionization_Penalty>
6.14796e-05

> <r_epik_Ionization_Penalty_Charging>
0

> <r_epik_Ionization_Penalty_Neutral>
6.14796e-05

> <r_epik_State_Penalty>
-0

> <r_epik_Charging_Adjusted_Penalty>
0

> <i_epik_Tot_Q>
0

> <i_epik_Tot_abs_Q>
0

> <r_epik_Metal_State_Penalty>
-0

> <b_epik_Metal_Only>
0

> <s_lp_Force_Field>
OPLS_2005

> <r_lp_Energy>
79.3106

> <b_lp_Chiralities_Consistent>
1

> <s_lp_Variant>
AV-unprocessed.smi:2217-8

> <Gold.Version>
5.8.1

> <Gold.Id.Protein>
6NUR|6NUR_protein|mol2

> <Gold.PLP.Fitness>
44.5410

> <Gold.PLP.PLP>
-44.0856

> <Gold.PLP.part.hbond>
-1.0000

> <Gold.PLP.part.metal>
0.0000

> <Gold.PLP.part.buried>
2.7874

> <Gold.PLP.part.nonpolar>
-43.7761

> <Gold.PLP.part.repulsive>
0.4817

> <Gold.PLP.ligand.clash>
0.6630

> <Gold.PLP.ligand.torsion>
0.2815

> <Gold.PLP.Chemscore.Hbond>
0.4664

> <Gold.PLP.Chemscore.CHOScore>
0.0000

> <Gold.PLP.Chemscore.Metal>
0.0000

> <Gold.Chemscore.Hbonds>
donor molecule, donor type, donor heavy atom, donor atom, acceptor molecule, acceptor atom, score
      P1  H  7997  8008       L1     8  0.44

> <Gold.PLP.Chemscore.Internal.Correction>
0.2821

> <Gold.Rescore>
     Score         DG    S(hbond)    S(metal)    S(lipo)     H(rot)  DE(clash)    DE(int)     intcor
     14.95     -18.82       0.68        0.00     116.47       1.00       0.83       3.05       ----

> <Gold.Chemscore.Fitness>
14.9450

> <Gold.Chemscore.DG>
-18.8207

> <Gold.Chemscore.ZeroCoef>
-5.4800

> <Gold.Chemscore.Hbond>
0.6806

> <Gold.Chemscore.Metal>
0.0000

> <Gold.Chemscore.Lipo>
116.4743

> <Gold.Chemscore.Internal_Hbond>
0.0000

> <Gold.Chemscore.DEClash>
0.8300

> <Gold.Chemscore.DEInternal>
3.0458

> <Gold.Chemscore.Rot>
1.0000

> <Gold.Chemscore.Internal.Correction>
   9.000000E+99

> <Gold.Chemscore.Hbonds>
donor molecule, donor type, donor heavy atom, donor atom, acceptor molecule, acceptor atom, score
      P1  H  7997  8008       L1     8  0.44

> <Gold.Chemscore.Hbond.Weighted>
-2.2732

> <Gold.Chemscore.Metal.Weighted>
-0.0000

> <Gold.Chemscore.Lipo.Weighted>
-13.6275

> <Gold.Chemscore.Internal_Hbond.Weighted>
0.0000

> <Gold.Chemscore.DEClash.Weighted>
0.8300

> <Gold.Chemscore.DEInternal.Weighted>
3.0458

> <Gold.Chemscore.Rot.Weighted>
2.5600

> <Gold.Chemscore.Internal.Correction.Weighted>
   9.000000E+99

> <Gold.Protein.RotatedTorsions>
[ 6907 6896 6895 6894 ] final -157.01 input  -60.11 | X-H torsion
[ 7974 7965 7964 7962 ] final   70.48 input  175.53 | X-H torsion
[ 8008 7997 7996 7995 ] final  -66.72 input   59.86 | X-H torsion
[ 10167 10162 10161 10158 ] final  155.75 input  -65.29 | X-H torsion
[ 10718 10713 10712 10709 ] final  -19.29 input   66.30 | X-H torsion
[ 10763 10752 10751 10750 ] final  152.41 input  -60.55 | X-H torsion
[ 11005 11000 10999 10996 ] final -164.21 input  -57.11 | X-H torsion

> <Gold.Protein.ActiveResidues>
 VAL166  LYS551  ARG553  GLY616  TRP617  ASP618  TYR619  PRO620  LYS621  CYS622 
 ASP623  PHE694  ASN695  SER759  ASP760  ASP761  ALA762  ILE779  LEU786  VAL792 
 PHE793  MET794  SER795  GLU796  ALA797  LYS798  CYS799  TRP800  GLU811  SER814 

> <Gold.Protein.RotatedAtoms>
  151.2963  133.4142  159.2636 H   0  0  0  0  0  0  0  0  0  0  0  0  # atno 6907 bound_to 6896
  151.0234  134.9486  159.8082 H   0  0  0  0  0  0  0  0  0  0  0  0  # atno 6908 bound_to 6896
  152.5329  134.2925  159.9101 H   0  0  0  0  0  0  0  0  0  0  0  0  # atno 6909 bound_to 6896
  145.7777  139.2873  143.1284 H   0  0  0  0  0  0  0  0  0  0  0  0  # atno 7974 bound_to 7965
  154.4752  140.0907  156.7245 H   0  0  0  0  0  0  0  0  0  0  0  0  # atno 8008 bound_to 7997
  155.4615  140.3461  155.4295 H   0  0  0  0  0  0  0  0  0  0  0  0  # atno 8009 bound_to 7997
  156.1105  140.1446  156.9333 H   0  0  0  0  0  0  0  0  0  0  0  0  # atno 8010 bound_to 7997
  139.4821  144.5070  151.8082 H   0  0  0  0  0  0  0  0  0  0  0  0  # atno 10167 bound_to 10162
  156.5477  130.4694  149.6467 H   0  0  0  0  0  0  0  0  0  0  0  0  # atno 10718 bound_to 10713
  154.1195  135.2833  155.3212 H   0  0  0  0  0  0  0  0  0  0  0  0  # atno 10763 bound_to 10752
  154.6433  135.5395  153.7818 H   0  0  0  0  0  0  0  0  0  0  0  0  # atno 10764 bound_to 10752
  153.0317  135.6492  154.1350 H   0  0  0  0  0  0  0  0  0  0  0  0  # atno 10765 bound_to 10752
  140.5894  134.5060  157.5190 H   0  0  0  0  0  0  0  0  0  0  0  0  # atno 11005 bound_to 11000
  146.0106  140.8439  142.9973 LP  0  0  0  0  0  0  0  0  0  0  0  0  # atno 17320 bound_to 7965
  144.6801  140.2484  143.7335 LP  0  0  0  0  0  0  0  0  0  0  0  0  # atno 17321 bound_to 7965
  140.4569  144.1776  150.5902 LP  0  0  0  0  0  0  0  0  0  0  0  0  # atno 17342 bound_to 10162
  140.4525  143.2481  151.9328 LP  0  0  0  0  0  0  0  0  0  0  0  0  # atno 17343 bound_to 10162
  156.2913  130.7126  151.1975 LP  0  0  0  0  0  0  0  0  0  0  0  0  # atno 17370 bound_to 10713
  157.7393  131.0530  150.5237 LP  0  0  0  0  0  0  0  0  0  0  0  0  # atno 17371 bound_to 10713
  139.9281  134.8017  156.1010 LP  0  0  0  0  0  0  0  0  0  0  0  0  # atno 17394 bound_to 11000
  141.0945  133.6701  156.2613 LP  0  0  0  0  0  0  0  0  0  0  0  0  # atno 17395 bound_to 11000

$$$$
