AV-unprocessed.smi:37|AV-procd|sdf|314|dock6
  -GOLD-   2262016133D 1   1.00000     0.00000
 Structure written by MMmdl.
 44 45  0  0  0  0  0  0  0  0  1 V2000
  147.2018  134.4800  161.9366 C   0  0  0  0  0  0  0  0  0  0  0  0
  148.0168  135.4667  161.0879 C   0  0  0  0  0  0  0  0  0  0  0  0
  147.1804  136.2200  160.0515 C   0  0  0  0  0  0  0  0  0  0  0  0
  146.9982  137.4375  160.1053 O   0  0  0  0  0  0  0  0  0  0  0  0
  146.6947  135.3974  159.1108 O   0  0  0  0  0  0  0  0  0  0  0  0
  145.8709  135.9119  158.0777 C   0  0  0  0  0  0  0  0  0  0  0  0
  146.7429  136.2988  156.8771 C   0  0  1  0  0  0  0  0  0  0  0  0
  148.1126  136.3487  157.2712 O   0  0  0  0  0  0  0  0  0  0  0  0
  148.9281  135.8974  156.2315 C   0  0  2  0  0  0  0  0  0  0  0  0
  149.9201  136.9883  155.9005 N   0  0  0  0  0  0  0  0  0  0  0  0
  149.4832  138.2787  155.6341 C   0  0  0  0  0  0  0  0  0  0  0  0
  150.3259  139.3027  155.3625 C   0  0  0  0  0  0  0  0  0  0  0  0
  149.8259  140.5245  155.1123 F   0  0  0  0  0  0  0  0  0  0  0  0
  151.7701  139.0913  155.3417 C   0  0  0  0  0  0  0  0  0  0  0  0
  152.6132  139.9535  155.1039 O   0  0  0  0  0  0  0  0  0  0  0  0
  152.1649  137.7800  155.6232 N   0  0  0  0  0  0  0  0  0  0  0  0
  151.3067  136.7155  155.9060 C   0  0  0  0  0  0  0  0  0  0  0  0
  151.7728  135.6005  156.1349 O   0  0  0  0  0  0  0  0  0  0  0  0
  148.0288  135.5789  155.0365 C   0  0  1  0  0  0  0  0  0  0  0  0
  148.6836  133.9987  154.0187 Br  0  0  0  0  0  0  0  0  0  0  0  0
  146.7041  135.3011  155.7138 C   0  0  2  0  0  0  0  0  0  0  0  0
  145.6411  135.5597  154.8048 O   0  0  0  0  0  0  0  0  0  0  0  0
  145.5486  134.8781  153.6492 C   0  0  0  0  0  0  0  0  0  0  0  0
  146.2659  133.9355  153.3098 O   0  0  0  0  0  0  0  0  0  0  0  0
  144.4137  135.4017  152.7670 C   0  0  0  0  0  0  0  0  0  0  0  0
  144.8755  135.8428  151.3699 C   0  0  0  0  0  0  0  0  0  0  0  0
  153.1559  137.5865  155.6211 H   0  0  0  0  0  0  0  0  0  0  0  0
  147.8427  133.9768  162.6605 H   0  0  0  0  0  0  0  0  0  0  0  0
  146.7369  133.7115  161.3181 H   0  0  0  0  0  0  0  0  0  0  0  0
  146.4144  134.9902  162.4926 H   0  0  0  0  0  0  0  0  0  0  0  0
  148.4991  136.1969  161.7380 H   0  0  0  0  0  0  0  0  0  0  0  0
  148.8128  134.9335  160.5677 H   0  0  0  0  0  0  0  0  0  0  0  0
  145.1584  135.1392  157.7867 H   0  0  0  0  0  0  0  0  0  0  0  0
  145.2973  136.7741  158.4215 H   0  0  0  0  0  0  0  0  0  0  0  0
  146.4765  137.2967  156.5244 H   0  0  0  0  0  0  0  0  0  0  0  0
  149.4666  135.0245  156.6014 H   0  0  0  0  0  0  0  0  0  0  0  0
  148.4231  138.4847  155.6413 H   0  0  0  0  0  0  0  0  0  0  0  0
  147.9615  136.4331  154.3617 H   0  0  0  0  0  0  0  0  0  0  0  0
  146.7045  134.2784  156.0944 H   0  0  0  0  0  0  0  0  0  0  0  0
  143.6605  134.6191  152.6725 H   0  0  0  0  0  0  0  0  0  0  0  0
  143.9369  136.2384  153.2779 H   0  0  0  0  0  0  0  0  0  0  0  0
  144.0293  136.1952  150.7802 H   0  0  0  0  0  0  0  0  0  0  0  0
  145.3363  135.0185  150.8244 H   0  0  0  0  0  0  0  0  0  0  0  0
  145.5983  136.6575  151.4274 H   0  0  0  0  0  0  0  0  0  0  0  0
  1  2  1  0  0  0  0
  1 28  1  0  0  0  0
  1 29  1  0  0  0  0
  1 30  1  0  0  0  0
  2  3  1  0  0  0  0
  2 31  1  0  0  0  0
  2 32  1  0  0  0  0
  3  4  2  0  0  0  0
  3  5  1  0  0  0  0
  5  6  1  0  0  0  0
  6  7  1  0  0  0  0
  6 33  1  0  0  0  0
  6 34  1  0  0  0  0
  7 21  1  0  0  0  0
  7  8  1  0  0  0  0
  7 35  1  0  0  0  0
  8  9  1  0  0  0  0
  9 10  1  0  0  0  0
  9 19  1  0  0  0  0
  9 36  1  0  0  0  0
 10 17  1  0  0  0  0
 10 11  1  0  0  0  0
 11 12  2  0  0  0  0
 11 37  1  0  0  0  0
 12 13  1  0  0  0  0
 12 14  1  0  0  0  0
 14 15  2  0  0  0  0
 14 16  1  0  0  0  0
 16 27  1  0  0  0  0
 16 17  1  0  0  0  0
 17 18  2  0  0  0  0
 19 20  1  0  0  0  0
 19 21  1  0  0  0  0
 19 38  1  0  0  0  0
 21 22  1  0  0  0  0
 21 39  1  0  0  0  0
 22 23  1  0  0  0  0
 23 24  2  0  0  0  0
 23 25  1  0  0  0  0
 25 26  1  0  0  0  0
 25 40  1  0  0  0  0
 25 41  1  0  0  0  0
 26 42  1  0  0  0  0
 26 43  1  0  0  0  0
 26 44  1  0  0  0  0
M  END
> <s_m_source_file>
AV-unprocessed.smi

> <i_m_source_file_index>
37

> <i_lp_mmshare_version>
43012

> <i_f3d_flags>
0

> <s_epik_input>
W0NIM11bQ0gyXUMoPU8pT1tDSDJdW0NAQEhdMU9bQ0BASF0objJbY0hdYyhGKWMoPU8pW25IXWMyPU8pW0NAQEhdKEJyKVtDQEhdMU9DKD1PKVtDSDJdW0NIM10=

> <s_epik_cmdline>
J2VwaWtfcHl0aG9uJywgJy1waCcsICc3LjAnLCAnLXRuJywgJzgnLCAnLW1hJywgJzIwMCcsICctbWV0YWxfYmluZGluZycsICctaW1hZScsICc8aW5maWxlLm1hZT4nLCAnLW9tYWUnLCAnPG91dGZpbGUubWFlPic=

> <r_lp_tautomer_probability>
0.999537

> <r_epik_Ionization_Penalty>
0.104106

> <r_epik_Ionization_Penalty_Charging>
0.104106

> <r_epik_Ionization_Penalty_Neutral>
3.94675e-16

> <r_epik_State_Penalty>
0.0940182

> <r_epik_Charging_Adjusted_Penalty>
0.198124

> <i_epik_Tot_Q>
0

> <i_epik_Tot_abs_Q>
0

> <r_epik_Metal_State_Penalty>
3.05314

> <b_epik_Metal_Only>
0

> <s_epik_Chemistry_Notes>
This compound has an ester and may undergo hydrolysis at high or low pH. This compound contains an acetal/aminal-like group ( X-CH(R)-Y where X, Y are N, S, or O) that may be acid/base labile, releasing an aldehyde.

> <s_lp_Force_Field>
OPLS_2005

> <r_lp_Energy>
22.7414

> <b_lp_Chiralities_Consistent>
1

> <s_lp_Variant>
AV-unprocessed.smi:37-12

> <Gold.Version>
5.8.1

> <Gold.Id.Protein>
6NUR|6NUR_protein|mol2

> <Gold.PLP.Fitness>
37.1997

> <Gold.PLP.PLP>
-28.7999

> <Gold.PLP.part.hbond>
-4.0000

> <Gold.PLP.part.metal>
0.0000

> <Gold.PLP.part.buried>
-2.0070

> <Gold.PLP.part.nonpolar>
-22.5245

> <Gold.PLP.part.repulsive>
0.3222

> <Gold.PLP.ligand.clash>
0.0000

> <Gold.PLP.ligand.torsion>
0.9886

> <Gold.PLP.Chemscore.Hbond>
3.4240

> <Gold.PLP.Chemscore.CHOScore>
0.0000

> <Gold.PLP.Chemscore.Metal>
0.0000

> <Gold.Chemscore.Hbonds>
donor molecule, donor type, donor heavy atom, donor atom, acceptor molecule, acceptor atom, score
      P1  H  6934  6947       L1     4  1.00
      P1  H  7989  7998       L1    15  0.47
      P1  H  7997  8009       L1    15  1.00
      P1  H 10752 10765       L1    18  1.00

> <Gold.PLP.Chemscore.Internal.Correction>
0.1050

> <Gold.Rescore>
     Score         DG    S(hbond)    S(metal)    S(lipo)     H(rot)  DE(clash)    DE(int)     intcor
      8.49     -11.35       2.91        0.00      40.07       3.33       0.14       2.72       ----

> <Gold.Chemscore.Fitness>
8.4867

> <Gold.Chemscore.DG>
-11.3513

> <Gold.Chemscore.ZeroCoef>
-5.4800

> <Gold.Chemscore.Hbond>
2.9070

> <Gold.Chemscore.Metal>
0.0000

> <Gold.Chemscore.Lipo>
40.0654

> <Gold.Chemscore.Internal_Hbond>
0.0000

> <Gold.Chemscore.DEClash>
0.1407

> <Gold.Chemscore.DEInternal>
2.7239

> <Gold.Chemscore.Rot>
3.3303

> <Gold.Chemscore.Internal.Correction>
   9.000000E+99

> <Gold.Chemscore.Hbonds>
donor molecule, donor type, donor heavy atom, donor atom, acceptor molecule, acceptor atom, score
      P1  H  6934  6947       L1     4  0.99
      P1  H  7989  7998       L1    15  0.10
      P1  H  7997  8009       L1    15  0.94
      P1  H 10752 10765       L1    18  0.45

> <Gold.Chemscore.Hbond.Weighted>
-9.7092

> <Gold.Chemscore.Metal.Weighted>
-0.0000

> <Gold.Chemscore.Lipo.Weighted>
-4.6877

> <Gold.Chemscore.Internal_Hbond.Weighted>
0.0000

> <Gold.Chemscore.DEClash.Weighted>
0.1407

> <Gold.Chemscore.DEInternal.Weighted>
2.7239

> <Gold.Chemscore.Rot.Weighted>
8.5256

> <Gold.Chemscore.Internal.Correction.Weighted>
   9.000000E+99

> <Gold.Protein.RotatedTorsions>
[ 6907 6896 6895 6894 ] final  -44.38 input  -60.11 | X-H torsion
[ 7974 7965 7964 7962 ] final  120.20 input  175.53 | X-H torsion
[ 8008 7997 7996 7995 ] final -131.09 input   59.86 | X-H torsion
[ 10167 10162 10161 10158 ] final  171.81 input  -65.29 | X-H torsion
[ 10718 10713 10712 10709 ] final  -18.40 input   66.30 | X-H torsion
[ 10763 10752 10751 10750 ] final -153.23 input  -60.55 | X-H torsion
[ 11005 11000 10999 10996 ] final   37.98 input  -57.11 | X-H torsion

> <Gold.Protein.ActiveResidues>
 VAL166  LYS551  ARG553  GLY616  TRP617  ASP618  TYR619  PRO620  LYS621  CYS622 
 ASP623  PHE694  ASN695  SER759  ASP760  ASP761  ALA762  ILE779  LEU786  VAL792 
 PHE793  MET794  SER795  GLU796  ALA797  LYS798  CYS799  TRP800  GLU811  SER814 

> <Gold.Protein.RotatedAtoms>
  150.9335  134.8749  159.7566 H   0  0  0  0  0  0  0  0  0  0  0  0  # atno 6907 bound_to 6896
  152.5048  134.4045  159.9437 H   0  0  0  0  0  0  0  0  0  0  0  0  # atno 6908 bound_to 6896
  151.4070  133.3699  159.2774 H   0  0  0  0  0  0  0  0  0  0  0  0  # atno 6909 bound_to 6896
  145.1340  139.3309  143.4650 H   0  0  0  0  0  0  0  0  0  0  0  0  # atno 7974 bound_to 7965
  155.3066  140.0455  157.3032 H   0  0  0  0  0  0  0  0  0  0  0  0  # atno 8008 bound_to 7997
  154.5456  140.2301  155.8535 H   0  0  0  0  0  0  0  0  0  0  0  0  # atno 8009 bound_to 7997
  156.1921  140.3048  155.9360 H   0  0  0  0  0  0  0  0  0  0  0  0  # atno 8010 bound_to 7997
  139.5057  144.3444  151.9986 H   0  0  0  0  0  0  0  0  0  0  0  0  # atno 10167 bound_to 10162
  156.5601  130.4723  149.6411 H   0  0  0  0  0  0  0  0  0  0  0  0  # atno 10718 bound_to 10713
  154.7941  135.3217  154.7707 H   0  0  0  0  0  0  0  0  0  0  0  0  # atno 10763 bound_to 10752
  153.8390  135.6872  153.4809 H   0  0  0  0  0  0  0  0  0  0  0  0  # atno 10764 bound_to 10752
  153.1625  135.4655  154.9733 H   0  0  0  0  0  0  0  0  0  0  0  0  # atno 10765 bound_to 10752
  140.2172  134.3684  155.8021 H   0  0  0  0  0  0  0  0  0  0  0  0  # atno 11005 bound_to 11000
  146.3511  140.1350  142.8596 LP  0  0  0  0  0  0  0  0  0  0  0  0  # atno 17320 bound_to 7965
  145.0604  140.9083  143.4942 LP  0  0  0  0  0  0  0  0  0  0  0  0  # atno 17321 bound_to 7965
  140.2882  144.3784  150.6097 LP  0  0  0  0  0  0  0  0  0  0  0  0  # atno 17342 bound_to 10162
  140.5967  143.2167  151.7151 LP  0  0  0  0  0  0  0  0  0  0  0  0  # atno 17343 bound_to 10162
  156.2806  130.7069  151.1892 LP  0  0  0  0  0  0  0  0  0  0  0  0  # atno 17370 bound_to 10713
  157.7370  131.0556  150.5380 LP  0  0  0  0  0  0  0  0  0  0  0  0  # atno 17371 bound_to 10713
  141.2224  133.7174  156.8516 LP  0  0  0  0  0  0  0  0  0  0  0  0  # atno 17394 bound_to 11000
  140.1888  134.8980  157.3036 LP  0  0  0  0  0  0  0  0  0  0  0  0  # atno 17395 bound_to 11000

$$$$
