AV-unprocessed.smi:756|AV-procd|sdf|3613|dock1
  -GOLD-   22720 1 13D 1   1.00000     0.00000
 Structure written by MMmdl.
 42 43  0  0  0  0  0  0  0  0  1 V2000
  152.7953  143.9287  159.6334 C   0  0  0  0  0  0  0  0  0  0  0  0
  153.0854  142.4476  159.8034 C   0  0  0  0  0  0  0  0  0  0  0  0
  153.9960  141.9227  160.6300 C   0  0  0  0  0  0  0  0  0  0  0  0
  154.0216  140.1768  160.5856 S   0  0  0  0  0  0  0  0  0  0  0  0
  152.7002  140.1797  159.3632 C   0  0  0  0  0  0  0  0  0  0  0  0
  152.2267  139.1479  158.8895 O   0  0  0  0  0  0  0  0  0  0  0  0
  152.3495  141.4992  159.0793 N   0  0  0  0  0  0  0  0  0  0  0  0
  151.3049  141.8491  158.1077 C   0  0  0  0  0  0  0  0  0  0  0  0
  151.1798  140.8333  156.9648 C   0  0  0  0  0  0  0  0  0  0  0  0
  152.1741  140.2734  156.5006 O   0  0  0  0  0  0  0  0  0  0  0  0
  149.9357  140.5927  156.5298 N   0  0  0  0  0  0  0  0  0  0  0  0
  149.5977  139.6567  155.4627 C   0  0  0  0  0  0  0  0  0  0  0  0
  148.7229  140.2975  154.3551 C   0  0  2  0  0  0  0  0  0  0  0  0
  147.8336  139.2527  153.6453 C   0  0  0  0  0  0  0  0  0  0  0  0
  149.5991  140.8474  153.3875 O   0  0  0  0  0  0  0  0  0  0  0  0
  147.8570  141.4456  154.9519 C   0  0  0  0  0  0  0  0  0  0  0  0
  146.8473  141.0406  156.0359 C   0  0  0  0  0  0  0  0  0  0  0  0
  145.9149  142.2468  156.1552 C   0  0  0  0  0  0  0  0  0  0  0  0
  145.8738  142.8854  154.7607 C   0  0  0  0  0  0  0  0  0  0  0  0
  146.9964  142.2288  153.9447 C   0  0  0  0  0  0  0  0  0  0  0  0
  153.2396  144.4987  160.4498 H   0  0  0  0  0  0  0  0  0  0  0  0
  151.7238  144.1287  159.6393 H   0  0  0  0  0  0  0  0  0  0  0  0
  153.2173  144.2938  158.6971 H   0  0  0  0  0  0  0  0  0  0  0  0
  154.6587  142.4700  161.2841 H   0  0  0  0  0  0  0  0  0  0  0  0
  150.3360  141.9643  158.5930 H   0  0  0  0  0  0  0  0  0  0  0  0
  151.5288  142.8282  157.6802 H   0  0  0  0  0  0  0  0  0  0  0  0
  149.1687  141.0806  156.9693 H   0  0  0  0  0  0  0  0  0  0  0  0
  150.5260  139.2925  155.0189 H   0  0  0  0  0  0  0  0  0  0  0  0
  149.1002  138.7903  155.9014 H   0  0  0  0  0  0  0  0  0  0  0  0
  147.1466  138.7813  154.3490 H   0  0  0  0  0  0  0  0  0  0  0  0
  148.4201  138.4613  153.1781 H   0  0  0  0  0  0  0  0  0  0  0  0
  147.2352  139.7017  152.8527 H   0  0  0  0  0  0  0  0  0  0  0  0
  149.6778  140.2350  152.6720 H   0  0  0  0  0  0  0  0  0  0  0  0
  148.5366  142.1655  155.4117 H   0  0  0  0  0  0  0  0  0  0  0  0
  146.2720  140.1690  155.7221 H   0  0  0  0  0  0  0  0  0  0  0  0
  147.3216  140.8011  156.9878 H   0  0  0  0  0  0  0  0  0  0  0  0
  144.9239  141.9673  156.5143 H   0  0  0  0  0  0  0  0  0  0  0  0
  146.3315  142.9602  156.8678 H   0  0  0  0  0  0  0  0  0  0  0  0
  144.9085  142.7191  154.2811 H   0  0  0  0  0  0  0  0  0  0  0  0
  146.0187  143.9639  154.8323 H   0  0  0  0  0  0  0  0  0  0  0  0
  147.5808  142.9663  153.3937 H   0  0  0  0  0  0  0  0  0  0  0  0
  146.5532  141.5548  153.2108 H   0  0  0  0  0  0  0  0  0  0  0  0
  1  2  1  0  0  0  0
  1 21  1  0  0  0  0
  1 22  1  0  0  0  0
  1 23  1  0  0  0  0
  2  7  1  0  0  0  0
  2  3  2  0  0  0  0
  3  4  1  0  0  0  0
  3 24  1  0  0  0  0
  4  5  1  0  0  0  0
  5  6  2  0  0  0  0
  5  7  1  0  0  0  0
  7  8  1  0  0  0  0
  8  9  1  0  0  0  0
  8 25  1  0  0  0  0
  8 26  1  0  0  0  0
  9 10  2  0  0  0  0
  9 11  1  0  0  0  0
 11 12  1  0  0  0  0
 11 27  1  0  0  0  0
 12 13  1  0  0  0  0
 12 28  1  0  0  0  0
 12 29  1  0  0  0  0
 13 14  1  0  0  0  0
 13 15  1  0  0  0  0
 13 16  1  0  0  0  0
 14 30  1  0  0  0  0
 14 31  1  0  0  0  0
 14 32  1  0  0  0  0
 15 33  1  0  0  0  0
 16 20  1  0  0  0  0
 16 17  1  0  0  0  0
 16 34  1  0  0  0  0
 17 18  1  0  0  0  0
 17 35  1  0  0  0  0
 17 36  1  0  0  0  0
 18 19  1  0  0  0  0
 18 37  1  0  0  0  0
 18 38  1  0  0  0  0
 19 20  1  0  0  0  0
 19 39  1  0  0  0  0
 19 40  1  0  0  0  0
 20 41  1  0  0  0  0
 20 42  1  0  0  0  0
M  END
> <s_m_source_file>
AV-unprocessed.smi

> <i_m_source_file_index>
756

> <i_lp_mmshare_version>
43012

> <i_f3d_flags>
0

> <s_epik_input>
W0NIM11jMVtjSF1zYyg9TyluMVtDSDJdQyg9TylbTkhdW0NIMl1bQ0BAXShbQ0gzXSkoW09IXSlbQ0hdMltDSDJdW0NIMl1bQ0gyXVtDSDJdMg==

> <s_epik_cmdline>
J2VwaWtfcHl0aG9uJywgJy1waCcsICc3LjAnLCAnLXRuJywgJzgnLCAnLW1hJywgJzIwMCcsICctbWV0YWxfYmluZGluZycsICctaW1hZScsICc8aW5maWxlLm1hZT4nLCAnLW9tYWUnLCAnPG91dGZpbGUubWFlPic=

> <r_lp_tautomer_probability>
1

> <r_epik_Ionization_Penalty>
1.53576e-06

> <r_epik_Ionization_Penalty_Charging>
1.31044e-06

> <r_epik_Ionization_Penalty_Neutral>
2.25323e-07

> <r_epik_State_Penalty>
-0

> <r_epik_Charging_Adjusted_Penalty>
1.31044e-06

> <i_epik_Tot_Q>
0

> <i_epik_Tot_abs_Q>
0

> <r_epik_Metal_State_Penalty>
-0

> <b_epik_Metal_Only>
0

> <s_lp_Force_Field>
OPLS_2005

> <r_lp_Energy>
32.7074

> <b_lp_Chiralities_Consistent>
1

> <s_lp_Variant>
AV-unprocessed.smi:756-2

> <Gold.Version>
5.8.1

> <Gold.Id.Protein>
6NUR|6NUR_protein|mol2

> <Gold.PLP.Fitness>
45.5034

> <Gold.PLP.PLP>
-40.5844

> <Gold.PLP.part.hbond>
-3.0981

> <Gold.PLP.part.metal>
0.0000

> <Gold.PLP.part.buried>
-5.1380

> <Gold.PLP.part.nonpolar>
-32.2431

> <Gold.PLP.part.repulsive>
0.0319

> <Gold.PLP.ligand.clash>
0.1614

> <Gold.PLP.ligand.torsion>
1.2825

> <Gold.PLP.Chemscore.Hbond>
2.4777

> <Gold.PLP.Chemscore.CHOScore>
0.0000

> <Gold.PLP.Chemscore.Metal>
0.0000

> <Gold.Chemscore.Hbonds>
donor molecule, donor type, donor heavy atom, donor atom, acceptor molecule, acceptor atom, score
      L1  H    15    33       P1  7957  0.89
      P1  H  7989  7998       L1    15  0.10
      P1  H  7997  8008       L1    10  0.67
      P1  H  8011  8017       L1    15  0.80

> <Gold.PLP.Chemscore.Internal.Correction>
0.2124

> <Gold.Rescore>
     Score         DG    S(hbond)    S(metal)    S(lipo)     H(rot)  DE(clash)    DE(int)     intcor
     13.95     -16.24       1.88        0.00      90.23       2.37       0.06       2.23       ----

> <Gold.Chemscore.Fitness>
13.9506

> <Gold.Chemscore.DG>
-16.2367

> <Gold.Chemscore.ZeroCoef>
-5.4800

> <Gold.Chemscore.Hbond>
1.8778

> <Gold.Chemscore.Metal>
0.0000

> <Gold.Chemscore.Lipo>
90.2257

> <Gold.Chemscore.Internal_Hbond>
0.0000

> <Gold.Chemscore.DEClash>
0.0602

> <Gold.Chemscore.DEInternal>
2.2260

> <Gold.Chemscore.Rot>
2.3717

> <Gold.Chemscore.Internal.Correction>
   9.000000E+99

> <Gold.Chemscore.Hbonds>
donor molecule, donor type, donor heavy atom, donor atom, acceptor molecule, acceptor atom, score
      L1  H    15    33       P1  7957  0.83
      P1  H  7997  8008       L1    10  0.65
      P1  H  8011  8017       L1    15  0.12

> <Gold.Chemscore.Hbond.Weighted>
-6.2719

> <Gold.Chemscore.Metal.Weighted>
-0.0000

> <Gold.Chemscore.Lipo.Weighted>
-10.5564

> <Gold.Chemscore.Internal_Hbond.Weighted>
0.0000

> <Gold.Chemscore.DEClash.Weighted>
0.0602

> <Gold.Chemscore.DEInternal.Weighted>
2.2260

> <Gold.Chemscore.Rot.Weighted>
6.0715

> <Gold.Chemscore.Internal.Correction.Weighted>
   9.000000E+99

> <Gold.Protein.RotatedTorsions>
[ 6907 6896 6895 6894 ] final   93.50 input  -60.11 | X-H torsion
[ 7974 7965 7964 7962 ] final -165.03 input  175.53 | X-H torsion
[ 8008 7997 7996 7995 ] final  -48.00 input   59.86 | X-H torsion
[ 10167 10162 10161 10158 ] final -109.06 input  -65.29 | X-H torsion
[ 10718 10713 10712 10709 ] final -155.95 input   66.30 | X-H torsion
[ 10763 10752 10751 10750 ] final  155.74 input  -60.55 | X-H torsion
[ 11005 11000 10999 10996 ] final  -22.50 input  -57.11 | X-H torsion

> <Gold.Protein.ActiveResidues>
 VAL166  LYS551  ARG553  GLY616  TRP617  ASP618  TYR619  PRO620  LYS621  CYS622 
 ASP623  PHE694  ASN695  SER759  ASP760  ASP761  ALA762  ILE779  LEU786  VAL792 
 PHE793  MET794  SER795  GLU796  ALA797  LYS798  CYS799  TRP800  GLU811  SER814 

> <Gold.Protein.RotatedAtoms>
  152.5452  134.1339  159.8450 H   0  0  0  0  0  0  0  0  0  0  0  0  # atno 6907 bound_to 6896
  151.1382  133.4982  159.2605 H   0  0  0  0  0  0  0  0  0  0  0  0  # atno 6908 bound_to 6896
  151.1602  135.0280  159.8761 H   0  0  0  0  0  0  0  0  0  0  0  0  # atno 6909 bound_to 6896
  144.7281  140.2874  143.6226 H   0  0  0  0  0  0  0  0  0  0  0  0  # atno 7974 bound_to 7965
  154.4023  140.1332  156.4268 H   0  0  0  0  0  0  0  0  0  0  0  0  # atno 8008 bound_to 7997
  155.7590  140.3486  155.5168 H   0  0  0  0  0  0  0  0  0  0  0  0  # atno 8009 bound_to 7997
  155.8877  140.0998  157.1431 H   0  0  0  0  0  0  0  0  0  0  0  0  # atno 8010 bound_to 7997
  140.1594  143.4133  152.1437 H   0  0  0  0  0  0  0  0  0  0  0  0  # atno 10167 bound_to 10162
  156.5199  130.8473  151.2678 H   0  0  0  0  0  0  0  0  0  0  0  0  # atno 10718 bound_to 10713
  154.1731  135.2803  155.3075 H   0  0  0  0  0  0  0  0  0  0  0  0  # atno 10763 bound_to 10752
  154.6060  135.5514  153.7426 H   0  0  0  0  0  0  0  0  0  0  0  0  # atno 10764 bound_to 10752
  153.0159  135.6403  154.1871 H   0  0  0  0  0  0  0  0  0  0  0  0  # atno 10765 bound_to 10752
  140.8663  133.7752  156.0134 H   0  0  0  0  0  0  0  0  0  0  0  0  # atno 11005 bound_to 11000
  145.7889  139.1919  143.2114 LP  0  0  0  0  0  0  0  0  0  0  0  0  # atno 17320 bound_to 7965
  146.0773  140.7803  142.9659 LP  0  0  0  0  0  0  0  0  0  0  0  0  # atno 17321 bound_to 7965
  139.5388  144.7236  151.4802 LP  0  0  0  0  0  0  0  0  0  0  0  0  # atno 17342 bound_to 10162
  140.6653  143.8412  150.6934 LP  0  0  0  0  0  0  0  0  0  0  0  0  # atno 17343 bound_to 10162
  157.7438  130.9921  150.2624 LP  0  0  0  0  0  0  0  0  0  0  0  0  # atno 17370 bound_to 10713
  156.3159  130.3779  149.7618 LP  0  0  0  0  0  0  0  0  0  0  0  0  # atno 17371 bound_to 10713
  140.8625  134.2824  157.5228 LP  0  0  0  0  0  0  0  0  0  0  0  0  # atno 17394 bound_to 11000
  139.8709  134.9525  156.4118 LP  0  0  0  0  0  0  0  0  0  0  0  0  # atno 17395 bound_to 11000

$$$$
