AV-unprocessed.smi:72|AV-procd|sdf|744|dock9
  -GOLD-   2262017 73D 1   1.00000     0.00000
 Structure written by MMmdl.
 29 30  0  0  0  0  0  0  0  0  1 V2000
  153.0009  139.2293  159.4772 N   0  0  0  0  0  0  0  0  0  0  0  0
  152.2477  139.4590  158.3451 C   0  0  0  0  0  0  0  0  0  0  0  0
  150.8611  139.5491  158.5279 N   0  0  0  0  0  0  0  0  0  0  0  0
  150.1481  139.7621  157.4674 C   0  0  0  0  0  0  0  0  0  0  0  0
  150.7651  139.8984  156.1584 N   0  0  0  0  0  0  0  0  0  0  0  0
  149.9558  140.1487  154.8977 C   0  0  1  0  0  0  0  0  0  0  0  0
  148.7978  139.3624  154.9089 O   0  0  0  0  0  0  0  0  0  0  0  0
  147.6482  140.1803  155.1118 C   0  0  2  0  0  0  0  0  0  0  0  0
  146.4055  139.4834  154.5374 C   0  0  0  0  0  0  0  0  0  0  0  0
  145.3457  140.4073  154.4125 O   0  0  0  0  0  0  0  0  0  0  0  0
  148.0397  141.4539  154.3638 C   0  0  1  0  0  0  0  0  0  0  0  0
  147.2380  142.5690  154.7059 O   0  0  0  0  0  0  0  0  0  0  0  0
  149.5093  141.6218  154.7379 C   0  0  1  0  0  0  0  0  0  0  0  0
  149.6750  142.3994  155.9146 O   0  0  0  0  0  0  0  0  0  0  0  0
  152.1796  139.8023  156.0487 C   0  0  0  0  0  0  0  0  0  0  0  0
  152.7234  139.9315  154.9516 O   0  0  0  0  0  0  0  0  0  0  0  0
  152.9019  139.5690  157.2247 N   0  0  0  0  0  0  0  0  0  0  0  0
  150.5784  139.7957  154.0738 H   0  0  0  0  0  0  0  0  0  0  0  0
  147.5239  140.4017  156.1735 H   0  0  0  0  0  0  0  0  0  0  0  0
  147.9643  141.2818  153.2889 H   0  0  0  0  0  0  0  0  0  0  0  0
  150.0760  142.0901  153.9326 H   0  0  0  0  0  0  0  0  0  0  0  0
  154.0070  139.1466  159.4660 H   0  0  0  0  0  0  0  0  0  0  0  0
  152.6033  139.1287  160.3998 H   0  0  0  0  0  0  0  0  0  0  0  0
  149.0622  139.8513  157.4942 H   0  0  0  0  0  0  0  0  0  0  0  0
  146.6194  139.0960  153.5408 H   0  0  0  0  0  0  0  0  0  0  0  0
  146.1024  138.6381  155.1557 H   0  0  0  0  0  0  0  0  0  0  0  0
  144.7999  140.1426  153.6879 H   0  0  0  0  0  0  0  0  0  0  0  0
  147.8047  143.2659  154.9995 H   0  0  0  0  0  0  0  0  0  0  0  0
  149.3264  143.2631  155.7543 H   0  0  0  0  0  0  0  0  0  0  0  0
  1  2  1  0  0  0  0
  1 22  1  0  0  0  0
  1 23  1  0  0  0  0
  2 17  2  0  0  0  0
  2  3  1  0  0  0  0
  3  4  2  0  0  0  0
  4  5  1  0  0  0  0
  4 24  1  0  0  0  0
  5  6  1  0  0  0  0
  5 15  1  0  0  0  0
  6 18  1  0  0  0  0
  6 13  1  0  0  0  0
  6  7  1  0  0  0  0
  7  8  1  0  0  0  0
  8 19  1  0  0  0  0
  8  9  1  0  0  0  0
  8 11  1  0  0  0  0
  9 10  1  0  0  0  0
  9 25  1  0  0  0  0
  9 26  1  0  0  0  0
 10 27  1  0  0  0  0
 11 20  1  0  0  0  0
 11 12  1  0  0  0  0
 11 13  1  0  0  0  0
 12 28  1  0  0  0  0
 13 21  1  0  0  0  0
 13 14  1  0  0  0  0
 14 29  1  0  0  0  0
 15 16  2  0  0  0  0
 15 17  1  0  0  0  0
M  END
> <s_m_source_file>
AV-unprocessed.smi

> <i_m_source_file_index>
72

> <i_lp_mmshare_version>
43012

> <i_f3d_flags>
0

> <s_epik_input>
W05IMl1jMW5bY0hdbihjKD1PKW4xKVtDQEBIXTJPW0NASF0oW0NIMl1bT0hdKVtDQEBIXShbT0hdKVtDQEhdMltPSF0=

> <s_epik_cmdline>
J2VwaWtfcHl0aG9uJywgJy1waCcsICc3LjAnLCAnLXRuJywgJzgnLCAnLW1hJywgJzIwMCcsICctbWV0YWxfYmluZGluZycsICctaW1hZScsICc8aW5maWxlLm1hZT4nLCAnLW9tYWUnLCAnPG91dGZpbGUubWFlPic=

> <r_lp_tautomer_probability>
4.77166e-05

> <r_epik_Ionization_Penalty>
1.3546

> <r_epik_Ionization_Penalty_Charging>
1.46833e-10

> <r_epik_Ionization_Penalty_Neutral>
1.3546

> <r_epik_State_Penalty>
3.51908

> <r_epik_Charging_Adjusted_Penalty>
3.51908

> <i_epik_Tot_Q>
0

> <i_epik_Tot_abs_Q>
0

> <r_epik_Metal_State_Penalty>
3.44088

> <b_epik_Metal_Only>
1

> <s_epik_Chemistry_Notes>
This compound contains an acetal/aminal-like group ( X-CH(R)-Y where X, Y are N, S, or O) that may be acid/base labile, releasing an aldehyde.

> <s_lp_Force_Field>
OPLS_2005

> <r_lp_Energy>
34.5765

> <b_lp_Chiralities_Consistent>
1

> <s_lp_Variant>
AV-unprocessed.smi:72-82

> <Gold.Version>
5.8.1

> <Gold.Id.Protein>
6NUR|6NUR_protein|mol2

> <Gold.PLP.Fitness>
34.0905

> <Gold.PLP.PLP>
-23.3578

> <Gold.PLP.part.hbond>
-5.7718

> <Gold.PLP.part.metal>
0.0000

> <Gold.PLP.part.buried>
-3.1504

> <Gold.PLP.part.nonpolar>
-14.8186

> <Gold.PLP.part.repulsive>
0.1989

> <Gold.PLP.ligand.clash>
0.0000

> <Gold.PLP.ligand.torsion>
0.5943

> <Gold.PLP.Chemscore.Hbond>
3.9530

> <Gold.PLP.Chemscore.CHOScore>
0.0000

> <Gold.PLP.Chemscore.Metal>
0.0000

> <Gold.Chemscore.Hbonds>
donor molecule, donor type, donor heavy atom, donor atom, acceptor molecule, acceptor atom, score
      L1  H    10    27       P1 10175  1.00
      L1  H    12    28       P1  8028  1.00
      L1  H    14    29       P1  8028  0.99
      P1  H  7989  7998       L1    16  0.48
      P1  H  7997  8009       L1    16  0.35

> <Gold.PLP.Chemscore.Internal.Correction>
0.0623

> <Gold.Rescore>
     Score         DG    S(hbond)    S(metal)    S(lipo)     H(rot)  DE(clash)    DE(int)     intcor
      9.79     -10.66       3.87        0.00      22.73       4.06       0.20       0.67       ----

> <Gold.Chemscore.Fitness>
9.7904

> <Gold.Chemscore.DG>
-10.6625

> <Gold.Chemscore.ZeroCoef>
-5.4800

> <Gold.Chemscore.Hbond>
3.8671

> <Gold.Chemscore.Metal>
0.0000

> <Gold.Chemscore.Lipo>
22.7349

> <Gold.Chemscore.Internal_Hbond>
0.0000

> <Gold.Chemscore.DEClash>
0.1973

> <Gold.Chemscore.DEInternal>
0.6748

> <Gold.Chemscore.Rot>
4.0600

> <Gold.Chemscore.Internal.Correction>
   9.000000E+99

> <Gold.Chemscore.Hbonds>
donor molecule, donor type, donor heavy atom, donor atom, acceptor molecule, acceptor atom, score
      L1  H    10    27       P1 10175  0.95
      L1  H    12    28       P1  8028  0.60
      L1  H    14    29       P1  8028  0.92
      P1  H  7989  7998       L1    16  0.44
      P1  H  7997  8009       L1    16  0.01

> <Gold.Chemscore.Hbond.Weighted>
-12.9161

> <Gold.Chemscore.Metal.Weighted>
-0.0000

> <Gold.Chemscore.Lipo.Weighted>
-2.6600

> <Gold.Chemscore.Internal_Hbond.Weighted>
0.0000

> <Gold.Chemscore.DEClash.Weighted>
0.1973

> <Gold.Chemscore.DEInternal.Weighted>
0.6748

> <Gold.Chemscore.Rot.Weighted>
10.3936

> <Gold.Chemscore.Internal.Correction.Weighted>
   9.000000E+99

> <Gold.Protein.RotatedTorsions>
[ 6907 6896 6895 6894 ] final  -79.06 input  -60.11 | X-H torsion
[ 7974 7965 7964 7962 ] final -117.14 input  175.53 | X-H torsion
[ 8008 7997 7996 7995 ] final -139.19 input   59.86 | X-H torsion
[ 10167 10162 10161 10158 ] final   16.85 input  -65.29 | X-H torsion
[ 10718 10713 10712 10709 ] final   -3.46 input   66.30 | X-H torsion
[ 10763 10752 10751 10750 ] final  105.49 input  -60.55 | X-H torsion
[ 11005 11000 10999 10996 ] final   79.16 input  -57.11 | X-H torsion

> <Gold.Protein.ActiveResidues>
 VAL166  LYS551  ARG553  GLY616  TRP617  ASP618  TYR619  PRO620  LYS621  CYS622 
 ASP623  PHE694  ASN695  SER759  ASP760  ASP761  ALA762  ILE779  LEU786  VAL792 
 PHE793  MET794  SER795  GLU796  ALA797  LYS798  CYS799  TRP800  GLU811  SER814 

> <Gold.Protein.RotatedAtoms>
  150.6958  134.4179  159.5191 H   0  0  0  0  0  0  0  0  0  0  0  0  # atno 6907 bound_to 6896
  152.1926  134.8655  160.0525 H   0  0  0  0  0  0  0  0  0  0  0  0  # atno 6908 bound_to 6896
  151.9605  133.3659  159.4070 H   0  0  0  0  0  0  0  0  0  0  0  0  # atno 6909 bound_to 6896
  145.0886  140.8475  143.3996 H   0  0  0  0  0  0  0  0  0  0  0  0  # atno 7974 bound_to 7965
  155.4408  140.0531  157.3010 H   0  0  0  0  0  0  0  0  0  0  0  0  # atno 8008 bound_to 7997
  154.4819  140.2085  155.9702 H   0  0  0  0  0  0  0  0  0  0  0  0  # atno 8009 bound_to 7997
  156.1218  140.3187  155.8224 H   0  0  0  0  0  0  0  0  0  0  0  0  # atno 8010 bound_to 7997
  140.5768  143.9057  150.6756 H   0  0  0  0  0  0  0  0  0  0  0  0  # atno 10167 bound_to 10162
  156.7757  130.5314  149.5759 H   0  0  0  0  0  0  0  0  0  0  0  0  # atno 10718 bound_to 10713
  153.3801  135.3908  155.1851 H   0  0  0  0  0  0  0  0  0  0  0  0  # atno 10763 bound_to 10752
  154.8706  135.3723  154.4867 H   0  0  0  0  0  0  0  0  0  0  0  0  # atno 10764 bound_to 10752
  153.5343  135.7085  153.5728 H   0  0  0  0  0  0  0  0  0  0  0  0  # atno 10765 bound_to 10752
  139.9183  134.7821  156.1743 H   0  0  0  0  0  0  0  0  0  0  0  0  # atno 11005 bound_to 11000
  145.1092  139.2768  143.5646 LP  0  0  0  0  0  0  0  0  0  0  0  0  # atno 17320 bound_to 7965
  146.3531  140.0683  142.8625 LP  0  0  0  0  0  0  0  0  0  0  0  0  # atno 17321 bound_to 7965
  140.2546  143.3568  152.1375 LP  0  0  0  0  0  0  0  0  0  0  0  0  # atno 17342 bound_to 10162
  139.5147  144.6952  151.5650 LP  0  0  0  0  0  0  0  0  0  0  0  0  # atno 17343 bound_to 10162
  156.1250  130.6137  151.0250 LP  0  0  0  0  0  0  0  0  0  0  0  0  # atno 17370 bound_to 10713
  157.6670  131.0869  150.7704 LP  0  0  0  0  0  0  0  0  0  0  0  0  # atno 17371 bound_to 10713
  141.0681  133.6809  156.2085 LP  0  0  0  0  0  0  0  0  0  0  0  0  # atno 17394 bound_to 11000
  140.6552  134.5026  157.5580 LP  0  0  0  0  0  0  0  0  0  0  0  0  # atno 17395 bound_to 11000

$$$$
