AV-unprocessed.smi:1027|AV-procd|sdf|4472|dock5
  -GOLD-   22720 2443D 1   1.00000     0.00000
 Structure written by MMmdl.
 34 35  0  0  0  0  0  0  0  0  2 V2000
  152.9264  144.7039  157.9806 C   0  0  0  0  0  0  0  0  0  0  0  0
  152.0497  144.3736  159.2047 C   0  0  0  0  0  0  0  0  0  0  0  0
  151.4922  145.6787  159.8013 C   0  0  0  0  0  0  0  0  0  0  0  0
  152.8068  143.5178  160.2549 C   0  0  1  0  0  0  0  0  0  0  0  0
  152.0903  143.4515  161.6173 C   0  0  0  0  0  0  0  0  0  0  0  0
  152.9937  142.1557  159.7531 N   0  0  0  0  0  0  0  0  0  0  0  0
  153.5082  141.1192  160.4313 C   0  0  0  0  0  0  0  0  0  0  0  0
  153.8655  141.2636  161.6026 O   0  0  0  0  0  0  0  0  0  0  0  0
  153.5773  139.9781  159.7083 N   0  5  0  0  0  0  0  0  0  0  0  0
  153.5709  138.7879  160.3310 C   0  0  0  0  0  0  0  0  0  0  0  0
  153.1921  137.6578  159.7177 N   0  0  0  0  0  0  0  0  0  0  0  0
  153.2617  136.5426  160.5399 N   0  0  0  0  0  0  0  0  0  0  0  0
  153.7008  136.8458  161.7639 C   0  0  0  0  0  0  0  0  0  0  0  0
  153.8594  135.8177  162.8337 C   0  0  0  0  0  0  0  0  0  0  0  0
  153.1620  135.9750  164.1655 C   0  0  0  0  0  0  0  0  0  0  0  0
  154.6622  136.0954  164.0857 C   0  0  0  0  0  0  0  0  0  0  0  0
  154.0760  138.5451  162.0028 S   0  0  0  0  0  0  0  0  0  0  0  0
  153.8248  145.2472  158.2748 H   0  0  0  0  0  0  0  0  0  0  0  0
  152.3845  145.3225  157.2646 H   0  0  0  0  0  0  0  0  0  0  0  0
  153.2405  143.8055  157.4489 H   0  0  0  0  0  0  0  0  0  0  0  0
  151.2001  143.7915  158.8447 H   0  0  0  0  0  0  0  0  0  0  0  0
  152.2856  146.2829  160.2424 H   0  0  0  0  0  0  0  0  0  0  0  0
  150.7469  145.4871  160.5723 H   0  0  0  0  0  0  0  0  0  0  0  0
  151.0039  146.2824  159.0359 H   0  0  0  0  0  0  0  0  0  0  0  0
  153.7874  143.9725  160.4079 H   0  0  0  0  0  0  0  0  0  0  0  0
  152.0347  144.4297  162.0939 H   0  0  0  0  0  0  0  0  0  0  0  0
  152.6202  142.7957  162.3089 H   0  0  0  0  0  0  0  0  0  0  0  0
  151.0744  143.0690  161.5128 H   0  0  0  0  0  0  0  0  0  0  0  0
  152.7152  141.9844  158.7983 H   0  0  0  0  0  0  0  0  0  0  0  0
  153.9187  134.8204  162.4026 H   0  0  0  0  0  0  0  0  0  0  0  0
  152.5939  136.8878  164.3338 H   0  0  0  0  0  0  0  0  0  0  0  0
  152.7521  135.0783  164.6253 H   0  0  0  0  0  0  0  0  0  0  0  0
  155.2542  135.2782  164.4927 H   0  0  0  0  0  0  0  0  0  0  0  0
  155.0881  137.0883  164.2148 H   0  0  0  0  0  0  0  0  0  0  0  0
  1  2  1  0  0  0  0
  1 18  1  0  0  0  0
  1 19  1  0  0  0  0
  1 20  1  0  0  0  0
  2  3  1  0  0  0  0
  2  4  1  0  0  0  0
  2 21  1  0  0  0  0
  3 22  1  0  0  0  0
  3 23  1  0  0  0  0
  3 24  1  0  0  0  0
  4  5  1  0  0  0  0
  4  6  1  0  0  0  0
  4 25  1  0  0  0  0
  5 26  1  0  0  0  0
  5 27  1  0  0  0  0
  5 28  1  0  0  0  0
  6  7  1  0  0  0  0
  6 29  1  0  0  0  0
  7  8  2  0  0  0  0
  7  9  1  0  0  0  0
  9 10  1  0  0  0  0
 10 17  1  0  0  0  0
 10 11  2  0  0  0  0
 11 12  1  0  0  0  0
 12 13  2  0  0  0  0
 13 14  1  0  0  0  0
 13 17  1  0  0  0  0
 14 16  1  0  0  0  0
 14 15  1  0  0  0  0
 14 30  1  0  0  0  0
 15 16  1  0  0  0  0
 15 31  1  0  0  0  0
 15 32  1  0  0  0  0
 16 33  1  0  0  0  0
 16 34  1  0  0  0  0
M  CHG  1   9  -1
M  END
> <s_m_source_file>
AV-unprocessed.smi

> <i_m_source_file_index>
1027

> <i_lp_mmshare_version>
43012

> <i_f3d_flags>
0

> <s_epik_input>
W0NIM11bQ0hdKFtDSDNdKVtDQEhdKFtDSDNdKVtOSF1DKD1PKVtOSF1jMW5uYyhzMSlbQ0hdMltDSDJdW0NIMl0y

> <s_epik_cmdline>
J2VwaWtfcHl0aG9uJywgJy1waCcsICc3LjAnLCAnLXRuJywgJzgnLCAnLW1hJywgJzIwMCcsICctbWV0YWxfYmluZGluZycsICctaW1hZScsICc8aW5maWxlLm1hZT4nLCAnLW9tYWUnLCAnPG91dGZpbGUubWFlPic=

> <r_lp_tautomer_probability>
1

> <r_epik_Ionization_Penalty>
3.99975

> <r_epik_Ionization_Penalty_Charging>
3.83446

> <r_epik_Ionization_Penalty_Neutral>
0.165297

> <r_epik_State_Penalty>
3.83354

> <r_epik_Charging_Adjusted_Penalty>
7.668

> <i_epik_Tot_Q>
-1

> <i_epik_Tot_abs_Q>
1

> <r_epik_Metal_State_Penalty>
0.575872

> <b_epik_Metal_Only>
1

> <s_lp_Force_Field>
OPLS_2005

> <r_lp_Energy>
2.2869

> <b_lp_Chiralities_Consistent>
1

> <s_lp_Variant>
AV-unprocessed.smi:1027-4

> <Gold.Version>
5.8.1

> <Gold.Id.Protein>
6NUR|6NUR_protein|mol2

> <Gold.PLP.Fitness>
43.0247

> <Gold.PLP.PLP>
-41.3512

> <Gold.PLP.part.hbond>
-1.0762

> <Gold.PLP.part.metal>
0.0000

> <Gold.PLP.part.buried>
-6.2176

> <Gold.PLP.part.nonpolar>
-34.7924

> <Gold.PLP.part.repulsive>
0.0682

> <Gold.PLP.ligand.clash>
0.0000

> <Gold.PLP.ligand.torsion>
0.7407

> <Gold.PLP.Chemscore.Hbond>
0.9913

> <Gold.PLP.Chemscore.CHOScore>
0.0000

> <Gold.PLP.Chemscore.Metal>
0.0000

> <Gold.Chemscore.Hbonds>
donor molecule, donor type, donor heavy atom, donor atom, acceptor molecule, acceptor atom, score
      P1  H  6896  6908       L1    12  1.00

> <Gold.PLP.Chemscore.Internal.Correction>
0.1811

> <Gold.Rescore>
     Score         DG    S(hbond)    S(metal)    S(lipo)     H(rot)  DE(clash)    DE(int)     intcor
     14.90     -17.05       0.98        0.00     100.80       1.36       0.08       2.07       ----

> <Gold.Chemscore.Fitness>
14.9027

> <Gold.Chemscore.DG>
-17.0469

> <Gold.Chemscore.ZeroCoef>
-5.4800

> <Gold.Chemscore.Hbond>
0.9758

> <Gold.Chemscore.Metal>
0.0000

> <Gold.Chemscore.Lipo>
100.8044

> <Gold.Chemscore.Internal_Hbond>
0.0000

> <Gold.Chemscore.DEClash>
0.0777

> <Gold.Chemscore.DEInternal>
2.0666

> <Gold.Chemscore.Rot>
1.3618

> <Gold.Chemscore.Internal.Correction>
   9.000000E+99

> <Gold.Chemscore.Hbonds>
donor molecule, donor type, donor heavy atom, donor atom, acceptor molecule, acceptor atom, score
      P1  H  6896  6908       L1    12  0.95

> <Gold.Chemscore.Hbond.Weighted>
-3.2591

> <Gold.Chemscore.Metal.Weighted>
-0.0000

> <Gold.Chemscore.Lipo.Weighted>
-11.7941

> <Gold.Chemscore.Internal_Hbond.Weighted>
0.0000

> <Gold.Chemscore.DEClash.Weighted>
0.0777

> <Gold.Chemscore.DEInternal.Weighted>
2.0666

> <Gold.Chemscore.Rot.Weighted>
3.4863

> <Gold.Chemscore.Internal.Correction.Weighted>
   9.000000E+99

> <Gold.Protein.RotatedTorsions>
[ 6907 6896 6895 6894 ] final  -79.81 input  -60.11 | X-H torsion
[ 7974 7965 7964 7962 ] final  148.75 input  175.53 | X-H torsion
[ 8008 7997 7996 7995 ] final   36.60 input   59.86 | X-H torsion
[ 10167 10162 10161 10158 ] final -143.66 input  -65.29 | X-H torsion
[ 10718 10713 10712 10709 ] final -140.54 input   66.30 | X-H torsion
[ 10763 10752 10751 10750 ] final   51.03 input  -60.55 | X-H torsion
[ 11005 11000 10999 10996 ] final  -46.32 input  -57.11 | X-H torsion

> <Gold.Protein.ActiveResidues>
 VAL166  LYS551  ARG553  GLY616  TRP617  ASP618  TYR619  PRO620  LYS621  CYS622 
 ASP623  PHE694  ASN695  SER759  ASP760  ASP761  ALA762  ILE779  LEU786  VAL792 
 PHE793  MET794  SER795  GLU796  ALA797  LYS798  CYS799  TRP800  GLU811  SER814 

> <Gold.Protein.RotatedAtoms>
  150.6942  134.4065  159.5142 H   0  0  0  0  0  0  0  0  0  0  0  0  # atno 6907 bound_to 6896
  152.1830  134.8735  160.0534 H   0  0  0  0  0  0  0  0  0  0  0  0  # atno 6908 bound_to 6896
  151.9718  133.3693  159.4111 H   0  0  0  0  0  0  0  0  0  0  0  0  # atno 6909 bound_to 6896
  144.8490  139.6193  143.5982 H   0  0  0  0  0  0  0  0  0  0  0  0  # atno 7974 bound_to 7965
  155.1900  140.3307  155.4360 H   0  0  0  0  0  0  0  0  0  0  0  0  # atno 8008 bound_to 7997
  156.2446  140.1912  156.6943 H   0  0  0  0  0  0  0  0  0  0  0  0  # atno 8009 bound_to 7997
  154.6212  140.0595  156.9603 H   0  0  0  0  0  0  0  0  0  0  0  0  # atno 8010 bound_to 7997
  139.7972  143.7884  152.2655 H   0  0  0  0  0  0  0  0  0  0  0  0  # atno 10167 bound_to 10162
  156.3235  130.7547  151.1650 H   0  0  0  0  0  0  0  0  0  0  0  0  # atno 10718 bound_to 10713
  152.9785  135.5859  154.4349 H   0  0  0  0  0  0  0  0  0  0  0  0  # atno 10763 bound_to 10752
  154.3958  135.2768  155.2129 H   0  0  0  0  0  0  0  0  0  0  0  0  # atno 10764 bound_to 10752
  154.3981  135.6110  153.5936 H   0  0  0  0  0  0  0  0  0  0  0  0  # atno 10765 bound_to 10752
  141.0571  133.6722  156.3138 H   0  0  0  0  0  0  0  0  0  0  0  0  # atno 11005 bound_to 11000
  146.2769  139.6775  142.9257 LP  0  0  0  0  0  0  0  0  0  0  0  0  # atno 17320 bound_to 7965
  145.4538  141.0429  143.2789 LP  0  0  0  0  0  0  0  0  0  0  0  0  # atno 17321 bound_to 7965
  139.7993  144.7380  150.9847 LP  0  0  0  0  0  0  0  0  0  0  0  0  # atno 17342 bound_to 10162
  140.7820  143.4362  151.0620 LP  0  0  0  0  0  0  0  0  0  0  0  0  # atno 17343 bound_to 10162
  157.7416  131.0501  150.5082 LP  0  0  0  0  0  0  0  0  0  0  0  0  # atno 17370 bound_to 10713
  156.5237  130.4168  149.6237 LP  0  0  0  0  0  0  0  0  0  0  0  0  # atno 17371 bound_to 10713
  140.5942  134.5620  157.5505 LP  0  0  0  0  0  0  0  0  0  0  0  0  # atno 17394 bound_to 11000
  139.9400  134.7805  156.0704 LP  0  0  0  0  0  0  0  0  0  0  0  0  # atno 17395 bound_to 11000

$$$$
