AV-unprocessed.smi:1720|AV-procd|sdf|6934|dock8
  -GOLD-   22720 8143D 1   1.00000     0.00000
 Structure written by MMmdl.
 32 33  0  0  0  0  0  0  0  0  1 V2000
  146.8589  140.2314  152.8611 C   0  0  0  0  0  0  0  0  0  0  0  0
  147.5434  139.1137  153.6629 C   0  0  1  0  0  0  0  0  0  0  0  0
  147.4133  137.8628  152.9183 N   0  0  0  0  0  0  0  0  0  0  0  0
  146.2600  137.3093  152.5162 C   0  0  0  0  0  0  0  0  0  0  0  0
  145.1529  137.8050  152.7272 O   0  0  0  0  0  0  0  0  0  0  0  0
  146.4764  136.1563  151.8625 N   0  0  0  0  0  0  0  0  0  0  0  0
  145.5051  135.2881  151.3027 C   0  0  0  0  0  0  0  0  0  0  0  0
  145.7226  133.9156  151.0037 C   0  0  0  0  0  0  0  0  0  0  0  0
  144.6372  133.3548  150.4897 N   0  0  0  0  0  0  0  0  0  0  0  0
  143.7293  134.3565  150.4574 N   0  0  0  0  0  0  0  0  0  0  0  0
  144.2132  135.5514  150.9424 C   0  0  0  0  0  0  0  0  0  0  0  0
  149.0330  139.4141  153.9305 C   0  0  1  0  0  0  0  0  0  0  0  0
  149.2914  140.6489  154.7948 C   0  0  0  0  0  0  0  0  0  0  0  0
  150.6583  140.3805  155.4038 C   0  0  0  0  0  0  0  0  0  0  0  0
  150.8710  138.8789  155.1948 C   0  0  0  0  0  0  0  0  0  0  0  0
  149.6275  138.3896  154.7128 O   0  0  0  0  0  0  0  0  0  0  0  0
  142.7938  134.2106  150.1056 H   0  0  0  0  0  0  0  0  0  0  0  0
  146.8721  141.1763  153.4045 H   0  0  0  0  0  0  0  0  0  0  0  0
  145.8148  139.9878  152.6621 H   0  0  0  0  0  0  0  0  0  0  0  0
  147.3525  140.3921  151.9020 H   0  0  0  0  0  0  0  0  0  0  0  0
  147.0233  139.0274  154.6186 H   0  0  0  0  0  0  0  0  0  0  0  0
  148.2707  137.3775  152.7000 H   0  0  0  0  0  0  0  0  0  0  0  0
  147.4374  135.8654  151.7593 H   0  0  0  0  0  0  0  0  0  0  0  0
  146.6131  133.3198  151.1401 H   0  0  0  0  0  0  0  0  0  0  0  0
  143.6098  136.4461  150.9829 H   0  0  0  0  0  0  0  0  0  0  0  0
  149.5799  139.4999  152.9892 H   0  0  0  0  0  0  0  0  0  0  0  0
  149.2593  141.5781  154.2248 H   0  0  0  0  0  0  0  0  0  0  0  0
  148.5462  140.7152  155.5887 H   0  0  0  0  0  0  0  0  0  0  0  0
  151.4381  140.9506  154.8977 H   0  0  0  0  0  0  0  0  0  0  0  0
  150.6760  140.6506  156.4601 H   0  0  0  0  0  0  0  0  0  0  0  0
  151.6422  138.7013  154.4440 H   0  0  0  0  0  0  0  0  0  0  0  0
  151.1638  138.3658  156.1110 H   0  0  0  0  0  0  0  0  0  0  0  0
  1  2  1  0  0  0  0
  1 18  1  0  0  0  0
  1 19  1  0  0  0  0
  1 20  1  0  0  0  0
  2  3  1  0  0  0  0
  2 12  1  0  0  0  0
  2 21  1  0  0  0  0
  3  4  1  0  0  0  0
  3 22  1  0  0  0  0
  4  5  2  0  0  0  0
  4  6  1  0  0  0  0
  6  7  1  0  0  0  0
  6 23  1  0  0  0  0
  7 11  2  0  0  0  0
  7  8  1  0  0  0  0
  8  9  2  0  0  0  0
  8 24  1  0  0  0  0
  9 10  1  0  0  0  0
 10 17  1  0  0  0  0
 10 11  1  0  0  0  0
 11 25  1  0  0  0  0
 12 16  1  0  0  0  0
 12 13  1  0  0  0  0
 12 26  1  0  0  0  0
 13 14  1  0  0  0  0
 13 27  1  0  0  0  0
 13 28  1  0  0  0  0
 14 15  1  0  0  0  0
 14 29  1  0  0  0  0
 14 30  1  0  0  0  0
 15 16  1  0  0  0  0
 15 31  1  0  0  0  0
 15 32  1  0  0  0  0
M  END
> <s_m_source_file>
AV-unprocessed.smi

> <i_m_source_file_index>
1720

> <i_lp_mmshare_version>
43012

> <i_f3d_flags>
0

> <s_epik_input>
TzFbQ0gyXVtDSDJdW0NIMl1bQ0BIXTFbQ0BIXShbQ0gzXSlbTkhdQyg9TylbTkhdYzJbY0hdbltuSF1bY0hdMg==

> <s_epik_cmdline>
J2VwaWtfcHl0aG9uJywgJy1waCcsICc3LjAnLCAnLXRuJywgJzgnLCAnLW1hJywgJzIwMCcsICctbWV0YWxfYmluZGluZycsICctaW1hZScsICc8aW5maWxlLm1hZT4nLCAnLW9tYWUnLCAnPG91dGZpbGUubWFlPic=

> <r_lp_tautomer_probability>
1

> <r_epik_Ionization_Penalty>
4.95841e-05

> <r_epik_Ionization_Penalty_Charging>
0

> <r_epik_Ionization_Penalty_Neutral>
4.95841e-05

> <r_epik_State_Penalty>
-0

> <r_epik_Charging_Adjusted_Penalty>
0

> <i_epik_Tot_Q>
0

> <i_epik_Tot_abs_Q>
0

> <r_epik_Metal_State_Penalty>
-0

> <b_epik_Metal_Only>
0

> <s_lp_Force_Field>
OPLS_2005

> <r_lp_Energy>
20.531

> <b_lp_Chiralities_Consistent>
1

> <s_lp_Variant>
AV-unprocessed.smi:1720-4

> <Gold.Version>
5.8.1

> <Gold.Id.Protein>
6NUR|6NUR_protein|mol2

> <Gold.PLP.Fitness>
34.3343

> <Gold.PLP.PLP>
-22.7227

> <Gold.PLP.part.hbond>
-2.5221

> <Gold.PLP.part.metal>
0.0000

> <Gold.PLP.part.buried>
0.7893

> <Gold.PLP.part.nonpolar>
-22.7172

> <Gold.PLP.part.repulsive>
1.1544

> <Gold.PLP.ligand.clash>
0.0000

> <Gold.PLP.ligand.torsion>
0.1097

> <Gold.PLP.Chemscore.Hbond>
2.9360

> <Gold.PLP.Chemscore.CHOScore>
1.0000

> <Gold.PLP.Chemscore.Metal>
0.0000

> <Gold.Chemscore.Hbonds>
donor molecule, donor type, donor heavy atom, donor atom, acceptor molecule, acceptor atom, score
      L1  H     3    22       P1  7948  0.94
      L1  H     6    23       P1  7948  0.98
      L1  H    10    17       P1 10186  1.00
      L1  C    11    25       P1 10171  1.00

> <Gold.PLP.Chemscore.Internal.Correction>
0.0229

> <Gold.Rescore>
     Score         DG    S(hbond)    S(metal)    S(lipo)     H(rot)  DE(clash)    DE(int)     intcor
     15.87     -17.59       2.76        0.00      53.18       1.31       0.38       1.33       ----

> <Gold.Chemscore.Fitness>
15.8711

> <Gold.Chemscore.DG>
-17.5852

> <Gold.Chemscore.ZeroCoef>
-5.4800

> <Gold.Chemscore.Hbond>
2.7639

> <Gold.Chemscore.Metal>
0.0000

> <Gold.Chemscore.Lipo>
53.1808

> <Gold.Chemscore.Internal_Hbond>
0.0000

> <Gold.Chemscore.DEClash>
0.3823

> <Gold.Chemscore.DEInternal>
1.3318

> <Gold.Chemscore.Rot>
1.3079

> <Gold.Chemscore.Internal.Correction>
   9.000000E+99

> <Gold.Chemscore.Hbonds>
donor molecule, donor type, donor heavy atom, donor atom, acceptor molecule, acceptor atom, score
      L1  H     3    22       P1  7948  0.88
      L1  H     6    23       P1  7948  0.87
      L1  H    10    17       P1 10186  0.96

> <Gold.Chemscore.Hbond.Weighted>
-9.2314

> <Gold.Chemscore.Metal.Weighted>
-0.0000

> <Gold.Chemscore.Lipo.Weighted>
-6.2222

> <Gold.Chemscore.Internal_Hbond.Weighted>
0.0000

> <Gold.Chemscore.DEClash.Weighted>
0.3823

> <Gold.Chemscore.DEInternal.Weighted>
1.3318

> <Gold.Chemscore.Rot.Weighted>
3.3483

> <Gold.Chemscore.Internal.Correction.Weighted>
   9.000000E+99

> <Gold.Protein.RotatedTorsions>
[ 6907 6896 6895 6894 ] final  116.54 input  -60.11 | X-H torsion
[ 7974 7965 7964 7962 ] final  146.87 input  175.53 | X-H torsion
[ 8008 7997 7996 7995 ] final -137.38 input   59.86 | X-H torsion
[ 10167 10162 10161 10158 ] final  136.28 input  -65.29 | X-H torsion
[ 10718 10713 10712 10709 ] final -101.81 input   66.30 | X-H torsion
[ 10763 10752 10751 10750 ] final  167.42 input  -60.55 | X-H torsion
[ 11005 11000 10999 10996 ] final -111.95 input  -57.11 | X-H torsion

> <Gold.Protein.ActiveResidues>
 VAL166  LYS551  ARG553  GLY616  TRP617  ASP618  TYR619  PRO620  LYS621  CYS622 
 ASP623  PHE694  ASN695  SER759  ASP760  ASP761  ALA762  ILE779  LEU786  VAL792 
 PHE793  MET794  SER795  GLU796  ALA797  LYS798  CYS799  TRP800  GLU811  SER814 

> <Gold.Protein.RotatedAtoms>
  152.4671  133.7947  159.6920 H   0  0  0  0  0  0  0  0  0  0  0  0  # atno 6907 bound_to 6896
  150.8641  133.7591  159.2989 H   0  0  0  0  0  0  0  0  0  0  0  0  # atno 6908 bound_to 6896
  151.5147  135.1069  159.9915 H   0  0  0  0  0  0  0  0  0  0  0  0  # atno 6909 bound_to 6896
  144.8636  139.5958  143.5919 H   0  0  0  0  0  0  0  0  0  0  0  0  # atno 7974 bound_to 7965
  155.4108  140.0512  157.3032 H   0  0  0  0  0  0  0  0  0  0  0  0  # atno 8008 bound_to 7997
  154.4947  140.2134  155.9432 H   0  0  0  0  0  0  0  0  0  0  0  0  # atno 8009 bound_to 7997
  156.1389  140.3158  155.8470 H   0  0  0  0  0  0  0  0  0  0  0  0  # atno 8010 bound_to 7997
  139.5186  144.6473  151.5404 H   0  0  0  0  0  0  0  0  0  0  0  0  # atno 10167 bound_to 10162
  156.0207  130.5390  150.7017 H   0  0  0  0  0  0  0  0  0  0  0  0  # atno 10718 bound_to 10713
  154.3536  135.2753  155.2358 H   0  0  0  0  0  0  0  0  0  0  0  0  # atno 10763 bound_to 10752
  154.4577  135.5915  153.6238 H   0  0  0  0  0  0  0  0  0  0  0  0  # atno 10764 bound_to 10752
  152.9848  135.6057  154.3749 H   0  0  0  0  0  0  0  0  0  0  0  0  # atno 10765 bound_to 10752
  141.0704  133.9389  157.2496 H   0  0  0  0  0  0  0  0  0  0  0  0  # atno 11005 bound_to 11000
  146.2879  139.7056  142.9182 LP  0  0  0  0  0  0  0  0  0  0  0  0  # atno 17320 bound_to 7965
  145.4264  141.0411  143.2935 LP  0  0  0  0  0  0  0  0  0  0  0  0  # atno 17321 bound_to 7965
  140.6263  143.9163  150.6567 LP  0  0  0  0  0  0  0  0  0  0  0  0  # atno 17342 bound_to 10162
  140.2452  143.3634  152.1452 LP  0  0  0  0  0  0  0  0  0  0  0  0  # atno 17343 bound_to 10162
  157.4675  131.0890  151.0678 LP  0  0  0  0  0  0  0  0  0  0  0  0  # atno 17370 bound_to 10713
  157.1148  130.6037  149.5490 LP  0  0  0  0  0  0  0  0  0  0  0  0  # atno 17371 bound_to 10713
  139.9518  135.0174  156.9015 LP  0  0  0  0  0  0  0  0  0  0  0  0  # atno 17394 bound_to 11000
  140.5685  134.0466  155.7422 LP  0  0  0  0  0  0  0  0  0  0  0  0  # atno 17395 bound_to 11000

$$$$
