AV-unprocessed.smi:1024|AV-procd|sdf|4465|dock3
  -GOLD-   22720 2443D 1   1.00000     0.00000
 Structure written by MMmdl.
 47 49  0  0  0  0  0  0  0  0  1 V2000
  153.0548  139.2181  156.9898 O   0  0  0  0  0  0  0  0  0  0  0  0
  152.1643  140.0314  157.2415 C   0  0  0  0  0  0  0  0  0  0  0  0
  152.0200  140.5734  158.4628 N   0  0  0  0  0  0  0  0  0  0  0  0
  152.8477  140.2695  159.6237 C   0  0  0  0  0  0  0  0  0  0  0  0
  153.7979  141.4307  159.9577 C   0  0  0  0  0  0  0  0  0  0  0  0
  153.0755  142.5750  160.4746 N   0  0  0  0  0  0  0  0  0  0  0  0
  152.4672  143.5836  159.7394 C   0  0  0  0  0  0  0  0  0  0  0  0
  151.9104  144.4523  160.6509 C   0  0  0  0  0  0  0  0  0  0  0  0
  152.1636  144.0009  161.9442 N   0  0  0  0  0  0  0  0  0  0  0  0
  152.8580  142.8855  161.7599 C   0  0  0  0  0  0  0  0  0  0  0  0
  151.2771  140.4745  156.3145 N   0  0  0  0  0  0  0  0  0  0  0  0
  150.1322  141.3650  156.5600 C   0  0  0  0  0  0  0  0  0  0  0  0
  148.8379  140.5297  156.5142 C   0  0  0  0  0  0  0  0  0  0  0  0
  148.6505  139.7666  155.1728 C   0  0  0  0  0  0  0  0  0  0  0  0
  147.4908  138.7514  155.3500 C   0  0  0  0  0  0  0  0  0  0  0  0
  147.0738  138.0596  154.0398 C   0  0  0  0  0  0  0  0  0  0  0  0
  146.6869  139.0880  152.9690 C   0  0  0  0  0  0  0  0  0  0  0  0
  147.8212  140.0946  152.7365 C   0  0  0  0  0  0  0  0  0  0  0  0
  148.2511  140.7698  154.0521 C   0  0  0  0  0  0  0  0  0  0  0  0
  149.9755  139.0186  154.8381 C   0  0  0  0  0  0  0  0  0  0  0  0
  151.2237  139.9144  154.9603 C   0  0  0  0  0  0  0  0  0  0  0  0
  151.2769  141.2439  158.5958 H   0  0  0  0  0  0  0  0  0  0  0  0
  152.2175  140.0288  160.4817 H   0  0  0  0  0  0  0  0  0  0  0  0
  153.4234  139.3710  159.4001 H   0  0  0  0  0  0  0  0  0  0  0  0
  154.5334  141.1207  160.7013 H   0  0  0  0  0  0  0  0  0  0  0  0
  154.3533  141.7442  159.0725 H   0  0  0  0  0  0  0  0  0  0  0  0
  152.4809  143.5997  158.6595 H   0  0  0  0  0  0  0  0  0  0  0  0
  151.3522  145.3604  160.4766 H   0  0  0  0  0  0  0  0  0  0  0  0
  153.2180  142.2804  162.5793 H   0  0  0  0  0  0  0  0  0  0  0  0
  150.1846  141.8995  157.5082 H   0  0  0  0  0  0  0  0  0  0  0  0
  150.1128  142.1458  155.7992 H   0  0  0  0  0  0  0  0  0  0  0  0
  148.8651  139.8148  157.3383 H   0  0  0  0  0  0  0  0  0  0  0  0
  147.9789  141.1726  156.7096 H   0  0  0  0  0  0  0  0  0  0  0  0
  147.7604  137.9951  156.0882 H   0  0  0  0  0  0  0  0  0  0  0  0
  146.6198  139.2664  155.7583 H   0  0  0  0  0  0  0  0  0  0  0  0
  147.8835  137.4287  153.6725 H   0  0  0  0  0  0  0  0  0  0  0  0
  146.2318  137.3930  154.2286 H   0  0  0  0  0  0  0  0  0  0  0  0
  146.4392  138.5814  152.0358 H   0  0  0  0  0  0  0  0  0  0  0  0
  145.7868  139.6185  153.2821 H   0  0  0  0  0  0  0  0  0  0  0  0
  148.6708  139.5951  152.2716 H   0  0  0  0  0  0  0  0  0  0  0  0
  147.4951  140.8540  152.0255 H   0  0  0  0  0  0  0  0  0  0  0  0
  147.4198  141.3832  154.4023 H   0  0  0  0  0  0  0  0  0  0  0  0
  149.0596  141.4687  153.8432 H   0  0  0  0  0  0  0  0  0  0  0  0
  150.0955  138.1769  155.5219 H   0  0  0  0  0  0  0  0  0  0  0  0
  149.9439  138.5794  153.8421 H   0  0  0  0  0  0  0  0  0  0  0  0
  151.1938  140.7240  154.2310 H   0  0  0  0  0  0  0  0  0  0  0  0
  152.1155  139.3375  154.7115 H   0  0  0  0  0  0  0  0  0  0  0  0
  1  2  2  0  0  0  0
  2  3  1  0  0  0  0
  2 11  1  0  0  0  0
  3  4  1  0  0  0  0
  3 22  1  0  0  0  0
  4  5  1  0  0  0  0
  4 23  1  0  0  0  0
  4 24  1  0  0  0  0
  5  6  1  0  0  0  0
  5 25  1  0  0  0  0
  5 26  1  0  0  0  0
  6 10  1  0  0  0  0
  6  7  1  0  0  0  0
  7  8  2  0  0  0  0
  7 27  1  0  0  0  0
  8  9  1  0  0  0  0
  8 28  1  0  0  0  0
  9 10  2  0  0  0  0
 10 29  1  0  0  0  0
 11 21  1  0  0  0  0
 11 12  1  0  0  0  0
 12 13  1  0  0  0  0
 12 30  1  0  0  0  0
 12 31  1  0  0  0  0
 13 14  1  0  0  0  0
 13 32  1  0  0  0  0
 13 33  1  0  0  0  0
 14 19  1  0  0  0  0
 14 15  1  0  0  0  0
 14 20  1  0  0  0  0
 15 16  1  0  0  0  0
 15 34  1  0  0  0  0
 15 35  1  0  0  0  0
 16 17  1  0  0  0  0
 16 36  1  0  0  0  0
 16 37  1  0  0  0  0
 17 18  1  0  0  0  0
 17 38  1  0  0  0  0
 17 39  1  0  0  0  0
 18 19  1  0  0  0  0
 18 40  1  0  0  0  0
 18 41  1  0  0  0  0
 19 42  1  0  0  0  0
 19 43  1  0  0  0  0
 20 21  1  0  0  0  0
 20 44  1  0  0  0  0
 20 45  1  0  0  0  0
 21 46  1  0  0  0  0
 21 47  1  0  0  0  0
M  END
> <s_m_source_file>
AV-unprocessed.smi

> <i_m_source_file_index>
1024

> <i_lp_mmshare_version>
43012

> <i_f3d_flags>
0

> <s_epik_input>
W2NIXTFuW2NIXVtjSF1uMVtDSDJdW0NIMl1bTkhdQyg9TylOKFtDSDJdW0NIMl0yKVtDSDJdW0NIMl1DMjNbQ0gyXVtDSDJdW0NIMl1bQ0gyXVtDSDJdMw==

> <s_epik_cmdline>
J2VwaWtfcHl0aG9uJywgJy1waCcsICc3LjAnLCAnLXRuJywgJzgnLCAnLW1hJywgJzIwMCcsICctbWV0YWxfYmluZGluZycsICctaW1hZScsICc8aW5maWxlLm1hZT4nLCAnLW9tYWUnLCAnPG91dGZpbGUubWFlPic=

> <r_lp_tautomer_probability>
1

> <r_epik_Ionization_Penalty>
0.632392

> <r_epik_Ionization_Penalty_Charging>
0.632323

> <r_epik_Ionization_Penalty_Neutral>
6.90503e-05

> <r_epik_State_Penalty>
0.649284

> <r_epik_Charging_Adjusted_Penalty>
1.28161

> <i_epik_Tot_Q>
0

> <i_epik_Tot_abs_Q>
0

> <r_epik_Metal_State_Penalty>
0.309626

> <b_epik_Metal_Only>
0

> <s_lp_Force_Field>
OPLS_2005

> <r_lp_Energy>
42.875

> <b_lp_Chiralities_Consistent>
1

> <s_lp_Variant>
AV-unprocessed.smi:1024-2

> <Gold.Version>
5.8.1

> <Gold.Id.Protein>
6NUR|6NUR_protein|mol2

> <Gold.PLP.Fitness>
41.3134

> <Gold.PLP.PLP>
-39.2110

> <Gold.PLP.part.hbond>
-1.0000

> <Gold.PLP.part.metal>
0.0000

> <Gold.PLP.part.buried>
1.8415

> <Gold.PLP.part.nonpolar>
-40.5894

> <Gold.PLP.part.repulsive>
0.2946

> <Gold.PLP.ligand.clash>
0.0000

> <Gold.PLP.ligand.torsion>
0.4661

> <Gold.PLP.Chemscore.Hbond>
1.0000

> <Gold.PLP.Chemscore.CHOScore>
0.0000

> <Gold.PLP.Chemscore.Metal>
0.0000

> <Gold.Chemscore.Hbonds>
donor molecule, donor type, donor heavy atom, donor atom, acceptor molecule, acceptor atom, score
      P1  H  7997  8009       L1     1  1.00

> <Gold.PLP.Chemscore.Internal.Correction>
0.0345

> <Gold.Rescore>
     Score         DG    S(hbond)    S(metal)    S(lipo)     H(rot)  DE(clash)    DE(int)     intcor
     12.35     -14.74       0.74        0.00      91.38       1.52       1.90       0.49       ----

> <Gold.Chemscore.Fitness>
12.3501

> <Gold.Chemscore.DG>
-14.7382

> <Gold.Chemscore.ZeroCoef>
-5.4800

> <Gold.Chemscore.Hbond>
0.7380

> <Gold.Chemscore.Metal>
0.0000

> <Gold.Chemscore.Lipo>
91.3787

> <Gold.Chemscore.Internal_Hbond>
0.0000

> <Gold.Chemscore.DEClash>
1.9010

> <Gold.Chemscore.DEInternal>
0.4871

> <Gold.Chemscore.Rot>
1.5227

> <Gold.Chemscore.Internal.Correction>
   9.000000E+99

> <Gold.Chemscore.Hbonds>
donor molecule, donor type, donor heavy atom, donor atom, acceptor molecule, acceptor atom, score
      P1  H  7997  8009       L1     1  0.60

> <Gold.Chemscore.Hbond.Weighted>
-2.4649

> <Gold.Chemscore.Metal.Weighted>
-0.0000

> <Gold.Chemscore.Lipo.Weighted>
-10.6913

> <Gold.Chemscore.Internal_Hbond.Weighted>
0.0000

> <Gold.Chemscore.DEClash.Weighted>
1.9010

> <Gold.Chemscore.DEInternal.Weighted>
0.4871

> <Gold.Chemscore.Rot.Weighted>
3.8980

> <Gold.Chemscore.Internal.Correction.Weighted>
   9.000000E+99

> <Gold.Protein.RotatedTorsions>
[ 6907 6896 6895 6894 ] final   56.53 input  -60.11 | X-H torsion
[ 7974 7965 7964 7962 ] final  118.30 input  175.53 | X-H torsion
[ 8008 7997 7996 7995 ] final -176.79 input   59.86 | X-H torsion
[ 10167 10162 10161 10158 ] final   32.48 input  -65.29 | X-H torsion
[ 10718 10713 10712 10709 ] final    2.69 input   66.30 | X-H torsion
[ 10763 10752 10751 10750 ] final  -39.43 input  -60.55 | X-H torsion
[ 11005 11000 10999 10996 ] final  -19.65 input  -57.11 | X-H torsion

> <Gold.Protein.ActiveResidues>
 VAL166  LYS551  ARG553  GLY616  TRP617  ASP618  TYR619  PRO620  LYS621  CYS622 
 ASP623  PHE694  ASN695  SER759  ASP760  ASP761  ALA762  ILE779  LEU786  VAL792 
 PHE793  MET794  SER795  GLU796  ALA797  LYS798  CYS799  TRP800  GLU811  SER814 

> <Gold.Protein.RotatedAtoms>
  152.3645  134.6824  160.0196 H   0  0  0  0  0  0  0  0  0  0  0  0  # atno 6907 bound_to 6896
  151.7137  133.3307  159.3305 H   0  0  0  0  0  0  0  0  0  0  0  0  # atno 6908 bound_to 6896
  150.7628  134.6444  159.6299 H   0  0  0  0  0  0  0  0  0  0  0  0  # atno 6909 bound_to 6896
  145.1568  139.3178  143.4538 H   0  0  0  0  0  0  0  0  0  0  0  0  # atno 7974 bound_to 7965
  155.9991  140.1217  157.0564 H   0  0  0  0  0  0  0  0  0  0  0  0  # atno 8008 bound_to 7997
  154.4236  140.1110  156.5741 H   0  0  0  0  0  0  0  0  0  0  0  0  # atno 8009 bound_to 7997
  155.6237  140.3472  155.4662 H   0  0  0  0  0  0  0  0  0  0  0  0  # atno 8010 bound_to 7997
  140.4494  144.1070  150.6189 H   0  0  0  0  0  0  0  0  0  0  0  0  # atno 10167 bound_to 10162
  156.8668  130.5606  149.5659 H   0  0  0  0  0  0  0  0  0  0  0  0  # atno 10718 bound_to 10713
  153.9292  135.6774  153.4746 H   0  0  0  0  0  0  0  0  0  0  0  0  # atno 10763 bound_to 10752
  153.0988  135.4838  154.8826 H   0  0  0  0  0  0  0  0  0  0  0  0  # atno 10764 bound_to 10752
  154.7437  135.3167  154.8640 H   0  0  0  0  0  0  0  0  0  0  0  0  # atno 10765 bound_to 10752
  140.8387  133.7942  155.9837 H   0  0  0  0  0  0  0  0  0  0  0  0  # atno 11005 bound_to 11000
  146.3487  140.1664  142.8590 LP  0  0  0  0  0  0  0  0  0  0  0  0  # atno 17320 bound_to 7965
  145.0372  140.8917  143.5074 LP  0  0  0  0  0  0  0  0  0  0  0  0  # atno 17321 bound_to 7965
  140.4225  143.2605  151.9698 LP  0  0  0  0  0  0  0  0  0  0  0  0  # atno 17342 bound_to 10162
  139.4795  144.5818  151.7919 LP  0  0  0  0  0  0  0  0  0  0  0  0  # atno 17343 bound_to 10162
  156.0748  130.5772  150.9452 LP  0  0  0  0  0  0  0  0  0  0  0  0  # atno 17370 bound_to 10713
  157.6219  131.0929  150.8607 LP  0  0  0  0  0  0  0  0  0  0  0  0  # atno 17371 bound_to 10713
  140.8919  134.2485  157.5090 LP  0  0  0  0  0  0  0  0  0  0  0  0  # atno 17394 bound_to 11000
  139.8703  134.9665  156.4566 LP  0  0  0  0  0  0  0  0  0  0  0  0  # atno 17395 bound_to 11000

$$$$
