AV-unprocessed.smi:2124|AV-procd|sdf|8670|dock3
  -GOLD-   2272011423D 1   1.00000     0.00000
 Structure written by MMmdl.
 46 48  0  0  0  0  0  0  0  0  2 V2000
  152.7636  139.0435  154.5130 C   0  0  0  0  0  0  0  0  0  0  0  0
  151.2531  138.9592  154.5638 C   0  0  0  0  0  0  0  0  0  0  0  0
  150.5617  140.0107  154.3386 N   0  0  0  0  0  0  0  0  0  0  0  0
  149.1591  139.9410  154.3898 C   0  0  0  0  0  0  0  0  0  0  0  0
  148.4212  141.2400  154.1167 C   0  0  0  0  0  0  0  0  0  0  0  0
  148.5217  138.7697  154.6761 C   0  0  0  0  0  0  0  0  0  0  0  0
  147.0018  138.6312  154.7503 C   0  0  0  0  0  0  0  0  0  0  0  0
  146.3039  138.2243  153.4501 C   0  0  0  0  0  0  0  0  0  0  0  0
  146.7978  138.5084  152.3587 O   0  0  0  0  0  0  0  0  0  0  0  0
  145.1485  137.5557  153.5855 N   0  0  0  0  0  0  0  0  0  0  0  0
  144.3256  137.0439  152.4913 C   0  0  2  0  0  0  0  0  0  0  0  0
  143.0240  136.4595  153.0717 C   0  0  0  0  0  0  0  0  0  0  0  0
  145.1405  136.0059  151.6801 C   0  0  2  0  0  0  0  0  0  0  0  0
  144.3663  135.4104  150.4763 C   0  0  0  0  0  0  0  0  0  0  0  0
  144.4874  133.8919  150.6908 C   0  0  1  0  0  0  0  0  0  0  0  0
  145.9444  133.4521  150.4590 C   0  0  0  0  0  0  0  0  0  0  0  0
  146.6652  134.0049  151.7025 C   0  0  0  0  0  0  0  0  0  0  0  0
  145.5331  134.7251  152.4604 C   0  0  2  0  0  0  0  0  0  0  0  0
  144.3573  133.7881  152.2039 C   0  0  0  0  0  0  0  0  0  0  0  0
  149.3544  137.5787  154.9188 C   0  0  0  0  0  0  0  0  0  0  0  0
  148.8265  136.4936  155.1602 O   0  0  0  0  0  0  0  0  0  0  0  0
  150.7082  137.7298  154.8598 N   0  5  0  0  0  0  0  0  0  0  0  0
  153.0885  139.9664  154.0310 H   0  0  0  0  0  0  0  0  0  0  0  0
  153.1755  138.2042  153.9517 H   0  0  0  0  0  0  0  0  0  0  0  0
  153.1745  139.0201  155.5225 H   0  0  0  0  0  0  0  0  0  0  0  0
  147.8935  141.5735  155.0102 H   0  0  0  0  0  0  0  0  0  0  0  0
  147.6966  141.1107  153.3128 H   0  0  0  0  0  0  0  0  0  0  0  0
  149.1109  142.0306  153.8194 H   0  0  0  0  0  0  0  0  0  0  0  0
  146.7384  137.9309  155.5443 H   0  0  0  0  0  0  0  0  0  0  0  0
  146.5680  139.5792  155.0671 H   0  0  0  0  0  0  0  0  0  0  0  0
  144.8243  137.3656  154.5227 H   0  0  0  0  0  0  0  0  0  0  0  0
  144.0672  137.8729  151.8305 H   0  0  0  0  0  0  0  0  0  0  0  0
  142.3387  136.1376  152.2890 H   0  0  0  0  0  0  0  0  0  0  0  0
  142.4925  137.2004  153.6699 H   0  0  0  0  0  0  0  0  0  0  0  0
  143.2258  135.6009  153.7128 H   0  0  0  0  0  0  0  0  0  0  0  0
  146.0438  136.5006  151.3187 H   0  0  0  0  0  0  0  0  0  0  0  0
  143.3141  135.6991  150.4928 H   0  0  0  0  0  0  0  0  0  0  0  0
  144.7787  135.7298  149.5186 H   0  0  0  0  0  0  0  0  0  0  0  0
  143.7588  133.3115  150.1243 H   0  0  0  0  0  0  0  0  0  0  0  0
  146.0237  132.3648  150.4216 H   0  0  0  0  0  0  0  0  0  0  0  0
  146.3517  133.8508  149.5292 H   0  0  0  0  0  0  0  0  0  0  0  0
  147.0720  133.1890  152.3012 H   0  0  0  0  0  0  0  0  0  0  0  0
  147.4897  134.6716  151.4469 H   0  0  0  0  0  0  0  0  0  0  0  0
  145.7674  134.8819  153.5124 H   0  0  0  0  0  0  0  0  0  0  0  0
  143.4063  134.1644  152.5845 H   0  0  0  0  0  0  0  0  0  0  0  0
  144.5183  132.7774  152.5831 H   0  0  0  0  0  0  0  0  0  0  0  0
  1  2  1  0  0  0  0
  1 23  1  0  0  0  0
  1 24  1  0  0  0  0
  1 25  1  0  0  0  0
  2 22  1  0  0  0  0
  2  3  2  0  0  0  0
  3  4  1  0  0  0  0
  4  5  1  0  0  0  0
  4  6  2  0  0  0  0
  5 26  1  0  0  0  0
  5 27  1  0  0  0  0
  5 28  1  0  0  0  0
  6  7  1  0  0  0  0
  6 20  1  0  0  0  0
  7  8  1  0  0  0  0
  7 29  1  0  0  0  0
  7 30  1  0  0  0  0
  8  9  2  0  0  0  0
  8 10  1  0  0  0  0
 10 11  1  0  0  0  0
 10 31  1  0  0  0  0
 11 12  1  0  0  0  0
 11 13  1  0  0  0  0
 11 32  1  0  0  0  0
 12 33  1  0  0  0  0
 12 34  1  0  0  0  0
 12 35  1  0  0  0  0
 13 18  1  0  0  0  0
 13 14  1  0  0  0  0
 13 36  1  0  0  0  0
 14 15  1  0  0  0  0
 14 37  1  0  0  0  0
 14 38  1  0  0  0  0
 15 19  1  0  0  0  0
 15 16  1  0  0  0  0
 15 39  1  0  0  0  0
 16 17  1  0  0  0  0
 16 40  1  0  0  0  0
 16 41  1  0  0  0  0
 17 18  1  0  0  0  0
 17 42  1  0  0  0  0
 17 43  1  0  0  0  0
 18 19  1  0  0  0  0
 18 44  1  0  0  0  0
 19 45  1  0  0  0  0
 19 46  1  0  0  0  0
 20 21  2  0  0  0  0
 20 22  1  0  0  0  0
M  CHG  1  22  -1
M  END
> <s_m_source_file>
AV-unprocessed.smi

> <i_m_source_file_index>
2124

> <i_lp_mmshare_version>
43012

> <i_f3d_flags>
0

> <s_epik_input>
W0NIM11jMW5jKFtDSDNdKWMoYyg9TylbbkhdMSlbQ0gyXUMoPU8pW05IXVtDQEhdKFtDSDNdKVtDQEhdKFtDSDJdW0NASF0yMylbQ0BIXShbQ0gyXTMpW0NIMl1bQ0gyXTI=

> <s_epik_cmdline>
J2VwaWtfcHl0aG9uJywgJy1waCcsICc3LjAnLCAnLXRuJywgJzgnLCAnLW1hJywgJzIwMCcsICctbWV0YWxfYmluZGluZycsICctaW1hZScsICc8aW5maWxlLm1hZT4nLCAnLW9tYWUnLCAnPG91dGZpbGUubWFlPic=

> <r_lp_tautomer_probability>
0.839158

> <r_epik_Ionization_Penalty>
6.63797

> <r_epik_Ionization_Penalty_Charging>
7.48558e-08

> <r_epik_Ionization_Penalty_Neutral>
6.63797

> <r_epik_State_Penalty>
4.49496

> <r_epik_Charging_Adjusted_Penalty>
4.49496

> <i_epik_Tot_Q>
-1

> <i_epik_Tot_abs_Q>
1

> <r_epik_Metal_State_Penalty>
0.841241

> <b_epik_Metal_Only>
1

> <s_lp_Force_Field>
OPLS_2005

> <r_lp_Energy>
56.157

> <b_lp_Chiralities_Consistent>
1

> <s_lp_Variant>
AV-unprocessed.smi:2124-21

> <Gold.Version>
5.8.1

> <Gold.Id.Protein>
6NUR|6NUR_protein|mol2

> <Gold.PLP.Fitness>
37.0482

> <Gold.PLP.PLP>
-35.5414

> <Gold.PLP.part.hbond>
-1.0000

> <Gold.PLP.part.metal>
0.0000

> <Gold.PLP.part.buried>
-5.9124

> <Gold.PLP.part.nonpolar>
-30.4152

> <Gold.PLP.part.repulsive>
1.5207

> <Gold.PLP.ligand.clash>
0.0000

> <Gold.PLP.ligand.torsion>
0.7634

> <Gold.PLP.Chemscore.Hbond>
1.0000

> <Gold.PLP.Chemscore.CHOScore>
0.0000

> <Gold.PLP.Chemscore.Metal>
0.0000

> <Gold.Chemscore.Hbonds>
donor molecule, donor type, donor heavy atom, donor atom, acceptor molecule, acceptor atom, score
      P1  H  7989  7998       L1     3  1.00

> <Gold.PLP.Chemscore.Internal.Correction>
0.0336

> <Gold.Rescore>
     Score         DG    S(hbond)    S(metal)    S(lipo)     H(rot)  DE(clash)    DE(int)     intcor
     12.19     -13.08       0.94        0.00      73.16       1.61       0.11       0.77       ----

> <Gold.Chemscore.Fitness>
12.1915

> <Gold.Chemscore.DG>
-13.0780

> <Gold.Chemscore.ZeroCoef>
-5.4800

> <Gold.Chemscore.Hbond>
0.9423

> <Gold.Chemscore.Metal>
0.0000

> <Gold.Chemscore.Lipo>
73.1602

> <Gold.Chemscore.Internal_Hbond>
0.0000

> <Gold.Chemscore.DEClash>
0.1129

> <Gold.Chemscore.DEInternal>
0.7736

> <Gold.Chemscore.Rot>
1.6051

> <Gold.Chemscore.Internal.Correction>
   9.000000E+99

> <Gold.Chemscore.Hbonds>
donor molecule, donor type, donor heavy atom, donor atom, acceptor molecule, acceptor atom, score
      P1  H  7989  7998       L1     3  0.25

> <Gold.Chemscore.Hbond.Weighted>
-3.1472

> <Gold.Chemscore.Metal.Weighted>
-0.0000

> <Gold.Chemscore.Lipo.Weighted>
-8.5597

> <Gold.Chemscore.Internal_Hbond.Weighted>
0.0000

> <Gold.Chemscore.DEClash.Weighted>
0.1129

> <Gold.Chemscore.DEInternal.Weighted>
0.7736

> <Gold.Chemscore.Rot.Weighted>
4.1090

> <Gold.Chemscore.Internal.Correction.Weighted>
   9.000000E+99

> <Gold.Protein.RotatedTorsions>
[ 6907 6896 6895 6894 ] final  147.04 input  -60.11 | X-H torsion
[ 7974 7965 7964 7962 ] final    3.77 input  175.53 | X-H torsion
[ 8008 7997 7996 7995 ] final  120.32 input   59.86 | X-H torsion
[ 10167 10162 10161 10158 ] final  -36.65 input  -65.29 | X-H torsion
[ 10718 10713 10712 10709 ] final   62.62 input   66.30 | X-H torsion
[ 10763 10752 10751 10750 ] final   54.90 input  -60.55 | X-H torsion
[ 11005 11000 10999 10996 ] final -116.18 input  -57.11 | X-H torsion

> <Gold.Protein.ActiveResidues>
 VAL166  LYS551  ARG553  GLY616  TRP617  ASP618  TYR619  PRO620  LYS621  CYS622 
 ASP623  PHE694  ASN695  SER759  ASP760  ASP761  ALA762  ILE779  LEU786  VAL792 
 PHE793  MET794  SER795  GLU796  ALA797  LYS798  CYS799  TRP800  GLU811  SER814 

> <Gold.Protein.RotatedAtoms>
  152.1600  133.4575  159.4855 H   0  0  0  0  0  0  0  0  0  0  0  0  # atno 6907 bound_to 6896
  150.6905  134.2084  159.4358 H   0  0  0  0  0  0  0  0  0  0  0  0  # atno 6908 bound_to 6896
  151.9985  134.9940  160.0615 H   0  0  0  0  0  0  0  0  0  0  0  0  # atno 6909 bound_to 6896
  146.2445  140.0636  142.8367 H   0  0  0  0  0  0  0  0  0  0  0  0  # atno 7974 bound_to 7965
  156.2637  140.2833  156.1131 H   0  0  0  0  0  0  0  0  0  0  0  0  # atno 8008 bound_to 7997
  155.1236  140.0392  157.2774 H   0  0  0  0  0  0  0  0  0  0  0  0  # atno 8009 bound_to 7997
  154.6652  140.2575  155.7072 H   0  0  0  0  0  0  0  0  0  0  0  0  # atno 8010 bound_to 7997
  140.7137  143.3394  151.2390 H   0  0  0  0  0  0  0  0  0  0  0  0  # atno 10167 bound_to 10162
  157.5913  130.9060  149.9611 H   0  0  0  0  0  0  0  0  0  0  0  0  # atno 10718 bound_to 10713
  152.9810  135.5729  154.4979 H   0  0  0  0  0  0  0  0  0  0  0  0  # atno 10763 bound_to 10752
  154.4503  135.2778  155.1787 H   0  0  0  0  0  0  0  0  0  0  0  0  # atno 10764 bound_to 10752
  154.3418  135.6228  153.5653 H   0  0  0  0  0  0  0  0  0  0  0  0  # atno 10765 bound_to 10752
  141.0439  133.9793  157.2950 H   0  0  0  0  0  0  0  0  0  0  0  0  # atno 11005 bound_to 11000
  145.0878  140.9264  143.4787 LP  0  0  0  0  0  0  0  0  0  0  0  0  # atno 17320 bound_to 7965
  145.0802  139.2965  143.5787 LP  0  0  0  0  0  0  0  0  0  0  0  0  # atno 17321 bound_to 7965
  139.6898  143.9712  152.2853 LP  0  0  0  0  0  0  0  0  0  0  0  0  # atno 17342 bound_to 10162
  139.9370  144.6706  150.8305 LP  0  0  0  0  0  0  0  0  0  0  0  0  # atno 17343 bound_to 10162
  156.0969  130.3658  150.0290 LP  0  0  0  0  0  0  0  0  0  0  0  0  # atno 17370 bound_to 10713
  156.8412  130.9426  151.3631 LP  0  0  0  0  0  0  0  0  0  0  0  0  # atno 17371 bound_to 10713
  139.9297  135.0200  156.8356 LP  0  0  0  0  0  0  0  0  0  0  0  0  # atno 17394 bound_to 11000
  140.6183  134.0018  155.7607 LP  0  0  0  0  0  0  0  0  0  0  0  0  # atno 17395 bound_to 11000

$$$$
