AV-unprocessed.smi:2445|AV-procd|sdf|9640|dock3
  -GOLD-   2272013273D 1   1.00000     0.00000
 Structure written by MMmdl.
 40 41  0  0  0  0  0  0  0  0  1 V2000
  150.6532  142.4731  157.9608 C   0  0  0  0  0  0  0  0  0  0  0  0
  150.7642  141.5029  156.8344 C   0  0  0  0  0  0  0  0  0  0  0  0
  150.1729  141.5802  155.5980 C   0  0  0  0  0  0  0  0  0  0  0  0
  150.4759  140.5057  154.7594 N   0  0  0  0  0  0  0  0  0  0  0  0
  151.2884  139.6172  155.3380 C   0  0  0  0  0  0  0  0  0  0  0  0
  151.7463  138.3575  154.6648 C   0  0  1  0  0  0  0  0  0  0  0  0
  153.2621  138.3551  154.4223 C   0  0  0  0  0  0  0  0  0  0  0  0
  151.2672  137.0794  155.3903 C   0  0  0  0  0  0  0  0  0  0  0  0
  150.2503  136.3482  154.6395 N   0  0  0  0  0  0  0  0  0  0  0  0
  149.7184  135.1759  155.0098 C   0  0  0  0  0  0  0  0  0  0  0  0
  149.9754  134.6061  156.0703 O   0  0  0  0  0  0  0  0  0  0  0  0
  148.8979  134.6858  154.0715 N   0  0  0  0  0  0  0  0  0  0  0  0
  148.2454  133.3821  154.1326 C   0  0  1  0  0  0  0  0  0  0  0  0
  147.3374  133.1525  152.9424 C   0  0  0  0  0  0  0  0  0  0  0  0
  147.2682  131.6292  152.8789 C   0  0  0  0  0  0  0  0  0  0  0  0
  148.4917  131.1505  153.4291 O   0  0  0  0  0  0  0  0  0  0  0  0
  149.2448  132.2289  153.9758 C   0  0  2  0  0  0  0  0  0  0  0  0
  149.9271  131.7934  155.2785 C   0  0  0  0  0  0  0  0  0  0  0  0
  151.7280  140.0573  156.9859 S   0  0  0  0  0  0  0  0  0  0  0  0
  150.1458  143.3853  157.6455 H   0  0  0  0  0  0  0  0  0  0  0  0
  151.6399  142.7497  158.3325 H   0  0  0  0  0  0  0  0  0  0  0  0
  150.0889  142.0415  158.7876 H   0  0  0  0  0  0  0  0  0  0  0  0
  149.5232  142.3613  155.2317 H   0  0  0  0  0  0  0  0  0  0  0  0
  151.2844  138.3510  153.6762 H   0  0  0  0  0  0  0  0  0  0  0  0
  153.5662  139.2224  153.8352 H   0  0  0  0  0  0  0  0  0  0  0  0
  153.5703  137.4631  153.8765 H   0  0  0  0  0  0  0  0  0  0  0  0
  153.8164  138.3766  155.3609 H   0  0  0  0  0  0  0  0  0  0  0  0
  152.1110  136.4247  155.6129 H   0  0  0  0  0  0  0  0  0  0  0  0
  150.8253  137.3481  156.3502 H   0  0  0  0  0  0  0  0  0  0  0  0
  149.9741  136.7363  153.7495 H   0  0  0  0  0  0  0  0  0  0  0  0
  148.7515  135.2299  153.2338 H   0  0  0  0  0  0  0  0  0  0  0  0
  147.6646  133.2640  155.0499 H   0  0  0  0  0  0  0  0  0  0  0  0
  146.3581  133.6191  153.0526 H   0  0  0  0  0  0  0  0  0  0  0  0
  147.7968  133.5363  152.0300 H   0  0  0  0  0  0  0  0  0  0  0  0
  146.4474  131.2603  153.4951 H   0  0  0  0  0  0  0  0  0  0  0  0
  147.1183  131.2636  151.8629 H   0  0  0  0  0  0  0  0  0  0  0  0
  150.0030  132.4959  153.2375 H   0  0  0  0  0  0  0  0  0  0  0  0
  150.5385  132.5966  155.6903 H   0  0  0  0  0  0  0  0  0  0  0  0
  150.5797  130.9372  155.1075 H   0  0  0  0  0  0  0  0  0  0  0  0
  149.1935  131.5085  156.0331 H   0  0  0  0  0  0  0  0  0  0  0  0
  1  2  1  0  0  0  0
  1 20  1  0  0  0  0
  1 21  1  0  0  0  0
  1 22  1  0  0  0  0
  2 19  1  0  0  0  0
  2  3  2  0  0  0  0
  3  4  1  0  0  0  0
  3 23  1  0  0  0  0
  4  5  2  0  0  0  0
  5  6  1  0  0  0  0
  5 19  1  0  0  0  0
  6  7  1  0  0  0  0
  6  8  1  0  0  0  0
  6 24  1  0  0  0  0
  7 25  1  0  0  0  0
  7 26  1  0  0  0  0
  7 27  1  0  0  0  0
  8  9  1  0  0  0  0
  8 28  1  0  0  0  0
  8 29  1  0  0  0  0
  9 10  1  0  0  0  0
  9 30  1  0  0  0  0
 10 11  2  0  0  0  0
 10 12  1  0  0  0  0
 12 13  1  0  0  0  0
 12 31  1  0  0  0  0
 13 17  1  0  0  0  0
 13 14  1  0  0  0  0
 13 32  1  0  0  0  0
 14 15  1  0  0  0  0
 14 33  1  0  0  0  0
 14 34  1  0  0  0  0
 15 16  1  0  0  0  0
 15 35  1  0  0  0  0
 15 36  1  0  0  0  0
 16 17  1  0  0  0  0
 17 18  1  0  0  0  0
 17 37  1  0  0  0  0
 18 38  1  0  0  0  0
 18 39  1  0  0  0  0
 18 40  1  0  0  0  0
M  END
> <s_m_source_file>
AV-unprocessed.smi

> <i_m_source_file_index>
2445

> <i_lp_mmshare_version>
43012

> <i_f3d_flags>
0

> <s_epik_input>
W0NIM11jMVtjSF1uYyhzMSlbQ0BIXShbQ0gzXSlbQ0gyXVtOSF1DKD1PKVtOSF1bQ0BASF0yW0NIMl1bQ0gyXU9bQ0BIXTJbQ0gzXQ==

> <s_epik_cmdline>
J2VwaWtfcHl0aG9uJywgJy1waCcsICc3LjAnLCAnLXRuJywgJzgnLCAnLW1hJywgJzIwMCcsICctbWV0YWxfYmluZGluZycsICctaW1hZScsICc8aW5maWxlLm1hZT4nLCAnLW9tYWUnLCAnPG91dGZpbGUubWFlPic=

> <r_epik_Ionization_Penalty>
0.000649483

> <r_epik_Ionization_Penalty_Charging>
0

> <r_epik_Ionization_Penalty_Neutral>
0.000649483

> <r_epik_State_Penalty>
0.000379895

> <r_epik_Charging_Adjusted_Penalty>
0.000379895

> <i_epik_Tot_Q>
0

> <i_epik_Tot_abs_Q>
0

> <r_epik_Metal_State_Penalty>
-0

> <b_epik_Metal_Only>
0

> <s_lp_Force_Field>
OPLS_2005

> <r_lp_Energy>
5.35471

> <b_lp_Chiralities_Consistent>
1

> <s_lp_Variant>
AV-unprocessed.smi:2445-8

> <Gold.Version>
5.8.1

> <Gold.Id.Protein>
6NUR|6NUR_protein|mol2

> <Gold.PLP.Fitness>
43.3306

> <Gold.PLP.PLP>
-34.9655

> <Gold.PLP.part.hbond>
-3.1385

> <Gold.PLP.part.metal>
0.0000

> <Gold.PLP.part.buried>
-2.6515

> <Gold.PLP.part.nonpolar>
-29.4478

> <Gold.PLP.part.repulsive>
0.2738

> <Gold.PLP.ligand.clash>
0.0000

> <Gold.PLP.ligand.torsion>
0.8130

> <Gold.PLP.Chemscore.Hbond>
2.2897

> <Gold.PLP.Chemscore.CHOScore>
1.0000

> <Gold.PLP.Chemscore.Metal>
0.0000

> <Gold.Chemscore.Hbonds>
donor molecule, donor type, donor heavy atom, donor atom, acceptor molecule, acceptor atom, score
      L1  H     9    30       P1  7948  0.56
      L1  H    12    31       P1  7948  1.00
      P1  H  7989  7998       L1     4  0.65
      L1  C     3    23       P1  8028  1.00

> <Gold.PLP.Chemscore.Internal.Correction>
0.1221

> <Gold.Rescore>
     Score         DG    S(hbond)    S(metal)    S(lipo)     H(rot)  DE(clash)    DE(int)     intcor
     15.37     -16.78       1.75        0.00      80.07       1.53       0.42       0.98       ----

> <Gold.Chemscore.Fitness>
15.3715

> <Gold.Chemscore.DG>
-16.7765

> <Gold.Chemscore.ZeroCoef>
-5.4800

> <Gold.Chemscore.Hbond>
1.7520

> <Gold.Chemscore.Metal>
0.0000

> <Gold.Chemscore.Lipo>
80.0703

> <Gold.Chemscore.Internal_Hbond>
0.0000

> <Gold.Chemscore.DEClash>
0.4247

> <Gold.Chemscore.DEInternal>
0.9803

> <Gold.Chemscore.Rot>
1.5325

> <Gold.Chemscore.Internal.Correction>
   9.000000E+99

> <Gold.Chemscore.Hbonds>
donor molecule, donor type, donor heavy atom, donor atom, acceptor molecule, acceptor atom, score
      L1  H     9    30       P1  7948  0.17
      L1  H    12    31       P1  7948  0.70
      P1  H  7989  7998       L1     4  0.05

> <Gold.Chemscore.Hbond.Weighted>
-5.8516

> <Gold.Chemscore.Metal.Weighted>
-0.0000

> <Gold.Chemscore.Lipo.Weighted>
-9.3682

> <Gold.Chemscore.Internal_Hbond.Weighted>
0.0000

> <Gold.Chemscore.DEClash.Weighted>
0.4247

> <Gold.Chemscore.DEInternal.Weighted>
0.9803

> <Gold.Chemscore.Rot.Weighted>
3.9233

> <Gold.Chemscore.Internal.Correction.Weighted>
   9.000000E+99

> <Gold.Protein.RotatedTorsions>
[ 6907 6896 6895 6894 ] final -104.88 input  -60.11 | X-H torsion
[ 7974 7965 7964 7962 ] final   93.74 input  175.53 | X-H torsion
[ 8008 7997 7996 7995 ] final  -37.87 input   59.86 | X-H torsion
[ 10167 10162 10161 10158 ] final   52.54 input  -65.29 | X-H torsion
[ 10718 10713 10712 10709 ] final   48.60 input   66.30 | X-H torsion
[ 10763 10752 10751 10750 ] final   92.13 input  -60.55 | X-H torsion
[ 11005 11000 10999 10996 ] final -110.00 input  -57.11 | X-H torsion

> <Gold.Protein.ActiveResidues>
 VAL166  LYS551  ARG553  GLY616  TRP617  ASP618  TYR619  PRO620  LYS621  CYS622 
 ASP623  PHE694  ASN695  SER759  ASP760  ASP761  ALA762  ILE779  LEU786  VAL792 
 PHE793  MET794  SER795  GLU796  ALA797  LYS798  CYS799  TRP800  GLU811  SER814 

> <Gold.Protein.RotatedAtoms>
  150.7309  134.0210  159.3701 H   0  0  0  0  0  0  0  0  0  0  0  0  # atno 6907 bound_to 6896
  151.8175  135.0660  160.0430 H   0  0  0  0  0  0  0  0  0  0  0  0  # atno 6908 bound_to 6896
  152.3028  133.5636  159.5666 H   0  0  0  0  0  0  0  0  0  0  0  0  # atno 6909 bound_to 6896
  145.4749  139.2280  143.2914 H   0  0  0  0  0  0  0  0  0  0  0  0  # atno 7974 bound_to 7965
  154.4046  140.1593  156.2607 H   0  0  0  0  0  0  0  0  0  0  0  0  # atno 8008 bound_to 7997
  155.9039  140.3431  155.6025 H   0  0  0  0  0  0  0  0  0  0  0  0  # atno 8009 bound_to 7997
  155.7415  140.0793  157.2234 H   0  0  0  0  0  0  0  0  0  0  0  0  # atno 8010 bound_to 7997
  140.2503  144.3487  150.6350 H   0  0  0  0  0  0  0  0  0  0  0  0  # atno 10167 bound_to 10162
  157.4703  130.8251  149.7981 H   0  0  0  0  0  0  0  0  0  0  0  0  # atno 10718 bound_to 10713
  153.2157  135.4373  155.0432 H   0  0  0  0  0  0  0  0  0  0  0  0  # atno 10763 bound_to 10752
  154.8224  135.3344  154.7001 H   0  0  0  0  0  0  0  0  0  0  0  0  # atno 10764 bound_to 10752
  153.7436  135.7003  153.5017 H   0  0  0  0  0  0  0  0  0  0  0  0  # atno 10765 bound_to 10752
  141.0816  133.9210  157.2276 H   0  0  0  0  0  0  0  0  0  0  0  0  # atno 11005 bound_to 11000
  146.2375  140.5530  142.8948 LP  0  0  0  0  0  0  0  0  0  0  0  0  # atno 17320 bound_to 7965
  144.7923  140.6056  143.6533 LP  0  0  0  0  0  0  0  0  0  0  0  0  # atno 17321 bound_to 7965
  140.6046  143.2167  151.7006 LP  0  0  0  0  0  0  0  0  0  0  0  0  # atno 17342 bound_to 10162
  139.5048  144.3739  152.0443 LP  0  0  0  0  0  0  0  0  0  0  0  0  # atno 17343 bound_to 10162
  156.0070  130.3851  150.2396 LP  0  0  0  0  0  0  0  0  0  0  0  0  # atno 17370 bound_to 10713
  157.0578  131.0081  151.3232 LP  0  0  0  0  0  0  0  0  0  0  0  0  # atno 17371 bound_to 10713
  139.9630  135.0149  156.9313 LP  0  0  0  0  0  0  0  0  0  0  0  0  # atno 17394 bound_to 11000
  140.5456  134.0678  155.7354 LP  0  0  0  0  0  0  0  0  0  0  0  0  # atno 17395 bound_to 11000

$$$$
