AV-unprocessed.smi:646|AV-procd|sdf|3168|dock8
  -GOLD-   22720 0 93D 1   1.00000     0.00000
 Structure written by MMmdl.
 44 45  0  0  0  0  0  0  0  0  1 V2000
  145.1567  143.1671  154.9018 C   0  0  0  0  0  0  0  0  0  0  0  0
  146.2100  142.2738  154.5643 O   0  0  0  0  0  0  0  0  0  0  0  0
  146.6545  141.3973  155.6008 C   0  0  2  0  0  0  0  0  0  0  0  0
  145.5145  140.4544  156.0164 C   0  0  0  0  0  0  0  0  0  0  0  0
  147.4126  142.1455  156.7129 C   0  0  0  0  0  0  0  0  0  0  0  0
  148.4234  141.0014  156.6715 C   0  0  2  0  0  0  0  0  0  0  0  0
  149.7934  141.4554  156.8751 N   0  0  0  0  0  0  0  0  0  0  0  0
  150.2020  142.1919  157.9188 C   0  0  0  0  0  0  0  0  0  0  0  0
  149.4401  142.6311  158.7796 O   0  0  0  0  0  0  0  0  0  0  0  0
  151.7050  142.4503  158.0205 C   0  0  0  0  0  0  0  0  0  0  0  0
  152.0112  143.1230  159.3349 C   0  0  0  0  0  0  0  0  0  0  0  0
  152.7953  142.6225  160.4139 C   0  0  0  0  0  0  0  0  0  0  0  0
  153.5092  141.3053  160.5161 C   0  0  0  0  0  0  0  0  0  0  0  0
  152.8723  143.4873  161.4114 N   0  0  0  0  0  0  0  0  0  0  0  0
  152.1258  144.6000  161.0122 O   0  0  0  0  0  0  0  0  0  0  0  0
  151.6258  144.3598  159.7736 C   0  0  0  0  0  0  0  0  0  0  0  0
  150.8004  145.4418  159.1643 C   0  0  0  0  0  0  0  0  0  0  0  0
  148.0311  140.7823  155.1873 C   0  0  0  0  0  0  0  0  0  0  0  0
  148.0214  139.3281  154.7060 C   0  0  0  0  0  0  0  0  0  0  0  0
  148.8372  141.5684  154.1318 C   0  0  0  0  0  0  0  0  0  0  0  0
  144.9803  143.8411  154.0639 H   0  0  0  0  0  0  0  0  0  0  0  0
  145.4014  143.7789  155.7702 H   0  0  0  0  0  0  0  0  0  0  0  0
  144.2224  142.6408  155.0945 H   0  0  0  0  0  0  0  0  0  0  0  0
  145.8564  139.6838  156.7072 H   0  0  0  0  0  0  0  0  0  0  0  0
  145.0831  139.9494  155.1520 H   0  0  0  0  0  0  0  0  0  0  0  0
  144.7114  140.9865  156.5251 H   0  0  0  0  0  0  0  0  0  0  0  0
  147.8230  143.1060  156.3952 H   0  0  0  0  0  0  0  0  0  0  0  0
  146.8706  142.2357  157.6545 H   0  0  0  0  0  0  0  0  0  0  0  0
  148.1288  140.1739  157.3210 H   0  0  0  0  0  0  0  0  0  0  0  0
  150.4871  141.1358  156.2149 H   0  0  0  0  0  0  0  0  0  0  0  0
  152.2338  141.5022  157.9194 H   0  0  0  0  0  0  0  0  0  0  0  0
  152.0224  143.0663  157.1784 H   0  0  0  0  0  0  0  0  0  0  0  0
  152.8878  140.4939  160.1369 H   0  0  0  0  0  0  0  0  0  0  0  0
  153.7697  141.0665  161.5477 H   0  0  0  0  0  0  0  0  0  0  0  0
  154.4303  141.3174  159.9329 H   0  0  0  0  0  0  0  0  0  0  0  0
  150.9117  145.4524  158.0800 H   0  0  0  0  0  0  0  0  0  0  0  0
  151.0985  146.4205  159.5415 H   0  0  0  0  0  0  0  0  0  0  0  0
  149.7450  145.2962  159.3953 H   0  0  0  0  0  0  0  0  0  0  0  0
  149.0309  138.9616  154.5159 H   0  0  0  0  0  0  0  0  0  0  0  0
  147.4514  139.2186  153.7829 H   0  0  0  0  0  0  0  0  0  0  0  0
  147.5802  138.6569  155.4424 H   0  0  0  0  0  0  0  0  0  0  0  0
  149.8533  141.1854  154.0320 H   0  0  0  0  0  0  0  0  0  0  0  0
  148.9202  142.6274  154.3764 H   0  0  0  0  0  0  0  0  0  0  0  0
  148.3727  141.5044  153.1474 H   0  0  0  0  0  0  0  0  0  0  0  0
  1  2  1  0  0  0  0
  1 21  1  0  0  0  0
  1 22  1  0  0  0  0
  1 23  1  0  0  0  0
  2  3  1  0  0  0  0
  3 18  1  0  0  0  0
  3  4  1  0  0  0  0
  3  5  1  0  0  0  0
  4 24  1  0  0  0  0
  4 25  1  0  0  0  0
  4 26  1  0  0  0  0
  5  6  1  0  0  0  0
  5 27  1  0  0  0  0
  5 28  1  0  0  0  0
  6  7  1  0  0  0  0
  6 18  1  0  0  0  0
  6 29  1  0  0  0  0
  7  8  1  0  0  0  0
  7 30  1  0  0  0  0
  8  9  2  0  0  0  0
  8 10  1  0  0  0  0
 10 11  1  0  0  0  0
 10 31  1  0  0  0  0
 10 32  1  0  0  0  0
 11 16  2  0  0  0  0
 11 12  1  0  0  0  0
 12 13  1  0  0  0  0
 12 14  2  0  0  0  0
 13 33  1  0  0  0  0
 13 34  1  0  0  0  0
 13 35  1  0  0  0  0
 14 15  1  0  0  0  0
 15 16  1  0  0  0  0
 16 17  1  0  0  0  0
 17 36  1  0  0  0  0
 17 37  1  0  0  0  0
 17 38  1  0  0  0  0
 18 19  1  0  0  0  0
 18 20  1  0  0  0  0
 19 39  1  0  0  0  0
 19 40  1  0  0  0  0
 19 41  1  0  0  0  0
 20 42  1  0  0  0  0
 20 43  1  0  0  0  0
 20 44  1  0  0  0  0
M  END
> <s_m_source_file>
AV-unprocessed.smi

> <i_m_source_file_index>
646

> <i_lp_mmshare_version>
43012

> <i_f3d_flags>
0

> <s_epik_input>
W0NIM11PW0NAQF0xKFtDSDNdKVtDSDJdW0NASF0oQzEoW0NIM10pW0NIM10pW05IXUMoPU8pW0NIMl1jMmMoW0NIM10pbm9jMltDSDNd

> <s_epik_cmdline>
J2VwaWtfcHl0aG9uJywgJy1waCcsICc3LjAnLCAnLXRuJywgJzgnLCAnLW1hJywgJzIwMCcsICctbWV0YWxfYmluZGluZycsICctaW1hZScsICc8aW5maWxlLm1hZT4nLCAnLW9tYWUnLCAnPG91dGZpbGUubWFlPic=

> <r_lp_tautomer_probability>
1

> <r_epik_Ionization_Penalty>
2.13169e-08

> <r_epik_Ionization_Penalty_Charging>
0

> <r_epik_Ionization_Penalty_Neutral>
2.13169e-08

> <r_epik_State_Penalty>
-0

> <r_epik_Charging_Adjusted_Penalty>
0

> <i_epik_Tot_Q>
0

> <i_epik_Tot_abs_Q>
0

> <r_epik_Metal_State_Penalty>
-0

> <b_epik_Metal_Only>
0

> <s_lp_Force_Field>
OPLS_2005

> <r_lp_Energy>
15.4726

> <b_lp_Chiralities_Consistent>
1

> <s_lp_Variant>
AV-unprocessed.smi:646-4

> <Gold.Version>
5.8.1

> <Gold.Id.Protein>
6NUR|6NUR_protein|mol2

> <Gold.PLP.Fitness>
32.4279

> <Gold.PLP.PLP>
-32.7612

> <Gold.PLP.part.hbond>
-0.7438

> <Gold.PLP.part.metal>
0.0000

> <Gold.PLP.part.buried>
-2.6066

> <Gold.PLP.part.nonpolar>
-28.9491

> <Gold.PLP.part.repulsive>
0.5482

> <Gold.PLP.ligand.clash>
0.0000

> <Gold.PLP.ligand.torsion>
0.3574

> <Gold.PLP.Chemscore.Hbond>
0.0000

> <Gold.PLP.Chemscore.CHOScore>
0.0000

> <Gold.PLP.Chemscore.Metal>
0.0000

> <Gold.PLP.Chemscore.Internal.Correction>
0.3816

> <Gold.Rescore>
     Score         DG    S(hbond)    S(metal)    S(lipo)     H(rot)  DE(clash)    DE(int)     intcor
     10.74     -11.94       0.00        0.00      87.89       1.49       0.01       1.18       ----

> <Gold.Chemscore.Fitness>
10.7449

> <Gold.Chemscore.DG>
-11.9410

> <Gold.Chemscore.ZeroCoef>
-5.4800

> <Gold.Chemscore.Hbond>
0.0000

> <Gold.Chemscore.Metal>
0.0000

> <Gold.Chemscore.Lipo>
87.8862

> <Gold.Chemscore.Internal_Hbond>
0.0000

> <Gold.Chemscore.DEClash>
0.0149

> <Gold.Chemscore.DEInternal>
1.1812

> <Gold.Chemscore.Rot>
1.4928

> <Gold.Chemscore.Internal.Correction>
   9.000000E+99

> <Gold.Chemscore.Hbond.Weighted>
-0.0000

> <Gold.Chemscore.Metal.Weighted>
-0.0000

> <Gold.Chemscore.Lipo.Weighted>
-10.2827

> <Gold.Chemscore.Internal_Hbond.Weighted>
0.0000

> <Gold.Chemscore.DEClash.Weighted>
0.0149

> <Gold.Chemscore.DEInternal.Weighted>
1.1812

> <Gold.Chemscore.Rot.Weighted>
3.8217

> <Gold.Chemscore.Internal.Correction.Weighted>
   9.000000E+99

> <Gold.Protein.RotatedTorsions>
[ 6907 6896 6895 6894 ] final  -91.65 input  -60.11 | X-H torsion
[ 7974 7965 7964 7962 ] final   -6.15 input  175.53 | X-H torsion
[ 8008 7997 7996 7995 ] final   10.61 input   59.86 | X-H torsion
[ 10167 10162 10161 10158 ] final -140.06 input  -65.29 | X-H torsion
[ 10718 10713 10712 10709 ] final  -29.45 input   66.30 | X-H torsion
[ 10763 10752 10751 10750 ] final -154.55 input  -60.55 | X-H torsion
[ 11005 11000 10999 10996 ] final   31.75 input  -57.11 | X-H torsion

> <Gold.Protein.ActiveResidues>
 VAL166  LYS551  ARG553  GLY616  TRP617  ASP618  TYR619  PRO620  LYS621  CYS622 
 ASP623  PHE694  ASN695  SER759  ASP760  ASP761  ALA762  ILE779  LEU786  VAL792 
 PHE793  MET794  SER795  GLU796  ALA797  LYS798  CYS799  TRP800  GLU811  SER814 

> <Gold.Protein.RotatedAtoms>
  150.6895  134.2244  159.4409 H   0  0  0  0  0  0  0  0  0  0  0  0  # atno 6907 bound_to 6896
  152.0199  134.9826  160.0579 H   0  0  0  0  0  0  0  0  0  0  0  0  # atno 6908 bound_to 6896
  152.1408  133.4428  159.4802 H   0  0  0  0  0  0  0  0  0  0  0  0  # atno 6909 bound_to 6896
  146.2337  140.2128  142.8335 H   0  0  0  0  0  0  0  0  0  0  0  0  # atno 7974 bound_to 7965
  154.7957  140.2843  155.5959 H   0  0  0  0  0  0  0  0  0  0  0  0  # atno 8008 bound_to 7997
  156.2970  140.2596  156.2743 H   0  0  0  0  0  0  0  0  0  0  0  0  # atno 8009 bound_to 7997
  154.9618  140.0377  157.2183 H   0  0  0  0  0  0  0  0  0  0  0  0  # atno 8010 bound_to 7997
  139.8318  143.7436  152.2666 H   0  0  0  0  0  0  0  0  0  0  0  0  # atno 10167 bound_to 10162
  156.4123  130.4410  149.7243 H   0  0  0  0  0  0  0  0  0  0  0  0  # atno 10718 bound_to 10713
  154.7851  135.3187  154.7905 H   0  0  0  0  0  0  0  0  0  0  0  0  # atno 10763 bound_to 10752
  153.8607  135.6853  153.4787 H   0  0  0  0  0  0  0  0  0  0  0  0  # atno 10764 bound_to 10752
  153.1499  135.4703  154.9560 H   0  0  0  0  0  0  0  0  0  0  0  0  # atno 10765 bound_to 10752
  140.2806  134.2977  155.7801 H   0  0  0  0  0  0  0  0  0  0  0  0  # atno 11005 bound_to 11000
  144.9693  140.8353  143.5465 LP  0  0  0  0  0  0  0  0  0  0  0  0  # atno 17320 bound_to 7965
  145.2108  139.2206  143.5144 LP  0  0  0  0  0  0  0  0  0  0  0  0  # atno 17321 bound_to 7965
  139.7646  144.7496  151.0313 LP  0  0  0  0  0  0  0  0  0  0  0  0  # atno 17342 bound_to 10162
  140.7806  143.4712  151.0144 LP  0  0  0  0  0  0  0  0  0  0  0  0  # atno 17343 bound_to 10162
  156.4217  130.7772  151.2789 LP  0  0  0  0  0  0  0  0  0  0  0  0  # atno 17370 bound_to 10713
  157.7507  131.0181  150.3611 LP  0  0  0  0  0  0  0  0  0  0  0  0  # atno 17371 bound_to 10713
  141.2163  133.7523  156.9475 LP  0  0  0  0  0  0  0  0  0  0  0  0  # atno 17394 bound_to 11000
  140.1286  134.9370  157.2306 LP  0  0  0  0  0  0  0  0  0  0  0  0  # atno 17395 bound_to 11000

$$$$
