AV-unprocessed.smi:36|AV-procd|sdf|287|dock7
  -GOLD-   2262016 73D 1   1.00000     0.00000
 Structure written by MMmdl.
 64 67  0  0  0  0  0  0  0  0  1 V2000
  156.4093  129.9374  163.4369 C   0  0  0  0  0  0  0  0  0  0  0  0
  155.6764  130.7512  164.5162 C   0  0  0  0  0  0  0  0  0  0  0  0
  155.1468  129.8045  165.6072 C   0  0  0  0  0  0  0  0  0  0  0  0
  156.6342  131.7821  165.1359 C   0  0  0  0  0  0  0  0  0  0  0  0
  154.1972  131.6572  163.7173 Si  0  0  0  0  0  0  0  0  0  0  0  0
  152.9467  130.4137  163.0037 C   0  0  0  0  0  0  0  0  0  0  0  0
  153.3236  132.7878  164.9684 C   0  0  0  0  0  0  0  0  0  0  0  0
  154.8104  132.6312  162.4745 O   0  0  0  0  0  0  0  0  0  0  0  0
  155.5480  132.1540  161.3678 C   0  0  0  0  0  0  0  0  0  0  0  0
  155.8888  133.3330  160.4469 C   0  0  2  0  0  0  0  0  0  0  0  0
  154.7871  133.6079  159.5893 O   0  0  0  0  0  0  0  0  0  0  0  0
  155.2369  134.2451  158.4309 C   0  0  1  0  0  0  0  0  0  0  0  0
  154.8378  135.6860  158.4911 N   0  0  0  0  0  0  0  0  0  0  0  0
  155.3477  136.6574  159.2745 C   0  0  0  0  0  0  0  0  0  0  0  0
  154.8037  137.8615  159.1161 N   0  0  0  0  0  0  0  0  0  0  0  0
  153.8488  137.6364  158.1301 C   0  0  0  0  0  0  0  0  0  0  0  0
  152.8904  138.5669  157.4949 C   0  0  0  0  0  0  0  0  0  0  0  0
  152.9076  139.8069  157.8806 N   0  0  0  0  0  0  0  0  0  0  0  0
  152.0167  140.7211  157.3324 C   0  0  0  0  0  0  0  0  0  0  0  0
  151.3856  140.6445  156.2744 O   0  0  0  0  0  0  0  0  0  0  0  0
  151.8953  141.9802  158.1295 C   0  0  0  0  0  0  0  0  0  0  0  0
  152.4847  142.0720  159.4087 C   0  0  0  0  0  0  0  0  0  0  0  0
  152.3718  143.2611  160.1553 C   0  0  0  0  0  0  0  0  0  0  0  0
  151.6695  144.3614  159.6269 C   0  0  0  0  0  0  0  0  0  0  0  0
  151.0804  144.2734  158.3510 C   0  0  0  0  0  0  0  0  0  0  0  0
  151.1935  143.0856  157.6026 C   0  0  0  0  0  0  0  0  0  0  0  0
  152.1161  137.8802  156.5505 N   0  0  0  0  0  0  0  0  0  0  0  0
  152.2219  136.5169  156.2335 C   0  0  0  0  0  0  0  0  0  0  0  0
  153.0655  135.6850  156.7838 N   0  0  0  0  0  0  0  0  0  0  0  0
  153.8545  136.3160  157.7353 C   0  0  0  0  0  0  0  0  0  0  0  0
  156.7658  134.1231  158.4061 C   0  0  0  0  0  0  0  0  0  0  0  0
  157.0157  133.0549  159.4540 C   0  0  1  0  0  0  0  0  0  0  0  0
  158.2942  133.2065  160.0356 O   0  0  0  0  0  0  0  0  0  0  0  0
  157.2516  129.3875  163.8581 H   0  0  0  0  0  0  0  0  0  0  0  0
  156.7996  130.5813  162.6486 H   0  0  0  0  0  0  0  0  0  0  0  0
  155.7436  129.2114  162.9689 H   0  0  0  0  0  0  0  0  0  0  0  0
  154.4423  129.0810  165.1955 H   0  0  0  0  0  0  0  0  0  0  0  0
  154.6297  130.3527  166.3950 H   0  0  0  0  0  0  0  0  0  0  0  0
  155.9574  129.2456  166.0755 H   0  0  0  0  0  0  0  0  0  0  0  0
  157.4892  131.2953  165.6061 H   0  0  0  0  0  0  0  0  0  0  0  0
  156.1356  132.3789  165.9001 H   0  0  0  0  0  0  0  0  0  0  0  0
  157.0206  132.4681  164.3819 H   0  0  0  0  0  0  0  0  0  0  0  0
  152.4978  129.8065  163.7892 H   0  0  0  0  0  0  0  0  0  0  0  0
  153.4143  129.7291  162.2969 H   0  0  0  0  0  0  0  0  0  0  0  0
  152.1335  130.9162  162.4808 H   0  0  0  0  0  0  0  0  0  0  0  0
  152.9344  132.2230  165.8150 H   0  0  0  0  0  0  0  0  0  0  0  0
  152.4831  133.3111  164.5132 H   0  0  0  0  0  0  0  0  0  0  0  0
  154.0000  133.5447  165.3647 H   0  0  0  0  0  0  0  0  0  0  0  0
  156.4575  131.6672  161.7207 H   0  0  0  0  0  0  0  0  0  0  0  0
  154.9647  131.4010  160.8374 H   0  0  0  0  0  0  0  0  0  0  0  0
  156.1205  134.2277  161.0248 H   0  0  0  0  0  0  0  0  0  0  0  0
  154.7381  133.8387  157.5506 H   0  0  0  0  0  0  0  0  0  0  0  0
  156.1407  136.4817  159.9860 H   0  0  0  0  0  0  0  0  0  0  0  0
  153.0270  141.2332  159.8209 H   0  0  0  0  0  0  0  0  0  0  0  0
  152.8247  143.3293  161.1334 H   0  0  0  0  0  0  0  0  0  0  0  0
  151.5833  145.2729  160.1997 H   0  0  0  0  0  0  0  0  0  0  0  0
  150.5416  145.1172  157.9460 H   0  0  0  0  0  0  0  0  0  0  0  0
  150.7393  143.0268  156.6240 H   0  0  0  0  0  0  0  0  0  0  0  0
  151.5232  136.1852  155.4641 H   0  0  0  0  0  0  0  0  0  0  0  0
  157.1232  133.8514  157.4125 H   0  0  0  0  0  0  0  0  0  0  0  0
  157.2194  135.0728  158.6977 H   0  0  0  0  0  0  0  0  0  0  0  0
  156.9106  132.0613  159.0159 H   0  0  0  0  0  0  0  0  0  0  0  0
  158.4439  134.1253  160.1983 H   0  0  0  0  0  0  0  0  0  0  0  0
  151.4218  138.4168  156.0509 H   0  0  0  0  0  0  0  0  0  0  0  0
  1  2  1  0  0  0  0
  1 34  1  0  0  0  0
  1 35  1  0  0  0  0
  1 36  1  0  0  0  0
  2  3  1  0  0  0  0
  2  4  1  0  0  0  0
  2  5  1  0  0  0  0
  3 37  1  0  0  0  0
  3 38  1  0  0  0  0
  3 39  1  0  0  0  0
  4 40  1  0  0  0  0
  4 41  1  0  0  0  0
  4 42  1  0  0  0  0
  5  6  1  0  0  0  0
  5  7  1  0  0  0  0
  5  8  1  0  0  0  0
  6 43  1  0  0  0  0
  6 44  1  0  0  0  0
  6 45  1  0  0  0  0
  7 46  1  0  0  0  0
  7 47  1  0  0  0  0
  7 48  1  0  0  0  0
  8  9  1  0  0  0  0
  9 10  1  0  0  0  0
  9 49  1  0  0  0  0
  9 50  1  0  0  0  0
 10 32  1  0  0  0  0
 10 11  1  0  0  0  0
 10 51  1  0  0  0  0
 11 12  1  0  0  0  0
 12 13  1  0  0  0  0
 12 31  1  0  0  0  0
 12 52  1  0  0  0  0
 13 30  1  0  0  0  0
 13 14  1  0  0  0  0
 14 15  2  0  0  0  0
 14 53  1  0  0  0  0
 15 16  1  0  0  0  0
 16 30  2  0  0  0  0
 16 17  1  0  0  0  0
 17 18  2  0  0  0  0
 17 27  1  0  0  0  0
 18 19  1  0  0  0  0
 19 20  2  0  0  0  0
 19 21  1  0  0  0  0
 21 26  1  0  0  0  0
 21 22  2  0  0  0  0
 22 23  1  0  0  0  0
 22 54  1  0  0  0  0
 23 24  2  0  0  0  0
 23 55  1  0  0  0  0
 24 25  1  0  0  0  0
 24 56  1  0  0  0  0
 25 26  2  0  0  0  0
 25 57  1  0  0  0  0
 26 58  1  0  0  0  0
 27 28  1  0  0  0  0
 27 64  1  0  0  0  0
 28 29  2  0  0  0  0
 28 59  1  0  0  0  0
 29 30  1  0  0  0  0
 31 32  1  0  0  0  0
 31 60  1  0  0  0  0
 31 61  1  0  0  0  0
 32 33  1  0  0  0  0
 32 62  1  0  0  0  0
 33 63  1  0  0  0  0
M  END
> <s_m_source_file>
AV-unprocessed.smi

> <i_m_source_file_index>
36

> <i_lp_mmshare_version>
43012

> <i_f3d_flags>
0

> <s_epik_input>
W0NIM11DKFtDSDNdKShbQ0gzXSlbU2ldKFtDSDNdKShbQ0gzXSlPW0NIMl1bQ0BASF0xT1tDQEhdKFtDSDJdW0NASF0xW09IXSluKFtjSF1uMiljKGMyMyluW2NIXW5jM1tOSF1DKD1PKWM0W2NIXVtjSF1bY0hdW2NIXVtjSF00

> <s_epik_cmdline>
J2VwaWtfcHl0aG9uJywgJy1waCcsICc3LjAnLCAnLXRuJywgJzgnLCAnLW1hJywgJzIwMCcsICctbWV0YWxfYmluZGluZycsICctaW1hZScsICc8aW5maWxlLm1hZT4nLCAnLW9tYWUnLCAnPG91dGZpbGUubWFlPic=

> <r_epik_Ionization_Penalty>
0.0850405

> <r_epik_Ionization_Penalty_Charging>
0.0850403

> <r_epik_Ionization_Penalty_Neutral>
1.47497e-07

> <r_epik_State_Penalty>
2.6133

> <r_epik_Charging_Adjusted_Penalty>
2.69834

> <i_epik_Tot_Q>
0

> <i_epik_Tot_abs_Q>
0

> <r_epik_Metal_State_Penalty>
2.92945

> <b_epik_Metal_Only>
0

> <s_epik_Chemistry_Notes>
This compound contains an acetal/aminal-like group ( X-CH(R)-Y where X, Y are N, S, or O) that may be acid/base labile, releasing an aldehyde.

> <s_lp_Force_Field>
OPLS_2005

> <r_lp_Energy>
46.6166

> <b_lp_Chiralities_Consistent>
1

> <s_lp_Variant>
AV-unprocessed.smi:36-9

> <Gold.Version>
5.8.1

> <Gold.Id.Protein>
6NUR|6NUR_protein|mol2

> <Gold.PLP.Fitness>
48.4730

> <Gold.PLP.PLP>
-41.4226

> <Gold.PLP.part.hbond>
-3.0000

> <Gold.PLP.part.metal>
0.0000

> <Gold.PLP.part.buried>
-5.7006

> <Gold.PLP.part.nonpolar>
-32.6594

> <Gold.PLP.part.repulsive>
0.0884

> <Gold.PLP.ligand.clash>
0.0000

> <Gold.PLP.ligand.torsion>
0.6312

> <Gold.PLP.Chemscore.Hbond>
2.7500

> <Gold.PLP.Chemscore.CHOScore>
0.0000

> <Gold.PLP.Chemscore.Metal>
0.0000

> <Gold.Chemscore.Hbonds>
donor molecule, donor type, donor heavy atom, donor atom, acceptor molecule, acceptor atom, score
      P1  H  6896  6909       L1    11  0.32
      P1  H  7997  8009       L1    18  0.50
      P1  H 10752 10764       L1    29  0.60

> <Gold.PLP.Chemscore.Internal.Correction>
0.0629

> <Gold.Rescore>
     Score         DG    S(hbond)    S(metal)    S(lipo)     H(rot)  DE(clash)    DE(int)     intcor
     13.83     -17.56       1.67        0.00     114.62       2.70       3.06       0.67       ----

> <Gold.Chemscore.Fitness>
13.8270

> <Gold.Chemscore.DG>
-17.5565

> <Gold.Chemscore.ZeroCoef>
-5.4800

> <Gold.Chemscore.Hbond>
1.6730

> <Gold.Chemscore.Metal>
0.0000

> <Gold.Chemscore.Lipo>
114.6244

> <Gold.Chemscore.Internal_Hbond>
0.0000

> <Gold.Chemscore.DEClash>
3.0611

> <Gold.Chemscore.DEInternal>
0.6684

> <Gold.Chemscore.Rot>
2.7041

> <Gold.Chemscore.Internal.Correction>
   9.000000E+99

> <Gold.Chemscore.Hbonds>
donor molecule, donor type, donor heavy atom, donor atom, acceptor molecule, acceptor atom, score
      P1  H  6896  6909       L1    11  0.18
      P1  H  7997  8009       L1    18  0.02
      P1  H 10752 10764       L1    29  0.04

> <Gold.Chemscore.Hbond.Weighted>
-5.5880

> <Gold.Chemscore.Metal.Weighted>
-0.0000

> <Gold.Chemscore.Lipo.Weighted>
-13.4111

> <Gold.Chemscore.Internal_Hbond.Weighted>
0.0000

> <Gold.Chemscore.DEClash.Weighted>
3.0611

> <Gold.Chemscore.DEInternal.Weighted>
0.6684

> <Gold.Chemscore.Rot.Weighted>
6.9225

> <Gold.Chemscore.Internal.Correction.Weighted>
   9.000000E+99

> <Gold.Protein.RotatedTorsions>
[ 6907 6896 6895 6894 ] final -156.40 input  -60.11 | X-H torsion
[ 7974 7965 7964 7962 ] final -143.42 input  175.53 | X-H torsion
[ 8008 7997 7996 7995 ] final  150.50 input   59.86 | X-H torsion
[ 10167 10162 10161 10158 ] final  -63.84 input  -65.29 | X-H torsion
[ 10718 10713 10712 10709 ] final   79.41 input   66.30 | X-H torsion
[ 10763 10752 10751 10750 ] final   11.17 input  -60.55 | X-H torsion
[ 11005 11000 10999 10996 ] final -117.61 input  -57.11 | X-H torsion

> <Gold.Protein.ActiveResidues>
 VAL166  LYS551  ARG553  GLY616  TRP617  ASP618  TYR619  PRO620  LYS621  CYS622 
 ASP623  PHE694  ASN695  SER759  ASP760  ASP761  ALA762  ILE779  LEU786  VAL792 
 PHE793  MET794  SER795  GLU796  ALA797  LYS798  CYS799  TRP800  GLU811  SER814 

> <Gold.Protein.RotatedAtoms>
  151.2870  133.4183  159.2630 H   0  0  0  0  0  0  0  0  0  0  0  0  # atno 6907 bound_to 6896
  151.0311  134.9540  159.8121 H   0  0  0  0  0  0  0  0  0  0  0  0  # atno 6908 bound_to 6896
  152.5346  134.2831  159.9067 H   0  0  0  0  0  0  0  0  0  0  0  0  # atno 6909 bound_to 6896
  144.8370  140.5836  143.5477 H   0  0  0  0  0  0  0  0  0  0  0  0  # atno 7974 bound_to 7965
  156.2713  140.2073  156.6027 H   0  0  0  0  0  0  0  0  0  0  0  0  # atno 8008 bound_to 7997
  154.6893  140.0532  157.0371 H   0  0  0  0  0  0  0  0  0  0  0  0  # atno 8009 bound_to 7997
  155.0889  140.3194  155.4582 H   0  0  0  0  0  0  0  0  0  0  0  0  # atno 8010 bound_to 7997
  140.5842  143.2331  151.6277 H   0  0  0  0  0  0  0  0  0  0  0  0  # atno 10167 bound_to 10162
  157.6776  130.9913  150.1928 H   0  0  0  0  0  0  0  0  0  0  0  0  # atno 10718 bound_to 10713
  153.1954  135.6848  153.8298 H   0  0  0  0  0  0  0  0  0  0  0  0  # atno 10763 bound_to 10752
  153.7583  135.3213  155.3334 H   0  0  0  0  0  0  0  0  0  0  0  0  # atno 10764 bound_to 10752
  154.8141  135.4697  154.0696 H   0  0  0  0  0  0  0  0  0  0  0  0  # atno 10765 bound_to 10752
  141.0343  133.9933  157.3095 H   0  0  0  0  0  0  0  0  0  0  0  0  # atno 11005 bound_to 11000
  145.4773  139.1498  143.3781 LP  0  0  0  0  0  0  0  0  0  0  0  0  # atno 17320 bound_to 7965
  146.2668  140.4908  142.8831 LP  0  0  0  0  0  0  0  0  0  0  0  0  # atno 17321 bound_to 7965
  139.5188  144.3273  152.0857 LP  0  0  0  0  0  0  0  0  0  0  0  0  # atno 17342 bound_to 10162
  140.2428  144.4251  150.6253 LP  0  0  0  0  0  0  0  0  0  0  0  0  # atno 17343 bound_to 10162
  156.2636  130.3713  149.8105 LP  0  0  0  0  0  0  0  0  0  0  0  0  # atno 17370 bound_to 10713
  156.5842  130.8479  151.3391 LP  0  0  0  0  0  0  0  0  0  0  0  0  # atno 17371 bound_to 10713
  139.9230  135.0201  156.8132 LP  0  0  0  0  0  0  0  0  0  0  0  0  # atno 17394 bound_to 11000
  140.6350  133.9870  155.7680 LP  0  0  0  0  0  0  0  0  0  0  0  0  # atno 17395 bound_to 11000

$$$$
