AV-unprocessed.smi:47|AV-procd|sdf|443|dock8
  -GOLD-   2262016313D 1   1.00000     0.00000
 Structure written by MMmdl.
 30 32  0  0  0  0  0  0  0  0  2 V2000
  145.0303  141.0077  154.7977 O   0  0  0  0  0  0  0  0  0  0  0  0
  146.3829  140.6046  154.8360 C   0  0  1  0  0  0  0  0  0  0  0  0
  146.7571  139.7093  153.6623 C   0  0  0  0  0  0  0  0  0  0  0  0
  148.2089  139.7919  153.5915 N   0  0  0  0  0  0  0  0  0  0  0  0
  148.6038  141.1320  154.0411 C   0  0  2  0  0  0  0  0  0  0  0  0
  149.7751  141.1043  155.0065 C   0  0  0  0  0  0  0  0  0  0  0  0
  150.8237  140.2591  154.9317 N   0  0  0  0  0  0  0  0  0  0  0  0
  151.5903  140.5308  155.9710 N   0  5  0  0  0  0  0  0  0  0  0  0
  151.0020  141.5173  156.6642 C   0  0  0  0  0  0  0  0  0  0  0  0
  151.5896  142.0707  157.9019 C   0  0  0  0  0  0  0  0  0  0  0  0
  151.4754  143.4497  158.1941 C   0  0  0  0  0  0  0  0  0  0  0  0
  152.0305  143.9923  159.3696 C   0  0  0  0  0  0  0  0  0  0  0  0
  152.7109  143.1596  160.2761 C   0  0  0  0  0  0  0  0  0  0  0  0
  152.8336  141.7853  160.0024 C   0  0  0  0  0  0  0  0  0  0  0  0
  152.2779  141.2479  158.8250 C   0  0  0  0  0  0  0  0  0  0  0  0
  149.8662  141.8899  156.0909 N   0  0  0  0  0  0  0  0  0  0  0  0
  147.3548  141.7694  154.6774 C   0  0  0  0  0  0  0  0  0  0  0  0
  146.5801  140.0835  155.7741 H   0  0  0  0  0  0  0  0  0  0  0  0
  148.9006  141.7303  153.1788 H   0  0  0  0  0  0  0  0  0  0  0  0
  144.6393  140.6635  154.0092 H   0  0  0  0  0  0  0  0  0  0  0  0
  146.4116  138.6829  153.7874 H   0  0  0  0  0  0  0  0  0  0  0  0
  146.3225  140.1009  152.7415 H   0  0  0  0  0  0  0  0  0  0  0  0
  148.5031  139.6495  152.6311 H   0  0  0  0  0  0  0  0  0  0  0  0
  150.9557  144.1054  157.5110 H   0  0  0  0  0  0  0  0  0  0  0  0
  151.9328  145.0481  159.5740 H   0  0  0  0  0  0  0  0  0  0  0  0
  153.1372  143.5730  161.1781 H   0  0  0  0  0  0  0  0  0  0  0  0
  153.3542  141.1412  160.6955 H   0  0  0  0  0  0  0  0  0  0  0  0
  152.3853  140.1899  158.6357 H   0  0  0  0  0  0  0  0  0  0  0  0
  146.9428  142.5046  153.9844 H   0  0  0  0  0  0  0  0  0  0  0  0
  147.5558  142.2838  155.6182 H   0  0  0  0  0  0  0  0  0  0  0  0
  1  2  1  0  0  0  0
  1 20  1  0  0  0  0
  2 18  1  0  0  0  0
  2 17  1  0  0  0  0
  2  3  1  0  0  0  0
  3  4  1  0  0  0  0
  3 21  1  0  0  0  0
  3 22  1  0  0  0  0
  4  5  1  0  0  0  0
  4 23  1  0  0  0  0
  5 19  1  0  0  0  0
  5  6  1  0  0  0  0
  5 17  1  0  0  0  0
  6 16  1  0  0  0  0
  6  7  2  0  0  0  0
  7  8  1  0  0  0  0
  8  9  1  0  0  0  0
  9 10  1  0  0  0  0
  9 16  2  0  0  0  0
 10 15  1  0  0  0  0
 10 11  2  0  0  0  0
 11 12  1  0  0  0  0
 11 24  1  0  0  0  0
 12 13  2  0  0  0  0
 12 25  1  0  0  0  0
 13 14  1  0  0  0  0
 13 26  1  0  0  0  0
 14 15  2  0  0  0  0
 14 27  1  0  0  0  0
 15 28  1  0  0  0  0
 17 29  1  0  0  0  0
 17 30  1  0  0  0  0
M  CHG  1   8  -1
M  END
> <s_m_source_file>
AV-unprocessed.smi

> <i_m_source_file_index>
47

> <i_lp_mmshare_version>
43012

> <i_f3d_flags>
0

> <s_epik_input>
W09IXVtDQEhdMVtDSDJdW05IXVtDQEBIXShbQ0gyXTEpYzJuW25IXWMobjIpLWMzW2NIXVtjSF1bY0hdW2NIXVtjSF0z

> <s_epik_cmdline>
J2VwaWtfcHl0aG9uJywgJy1waCcsICc3LjAnLCAnLXRuJywgJzgnLCAnLW1hJywgJzIwMCcsICctbWV0YWxfYmluZGluZycsICctaW1hZScsICc8aW5maWxlLm1hZT4nLCAnLW9tYWUnLCAnPG91dGZpbGUubWFlPic=

> <r_epik_Ionization_Penalty>
16.1968

> <r_epik_Ionization_Penalty_Charging>
13.1522

> <r_epik_Ionization_Penalty_Neutral>
3.04463

> <r_epik_State_Penalty>
6.32428

> <r_epik_Charging_Adjusted_Penalty>
19.4764

> <i_epik_Tot_Q>
-1

> <i_epik_Tot_abs_Q>
1

> <r_epik_Metal_State_Penalty>
2.82187

> <b_epik_Metal_Only>
1

> <s_lp_Force_Field>
OPLS_2005

> <r_lp_Energy>
30.4725

> <b_lp_Chiralities_Consistent>
1

> <s_lp_Variant>
AV-unprocessed.smi:47-21

> <Gold.Version>
5.8.1

> <Gold.Id.Protein>
6NUR|6NUR_protein|mol2

> <Gold.PLP.Fitness>
43.0781

> <Gold.PLP.PLP>
-36.3223

> <Gold.PLP.part.hbond>
-3.1458

> <Gold.PLP.part.metal>
0.0000

> <Gold.PLP.part.buried>
-4.6697

> <Gold.PLP.part.nonpolar>
-29.5516

> <Gold.PLP.part.repulsive>
0.7523

> <Gold.PLP.ligand.clash>
0.0000

> <Gold.PLP.ligand.torsion>
1.1273

> <Gold.PLP.Chemscore.Hbond>
3.0000

> <Gold.PLP.Chemscore.CHOScore>
0.0000

> <Gold.PLP.Chemscore.Metal>
0.0000

> <Gold.Chemscore.Hbonds>
donor molecule, donor type, donor heavy atom, donor atom, acceptor molecule, acceptor atom, score
      L1  H     1    20       P1 10175  1.00
      L1  H     4    23       P1  7957  1.00
      P1  H  7989  7998       L1     7  1.00

> <Gold.PLP.Chemscore.Internal.Correction>
0.0103

> <Gold.Rescore>
     Score         DG    S(hbond)    S(metal)    S(lipo)     H(rot)  DE(clash)    DE(int)     intcor
     18.91     -19.87       2.59        0.00      80.92       1.46       0.13       0.82       ----

> <Gold.Chemscore.Fitness>
18.9142

> <Gold.Chemscore.DG>
-19.8668

> <Gold.Chemscore.ZeroCoef>
-5.4800

> <Gold.Chemscore.Hbond>
2.5933

> <Gold.Chemscore.Metal>
0.0000

> <Gold.Chemscore.Lipo>
80.9242

> <Gold.Chemscore.Internal_Hbond>
0.0000

> <Gold.Chemscore.DEClash>
0.1334

> <Gold.Chemscore.DEInternal>
0.8191

> <Gold.Chemscore.Rot>
1.4621

> <Gold.Chemscore.Internal.Correction>
   9.000000E+99

> <Gold.Chemscore.Hbonds>
donor molecule, donor type, donor heavy atom, donor atom, acceptor molecule, acceptor atom, score
      L1  H     1    20       P1 10175  0.99
      L1  H     4    23       P1  7957  0.97
      P1  H  7989  7998       L1     7  0.15

> <Gold.Chemscore.Hbond.Weighted>
-8.6615

> <Gold.Chemscore.Metal.Weighted>
-0.0000

> <Gold.Chemscore.Lipo.Weighted>
-9.4681

> <Gold.Chemscore.Internal_Hbond.Weighted>
0.0000

> <Gold.Chemscore.DEClash.Weighted>
0.1334

> <Gold.Chemscore.DEInternal.Weighted>
0.8191

> <Gold.Chemscore.Rot.Weighted>
3.7429

> <Gold.Chemscore.Internal.Correction.Weighted>
   9.000000E+99

> <Gold.Protein.RotatedTorsions>
[ 6907 6896 6895 6894 ] final  -30.94 input  -60.11 | X-H torsion
[ 7974 7965 7964 7962 ] final   80.52 input  175.53 | X-H torsion
[ 8008 7997 7996 7995 ] final  173.30 input   59.86 | X-H torsion
[ 10167 10162 10161 10158 ] final  -89.07 input  -65.29 | X-H torsion
[ 10718 10713 10712 10709 ] final  -53.17 input   66.30 | X-H torsion
[ 10763 10752 10751 10750 ] final   50.82 input  -60.55 | X-H torsion
[ 11005 11000 10999 10996 ] final  -29.71 input  -57.11 | X-H torsion

> <Gold.Protein.ActiveResidues>
 VAL166  LYS551  ARG553  GLY616  TRP617  ASP618  TYR619  PRO620  LYS621  CYS622 
 ASP623  PHE694  ASN695  SER759  ASP760  ASP761  ALA762  ILE779  LEU786  VAL792 
 PHE793  MET794  SER795  GLU796  ALA797  LYS798  CYS799  TRP800  GLU811  SER814 

> <Gold.Protein.RotatedAtoms>
  151.0988  134.9960  159.8438 H   0  0  0  0  0  0  0  0  0  0  0  0  # atno 6907 bound_to 6896
  152.5435  134.1975  159.8709 H   0  0  0  0  0  0  0  0  0  0  0  0  # atno 6908 bound_to 6896
  151.2017  133.4563  159.2629 H   0  0  0  0  0  0  0  0  0  0  0  0  # atno 6909 bound_to 6896
  145.6502  139.2446  143.1981 H   0  0  0  0  0  0  0  0  0  0  0  0  # atno 7974 bound_to 7965
  156.1089  140.1463  156.9366 H   0  0  0  0  0  0  0  0  0  0  0  0  # atno 8008 bound_to 7997
  154.4753  140.0896  156.7290 H   0  0  0  0  0  0  0  0  0  0  0  0  # atno 8009 bound_to 7997
  155.4631  140.3439  155.4317 H   0  0  0  0  0  0  0  0  0  0  0  0  # atno 8010 bound_to 7997
  140.3684  143.2806  151.9530 H   0  0  0  0  0  0  0  0  0  0  0  0  # atno 10167 bound_to 10162
  156.1558  130.4150  149.9871 H   0  0  0  0  0  0  0  0  0  0  0  0  # atno 10718 bound_to 10713
  152.9784  135.5866  154.4315 H   0  0  0  0  0  0  0  0  0  0  0  0  # atno 10763 bound_to 10752
  154.3927  135.2768  155.2147 H   0  0  0  0  0  0  0  0  0  0  0  0  # atno 10764 bound_to 10752
  154.4012  135.6103  153.5952 H   0  0  0  0  0  0  0  0  0  0  0  0  # atno 10765 bound_to 10752
  140.9320  133.7332  156.0950 H   0  0  0  0  0  0  0  0  0  0  0  0  # atno 11005 bound_to 11000
  146.1210  140.7309  142.9457 LP  0  0  0  0  0  0  0  0  0  0  0  0  # atno 17320 bound_to 7965
  144.7125  140.4092  143.7069 LP  0  0  0  0  0  0  0  0  0  0  0  0  # atno 17321 bound_to 7965
  139.4806  144.5929  151.7740 LP  0  0  0  0  0  0  0  0  0  0  0  0  # atno 17342 bound_to 10162
  140.5058  144.1100  150.5982 LP  0  0  0  0  0  0  0  0  0  0  0  0  # atno 17343 bound_to 10162
  156.7716  130.9188  151.3644 LP  0  0  0  0  0  0  0  0  0  0  0  0  # atno 17370 bound_to 10713
  157.6694  130.9037  150.0005 LP  0  0  0  0  0  0  0  0  0  0  0  0  # atno 17371 bound_to 10713
  140.7850  134.3682  157.5478 LP  0  0  0  0  0  0  0  0  0  0  0  0  # atno 17394 bound_to 11000
  139.8798  134.9105  156.3015 LP  0  0  0  0  0  0  0  0  0  0  0  0  # atno 17395 bound_to 11000

$$$$
