AV-unprocessed.smi:2078|AV-procd|sdf|8472|dock8
  -GOLD-   2272011173D 1   1.00000     0.00000
 Structure written by MMmdl.
 41 42  0  0  0  0  0  0  0  0  3 V2000
  154.0207  141.0690  161.0629 C   0  0  0  0  0  0  0  0  0  0  0  0
  152.9434  141.1621  160.0369 C   0  0  0  0  0  0  0  0  0  0  0  0
  152.8555  140.7333  158.7425 C   0  0  0  0  0  0  0  0  0  0  0  0
  151.5569  141.1553  158.3514 C   0  0  0  0  0  0  0  0  0  0  0  0
  151.0765  140.8945  157.0410 N   0  0  0  0  0  0  0  0  0  0  0  0
  151.5880  140.0785  156.1017 C   0  0  0  0  0  0  0  0  0  0  0  0
  152.6298  139.4484  156.3199 O   0  0  0  0  0  0  0  0  0  0  0  0
  150.8375  140.0674  154.9654 N   0  5  0  0  0  0  0  0  0  0  0  0
  150.0071  138.9484  154.5241 C   0  0  0  0  0  0  0  0  0  0  0  0
  148.7430  139.4683  153.8108 C   0  0  0  0  0  0  0  0  0  0  0  0
  147.7518  138.3812  153.5986 N   0  3  2  0  0  0  0  0  0  0  0  0
  146.6643  138.7468  152.6496 C   0  0  0  0  0  0  0  0  0  0  0  0
  145.7813  137.5307  152.3299 C   0  0  0  0  0  0  0  0  0  0  0  0
  145.2092  136.9141  153.6144 C   0  0  0  0  0  0  0  0  0  0  0  0
  146.3243  136.5949  154.6278 C   0  0  1  0  0  0  0  0  0  0  0  0
  147.1553  135.3622  154.2302 C   0  0  0  0  0  0  0  0  0  0  0  0
  147.2076  137.8363  154.8708 C   0  0  0  0  0  0  0  0  0  0  0  0
  150.9096  141.7835  159.3218 N   0  0  0  0  0  0  0  0  0  0  0  0
  151.7950  141.7919  160.4063 O   0  0  0  0  0  0  0  0  0  0  0  0
  154.5896  140.1468  160.9446 H   0  0  0  0  0  0  0  0  0  0  0  0
  153.6039  141.0807  162.0702 H   0  0  0  0  0  0  0  0  0  0  0  0
  154.7121  141.9069  160.9722 H   0  0  0  0  0  0  0  0  0  0  0  0
  153.6018  140.2045  158.1683 H   0  0  0  0  0  0  0  0  0  0  0  0
  150.2283  141.3774  156.7846 H   0  0  0  0  0  0  0  0  0  0  0  0
  150.5456  138.2740  153.8569 H   0  0  0  0  0  0  0  0  0  0  0  0
  149.7010  138.3319  155.3695 H   0  0  0  0  0  0  0  0  0  0  0  0
  148.3063  140.2567  154.4261 H   0  0  0  0  0  0  0  0  0  0  0  0
  148.9926  139.9377  152.8576 H   0  0  0  0  0  0  0  0  0  0  0  0
  146.0602  139.5480  153.0782 H   0  0  0  0  0  0  0  0  0  0  0  0
  147.0886  139.1346  151.7226 H   0  0  0  0  0  0  0  0  0  0  0  0
  144.9677  137.8274  151.6674 H   0  0  0  0  0  0  0  0  0  0  0  0
  146.3627  136.7867  151.7846 H   0  0  0  0  0  0  0  0  0  0  0  0
  144.5078  137.6183  154.0638 H   0  0  0  0  0  0  0  0  0  0  0  0
  144.6335  136.0176  153.3814 H   0  0  0  0  0  0  0  0  0  0  0  0
  145.8416  136.3469  155.5739 H   0  0  0  0  0  0  0  0  0  0  0  0
  147.7091  135.5247  153.3054 H   0  0  0  0  0  0  0  0  0  0  0  0
  146.5182  134.4893  154.0862 H   0  0  0  0  0  0  0  0  0  0  0  0
  147.8799  135.1137  155.0061 H   0  0  0  0  0  0  0  0  0  0  0  0
  148.0258  137.5721  155.5429 H   0  0  0  0  0  0  0  0  0  0  0  0
  146.6297  138.6143  155.3723 H   0  0  0  0  0  0  0  0  0  0  0  0
  148.2697  137.6255  153.1736 H   0  0  0  0  0  0  0  0  0  0  0  0
  1  2  1  0  0  0  0
  1 20  1  0  0  0  0
  1 21  1  0  0  0  0
  1 22  1  0  0  0  0
  2 19  1  0  0  0  0
  2  3  2  0  0  0  0
  3  4  1  0  0  0  0
  3 23  1  0  0  0  0
  4  5  1  0  0  0  0
  4 18  2  0  0  0  0
  5  6  1  0  0  0  0
  5 24  1  0  0  0  0
  6  7  2  0  0  0  0
  6  8  1  0  0  0  0
  8  9  1  0  0  0  0
  9 10  1  0  0  0  0
  9 25  1  0  0  0  0
  9 26  1  0  0  0  0
 10 11  1  0  0  0  0
 10 27  1  0  0  0  0
 10 28  1  0  0  0  0
 11 17  1  0  0  0  0
 11 12  1  0  0  0  0
 11 41  1  0  0  0  0
 12 13  1  0  0  0  0
 12 29  1  0  0  0  0
 12 30  1  0  0  0  0
 13 14  1  0  0  0  0
 13 31  1  0  0  0  0
 13 32  1  0  0  0  0
 14 15  1  0  0  0  0
 14 33  1  0  0  0  0
 14 34  1  0  0  0  0
 15 16  1  0  0  0  0
 15 17  1  0  0  0  0
 15 35  1  0  0  0  0
 16 36  1  0  0  0  0
 16 37  1  0  0  0  0
 16 38  1  0  0  0  0
 17 39  1  0  0  0  0
 17 40  1  0  0  0  0
 18 19  1  0  0  0  0
M  CHG  1   8  -1
M  CHG  1  11   1
M  END
> <s_m_source_file>
AV-unprocessed.smi

> <i_m_source_file_index>
2078

> <i_lp_mmshare_version>
43012

> <i_f3d_flags>
0

> <s_epik_input>
W0NIM11jMVtjSF1jKG5vMSlbTkhdQyg9TylbTkhdW0NIMl1bQ0gyXU4yW0NIMl1bQ0gyXVtDSDJdW0NAQEhdKFtDSDNdKVtDSDJdMg==

> <s_epik_cmdline>
J2VwaWtfcHl0aG9uJywgJy1waCcsICc3LjAnLCAnLXRuJywgJzgnLCAnLW1hJywgJzIwMCcsICctbWV0YWxfYmluZGluZycsICctaW1hZScsICc8aW5maWxlLm1hZT4nLCAnLW9tYWUnLCAnPG91dGZpbGUubWFlPic=

> <r_epik_Ionization_Penalty>
6.76934

> <r_epik_Ionization_Penalty_Charging>
6.76934

> <r_epik_Ionization_Penalty_Neutral>
5.77849e-06

> <r_epik_State_Penalty>
6.79457

> <r_epik_Charging_Adjusted_Penalty>
13.5639

> <i_epik_Tot_Q>
0

> <i_epik_Tot_abs_Q>
2

> <r_epik_Metal_State_Penalty>
2.72837

> <b_epik_Metal_Only>
1

> <s_lp_Force_Field>
OPLS_2005

> <r_lp_Energy>
14.163

> <b_lp_Chiralities_Consistent>
1

> <s_lp_Variant>
AV-unprocessed.smi:2078-10

> <Gold.Version>
5.8.1

> <Gold.Id.Protein>
6NUR|6NUR_protein|mol2

> <Gold.PLP.Fitness>
40.5040

> <Gold.PLP.PLP>
-30.4207

> <Gold.PLP.part.hbond>
-4.5837

> <Gold.PLP.part.metal>
0.0000

> <Gold.PLP.part.buried>
-2.1072

> <Gold.PLP.part.nonpolar>
-24.7883

> <Gold.PLP.part.repulsive>
0.1958

> <Gold.PLP.ligand.clash>
0.0000

> <Gold.PLP.ligand.torsion>
0.9724

> <Gold.PLP.Chemscore.Hbond>
4.0000

> <Gold.PLP.Chemscore.CHOScore>
0.0000

> <Gold.PLP.Chemscore.Metal>
0.0000

> <Gold.Chemscore.Hbonds>
donor molecule, donor type, donor heavy atom, donor atom, acceptor molecule, acceptor atom, score
      L1  H    11    41       P1  7948  2.00
      P1  H  7989  7998       L1     8  1.00
      P1  H  7997  8009       L1     7  1.00

> <Gold.PLP.Chemscore.Internal.Correction>
0.0281

> <Gold.Rescore>
     Score         DG    S(hbond)    S(metal)    S(lipo)     H(rot)  DE(clash)    DE(int)     intcor
     14.87     -18.49       2.80        0.00      64.84       1.54       1.27       2.35       ----

> <Gold.Chemscore.Fitness>
14.8749

> <Gold.Chemscore.DG>
-18.4873

> <Gold.Chemscore.ZeroCoef>
-5.4800

> <Gold.Chemscore.Hbond>
2.8042

> <Gold.Chemscore.Metal>
0.0000

> <Gold.Chemscore.Lipo>
64.8379

> <Gold.Chemscore.Internal_Hbond>
0.0000

> <Gold.Chemscore.DEClash>
1.2657

> <Gold.Chemscore.DEInternal>
2.3467

> <Gold.Chemscore.Rot>
1.5409

> <Gold.Chemscore.Internal.Correction>
   9.000000E+99

> <Gold.Chemscore.Hbonds>
donor molecule, donor type, donor heavy atom, donor atom, acceptor molecule, acceptor atom, score
      L1  H    11    41       P1  7948  0.94
      P1  H  7989  7998       L1     8  0.67
      P1  H  7997  8009       L1     7  1.00

> <Gold.Chemscore.Hbond.Weighted>
-9.3659

> <Gold.Chemscore.Metal.Weighted>
-0.0000

> <Gold.Chemscore.Lipo.Weighted>
-7.5860

> <Gold.Chemscore.Internal_Hbond.Weighted>
0.0000

> <Gold.Chemscore.DEClash.Weighted>
1.2657

> <Gold.Chemscore.DEInternal.Weighted>
2.3467

> <Gold.Chemscore.Rot.Weighted>
3.9446

> <Gold.Chemscore.Internal.Correction.Weighted>
   9.000000E+99

> <Gold.Protein.RotatedTorsions>
[ 6907 6896 6895 6894 ] final   63.17 input  -60.11 | X-H torsion
[ 7974 7965 7964 7962 ] final -133.72 input  175.53 | X-H torsion
[ 8008 7997 7996 7995 ] final -163.81 input   59.86 | X-H torsion
[ 10167 10162 10161 10158 ] final -132.89 input  -65.29 | X-H torsion
[ 10718 10713 10712 10709 ] final   38.89 input   66.30 | X-H torsion
[ 10763 10752 10751 10750 ] final -169.92 input  -60.55 | X-H torsion
[ 11005 11000 10999 10996 ] final  148.34 input  -57.11 | X-H torsion

> <Gold.Protein.ActiveResidues>
 VAL166  LYS551  ARG553  GLY616  TRP617  ASP618  TYR619  PRO620  LYS621  CYS622 
 ASP623  PHE694  ASN695  SER759  ASP760  ASP761  ALA762  ILE779  LEU786  VAL792 
 PHE793  MET794  SER795  GLU796  ALA797  LYS798  CYS799  TRP800  GLU811  SER814 

> <Gold.Protein.RotatedAtoms>
  152.4231  134.5918  159.9976 H   0  0  0  0  0  0  0  0  0  0  0  0  # atno 6907 bound_to 6896
  151.6062  133.3346  159.3066 H   0  0  0  0  0  0  0  0  0  0  0  0  # atno 6908 bound_to 6896
  150.8120  134.7317  159.6761 H   0  0  0  0  0  0  0  0  0  0  0  0  # atno 6909 bound_to 6896
  144.9167  140.6964  143.4991 H   0  0  0  0  0  0  0  0  0  0  0  0  # atno 7974 bound_to 7965
  155.8267  140.0927  157.1817 H   0  0  0  0  0  0  0  0  0  0  0  0  # atno 8008 bound_to 7997
  154.3979  140.1426  156.3625 H   0  0  0  0  0  0  0  0  0  0  0  0  # atno 8009 bound_to 7997
  155.8209  140.3446  155.5516 H   0  0  0  0  0  0  0  0  0  0  0  0  # atno 8010 bound_to 7997
  139.9039  143.6574  152.2589 H   0  0  0  0  0  0  0  0  0  0  0  0  # atno 10167 bound_to 10162
  157.3642  130.7666  149.7070 H   0  0  0  0  0  0  0  0  0  0  0  0  # atno 10718 bound_to 10713
  154.6471  135.2906  155.0033 H   0  0  0  0  0  0  0  0  0  0  0  0  # atno 10763 bound_to 10752
  154.1139  135.6558  153.4894 H   0  0  0  0  0  0  0  0  0  0  0  0  # atno 10764 bound_to 10752
  153.0356  135.5271  154.7363 H   0  0  0  0  0  0  0  0  0  0  0  0  # atno 10765 bound_to 10752
  140.0952  134.9017  157.1711 H   0  0  0  0  0  0  0  0  0  0  0  0  # atno 11005 bound_to 11000
  145.3363  139.1745  143.4509 LP  0  0  0  0  0  0  0  0  0  0  0  0  # atno 17320 bound_to 7965
  146.3185  140.3399  142.8647 LP  0  0  0  0  0  0  0  0  0  0  0  0  # atno 17321 bound_to 7965
  139.7001  144.7636  151.1288 LP  0  0  0  0  0  0  0  0  0  0  0  0  # atno 17342 bound_to 10162
  140.7701  143.5470  150.9248 LP  0  0  0  0  0  0  0  0  0  0  0  0  # atno 17343 bound_to 10162
  155.9743  130.4105  150.3935 LP  0  0  0  0  0  0  0  0  0  0  0  0  # atno 17370 bound_to 10713
  157.2016  131.0439  151.2647 LP  0  0  0  0  0  0  0  0  0  0  0  0  # atno 17371 bound_to 10713
  140.3297  134.2824  155.7230 LP  0  0  0  0  0  0  0  0  0  0  0  0  # atno 17394 bound_to 11000
  141.2090  133.7762  157.0026 LP  0  0  0  0  0  0  0  0  0  0  0  0  # atno 17395 bound_to 11000

$$$$
