AV-unprocessed.smi:2589|AV-procd|sdf|10151|dock10
  -GOLD-   2272014163D 1   1.00000     0.00000
 Structure written by MMmdl.
 41 42  0  0  0  0  0  0  0  0  1 V2000
  146.8305  134.0450  162.3462 C   0  0  0  0  0  0  0  0  0  0  0  0
  147.1032  134.4903  160.9140 C   0  0  0  0  0  0  0  0  0  0  0  0
  147.3989  133.6610  160.0543 O   0  0  0  0  0  0  0  0  0  0  0  0
  146.9978  135.8057  160.6707 N   0  0  0  0  0  0  0  0  0  0  0  0
  147.1935  136.4370  159.3682 C   0  0  0  0  0  0  0  0  0  0  0  0
  148.6610  136.4341  158.9245 C   0  0  0  0  0  0  0  0  0  0  0  0
  149.2685  135.3733  158.7731 O   0  0  0  0  0  0  0  0  0  0  0  0
  149.2114  137.6359  158.6966 N   0  0  0  0  0  0  0  0  0  0  0  0
  150.5838  137.8514  158.2527 C   0  0  0  0  0  0  0  0  0  0  0  0
  150.6909  138.1736  156.7636 C   0  0  0  0  0  0  0  0  0  0  0  0
  150.5727  137.1307  155.8186 C   0  0  0  0  0  0  0  0  0  0  0  0
  150.6583  137.4286  154.4468 C   0  0  0  0  0  0  0  0  0  0  0  0
  150.8563  138.7683  154.0675 C   0  0  0  0  0  0  0  0  0  0  0  0
  150.9681  139.7775  154.9552 N   0  0  0  0  0  0  0  0  0  0  0  0
  150.8871  139.4937  156.2781 C   0  0  0  0  0  0  0  0  0  0  0  0
  151.0299  140.5682  157.1701 N   0  0  0  0  0  0  0  0  0  0  0  0
  150.9729  141.8892  156.5571 C   0  0  0  0  0  0  0  0  0  0  0  0
  150.9748  142.9699  157.6520 C   0  0  0  0  0  0  0  0  0  0  0  0
  152.1207  142.8059  158.4838 O   0  0  0  0  0  0  0  0  0  0  0  0
  152.1378  141.5360  159.1311 C   0  0  0  0  0  0  0  0  0  0  0  0
  152.1620  140.4186  158.0745 C   0  0  0  0  0  0  0  0  0  0  0  0
  145.7853  134.2173  162.6036 H   0  0  0  0  0  0  0  0  0  0  0  0
  147.4556  134.6001  163.0459 H   0  0  0  0  0  0  0  0  0  0  0  0
  147.0419  132.9825  162.4691 H   0  0  0  0  0  0  0  0  0  0  0  0
  146.7416  136.4115  161.4366 H   0  0  0  0  0  0  0  0  0  0  0  0
  146.6092  135.8878  158.6301 H   0  0  0  0  0  0  0  0  0  0  0  0
  146.8032  137.4564  159.3813 H   0  0  0  0  0  0  0  0  0  0  0  0
  148.6425  138.4571  158.8434 H   0  0  0  0  0  0  0  0  0  0  0  0
  150.9843  138.7001  158.8072 H   0  0  0  0  0  0  0  0  0  0  0  0
  151.1939  136.9951  158.5409 H   0  0  0  0  0  0  0  0  0  0  0  0
  150.4154  136.1113  156.1397 H   0  0  0  0  0  0  0  0  0  0  0  0
  150.5721  136.6497  153.7038 H   0  0  0  0  0  0  0  0  0  0  0  0
  150.9264  139.0373  153.0240 H   0  0  0  0  0  0  0  0  0  0  0  0
  151.8303  142.0303  155.8974 H   0  0  0  0  0  0  0  0  0  0  0  0
  150.0745  141.9742  155.9448 H   0  0  0  0  0  0  0  0  0  0  0  0
  151.0007  143.9622  157.2019 H   0  0  0  0  0  0  0  0  0  0  0  0
  150.0659  142.9154  158.2536 H   0  0  0  0  0  0  0  0  0  0  0  0
  153.0212  141.4720  159.7664 H   0  0  0  0  0  0  0  0  0  0  0  0
  151.2679  141.4352  159.7823 H   0  0  0  0  0  0  0  0  0  0  0  0
  152.1278  139.4425  158.5589 H   0  0  0  0  0  0  0  0  0  0  0  0
  153.0925  140.4636  157.5068 H   0  0  0  0  0  0  0  0  0  0  0  0
  1  2  1  0  0  0  0
  1 22  1  0  0  0  0
  1 23  1  0  0  0  0
  1 24  1  0  0  0  0
  2  3  2  0  0  0  0
  2  4  1  0  0  0  0
  4  5  1  0  0  0  0
  4 25  1  0  0  0  0
  5  6  1  0  0  0  0
  5 26  1  0  0  0  0
  5 27  1  0  0  0  0
  6  7  2  0  0  0  0
  6  8  1  0  0  0  0
  8  9  1  0  0  0  0
  8 28  1  0  0  0  0
  9 10  1  0  0  0  0
  9 29  1  0  0  0  0
  9 30  1  0  0  0  0
 10 15  1  0  0  0  0
 10 11  2  0  0  0  0
 11 12  1  0  0  0  0
 11 31  1  0  0  0  0
 12 13  2  0  0  0  0
 12 32  1  0  0  0  0
 13 14  1  0  0  0  0
 13 33  1  0  0  0  0
 14 15  2  0  0  0  0
 15 16  1  0  0  0  0
 16 21  1  0  0  0  0
 16 17  1  0  0  0  0
 17 18  1  0  0  0  0
 17 34  1  0  0  0  0
 17 35  1  0  0  0  0
 18 19  1  0  0  0  0
 18 36  1  0  0  0  0
 18 37  1  0  0  0  0
 19 20  1  0  0  0  0
 20 21  1  0  0  0  0
 20 38  1  0  0  0  0
 20 39  1  0  0  0  0
 21 40  1  0  0  0  0
 21 41  1  0  0  0  0
M  END
> <s_m_source_file>
AV-unprocessed.smi

> <i_m_source_file_index>
2589

> <i_lp_mmshare_version>
43012

> <i_f3d_flags>
0

> <s_epik_input>
W0NIM11DKD1PKVtOSF1bQ0gyXUMoPU8pW05IXVtDSDJdYzFbY0hdW2NIXVtjSF1uYzFOMltDSDJdW0NIMl1PW0NIMl1bQ0gyXTI=

> <s_epik_cmdline>
J2VwaWtfcHl0aG9uJywgJy1waCcsICc3LjAnLCAnLXRuJywgJzgnLCAnLW1hJywgJzIwMCcsICctbWV0YWxfYmluZGluZycsICctaW1hZScsICc8aW5maWxlLm1hZT4nLCAnLW9tYWUnLCAnPG91dGZpbGUubWFlPic=

> <r_lp_tautomer_probability>
1

> <r_epik_Ionization_Penalty>
0.00462917

> <r_epik_Ionization_Penalty_Charging>
0

> <r_epik_Ionization_Penalty_Neutral>
0.00462917

> <r_epik_State_Penalty>
0.00334737

> <r_epik_Charging_Adjusted_Penalty>
0.00334737

> <i_epik_Tot_Q>
0

> <i_epik_Tot_abs_Q>
0

> <r_epik_Metal_State_Penalty>
-0

> <b_epik_Metal_Only>
0

> <s_lp_Force_Field>
OPLS_2005

> <r_lp_Energy>
14.0488

> <b_lp_Chiralities_Consistent>
1

> <s_lp_Variant>
AV-unprocessed.smi:2589-1

> <Gold.Version>
5.8.1

> <Gold.Id.Protein>
6NUR|6NUR_protein|mol2

> <Gold.PLP.Fitness>
37.1041

> <Gold.PLP.PLP>
-30.8350

> <Gold.PLP.part.hbond>
-2.0000

> <Gold.PLP.part.metal>
0.0000

> <Gold.PLP.part.buried>
-5.4671

> <Gold.PLP.part.nonpolar>
-23.4922

> <Gold.PLP.part.repulsive>
0.4227

> <Gold.PLP.ligand.clash>
0.0000

> <Gold.PLP.ligand.torsion>
0.5344

> <Gold.PLP.Chemscore.Hbond>
1.4000

> <Gold.PLP.Chemscore.CHOScore>
1.0000

> <Gold.PLP.Chemscore.Metal>
0.0000

> <Gold.Chemscore.Hbonds>
donor molecule, donor type, donor heavy atom, donor atom, acceptor molecule, acceptor atom, score
      P1  H  6896  6909       L1     7  1.00
      P1  H  7989  7998       L1    14  0.35
      L1  C    13    33       P1  7957  1.00

> <Gold.PLP.Chemscore.Internal.Correction>
0.1378

> <Gold.Rescore>
     Score         DG    S(hbond)    S(metal)    S(lipo)     H(rot)  DE(clash)    DE(int)     intcor
     10.94     -11.72       1.01        0.00      74.30       2.28       0.05       0.73       ----

> <Gold.Chemscore.Fitness>
10.9380

> <Gold.Chemscore.DG>
-11.7189

> <Gold.Chemscore.ZeroCoef>
-5.4800

> <Gold.Chemscore.Hbond>
1.0103

> <Gold.Chemscore.Metal>
0.0000

> <Gold.Chemscore.Lipo>
74.2959

> <Gold.Chemscore.Internal_Hbond>
0.0000

> <Gold.Chemscore.DEClash>
0.0528

> <Gold.Chemscore.DEInternal>
0.7281

> <Gold.Chemscore.Rot>
2.2766

> <Gold.Chemscore.Internal.Correction>
   9.000000E+99

> <Gold.Chemscore.Hbonds>
donor molecule, donor type, donor heavy atom, donor atom, acceptor molecule, acceptor atom, score
      P1  H  6896  6909       L1     7  1.00
      P1  H  7989  7998       L1    14  0.01

> <Gold.Chemscore.Hbond.Weighted>
-3.3744

> <Gold.Chemscore.Metal.Weighted>
-0.0000

> <Gold.Chemscore.Lipo.Weighted>
-8.6926

> <Gold.Chemscore.Internal_Hbond.Weighted>
0.0000

> <Gold.Chemscore.DEClash.Weighted>
0.0528

> <Gold.Chemscore.DEInternal.Weighted>
0.7281

> <Gold.Chemscore.Rot.Weighted>
5.8281

> <Gold.Chemscore.Internal.Correction.Weighted>
   9.000000E+99

> <Gold.Protein.RotatedTorsions>
[ 6907 6896 6895 6894 ] final   52.12 input  -60.11 | X-H torsion
[ 7974 7965 7964 7962 ] final  102.90 input  175.53 | X-H torsion
[ 8008 7997 7996 7995 ] final  -98.47 input   59.86 | X-H torsion
[ 10167 10162 10161 10158 ] final  -90.13 input  -65.29 | X-H torsion
[ 10718 10713 10712 10709 ] final  -70.72 input   66.30 | X-H torsion
[ 10763 10752 10751 10750 ] final  -18.28 input  -60.55 | X-H torsion
[ 11005 11000 10999 10996 ] final   23.91 input  -57.11 | X-H torsion

> <Gold.Protein.ActiveResidues>
 VAL166  LYS551  ARG553  GLY616  TRP617  ASP618  TYR619  PRO620  LYS621  CYS622 
 ASP623  PHE694  ASN695  SER759  ASP760  ASP761  ALA762  ILE779  LEU786  VAL792 
 PHE793  MET794  SER795  GLU796  ALA797  LYS798  CYS799  TRP800  GLU811  SER814 

> <Gold.Protein.RotatedAtoms>
  152.3200  134.7392  160.0315 H   0  0  0  0  0  0  0  0  0  0  0  0  # atno 6907 bound_to 6896
  151.7844  133.3347  159.3489 H   0  0  0  0  0  0  0  0  0  0  0  0  # atno 6908 bound_to 6896
  150.7365  134.5832  159.5994 H   0  0  0  0  0  0  0  0  0  0  0  0  # atno 6909 bound_to 6896
  145.3530  139.2435  143.3547 H   0  0  0  0  0  0  0  0  0  0  0  0  # atno 7974 bound_to 7965
  154.8017  140.0455  157.1277 H   0  0  0  0  0  0  0  0  0  0  0  0  # atno 8008 bound_to 7997
  154.9471  140.3060  155.5073 H   0  0  0  0  0  0  0  0  0  0  0  0  # atno 8009 bound_to 7997
  156.2962  140.2295  156.4545 H   0  0  0  0  0  0  0  0  0  0  0  0  # atno 8010 bound_to 7997
  140.3579  143.2857  151.9649 H   0  0  0  0  0  0  0  0  0  0  0  0  # atno 10167 bound_to 10162
  156.0395  130.4337  150.2337 H   0  0  0  0  0  0  0  0  0  0  0  0  # atno 10718 bound_to 10713
  153.5868  135.7003  153.5440 H   0  0  0  0  0  0  0  0  0  0  0  0  # atno 10763 bound_to 10752
  153.3213  135.4073  155.1418 H   0  0  0  0  0  0  0  0  0  0  0  0  # atno 10764 bound_to 10752
  154.8608  135.3696  154.5398 H   0  0  0  0  0  0  0  0  0  0  0  0  # atno 10765 bound_to 10752
  140.3644  134.2090  155.7670 H   0  0  0  0  0  0  0  0  0  0  0  0  # atno 11005 bound_to 11000
  146.2960  140.4150  142.8722 LP  0  0  0  0  0  0  0  0  0  0  0  0  # atno 17320 bound_to 7965
  144.8703  140.7263  143.6051 LP  0  0  0  0  0  0  0  0  0  0  0  0  # atno 17321 bound_to 7965
  139.4818  144.6019  151.7591 LP  0  0  0  0  0  0  0  0  0  0  0  0  # atno 17342 bound_to 10162
  140.5156  144.0959  150.6007 LP  0  0  0  0  0  0  0  0  0  0  0  0  # atno 17343 bound_to 10162
  157.0433  131.0041  151.3276 LP  0  0  0  0  0  0  0  0  0  0  0  0  # atno 17370 bound_to 10713
  157.5193  130.7988  149.7791 LP  0  0  0  0  0  0  0  0  0  0  0  0  # atno 17371 bound_to 10713
  141.1974  133.8060  157.0629 LP  0  0  0  0  0  0  0  0  0  0  0  0  # atno 17394 bound_to 11000
  140.0601  134.9759  157.1289 LP  0  0  0  0  0  0  0  0  0  0  0  0  # atno 17395 bound_to 11000

$$$$
