AV-unprocessed.smi:888|AV-procd|sdf|4055|dock8
  -GOLD-   22720 1543D 1   1.00000     0.00000
 Structure written by MMmdl.
 45 46  0  0  0  0  0  0  0  0  1 V2000
  151.6742  140.2416  157.8683 C   0  0  0  0  0  0  0  0  0  0  0  0
  151.5356  140.5859  156.3815 C   0  0  0  0  0  0  0  0  0  0  0  0
  151.5612  139.3728  155.5039 C   0  0  0  0  0  0  0  0  0  0  0  0
  152.6056  138.5385  155.4319 N   0  0  0  0  0  0  0  0  0  0  0  0
  152.2344  137.5528  154.5391 N   0  0  0  0  0  0  0  0  0  0  0  0
  150.9992  137.8856  154.1675 C   0  0  0  0  0  0  0  0  0  0  0  0
  150.5170  139.0029  154.7327 N   0  0  0  0  0  0  0  0  0  0  0  0
  149.2172  139.6190  154.5407 C   0  0  0  0  0  0  0  0  0  0  0  0
  148.0829  138.6973  155.0075 C   0  0  0  0  0  0  0  0  0  0  0  0
  147.6351  137.8440  153.9109 N   0  0  0  0  0  0  0  0  0  0  0  0
  146.3719  137.4849  153.6260 C   0  0  0  0  0  0  0  0  0  0  0  0
  145.4210  137.8602  154.3088 O   0  0  0  0  0  0  0  0  0  0  0  0
  146.2503  136.6866  152.5511 N   0  0  0  0  0  0  0  0  0  0  0  0
  144.9978  136.1477  152.0177 C   0  0  1  0  0  0  0  0  0  0  0  0
  145.2212  135.7125  150.5575 C   0  0  0  0  0  0  0  0  0  0  0  0
  145.3594  134.1838  150.5638 C   0  0  0  0  0  0  0  0  0  0  0  0
  145.2838  133.7534  152.0317 C   0  0  0  0  0  0  0  0  0  0  0  0
  144.5231  134.8718  152.7620 C   0  0  0  0  0  0  0  0  0  0  0  0
  144.8203  134.8602  154.2773 C   0  0  0  0  0  0  0  0  0  0  0  0
  143.0023  134.6876  152.5663 C   0  0  0  0  0  0  0  0  0  0  0  0
  151.6571  141.1447  158.4786 H   0  0  0  0  0  0  0  0  0  0  0  0
  152.6129  139.7231  158.0658 H   0  0  0  0  0  0  0  0  0  0  0  0
  150.8595  139.5987  158.2016 H   0  0  0  0  0  0  0  0  0  0  0  0
  150.6164  141.1458  156.2105 H   0  0  0  0  0  0  0  0  0  0  0  0
  152.3507  141.2457  156.0829 H   0  0  0  0  0  0  0  0  0  0  0  0
  150.4289  137.2961  153.4644 H   0  0  0  0  0  0  0  0  0  0  0  0
  149.1955  140.5576  155.0964 H   0  0  0  0  0  0  0  0  0  0  0  0
  149.0996  139.8761  153.4874 H   0  0  0  0  0  0  0  0  0  0  0  0
  148.4232  138.0752  155.8370 H   0  0  0  0  0  0  0  0  0  0  0  0
  147.2444  139.2939  155.3708 H   0  0  0  0  0  0  0  0  0  0  0  0
  148.3578  137.4836  153.3044 H   0  0  0  0  0  0  0  0  0  0  0  0
  147.0942  136.4305  152.0601 H   0  0  0  0  0  0  0  0  0  0  0  0
  144.2300  136.9231  152.0522 H   0  0  0  0  0  0  0  0  0  0  0  0
  144.3610  135.9957  149.9497 H   0  0  0  0  0  0  0  0  0  0  0  0
  146.0920  136.1932  150.1088 H   0  0  0  0  0  0  0  0  0  0  0  0
  144.5409  133.7367  149.9985 H   0  0  0  0  0  0  0  0  0  0  0  0
  146.2906  133.8564  150.1007 H   0  0  0  0  0  0  0  0  0  0  0  0
  144.8205  132.7736  152.1534 H   0  0  0  0  0  0  0  0  0  0  0  0
  146.2980  133.6781  152.4269 H   0  0  0  0  0  0  0  0  0  0  0  0
  144.4396  133.9512  154.7442 H   0  0  0  0  0  0  0  0  0  0  0  0
  144.3502  135.7079  154.7769 H   0  0  0  0  0  0  0  0  0  0  0  0
  145.8890  134.9014  154.4893 H   0  0  0  0  0  0  0  0  0  0  0  0
  142.6572  133.7498  153.0029 H   0  0  0  0  0  0  0  0  0  0  0  0
  142.7209  134.6781  151.5129 H   0  0  0  0  0  0  0  0  0  0  0  0
  142.4448  135.4942  153.0433 H   0  0  0  0  0  0  0  0  0  0  0  0
  1  2  1  0  0  0  0
  1 21  1  0  0  0  0
  1 22  1  0  0  0  0
  1 23  1  0  0  0  0
  2  3  1  0  0  0  0
  2 24  1  0  0  0  0
  2 25  1  0  0  0  0
  3  7  1  0  0  0  0
  3  4  2  0  0  0  0
  4  5  1  0  0  0  0
  5  6  2  0  0  0  0
  6  7  1  0  0  0  0
  6 26  1  0  0  0  0
  7  8  1  0  0  0  0
  8  9  1  0  0  0  0
  8 27  1  0  0  0  0
  8 28  1  0  0  0  0
  9 10  1  0  0  0  0
  9 29  1  0  0  0  0
  9 30  1  0  0  0  0
 10 11  1  0  0  0  0
 10 31  1  0  0  0  0
 11 12  2  0  0  0  0
 11 13  1  0  0  0  0
 13 14  1  0  0  0  0
 13 32  1  0  0  0  0
 14 18  1  0  0  0  0
 14 15  1  0  0  0  0
 14 33  1  0  0  0  0
 15 16  1  0  0  0  0
 15 34  1  0  0  0  0
 15 35  1  0  0  0  0
 16 17  1  0  0  0  0
 16 36  1  0  0  0  0
 16 37  1  0  0  0  0
 17 18  1  0  0  0  0
 17 38  1  0  0  0  0
 17 39  1  0  0  0  0
 18 19  1  0  0  0  0
 18 20  1  0  0  0  0
 19 40  1  0  0  0  0
 19 41  1  0  0  0  0
 19 42  1  0  0  0  0
 20 43  1  0  0  0  0
 20 44  1  0  0  0  0
 20 45  1  0  0  0  0
M  END
> <s_m_source_file>
AV-unprocessed.smi

> <i_m_source_file_index>
888

> <i_lp_mmshare_version>
43012

> <i_f3d_flags>
0

> <s_epik_input>
W0NIM11bQ0gyXWMxbm5bY0hdbjFbQ0gyXVtDSDJdW05IXUMoPU8pW05IXVtDQEBIXShDMihbQ0gzXSlbQ0gzXSlbQ0gyXVtDSDJdW0NIMl0y

> <s_epik_cmdline>
J2VwaWtfcHl0aG9uJywgJy1waCcsICc3LjAnLCAnLXRuJywgJzgnLCAnLW1hJywgJzIwMCcsICctbWV0YWxfYmluZGluZycsICctaW1hZScsICc8aW5maWxlLm1hZT4nLCAnLW9tYWUnLCAnPG91dGZpbGUubWFlPic=

> <r_lp_tautomer_probability>
1

> <r_epik_Ionization_Penalty>
0.000379534

> <r_epik_Ionization_Penalty_Charging>
0

> <r_epik_Ionization_Penalty_Neutral>
0.000379534

> <r_epik_State_Penalty>
-0

> <r_epik_Charging_Adjusted_Penalty>
0

> <i_epik_Tot_Q>
0

> <i_epik_Tot_abs_Q>
0

> <r_epik_Metal_State_Penalty>
-0

> <b_epik_Metal_Only>
0

> <s_lp_Force_Field>
OPLS_2005

> <r_lp_Energy>
32.1677

> <b_lp_Chiralities_Consistent>
1

> <s_lp_Variant>
AV-unprocessed.smi:888-2

> <Gold.Version>
5.8.1

> <Gold.Id.Protein>
6NUR|6NUR_protein|mol2

> <Gold.PLP.Fitness>
43.0359

> <Gold.PLP.PLP>
-32.6206

> <Gold.PLP.part.hbond>
-3.0000

> <Gold.PLP.part.metal>
0.0000

> <Gold.PLP.part.buried>
-5.7341

> <Gold.PLP.part.nonpolar>
-25.0940

> <Gold.PLP.part.repulsive>
0.2486

> <Gold.PLP.ligand.clash>
0.0000

> <Gold.PLP.ligand.torsion>
0.6428

> <Gold.PLP.Chemscore.Hbond>
2.7680

> <Gold.PLP.Chemscore.CHOScore>
1.1243

> <Gold.PLP.Chemscore.Metal>
0.0000

> <Gold.Chemscore.Hbonds>
donor molecule, donor type, donor heavy atom, donor atom, acceptor molecule, acceptor atom, score
      L1  H    10    31       P1  7948  1.00
      L1  H    13    32       P1  7948  1.00
      P1  H 10752 10764       L1     5  0.72
      L1  C     6    26       P1  7948  0.67
      L1  C     6    26       P1  7949  0.42

> <Gold.PLP.Chemscore.Internal.Correction>
0.0242

> <Gold.Rescore>
     Score         DG    S(hbond)    S(metal)    S(lipo)     H(rot)  DE(clash)    DE(int)     intcor
     15.48     -16.20       2.87        0.00      54.23       2.03       0.01       0.71       ----

> <Gold.Chemscore.Fitness>
15.4830

> <Gold.Chemscore.DG>
-16.1996

> <Gold.Chemscore.ZeroCoef>
-5.4800

> <Gold.Chemscore.Hbond>
2.8651

> <Gold.Chemscore.Metal>
0.0000

> <Gold.Chemscore.Lipo>
54.2325

> <Gold.Chemscore.Internal_Hbond>
0.0000

> <Gold.Chemscore.DEClash>
0.0104

> <Gold.Chemscore.DEInternal>
0.7063

> <Gold.Chemscore.Rot>
2.0293

> <Gold.Chemscore.Internal.Correction>
   9.000000E+99

> <Gold.Chemscore.Hbonds>
donor molecule, donor type, donor heavy atom, donor atom, acceptor molecule, acceptor atom, score
      L1  H    10    31       P1  7948  0.92
      L1  H    13    32       P1  7948  0.98
      P1  H 10752 10764       L1     5  0.67

> <Gold.Chemscore.Hbond.Weighted>
-9.5694

> <Gold.Chemscore.Metal.Weighted>
-0.0000

> <Gold.Chemscore.Lipo.Weighted>
-6.3452

> <Gold.Chemscore.Internal_Hbond.Weighted>
0.0000

> <Gold.Chemscore.DEClash.Weighted>
0.0104

> <Gold.Chemscore.DEInternal.Weighted>
0.7063

> <Gold.Chemscore.Rot.Weighted>
5.1950

> <Gold.Chemscore.Internal.Correction.Weighted>
   9.000000E+99

> <Gold.Protein.RotatedTorsions>
[ 6907 6896 6895 6894 ] final  -97.08 input  -60.11 | X-H torsion
[ 7974 7965 7964 7962 ] final -135.67 input  175.53 | X-H torsion
[ 8008 7997 7996 7995 ] final  158.18 input   59.86 | X-H torsion
[ 10167 10162 10161 10158 ] final -118.81 input  -65.29 | X-H torsion
[ 10718 10713 10712 10709 ] final  -26.84 input   66.30 | X-H torsion
[ 10763 10752 10751 10750 ] final  -71.13 input  -60.55 | X-H torsion
[ 11005 11000 10999 10996 ] final -103.07 input  -57.11 | X-H torsion

> <Gold.Protein.ActiveResidues>
 VAL166  LYS551  ARG553  GLY616  TRP617  ASP618  TYR619  PRO620  LYS621  CYS622 
 ASP623  PHE694  ASN695  SER759  ASP760  ASP761  ALA762  ILE779  LEU786  VAL792 
 PHE793  MET794  SER795  GLU796  ALA797  LYS798  CYS799  TRP800  GLU811  SER814 

> <Gold.Protein.RotatedAtoms>
  150.7006  134.1403  159.4102 H   0  0  0  0  0  0  0  0  0  0  0  0  # atno 6907 bound_to 6896
  151.9388  135.0221  160.0543 H   0  0  0  0  0  0  0  0  0  0  0  0  # atno 6908 bound_to 6896
  152.2112  133.4877  159.5148 H   0  0  0  0  0  0  0  0  0  0  0  0  # atno 6909 bound_to 6896
  144.8994  140.6750  143.5095 H   0  0  0  0  0  0  0  0  0  0  0  0  # atno 7974 bound_to 7965
  156.2318  140.1865  156.7222 H   0  0  0  0  0  0  0  0  0  0  0  0  # atno 8008 bound_to 7997
  154.6036  140.0632  156.9429 H   0  0  0  0  0  0  0  0  0  0  0  0  # atno 8009 bound_to 7997
  155.2132  140.3301  155.4328 H   0  0  0  0  0  0  0  0  0  0  0  0  # atno 8010 bound_to 7997
  140.0534  143.5037  152.2070 H   0  0  0  0  0  0  0  0  0  0  0  0  # atno 10167 bound_to 10162
  156.4459  130.4474  149.7021 H   0  0  0  0  0  0  0  0  0  0  0  0  # atno 10718 bound_to 10713
  154.4274  135.5972  153.6047 H   0  0  0  0  0  0  0  0  0  0  0  0  # atno 10763 bound_to 10752
  152.9797  135.5967  154.3881 H   0  0  0  0  0  0  0  0  0  0  0  0  # atno 10764 bound_to 10752
  154.3714  135.2841  155.2242 H   0  0  0  0  0  0  0  0  0  0  0  0  # atno 10765 bound_to 10752
  141.1162  133.8610  157.1439 H   0  0  0  0  0  0  0  0  0  0  0  0  # atno 11005 bound_to 11000
  145.3643  139.1674  143.4366 LP  0  0  0  0  0  0  0  0  0  0  0  0  # atno 17320 bound_to 7965
  146.3099  140.3709  142.8674 LP  0  0  0  0  0  0  0  0  0  0  0  0  # atno 17321 bound_to 7965
  139.5938  144.7560  151.3335 LP  0  0  0  0  0  0  0  0  0  0  0  0  # atno 17342 bound_to 10162
  140.7206  143.7147  150.7742 LP  0  0  0  0  0  0  0  0  0  0  0  0  # atno 17343 bound_to 10162
  156.3867  130.7606  151.2604 LP  0  0  0  0  0  0  0  0  0  0  0  0  # atno 17370 bound_to 10713
  157.7505  131.0280  150.4028 LP  0  0  0  0  0  0  0  0  0  0  0  0  # atno 17371 bound_to 10713
  140.0086  134.9998  157.0346 LP  0  0  0  0  0  0  0  0  0  0  0  0  # atno 17394 bound_to 11000
  140.4639  134.1455  155.7194 LP  0  0  0  0  0  0  0  0  0  0  0  0  # atno 17395 bound_to 11000

$$$$
