AV-unprocessed.smi:198|AV-procd|sdf|1553|dock7
  -GOLD-   2262019423D 1   1.00000     0.00000
 Structure written by MMmdl.
 59 63  0  0  0  0  0  0  0  0  2 V2000
  148.1072  141.5356  156.8969 C   0  0  0  0  0  0  0  0  0  0  0  0
  148.7944  141.8069  155.6126 N   0  3  2  0  0  0  0  0  0  0  0  0
  148.2133  141.0779  154.4572 C   0  0  0  0  0  0  0  0  0  0  0  0
  148.5865  139.5859  154.4734 C   0  0  0  0  0  0  0  0  0  0  0  0
  150.1191  139.3975  154.5363 C   0  0  1  0  0  0  0  0  0  0  0  0
  150.7202  140.1864  155.7238 C   0  0  1  0  0  0  0  0  0  0  0  0
  152.2564  140.0675  155.7045 C   0  0  0  0  0  0  0  0  0  0  0  0
  152.6943  138.5947  155.7019 C   0  0  0  0  0  0  0  0  0  0  0  0
  152.0140  137.8082  154.5628 C   0  0  0  0  0  0  0  0  0  0  0  0
  150.5623  137.9961  154.5481 N   0  0  0  0  0  0  0  0  0  0  0  0
  149.8440  137.1090  155.2784 C   0  0  0  0  0  0  0  0  0  0  0  0
  149.3403  135.9902  154.6961 N   0  0  0  0  0  0  0  0  0  0  0  0
  148.6582  135.1039  155.4274 C   0  0  0  0  0  0  0  0  0  0  0  0
  148.3749  135.1397  156.7314 N   0  0  0  0  0  0  0  0  0  0  0  0
  148.8773  136.2643  157.3181 C   0  0  0  0  0  0  0  0  0  0  0  0
  149.6178  137.2905  156.6688 C   0  0  0  0  0  0  0  0  0  0  0  0
  149.9779  138.2710  157.5833 N   0  0  0  0  0  0  0  0  0  0  0  0
  149.4823  137.8455  158.7133 C   0  0  0  0  0  0  0  0  0  0  0  0
  148.7927  136.6539  158.6438 N   0  0  0  0  0  0  0  0  0  0  0  0
  148.1714  135.9403  159.7239 C   0  0  0  0  0  0  0  0  0  0  0  0
  146.6515  135.8715  159.8952 C   0  0  0  0  0  0  0  0  0  0  0  0
  146.8398  135.8308  161.4303 C   0  0  0  0  0  0  0  0  0  0  0  0
  145.8724  136.6943  162.2589 C   0  0  0  0  0  0  0  0  0  0  0  0
  145.7544  138.0036  161.7410 O   0  0  0  0  0  0  0  0  0  0  0  0
  146.9505  134.4324  162.0737 C   0  0  0  0  0  0  0  0  0  0  0  0
  147.4116  134.4959  163.4075 O   0  0  0  0  0  0  0  0  0  0  0  0
  148.2052  136.4986  161.1462 C   0  0  0  0  0  0  0  0  0  0  0  0
  150.2712  141.6635  155.6824 C   0  0  0  0  0  0  0  0  0  0  0  0
  148.2253  140.4994  157.2137 H   0  0  0  0  0  0  0  0  0  0  0  0
  147.0404  141.7425  156.8101 H   0  0  0  0  0  0  0  0  0  0  0  0
  148.5047  142.1769  157.6844 H   0  0  0  0  0  0  0  0  0  0  0  0
  147.1296  141.2007  154.4447 H   0  0  0  0  0  0  0  0  0  0  0  0
  148.5844  141.5350  153.5391 H   0  0  0  0  0  0  0  0  0  0  0  0
  148.0987  139.1069  155.3227 H   0  0  0  0  0  0  0  0  0  0  0  0
  148.1897  139.1056  153.5786 H   0  0  0  0  0  0  0  0  0  0  0  0
  150.5244  139.8256  153.6179 H   0  0  0  0  0  0  0  0  0  0  0  0
  150.3635  139.7470  156.6560 H   0  0  0  0  0  0  0  0  0  0  0  0
  152.6540  140.5631  154.8176 H   0  0  0  0  0  0  0  0  0  0  0  0
  152.6869  140.5792  156.5659 H   0  0  0  0  0  0  0  0  0  0  0  0
  153.7776  138.5294  155.5984 H   0  0  0  0  0  0  0  0  0  0  0  0
  152.4583  138.1450  156.6661 H   0  0  0  0  0  0  0  0  0  0  0  0
  152.4070  138.1436  153.6022 H   0  0  0  0  0  0  0  0  0  0  0  0
  152.2576  136.7474  154.6401 H   0  0  0  0  0  0  0  0  0  0  0  0
  148.2872  134.2424  154.8919 H   0  0  0  0  0  0  0  0  0  0  0  0
  149.6146  138.3968  159.6323 H   0  0  0  0  0  0  0  0  0  0  0  0
  148.5816  134.9294  159.7007 H   0  0  0  0  0  0  0  0  0  0  0  0
  146.1333  136.7727  159.5655 H   0  0  0  0  0  0  0  0  0  0  0  0
  146.1922  134.9825  159.4622 H   0  0  0  0  0  0  0  0  0  0  0  0
  144.8810  136.2428  162.3083 H   0  0  0  0  0  0  0  0  0  0  0  0
  146.2194  136.7825  163.2890 H   0  0  0  0  0  0  0  0  0  0  0  0
  145.0373  138.4362  162.1790 H   0  0  0  0  0  0  0  0  0  0  0  0
  145.9856  133.9250  162.0857 H   0  0  0  0  0  0  0  0  0  0  0  0
  147.6206  133.7893  161.5021 H   0  0  0  0  0  0  0  0  0  0  0  0
  146.9452  133.8483  163.9147 H   0  0  0  0  0  0  0  0  0  0  0  0
  149.0332  136.1316  161.7532 H   0  0  0  0  0  0  0  0  0  0  0  0
  148.1652  137.5895  161.1629 H   0  0  0  0  0  0  0  0  0  0  0  0
  150.6993  142.1523  154.8060 H   0  0  0  0  0  0  0  0  0  0  0  0
  150.6523  142.2042  156.5496 H   0  0  0  0  0  0  0  0  0  0  0  0
  148.6235  142.7858  155.4308 H   0  0  0  0  0  0  0  0  0  0  0  0
  1  2  1  0  0  0  0
  1 29  1  0  0  0  0
  1 30  1  0  0  0  0
  1 31  1  0  0  0  0
  2 28  1  0  0  0  0
  2  3  1  0  0  0  0
  2 59  1  0  0  0  0
  3  4  1  0  0  0  0
  3 32  1  0  0  0  0
  3 33  1  0  0  0  0
  4  5  1  0  0  0  0
  4 34  1  0  0  0  0
  4 35  1  0  0  0  0
  5 10  1  0  0  0  0
  5  6  1  0  0  0  0
  5 36  1  0  0  0  0
  6  7  1  0  0  0  0
  6 28  1  0  0  0  0
  6 37  1  0  0  0  0
  7  8  1  0  0  0  0
  7 38  1  0  0  0  0
  7 39  1  0  0  0  0
  8  9  1  0  0  0  0
  8 40  1  0  0  0  0
  8 41  1  0  0  0  0
  9 10  1  0  0  0  0
  9 42  1  0  0  0  0
  9 43  1  0  0  0  0
 10 11  1  0  0  0  0
 11 16  1  0  0  0  0
 11 12  2  0  0  0  0
 12 13  1  0  0  0  0
 13 14  2  0  0  0  0
 13 44  1  0  0  0  0
 14 15  1  0  0  0  0
 15 19  1  0  0  0  0
 15 16  2  0  0  0  0
 16 17  1  0  0  0  0
 17 18  2  0  0  0  0
 18 19  1  0  0  0  0
 18 45  1  0  0  0  0
 19 20  1  0  0  0  0
 20 27  1  0  0  0  0
 20 21  1  0  0  0  0
 20 46  1  0  0  0  0
 21 22  1  0  0  0  0
 21 47  1  0  0  0  0
 21 48  1  0  0  0  0
 22 23  1  0  0  0  0
 22 25  1  0  0  0  0
 22 27  1  0  0  0  0
 23 24  1  0  0  0  0
 23 49  1  0  0  0  0
 23 50  1  0  0  0  0
 24 51  1  0  0  0  0
 25 26  1  0  0  0  0
 25 52  1  0  0  0  0
 25 53  1  0  0  0  0
 26 54  1  0  0  0  0
 27 55  1  0  0  0  0
 27 56  1  0  0  0  0
 28 57  1  0  0  0  0
 28 58  1  0  0  0  0
M  CHG  1   2   1
M  END
> <s_m_source_file>
AV-unprocessed.smi

> <i_m_source_file_index>
198

> <i_lp_mmshare_version>
43012

> <i_f3d_flags>
0

> <s_epik_input>
W0NIMl0xW0NIMl1OKFtDSDNdKVtDSDJdW0NAQEhdKFtDQEhdMTIpW0NIMl1bQ0gyXVtDSDJdTjJjKG5bY0hdbjMpYyhjMzQpbltjSF1uNFtDSF0oW0NIMl01KVtDSDJdQzUoW0NIMl1bT0hdKVtDSDJdW09IXQ==

> <s_epik_cmdline>
J2VwaWtfcHl0aG9uJywgJy1waCcsICc3LjAnLCAnLXRuJywgJzgnLCAnLW1hJywgJzIwMCcsICctbWV0YWxfYmluZGluZycsICctaW1hZScsICc8aW5maWxlLm1hZT4nLCAnLW9tYWUnLCAnPG91dGZpbGUubWFlPic=

> <r_lp_tautomer_probability>
1

> <r_epik_Ionization_Penalty>
0.00239938

> <r_epik_Ionization_Penalty_Charging>
0.00138697

> <r_epik_Ionization_Penalty_Neutral>
0.00101241

> <r_epik_State_Penalty>
-0

> <r_epik_Charging_Adjusted_Penalty>
0.00138697

> <i_epik_Tot_Q>
1

> <i_epik_Tot_abs_Q>
1

> <r_epik_Metal_State_Penalty>
-0

> <b_epik_Metal_Only>
0

> <s_lp_Force_Field>
OPLS_2005

> <r_lp_Energy>
59.1545

> <b_lp_Chiralities_Consistent>
1

> <s_lp_Variant>
AV-unprocessed.smi:198-2

> <Gold.Version>
5.8.1

> <Gold.Id.Protein>
6NUR|6NUR_protein|mol2

> <Gold.PLP.Fitness>
47.6945

> <Gold.PLP.PLP>
-40.0330

> <Gold.PLP.part.hbond>
-3.6984

> <Gold.PLP.part.metal>
0.0000

> <Gold.PLP.part.buried>
-3.5738

> <Gold.PLP.part.nonpolar>
-33.6878

> <Gold.PLP.part.repulsive>
2.1599

> <Gold.PLP.ligand.clash>
0.0000

> <Gold.PLP.ligand.torsion>
0.6791

> <Gold.PLP.Chemscore.Hbond>
2.7040

> <Gold.PLP.Chemscore.CHOScore>
0.0000

> <Gold.PLP.Chemscore.Metal>
0.0000

> <Gold.Chemscore.Hbonds>
donor molecule, donor type, donor heavy atom, donor atom, acceptor molecule, acceptor atom, score
      L1  H     2    59       P1  8028  2.00
      P1  H  6934  6947       L1    24  0.69

> <Gold.PLP.Chemscore.Internal.Correction>
0.9078

> <Gold.Rescore>
     Score         DG    S(hbond)    S(metal)    S(lipo)     H(rot)  DE(clash)    DE(int)     intcor
     10.56     -14.83       1.68        0.00      99.31       3.08       2.14       2.13       ----

> <Gold.Chemscore.Fitness>
10.5595

> <Gold.Chemscore.DG>
-14.8308

> <Gold.Chemscore.ZeroCoef>
-5.4800

> <Gold.Chemscore.Hbond>
1.6802

> <Gold.Chemscore.Metal>
0.0000

> <Gold.Chemscore.Lipo>
99.3080

> <Gold.Chemscore.Internal_Hbond>
0.0000

> <Gold.Chemscore.DEClash>
2.1394

> <Gold.Chemscore.DEInternal>
2.1319

> <Gold.Chemscore.Rot>
3.0781

> <Gold.Chemscore.Internal.Correction>
   9.000000E+99

> <Gold.Chemscore.Hbonds>
donor molecule, donor type, donor heavy atom, donor atom, acceptor molecule, acceptor atom, score
      L1  H     2    59       P1  8028  0.98
      P1  H  6934  6947       L1    24  0.66

> <Gold.Chemscore.Hbond.Weighted>
-5.6118

> <Gold.Chemscore.Metal.Weighted>
-0.0000

> <Gold.Chemscore.Lipo.Weighted>
-11.6190

> <Gold.Chemscore.Internal_Hbond.Weighted>
0.0000

> <Gold.Chemscore.DEClash.Weighted>
2.1394

> <Gold.Chemscore.DEInternal.Weighted>
2.1319

> <Gold.Chemscore.Rot.Weighted>
7.8800

> <Gold.Chemscore.Internal.Correction.Weighted>
   9.000000E+99

> <Gold.Protein.RotatedTorsions>
[ 6907 6896 6895 6894 ] final -153.11 input  -60.11 | X-H torsion
[ 7974 7965 7964 7962 ] final  137.01 input  175.53 | X-H torsion
[ 8008 7997 7996 7995 ] final -171.78 input   59.86 | X-H torsion
[ 10167 10162 10161 10158 ] final -121.33 input  -65.29 | X-H torsion
[ 10718 10713 10712 10709 ] final  -45.44 input   66.30 | X-H torsion
[ 10763 10752 10751 10750 ] final  163.47 input  -60.55 | X-H torsion
[ 11005 11000 10999 10996 ] final  -44.22 input  -57.11 | X-H torsion

> <Gold.Protein.ActiveResidues>
 VAL166  LYS551  ARG553  GLY616  TRP617  ASP618  TYR619  PRO620  LYS621  CYS622 
 ASP623  PHE694  ASN695  SER759  ASP760  ASP761  ALA762  ILE779  LEU786  VAL792 
 PHE793  MET794  SER795  GLU796  ALA797  LYS798  CYS799  TRP800  GLU811  SER814 

> <Gold.Protein.RotatedAtoms>
  151.2377  133.4416  159.2605 H   0  0  0  0  0  0  0  0  0  0  0  0  # atno 6907 bound_to 6896
  151.0735  134.9813  159.8330 H   0  0  0  0  0  0  0  0  0  0  0  0  # atno 6908 bound_to 6896
  152.5415  134.2321  159.8882 H   0  0  0  0  0  0  0  0  0  0  0  0  # atno 6909 bound_to 6896
  144.9509  139.4820  143.5526 H   0  0  0  0  0  0  0  0  0  0  0  0  # atno 7974 bound_to 7965
  155.9361  140.1100  157.1093 H   0  0  0  0  0  0  0  0  0  0  0  0  # atno 8008 bound_to 7997
  154.4080  140.1228  156.4931 H   0  0  0  0  0  0  0  0  0  0  0  0  # atno 8009 bound_to 7997
  155.7020  140.3472  155.4939 H   0  0  0  0  0  0  0  0  0  0  0  0  # atno 8010 bound_to 7997
  140.0262  143.5294  152.2198 H   0  0  0  0  0  0  0  0  0  0  0  0  # atno 10167 bound_to 10162
  156.2283  130.4171  149.8907 H   0  0  0  0  0  0  0  0  0  0  0  0  # atno 10718 bound_to 10713
  154.2942  135.2760  155.2641 H   0  0  0  0  0  0  0  0  0  0  0  0  # atno 10763 bound_to 10752
  154.5106  135.5783  153.6605 H   0  0  0  0  0  0  0  0  0  0  0  0  # atno 10764 bound_to 10752
  152.9910  135.6180  154.3109 H   0  0  0  0  0  0  0  0  0  0  0  0  # atno 10765 bound_to 10752
  141.0436  133.6770  156.2842 H   0  0  0  0  0  0  0  0  0  0  0  0  # atno 11005 bound_to 11000
  146.3320  139.8594  142.8859 LP  0  0  0  0  0  0  0  0  0  0  0  0  # atno 17320 bound_to 7965
  145.2845  141.0149  143.3698 LP  0  0  0  0  0  0  0  0  0  0  0  0  # atno 17321 bound_to 7965
  139.6106  144.7608  151.2960 LP  0  0  0  0  0  0  0  0  0  0  0  0  # atno 17342 bound_to 10162
  140.7321  143.6832  150.7984 LP  0  0  0  0  0  0  0  0  0  0  0  0  # atno 17343 bound_to 10162
  156.6530  130.8751  151.3534 LP  0  0  0  0  0  0  0  0  0  0  0  0  # atno 17370 bound_to 10713
  157.7121  130.9452  150.1125 LP  0  0  0  0  0  0  0  0  0  0  0  0  # atno 17371 bound_to 10713
  140.6188  134.5382  157.5544 LP  0  0  0  0  0  0  0  0  0  0  0  0  # atno 17394 bound_to 11000
  139.9294  134.7992  156.0973 LP  0  0  0  0  0  0  0  0  0  0  0  0  # atno 17395 bound_to 11000

$$$$
