AV-unprocessed.smi:2775|AV-procd|sdf|10700|dock7
  -GOLD-   2272015143D 1   1.00000     0.00000
 Structure written by MMmdl.
 43 46  0  0  0  0  0  0  0  0  2 V2000
  147.4092  138.9453  153.1725 C   0  0  0  0  0  0  0  0  0  0  0  0
  148.7007  139.1060  153.9514 C   0  0  0  0  0  0  0  0  0  0  0  0
  149.7543  138.3416  153.5873 N   0  3  0  0  0  0  0  0  0  0  0  0
  150.9507  138.3927  154.2093 C   0  0  0  0  0  0  0  0  0  0  0  0
  151.1442  139.2766  155.2887 C   0  0  0  0  0  0  0  0  0  0  0  0
  150.0769  140.1129  155.7014 C   0  0  0  0  0  0  0  0  0  0  0  0
  150.1811  141.0191  156.7905 N   0  0  0  0  0  0  0  0  0  0  0  0
  150.8227  140.8514  157.9627 C   0  0  0  0  0  0  0  0  0  0  0  0
  151.3843  139.8152  158.3114 O   0  0  0  0  0  0  0  0  0  0  0  0
  150.8479  141.9561  158.7281 N   0  0  0  0  0  0  0  0  0  0  0  0
  151.4624  142.1062  160.0519 C   0  0  2  0  0  0  0  0  0  0  0  0
  151.6402  143.5791  160.5079 C   0  0  2  0  0  0  0  0  0  0  0  0
  151.0205  144.7582  159.7948 C   0  0  0  0  0  0  0  0  0  0  0  0
  152.1763  145.2888  158.9428 C   0  0  0  0  0  0  0  0  0  0  0  0
  153.0698  144.1857  158.8160 O   0  0  0  0  0  0  0  0  0  0  0  0
  153.0965  143.5026  160.0651 C   0  0  2  0  0  0  0  0  0  0  0  0
  152.9931  141.9740  159.9817 C   0  0  0  0  0  0  0  0  0  0  0  0
  153.7315  141.1827  158.8887 C   0  0  0  0  0  0  0  0  0  0  0  0
  154.7916  140.8264  159.9343 C   0  0  0  0  0  0  0  0  0  0  0  0
  153.7461  141.1207  161.0138 C   0  0  0  0  0  0  0  0  0  0  0  0
  148.8341  140.0134  155.0287 C   0  0  0  0  0  0  0  0  0  0  0  0
  147.4931  140.9990  155.5098 Cl  0  0  0  0  0  0  0  0  0  0  0  0
  147.1053  139.8988  152.7395 H   0  0  0  0  0  0  0  0  0  0  0  0
  146.6120  138.5949  153.8288 H   0  0  0  0  0  0  0  0  0  0  0  0
  147.5201  138.2257  152.3604 H   0  0  0  0  0  0  0  0  0  0  0  0
  151.7110  137.7244  153.8313 H   0  0  0  0  0  0  0  0  0  0  0  0
  152.1014  139.2902  155.7876 H   0  0  0  0  0  0  0  0  0  0  0  0
  149.8408  141.9525  156.6098 H   0  0  0  0  0  0  0  0  0  0  0  0
  150.4609  142.7982  158.3262 H   0  0  0  0  0  0  0  0  0  0  0  0
  151.0293  141.4657  160.8222 H   0  0  0  0  0  0  0  0  0  0  0  0
  151.5737  143.6483  161.5947 H   0  0  0  0  0  0  0  0  0  0  0  0
  150.1753  144.4741  159.1710 H   0  0  0  0  0  0  0  0  0  0  0  0
  150.6647  145.5190  160.4902 H   0  0  0  0  0  0  0  0  0  0  0  0
  151.8485  145.6522  157.9688 H   0  0  0  0  0  0  0  0  0  0  0  0
  152.6891  146.1028  159.4574 H   0  0  0  0  0  0  0  0  0  0  0  0
  153.8082  143.9080  160.7856 H   0  0  0  0  0  0  0  0  0  0  0  0
  153.1749  140.3091  158.5459 H   0  0  0  0  0  0  0  0  0  0  0  0
  154.0985  141.7798  158.0534 H   0  0  0  0  0  0  0  0  0  0  0  0
  155.1370  139.7928  159.9009 H   0  0  0  0  0  0  0  0  0  0  0  0
  155.6235  141.5324  159.9492 H   0  0  0  0  0  0  0  0  0  0  0  0
  154.1243  141.6669  161.8784 H   0  0  0  0  0  0  0  0  0  0  0  0
  153.1906  140.2302  161.3121 H   0  0  0  0  0  0  0  0  0  0  0  0
  149.6379  137.6919  152.8090 H   0  0  0  0  0  0  0  0  0  0  0  0
  1  2  1  0  0  0  0
  1 23  1  0  0  0  0
  1 24  1  0  0  0  0
  1 25  1  0  0  0  0
  2 21  1  0  0  0  0
  2  3  2  0  0  0  0
  3  4  1  0  0  0  0
  3 43  1  0  0  0  0
  4  5  2  0  0  0  0
  4 26  1  0  0  0  0
  5  6  1  0  0  0  0
  5 27  1  0  0  0  0
  6  7  1  0  0  0  0
  6 21  2  0  0  0  0
  7  8  1  0  0  0  0
  7 28  1  0  0  0  0
  8  9  2  0  0  0  0
  8 10  1  0  0  0  0
 10 11  1  0  0  0  0
 10 29  1  0  0  0  0
 11 17  1  0  0  0  0
 11 12  1  0  0  0  0
 11 30  1  0  0  0  0
 12 16  1  0  0  0  0
 12 13  1  0  0  0  0
 12 31  1  0  0  0  0
 13 14  1  0  0  0  0
 13 32  1  0  0  0  0
 13 33  1  0  0  0  0
 14 15  1  0  0  0  0
 14 34  1  0  0  0  0
 14 35  1  0  0  0  0
 15 16  1  0  0  0  0
 16 17  1  0  0  0  0
 16 36  1  0  0  0  0
 17 20  1  0  0  0  0
 17 18  1  0  0  0  0
 18 19  1  0  0  0  0
 18 37  1  0  0  0  0
 18 38  1  0  0  0  0
 19 20  1  0  0  0  0
 19 39  1  0  0  0  0
 19 40  1  0  0  0  0
 20 41  1  0  0  0  0
 20 42  1  0  0  0  0
 21 22  1  0  0  0  0
M  CHG  1   3   1
M  END
> <s_m_source_file>
AV-unprocessed.smi

> <i_m_source_file_index>
2775

> <i_lp_mmshare_version>
43012

> <i_f3d_flags>
0

> <s_epik_input>
W0NIM11jMW5bY0hdW2NIXWMoYzFDbClbTkhdQyg9TylbTkhdW0NAQEhdMltDQEhdKFtDSDJdW0NIMl1PMylbQ0BASF0zQzI0W0NIMl1bQ0gyXVtDSDJdNA==

> <s_epik_cmdline>
J2VwaWtfcHl0aG9uJywgJy1waCcsICc3LjAnLCAnLXRuJywgJzgnLCAnLW1hJywgJzIwMCcsICctbWV0YWxfYmluZGluZycsICctaW1hZScsICc8aW5maWxlLm1hZT4nLCAnLW9tYWUnLCAnPG91dGZpbGUubWFlPic=

> <r_epik_Ionization_Penalty>
2.4104

> <r_epik_Ionization_Penalty_Charging>
2.41038

> <r_epik_Ionization_Penalty_Neutral>
1.9872e-05

> <r_epik_State_Penalty>
2.56896

> <r_epik_Charging_Adjusted_Penalty>
4.97934

> <i_epik_Tot_Q>
1

> <i_epik_Tot_abs_Q>
1

> <r_epik_Metal_State_Penalty>
2.57906

> <b_epik_Metal_Only>
0

> <s_lp_Force_Field>
OPLS_2005

> <r_lp_Energy>
62.9708

> <b_lp_Chiralities_Consistent>
1

> <s_lp_Variant>
AV-unprocessed.smi:2775-13

> <Gold.Version>
5.8.1

> <Gold.Id.Protein>
6NUR|6NUR_protein|mol2

> <Gold.PLP.Fitness>
42.6968

> <Gold.PLP.PLP>
-37.3057

> <Gold.PLP.part.hbond>
-2.0000

> <Gold.PLP.part.metal>
0.0000

> <Gold.PLP.part.buried>
-0.2886

> <Gold.PLP.part.nonpolar>
-34.4947

> <Gold.PLP.part.repulsive>
0.2397

> <Gold.PLP.ligand.clash>
0.0000

> <Gold.PLP.ligand.torsion>
0.4079

> <Gold.PLP.Chemscore.Hbond>
2.0000

> <Gold.PLP.Chemscore.CHOScore>
0.0000

> <Gold.PLP.Chemscore.Metal>
0.0000

> <Gold.Chemscore.Hbonds>
donor molecule, donor type, donor heavy atom, donor atom, acceptor molecule, acceptor atom, score
      L1  H     3    43       P1  7948  2.00

> <Gold.PLP.Chemscore.Internal.Correction>
0.2068

> <Gold.Rescore>
     Score         DG    S(hbond)    S(metal)    S(lipo)     H(rot)  DE(clash)    DE(int)     intcor
     19.65     -21.55       0.98        0.00     131.31       1.00       0.83       1.07       ----

> <Gold.Chemscore.Fitness>
19.6477

> <Gold.Chemscore.DG>
-21.5498

> <Gold.Chemscore.ZeroCoef>
-5.4800

> <Gold.Chemscore.Hbond>
0.9779

> <Gold.Chemscore.Metal>
0.0000

> <Gold.Chemscore.Lipo>
131.3144

> <Gold.Chemscore.Internal_Hbond>
0.0000

> <Gold.Chemscore.DEClash>
0.8308

> <Gold.Chemscore.DEInternal>
1.0713

> <Gold.Chemscore.Rot>
1.0000

> <Gold.Chemscore.Internal.Correction>
   9.000000E+99

> <Gold.Chemscore.Hbonds>
donor molecule, donor type, donor heavy atom, donor atom, acceptor molecule, acceptor atom, score
      L1  H     3    43       P1  7948  0.60

> <Gold.Chemscore.Hbond.Weighted>
-3.2660

> <Gold.Chemscore.Metal.Weighted>
-0.0000

> <Gold.Chemscore.Lipo.Weighted>
-15.3638

> <Gold.Chemscore.Internal_Hbond.Weighted>
0.0000

> <Gold.Chemscore.DEClash.Weighted>
0.8308

> <Gold.Chemscore.DEInternal.Weighted>
1.0713

> <Gold.Chemscore.Rot.Weighted>
2.5600

> <Gold.Chemscore.Internal.Correction.Weighted>
   9.000000E+99

> <Gold.Protein.RotatedTorsions>
[ 6907 6896 6895 6894 ] final   28.73 input  -60.11 | X-H torsion
[ 7974 7965 7964 7962 ] final  114.47 input  175.53 | X-H torsion
[ 8008 7997 7996 7995 ] final  -82.48 input   59.86 | X-H torsion
[ 10167 10162 10161 10158 ] final  133.25 input  -65.29 | X-H torsion
[ 10718 10713 10712 10709 ] final  151.17 input   66.30 | X-H torsion
[ 10763 10752 10751 10750 ] final  147.68 input  -60.55 | X-H torsion
[ 11005 11000 10999 10996 ] final -175.73 input  -57.11 | X-H torsion

> <Gold.Protein.ActiveResidues>
 VAL166  LYS551  ARG553  GLY616  TRP617  ASP618  TYR619  PRO620  LYS621  CYS622 
 ASP623  PHE694  ASN695  SER759  ASP760  ASP761  ALA762  ILE779  LEU786  VAL792 
 PHE793  MET794  SER795  GLU796  ALA797  LYS798  CYS799  TRP800  GLU811  SER814 

> <Gold.Protein.RotatedAtoms>
  152.0212  134.9821  160.0570 H   0  0  0  0  0  0  0  0  0  0  0  0  # atno 6907 bound_to 6896
  152.1335  133.4417  159.4740 H   0  0  0  0  0  0  0  0  0  0  0  0  # atno 6908 bound_to 6896
  150.6858  134.2310  159.4478 H   0  0  0  0  0  0  0  0  0  0  0  0  # atno 6909 bound_to 6896
  145.2040  139.2938  143.4303 H   0  0  0  0  0  0  0  0  0  0  0  0  # atno 7974 bound_to 7965
  154.6090  140.0632  156.9469 H   0  0  0  0  0  0  0  0  0  0  0  0  # atno 8008 bound_to 7997
  155.2005  140.3314  155.4325 H   0  0  0  0  0  0  0  0  0  0  0  0  # atno 8009 bound_to 7997
  156.2365  140.1865  156.7088 H   0  0  0  0  0  0  0  0  0  0  0  0  # atno 8010 bound_to 7997
  139.5305  144.6624  151.4969 H   0  0  0  0  0  0  0  0  0  0  0  0  # atno 10167 bound_to 10162
  157.2741  131.0823  151.1578 H   0  0  0  0  0  0  0  0  0  0  0  0  # atno 10718 bound_to 10713
  154.0423  135.2888  155.3353 H   0  0  0  0  0  0  0  0  0  0  0  0  # atno 10763 bound_to 10752
  154.6921  135.5222  153.8410 H   0  0  0  0  0  0  0  0  0  0  0  0  # atno 10764 bound_to 10752
  153.0595  135.6608  154.0626 H   0  0  0  0  0  0  0  0  0  0  0  0  # atno 10765 bound_to 10752
  140.4600  134.6264  157.4838 H   0  0  0  0  0  0  0  0  0  0  0  0  # atno 11005 bound_to 11000
  146.3411  140.2294  142.8593 LP  0  0  0  0  0  0  0  0  0  0  0  0  # atno 17320 bound_to 7965
  144.9920  140.8555  143.5334 LP  0  0  0  0  0  0  0  0  0  0  0  0  # atno 17321 bound_to 7965
  140.6479  143.8756  150.6756 LP  0  0  0  0  0  0  0  0  0  0  0  0  # atno 17342 bound_to 10162
  140.2112  143.3882  152.1717 LP  0  0  0  0  0  0  0  0  0  0  0  0  # atno 17343 bound_to 10162
  157.3038  130.6856  149.6178 LP  0  0  0  0  0  0  0  0  0  0  0  0  # atno 17370 bound_to 10713
  155.9663  130.4384  150.5215 LP  0  0  0  0  0  0  0  0  0  0  0  0  # atno 17371 bound_to 10713
  139.9951  134.6923  155.9622 LP  0  0  0  0  0  0  0  0  0  0  0  0  # atno 17394 bound_to 11000
  141.1625  133.6538  156.4369 LP  0  0  0  0  0  0  0  0  0  0  0  0  # atno 17395 bound_to 11000

$$$$
