AV-unprocessed.smi:855|AV-procd|sdf|3956|dock9
  -GOLD-   22720 1423D 1   1.00000     0.00000
 Structure written by MMmdl.
 36 37  0  0  0  0  0  0  0  0  2 V2000
  137.6370  137.4319  154.3233 C   0  0  0  0  0  0  0  0  0  0  0  0
  139.1103  137.3159  154.1311 C   0  0  0  0  0  0  0  0  0  0  0  0
  140.0184  138.0609  153.4324 C   0  0  0  0  0  0  0  0  0  0  0  0
  141.2441  137.3889  153.6837 C   0  0  0  0  0  0  0  0  0  0  0  0
  142.4606  137.8596  153.1268 N   0  0  0  0  0  0  0  0  0  0  0  0
  143.5926  137.1630  152.9277 C   0  0  0  0  0  0  0  0  0  0  0  0
  143.7526  135.9729  153.2010 O   0  0  0  0  0  0  0  0  0  0  0  0
  144.5514  137.9293  152.3873 N   0  0  0  0  0  0  0  0  0  0  0  0
  145.8890  137.4655  152.0373 C   0  0  0  0  0  0  0  0  0  0  0  0
  145.8430  136.1984  151.1627 C   0  0  0  0  0  0  0  0  0  0  0  0
  146.6087  135.0831  151.7659 N   0  3  0  0  0  0  0  0  0  0  0  0
  146.2329  134.7357  153.1582 C   0  0  0  0  0  0  0  0  0  0  0  0
  146.2038  133.2036  153.2444 C   0  0  0  0  0  0  0  0  0  0  0  0
  146.9114  132.7326  151.9780 C   0  0  0  0  0  0  0  0  0  0  0  0
  146.5837  133.8352  150.9768 C   0  0  0  0  0  0  0  0  0  0  0  0
  141.0975  136.3283  154.4630 N   0  0  0  0  0  0  0  0  0  0  0  0
  139.7290  136.2755  154.7528 O   0  0  0  0  0  0  0  0  0  0  0  0
  137.3020  138.4548  154.1503 H   0  0  0  0  0  0  0  0  0  0  0  0
  137.3534  137.1521  155.3381 H   0  0  0  0  0  0  0  0  0  0  0  0
  137.1052  136.7796  153.6308 H   0  0  0  0  0  0  0  0  0  0  0  0
  139.8322  138.9443  152.8398 H   0  0  0  0  0  0  0  0  0  0  0  0
  142.4692  138.8311  152.8535 H   0  0  0  0  0  0  0  0  0  0  0  0
  144.3363  138.8965  152.1923 H   0  0  0  0  0  0  0  0  0  0  0  0
  146.4354  138.2616  151.5285 H   0  0  0  0  0  0  0  0  0  0  0  0
  146.4234  137.2684  152.9665 H   0  0  0  0  0  0  0  0  0  0  0  0
  144.8121  135.8878  150.9862 H   0  0  0  0  0  0  0  0  0  0  0  0
  146.2751  136.4185  150.1853 H   0  0  0  0  0  0  0  0  0  0  0  0
  146.9754  135.1546  153.8378 H   0  0  0  0  0  0  0  0  0  0  0  0
  145.2612  135.1475  153.4356 H   0  0  0  0  0  0  0  0  0  0  0  0
  146.6731  132.8239  154.1527 H   0  0  0  0  0  0  0  0  0  0  0  0
  145.1698  132.8559  153.2356 H   0  0  0  0  0  0  0  0  0  0  0  0
  147.9885  132.6915  152.1468 H   0  0  0  0  0  0  0  0  0  0  0  0
  146.5821  131.7467  151.6484 H   0  0  0  0  0  0  0  0  0  0  0  0
  145.5837  133.6752  150.5693 H   0  0  0  0  0  0  0  0  0  0  0  0
  147.2873  133.8702  150.1444 H   0  0  0  0  0  0  0  0  0  0  0  0
  147.5773  135.3684  151.7960 H   0  0  0  0  0  0  0  0  0  0  0  0
  1  2  1  0  0  0  0
  1 18  1  0  0  0  0
  1 19  1  0  0  0  0
  1 20  1  0  0  0  0
  2 17  1  0  0  0  0
  2  3  2  0  0  0  0
  3  4  1  0  0  0  0
  3 21  1  0  0  0  0
  4  5  1  0  0  0  0
  4 16  2  0  0  0  0
  5  6  1  0  0  0  0
  5 22  1  0  0  0  0
  6  7  2  0  0  0  0
  6  8  1  0  0  0  0
  8  9  1  0  0  0  0
  8 23  1  0  0  0  0
  9 10  1  0  0  0  0
  9 24  1  0  0  0  0
  9 25  1  0  0  0  0
 10 11  1  0  0  0  0
 10 26  1  0  0  0  0
 10 27  1  0  0  0  0
 11 15  1  0  0  0  0
 11 12  1  0  0  0  0
 11 36  1  0  0  0  0
 12 13  1  0  0  0  0
 12 28  1  0  0  0  0
 12 29  1  0  0  0  0
 13 14  1  0  0  0  0
 13 30  1  0  0  0  0
 13 31  1  0  0  0  0
 14 15  1  0  0  0  0
 14 32  1  0  0  0  0
 14 33  1  0  0  0  0
 15 34  1  0  0  0  0
 15 35  1  0  0  0  0
 16 17  1  0  0  0  0
M  CHG  1  11   1
M  END
> <s_m_source_file>
AV-unprocessed.smi

> <i_m_source_file_index>
855

> <i_lp_mmshare_version>
43012

> <i_f3d_flags>
0

> <s_epik_input>
W0NIM11jMVtjSF1jKG5vMSlbTkhdQyg9TylbTkhdW0NIMl1bQ0gyXU4yW0NIMl1bQ0gyXVtDSDJdW0NIMl0y

> <s_epik_cmdline>
J2VwaWtfcHl0aG9uJywgJy1waCcsICc3LjAnLCAnLXRuJywgJzgnLCAnLW1hJywgJzIwMCcsICctbWV0YWxfYmluZGluZycsICctaW1hZScsICc8aW5maWxlLm1hZT4nLCAnLW9tYWUnLCAnPG91dGZpbGUubWFlPic=

> <r_epik_Ionization_Penalty>
0.00243703

> <r_epik_Ionization_Penalty_Charging>
0.00240122

> <r_epik_Ionization_Penalty_Neutral>
3.58091e-05

> <r_epik_State_Penalty>
0.00166069

> <r_epik_Charging_Adjusted_Penalty>
0.00406191

> <i_epik_Tot_Q>
1

> <i_epik_Tot_abs_Q>
1

> <r_epik_Metal_State_Penalty>
0.021664

> <b_epik_Metal_Only>
0

> <s_lp_Force_Field>
OPLS_2005

> <r_lp_Energy>
23.058

> <b_lp_Chiralities_Consistent>
1

> <s_lp_Variant>
AV-unprocessed.smi:855-1

> <Gold.Version>
5.8.1

> <Gold.Id.Protein>
6NUR|6NUR_protein|mol2

> <Gold.PLP.Fitness>
43.9664

> <Gold.PLP.PLP>
-31.4303

> <Gold.PLP.part.hbond>
-5.4001

> <Gold.PLP.part.metal>
0.0000

> <Gold.PLP.part.buried>
-4.6432

> <Gold.PLP.part.nonpolar>
-22.0703

> <Gold.PLP.part.repulsive>
0.3421

> <Gold.PLP.ligand.clash>
0.0000

> <Gold.PLP.ligand.torsion>
0.5164

> <Gold.PLP.Chemscore.Hbond>
4.5199

> <Gold.PLP.Chemscore.CHOScore>
0.0000

> <Gold.PLP.Chemscore.Metal>
0.0000

> <Gold.Chemscore.Hbonds>
donor molecule, donor type, donor heavy atom, donor atom, acceptor molecule, acceptor atom, score
      L1  H     5    22       P1 10175  0.93
      L1  H     8    23       P1 10175  1.00
      L1  H    11    36       P1  7948  2.00
      P1  H 11000 11005       L1    17  0.60

> <Gold.PLP.Chemscore.Internal.Correction>
0.0094

> <Gold.Rescore>
     Score         DG    S(hbond)    S(metal)    S(lipo)     H(rot)  DE(clash)    DE(int)     intcor
     13.30     -17.57       2.87        0.00      56.44       1.60       0.04       4.22       ----

> <Gold.Chemscore.Fitness>
13.3046

> <Gold.Chemscore.DG>
-17.5675

> <Gold.Chemscore.ZeroCoef>
-5.4800

> <Gold.Chemscore.Hbond>
2.8696

> <Gold.Chemscore.Metal>
0.0000

> <Gold.Chemscore.Lipo>
56.4427

> <Gold.Chemscore.Internal_Hbond>
0.0000

> <Gold.Chemscore.DEClash>
0.0398

> <Gold.Chemscore.DEInternal>
4.2230

> <Gold.Chemscore.Rot>
1.6019

> <Gold.Chemscore.Internal.Correction>
   9.000000E+99

> <Gold.Chemscore.Hbonds>
donor molecule, donor type, donor heavy atom, donor atom, acceptor molecule, acceptor atom, score
      L1  H     5    22       P1 10175  0.87
      L1  H     8    23       P1 10175  0.99
      L1  H    11    36       P1  7948  0.94
      P1  H 11000 11005       L1    17  0.04

> <Gold.Chemscore.Hbond.Weighted>
-9.5846

> <Gold.Chemscore.Metal.Weighted>
-0.0000

> <Gold.Chemscore.Lipo.Weighted>
-6.6038

> <Gold.Chemscore.Internal_Hbond.Weighted>
0.0000

> <Gold.Chemscore.DEClash.Weighted>
0.0398

> <Gold.Chemscore.DEInternal.Weighted>
4.2230

> <Gold.Chemscore.Rot.Weighted>
4.1009

> <Gold.Chemscore.Internal.Correction.Weighted>
   9.000000E+99

> <Gold.Protein.RotatedTorsions>
[ 6907 6896 6895 6894 ] final  122.43 input  -60.11 | X-H torsion
[ 7974 7965 7964 7962 ] final  -52.61 input  175.53 | X-H torsion
[ 8008 7997 7996 7995 ] final -149.66 input   59.86 | X-H torsion
[ 10167 10162 10161 10158 ] final -123.70 input  -65.29 | X-H torsion
[ 10718 10713 10712 10709 ] final   21.11 input   66.30 | X-H torsion
[ 10763 10752 10751 10750 ] final   34.19 input  -60.55 | X-H torsion
[ 11005 11000 10999 10996 ] final   67.62 input  -57.11 | X-H torsion

> <Gold.Protein.ActiveResidues>
 VAL166  LYS551  ARG553  GLY616  TRP617  ASP618  TYR619  PRO620  LYS621  CYS622 
 ASP623  PHE694  ASN695  SER759  ASP760  ASP761  ALA762  ILE779  LEU786  VAL792 
 PHE793  MET794  SER795  GLU796  ALA797  LYS798  CYS799  TRP800  GLU811  SER814 

> <Gold.Protein.RotatedAtoms>
  152.4243  133.7169  159.6510 H   0  0  0  0  0  0  0  0  0  0  0  0  # atno 6907 bound_to 6896
  150.8119  133.8395  159.3184 H   0  0  0  0  0  0  0  0  0  0  0  0  # atno 6908 bound_to 6896
  151.6102  135.1043  160.0131 H   0  0  0  0  0  0  0  0  0  0  0  0  # atno 6909 bound_to 6896
  145.9060  140.7955  142.9719 H   0  0  0  0  0  0  0  0  0  0  0  0  # atno 7974 bound_to 7965
  155.6112  140.0672  157.2705 H   0  0  0  0  0  0  0  0  0  0  0  0  # atno 8008 bound_to 7997
  154.4253  140.1801  156.1322 H   0  0  0  0  0  0  0  0  0  0  0  0  # atno 8009 bound_to 7997
  156.0083  140.3329  155.6918 H   0  0  0  0  0  0  0  0  0  0  0  0  # atno 8010 bound_to 7997
  140.0007  143.5544  152.2305 H   0  0  0  0  0  0  0  0  0  0  0  0  # atno 10167 bound_to 10162
  157.1339  130.6603  149.5960 H   0  0  0  0  0  0  0  0  0  0  0  0  # atno 10718 bound_to 10713
  153.0176  135.6367  154.1630 H   0  0  0  0  0  0  0  0  0  0  0  0  # atno 10763 bound_to 10752
  154.1367  135.2837  155.3173 H   0  0  0  0  0  0  0  0  0  0  0  0  # atno 10764 bound_to 10752
  154.6154  135.5542  153.7579 H   0  0  0  0  0  0  0  0  0  0  0  0  # atno 10765 bound_to 10752
  139.9760  134.6822  156.0353 H   0  0  0  0  0  0  0  0  0  0  0  0  # atno 11005 bound_to 11000
  144.6739  140.1751  143.7411 LP  0  0  0  0  0  0  0  0  0  0  0  0  # atno 17320 bound_to 7965
  145.8731  139.2283  143.1649 LP  0  0  0  0  0  0  0  0  0  0  0  0  # atno 17321 bound_to 7965
  139.6274  144.7639  151.2609 LP  0  0  0  0  0  0  0  0  0  0  0  0  # atno 17342 bound_to 10162
  140.7420  143.6540  150.8223 LP  0  0  0  0  0  0  0  0  0  0  0  0  # atno 17343 bound_to 10162
  155.9802  130.4801  150.6759 LP  0  0  0  0  0  0  0  0  0  0  0  0  # atno 17370 bound_to 10713
  157.4367  131.0856  151.0984 LP  0  0  0  0  0  0  0  0  0  0  0  0  # atno 17371 bound_to 10713
  141.1437  133.6560  156.3804 LP  0  0  0  0  0  0  0  0  0  0  0  0  # atno 17394 bound_to 11000
  140.5194  134.6319  157.5313 LP  0  0  0  0  0  0  0  0  0  0  0  0  # atno 17395 bound_to 11000

$$$$
