AV-unprocessed.smi:1949|AV-procd|sdf|7877|dock1
  -GOLD-   2272010 23D 1   1.00000     0.00000
 Structure written by MMmdl.
 29 30  0  0  0  0  0  0  0  0  1 V2000
  146.8960  139.1737  152.2190 C   0  0  0  0  0  0  0  0  0  0  0  0
  147.8355  139.7506  153.2223 C   0  0  0  0  0  0  0  0  0  0  0  0
  148.8118  139.0376  153.7961 N   0  0  0  0  0  0  0  0  0  0  0  0
  149.5531  139.7905  154.6950 N   0  0  0  0  0  0  0  0  0  0  0  0
  149.1129  141.0545  154.7784 C   0  0  0  0  0  0  0  0  0  0  0  0
  149.6792  142.0589  155.6172 N   0  0  0  0  0  0  0  0  0  0  0  0
  150.7512  142.0475  156.4386 C   0  0  0  0  0  0  0  0  0  0  0  0
  151.4427  141.0379  156.5612 O   0  0  0  0  0  0  0  0  0  0  0  0
  151.0126  143.1885  157.0971 N   0  0  0  0  0  0  0  0  0  0  0  0
  152.1152  143.3975  158.0311 C   0  0  0  0  0  0  0  0  0  0  0  0
  151.9478  142.5060  159.2773 C   0  0  0  0  0  0  0  0  0  0  0  0
  152.1190  143.4269  160.4870 C   0  0  0  0  0  0  0  0  0  0  0  0
  151.6580  144.7938  159.9919 C   0  0  0  0  0  0  0  0  0  0  0  0
  152.1508  144.8501  158.5461 C   0  0  0  0  0  0  0  0  0  0  0  0
  147.7412  141.4268  153.7470 S   0  0  0  0  0  0  0  0  0  0  0  0
  147.2657  138.2154  151.8527 H   0  0  0  0  0  0  0  0  0  0  0  0
  146.7901  139.8523  151.3726 H   0  0  0  0  0  0  0  0  0  0  0  0
  145.9164  139.0215  152.6718 H   0  0  0  0  0  0  0  0  0  0  0  0
  149.1885  142.9409  155.5923 H   0  0  0  0  0  0  0  0  0  0  0  0
  150.3969  143.9736  156.9390 H   0  0  0  0  0  0  0  0  0  0  0  0
  153.0600  143.1609  157.5380 H   0  0  0  0  0  0  0  0  0  0  0  0
  150.9496  142.0656  159.3054 H   0  0  0  0  0  0  0  0  0  0  0  0
  152.6617  141.6818  159.2919 H   0  0  0  0  0  0  0  0  0  0  0  0
  151.5596  143.0843  161.3580 H   0  0  0  0  0  0  0  0  0  0  0  0
  153.1725  143.4759  160.7656 H   0  0  0  0  0  0  0  0  0  0  0  0
  150.5686  144.8443  160.0121 H   0  0  0  0  0  0  0  0  0  0  0  0
  152.0425  145.6137  160.5990 H   0  0  0  0  0  0  0  0  0  0  0  0
  153.1809  145.2081  158.5326 H   0  0  0  0  0  0  0  0  0  0  0  0
  151.5649  145.5432  157.9408 H   0  0  0  0  0  0  0  0  0  0  0  0
  1  2  1  0  0  0  0
  1 16  1  0  0  0  0
  1 17  1  0  0  0  0
  1 18  1  0  0  0  0
  2 15  1  0  0  0  0
  2  3  2  0  0  0  0
  3  4  1  0  0  0  0
  4  5  2  0  0  0  0
  5  6  1  0  0  0  0
  5 15  1  0  0  0  0
  6  7  1  0  0  0  0
  6 19  1  0  0  0  0
  7  8  2  0  0  0  0
  7  9  1  0  0  0  0
  9 10  1  0  0  0  0
  9 20  1  0  0  0  0
 10 14  1  0  0  0  0
 10 11  1  0  0  0  0
 10 21  1  0  0  0  0
 11 12  1  0  0  0  0
 11 22  1  0  0  0  0
 11 23  1  0  0  0  0
 12 13  1  0  0  0  0
 12 24  1  0  0  0  0
 12 25  1  0  0  0  0
 13 14  1  0  0  0  0
 13 26  1  0  0  0  0
 13 27  1  0  0  0  0
 14 28  1  0  0  0  0
 14 29  1  0  0  0  0
M  END
> <s_m_source_file>
AV-unprocessed.smi

> <i_m_source_file_index>
1949

> <i_lp_mmshare_version>
43012

> <i_f3d_flags>
0

> <s_epik_input>
W0NIM11jMW5uYyhzMSlbTkhdQyg9TylbTkhdW0NIXTJbQ0gyXVtDSDJdW0NIMl1bQ0gyXTI=

> <s_epik_cmdline>
J2VwaWtfcHl0aG9uJywgJy1waCcsICc3LjAnLCAnLXRuJywgJzgnLCAnLW1hJywgJzIwMCcsICctbWV0YWxfYmluZGluZycsICctaW1hZScsICc8aW5maWxlLm1hZT4nLCAnLW9tYWUnLCAnPG91dGZpbGUubWFlPic=

> <r_lp_tautomer_probability>
1

> <r_epik_Ionization_Penalty>
0.00038779

> <r_epik_Ionization_Penalty_Charging>
0

> <r_epik_Ionization_Penalty_Neutral>
0.00038779

> <r_epik_State_Penalty>
-0

> <r_epik_Charging_Adjusted_Penalty>
0

> <i_epik_Tot_Q>
0

> <i_epik_Tot_abs_Q>
0

> <r_epik_Metal_State_Penalty>
0.190371

> <b_epik_Metal_Only>
0

> <s_lp_Force_Field>
OPLS_2005

> <r_lp_Energy>
20.1691

> <b_lp_Chiralities_Consistent>
1

> <s_lp_Variant>
AV-unprocessed.smi:1949-1

> <Gold.Version>
5.8.1

> <Gold.Id.Protein>
6NUR|6NUR_protein|mol2

> <Gold.PLP.Fitness>
40.4611

> <Gold.PLP.PLP>
-34.8091

> <Gold.PLP.part.hbond>
-2.0000

> <Gold.PLP.part.metal>
0.0000

> <Gold.PLP.part.buried>
-3.3692

> <Gold.PLP.part.nonpolar>
-29.9523

> <Gold.PLP.part.repulsive>
0.4631

> <Gold.PLP.ligand.clash>
0.0000

> <Gold.PLP.ligand.torsion>
0.0196

> <Gold.PLP.Chemscore.Hbond>
1.8960

> <Gold.PLP.Chemscore.CHOScore>
0.0000

> <Gold.PLP.Chemscore.Metal>
0.0000

> <Gold.Chemscore.Hbonds>
donor molecule, donor type, donor heavy atom, donor atom, acceptor molecule, acceptor atom, score
      L1  H     6    19       P1  8028  1.00
      L1  H     9    20       P1  8028  0.74

> <Gold.PLP.Chemscore.Internal.Correction>
0.0033

> <Gold.Rescore>
     Score         DG    S(hbond)    S(metal)    S(lipo)     H(rot)  DE(clash)    DE(int)     intcor
     16.38     -18.66       1.77        0.00      84.02       1.00       0.06       2.22       ----

> <Gold.Chemscore.Fitness>
16.3843

> <Gold.Chemscore.DG>
-18.6619

> <Gold.Chemscore.ZeroCoef>
-5.4800

> <Gold.Chemscore.Hbond>
1.7698

> <Gold.Chemscore.Metal>
0.0000

> <Gold.Chemscore.Lipo>
84.0233

> <Gold.Chemscore.Internal_Hbond>
0.0000

> <Gold.Chemscore.DEClash>
0.0555

> <Gold.Chemscore.DEInternal>
2.2222

> <Gold.Chemscore.Rot>
1.0000

> <Gold.Chemscore.Internal.Correction>
   9.000000E+99

> <Gold.Chemscore.Hbonds>
donor molecule, donor type, donor heavy atom, donor atom, acceptor molecule, acceptor atom, score
      L1  H     6    19       P1  8028  1.00
      L1  H     9    20       P1  8028  0.72

> <Gold.Chemscore.Hbond.Weighted>
-5.9112

> <Gold.Chemscore.Metal.Weighted>
-0.0000

> <Gold.Chemscore.Lipo.Weighted>
-9.8307

> <Gold.Chemscore.Internal_Hbond.Weighted>
0.0000

> <Gold.Chemscore.DEClash.Weighted>
0.0555

> <Gold.Chemscore.DEInternal.Weighted>
2.2222

> <Gold.Chemscore.Rot.Weighted>
2.5600

> <Gold.Chemscore.Internal.Correction.Weighted>
   9.000000E+99

> <Gold.Protein.RotatedTorsions>
[ 6907 6896 6895 6894 ] final   77.73 input  -60.11 | X-H torsion
[ 7974 7965 7964 7962 ] final  -14.06 input  175.53 | X-H torsion
[ 8008 7997 7996 7995 ] final  -94.56 input   59.86 | X-H torsion
[ 10167 10162 10161 10158 ] final  117.33 input  -65.29 | X-H torsion
[ 10718 10713 10712 10709 ] final -149.52 input   66.30 | X-H torsion
[ 10763 10752 10751 10750 ] final   -5.20 input  -60.55 | X-H torsion
[ 11005 11000 10999 10996 ] final   11.86 input  -57.11 | X-H torsion

> <Gold.Protein.ActiveResidues>
 VAL166  LYS551  ARG553  GLY616  TRP617  ASP618  TYR619  PRO620  LYS621  CYS622 
 ASP623  PHE694  ASN695  SER759  ASP760  ASP761  ALA762  ILE779  LEU786  VAL792 
 PHE793  MET794  SER795  GLU796  ALA797  LYS798  CYS799  TRP800  GLU811  SER814 

> <Gold.Protein.RotatedAtoms>
  152.5130  134.3773  159.9338 H   0  0  0  0  0  0  0  0  0  0  0  0  # atno 6907 bound_to 6896
  151.3729  133.3842  159.2709 H   0  0  0  0  0  0  0  0  0  0  0  0  # atno 6908 bound_to 6896
  150.9564  134.8977  159.7762 H   0  0  0  0  0  0  0  0  0  0  0  0  # atno 6909 bound_to 6896
  146.2089  140.3294  142.8397 H   0  0  0  0  0  0  0  0  0  0  0  0  # atno 7974 bound_to 7965
  154.7500  140.0488  157.0885 H   0  0  0  0  0  0  0  0  0  0  0  0  # atno 8008 bound_to 7997
  155.0069  140.3131  155.4825 H   0  0  0  0  0  0  0  0  0  0  0  0  # atno 8009 bound_to 7997
  156.2883  140.2191  156.5182 H   0  0  0  0  0  0  0  0  0  0  0  0  # atno 8010 bound_to 7997
  139.6186  144.7097  151.2684 H   0  0  0  0  0  0  0  0  0  0  0  0  # atno 10167 bound_to 10162
  156.4342  130.8090  151.2318 H   0  0  0  0  0  0  0  0  0  0  0  0  # atno 10718 bound_to 10713
  153.3953  135.7003  153.6465 H   0  0  0  0  0  0  0  0  0  0  0  0  # atno 10763 bound_to 10752
  153.5020  135.3650  155.2545 H   0  0  0  0  0  0  0  0  0  0  0  0  # atno 10764 bound_to 10752
  154.8706  135.4114  154.3278 H   0  0  0  0  0  0  0  0  0  0  0  0  # atno 10765 bound_to 10752
  140.4985  134.0769  155.7788 H   0  0  0  0  0  0  0  0  0  0  0  0  # atno 11005 bound_to 11000
  144.8863  140.7466  143.5955 LP  0  0  0  0  0  0  0  0  0  0  0  0  # atno 17320 bound_to 7965
  145.3215  139.1787  143.4585 LP  0  0  0  0  0  0  0  0  0  0  0  0  # atno 17321 bound_to 7965
  140.7367  143.6699  150.8091 LP  0  0  0  0  0  0  0  0  0  0  0  0  # atno 17342 bound_to 10162
  140.0306  143.5448  152.2762 LP  0  0  0  0  0  0  0  0  0  0  0  0  # atno 17343 bound_to 10162
  157.7507  131.0189  150.3643 LP  0  0  0  0  0  0  0  0  0  0  0  0  # atno 17370 bound_to 10713
  156.3987  130.3911  149.6976 LP  0  0  0  0  0  0  0  0  0  0  0  0  # atno 17371 bound_to 10713
  141.1448  133.9075  157.2242 LP  0  0  0  0  0  0  0  0  0  0  0  0  # atno 17394 bound_to 11000
  139.9727  135.0123  156.9553 LP  0  0  0  0  0  0  0  0  0  0  0  0  # atno 17395 bound_to 11000

$$$$
