AV-unprocessed.smi:288|AV-procd|sdf|2212|dock4
  -GOLD-   2262022 43D 1   1.00000     0.00000
 Structure written by MMmdl.
 33 34  0  0  0  0  0  0  0  0  1 V2000
  152.7285  139.8259  156.9135 O   0  0  0  0  0  0  0  0  0  0  0  0
  151.6256  140.0402  156.4077 C   0  0  0  0  0  0  0  0  0  0  0  0
  151.1610  139.3843  155.1899 C   0  0  0  0  0  0  0  0  0  0  0  0
  151.9663  138.5155  154.5554 F   0  0  0  0  0  0  0  0  0  0  0  0
  149.9321  139.6333  154.6876 C   0  0  0  0  0  0  0  0  0  0  0  0
  149.0377  140.5109  155.2791 N   0  0  0  0  0  0  0  0  0  0  0  0
  147.6611  140.7660  154.7030 C   0  0  1  0  0  0  0  0  0  0  0  0
  147.7697  141.4072  153.3073 C   0  0  0  0  0  0  0  0  0  0  0  0
  146.8552  140.5369  152.4694 C   0  0  0  0  0  0  0  0  0  0  0  0
  146.9709  139.1929  153.1724 C   0  0  0  0  0  0  0  0  0  0  0  0
  146.9780  139.5543  154.5474 O   0  0  0  0  0  0  0  0  0  0  0  0
  149.4032  141.1896  156.4617 C   0  0  0  0  0  0  0  0  0  0  0  0
  148.6152  141.9591  157.0169 O   0  0  0  0  0  0  0  0  0  0  0  0
  150.6968  140.9433  156.9796 N   0  0  0  0  0  0  0  0  0  0  0  0
  151.0805  141.6357  158.1990 C   0  0  0  0  0  0  0  0  0  0  0  0
  151.3142  143.1498  157.9951 C   0  0  1  0  0  0  0  0  0  0  0  0
  150.0580  143.7992  157.9544 O   0  0  0  0  0  0  0  0  0  0  0  0
  152.1349  143.7769  159.1391 C   0  0  0  0  0  0  0  0  0  0  0  0
  151.4562  143.7078  160.2848 F   0  0  0  0  0  0  0  0  0  0  0  0
  153.3106  143.1624  159.2776 F   0  0  0  0  0  0  0  0  0  0  0  0
  152.3564  145.0643  158.8725 F   0  0  0  0  0  0  0  0  0  0  0  0
  149.6534  139.1109  153.7856 H   0  0  0  0  0  0  0  0  0  0  0  0
  147.1383  141.3802  155.4383 H   0  0  0  0  0  0  0  0  0  0  0  0
  147.4675  142.4546  153.3323 H   0  0  0  0  0  0  0  0  0  0  0  0
  148.7956  141.3415  152.9409 H   0  0  0  0  0  0  0  0  0  0  0  0
  145.8294  140.9031  152.5286 H   0  0  0  0  0  0  0  0  0  0  0  0
  147.1461  140.4965  151.4194 H   0  0  0  0  0  0  0  0  0  0  0  0
  146.1455  138.5205  152.9384 H   0  0  0  0  0  0  0  0  0  0  0  0
  147.9059  138.6969  152.9082 H   0  0  0  0  0  0  0  0  0  0  0  0
  150.3398  141.4274  158.9730 H   0  0  0  0  0  0  0  0  0  0  0  0
  151.9830  141.1405  158.5606 H   0  0  0  0  0  0  0  0  0  0  0  0
  151.8316  143.3345  157.0526 H   0  0  0  0  0  0  0  0  0  0  0  0
  149.8285  143.9544  157.0508 H   0  0  0  0  0  0  0  0  0  0  0  0
  1  2  2  0  0  0  0
  2 14  1  0  0  0  0
  2  3  1  0  0  0  0
  3  4  1  0  0  0  0
  3  5  2  0  0  0  0
  5  6  1  0  0  0  0
  5 22  1  0  0  0  0
  6  7  1  0  0  0  0
  6 12  1  0  0  0  0
  7 11  1  0  0  0  0
  7  8  1  0  0  0  0
  7 23  1  0  0  0  0
  8  9  1  0  0  0  0
  8 24  1  0  0  0  0
  8 25  1  0  0  0  0
  9 10  1  0  0  0  0
  9 26  1  0  0  0  0
  9 27  1  0  0  0  0
 10 11  1  0  0  0  0
 10 28  1  0  0  0  0
 10 29  1  0  0  0  0
 12 13  2  0  0  0  0
 12 14  1  0  0  0  0
 14 15  1  0  0  0  0
 15 16  1  0  0  0  0
 15 30  1  0  0  0  0
 15 31  1  0  0  0  0
 16 17  1  0  0  0  0
 16 18  1  0  0  0  0
 16 32  1  0  0  0  0
 17 33  1  0  0  0  0
 18 19  1  0  0  0  0
 18 20  1  0  0  0  0
 18 21  1  0  0  0  0
M  END
> <s_m_source_file>
AV-unprocessed.smi

> <i_m_source_file_index>
288

> <i_lp_mmshare_version>
43012

> <i_f3d_flags>
0

> <s_epik_input>
TzFbQ0gyXVtDSDJdW0NIMl1bQ0BIXTFuKFtjSF1jKEYpYzI9TyljKD1PKW4yW0NIMl1bQ0BIXShbT0hdKUMoRikoRilG

> <s_epik_cmdline>
J2VwaWtfcHl0aG9uJywgJy1waCcsICc3LjAnLCAnLXRuJywgJzgnLCAnLW1hJywgJzIwMCcsICctbWV0YWxfYmluZGluZycsICctaW1hZScsICc8aW5maWxlLm1hZT4nLCAnLW9tYWUnLCAnPG91dGZpbGUubWFlPic=

> <r_lp_tautomer_probability>
1

> <r_epik_Ionization_Penalty>
0.000551119

> <r_epik_Ionization_Penalty_Charging>
2.51184e-08

> <r_epik_Ionization_Penalty_Neutral>
0.000551094

> <r_epik_State_Penalty>
0.000345115

> <r_epik_Charging_Adjusted_Penalty>
0.00034514

> <i_epik_Tot_Q>
0

> <i_epik_Tot_abs_Q>
0

> <r_epik_Metal_State_Penalty>
-0

> <b_epik_Metal_Only>
0

> <s_epik_Chemistry_Notes>
This compound contains an acetal/aminal-like group ( X-CH(R)-Y where X, Y are N, S, or O) that may be acid/base labile, releasing an aldehyde.

> <s_lp_Force_Field>
OPLS_2005

> <r_lp_Energy>
35.613

> <b_lp_Chiralities_Consistent>
1

> <s_lp_Variant>
AV-unprocessed.smi:288-4

> <Gold.Version>
5.8.1

> <Gold.Id.Protein>
6NUR|6NUR_protein|mol2

> <Gold.PLP.Fitness>
50.0165

> <Gold.PLP.PLP>
-43.0018

> <Gold.PLP.part.hbond>
-2.5852

> <Gold.PLP.part.metal>
0.0000

> <Gold.PLP.part.buried>
-0.7962

> <Gold.PLP.part.nonpolar>
-38.2802

> <Gold.PLP.part.repulsive>
0.3603

> <Gold.PLP.ligand.clash>
0.0000

> <Gold.PLP.ligand.torsion>
0.3197

> <Gold.PLP.Chemscore.Hbond>
2.0000

> <Gold.PLP.Chemscore.CHOScore>
0.5454

> <Gold.PLP.Chemscore.Metal>
0.0000

> <Gold.Chemscore.Hbonds>
donor molecule, donor type, donor heavy atom, donor atom, acceptor molecule, acceptor atom, score
      L1  H    17    33       P1  8028  1.00
      P1  H  7997  8008       L1     1  1.00
      L1  C     5    22       P1  7957  0.37

> <Gold.PLP.Chemscore.Internal.Correction>
0.0179

> <Gold.Rescore>
     Score         DG    S(hbond)    S(metal)    S(lipo)     H(rot)  DE(clash)    DE(int)     intcor
     12.40     -13.11       1.85        0.00      68.45       2.57       0.31       0.41       ----

> <Gold.Chemscore.Fitness>
12.3969

> <Gold.Chemscore.DG>
-13.1136

> <Gold.Chemscore.ZeroCoef>
-5.4800

> <Gold.Chemscore.Hbond>
1.8542

> <Gold.Chemscore.Metal>
0.0000

> <Gold.Chemscore.Lipo>
68.4487

> <Gold.Chemscore.Internal_Hbond>
0.0000

> <Gold.Chemscore.DEClash>
0.3110

> <Gold.Chemscore.DEInternal>
0.4058

> <Gold.Chemscore.Rot>
2.5656

> <Gold.Chemscore.Internal.Correction>
   9.000000E+99

> <Gold.Chemscore.Hbonds>
donor molecule, donor type, donor heavy atom, donor atom, acceptor molecule, acceptor atom, score
      L1  H    17    33       P1  8028  0.86
      P1  H  7997  8008       L1     1  0.99

> <Gold.Chemscore.Hbond.Weighted>
-6.1930

> <Gold.Chemscore.Metal.Weighted>
-0.0000

> <Gold.Chemscore.Lipo.Weighted>
-8.0085

> <Gold.Chemscore.Internal_Hbond.Weighted>
0.0000

> <Gold.Chemscore.DEClash.Weighted>
0.3110

> <Gold.Chemscore.DEInternal.Weighted>
0.4058

> <Gold.Chemscore.Rot.Weighted>
6.5679

> <Gold.Chemscore.Internal.Correction.Weighted>
   9.000000E+99

> <Gold.Protein.RotatedTorsions>
[ 6907 6896 6895 6894 ] final  -59.92 input  -60.11 | X-H torsion
[ 7974 7965 7964 7962 ] final  145.49 input  175.53 | X-H torsion
[ 8008 7997 7996 7995 ] final  -46.78 input   59.86 | X-H torsion
[ 10167 10162 10161 10158 ] final   30.20 input  -65.29 | X-H torsion
[ 10718 10713 10712 10709 ] final -137.83 input   66.30 | X-H torsion
[ 10763 10752 10751 10750 ] final   59.78 input  -60.55 | X-H torsion
[ 11005 11000 10999 10996 ] final   95.19 input  -57.11 | X-H torsion

> <Gold.Protein.ActiveResidues>
 VAL166  LYS551  ARG553  GLY616  TRP617  ASP618  TYR619  PRO620  LYS621  CYS622 
 ASP623  PHE694  ASN695  SER759  ASP760  ASP761  ALA762  ILE779  LEU786  VAL792 
 PHE793  MET794  SER795  GLU796  ALA797  LYS798  CYS799  TRP800  GLU811  SER814 

> <Gold.Protein.RotatedAtoms>
  150.7894  134.6906  159.6494 H   0  0  0  0  0  0  0  0  0  0  0  0  # atno 6907 bound_to 6896
  152.3997  134.6303  160.0083 H   0  0  0  0  0  0  0  0  0  0  0  0  # atno 6908 bound_to 6896
  151.6578  133.3281  159.3203 H   0  0  0  0  0  0  0  0  0  0  0  0  # atno 6909 bound_to 6896
  144.8748  139.5789  143.5870 H   0  0  0  0  0  0  0  0  0  0  0  0  # atno 7974 bound_to 7965
  154.4010  140.1363  156.4067 H   0  0  0  0  0  0  0  0  0  0  0  0  # atno 8008 bound_to 7997
  155.7773  140.3482  155.5258 H   0  0  0  0  0  0  0  0  0  0  0  0  # atno 8009 bound_to 7997
  155.8708  140.0971  157.1541 H   0  0  0  0  0  0  0  0  0  0  0  0  # atno 8010 bound_to 7997
  140.4699  144.0779  150.6234 H   0  0  0  0  0  0  0  0  0  0  0  0  # atno 10167 bound_to 10162
  156.2925  130.7383  151.1412 H   0  0  0  0  0  0  0  0  0  0  0  0  # atno 10718 bound_to 10713
  152.9903  135.5559  154.5769 H   0  0  0  0  0  0  0  0  0  0  0  0  # atno 10763 bound_to 10752
  154.5158  135.2805  155.1307 H   0  0  0  0  0  0  0  0  0  0  0  0  # atno 10764 bound_to 10752
  154.2680  135.6368  153.5352 H   0  0  0  0  0  0  0  0  0  0  0  0  # atno 10765 bound_to 10752
  139.8791  134.8886  156.3975 H   0  0  0  0  0  0  0  0  0  0  0  0  # atno 11005 bound_to 11000
  146.2955  139.7266  142.9130 LP  0  0  0  0  0  0  0  0  0  0  0  0  # atno 17320 bound_to 7965
  145.4063  141.0391  143.3042 LP  0  0  0  0  0  0  0  0  0  0  0  0  # atno 17321 bound_to 7965
  140.3990  143.2713  151.9970 LP  0  0  0  0  0  0  0  0  0  0  0  0  # atno 17342 bound_to 10162
  139.4817  144.6013  151.7600 LP  0  0  0  0  0  0  0  0  0  0  0  0  # atno 17343 bound_to 10162
  157.7346  131.0580  150.5514 LP  0  0  0  0  0  0  0  0  0  0  0  0  # atno 17370 bound_to 10713
  156.5632  130.4261  149.6053 LP  0  0  0  0  0  0  0  0  0  0  0  0  # atno 17371 bound_to 10713
  140.9290  133.7592  156.0000 LP  0  0  0  0  0  0  0  0  0  0  0  0  # atno 17394 bound_to 11000
  140.8353  134.3131  157.5334 LP  0  0  0  0  0  0  0  0  0  0  0  0  # atno 17395 bound_to 11000

$$$$
