AV-unprocessed.smi:110|AV-procd|sdf|1073|dock5
  -GOLD-   2262018163D 1   1.00000     0.00000
 Structure written by MMmdl.
 46 50  0  0  0  0  0  0  0  0  1 V2000
  151.5542  132.5617  157.3043 O   0  0  0  0  0  0  0  0  0  0  0  0
  150.7634  132.9922  156.2169 C   0  0  0  0  0  0  0  0  0  0  0  0
  150.3533  134.4625  156.4115 C   0  0  1  0  0  0  0  0  0  0  0  0
  151.4374  135.3439  156.1207 O   0  0  0  0  0  0  0  0  0  0  0  0
  150.9614  136.5735  155.6582 C   0  0  2  0  0  0  0  0  0  0  0  0
  151.3928  137.6679  156.5891 N   0  0  0  0  0  0  0  0  0  0  0  0
  152.0690  137.5202  157.7786 C   0  0  0  0  0  0  0  0  0  0  0  0
  152.3382  138.6287  158.4116 N   0  0  0  0  0  0  0  0  0  0  0  0
  151.7951  139.6235  157.6076 C   0  0  0  0  0  0  0  0  0  0  0  0
  151.7255  141.0443  157.6878 C   0  0  0  0  0  0  0  0  0  0  0  0
  152.2342  141.7846  158.7006 N   0  0  0  0  0  0  0  0  0  0  0  0
  152.9856  141.1198  159.7749 C   0  0  0  0  0  0  0  0  0  0  0  0
  153.0431  142.0897  160.9702 C   0  0  0  0  0  0  0  0  0  0  0  0
  152.3969  143.3034  160.3845 C   0  0  0  0  0  0  0  0  0  0  0  0
  152.2318  144.5586  160.9951 C   0  0  0  0  0  0  0  0  0  0  0  0
  151.6126  145.5845  160.2493 C   0  0  0  0  0  0  0  0  0  0  0  0
  151.1848  145.3451  158.9226 C   0  0  0  0  0  0  0  0  0  0  0  0
  151.3636  144.0762  158.3287 C   0  0  0  0  0  0  0  0  0  0  0  0
  151.9618  143.0489  159.0874 C   0  0  0  0  0  0  0  0  0  0  0  0
  151.1532  141.7053  156.6497 N   0  0  0  0  0  0  0  0  0  0  0  0
  150.6427  141.0249  155.6207 C   0  0  0  0  0  0  0  0  0  0  0  0
  150.6133  139.7058  155.4273 N   0  0  0  0  0  0  0  0  0  0  0  0
  151.2123  139.0312  156.4503 C   0  0  0  0  0  0  0  0  0  0  0  0
  149.4306  136.4660  155.5074 C   0  0  2  0  0  0  0  0  0  0  0  0
  148.7046  137.0683  156.5647 O   0  0  0  0  0  0  0  0  0  0  0  0
  149.2204  134.9601  155.5035 C   0  0  1  0  0  0  0  0  0  0  0  0
  149.3499  134.4427  154.1911 O   0  0  0  0  0  0  0  0  0  0  0  0
  150.0383  134.6209  157.4437 H   0  0  0  0  0  0  0  0  0  0  0  0
  151.4599  136.8057  154.7164 H   0  0  0  0  0  0  0  0  0  0  0  0
  149.1187  136.9357  154.5736 H   0  0  0  0  0  0  0  0  0  0  0  0
  148.2381  134.6737  155.8821 H   0  0  0  0  0  0  0  0  0  0  0  0
  152.4600  132.7480  157.1102 H   0  0  0  0  0  0  0  0  0  0  0  0
  151.3006  132.8482  155.2791 H   0  0  0  0  0  0  0  0  0  0  0  0
  149.8783  132.3562  156.1869 H   0  0  0  0  0  0  0  0  0  0  0  0
  152.3637  136.5551  158.1646 H   0  0  0  0  0  0  0  0  0  0  0  0
  152.5113  140.1789  160.0570 H   0  0  0  0  0  0  0  0  0  0  0  0
  153.9917  140.8932  159.4201 H   0  0  0  0  0  0  0  0  0  0  0  0
  152.4661  141.7253  161.8204 H   0  0  0  0  0  0  0  0  0  0  0  0
  154.0657  142.2973  161.2867 H   0  0  0  0  0  0  0  0  0  0  0  0
  152.5740  144.7350  162.0042 H   0  0  0  0  0  0  0  0  0  0  0  0
  151.4729  146.5602  160.6909 H   0  0  0  0  0  0  0  0  0  0  0  0
  150.7223  146.1401  158.3567 H   0  0  0  0  0  0  0  0  0  0  0  0
  151.0499  143.9068  157.3095 H   0  0  0  0  0  0  0  0  0  0  0  0
  150.1949  141.6218  154.8400 H   0  0  0  0  0  0  0  0  0  0  0  0
  149.3130  137.5329  157.1190 H   0  0  0  0  0  0  0  0  0  0  0  0
  149.4211  135.1670  153.5884 H   0  0  0  0  0  0  0  0  0  0  0  0
  1  2  1  0  0  0  0
  1 32  1  0  0  0  0
  2  3  1  0  0  0  0
  2 33  1  0  0  0  0
  2 34  1  0  0  0  0
  3 28  1  0  0  0  0
  3 26  1  0  0  0  0
  3  4  1  0  0  0  0
  4  5  1  0  0  0  0
  5 29  1  0  0  0  0
  5  6  1  0  0  0  0
  5 24  1  0  0  0  0
  6 23  1  0  0  0  0
  6  7  1  0  0  0  0
  7  8  2  0  0  0  0
  7 35  1  0  0  0  0
  8  9  1  0  0  0  0
  9 23  2  0  0  0  0
  9 10  1  0  0  0  0
 10 11  1  0  0  0  0
 10 20  2  0  0  0  0
 11 19  1  0  0  0  0
 11 12  1  0  0  0  0
 12 13  1  0  0  0  0
 12 36  1  0  0  0  0
 12 37  1  0  0  0  0
 13 14  1  0  0  0  0
 13 38  1  0  0  0  0
 13 39  1  0  0  0  0
 14 19  2  0  0  0  0
 14 15  1  0  0  0  0
 15 16  2  0  0  0  0
 15 40  1  0  0  0  0
 16 17  1  0  0  0  0
 16 41  1  0  0  0  0
 17 18  2  0  0  0  0
 17 42  1  0  0  0  0
 18 19  1  0  0  0  0
 18 43  1  0  0  0  0
 20 21  1  0  0  0  0
 21 22  2  0  0  0  0
 21 44  1  0  0  0  0
 22 23  1  0  0  0  0
 24 30  1  0  0  0  0
 24 25  1  0  0  0  0
 24 26  1  0  0  0  0
 25 45  1  0  0  0  0
 26 31  1  0  0  0  0
 26 27  1  0  0  0  0
 27 46  1  0  0  0  0
M  END
> <s_m_source_file>
AV-unprocessed.smi

> <i_m_source_file_index>
110

> <i_lp_mmshare_version>
43012

> <i_f3d_flags>
0

> <s_epik_input>
W09IXVtDSDJdW0NASF0xT1tDQEhdKFtDQEhdKFtPSF0pW0NAQEhdMVtPSF0pbihbY0hdbjIpYyhjMjMpbltjSF1uYzNOKFtDSDJdW0NIMl00KWMoYzQ1KVtjSF1bY0hdW2NIXVtjSF01

> <s_epik_cmdline>
J2VwaWtfcHl0aG9uJywgJy1waCcsICc3LjAnLCAnLXRuJywgJzgnLCAnLW1hJywgJzIwMCcsICctbWV0YWxfYmluZGluZycsICctaW1hZScsICc8aW5maWxlLm1hZT4nLCAnLW9tYWUnLCAnPG91dGZpbGUubWFlPic=

> <r_lp_tautomer_probability>
1

> <r_epik_Ionization_Penalty>
0.00068475

> <r_epik_Ionization_Penalty_Charging>
0

> <r_epik_Ionization_Penalty_Neutral>
0.00068475

> <r_epik_State_Penalty>
0.000417442

> <r_epik_Charging_Adjusted_Penalty>
0.000417442

> <i_epik_Tot_Q>
0

> <i_epik_Tot_abs_Q>
0

> <r_epik_Metal_State_Penalty>
-0

> <b_epik_Metal_Only>
0

> <s_epik_Chemistry_Notes>
This compound contains an acetal/aminal-like group ( X-CH(R)-Y where X, Y are N, S, or O) that may be acid/base labile, releasing an aldehyde.

> <s_lp_Force_Field>
OPLS_2005

> <r_lp_Energy>
62.4803

> <b_lp_Chiralities_Consistent>
1

> <s_lp_Variant>
AV-unprocessed.smi:110-11

> <Gold.Version>
5.8.1

> <Gold.Id.Protein>
6NUR|6NUR_protein|mol2

> <Gold.PLP.Fitness>
55.1845

> <Gold.PLP.PLP>
-48.2482

> <Gold.PLP.part.hbond>
-3.0000

> <Gold.PLP.part.metal>
0.0000

> <Gold.PLP.part.buried>
-6.2622

> <Gold.PLP.part.nonpolar>
-39.2655

> <Gold.PLP.part.repulsive>
0.1019

> <Gold.PLP.ligand.clash>
0.0000

> <Gold.PLP.ligand.torsion>
0.2517

> <Gold.PLP.Chemscore.Hbond>
2.4588

> <Gold.PLP.Chemscore.CHOScore>
0.0000

> <Gold.PLP.Chemscore.Metal>
0.0000

> <Gold.Chemscore.Hbonds>
donor molecule, donor type, donor heavy atom, donor atom, acceptor molecule, acceptor atom, score
      L1  H    27    46       P1  7948  0.78
      P1  H  6896  6908       L1     1  0.91
      P1  H 10752 10765       L1     4  0.77

> <Gold.PLP.Chemscore.Internal.Correction>
0.0633

> <Gold.Rescore>
     Score         DG    S(hbond)    S(metal)    S(lipo)     H(rot)  DE(clash)    DE(int)     intcor
     12.18     -14.97       1.60        0.00     109.62       3.38       0.09       2.70       ----

> <Gold.Chemscore.Fitness>
12.1755

> <Gold.Chemscore.DG>
-14.9712

> <Gold.Chemscore.ZeroCoef>
-5.4800

> <Gold.Chemscore.Hbond>
1.5953

> <Gold.Chemscore.Metal>
0.0000

> <Gold.Chemscore.Lipo>
109.6167

> <Gold.Chemscore.Internal_Hbond>
0.0000

> <Gold.Chemscore.DEClash>
0.0932

> <Gold.Chemscore.DEInternal>
2.7025

> <Gold.Chemscore.Rot>
3.3837

> <Gold.Chemscore.Internal.Correction>
   9.000000E+99

> <Gold.Chemscore.Hbonds>
donor molecule, donor type, donor heavy atom, donor atom, acceptor molecule, acceptor atom, score
      L1  H    27    46       P1  7948  0.11
      P1  H  6896  6908       L1     1  0.22
      P1  H 10752 10765       L1     4  0.10

> <Gold.Chemscore.Hbond.Weighted>
-5.3282

> <Gold.Chemscore.Metal.Weighted>
-0.0000

> <Gold.Chemscore.Lipo.Weighted>
-12.8251

> <Gold.Chemscore.Internal_Hbond.Weighted>
0.0000

> <Gold.Chemscore.DEClash.Weighted>
0.0932

> <Gold.Chemscore.DEInternal.Weighted>
2.7025

> <Gold.Chemscore.Rot.Weighted>
8.6622

> <Gold.Chemscore.Internal.Correction.Weighted>
   9.000000E+99

> <Gold.Protein.RotatedTorsions>
[ 6907 6896 6895 6894 ] final   73.38 input  -60.11 | X-H torsion
[ 7974 7965 7964 7962 ] final  132.46 input  175.53 | X-H torsion
[ 8008 7997 7996 7995 ] final  130.50 input   59.86 | X-H torsion
[ 10167 10162 10161 10158 ] final   89.46 input  -65.29 | X-H torsion
[ 10718 10713 10712 10709 ] final  -99.53 input   66.30 | X-H torsion
[ 10763 10752 10751 10750 ] final -140.62 input  -60.55 | X-H torsion
[ 11005 11000 10999 10996 ] final -174.19 input  -57.11 | X-H torsion

> <Gold.Protein.ActiveResidues>
 VAL166  LYS551  ARG553  GLY616  TRP617  ASP618  TYR619  PRO620  LYS621  CYS622 
 ASP623  PHE694  ASN695  SER759  ASP760  ASP761  ALA762  ILE779  LEU786  VAL792 
 PHE793  MET794  SER795  GLU796  ALA797  LYS798  CYS799  TRP800  GLU811  SER814 

> <Gold.Protein.RotatedAtoms>
  152.4920  134.4430  159.9549 H   0  0  0  0  0  0  0  0  0  0  0  0  # atno 6907 bound_to 6896
  151.4416  133.3636  159.2790 H   0  0  0  0  0  0  0  0  0  0  0  0  # atno 6908 bound_to 6896
  150.9084  134.8523  159.7468 H   0  0  0  0  0  0  0  0  0  0  0  0  # atno 6909 bound_to 6896
  144.9966  139.4353  143.5313 H   0  0  0  0  0  0  0  0  0  0  0  0  # atno 7974 bound_to 7965
  156.2955  140.2594  156.2773 H   0  0  0  0  0  0  0  0  0  0  0  0  # atno 8008 bound_to 7997
  154.9637  140.0392  157.2220 H   0  0  0  0  0  0  0  0  0  0  0  0  # atno 8009 bound_to 7997
  154.7923  140.2814  155.5987 H   0  0  0  0  0  0  0  0  0  0  0  0  # atno 8010 bound_to 7997
  139.8571  144.6563  150.9102 H   0  0  0  0  0  0  0  0  0  0  0  0  # atno 10167 bound_to 10162
  156.0136  130.5286  150.6683 H   0  0  0  0  0  0  0  0  0  0  0  0  # atno 10718 bound_to 10713
  154.8572  135.3548  154.5737 H   0  0  0  0  0  0  0  0  0  0  0  0  # atno 10763 bound_to 10752
  153.6349  135.7000  153.5267 H   0  0  0  0  0  0  0  0  0  0  0  0  # atno 10764 bound_to 10752
  153.3019  135.4204  155.1219 H   0  0  0  0  0  0  0  0  0  0  0  0  # atno 10765 bound_to 10752
  140.4772  134.6109  157.4905 H   0  0  0  0  0  0  0  0  0  0  0  0  # atno 11005 bound_to 11000
  146.3443  139.9329  142.8751 LP  0  0  0  0  0  0  0  0  0  0  0  0  # atno 17320 bound_to 7965
  145.2211  140.9935  143.4045 LP  0  0  0  0  0  0  0  0  0  0  0  0  # atno 17321 bound_to 7965
  140.7780  143.3777  151.1534 LP  0  0  0  0  0  0  0  0  0  0  0  0  # atno 17342 bound_to 10162
  139.7410  143.8925  152.3049 LP  0  0  0  0  0  0  0  0  0  0  0  0  # atno 17343 bound_to 10162
  157.4411  131.0861  151.0942 LP  0  0  0  0  0  0  0  0  0  0  0  0  # atno 17370 bound_to 10713
  157.1486  130.6174  149.5575 LP  0  0  0  0  0  0  0  0  0  0  0  0  # atno 17371 bound_to 10713
  139.9848  134.7079  155.9793 LP  0  0  0  0  0  0  0  0  0  0  0  0  # atno 17394 bound_to 11000
  141.1548  133.6544  156.4128 LP  0  0  0  0  0  0  0  0  0  0  0  0  # atno 17395 bound_to 11000

$$$$
