AV-unprocessed.smi:1985|AV-procd|sdf|8042|dock9
  -GOLD-   2272010243D 1   1.00000     0.00000
 Structure written by MMmdl.
 50 51  0  0  0  0  0  0  0  0  1 V2000
  147.0811  139.5288  152.0555 C   0  0  0  0  0  0  0  0  0  0  0  0
  146.8688  140.8034  152.8898 C   0  0  0  0  0  0  0  0  0  0  0  0
  147.4386  140.7514  154.3466 C   0  0  1  0  0  0  0  0  0  0  0  0
  147.2040  139.3058  154.8596 C   0  0  0  0  0  0  0  0  0  0  0  0
  148.9837  140.9858  154.2891 C   0  0  0  0  0  0  0  0  0  0  0  0
  149.6309  140.8088  155.5820 N   0  0  0  0  0  0  0  0  0  0  0  0
  150.9171  140.4952  155.7967 C   0  0  0  0  0  0  0  0  0  0  0  0
  151.7195  140.2990  154.8854 O   0  0  0  0  0  0  0  0  0  0  0  0
  151.3851  140.3799  157.2587 C   0  0  0  0  0  0  0  0  0  0  0  0
  151.5266  141.6715  157.9517 N   0  0  0  0  0  0  0  0  0  0  0  0
  151.0562  142.8228  157.3459 C   0  0  0  0  0  0  0  0  0  0  0  0
  151.1985  144.0561  157.8777 C   0  0  0  0  0  0  0  0  0  0  0  0
  151.8754  144.2447  159.1543 C   0  0  0  0  0  0  0  0  0  0  0  0
  152.0481  145.3481  159.6737 O   0  0  0  0  0  0  0  0  0  0  0  0
  152.3343  143.0530  159.7599 N   0  0  0  0  0  0  0  0  0  0  0  0
  153.0271  143.1982  161.0233 C   0  0  0  0  0  0  0  0  0  0  0  0
  152.1842  141.7633  159.1991 C   0  0  0  0  0  0  0  0  0  0  0  0
  152.6204  140.7487  159.7472 O   0  0  0  0  0  0  0  0  0  0  0  0
  146.7883  141.7742  155.2193 N   0  0  0  0  0  0  0  0  0  0  0  0
  145.3736  142.0426  154.9254 C   0  0  0  0  0  0  0  0  0  0  0  0
  144.8082  143.1906  155.7783 C   0  0  0  0  0  0  0  0  0  0  0  0
  144.9781  142.8915  157.1574 O   0  0  0  0  0  0  0  0  0  0  0  0
  146.3435  142.6925  157.4997 C   0  0  0  0  0  0  0  0  0  0  0  0
  146.9273  141.5410  156.6633 C   0  0  0  0  0  0  0  0  0  0  0  0
  146.7019  139.6676  151.0431 H   0  0  0  0  0  0  0  0  0  0  0  0
  146.5563  138.6744  152.4825 H   0  0  0  0  0  0  0  0  0  0  0  0
  148.1370  139.2707  151.9772 H   0  0  0  0  0  0  0  0  0  0  0  0
  147.2829  141.6518  152.3469 H   0  0  0  0  0  0  0  0  0  0  0  0
  145.8005  141.0224  152.9026 H   0  0  0  0  0  0  0  0  0  0  0  0
  147.6634  138.5672  154.2018 H   0  0  0  0  0  0  0  0  0  0  0  0
  146.1456  139.0531  154.9093 H   0  0  0  0  0  0  0  0  0  0  0  0
  147.6292  139.1474  155.8502 H   0  0  0  0  0  0  0  0  0  0  0  0
  149.4508  140.3093  153.5721 H   0  0  0  0  0  0  0  0  0  0  0  0
  149.2060  141.9993  153.9536 H   0  0  0  0  0  0  0  0  0  0  0  0
  149.0474  140.9498  156.3937 H   0  0  0  0  0  0  0  0  0  0  0  0
  150.6692  139.7545  157.7941 H   0  0  0  0  0  0  0  0  0  0  0  0
  152.3273  139.8300  157.2843 H   0  0  0  0  0  0  0  0  0  0  0  0
  150.5559  142.7353  156.3921 H   0  0  0  0  0  0  0  0  0  0  0  0
  150.8126  144.9154  157.3488 H   0  0  0  0  0  0  0  0  0  0  0  0
  153.2378  142.2289  161.4742 H   0  0  0  0  0  0  0  0  0  0  0  0
  152.3788  143.7692  161.6907 H   0  0  0  0  0  0  0  0  0  0  0  0
  153.9567  143.7319  160.8180 H   0  0  0  0  0  0  0  0  0  0  0  0
  145.2343  142.3207  153.8831 H   0  0  0  0  0  0  0  0  0  0  0  0
  144.7739  141.1494  155.1001 H   0  0  0  0  0  0  0  0  0  0  0  0
  145.3049  144.1316  155.5372 H   0  0  0  0  0  0  0  0  0  0  0  0
  143.7467  143.3274  155.5720 H   0  0  0  0  0  0  0  0  0  0  0  0
  146.9058  143.6129  157.3343 H   0  0  0  0  0  0  0  0  0  0  0  0
  146.4137  142.4614  158.5627 H   0  0  0  0  0  0  0  0  0  0  0  0
  146.4293  140.6137  156.9462 H   0  0  0  0  0  0  0  0  0  0  0  0
  147.9731  141.4394  156.9455 H   0  0  0  0  0  0  0  0  0  0  0  0
  1  2  1  0  0  0  0
  1 25  1  0  0  0  0
  1 26  1  0  0  0  0
  1 27  1  0  0  0  0
  2  3  1  0  0  0  0
  2 28  1  0  0  0  0
  2 29  1  0  0  0  0
  3  4  1  0  0  0  0
  3  5  1  0  0  0  0
  3 19  1  0  0  0  0
  4 30  1  0  0  0  0
  4 31  1  0  0  0  0
  4 32  1  0  0  0  0
  5  6  1  0  0  0  0
  5 33  1  0  0  0  0
  5 34  1  0  0  0  0
  6  7  1  0  0  0  0
  6 35  1  0  0  0  0
  7  8  2  0  0  0  0
  7  9  1  0  0  0  0
  9 10  1  0  0  0  0
  9 36  1  0  0  0  0
  9 37  1  0  0  0  0
 10 17  1  0  0  0  0
 10 11  1  0  0  0  0
 11 12  2  0  0  0  0
 11 38  1  0  0  0  0
 12 13  1  0  0  0  0
 12 39  1  0  0  0  0
 13 14  2  0  0  0  0
 13 15  1  0  0  0  0
 15 16  1  0  0  0  0
 15 17  1  0  0  0  0
 16 40  1  0  0  0  0
 16 41  1  0  0  0  0
 16 42  1  0  0  0  0
 17 18  2  0  0  0  0
 19 24  1  0  0  0  0
 19 20  1  0  0  0  0
 20 21  1  0  0  0  0
 20 43  1  0  0  0  0
 20 44  1  0  0  0  0
 21 22  1  0  0  0  0
 21 45  1  0  0  0  0
 21 46  1  0  0  0  0
 22 23  1  0  0  0  0
 23 24  1  0  0  0  0
 23 47  1  0  0  0  0
 23 48  1  0  0  0  0
 24 49  1  0  0  0  0
 24 50  1  0  0  0  0
M  END
> <s_m_source_file>
AV-unprocessed.smi

> <i_m_source_file_index>
1985

> <i_lp_mmshare_version>
43012

> <i_f3d_flags>
0

> <s_epik_input>
W0NIMl0xW0NIMl1PW0NIMl1bQ0gyXU4xW0NAQF0oW0NIM10pKFtDSDJdW0NIM10pW0NIMl1bTkhdQyg9TylbQ0gyXW4yW2NIXVtjSF1jKD1PKW4oW0NIM10pYzI9Tw==

> <s_epik_cmdline>
J2VwaWtfcHl0aG9uJywgJy1waCcsICc3LjAnLCAnLXRuJywgJzgnLCAnLW1hJywgJzIwMCcsICctbWV0YWxfYmluZGluZycsICctaW1hZScsICc8aW5maWxlLm1hZT4nLCAnLW9tYWUnLCAnPG91dGZpbGUubWFlPic=

> <r_lp_tautomer_probability>
1

> <r_epik_Ionization_Penalty>
0.318667

> <r_epik_Ionization_Penalty_Charging>
1.17294e-08

> <r_epik_Ionization_Penalty_Neutral>
0.318667

> <r_epik_State_Penalty>
0.313095

> <r_epik_Charging_Adjusted_Penalty>
0.313095

> <i_epik_Tot_Q>
0

> <i_epik_Tot_abs_Q>
0

> <r_epik_Metal_State_Penalty>
0.313065

> <b_epik_Metal_Only>
0

> <s_lp_Force_Field>
OPLS_2005

> <r_lp_Energy>
50.9195

> <b_lp_Chiralities_Consistent>
1

> <s_lp_Variant>
AV-unprocessed.smi:1985-1

> <Gold.Version>
5.8.1

> <Gold.Id.Protein>
6NUR|6NUR_protein|mol2

> <Gold.PLP.Fitness>
42.8874

> <Gold.PLP.PLP>
-41.5304

> <Gold.PLP.part.hbond>
-0.9968

> <Gold.PLP.part.metal>
0.0000

> <Gold.PLP.part.buried>
-3.0337

> <Gold.PLP.part.nonpolar>
-38.2462

> <Gold.PLP.part.repulsive>
0.4561

> <Gold.PLP.ligand.clash>
0.0000

> <Gold.PLP.ligand.torsion>
1.4205

> <Gold.PLP.Chemscore.Hbond>
0.9760

> <Gold.PLP.Chemscore.CHOScore>
0.3618

> <Gold.PLP.Chemscore.Metal>
0.0000

> <Gold.Chemscore.Hbonds>
donor molecule, donor type, donor heavy atom, donor atom, acceptor molecule, acceptor atom, score
      P1  H  7989  7998       L1     8  0.83
      L1  C    11    38       P1  8028  0.45

> <Gold.PLP.Chemscore.Internal.Correction>
0.1846

> <Gold.Rescore>
     Score         DG    S(hbond)    S(metal)    S(lipo)     H(rot)  DE(clash)    DE(int)     intcor
      9.59     -13.43       0.97        0.00      88.28       2.20       1.47       2.36       ----

> <Gold.Chemscore.Fitness>
9.5939

> <Gold.Chemscore.DG>
-13.4257

> <Gold.Chemscore.ZeroCoef>
-5.4800

> <Gold.Chemscore.Hbond>
0.9691

> <Gold.Chemscore.Metal>
0.0000

> <Gold.Chemscore.Lipo>
88.2792

> <Gold.Chemscore.Internal_Hbond>
0.0000

> <Gold.Chemscore.DEClash>
1.4674

> <Gold.Chemscore.DEInternal>
2.3643

> <Gold.Chemscore.Rot>
2.1952

> <Gold.Chemscore.Internal.Correction>
   9.000000E+99

> <Gold.Chemscore.Hbonds>
donor molecule, donor type, donor heavy atom, donor atom, acceptor molecule, acceptor atom, score
      P1  H  7989  7998       L1     8  0.77

> <Gold.Chemscore.Hbond.Weighted>
-3.2367

> <Gold.Chemscore.Metal.Weighted>
-0.0000

> <Gold.Chemscore.Lipo.Weighted>
-10.3287

> <Gold.Chemscore.Internal_Hbond.Weighted>
0.0000

> <Gold.Chemscore.DEClash.Weighted>
1.4674

> <Gold.Chemscore.DEInternal.Weighted>
2.3643

> <Gold.Chemscore.Rot.Weighted>
5.6197

> <Gold.Chemscore.Internal.Correction.Weighted>
   9.000000E+99

> <Gold.Protein.RotatedTorsions>
[ 6907 6896 6895 6894 ] final   17.51 input  -60.11 | X-H torsion
[ 7974 7965 7964 7962 ] final   32.60 input  175.53 | X-H torsion
[ 8008 7997 7996 7995 ] final  -99.05 input   59.86 | X-H torsion
[ 10167 10162 10161 10158 ] final  157.81 input  -65.29 | X-H torsion
[ 10718 10713 10712 10709 ] final  -15.38 input   66.30 | X-H torsion
[ 10763 10752 10751 10750 ] final  103.32 input  -60.55 | X-H torsion
[ 11005 11000 10999 10996 ] final   -7.05 input  -57.11 | X-H torsion

> <Gold.Protein.ActiveResidues>
 VAL166  LYS551  ARG553  GLY616  TRP617  ASP618  TYR619  PRO620  LYS621  CYS622 
 ASP623  PHE694  ASN695  SER759  ASP760  ASP761  ALA762  ILE779  LEU786  VAL792 
 PHE793  MET794  SER795  GLU796  ALA797  LYS798  CYS799  TRP800  GLU811  SER814 

> <Gold.Protein.RotatedAtoms>
  151.8507  135.0558  160.0458 H   0  0  0  0  0  0  0  0  0  0  0  0  # atno 6907 bound_to 6896
  152.2738  133.5402  159.5464 H   0  0  0  0  0  0  0  0  0  0  0  0  # atno 6908 bound_to 6896
  150.7162  134.0576  159.3862 H   0  0  0  0  0  0  0  0  0  0  0  0  # atno 6909 bound_to 6896
  146.1476  139.6505  142.9121 H   0  0  0  0  0  0  0  0  0  0  0  0  # atno 7974 bound_to 7965
  154.8095  140.0450  157.1332 H   0  0  0  0  0  0  0  0  0  0  0  0  # atno 8008 bound_to 7997
  154.9385  140.3049  155.5112 H   0  0  0  0  0  0  0  0  0  0  0  0  # atno 8009 bound_to 7997
  156.2970  140.2310  156.4451 H   0  0  0  0  0  0  0  0  0  0  0  0  # atno 8010 bound_to 7997
  139.4824  144.4883  151.8345 H   0  0  0  0  0  0  0  0  0  0  0  0  # atno 10167 bound_to 10162
  156.6025  130.4828  149.6234 H   0  0  0  0  0  0  0  0  0  0  0  0  # atno 10718 bound_to 10713
  153.3512  135.3980  155.1647 H   0  0  0  0  0  0  0  0  0  0  0  0  # atno 10763 bound_to 10752
  154.8662  135.3657  154.5220 H   0  0  0  0  0  0  0  0  0  0  0  0  # atno 10764 bound_to 10752
  153.5672  135.7080  153.5581 H   0  0  0  0  0  0  0  0  0  0  0  0  # atno 10765 bound_to 10752
  140.7086  133.8928  155.8734 H   0  0  0  0  0  0  0  0  0  0  0  0  # atno 11005 bound_to 11000
  145.4900  141.0438  143.2598 LP  0  0  0  0  0  0  0  0  0  0  0  0  # atno 17320 bound_to 7965
  144.7865  139.6416  143.7132 LP  0  0  0  0  0  0  0  0  0  0  0  0  # atno 17321 bound_to 7965
  140.4365  144.2045  150.5889 LP  0  0  0  0  0  0  0  0  0  0  0  0  # atno 17342 bound_to 10162
  140.4727  143.2407  151.9067 LP  0  0  0  0  0  0  0  0  0  0  0  0  # atno 17343 bound_to 10162
  156.2457  130.6877  151.1598 LP  0  0  0  0  0  0  0  0  0  0  0  0  # atno 17370 bound_to 10713
  157.7276  131.0638  150.5860 LP  0  0  0  0  0  0  0  0  0  0  0  0  # atno 17371 bound_to 10713
  141.0103  134.1029  157.4228 LP  0  0  0  0  0  0  0  0  0  0  0  0  # atno 17394 bound_to 11000
  139.8877  135.0092  156.6579 LP  0  0  0  0  0  0  0  0  0  0  0  0  # atno 17395 bound_to 11000

$$$$
