AV-unprocessed.smi:618|AV-procd|sdf|3083|dock10
  -GOLD-   22720 0 03D 1   1.00000     0.00000
 Structure written by MMmdl.
 40 42  0  0  0  0  0  0  0  0  1 V2000
  145.5635  138.2067  154.2720 O   0  0  0  0  0  0  0  0  0  0  0  0
  146.5950  137.7908  153.7454 C   0  0  0  0  0  0  0  0  0  0  0  0
  147.8050  138.3275  153.9559 N   0  0  0  0  0  0  0  0  0  0  0  0
  148.0913  139.4425  154.8525 C   0  0  0  0  0  0  0  0  0  0  0  0
  149.2632  140.2987  154.3276 C   0  0  1  0  0  0  0  0  0  0  0  0
  149.5777  141.5094  155.2388 C   0  0  0  0  0  0  0  0  0  0  0  0
  150.2789  141.0848  156.4357 N   0  0  0  0  0  0  0  0  0  0  0  0
  150.7188  142.1263  157.3349 C   0  0  0  0  0  0  0  0  0  0  0  0
  151.7519  141.4351  158.2416 C   0  0  0  0  0  0  0  0  0  0  0  0
  152.1861  140.1845  157.4463 C   0  0  0  0  0  0  0  0  0  0  0  0
  151.4842  140.3774  156.1007 C   0  0  1  0  0  0  0  0  0  0  0  0
  151.1640  139.1182  155.2863 C   0  0  0  0  0  0  0  0  0  0  0  0
  150.4450  139.5098  154.1118 O   0  0  0  0  0  0  0  0  0  0  0  0
  146.6709  136.7411  152.9098 N   0  0  0  0  0  0  0  0  0  0  0  0
  145.6221  135.9000  152.4494 C   0  0  0  0  0  0  0  0  0  0  0  0
  144.2876  135.9594  152.9195 C   0  0  0  0  0  0  0  0  0  0  0  0
  143.3344  135.0804  152.3705 C   0  0  0  0  0  0  0  0  0  0  0  0
  143.7468  134.1813  151.3679 C   0  0  0  0  0  0  0  0  0  0  0  0
  145.0117  134.1234  150.9005 N   0  0  0  0  0  0  0  0  0  0  0  0
  145.9201  134.9691  151.4317 C   0  0  0  0  0  0  0  0  0  0  0  0
  148.5945  137.9173  153.4792 H   0  0  0  0  0  0  0  0  0  0  0  0
  147.1909  140.0551  154.9040 H   0  0  0  0  0  0  0  0  0  0  0  0
  148.2738  139.0963  155.8708 H   0  0  0  0  0  0  0  0  0  0  0  0
  148.9680  140.6903  153.3535 H   0  0  0  0  0  0  0  0  0  0  0  0
  150.1956  142.2202  154.6879 H   0  0  0  0  0  0  0  0  0  0  0  0
  148.6608  142.0357  155.5058 H   0  0  0  0  0  0  0  0  0  0  0  0
  151.1976  142.9307  156.7742 H   0  0  0  0  0  0  0  0  0  0  0  0
  149.8862  142.5527  157.8951 H   0  0  0  0  0  0  0  0  0  0  0  0
  152.5922  142.0963  158.4553 H   0  0  0  0  0  0  0  0  0  0  0  0
  151.3040  141.1433  159.1921 H   0  0  0  0  0  0  0  0  0  0  0  0
  153.2684  140.1075  157.3385 H   0  0  0  0  0  0  0  0  0  0  0  0
  151.8287  139.2814  157.9429 H   0  0  0  0  0  0  0  0  0  0  0  0
  152.1148  141.0250  155.4880 H   0  0  0  0  0  0  0  0  0  0  0  0
  152.0804  138.6079  154.9902 H   0  0  0  0  0  0  0  0  0  0  0  0
  150.5802  138.4111  155.8754 H   0  0  0  0  0  0  0  0  0  0  0  0
  147.6001  136.4708  152.6217 H   0  0  0  0  0  0  0  0  0  0  0  0
  143.9737  136.6645  153.6733 H   0  0  0  0  0  0  0  0  0  0  0  0
  142.3084  135.0981  152.7075 H   0  0  0  0  0  0  0  0  0  0  0  0
  143.0406  133.4947  150.9253 H   0  0  0  0  0  0  0  0  0  0  0  0
  146.9214  134.8959  151.0323 H   0  0  0  0  0  0  0  0  0  0  0  0
  1  2  2  0  0  0  0
  2  3  1  0  0  0  0
  2 14  1  0  0  0  0
  3  4  1  0  0  0  0
  3 21  1  0  0  0  0
  4  5  1  0  0  0  0
  4 22  1  0  0  0  0
  4 23  1  0  0  0  0
  5 13  1  0  0  0  0
  5  6  1  0  0  0  0
  5 24  1  0  0  0  0
  6  7  1  0  0  0  0
  6 25  1  0  0  0  0
  6 26  1  0  0  0  0
  7 11  1  0  0  0  0
  7  8  1  0  0  0  0
  8  9  1  0  0  0  0
  8 27  1  0  0  0  0
  8 28  1  0  0  0  0
  9 10  1  0  0  0  0
  9 29  1  0  0  0  0
  9 30  1  0  0  0  0
 10 11  1  0  0  0  0
 10 31  1  0  0  0  0
 10 32  1  0  0  0  0
 11 12  1  0  0  0  0
 11 33  1  0  0  0  0
 12 13  1  0  0  0  0
 12 34  1  0  0  0  0
 12 35  1  0  0  0  0
 14 15  1  0  0  0  0
 14 36  1  0  0  0  0
 15 20  1  0  0  0  0
 15 16  2  0  0  0  0
 16 17  1  0  0  0  0
 16 37  1  0  0  0  0
 17 18  2  0  0  0  0
 17 38  1  0  0  0  0
 18 19  1  0  0  0  0
 18 39  1  0  0  0  0
 19 20  2  0  0  0  0
 20 40  1  0  0  0  0
M  END
> <s_m_source_file>
AV-unprocessed.smi

> <i_m_source_file_index>
618

> <i_lp_mmshare_version>
43012

> <i_f3d_flags>
0

> <s_epik_input>
W2NIXTFuW2NIXVtjSF1bY0hdYzFbTkhdQyg9TylbTkhdW0NIMl1bQ0BIXShbQ0gyXTIpT1tDSDJdW0NAQEhdKE4yMylbQ0gyXVtDSDJdW0NIMl0z

> <s_epik_cmdline>
J2VwaWtfcHl0aG9uJywgJy1waCcsICc3LjAnLCAnLXRuJywgJzgnLCAnLW1hJywgJzIwMCcsICctbWV0YWxfYmluZGluZycsICctaW1hZScsICc8aW5maWxlLm1hZT4nLCAnLW9tYWUnLCAnPG91dGZpbGUubWFlPic=

> <r_epik_Ionization_Penalty>
1.07277

> <r_epik_Ionization_Penalty_Charging>
0

> <r_epik_Ionization_Penalty_Neutral>
1.07277

> <r_epik_State_Penalty>
1.13623

> <r_epik_Charging_Adjusted_Penalty>
1.13623

> <i_epik_Tot_Q>
0

> <i_epik_Tot_abs_Q>
0

> <r_epik_Metal_State_Penalty>
1.13277

> <b_epik_Metal_Only>
0

> <s_lp_Force_Field>
OPLS_2005

> <r_lp_Energy>
52.4756

> <b_lp_Chiralities_Consistent>
1

> <s_lp_Variant>
AV-unprocessed.smi:618-10

> <Gold.Version>
5.8.1

> <Gold.Id.Protein>
6NUR|6NUR_protein|mol2

> <Gold.PLP.Fitness>
40.5685

> <Gold.PLP.PLP>
-29.1891

> <Gold.PLP.part.hbond>
-2.5312

> <Gold.PLP.part.metal>
0.0000

> <Gold.PLP.part.buried>
-4.1686

> <Gold.PLP.part.nonpolar>
-24.0301

> <Gold.PLP.part.repulsive>
0.7663

> <Gold.PLP.ligand.clash>
0.0000

> <Gold.PLP.ligand.torsion>
0.2029

> <Gold.PLP.Chemscore.Hbond>
2.1622

> <Gold.PLP.Chemscore.CHOScore>
1.7634

> <Gold.PLP.Chemscore.Metal>
0.0000

> <Gold.Chemscore.Hbonds>
donor molecule, donor type, donor heavy atom, donor atom, acceptor molecule, acceptor atom, score
      L1  H     3    21       P1  7948  0.16
      L1  H    14    36       P1  7948  1.00
      P1  H  7989  7998       L1    13  0.95
      L1  C    18    39       P1 10186  0.62
      L1  C    20    40       P1  7948  0.94

> <Gold.PLP.Chemscore.Internal.Correction>
0.0083

> <Gold.Rescore>
     Score         DG    S(hbond)    S(metal)    S(lipo)     H(rot)  DE(clash)    DE(int)     intcor
     14.17     -15.60       1.42        0.00      73.27       1.25       0.00       1.43       ----

> <Gold.Chemscore.Fitness>
14.1655

> <Gold.Chemscore.DG>
-15.6000

> <Gold.Chemscore.ZeroCoef>
-5.4800

> <Gold.Chemscore.Hbond>
1.4185

> <Gold.Chemscore.Metal>
0.0000

> <Gold.Chemscore.Lipo>
73.2660

> <Gold.Chemscore.Internal_Hbond>
0.0000

> <Gold.Chemscore.DEClash>
0.0000

> <Gold.Chemscore.DEInternal>
1.4345

> <Gold.Chemscore.Rot>
1.2461

> <Gold.Chemscore.Internal.Correction>
   9.000000E+99

> <Gold.Chemscore.Hbonds>
donor molecule, donor type, donor heavy atom, donor atom, acceptor molecule, acceptor atom, score
      L1  H     3    21       P1  7948  0.16
      L1  H    14    36       P1  7948  0.97
      P1  H  7989  7998       L1    13  0.05

> <Gold.Chemscore.Hbond.Weighted>
-4.7379

> <Gold.Chemscore.Metal.Weighted>
-0.0000

> <Gold.Chemscore.Lipo.Weighted>
-8.5721

> <Gold.Chemscore.Internal_Hbond.Weighted>
0.0000

> <Gold.Chemscore.DEClash.Weighted>
0.0000

> <Gold.Chemscore.DEInternal.Weighted>
1.4345

> <Gold.Chemscore.Rot.Weighted>
3.1901

> <Gold.Chemscore.Internal.Correction.Weighted>
   9.000000E+99

> <Gold.Protein.RotatedTorsions>
[ 6907 6896 6895 6894 ] final  -25.47 input  -60.11 | X-H torsion
[ 7974 7965 7964 7962 ] final   46.28 input  175.53 | X-H torsion
[ 8008 7997 7996 7995 ] final  -89.90 input   59.86 | X-H torsion
[ 10167 10162 10161 10158 ] final -102.49 input  -65.29 | X-H torsion
[ 10718 10713 10712 10709 ] final -135.50 input   66.30 | X-H torsion
[ 10763 10752 10751 10750 ] final  108.13 input  -60.55 | X-H torsion
[ 11005 11000 10999 10996 ] final -168.94 input  -57.11 | X-H torsion

> <Gold.Protein.ActiveResidues>
 VAL166  LYS551  ARG553  GLY616  TRP617  ASP618  TYR619  PRO620  LYS621  CYS622 
 ASP623  PHE694  ASN695  SER759  ASP760  ASP761  ALA762  ILE779  LEU786  VAL792 
 PHE793  MET794  SER795  GLU796  ALA797  LYS798  CYS799  TRP800  GLU811  SER814 

> <Gold.Protein.RotatedAtoms>
  151.1747  135.0334  159.8766 H   0  0  0  0  0  0  0  0  0  0  0  0  # atno 6907 bound_to 6896
  152.5447  134.1131  159.8377 H   0  0  0  0  0  0  0  0  0  0  0  0  # atno 6908 bound_to 6896
  151.1241  133.5037  159.2633 H   0  0  0  0  0  0  0  0  0  0  0  0  # atno 6909 bound_to 6896
  146.0404  139.4873  142.9782 H   0  0  0  0  0  0  0  0  0  0  0  0  # atno 7974 bound_to 7965
  154.6921  140.0536  157.0374 H   0  0  0  0  0  0  0  0  0  0  0  0  # atno 8008 bound_to 7997
  155.0802  140.3209  155.4585 H   0  0  0  0  0  0  0  0  0  0  0  0  # atno 8009 bound_to 7997
  156.2732  140.2066  156.5930 H   0  0  0  0  0  0  0  0  0  0  0  0  # atno 8010 bound_to 7997
  140.2301  143.3613  152.0894 H   0  0  0  0  0  0  0  0  0  0  0  0  # atno 10167 bound_to 10162
  156.2669  130.7242  151.1196 H   0  0  0  0  0  0  0  0  0  0  0  0  # atno 10718 bound_to 10713
  153.4163  135.3822  155.2083 H   0  0  0  0  0  0  0  0  0  0  0  0  # atno 10763 bound_to 10752
  154.8741  135.3806  154.4438 H   0  0  0  0  0  0  0  0  0  0  0  0  # atno 10764 bound_to 10752
  153.4953  135.7088  153.5924 H   0  0  0  0  0  0  0  0  0  0  0  0  # atno 10765 bound_to 10752
  140.5363  134.5566  157.5088 H   0  0  0  0  0  0  0  0  0  0  0  0  # atno 11005 bound_to 11000
  145.6894  141.0168  143.1563 LP  0  0  0  0  0  0  0  0  0  0  0  0  # atno 17320 bound_to 7965
  144.7072  139.8514  143.7426 LP  0  0  0  0  0  0  0  0  0  0  0  0  # atno 17321 bound_to 7965
  139.5113  144.6898  151.5790 LP  0  0  0  0  0  0  0  0  0  0  0  0  # atno 17342 bound_to 10162
  140.6191  143.9292  150.6512 LP  0  0  0  0  0  0  0  0  0  0  0  0  # atno 17343 bound_to 10162
  157.7270  131.0642  150.5884 LP  0  0  0  0  0  0  0  0  0  0  0  0  # atno 17370 bound_to 10713
  156.5976  130.4346  149.5910 LP  0  0  0  0  0  0  0  0  0  0  0  0  # atno 17371 bound_to 10713
  139.9527  134.7588  156.0411 LP  0  0  0  0  0  0  0  0  0  0  0  0  # atno 17394 bound_to 11000
  141.1253  133.6601  156.3320 LP  0  0  0  0  0  0  0  0  0  0  0  0  # atno 17395 bound_to 11000

$$$$
