AV-unprocessed.smi:2238|AV-procd|sdf|9054|dock9
  -GOLD-   2272012263D 1   1.00000     0.00000
 Structure written by MMmdl.
 38 39  0  0  0  0  0  0  0  0  1 V2000
  151.6562  144.8034  159.0399 C   0  0  0  0  0  0  0  0  0  0  0  0
  152.1566  143.3859  159.2278 C   0  0  0  0  0  0  0  0  0  0  0  0
  152.7533  142.9982  160.4436 C   0  0  0  0  0  0  0  0  0  0  0  0
  153.2153  141.6801  160.6094 C   0  0  0  0  0  0  0  0  0  0  0  0
  153.0841  140.7467  159.5629 C   0  0  0  0  0  0  0  0  0  0  0  0
  153.6622  139.1350  159.7922 Cl  0  0  0  0  0  0  0  0  0  0  0  0
  152.4903  141.1201  158.3370 C   0  0  0  0  0  0  0  0  0  0  0  0
  152.3986  140.1531  157.3583 O   0  0  0  0  0  0  0  0  0  0  0  0
  151.8855  140.5203  156.0836 C   0  0  0  0  0  0  0  0  0  0  0  0
  151.2418  139.2966  155.4088 C   0  0  2  0  0  0  0  0  0  0  0  0
  150.4975  139.7650  154.3021 O   0  0  0  0  0  0  0  0  0  0  0  0
  150.3410  138.4805  156.3641 C   0  0  0  0  0  0  0  0  0  0  0  0
  150.0618  137.1316  155.8447 N   0  0  0  0  0  0  0  0  0  0  0  0
  148.7444  136.8831  155.4106 C   0  0  0  0  0  0  0  0  0  0  0  0
  148.3879  135.7322  154.9350 N   0  0  0  0  0  0  0  0  0  0  0  0
  149.3272  134.7001  154.8482 C   0  0  0  0  0  0  0  0  0  0  0  0
  148.8518  133.3777  154.2825 C   0  0  0  0  0  0  0  0  0  0  0  0
  150.6023  134.8838  155.2623 C   0  0  0  0  0  0  0  0  0  0  0  0
  151.0319  136.1724  155.8062 C   0  0  0  0  0  0  0  0  0  0  0  0
  152.1800  136.3749  156.2014 O   0  0  0  0  0  0  0  0  0  0  0  0
  152.0268  142.4514  158.1801 C   0  0  0  0  0  0  0  0  0  0  0  0
  151.6109  145.3376  159.9895 H   0  0  0  0  0  0  0  0  0  0  0  0
  150.6557  144.7997  158.6064 H   0  0  0  0  0  0  0  0  0  0  0  0
  152.3193  145.3516  158.3704 H   0  0  0  0  0  0  0  0  0  0  0  0
  152.8593  143.7075  161.2514 H   0  0  0  0  0  0  0  0  0  0  0  0
  153.6723  141.3851  161.5427 H   0  0  0  0  0  0  0  0  0  0  0  0
  151.1636  141.3348  156.1673 H   0  0  0  0  0  0  0  0  0  0  0  0
  152.7087  140.8702  155.4585 H   0  0  0  0  0  0  0  0  0  0  0  0
  152.0445  138.6685  155.0199 H   0  0  0  0  0  0  0  0  0  0  0  0
  149.5799  139.6106  154.4688 H   0  0  0  0  0  0  0  0  0  0  0  0
  150.8331  138.3934  157.3350 H   0  0  0  0  0  0  0  0  0  0  0  0
  149.4186  139.0222  156.5829 H   0  0  0  0  0  0  0  0  0  0  0  0
  148.0527  137.7218  155.5071 H   0  0  0  0  0  0  0  0  0  0  0  0
  149.6854  132.7991  153.8833 H   0  0  0  0  0  0  0  0  0  0  0  0
  148.1361  133.5383  153.4756 H   0  0  0  0  0  0  0  0  0  0  0  0
  148.3659  132.7882  155.0602 H   0  0  0  0  0  0  0  0  0  0  0  0
  151.3160  134.0760  155.1935 H   0  0  0  0  0  0  0  0  0  0  0  0
  151.5664  142.7802  157.2610 H   0  0  0  0  0  0  0  0  0  0  0  0
  1  2  1  0  0  0  0
  1 22  1  0  0  0  0
  1 23  1  0  0  0  0
  1 24  1  0  0  0  0
  2 21  1  0  0  0  0
  2  3  2  0  0  0  0
  3  4  1  0  0  0  0
  3 25  1  0  0  0  0
  4  5  2  0  0  0  0
  4 26  1  0  0  0  0
  5  6  1  0  0  0  0
  5  7  1  0  0  0  0
  7  8  1  0  0  0  0
  7 21  2  0  0  0  0
  8  9  1  0  0  0  0
  9 10  1  0  0  0  0
  9 27  1  0  0  0  0
  9 28  1  0  0  0  0
 10 11  1  0  0  0  0
 10 12  1  0  0  0  0
 10 29  1  0  0  0  0
 11 30  1  0  0  0  0
 12 13  1  0  0  0  0
 12 31  1  0  0  0  0
 12 32  1  0  0  0  0
 13 19  1  0  0  0  0
 13 14  1  0  0  0  0
 14 15  2  0  0  0  0
 14 33  1  0  0  0  0
 15 16  1  0  0  0  0
 16 17  1  0  0  0  0
 16 18  2  0  0  0  0
 17 34  1  0  0  0  0
 17 35  1  0  0  0  0
 17 36  1  0  0  0  0
 18 19  1  0  0  0  0
 18 37  1  0  0  0  0
 19 20  2  0  0  0  0
 21 38  1  0  0  0  0
M  END
> <s_m_source_file>
AV-unprocessed.smi

> <i_m_source_file_index>
2238

> <i_lp_mmshare_version>
43012

> <i_f3d_flags>
0

> <s_epik_input>
W0NIM11jMVtjSF1bY0hdYyhDbCljKFtjSF0xKU9bQ0gyXVtDQEhdKFtPSF0pW0NIMl1uMltjSF1uYyhbQ0gzXSlbY0hdYzI9Tw==

> <s_epik_cmdline>
J2VwaWtfcHl0aG9uJywgJy1waCcsICc3LjAnLCAnLXRuJywgJzgnLCAnLW1hJywgJzIwMCcsICctbWV0YWxfYmluZGluZycsICctaW1hZScsICc8aW5maWxlLm1hZT4nLCAnLW9tYWUnLCAnPG91dGZpbGUubWFlPic=

> <r_lp_tautomer_probability>
1

> <r_epik_Ionization_Penalty>
1.78029e-05

> <r_epik_Ionization_Penalty_Charging>
3.78421e-08

> <r_epik_Ionization_Penalty_Neutral>
1.7765e-05

> <r_epik_State_Penalty>
-0

> <r_epik_Charging_Adjusted_Penalty>
3.78421e-08

> <i_epik_Tot_Q>
0

> <i_epik_Tot_abs_Q>
0

> <r_epik_Metal_State_Penalty>
-0

> <b_epik_Metal_Only>
0

> <s_lp_Force_Field>
OPLS_2005

> <r_lp_Energy>
23.6885

> <b_lp_Chiralities_Consistent>
1

> <s_lp_Variant>
AV-unprocessed.smi:2238-1

> <Gold.Version>
5.8.1

> <Gold.Id.Protein>
6NUR|6NUR_protein|mol2

> <Gold.PLP.Fitness>
46.8501

> <Gold.PLP.PLP>
-39.8516

> <Gold.PLP.part.hbond>
-3.2016

> <Gold.PLP.part.metal>
0.0000

> <Gold.PLP.part.buried>
-5.5813

> <Gold.PLP.part.nonpolar>
-30.6393

> <Gold.PLP.part.repulsive>
0.1344

> <Gold.PLP.ligand.clash>
0.0000

> <Gold.PLP.ligand.torsion>
0.5106

> <Gold.PLP.Chemscore.Hbond>
2.6645

> <Gold.PLP.Chemscore.CHOScore>
0.0000

> <Gold.PLP.Chemscore.Metal>
0.0000

> <Gold.Chemscore.Hbonds>
donor molecule, donor type, donor heavy atom, donor atom, acceptor molecule, acceptor atom, score
      P1  H  7989  7998       L1    11  1.00
      P1  H  7997  8008       L1     8  0.60
      P1  H 10752 10763       L1    20  1.00

> <Gold.PLP.Chemscore.Internal.Correction>
0.0265

> <Gold.Rescore>
     Score         DG    S(hbond)    S(metal)    S(lipo)     H(rot)  DE(clash)    DE(int)     intcor
     17.75     -18.39       1.91        0.00     110.03       2.47       0.09       0.55       ----

> <Gold.Chemscore.Fitness>
17.7521

> <Gold.Chemscore.DG>
-18.3935

> <Gold.Chemscore.ZeroCoef>
-5.4800

> <Gold.Chemscore.Hbond>
1.9064

> <Gold.Chemscore.Metal>
0.0000

> <Gold.Chemscore.Lipo>
110.0334

> <Gold.Chemscore.Internal_Hbond>
0.0000

> <Gold.Chemscore.DEClash>
0.0885

> <Gold.Chemscore.DEInternal>
0.5529

> <Gold.Chemscore.Rot>
2.4718

> <Gold.Chemscore.Internal.Correction>
   9.000000E+99

> <Gold.Chemscore.Hbonds>
donor molecule, donor type, donor heavy atom, donor atom, acceptor molecule, acceptor atom, score
      P1  H  7989  7998       L1    11  0.45
      P1  H  7997  8008       L1     8  0.02
      P1  H 10752 10763       L1    20  0.55

> <Gold.Chemscore.Hbond.Weighted>
-6.3674

> <Gold.Chemscore.Metal.Weighted>
-0.0000

> <Gold.Chemscore.Lipo.Weighted>
-12.8739

> <Gold.Chemscore.Internal_Hbond.Weighted>
0.0000

> <Gold.Chemscore.DEClash.Weighted>
0.0885

> <Gold.Chemscore.DEInternal.Weighted>
0.5529

> <Gold.Chemscore.Rot.Weighted>
6.3279

> <Gold.Chemscore.Internal.Correction.Weighted>
   9.000000E+99

> <Gold.Protein.RotatedTorsions>
[ 6907 6896 6895 6894 ] final   -1.56 input  -60.11 | X-H torsion
[ 7974 7965 7964 7962 ] final  -56.46 input  175.53 | X-H torsion
[ 8008 7997 7996 7995 ] final  -73.71 input   59.86 | X-H torsion
[ 10167 10162 10161 10158 ] final   66.79 input  -65.29 | X-H torsion
[ 10718 10713 10712 10709 ] final -153.13 input   66.30 | X-H torsion
[ 10763 10752 10751 10750 ] final   96.77 input  -60.55 | X-H torsion
[ 11005 11000 10999 10996 ] final   10.14 input  -57.11 | X-H torsion

> <Gold.Protein.ActiveResidues>
 VAL166  LYS551  ARG553  GLY616  TRP617  ASP618  TYR619  PRO620  LYS621  CYS622 
 ASP623  PHE694  ASN695  SER759  ASP760  ASP761  ALA762  ILE779  LEU786  VAL792 
 PHE793  MET794  SER795  GLU796  ALA797  LYS798  CYS799  TRP800  GLU811  SER814 

> <Gold.Protein.RotatedAtoms>
  151.5441  135.1068  159.9933 H   0  0  0  0  0  0  0  0  0  0  0  0  # atno 6907 bound_to 6896
  152.4522  133.7647  159.6776 H   0  0  0  0  0  0  0  0  0  0  0  0  # atno 6908 bound_to 6896
  150.8453  133.7804  159.3070 H   0  0  0  0  0  0  0  0  0  0  0  0  # atno 6909 bound_to 6896
  145.8624  140.8276  142.9930 H   0  0  0  0  0  0  0  0  0  0  0  0  # atno 7974 bound_to 7965
  154.5269  140.0774  156.8275 H   0  0  0  0  0  0  0  0  0  0  0  0  # atno 8008 bound_to 7997
  155.3456  140.3410  155.4221 H   0  0  0  0  0  0  0  0  0  0  0  0  # atno 8009 bound_to 7997
  156.1741  140.1630  156.8381 H   0  0  0  0  0  0  0  0  0  0  0  0  # atno 8010 bound_to 7997
  140.0966  144.4941  150.7064 H   0  0  0  0  0  0  0  0  0  0  0  0  # atno 10167 bound_to 10162
  156.4817  130.8306  151.2532 H   0  0  0  0  0  0  0  0  0  0  0  0  # atno 10718 bound_to 10713
  153.2689  135.4207  155.0968 H   0  0  0  0  0  0  0  0  0  0  0  0  # atno 10763 bound_to 10752
  154.8448  135.3467  154.6273 H   0  0  0  0  0  0  0  0  0  0  0  0  # atno 10764 bound_to 10752
  153.6692  135.7044  153.5210 H   0  0  0  0  0  0  0  0  0  0  0  0  # atno 10765 bound_to 10752
  140.5179  134.0588  155.7836 H   0  0  0  0  0  0  0  0  0  0  0  0  # atno 11005 bound_to 11000
  144.6726  140.1115  143.7455 LP  0  0  0  0  0  0  0  0  0  0  0  0  # atno 17320 bound_to 7965
  145.9233  139.2559  143.1369 LP  0  0  0  0  0  0  0  0  0  0  0  0  # atno 17321 bound_to 7965
  140.7000  143.2428  151.4891 LP  0  0  0  0  0  0  0  0  0  0  0  0  # atno 17342 bound_to 10162
  139.5694  144.1963  152.1814 LP  0  0  0  0  0  0  0  0  0  0  0  0  # atno 17343 bound_to 10162
  157.7482  131.0043  150.3070 LP  0  0  0  0  0  0  0  0  0  0  0  0  # atno 17370 bound_to 10713
  156.3515  130.3832  149.7325 LP  0  0  0  0  0  0  0  0  0  0  0  0  # atno 17371 bound_to 10713
  141.1350  133.9236  157.2453 LP  0  0  0  0  0  0  0  0  0  0  0  0  # atno 17394 bound_to 11000
  139.9622  135.0151  156.9292 LP  0  0  0  0  0  0  0  0  0  0  0  0  # atno 17395 bound_to 11000

$$$$
