AV-unprocessed.smi:79|AV-procd|sdf|783|dock7
  -GOLD-   2262017143D 1   1.00000     0.00000
 Structure written by MMmdl.
 56 59  0  0  0  0  0  0  0  0  2 V2000
  152.0322  144.5110  159.6497 C   0  0  0  0  0  0  0  0  0  0  0  0
  151.4972  143.9429  158.3267 C   0  0  2  0  0  0  0  0  0  0  0  0
  151.0594  145.0214  157.5278 O   0  0  0  0  0  0  0  0  0  0  0  0
  150.3161  142.9702  158.5197 C   0  0  0  0  0  0  0  0  0  0  0  0
  149.8024  142.4265  157.2366 N   0  3  1  0  0  0  0  0  0  0  0  0
  150.8853  142.1998  156.2454 C   0  0  0  0  0  0  0  0  0  0  0  0
  150.3133  141.7454  154.8920 C   0  0  0  0  0  0  0  0  0  0  0  0
  149.4506  140.5787  155.0638 N   0  0  0  0  0  0  0  0  0  0  0  0
  150.0711  139.3768  154.9329 C   0  0  0  0  0  0  0  0  0  0  0  0
  151.4027  139.3225  154.6632 N   0  0  0  0  0  0  0  0  0  0  0  0
  152.0168  138.1440  154.5232 C   0  0  0  0  0  0  0  0  0  0  0  0
  151.4982  136.9181  154.6113 N   0  0  0  0  0  0  0  0  0  0  0  0
  150.1633  136.9642  154.8856 C   0  0  0  0  0  0  0  0  0  0  0  0
  149.3795  138.1394  155.0600 C   0  0  0  0  0  0  0  0  0  0  0  0
  148.0629  137.7920  155.3375 N   0  0  0  0  0  0  0  0  0  0  0  0
  148.0668  136.4869  155.3216 C   0  0  0  0  0  0  0  0  0  0  0  0
  149.2851  135.9064  155.0483 N   0  0  0  0  0  0  0  0  0  0  0  0
  149.5755  134.4826  154.9723 C   0  0  0  0  0  0  0  0  0  0  0  0
  150.0936  133.8813  156.2922 C   0  0  0  0  0  0  0  0  0  0  0  0
  149.0953  134.2283  157.4153 C   0  0  0  0  0  0  0  0  0  0  0  0
  149.3713  133.5378  158.6176 O   0  0  0  0  0  0  0  0  0  0  0  0
  150.5347  132.4132  156.2050 C   0  0  0  0  0  0  0  0  0  0  0  0
  151.8349  132.7078  156.7616 O   0  0  0  0  0  0  0  0  0  0  0  0
  151.5765  134.1211  156.6109 C   0  0  0  0  0  0  0  0  0  0  0  0
  148.3782  140.7265  156.0534 C   0  0  2  0  0  0  0  0  0  0  0  0
  147.2575  141.6429  155.5332 C   0  0  0  0  0  0  0  0  0  0  0  0
  148.9421  141.2232  157.4047 C   0  0  0  0  0  0  0  0  0  0  0  0
  152.4227  143.7199  160.2904 H   0  0  0  0  0  0  0  0  0  0  0  0
  151.2520  145.0336  160.2044 H   0  0  0  0  0  0  0  0  0  0  0  0
  152.8448  145.2166  159.4730 H   0  0  0  0  0  0  0  0  0  0  0  0
  152.3095  143.4598  157.7848 H   0  0  0  0  0  0  0  0  0  0  0  0
  150.4073  144.7071  156.9197 H   0  0  0  0  0  0  0  0  0  0  0  0
  150.6492  142.1485  159.1559 H   0  0  0  0  0  0  0  0  0  0  0  0
  149.4995  143.4572  159.0556 H   0  0  0  0  0  0  0  0  0  0  0  0
  151.4578  143.1169  156.1026 H   0  0  0  0  0  0  0  0  0  0  0  0
  151.5769  141.4489  156.6313 H   0  0  0  0  0  0  0  0  0  0  0  0
  149.7319  142.5502  154.4418 H   0  0  0  0  0  0  0  0  0  0  0  0
  151.1326  141.5450  154.2021 H   0  0  0  0  0  0  0  0  0  0  0  0
  153.0746  138.1892  154.3098 H   0  0  0  0  0  0  0  0  0  0  0  0
  147.1739  135.9098  155.5127 H   0  0  0  0  0  0  0  0  0  0  0  0
  148.6753  133.9631  154.6411 H   0  0  0  0  0  0  0  0  0  0  0  0
  150.3059  134.3395  154.1749 H   0  0  0  0  0  0  0  0  0  0  0  0
  149.1162  135.2932  157.6461 H   0  0  0  0  0  0  0  0  0  0  0  0
  148.0748  133.9888  157.1148 H   0  0  0  0  0  0  0  0  0  0  0  0
  149.2963  132.6099  158.4557 H   0  0  0  0  0  0  0  0  0  0  0  0
  149.9563  131.7295  156.8273 H   0  0  0  0  0  0  0  0  0  0  0  0
  150.6104  132.0322  155.1855 H   0  0  0  0  0  0  0  0  0  0  0  0
  152.1487  134.5440  155.7847 H   0  0  0  0  0  0  0  0  0  0  0  0
  151.7518  134.6806  157.5305 H   0  0  0  0  0  0  0  0  0  0  0  0
  147.9128  139.7537  156.2184 H   0  0  0  0  0  0  0  0  0  0  0  0
  146.4286  141.6818  156.2404 H   0  0  0  0  0  0  0  0  0  0  0  0
  146.8611  141.2741  154.5867 H   0  0  0  0  0  0  0  0  0  0  0  0
  147.6012  142.6650  155.3744 H   0  0  0  0  0  0  0  0  0  0  0  0
  149.5332  140.4344  157.8717 H   0  0  0  0  0  0  0  0  0  0  0  0
  148.1171  141.4288  158.0854 H   0  0  0  0  0  0  0  0  0  0  0  0
  149.2156  143.1467  156.8403 H   0  0  0  0  0  0  0  0  0  0  0  0
  1  2  1  0  0  0  0
  1 28  1  0  0  0  0
  1 29  1  0  0  0  0
  1 30  1  0  0  0  0
  2  3  1  0  0  0  0
  2  4  1  0  0  0  0
  2 31  1  0  0  0  0
  3 32  1  0  0  0  0
  4  5  1  0  0  0  0
  4 33  1  0  0  0  0
  4 34  1  0  0  0  0
  5 27  1  0  0  0  0
  5  6  1  0  0  0  0
  5 56  1  0  0  0  0
  6  7  1  0  0  0  0
  6 35  1  0  0  0  0
  6 36  1  0  0  0  0
  7  8  1  0  0  0  0
  7 37  1  0  0  0  0
  7 38  1  0  0  0  0
  8  9  1  0  0  0  0
  8 25  1  0  0  0  0
  9 14  1  0  0  0  0
  9 10  2  0  0  0  0
 10 11  1  0  0  0  0
 11 12  2  0  0  0  0
 11 39  1  0  0  0  0
 12 13  1  0  0  0  0
 13 17  1  0  0  0  0
 13 14  2  0  0  0  0
 14 15  1  0  0  0  0
 15 16  2  0  0  0  0
 16 17  1  0  0  0  0
 16 40  1  0  0  0  0
 17 18  1  0  0  0  0
 18 19  1  0  0  0  0
 18 41  1  0  0  0  0
 18 42  1  0  0  0  0
 19 24  1  0  0  0  0
 19 20  1  0  0  0  0
 19 22  1  0  0  0  0
 20 21  1  0  0  0  0
 20 43  1  0  0  0  0
 20 44  1  0  0  0  0
 21 45  1  0  0  0  0
 22 23  1  0  0  0  0
 22 46  1  0  0  0  0
 22 47  1  0  0  0  0
 23 24  1  0  0  0  0
 24 48  1  0  0  0  0
 24 49  1  0  0  0  0
 25 26  1  0  0  0  0
 25 27  1  0  0  0  0
 25 50  1  0  0  0  0
 26 51  1  0  0  0  0
 26 52  1  0  0  0  0
 26 53  1  0  0  0  0
 27 54  1  0  0  0  0
 27 55  1  0  0  0  0
M  CHG  1   5   1
M  END
> <s_m_source_file>
AV-unprocessed.smi

> <i_m_source_file_index>
79

> <i_lp_mmshare_version>
43012

> <i_f3d_flags>
0

> <s_epik_input>
W0NIM11bQ0BIXShbT0hdKVtDSDJdTjFbQ0gyXVtDSDJdTihbQ0BASF0oW0NIM10pW0NIMl0xKWMobltjSF1uMiljKGMyMyluW2NIXW4zW0NIMl1DNChbQ0gyXVtPSF0pW0NIMl1PW0NIMl00

> <s_epik_cmdline>
J2VwaWtfcHl0aG9uJywgJy1waCcsICc3LjAnLCAnLXRuJywgJzgnLCAnLW1hJywgJzIwMCcsICctbWV0YWxfYmluZGluZycsICctaW1hZScsICc8aW5maWxlLm1hZT4nLCAnLW9tYWUnLCAnPG91dGZpbGUubWFlPic=

> <r_lp_tautomer_probability>
1

> <r_epik_Ionization_Penalty>
0.00515943

> <r_epik_Ionization_Penalty_Charging>
0.00509693

> <r_epik_Ionization_Penalty_Neutral>
6.25007e-05

> <r_epik_State_Penalty>
-0

> <r_epik_Charging_Adjusted_Penalty>
0.00509693

> <i_epik_Tot_Q>
1

> <i_epik_Tot_abs_Q>
1

> <r_epik_Metal_State_Penalty>
-0

> <b_epik_Metal_Only>
0

> <s_lp_Force_Field>
OPLS_2005

> <r_lp_Energy>
51.2807

> <b_lp_Chiralities_Consistent>
1

> <s_lp_Variant>
AV-unprocessed.smi:79-7

> <Gold.Version>
5.8.1

> <Gold.Id.Protein>
6NUR|6NUR_protein|mol2

> <Gold.PLP.Fitness>
49.0232

> <Gold.PLP.PLP>
-32.3930

> <Gold.PLP.part.hbond>
-5.3210

> <Gold.PLP.part.metal>
0.0000

> <Gold.PLP.part.buried>
-0.8004

> <Gold.PLP.part.nonpolar>
-26.3750

> <Gold.PLP.part.repulsive>
0.4223

> <Gold.PLP.ligand.clash>
0.0000

> <Gold.PLP.ligand.torsion>
1.1225

> <Gold.PLP.Chemscore.Hbond>
5.9825

> <Gold.PLP.Chemscore.CHOScore>
0.0000

> <Gold.PLP.Chemscore.Metal>
0.0000

> <Gold.Chemscore.Hbonds>
donor molecule, donor type, donor heavy atom, donor atom, acceptor molecule, acceptor atom, score
      L1  H     3    32       P1  8028  1.00
      L1  H     5    56       P1  8028  2.00
      P1  H  6896  6908       L1    21  1.00
      P1  H  7989  7998       L1    10  1.00
      P1  H 10752 10763       L1    12  1.00

> <Gold.PLP.Chemscore.Internal.Correction>
0.9278

> <Gold.Rescore>
     Score         DG    S(hbond)    S(metal)    S(lipo)     H(rot)  DE(clash)    DE(int)     intcor
     12.70     -18.32       3.72        0.00      85.09       3.72       3.83       1.79       ----

> <Gold.Chemscore.Fitness>
12.7040

> <Gold.Chemscore.DG>
-18.3237

> <Gold.Chemscore.ZeroCoef>
-5.4800

> <Gold.Chemscore.Hbond>
3.7178

> <Gold.Chemscore.Metal>
0.0000

> <Gold.Chemscore.Lipo>
85.0946

> <Gold.Chemscore.Internal_Hbond>
0.0000

> <Gold.Chemscore.DEClash>
3.8300

> <Gold.Chemscore.DEInternal>
1.7896

> <Gold.Chemscore.Rot>
3.7226

> <Gold.Chemscore.Internal.Correction>
   9.000000E+99

> <Gold.Chemscore.Hbonds>
donor molecule, donor type, donor heavy atom, donor atom, acceptor molecule, acceptor atom, score
      L1  H     3    32       P1  8028  0.69
      L1  H     5    56       P1  8028  0.91
      P1  H  6896  6908       L1    21  0.41
      P1  H  7989  7998       L1    10  0.34
      P1  H 10752 10763       L1    12  0.68

> <Gold.Chemscore.Hbond.Weighted>
-12.4174

> <Gold.Chemscore.Metal.Weighted>
-0.0000

> <Gold.Chemscore.Lipo.Weighted>
-9.9561

> <Gold.Chemscore.Internal_Hbond.Weighted>
0.0000

> <Gold.Chemscore.DEClash.Weighted>
3.8300

> <Gold.Chemscore.DEInternal.Weighted>
1.7896

> <Gold.Chemscore.Rot.Weighted>
9.5298

> <Gold.Chemscore.Internal.Correction.Weighted>
   9.000000E+99

> <Gold.Protein.RotatedTorsions>
[ 6907 6896 6895 6894 ] final  113.14 input  -60.11 | X-H torsion
[ 7974 7965 7964 7962 ] final  -45.46 input  175.53 | X-H torsion
[ 8008 7997 7996 7995 ] final -168.35 input   59.86 | X-H torsion
[ 10167 10162 10161 10158 ] final -127.04 input  -65.29 | X-H torsion
[ 10718 10713 10712 10709 ] final  105.37 input   66.30 | X-H torsion
[ 10763 10752 10751 10750 ] final   60.19 input  -60.55 | X-H torsion
[ 11005 11000 10999 10996 ] final -100.40 input  -57.11 | X-H torsion

> <Gold.Protein.ActiveResidues>
 VAL166  LYS551  ARG553  GLY616  TRP617  ASP618  TYR619  PRO620  LYS621  CYS622 
 ASP623  PHE694  ASN695  SER759  ASP760  ASP761  ALA762  ILE779  LEU786  VAL792 
 PHE793  MET794  SER795  GLU796  ALA797  LYS798  CYS799  TRP800  GLU811  SER814 

> <Gold.Protein.RotatedAtoms>
  152.4877  133.8417  159.7155 H   0  0  0  0  0  0  0  0  0  0  0  0  # atno 6907 bound_to 6896
  150.8979  133.7148  159.2893 H   0  0  0  0  0  0  0  0  0  0  0  0  # atno 6908 bound_to 6896
  151.4599  135.1041  159.9774 H   0  0  0  0  0  0  0  0  0  0  0  0  # atno 6909 bound_to 6896
  145.9819  140.7275  142.9359 H   0  0  0  0  0  0  0  0  0  0  0  0  # atno 7974 bound_to 7965
  155.8902  140.1023  157.1423 H   0  0  0  0  0  0  0  0  0  0  0  0  # atno 8008 bound_to 7997
  154.4014  140.1312  156.4370 H   0  0  0  0  0  0  0  0  0  0  0  0  # atno 8009 bound_to 7997
  155.7542  140.3464  155.5168 H   0  0  0  0  0  0  0  0  0  0  0  0  # atno 8010 bound_to 7997
  139.9651  143.5907  152.2432 H   0  0  0  0  0  0  0  0  0  0  0  0  # atno 10167 bound_to 10162
  157.6708  131.0826  150.5847 H   0  0  0  0  0  0  0  0  0  0  0  0  # atno 10718 bound_to 10713
  152.9914  135.5545  154.5834 H   0  0  0  0  0  0  0  0  0  0  0  0  # atno 10763 bound_to 10752
  154.5210  135.2807  155.1264 H   0  0  0  0  0  0  0  0  0  0  0  0  # atno 10764 bound_to 10752
  154.2617  135.6380  153.5330 H   0  0  0  0  0  0  0  0  0  0  0  0  # atno 10765 bound_to 10752
  141.1272  133.8396  157.1098 H   0  0  0  0  0  0  0  0  0  0  0  0  # atno 11005 bound_to 11000
  144.6864  140.2922  143.7276 LP  0  0  0  0  0  0  0  0  0  0  0  0  # atno 17320 bound_to 7965
  145.7758  139.1873  143.2186 LP  0  0  0  0  0  0  0  0  0  0  0  0  # atno 17321 bound_to 7965
  139.6524  144.7661  151.2122 LP  0  0  0  0  0  0  0  0  0  0  0  0  # atno 17342 bound_to 10162
  140.7540  143.6140  150.8578 LP  0  0  0  0  0  0  0  0  0  0  0  0  # atno 17343 bound_to 10162
  156.6147  130.4389  149.5845 LP  0  0  0  0  0  0  0  0  0  0  0  0  # atno 17370 bound_to 10713
  156.2402  130.6847  151.1548 LP  0  0  0  0  0  0  0  0  0  0  0  0  # atno 17371 bound_to 10713
  140.0282  134.9914  157.0728 LP  0  0  0  0  0  0  0  0  0  0  0  0  # atno 17394 bound_to 11000
  140.4328  134.1763  155.7169 LP  0  0  0  0  0  0  0  0  0  0  0  0  # atno 17395 bound_to 11000

$$$$
