AV-unprocessed.smi:1617|AV-procd|sdf|6485|dock6
  -GOLD-   22720 7143D 1   1.00000     0.00000
 Structure written by MMmdl.
 47 49  0  0  0  0  0  0  0  0  1 V2000
  146.3676  138.1115  155.0587 O   0  0  0  0  0  0  0  0  0  0  0  0
  147.1484  137.7210  154.1911 C   0  0  0  0  0  0  0  0  0  0  0  0
  148.4383  138.0826  154.0848 N   0  0  0  0  0  0  0  0  0  0  0  0
  149.1896  138.9398  154.9330 C   0  0  0  0  0  0  0  0  0  0  0  0
  148.9515  138.8740  156.3192 C   0  0  0  0  0  0  0  0  0  0  0  0
  149.6690  139.7226  157.1829 C   0  0  0  0  0  0  0  0  0  0  0  0
  150.6076  140.6292  156.6368 C   0  0  0  0  0  0  0  0  0  0  0  0
  151.3409  141.4885  157.4837 N   0  0  0  0  0  0  0  0  0  0  0  0
  151.0184  142.9093  157.3767 C   0  0  0  0  0  0  0  0  0  0  0  0
  152.0787  143.7552  158.1030 C   0  0  0  0  0  0  0  0  0  0  0  0
  152.2060  143.3168  159.4515 O   0  0  0  0  0  0  0  0  0  0  0  0
  152.6310  141.9601  159.5286 C   0  0  0  0  0  0  0  0  0  0  0  0
  151.5876  141.0517  158.8568 C   0  0  0  0  0  0  0  0  0  0  0  0
  150.8202  140.7076  155.3003 N   0  0  0  0  0  0  0  0  0  0  0  0
  150.1330  139.8896  154.4751 C   0  0  0  0  0  0  0  0  0  0  0  0
  146.7999  136.8786  153.2070 N   0  0  0  0  0  0  0  0  0  0  0  0
  145.4759  136.2764  153.0339 C   0  0  1  0  0  0  0  0  0  0  0  0
  145.5177  135.4169  151.7496 C   0  0  0  0  0  0  0  0  0  0  0  0
  144.1330  135.1597  151.1301 C   0  0  0  0  0  0  0  0  0  0  0  0
  143.1824  134.3167  151.9933 C   0  0  0  0  0  0  0  0  0  0  0  0
  142.8221  134.9719  153.3377 C   0  0  0  0  0  0  0  0  0  0  0  0
  143.8941  134.8425  154.3158 N   0  0  0  0  0  0  0  0  0  0  0  0
  145.1240  135.3729  154.2389 C   0  0  0  0  0  0  0  0  0  0  0  0
  145.9580  135.1370  155.1130 O   0  0  0  0  0  0  0  0  0  0  0  0
  148.9291  137.7409  153.2715 H   0  0  0  0  0  0  0  0  0  0  0  0
  148.2278  138.1801  156.7211 H   0  0  0  0  0  0  0  0  0  0  0  0
  149.4807  139.6790  158.2450 H   0  0  0  0  0  0  0  0  0  0  0  0
  150.9565  143.2336  156.3390 H   0  0  0  0  0  0  0  0  0  0  0  0
  150.0372  143.0806  157.8214 H   0  0  0  0  0  0  0  0  0  0  0  0
  153.0423  143.6893  157.5950 H   0  0  0  0  0  0  0  0  0  0  0  0
  151.7881  144.8058  158.0971 H   0  0  0  0  0  0  0  0  0  0  0  0
  153.6081  141.8461  159.0563 H   0  0  0  0  0  0  0  0  0  0  0  0
  152.7499  141.6835  160.5762 H   0  0  0  0  0  0  0  0  0  0  0  0
  150.6526  141.0782  159.4182 H   0  0  0  0  0  0  0  0  0  0  0  0
  151.9463  140.0217  158.8665 H   0  0  0  0  0  0  0  0  0  0  0  0
  150.3426  140.0299  153.4264 H   0  0  0  0  0  0  0  0  0  0  0  0
  147.5079  136.6116  152.5390 H   0  0  0  0  0  0  0  0  0  0  0  0
  144.7340  137.0706  152.9309 H   0  0  0  0  0  0  0  0  0  0  0  0
  146.1121  135.9345  150.9947 H   0  0  0  0  0  0  0  0  0  0  0  0
  146.0337  134.4716  151.9276 H   0  0  0  0  0  0  0  0  0  0  0  0
  143.6589  136.1134  150.8951 H   0  0  0  0  0  0  0  0  0  0  0  0
  144.2696  134.6545  150.1735 H   0  0  0  0  0  0  0  0  0  0  0  0
  142.2627  134.1604  151.4287 H   0  0  0  0  0  0  0  0  0  0  0  0
  143.6032  133.3237  152.1586 H   0  0  0  0  0  0  0  0  0  0  0  0
  142.5468  136.0194  153.2069 H   0  0  0  0  0  0  0  0  0  0  0  0
  141.9465  134.4745  153.7549 H   0  0  0  0  0  0  0  0  0  0  0  0
  143.6939  134.2677  155.1215 H   0  0  0  0  0  0  0  0  0  0  0  0
  1  2  2  0  0  0  0
  2  3  1  0  0  0  0
  2 16  1  0  0  0  0
  3  4  1  0  0  0  0
  3 25  1  0  0  0  0
  4 15  1  0  0  0  0
  4  5  2  0  0  0  0
  5  6  1  0  0  0  0
  5 26  1  0  0  0  0
  6  7  2  0  0  0  0
  6 27  1  0  0  0  0
  7  8  1  0  0  0  0
  7 14  1  0  0  0  0
  8 13  1  0  0  0  0
  8  9  1  0  0  0  0
  9 10  1  0  0  0  0
  9 28  1  0  0  0  0
  9 29  1  0  0  0  0
 10 11  1  0  0  0  0
 10 30  1  0  0  0  0
 10 31  1  0  0  0  0
 11 12  1  0  0  0  0
 12 13  1  0  0  0  0
 12 32  1  0  0  0  0
 12 33  1  0  0  0  0
 13 34  1  0  0  0  0
 13 35  1  0  0  0  0
 14 15  2  0  0  0  0
 15 36  1  0  0  0  0
 16 17  1  0  0  0  0
 16 37  1  0  0  0  0
 17 23  1  0  0  0  0
 17 18  1  0  0  0  0
 17 38  1  0  0  0  0
 18 19  1  0  0  0  0
 18 39  1  0  0  0  0
 18 40  1  0  0  0  0
 19 20  1  0  0  0  0
 19 41  1  0  0  0  0
 19 42  1  0  0  0  0
 20 21  1  0  0  0  0
 20 43  1  0  0  0  0
 20 44  1  0  0  0  0
 21 22  1  0  0  0  0
 21 45  1  0  0  0  0
 21 46  1  0  0  0  0
 22 23  1  0  0  0  0
 22 47  1  0  0  0  0
 23 24  2  0  0  0  0
M  END
> <s_m_source_file>
AV-unprocessed.smi

> <i_m_source_file_index>
1617

> <i_lp_mmshare_version>
43012

> <i_f3d_flags>
0

> <s_epik_input>
Tz1DMVtOSF1bQ0gyXVtDSDJdW0NIMl1bQ0gyXVtDQEhdMVtOSF1DKD1PKVtOSF1jMltjSF1bY0hdYyhuW2NIXTIpTjNbQ0gyXVtDSDJdT1tDSDJdW0NIMl0z

> <s_epik_cmdline>
J2VwaWtfcHl0aG9uJywgJy1waCcsICc3LjAnLCAnLXRuJywgJzgnLCAnLW1hJywgJzIwMCcsICctbWV0YWxfYmluZGluZycsICctaW1hZScsICc8aW5maWxlLm1hZT4nLCAnLW9tYWUnLCAnPG91dGZpbGUubWFlPic=

> <r_lp_tautomer_probability>
1

> <r_epik_Ionization_Penalty>
0.00171733

> <r_epik_Ionization_Penalty_Charging>
0

> <r_epik_Ionization_Penalty_Neutral>
0.00171733

> <r_epik_State_Penalty>
0.00113787

> <r_epik_Charging_Adjusted_Penalty>
0.00113787

> <i_epik_Tot_Q>
0

> <i_epik_Tot_abs_Q>
0

> <r_epik_Metal_State_Penalty>
-0

> <b_epik_Metal_Only>
0

> <s_lp_Force_Field>
OPLS_2005

> <r_lp_Energy>
26.8457

> <b_lp_Chiralities_Consistent>
1

> <s_lp_Variant>
AV-unprocessed.smi:1617-2

> <Gold.Version>
5.8.1

> <Gold.Id.Protein>
6NUR|6NUR_protein|mol2

> <Gold.PLP.Fitness>
39.9574

> <Gold.PLP.PLP>
-32.4517

> <Gold.PLP.part.hbond>
-3.0000

> <Gold.PLP.part.metal>
0.0000

> <Gold.PLP.part.buried>
-4.3175

> <Gold.PLP.part.nonpolar>
-25.2839

> <Gold.PLP.part.repulsive>
0.1811

> <Gold.PLP.ligand.clash>
0.0000

> <Gold.PLP.ligand.torsion>
0.7278

> <Gold.PLP.Chemscore.Hbond>
1.8736

> <Gold.PLP.Chemscore.CHOScore>
1.0000

> <Gold.PLP.Chemscore.Metal>
0.0000

> <Gold.Chemscore.Hbonds>
donor molecule, donor type, donor heavy atom, donor atom, acceptor molecule, acceptor atom, score
      L1  H     3    25       P1  7948  0.86
      L1  H    16    37       P1  7948  1.00
      L1  C    15    36       P1  7957  1.00

> <Gold.PLP.Chemscore.Internal.Correction>
0.3405

> <Gold.Rescore>
     Score         DG    S(hbond)    S(metal)    S(lipo)     H(rot)  DE(clash)    DE(int)     intcor
     16.68     -19.08       2.30        0.00      78.40       1.27       0.32       2.08       ----

> <Gold.Chemscore.Fitness>
16.6829

> <Gold.Chemscore.DG>
-19.0797

> <Gold.Chemscore.ZeroCoef>
-5.4800

> <Gold.Chemscore.Hbond>
2.2975

> <Gold.Chemscore.Metal>
0.0000

> <Gold.Chemscore.Lipo>
78.4030

> <Gold.Chemscore.Internal_Hbond>
0.0000

> <Gold.Chemscore.DEClash>
0.3150

> <Gold.Chemscore.DEInternal>
2.0817

> <Gold.Chemscore.Rot>
1.2684

> <Gold.Chemscore.Internal.Correction>
   9.000000E+99

> <Gold.Chemscore.Hbonds>
donor molecule, donor type, donor heavy atom, donor atom, acceptor molecule, acceptor atom, score
      L1  H     3    25       P1  7948  0.80
      L1  H    16    37       P1  7948  0.99

> <Gold.Chemscore.Hbond.Weighted>
-7.6736

> <Gold.Chemscore.Metal.Weighted>
-0.0000

> <Gold.Chemscore.Lipo.Weighted>
-9.1731

> <Gold.Chemscore.Internal_Hbond.Weighted>
0.0000

> <Gold.Chemscore.DEClash.Weighted>
0.3150

> <Gold.Chemscore.DEInternal.Weighted>
2.0817

> <Gold.Chemscore.Rot.Weighted>
3.2471

> <Gold.Chemscore.Internal.Correction.Weighted>
   9.000000E+99

> <Gold.Protein.RotatedTorsions>
[ 6907 6896 6895 6894 ] final   37.67 input  -60.11 | X-H torsion
[ 7974 7965 7964 7962 ] final  153.03 input  175.53 | X-H torsion
[ 8008 7997 7996 7995 ] final -165.12 input   59.86 | X-H torsion
[ 10167 10162 10161 10158 ] final  -23.70 input  -65.29 | X-H torsion
[ 10718 10713 10712 10709 ] final  -31.91 input   66.30 | X-H torsion
[ 10763 10752 10751 10750 ] final  -82.35 input  -60.55 | X-H torsion
[ 11005 11000 10999 10996 ] final   87.79 input  -57.11 | X-H torsion

> <Gold.Protein.ActiveResidues>
 VAL166  LYS551  ARG553  GLY616  TRP617  ASP618  TYR619  PRO620  LYS621  CYS622 
 ASP623  PHE694  ASN695  SER759  ASP760  ASP761  ALA762  ILE779  LEU786  VAL792 
 PHE793  MET794  SER795  GLU796  ALA797  LYS798  CYS799  TRP800  GLU811  SER814 

> <Gold.Protein.RotatedAtoms>
  152.1463  134.9023  160.0550 H   0  0  0  0  0  0  0  0  0  0  0  0  # atno 6907 bound_to 6896
  152.0072  133.3843  159.4213 H   0  0  0  0  0  0  0  0  0  0  0  0  # atno 6908 bound_to 6896
  150.6870  134.3691  159.5028 H   0  0  0  0  0  0  0  0  0  0  0  0  # atno 6909 bound_to 6896
  144.8182  139.6746  143.6112 H   0  0  0  0  0  0  0  0  0  0  0  0  # atno 7974 bound_to 7965
  155.8452  140.0954  157.1709 H   0  0  0  0  0  0  0  0  0  0  0  0  # atno 8008 bound_to 7997
  154.3983  140.1393  156.3839 H   0  0  0  0  0  0  0  0  0  0  0  0  # atno 8009 bound_to 7997
  155.8021  140.3452  155.5411 H   0  0  0  0  0  0  0  0  0  0  0  0  # atno 8010 bound_to 7997
  140.7288  143.4419  151.0644 H   0  0  0  0  0  0  0  0  0  0  0  0  # atno 10167 bound_to 10162
  156.3814  130.4356  149.7466 H   0  0  0  0  0  0  0  0  0  0  0  0  # atno 10718 bound_to 10713
  154.5746  135.5594  153.7127 H   0  0  0  0  0  0  0  0  0  0  0  0  # atno 10763 bound_to 10752
  153.0060  135.6305  154.2067 H   0  0  0  0  0  0  0  0  0  0  0  0  # atno 10764 bound_to 10752
  154.2007  135.2878  155.2971 H   0  0  0  0  0  0  0  0  0  0  0  0  # atno 10765 bound_to 10752
  139.8911  134.8446  156.2910 H   0  0  0  0  0  0  0  0  0  0  0  0  # atno 11005 bound_to 11000
  146.2486  139.6152  142.9442 LP  0  0  0  0  0  0  0  0  0  0  0  0  # atno 17320 bound_to 7965
  145.5166  141.0433  143.2459 LP  0  0  0  0  0  0  0  0  0  0  0  0  # atno 17321 bound_to 7965
  139.8087  143.7982  152.3169 LP  0  0  0  0  0  0  0  0  0  0  0  0  # atno 17342 bound_to 10162
  139.8024  144.7369  150.9807 LP  0  0  0  0  0  0  0  0  0  0  0  0  # atno 17343 bound_to 10162
  156.4555  130.7927  151.2948 LP  0  0  0  0  0  0  0  0  0  0  0  0  # atno 17370 bound_to 10713
  157.7492  131.0082  150.3219 LP  0  0  0  0  0  0  0  0  0  0  0  0  # atno 17371 bound_to 10713
  140.9976  133.7170  156.0910 LP  0  0  0  0  0  0  0  0  0  0  0  0  # atno 17394 bound_to 11000
  140.7541  134.4012  157.5536 LP  0  0  0  0  0  0  0  0  0  0  0  0  # atno 17395 bound_to 11000

$$$$
