AV-unprocessed.smi:1216|AV-procd|sdf|5100|dock1
  -GOLD-   22720 4153D 1   1.00000     0.00000
 Structure written by MMmdl.
 42 43  0  0  0  0  0  0  0  0  1 V2000
  144.6881  137.4404  153.1826 C   0  0  0  0  0  0  0  0  0  0  0  0
  145.9631  137.7936  152.4055 C   0  0  2  0  0  0  0  0  0  0  0  0
  145.9651  137.1439  151.0045 C   0  0  0  0  0  0  0  0  0  0  0  0
  145.5429  135.7547  151.0271 N   0  0  0  0  0  0  0  0  0  0  0  0
  146.2057  134.6856  151.6156 C   0  0  0  0  0  0  0  0  0  0  0  0
  145.4274  133.5715  151.3959 C   0  0  0  0  0  0  0  0  0  0  0  0
  144.2935  133.9270  150.6696 N   0  0  0  0  0  0  0  0  0  0  0  0
  144.4345  135.2332  150.4836 C   0  0  0  0  0  0  0  0  0  0  0  0
  147.1266  137.3631  153.1800 N   0  0  0  0  0  0  0  0  0  0  0  0
  147.3430  137.6292  154.4780 C   0  0  0  0  0  0  0  0  0  0  0  0
  146.5410  138.2355  155.1894 O   0  0  0  0  0  0  0  0  0  0  0  0
  148.6678  137.1283  155.0639 C   0  0  0  0  0  0  0  0  0  0  0  0
  149.8082  137.9345  154.6045 N   0  0  0  0  0  0  0  0  0  0  0  0
  149.5070  139.2827  154.0962 C   0  0  0  0  0  0  0  0  0  0  0  0
  150.0351  140.4238  154.9961 C   0  0  0  0  0  0  0  0  0  0  0  0
  151.3151  140.1218  155.8000 C   0  0  0  0  0  0  0  0  0  0  0  0
  152.4954  139.5768  154.9689 C   0  0  0  0  0  0  0  0  0  0  0  0
  152.2099  138.3298  154.0982 C   0  0  0  0  0  0  0  0  0  0  0  0
  151.0711  137.4384  154.6195 C   0  0  0  0  0  0  0  0  0  0  0  0
  151.3439  136.3097  155.0297 O   0  0  0  0  0  0  0  0  0  0  0  0
  143.7982  137.7731  152.6474 H   0  0  0  0  0  0  0  0  0  0  0  0
  144.6793  137.9189  154.1625 H   0  0  0  0  0  0  0  0  0  0  0  0
  144.6008  136.3643  153.3359 H   0  0  0  0  0  0  0  0  0  0  0  0
  145.9767  138.8787  152.2879 H   0  0  0  0  0  0  0  0  0  0  0  0
  145.3168  137.6985  150.3244 H   0  0  0  0  0  0  0  0  0  0  0  0
  146.9679  137.1790  150.5772 H   0  0  0  0  0  0  0  0  0  0  0  0
  147.1443  134.8046  152.1361 H   0  0  0  0  0  0  0  0  0  0  0  0
  145.5957  132.5492  151.7013 H   0  0  0  0  0  0  0  0  0  0  0  0
  143.7084  135.8263  149.9476 H   0  0  0  0  0  0  0  0  0  0  0  0
  147.8401  136.8529  152.6797 H   0  0  0  0  0  0  0  0  0  0  0  0
  148.5975  137.1563  156.1518 H   0  0  0  0  0  0  0  0  0  0  0  0
  148.8196  136.0769  154.8119 H   0  0  0  0  0  0  0  0  0  0  0  0
  149.9151  139.3852  153.0904 H   0  0  0  0  0  0  0  0  0  0  0  0
  148.4329  139.4096  153.9559 H   0  0  0  0  0  0  0  0  0  0  0  0
  150.1894  141.3120  154.3823 H   0  0  0  0  0  0  0  0  0  0  0  0
  149.2539  140.6920  155.7081 H   0  0  0  0  0  0  0  0  0  0  0  0
  151.6330  141.0329  156.3077 H   0  0  0  0  0  0  0  0  0  0  0  0
  151.0805  139.4202  156.6017 H   0  0  0  0  0  0  0  0  0  0  0  0
  152.8695  140.3715  154.3227 H   0  0  0  0  0  0  0  0  0  0  0  0
  153.3142  139.3465  155.6514 H   0  0  0  0  0  0  0  0  0  0  0  0
  151.9830  138.6295  153.0754 H   0  0  0  0  0  0  0  0  0  0  0  0
  153.1202  137.7343  154.0158 H   0  0  0  0  0  0  0  0  0  0  0  0
  1  2  1  0  0  0  0
  1 21  1  0  0  0  0
  1 22  1  0  0  0  0
  1 23  1  0  0  0  0
  2  3  1  0  0  0  0
  2  9  1  0  0  0  0
  2 24  1  0  0  0  0
  3  4  1  0  0  0  0
  3 25  1  0  0  0  0
  3 26  1  0  0  0  0
  4  8  1  0  0  0  0
  4  5  1  0  0  0  0
  5  6  2  0  0  0  0
  5 27  1  0  0  0  0
  6  7  1  0  0  0  0
  6 28  1  0  0  0  0
  7  8  2  0  0  0  0
  8 29  1  0  0  0  0
  9 10  1  0  0  0  0
  9 30  1  0  0  0  0
 10 11  2  0  0  0  0
 10 12  1  0  0  0  0
 12 13  1  0  0  0  0
 12 31  1  0  0  0  0
 12 32  1  0  0  0  0
 13 19  1  0  0  0  0
 13 14  1  0  0  0  0
 14 15  1  0  0  0  0
 14 33  1  0  0  0  0
 14 34  1  0  0  0  0
 15 16  1  0  0  0  0
 15 35  1  0  0  0  0
 15 36  1  0  0  0  0
 16 17  1  0  0  0  0
 16 37  1  0  0  0  0
 16 38  1  0  0  0  0
 17 18  1  0  0  0  0
 17 39  1  0  0  0  0
 17 40  1  0  0  0  0
 18 19  1  0  0  0  0
 18 41  1  0  0  0  0
 18 42  1  0  0  0  0
 19 20  2  0  0  0  0
M  END
> <s_m_source_file>
AV-unprocessed.smi

> <i_m_source_file_index>
1216

> <i_lp_mmshare_version>
43012

> <i_f3d_flags>
0

> <s_epik_input>
W2NIXTFuW2NIXVtjSF1uMVtDSDJdW0NAQEhdKFtDSDNdKVtOSF1DKD1PKVtDSDJdTjJbQ0gyXVtDSDJdW0NIMl1bQ0gyXVtDSDJdQzI9Tw==

> <s_epik_cmdline>
J2VwaWtfcHl0aG9uJywgJy1waCcsICc3LjAnLCAnLXRuJywgJzgnLCAnLW1hJywgJzIwMCcsICctbWV0YWxfYmluZGluZycsICctaW1hZScsICc8aW5maWxlLm1hZT4nLCAnLW9tYWUnLCAnPG91dGZpbGUubWFlPic=

> <r_lp_tautomer_probability>
1

> <r_epik_Ionization_Penalty>
0.623868

> <r_epik_Ionization_Penalty_Charging>
0.623868

> <r_epik_Ionization_Penalty_Neutral>
4.50838e-08

> <r_epik_State_Penalty>
0.640129

> <r_epik_Charging_Adjusted_Penalty>
1.264

> <i_epik_Tot_Q>
0

> <i_epik_Tot_abs_Q>
0

> <r_epik_Metal_State_Penalty>
0.307431

> <b_epik_Metal_Only>
0

> <s_lp_Force_Field>
OPLS_2005

> <r_lp_Energy>
19.0473

> <b_lp_Chiralities_Consistent>
1

> <s_lp_Variant>
AV-unprocessed.smi:1216-3

> <Gold.Version>
5.8.1

> <Gold.Id.Protein>
6NUR|6NUR_protein|mol2

> <Gold.PLP.Fitness>
44.4174

> <Gold.PLP.PLP>
-34.0323

> <Gold.PLP.part.hbond>
-1.9913

> <Gold.PLP.part.metal>
0.0000

> <Gold.PLP.part.buried>
1.5287

> <Gold.PLP.part.nonpolar>
-34.2061

> <Gold.PLP.part.repulsive>
0.3840

> <Gold.PLP.ligand.clash>
0.0000

> <Gold.PLP.ligand.torsion>
0.7035

> <Gold.PLP.Chemscore.Hbond>
1.9913

> <Gold.PLP.Chemscore.CHOScore>
1.8942

> <Gold.PLP.Chemscore.Metal>
0.0000

> <Gold.Chemscore.Hbonds>
donor molecule, donor type, donor heavy atom, donor atom, acceptor molecule, acceptor atom, score
      L1  H     9    30       P1  7948  0.96
      P1  H 10752 10765       L1    20  1.00
      L1  C     5    27       P1  7948  1.00
      L1  C     8    29       P1 10171  0.42

> <Gold.PLP.Chemscore.Internal.Correction>
0.1356

> <Gold.Rescore>
     Score         DG    S(hbond)    S(metal)    S(lipo)     H(rot)  DE(clash)    DE(int)     intcor
     10.77     -14.41       1.92        0.00      68.16       2.13       1.43       2.22       ----

> <Gold.Chemscore.Fitness>
10.7657

> <Gold.Chemscore.DG>
-14.4102

> <Gold.Chemscore.ZeroCoef>
-5.4800

> <Gold.Chemscore.Hbond>
1.9217

> <Gold.Chemscore.Metal>
0.0000

> <Gold.Chemscore.Lipo>
68.1563

> <Gold.Chemscore.Internal_Hbond>
0.0000

> <Gold.Chemscore.DEClash>
1.4252

> <Gold.Chemscore.DEInternal>
2.2193

> <Gold.Chemscore.Rot>
2.1338

> <Gold.Chemscore.Internal.Correction>
   9.000000E+99

> <Gold.Chemscore.Hbonds>
donor molecule, donor type, donor heavy atom, donor atom, acceptor molecule, acceptor atom, score
      L1  H     9    30       P1  7948  0.90
      P1  H 10752 10765       L1    20  0.96

> <Gold.Chemscore.Hbond.Weighted>
-6.4183

> <Gold.Chemscore.Metal.Weighted>
-0.0000

> <Gold.Chemscore.Lipo.Weighted>
-7.9743

> <Gold.Chemscore.Internal_Hbond.Weighted>
0.0000

> <Gold.Chemscore.DEClash.Weighted>
1.4252

> <Gold.Chemscore.DEInternal.Weighted>
2.2193

> <Gold.Chemscore.Rot.Weighted>
5.4625

> <Gold.Chemscore.Internal.Correction.Weighted>
   9.000000E+99

> <Gold.Protein.RotatedTorsions>
[ 6907 6896 6895 6894 ] final  -59.16 input  -60.11 | X-H torsion
[ 7974 7965 7964 7962 ] final   28.64 input  175.53 | X-H torsion
[ 8008 7997 7996 7995 ] final -106.76 input   59.86 | X-H torsion
[ 10167 10162 10161 10158 ] final   25.74 input  -65.29 | X-H torsion
[ 10718 10713 10712 10709 ] final   93.36 input   66.30 | X-H torsion
[ 10763 10752 10751 10750 ] final  176.57 input  -60.55 | X-H torsion
[ 11005 11000 10999 10996 ] final -155.94 input  -57.11 | X-H torsion

> <Gold.Protein.ActiveResidues>
 VAL166  LYS551  ARG553  GLY616  TRP617  ASP618  TYR619  PRO620  LYS621  CYS622 
 ASP623  PHE694  ASN695  SER759  ASP760  ASP761  ALA762  ILE779  LEU786  VAL792 
 PHE793  MET794  SER795  GLU796  ALA797  LYS798  CYS799  TRP800  GLU811  SER814 

> <Gold.Protein.RotatedAtoms>
  150.7951  134.7005  159.6546 H   0  0  0  0  0  0  0  0  0  0  0  0  # atno 6907 bound_to 6896
  152.4063  134.6199  160.0057 H   0  0  0  0  0  0  0  0  0  0  0  0  # atno 6908 bound_to 6896
  151.6455  133.3287  159.3176 H   0  0  0  0  0  0  0  0  0  0  0  0  # atno 6909 bound_to 6896
  146.1717  139.7028  142.8963 H   0  0  0  0  0  0  0  0  0  0  0  0  # atno 7974 bound_to 7965
  154.9194  140.0408  157.1989 H   0  0  0  0  0  0  0  0  0  0  0  0  # atno 8008 bound_to 7997
  154.8269  140.2893  155.5727 H   0  0  0  0  0  0  0  0  0  0  0  0  # atno 8009 bound_to 7997
  156.2984  140.2508  156.3187 H   0  0  0  0  0  0  0  0  0  0  0  0  # atno 8010 bound_to 7997
  140.5081  144.0205  150.6360 H   0  0  0  0  0  0  0  0  0  0  0  0  # atno 10167 bound_to 10162
  157.6955  131.0475  150.4022 H   0  0  0  0  0  0  0  0  0  0  0  0  # atno 10718 bound_to 10713
  154.4829  135.2775  155.1557 H   0  0  0  0  0  0  0  0  0  0  0  0  # atno 10763 bound_to 10752
  154.3260  135.6200  153.5533 H   0  0  0  0  0  0  0  0  0  0  0  0  # atno 10764 bound_to 10752
  152.9877  135.5754  154.5233 H   0  0  0  0  0  0  0  0  0  0  0  0  # atno 10765 bound_to 10752
  140.6810  134.4145  157.5226 H   0  0  0  0  0  0  0  0  0  0  0  0  # atno 11005 bound_to 11000
  145.4322  141.0416  143.2904 LP  0  0  0  0  0  0  0  0  0  0  0  0  # atno 17320 bound_to 7965
  144.8173  139.5854  143.7002 LP  0  0  0  0  0  0  0  0  0  0  0  0  # atno 17321 bound_to 7965
  140.3520  143.2957  152.0476 LP  0  0  0  0  0  0  0  0  0  0  0  0  # atno 17342 bound_to 10162
  139.4889  144.6366  151.6962 LP  0  0  0  0  0  0  0  0  0  0  0  0  # atno 17343 bound_to 10162
  156.4414  130.3992  149.6695 LP  0  0  0  0  0  0  0  0  0  0  0  0  # atno 17370 bound_to 10713
  156.3877  130.7611  151.2609 LP  0  0  0  0  0  0  0  0  0  0  0  0  # atno 17371 bound_to 10713
  139.8952  134.8689  156.2143 LP  0  0  0  0  0  0  0  0  0  0  0  0  # atno 17394 bound_to 11000
  141.0318  133.6985  156.1443 LP  0  0  0  0  0  0  0  0  0  0  0  0  # atno 17395 bound_to 11000

$$$$
