AV-unprocessed.smi:1835|AV-procd|sdf|7474|dock4
  -GOLD-   22720 9173D 1   1.00000     0.00000
 Structure written by MMmdl.
 41 42  0  0  0  0  0  0  0  0  1 V2000
  148.0643  140.2858  153.6675 C   0  0  0  0  0  0  0  0  0  0  0  0
  149.4606  140.6362  154.2416 C   0  0  1  0  0  0  0  0  0  0  0  0
  149.3066  140.9923  155.7493 C   0  0  0  0  0  0  0  0  0  0  0  0
  150.0104  142.2127  156.1346 N   0  0  0  0  0  0  0  0  0  0  0  0
  151.2127  142.2539  156.7281 C   0  0  0  0  0  0  0  0  0  0  0  0
  151.8640  141.2443  157.0002 O   0  0  0  0  0  0  0  0  0  0  0  0
  151.7604  143.6542  157.0393 C   0  0  0  0  0  0  0  0  0  0  0  0
  151.8371  143.9441  158.4809 N   0  0  0  0  0  0  0  0  0  0  0  0
  151.0285  144.9904  158.9681 C   0  0  0  0  0  0  0  0  0  0  0  0
  151.0245  145.3401  160.2641 C   0  0  0  0  0  0  0  0  0  0  0  0
  151.8795  144.6109  161.1705 C   0  0  0  0  0  0  0  0  0  0  0  0
  152.6596  143.6107  160.7144 C   0  0  0  0  0  0  0  0  0  0  0  0
  152.6697  143.2273  159.2978 C   0  0  0  0  0  0  0  0  0  0  0  0
  153.3828  142.3181  158.8719 O   0  0  0  0  0  0  0  0  0  0  0  0
  150.4670  139.5782  153.9893 N   0  0  0  0  0  0  0  0  0  0  0  0
  151.7638  139.8762  154.6088 C   0  0  0  0  0  0  0  0  0  0  0  0
  152.8062  138.7689  154.3764 C   0  0  0  0  0  0  0  0  0  0  0  0
  152.3079  137.5330  154.8689 O   0  0  0  0  0  0  0  0  0  0  0  0
  151.0886  137.1628  154.2408 C   0  0  0  0  0  0  0  0  0  0  0  0
  150.0329  138.2594  154.4660 C   0  0  0  0  0  0  0  0  0  0  0  0
  147.3171  141.0438  153.8993 H   0  0  0  0  0  0  0  0  0  0  0  0
  147.7019  139.3366  154.0636 H   0  0  0  0  0  0  0  0  0  0  0  0
  148.0697  140.2185  152.5806 H   0  0  0  0  0  0  0  0  0  0  0  0
  149.7951  141.5400  153.7302 H   0  0  0  0  0  0  0  0  0  0  0  0
  148.2516  141.1178  155.9944 H   0  0  0  0  0  0  0  0  0  0  0  0
  149.6784  140.2015  156.3989 H   0  0  0  0  0  0  0  0  0  0  0  0
  149.5456  143.0879  155.9405 H   0  0  0  0  0  0  0  0  0  0  0  0
  152.7456  143.7429  156.5792 H   0  0  0  0  0  0  0  0  0  0  0  0
  151.1440  144.4035  156.5386 H   0  0  0  0  0  0  0  0  0  0  0  0
  150.4242  145.4896  158.2248 H   0  0  0  0  0  0  0  0  0  0  0  0
  150.4011  146.1477  160.6186 H   0  0  0  0  0  0  0  0  0  0  0  0
  151.8944  144.8695  162.2189 H   0  0  0  0  0  0  0  0  0  0  0  0
  153.2934  143.0767  161.4074 H   0  0  0  0  0  0  0  0  0  0  0  0
  152.1813  140.7958  154.2030 H   0  0  0  0  0  0  0  0  0  0  0  0
  151.6346  140.0316  155.6809 H   0  0  0  0  0  0  0  0  0  0  0  0
  153.0446  138.6785  153.3154 H   0  0  0  0  0  0  0  0  0  0  0  0
  153.7350  139.0091  154.8937 H   0  0  0  0  0  0  0  0  0  0  0  0
  151.2539  136.9982  153.1747 H   0  0  0  0  0  0  0  0  0  0  0  0
  150.7461  136.2170  154.6607 H   0  0  0  0  0  0  0  0  0  0  0  0
  149.7871  138.3124  155.5278 H   0  0  0  0  0  0  0  0  0  0  0  0
  149.1325  137.9372  153.9477 H   0  0  0  0  0  0  0  0  0  0  0  0
  1  2  1  0  0  0  0
  1 21  1  0  0  0  0
  1 22  1  0  0  0  0
  1 23  1  0  0  0  0
  2  3  1  0  0  0  0
  2 15  1  0  0  0  0
  2 24  1  0  0  0  0
  3  4  1  0  0  0  0
  3 25  1  0  0  0  0
  3 26  1  0  0  0  0
  4  5  1  0  0  0  0
  4 27  1  0  0  0  0
  5  6  2  0  0  0  0
  5  7  1  0  0  0  0
  7  8  1  0  0  0  0
  7 28  1  0  0  0  0
  7 29  1  0  0  0  0
  8 13  1  0  0  0  0
  8  9  1  0  0  0  0
  9 10  2  0  0  0  0
  9 30  1  0  0  0  0
 10 11  1  0  0  0  0
 10 31  1  0  0  0  0
 11 12  2  0  0  0  0
 11 32  1  0  0  0  0
 12 13  1  0  0  0  0
 12 33  1  0  0  0  0
 13 14  2  0  0  0  0
 15 20  1  0  0  0  0
 15 16  1  0  0  0  0
 16 17  1  0  0  0  0
 16 34  1  0  0  0  0
 16 35  1  0  0  0  0
 17 18  1  0  0  0  0
 17 36  1  0  0  0  0
 17 37  1  0  0  0  0
 18 19  1  0  0  0  0
 19 20  1  0  0  0  0
 19 38  1  0  0  0  0
 19 39  1  0  0  0  0
 20 40  1  0  0  0  0
 20 41  1  0  0  0  0
M  END
> <s_m_source_file>
AV-unprocessed.smi

> <i_m_source_file_index>
1835

> <i_lp_mmshare_version>
43012

> <i_f3d_flags>
0

> <s_epik_input>
W0NIMl0xW0NIMl1PW0NIMl1bQ0gyXU4xW0NASF0oW0NIM10pW0NIMl1bTkhdQyg9TylbQ0gyXW4yW2NIXVtjSF1bY0hdW2NIXWMyPU8=

> <s_epik_cmdline>
J2VwaWtfcHl0aG9uJywgJy1waCcsICc3LjAnLCAnLXRuJywgJzgnLCAnLW1hJywgJzIwMCcsICctbWV0YWxfYmluZGluZycsICctaW1hZScsICc8aW5maWxlLm1hZT4nLCAnLW9tYWUnLCAnPG91dGZpbGUubWFlPic=

> <r_lp_tautomer_probability>
1

> <r_epik_Ionization_Penalty>
0.237383

> <r_epik_Ionization_Penalty_Charging>
3.58805e-07

> <r_epik_Ionization_Penalty_Neutral>
0.237382

> <r_epik_State_Penalty>
0.228245

> <r_epik_Charging_Adjusted_Penalty>
0.228245

> <i_epik_Tot_Q>
0

> <i_epik_Tot_abs_Q>
0

> <r_epik_Metal_State_Penalty>
0.22822

> <b_epik_Metal_Only>
0

> <s_lp_Force_Field>
OPLS_2005

> <r_lp_Energy>
38.1368

> <b_lp_Chiralities_Consistent>
1

> <s_lp_Variant>
AV-unprocessed.smi:1835-2

> <Gold.Version>
5.8.1

> <Gold.Id.Protein>
6NUR|6NUR_protein|mol2

> <Gold.PLP.Fitness>
46.9414

> <Gold.PLP.PLP>
-41.9811

> <Gold.PLP.part.hbond>
-2.4665

> <Gold.PLP.part.metal>
0.0000

> <Gold.PLP.part.buried>
-1.4472

> <Gold.PLP.part.nonpolar>
-40.0847

> <Gold.PLP.part.repulsive>
0.3370

> <Gold.PLP.ligand.clash>
0.0000

> <Gold.PLP.ligand.torsion>
0.9023

> <Gold.PLP.Chemscore.Hbond>
1.7899

> <Gold.PLP.Chemscore.CHOScore>
0.4493

> <Gold.PLP.Chemscore.Metal>
0.0000

> <Gold.Chemscore.Hbonds>
donor molecule, donor type, donor heavy atom, donor atom, acceptor molecule, acceptor atom, score
      L1  H     4    27       P1  8028  1.00
      P1  H 10752 10763       L1    18  0.28
      L1  C     9    30       P1  8029  0.52

> <Gold.PLP.Chemscore.Internal.Correction>
0.0474

> <Gold.Rescore>
     Score         DG    S(hbond)    S(metal)    S(lipo)     H(rot)  DE(clash)    DE(int)     intcor
      9.61     -16.52       1.00        0.00     107.08       1.89       3.18       3.73       ----

> <Gold.Chemscore.Fitness>
9.6095

> <Gold.Chemscore.DG>
-16.5190

> <Gold.Chemscore.ZeroCoef>
-5.4800

> <Gold.Chemscore.Hbond>
1.0013

> <Gold.Chemscore.Metal>
0.0000

> <Gold.Chemscore.Lipo>
107.0822

> <Gold.Chemscore.Internal_Hbond>
0.0000

> <Gold.Chemscore.DEClash>
3.1774

> <Gold.Chemscore.DEInternal>
3.7321

> <Gold.Chemscore.Rot>
1.8882

> <Gold.Chemscore.Internal.Correction>
   9.000000E+99

> <Gold.Chemscore.Hbonds>
donor molecule, donor type, donor heavy atom, donor atom, acceptor molecule, acceptor atom, score
      L1  H     4    27       P1  8028  1.00
      P1  H 10752 10763       L1    18  0.01

> <Gold.Chemscore.Hbond.Weighted>
-3.3442

> <Gold.Chemscore.Metal.Weighted>
-0.0000

> <Gold.Chemscore.Lipo.Weighted>
-12.5286

> <Gold.Chemscore.Internal_Hbond.Weighted>
0.0000

> <Gold.Chemscore.DEClash.Weighted>
3.1774

> <Gold.Chemscore.DEInternal.Weighted>
3.7321

> <Gold.Chemscore.Rot.Weighted>
4.8338

> <Gold.Chemscore.Internal.Correction.Weighted>
   9.000000E+99

> <Gold.Protein.RotatedTorsions>
[ 6907 6896 6895 6894 ] final -101.84 input  -60.11 | X-H torsion
[ 7974 7965 7964 7962 ] final -159.20 input  175.53 | X-H torsion
[ 8008 7997 7996 7995 ] final   72.60 input   59.86 | X-H torsion
[ 10167 10162 10161 10158 ] final  -41.84 input  -65.29 | X-H torsion
[ 10718 10713 10712 10709 ] final  124.10 input   66.30 | X-H torsion
[ 10763 10752 10751 10750 ] final   62.54 input  -60.55 | X-H torsion
[ 11005 11000 10999 10996 ] final   64.61 input  -57.11 | X-H torsion

> <Gold.Protein.ActiveResidues>
 VAL166  LYS551  ARG553  GLY616  TRP617  ASP618  TYR619  PRO620  LYS621  CYS622 
 ASP623  PHE694  ASN695  SER759  ASP760  ASP761  ALA762  ILE779  LEU786  VAL792 
 PHE793  MET794  SER795  GLU796  ALA797  LYS798  CYS799  TRP800  GLU811  SER814 

> <Gold.Protein.RotatedAtoms>
  150.7171  134.0672  159.3851 H   0  0  0  0  0  0  0  0  0  0  0  0  # atno 6907 bound_to 6896
  151.8653  135.0507  160.0483 H   0  0  0  0  0  0  0  0  0  0  0  0  # atno 6908 bound_to 6896
  152.2685  133.5325  159.5461 H   0  0  0  0  0  0  0  0  0  0  0  0  # atno 6909 bound_to 6896
  144.7475  140.3719  143.6074 H   0  0  0  0  0  0  0  0  0  0  0  0  # atno 7974 bound_to 7965
  155.7712  140.3484  155.5248 H   0  0  0  0  0  0  0  0  0  0  0  0  # atno 8008 bound_to 7997
  155.8819  140.1003  157.1500 H   0  0  0  0  0  0  0  0  0  0  0  0  # atno 8009 bound_to 7997
  154.4025  140.1321  156.4195 H   0  0  0  0  0  0  0  0  0  0  0  0  # atno 8010 bound_to 7997
  140.6989  143.3071  151.3124 H   0  0  0  0  0  0  0  0  0  0  0  0  # atno 10167 bound_to 10162
  157.5612  131.1089  150.8534 H   0  0  0  0  0  0  0  0  0  0  0  0  # atno 10718 bound_to 10713
  152.9986  135.5461  154.6209 H   0  0  0  0  0  0  0  0  0  0  0  0  # atno 10763 bound_to 10752
  154.5509  135.2826  155.1012 H   0  0  0  0  0  0  0  0  0  0  0  0  # atno 10764 bound_to 10752
  154.2252  135.6443  153.5210 H   0  0  0  0  0  0  0  0  0  0  0  0  # atno 10765 bound_to 10752
  139.9948  134.6535  156.0029 H   0  0  0  0  0  0  0  0  0  0  0  0  # atno 11005 bound_to 11000
  145.7069  139.1675  143.2561 LP  0  0  0  0  0  0  0  0  0  0  0  0  # atno 17320 bound_to 7965
  146.1375  140.7102  142.9382 LP  0  0  0  0  0  0  0  0  0  0  0  0  # atno 17321 bound_to 7965
  139.6481  144.0414  152.2606 LP  0  0  0  0  0  0  0  0  0  0  0  0  # atno 17342 bound_to 10162
  139.9941  144.6340  150.7788 LP  0  0  0  0  0  0  0  0  0  0  0  0  # atno 17343 bound_to 10162
  156.9031  130.5254  149.5282 LP  0  0  0  0  0  0  0  0  0  0  0  0  # atno 17370 bound_to 10713
  156.0665  130.5707  150.9298 LP  0  0  0  0  0  0  0  0  0  0  0  0  # atno 17371 bound_to 10713
  141.1595  133.6540  156.4272 LP  0  0  0  0  0  0  0  0  0  0  0  0  # atno 17394 bound_to 11000
  140.4839  134.6638  157.5183 LP  0  0  0  0  0  0  0  0  0  0  0  0  # atno 17395 bound_to 11000

$$$$
