AV-unprocessed.smi:697|AV-procd|sdf|3395|dock5
  -GOLD-   22720 0373D 1   1.00000     0.00000
 Structure written by MMmdl.
 43 44  0  0  0  0  0  0  0  0  2 V2000
  150.9958  139.9079  158.1664 C   0  0  0  0  0  0  0  0  0  0  0  0
  151.2512  138.6548  157.5437 O   0  0  0  0  0  0  0  0  0  0  0  0
  151.2751  138.6258  156.1101 C   0  0  1  0  0  0  0  0  0  0  0  0
  152.0766  139.8125  155.5601 C   0  0  0  0  0  0  0  0  0  0  0  0
  151.5978  137.2030  155.6150 C   0  0  0  0  0  0  0  0  0  0  0  0
  150.1145  136.8840  155.7913 C   0  0  2  0  0  0  0  0  0  0  0  0
  149.5986  136.0113  154.7418 N   0  0  0  0  0  0  0  0  0  0  0  0
  149.2017  134.7463  154.9337 C   0  0  0  0  0  0  0  0  0  0  0  0
  149.2575  134.1841  156.0272 O   0  0  0  0  0  0  0  0  0  0  0  0
  148.7524  134.2084  153.7852 N   0  0  0  0  0  0  0  0  0  0  0  0
  148.2074  132.9357  153.5398 C   0  0  0  0  0  0  0  0  0  0  0  0
  148.8287  131.7534  153.8083 C   0  0  0  0  0  0  0  0  0  0  0  0
  148.2023  130.4643  153.5435 C   0  0  0  0  0  0  0  0  0  0  0  0
  148.9036  129.1320  153.7409 C   0  0  0  0  0  0  0  0  0  0  0  0
  150.1642  129.3058  154.1381 F   0  0  0  0  0  0  0  0  0  0  0  0
  148.2733  128.3915  154.6525 F   0  0  0  0  0  0  0  0  0  0  0  0
  148.9194  128.4539  152.5944 F   0  0  0  0  0  0  0  0  0  0  0  0
  146.9423  130.5966  152.9930 C   0  0  0  0  0  0  0  0  0  0  0  0
  146.2470  131.7225  152.7213 N   0  5  0  0  0  0  0  0  0  0  0  0
  146.8421  132.9225  152.9741 C   0  0  0  0  0  0  0  0  0  0  0  0
  146.2669  133.9869  152.7432 O   0  0  0  0  0  0  0  0  0  0  0  0
  149.8172  138.3931  155.5939 C   0  0  0  0  0  0  0  0  0  0  0  0
  148.6853  138.9702  156.4515 C   0  0  0  0  0  0  0  0  0  0  0  0
  149.5287  138.8582  154.1536 C   0  0  0  0  0  0  0  0  0  0  0  0
  151.1735  139.8147  159.2374 H   0  0  0  0  0  0  0  0  0  0  0  0
  149.9578  140.2148  158.0383 H   0  0  0  0  0  0  0  0  0  0  0  0
  151.6437  140.6993  157.7913 H   0  0  0  0  0  0  0  0  0  0  0  0
  152.0220  139.8698  154.4737 H   0  0  0  0  0  0  0  0  0  0  0  0
  153.1358  139.7368  155.8043 H   0  0  0  0  0  0  0  0  0  0  0  0
  151.7068  140.7582  155.9565 H   0  0  0  0  0  0  0  0  0  0  0  0
  151.9298  137.1826  154.5754 H   0  0  0  0  0  0  0  0  0  0  0  0
  152.2591  136.6117  156.2473 H   0  0  0  0  0  0  0  0  0  0  0  0
  149.8949  136.5359  156.8032 H   0  0  0  0  0  0  0  0  0  0  0  0
  149.5268  136.4003  153.8130 H   0  0  0  0  0  0  0  0  0  0  0  0
  148.8229  134.7901  152.9631 H   0  0  0  0  0  0  0  0  0  0  0  0
  149.8113  131.7284  154.2483 H   0  0  0  0  0  0  0  0  0  0  0  0
  146.4143  129.6558  152.7278 H   0  0  0  0  0  0  0  0  0  0  0  0
  147.7055  138.6887  156.0642 H   0  0  0  0  0  0  0  0  0  0  0  0
  148.7267  140.0592  156.4868 H   0  0  0  0  0  0  0  0  0  0  0  0
  148.7277  138.6103  157.4797 H   0  0  0  0  0  0  0  0  0  0  0  0
  148.5555  138.5108  153.8051 H   0  0  0  0  0  0  0  0  0  0  0  0
  150.2694  138.4885  153.4444 H   0  0  0  0  0  0  0  0  0  0  0  0
  149.5265  139.9459  154.0783 H   0  0  0  0  0  0  0  0  0  0  0  0
  1  2  1  0  0  0  0
  1 25  1  0  0  0  0
  1 26  1  0  0  0  0
  1 27  1  0  0  0  0
  2  3  1  0  0  0  0
  3 22  1  0  0  0  0
  3  4  1  0  0  0  0
  3  5  1  0  0  0  0
  4 28  1  0  0  0  0
  4 29  1  0  0  0  0
  4 30  1  0  0  0  0
  5  6  1  0  0  0  0
  5 31  1  0  0  0  0
  5 32  1  0  0  0  0
  6  7  1  0  0  0  0
  6 22  1  0  0  0  0
  6 33  1  0  0  0  0
  7  8  1  0  0  0  0
  7 34  1  0  0  0  0
  8  9  2  0  0  0  0
  8 10  1  0  0  0  0
 10 11  1  0  0  0  0
 10 35  1  0  0  0  0
 11 20  1  0  0  0  0
 11 12  2  0  0  0  0
 12 13  1  0  0  0  0
 12 36  1  0  0  0  0
 13 14  1  0  0  0  0
 13 18  2  0  0  0  0
 14 15  1  0  0  0  0
 14 16  1  0  0  0  0
 14 17  1  0  0  0  0
 18 19  1  0  0  0  0
 18 37  1  0  0  0  0
 19 20  1  0  0  0  0
 20 21  2  0  0  0  0
 22 23  1  0  0  0  0
 22 24  1  0  0  0  0
 23 38  1  0  0  0  0
 23 39  1  0  0  0  0
 23 40  1  0  0  0  0
 24 41  1  0  0  0  0
 24 42  1  0  0  0  0
 24 43  1  0  0  0  0
M  CHG  1  19  -1
M  END
> <s_m_source_file>
AV-unprocessed.smi

> <i_m_source_file_index>
697

> <i_lp_mmshare_version>
43012

> <i_f3d_flags>
0

> <s_epik_input>
W0NIM11PW0NAQF0xKFtDSDNdKVtDSDJdW0NASF0oQzEoW0NIM10pW0NIM10pW05IXUMoPU8pW05IXWMyW2NIXWMoQyhGKShGKUYpW2NIXVtuSF1jMj1P

> <s_epik_cmdline>
J2VwaWtfcHl0aG9uJywgJy1waCcsICc3LjAnLCAnLXRuJywgJzgnLCAnLW1hJywgJzIwMCcsICctbWV0YWxfYmluZGluZycsICctaW1hZScsICc8aW5maWxlLm1hZT4nLCAnLW9tYWUnLCAnPG91dGZpbGUubWFlPic=

> <r_lp_tautomer_probability>
1

> <r_epik_Ionization_Penalty>
3.20094

> <r_epik_Ionization_Penalty_Charging>
0.180017

> <r_epik_Ionization_Penalty_Neutral>
3.02092

> <r_epik_State_Penalty>
3.01726

> <r_epik_Charging_Adjusted_Penalty>
3.19727

> <i_epik_Tot_Q>
-1

> <i_epik_Tot_abs_Q>
1

> <r_epik_Metal_State_Penalty>
0.455096

> <b_epik_Metal_Only>
1

> <s_lp_Force_Field>
OPLS_2005

> <r_lp_Energy>
36.256

> <b_lp_Chiralities_Consistent>
1

> <s_lp_Variant>
AV-unprocessed.smi:697-7

> <Gold.Version>
5.8.1

> <Gold.Id.Protein>
6NUR|6NUR_protein|mol2

> <Gold.PLP.Fitness>
35.0817

> <Gold.PLP.PLP>
-31.1849

> <Gold.PLP.part.hbond>
-2.0000

> <Gold.PLP.part.metal>
0.0000

> <Gold.PLP.part.buried>
-3.1575

> <Gold.PLP.part.nonpolar>
-25.9693

> <Gold.PLP.part.repulsive>
0.2977

> <Gold.PLP.ligand.clash>
0.0000

> <Gold.PLP.ligand.torsion>
1.0596

> <Gold.PLP.Chemscore.Hbond>
1.8500

> <Gold.PLP.Chemscore.CHOScore>
0.0000

> <Gold.PLP.Chemscore.Metal>
0.0000

> <Gold.Chemscore.Hbonds>
donor molecule, donor type, donor heavy atom, donor atom, acceptor molecule, acceptor atom, score
      L1  H     7    34       P1  7948  1.00
      L1  H    10    35       P1  7948  0.85

> <Gold.PLP.Chemscore.Internal.Correction>
0.4660

> <Gold.Rescore>
     Score         DG    S(hbond)    S(metal)    S(lipo)     H(rot)  DE(clash)    DE(int)     intcor
     13.32     -14.73       1.59        0.00      61.96       1.30       0.28       1.13       ----

> <Gold.Chemscore.Fitness>
13.3247

> <Gold.Chemscore.DG>
-14.7327

> <Gold.Chemscore.ZeroCoef>
-5.4800

> <Gold.Chemscore.Hbond>
1.5942

> <Gold.Chemscore.Metal>
0.0000

> <Gold.Chemscore.Lipo>
61.9577

> <Gold.Chemscore.Internal_Hbond>
0.0000

> <Gold.Chemscore.DEClash>
0.2772

> <Gold.Chemscore.DEInternal>
1.1308

> <Gold.Chemscore.Rot>
1.2973

> <Gold.Chemscore.Internal.Correction>
   9.000000E+99

> <Gold.Chemscore.Hbonds>
donor molecule, donor type, donor heavy atom, donor atom, acceptor molecule, acceptor atom, score
      L1  H     7    34       P1  7948  0.67
      L1  H    10    35       P1  7948  0.15

> <Gold.Chemscore.Hbond.Weighted>
-5.3247

> <Gold.Chemscore.Metal.Weighted>
-0.0000

> <Gold.Chemscore.Lipo.Weighted>
-7.2490

> <Gold.Chemscore.Internal_Hbond.Weighted>
0.0000

> <Gold.Chemscore.DEClash.Weighted>
0.2772

> <Gold.Chemscore.DEInternal.Weighted>
1.1308

> <Gold.Chemscore.Rot.Weighted>
3.3210

> <Gold.Chemscore.Internal.Correction.Weighted>
   9.000000E+99

> <Gold.Protein.RotatedTorsions>
[ 6907 6896 6895 6894 ] final   92.60 input  -60.11 | X-H torsion
[ 7974 7965 7964 7962 ] final  171.60 input  175.53 | X-H torsion
[ 8008 7997 7996 7995 ] final   23.06 input   59.86 | X-H torsion
[ 10167 10162 10161 10158 ] final  134.30 input  -65.29 | X-H torsion
[ 10718 10713 10712 10709 ] final   78.31 input   66.30 | X-H torsion
[ 10763 10752 10751 10750 ] final  130.54 input  -60.55 | X-H torsion
[ 11005 11000 10999 10996 ] final   37.24 input  -57.11 | X-H torsion

> <Gold.Protein.ActiveResidues>
 VAL166  LYS551  ARG553  GLY616  TRP617  ASP618  TYR619  PRO620  LYS621  CYS622 
 ASP623  PHE694  ASN695  SER759  ASP760  ASP761  ALA762  ILE779  LEU786  VAL792 
 PHE793  MET794  SER795  GLU796  ALA797  LYS798  CYS799  TRP800  GLU811  SER814 

> <Gold.Protein.RotatedAtoms>
  152.5453  134.1478  159.8505 H   0  0  0  0  0  0  0  0  0  0  0  0  # atno 6907 bound_to 6896
  151.1507  133.4902  159.2603 H   0  0  0  0  0  0  0  0  0  0  0  0  # atno 6908 bound_to 6896
  151.1475  135.0221  159.8708 H   0  0  0  0  0  0  0  0  0  0  0  0  # atno 6909 bound_to 6896
  144.7290  139.9374  143.6427 H   0  0  0  0  0  0  0  0  0  0  0  0  # atno 7974 bound_to 7965
  154.9752  140.3095  155.4970 H   0  0  0  0  0  0  0  0  0  0  0  0  # atno 8008 bound_to 7997
  156.2961  140.2276  156.4786 H   0  0  0  0  0  0  0  0  0  0  0  0  # atno 8009 bound_to 7997
  154.7840  140.0444  157.1138 H   0  0  0  0  0  0  0  0  0  0  0  0  # atno 8010 bound_to 7997
  139.5262  144.6574  151.5120 H   0  0  0  0  0  0  0  0  0  0  0  0  # atno 10167 bound_to 10162
  157.6740  130.9862  150.1767 H   0  0  0  0  0  0  0  0  0  0  0  0  # atno 10718 bound_to 10713
  153.7597  135.3197  155.3335 H   0  0  0  0  0  0  0  0  0  0  0  0  # atno 10763 bound_to 10752
  154.8234  135.4587  154.0850 H   0  0  0  0  0  0  0  0  0  0  0  0  # atno 10764 bound_to 10752
  153.2077  135.6931  153.8235 H   0  0  0  0  0  0  0  0  0  0  0  0  # atno 10765 bound_to 10752
  140.2245  134.3600  155.7990 H   0  0  0  0  0  0  0  0  0  0  0  0  # atno 11005 bound_to 11000
  146.0811  139.3798  143.0464 LP  0  0  0  0  0  0  0  0  0  0  0  0  # atno 17320 bound_to 7965
  145.7840  140.9844  143.1084 LP  0  0  0  0  0  0  0  0  0  0  0  0  # atno 17321 bound_to 7965
  140.6406  143.8897  150.6688 LP  0  0  0  0  0  0  0  0  0  0  0  0  # atno 17342 bound_to 10162
  140.2230  143.3794  152.1627 LP  0  0  0  0  0  0  0  0  0  0  0  0  # atno 17343 bound_to 10162
  156.2509  130.3700  149.8233 LP  0  0  0  0  0  0  0  0  0  0  0  0  # atno 17370 bound_to 10713
  156.6007  130.8545  151.3431 LP  0  0  0  0  0  0  0  0  0  0  0  0  # atno 17371 bound_to 10713
  141.2221  133.7212  156.8631 LP  0  0  0  0  0  0  0  0  0  0  0  0  # atno 17394 bound_to 11000
  140.1814  134.9030  157.2953 LP  0  0  0  0  0  0  0  0  0  0  0  0  # atno 17395 bound_to 11000

$$$$
