AV-unprocessed.smi:285|AV-procd|sdf|2170|dock5
  -GOLD-   2262021533D 1   1.00000     0.00000
 Structure written by MMmdl.
 31 33  0  0  0  0  0  0  0  0  1 V2000
  152.3187  138.3316  155.6622 N   0  0  0  0  0  0  0  0  0  0  0  0
  151.8705  139.4657  156.2184 C   0  0  0  0  0  0  0  0  0  0  0  0
  150.9037  140.1595  155.5735 N   0  0  0  0  0  0  0  0  0  0  0  0
  150.4422  141.2963  156.1048 C   0  0  0  0  0  0  0  0  0  0  0  0
  150.8059  141.8957  157.2415 N   0  0  0  0  0  0  0  0  0  0  0  0
  151.7788  141.1938  157.8943 C   0  0  0  0  0  0  0  0  0  0  0  0
  152.3633  139.9723  157.4474 C   0  0  0  0  0  0  0  0  0  0  0  0
  153.3237  139.5398  158.3533 N   0  0  0  0  0  0  0  0  0  0  0  0
  153.2906  140.4658  159.2705 C   0  0  0  0  0  0  0  0  0  0  0  0
  154.4529  140.3709  160.7765 Br  0  0  0  0  0  0  0  0  0  0  0  0
  152.3998  141.4997  159.0896 N   0  0  0  0  0  0  0  0  0  0  0  0
  152.1458  142.6873  159.9626 C   0  0  1  0  0  0  0  0  0  0  0  0
  152.7396  143.9510  159.3477 C   0  0  0  0  0  0  0  0  0  0  0  0
  151.7593  144.9881  159.8472 C   0  0  1  0  0  0  0  0  0  0  0  0
  151.7918  146.1445  159.0364 O   0  0  0  0  0  0  0  0  0  0  0  0
  150.4291  144.2339  159.7401 C   0  0  2  0  0  0  0  0  0  0  0  0
  149.3532  144.7575  160.7040 C   0  0  0  0  0  0  0  0  0  0  0  0
  149.7519  144.5463  162.0414 O   0  0  0  0  0  0  0  0  0  0  0  0
  150.7678  142.8856  160.0710 O   0  0  0  0  0  0  0  0  0  0  0  0
  153.0410  137.7968  156.1229 H   0  0  0  0  0  0  0  0  0  0  0  0
  151.9348  138.0147  154.7837 H   0  0  0  0  0  0  0  0  0  0  0  0
  149.6719  141.7981  155.5380 H   0  0  0  0  0  0  0  0  0  0  0  0
  152.5593  142.4434  160.9409 H   0  0  0  0  0  0  0  0  0  0  0  0
  153.7662  144.1102  159.6790 H   0  0  0  0  0  0  0  0  0  0  0  0
  152.7179  143.8838  158.2584 H   0  0  0  0  0  0  0  0  0  0  0  0
  151.9795  145.2451  160.8845 H   0  0  0  0  0  0  0  0  0  0  0  0
  151.2963  146.8256  159.4655 H   0  0  0  0  0  0  0  0  0  0  0  0
  150.0786  144.2625  158.7065 H   0  0  0  0  0  0  0  0  0  0  0  0
  149.1443  145.8135  160.5301 H   0  0  0  0  0  0  0  0  0  0  0  0
  148.4199  144.2140  160.5539 H   0  0  0  0  0  0  0  0  0  0  0  0
  149.3193  145.1841  162.5886 H   0  0  0  0  0  0  0  0  0  0  0  0
  1  2  1  0  0  0  0
  1 20  1  0  0  0  0
  1 21  1  0  0  0  0
  2  7  1  0  0  0  0
  2  3  2  0  0  0  0
  3  4  1  0  0  0  0
  4  5  2  0  0  0  0
  4 22  1  0  0  0  0
  5  6  1  0  0  0  0
  6 11  1  0  0  0  0
  6  7  2  0  0  0  0
  7  8  1  0  0  0  0
  8  9  2  0  0  0  0
  9 10  1  0  0  0  0
  9 11  1  0  0  0  0
 11 12  1  0  0  0  0
 12 19  1  0  0  0  0
 12 13  1  0  0  0  0
 12 23  1  0  0  0  0
 13 14  1  0  0  0  0
 13 24  1  0  0  0  0
 13 25  1  0  0  0  0
 14 15  1  0  0  0  0
 14 16  1  0  0  0  0
 14 26  1  0  0  0  0
 15 27  1  0  0  0  0
 16 17  1  0  0  0  0
 16 19  1  0  0  0  0
 16 28  1  0  0  0  0
 17 18  1  0  0  0  0
 17 29  1  0  0  0  0
 17 30  1  0  0  0  0
 18 31  1  0  0  0  0
M  END
> <s_m_source_file>
AV-unprocessed.smi

> <i_m_source_file_index>
285

> <i_lp_mmshare_version>
43012

> <i_f3d_flags>
0

> <s_epik_input>
bjFbY0hdbmMoW05IMl0pYyhjMTIpbmMoQnIpbjJbQ0BASF0zW0NIMl1bQ0BASF0oW09IXSlbQ0BIXShPMylbQ0gyXVtPSF0=

> <s_epik_cmdline>
J2VwaWtfcHl0aG9uJywgJy1waCcsICc3LjAnLCAnLXRuJywgJzgnLCAnLW1hJywgJzIwMCcsICctbWV0YWxfYmluZGluZycsICctaW1hZScsICc8aW5maWxlLm1hZT4nLCAnLW9tYWUnLCAnPG91dGZpbGUubWFlPic=

> <r_lp_tautomer_probability>
1

> <r_epik_Ionization_Penalty>
0.000103242

> <r_epik_Ionization_Penalty_Charging>
0

> <r_epik_Ionization_Penalty_Neutral>
0.000103242

> <r_epik_State_Penalty>
-0

> <r_epik_Charging_Adjusted_Penalty>
0

> <i_epik_Tot_Q>
0

> <i_epik_Tot_abs_Q>
0

> <r_epik_Metal_State_Penalty>
-0

> <b_epik_Metal_Only>
0

> <s_epik_Chemistry_Notes>
This compound contains an acetal/aminal-like group ( X-CH(R)-Y where X, Y are N, S, or O) that may be acid/base labile, releasing an aldehyde.

> <s_lp_Force_Field>
OPLS_2005

> <r_lp_Energy>
32.6465

> <b_lp_Chiralities_Consistent>
1

> <s_lp_Variant>
AV-unprocessed.smi:285-6

> <Gold.Version>
5.8.1

> <Gold.Id.Protein>
6NUR|6NUR_protein|mol2

> <Gold.PLP.Fitness>
46.6524

> <Gold.PLP.PLP>
-38.6051

> <Gold.PLP.part.hbond>
-7.0000

> <Gold.PLP.part.metal>
0.0000

> <Gold.PLP.part.buried>
-4.4116

> <Gold.PLP.part.nonpolar>
-27.4351

> <Gold.PLP.part.repulsive>
0.3732

> <Gold.PLP.ligand.clash>
0.0000

> <Gold.PLP.ligand.torsion>
0.3962

> <Gold.PLP.Chemscore.Hbond>
1.9491

> <Gold.PLP.Chemscore.CHOScore>
0.9946

> <Gold.PLP.Chemscore.Metal>
0.0000

> <Gold.Chemscore.Hbonds>
donor molecule, donor type, donor heavy atom, donor atom, acceptor molecule, acceptor atom, score
      P1  H  7989  7998       L1     3  0.31
      P1  H  7997  8010       L1     8  0.50

> <Gold.PLP.Chemscore.Internal.Correction>
0.0086

> <Gold.Rescore>
     Score         DG    S(hbond)    S(metal)    S(lipo)     H(rot)  DE(clash)    DE(int)     intcor
      1.53      -5.64       0.65        0.00      49.93       3.06       3.01       1.10       ----

> <Gold.Chemscore.Fitness>
1.5272

> <Gold.Chemscore.DG>
-5.6425

> <Gold.Chemscore.ZeroCoef>
-5.4800

> <Gold.Chemscore.Hbond>
0.6456

> <Gold.Chemscore.Metal>
0.0000

> <Gold.Chemscore.Lipo>
49.9269

> <Gold.Chemscore.Internal_Hbond>
0.0000

> <Gold.Chemscore.DEClash>
3.0118

> <Gold.Chemscore.DEInternal>
1.1036

> <Gold.Chemscore.Rot>
3.0607

> <Gold.Chemscore.Internal.Correction>
   9.000000E+99

> <Gold.Chemscore.Hbonds>
donor molecule, donor type, donor heavy atom, donor atom, acceptor molecule, acceptor atom, score
      P1  H  7989  7998       L1     3  0.08
      P1  H  7997  8010       L1     8  0.01

> <Gold.Chemscore.Hbond.Weighted>
-2.1564

> <Gold.Chemscore.Metal.Weighted>
-0.0000

> <Gold.Chemscore.Lipo.Weighted>
-5.8414

> <Gold.Chemscore.Internal_Hbond.Weighted>
0.0000

> <Gold.Chemscore.DEClash.Weighted>
3.0118

> <Gold.Chemscore.DEInternal.Weighted>
1.1036

> <Gold.Chemscore.Rot.Weighted>
7.8354

> <Gold.Chemscore.Internal.Correction.Weighted>
   9.000000E+99

> <Gold.Protein.RotatedTorsions>
[ 6907 6896 6895 6894 ] final  112.74 input  -60.11 | X-H torsion
[ 7974 7965 7964 7962 ] final   25.44 input  175.53 | X-H torsion
[ 8008 7997 7996 7995 ] final   25.58 input   59.86 | X-H torsion
[ 10167 10162 10161 10158 ] final -164.46 input  -65.29 | X-H torsion
[ 10718 10713 10712 10709 ] final   41.54 input   66.30 | X-H torsion
[ 10763 10752 10751 10750 ] final   -7.77 input  -60.55 | X-H torsion
[ 11005 11000 10999 10996 ] final  -96.00 input  -57.11 | X-H torsion

> <Gold.Protein.ActiveResidues>
 VAL166  LYS551  ARG553  GLY616  TRP617  ASP618  TYR619  PRO620  LYS621  CYS622 
 ASP623  PHE694  ASN695  SER759  ASP760  ASP761  ALA762  ILE779  LEU786  VAL792 
 PHE793  MET794  SER795  GLU796  ALA797  LYS798  CYS799  TRP800  GLU811  SER814 

> <Gold.Protein.RotatedAtoms>
  152.4900  133.8473  159.7183 H   0  0  0  0  0  0  0  0  0  0  0  0  # atno 6907 bound_to 6896
  150.9020  133.7097  159.2883 H   0  0  0  0  0  0  0  0  0  0  0  0  # atno 6908 bound_to 6896
  151.4535  135.1036  159.9757 H   0  0  0  0  0  0  0  0  0  0  0  0  # atno 6909 bound_to 6896
  146.1888  139.7466  142.8847 H   0  0  0  0  0  0  0  0  0  0  0  0  # atno 7974 bound_to 7965
  155.0139  140.3140  155.4819 H   0  0  0  0  0  0  0  0  0  0  0  0  # atno 8008 bound_to 7997
  156.2904  140.2209  156.5196 H   0  0  0  0  0  0  0  0  0  0  0  0  # atno 8009 bound_to 7997
  154.7510  140.0466  157.0881 H   0  0  0  0  0  0  0  0  0  0  0  0  # atno 8010 bound_to 7997
  139.6249  144.0551  152.1966 H   0  0  0  0  0  0  0  0  0  0  0  0  # atno 10167 bound_to 10162
  157.3947  130.7826  149.7299 H   0  0  0  0  0  0  0  0  0  0  0  0  # atno 10718 bound_to 10713
  153.4311  135.7012  153.6230 H   0  0  0  0  0  0  0  0  0  0  0  0  # atno 10763 bound_to 10752
  153.4645  135.3729  155.2357 H   0  0  0  0  0  0  0  0  0  0  0  0  # atno 10764 bound_to 10752
  154.8725  135.4028  154.3695 H   0  0  0  0  0  0  0  0  0  0  0  0  # atno 10765 bound_to 10752
  141.1425  133.8066  157.0511 H   0  0  0  0  0  0  0  0  0  0  0  0  # atno 11005 bound_to 11000
  145.3855  141.0365  143.3153 LP  0  0  0  0  0  0  0  0  0  0  0  0  # atno 17320 bound_to 7965
  144.8448  139.5414  143.6883 LP  0  0  0  0  0  0  0  0  0  0  0  0  # atno 17321 bound_to 7965
  140.0202  144.6158  150.7573 LP  0  0  0  0  0  0  0  0  0  0  0  0  # atno 17342 bound_to 10162
  140.7405  143.2805  151.3612 LP  0  0  0  0  0  0  0  0  0  0  0  0  # atno 17343 bound_to 10162
  155.9807  130.4026  150.3511 LP  0  0  0  0  0  0  0  0  0  0  0  0  # atno 17370 bound_to 10713
  157.1632  131.0350  151.2831 LP  0  0  0  0  0  0  0  0  0  0  0  0  # atno 17371 bound_to 10713
  140.0631  134.9744  157.1339 LP  0  0  0  0  0  0  0  0  0  0  0  0  # atno 17394 bound_to 11000
  140.3819  134.2278  155.7170 LP  0  0  0  0  0  0  0  0  0  0  0  0  # atno 17395 bound_to 11000

$$$$
