AV-unprocessed.smi:801|AV-procd|sdf|3790|dock4
  -GOLD-   22720 1223D 1   1.00000     0.00000
 Structure written by MMmdl.
 43 44  0  0  0  0  0  0  0  0  2 V2000
  143.9740  134.8766  162.4675 C   0  0  0  0  0  0  0  0  0  0  0  0
  145.1547  135.0307  161.7000 O   0  0  0  0  0  0  0  0  0  0  0  0
  146.3289  134.8035  162.4609 C   0  0  0  0  0  0  0  0  0  0  0  0
  147.4710  134.4162  161.5100 C   0  0  0  0  0  0  0  0  0  0  0  0
  147.6639  135.4367  160.4574 N   0  0  0  0  0  0  0  0  0  0  0  0
  147.6254  135.0420  159.0931 C   0  0  0  0  0  0  0  0  0  0  0  0
  147.4657  133.6790  158.7901 N   0  0  0  0  0  0  0  0  0  0  0  0
  148.4219  132.8747  158.2912 C   0  0  0  0  0  0  0  0  0  0  0  0
  147.9821  131.4587  157.9368 C   0  0  0  0  0  0  0  0  0  0  0  0
  149.5886  133.2202  158.1044 O   0  0  0  0  0  0  0  0  0  0  0  0
  147.7972  135.9591  158.0978 C   0  0  0  0  0  0  0  0  0  0  0  0
  147.8165  135.5804  156.7527 N   0  0  0  0  0  0  0  0  0  0  0  0
  147.9807  136.3510  155.5291 C   0  0  0  0  0  0  0  0  0  0  0  0
  149.4036  136.8331  155.3042 C   0  0  0  0  0  0  0  0  0  0  0  0
  149.6585  138.1721  154.9333 C   0  0  0  0  0  0  0  0  0  0  0  0
  150.9802  138.6106  154.7214 C   0  0  0  0  0  0  0  0  0  0  0  0
  152.0538  137.7124  154.8753 C   0  0  0  0  0  0  0  0  0  0  0  0
  151.8046  136.3749  155.2382 C   0  0  0  0  0  0  0  0  0  0  0  0
  150.4830  135.9359  155.4499 C   0  0  0  0  0  0  0  0  0  0  0  0
  147.9961  137.3674  158.4859 C   0  0  0  0  0  0  0  0  0  0  0  0
  148.1138  138.2540  157.6411 O   0  0  0  0  0  0  0  0  0  0  0  0
  148.0483  137.6615  159.8120 N   0  5  0  0  0  0  0  0  0  0  0  0
  147.9026  136.7365  160.8002 C   0  0  0  0  0  0  0  0  0  0  0  0
  147.9828  137.0428  161.9907 O   0  0  0  0  0  0  0  0  0  0  0  0
  143.1023  135.0630  161.8403 H   0  0  0  0  0  0  0  0  0  0  0  0
  143.9480  135.5833  163.2980 H   0  0  0  0  0  0  0  0  0  0  0  0
  143.8919  133.8644  162.8660 H   0  0  0  0  0  0  0  0  0  0  0  0
  146.5925  135.7026  163.0203 H   0  0  0  0  0  0  0  0  0  0  0  0
  146.1519  134.0060  163.1841 H   0  0  0  0  0  0  0  0  0  0  0  0
  148.3883  134.2554  162.0761 H   0  0  0  0  0  0  0  0  0  0  0  0
  147.2661  133.4352  161.0780 H   0  0  0  0  0  0  0  0  0  0  0  0
  146.5192  133.3284  158.8043 H   0  0  0  0  0  0  0  0  0  0  0  0
  147.2643  131.4795  157.1163 H   0  0  0  0  0  0  0  0  0  0  0  0
  147.5131  130.9780  158.7958 H   0  0  0  0  0  0  0  0  0  0  0  0
  148.8353  130.8525  157.6304 H   0  0  0  0  0  0  0  0  0  0  0  0
  147.6781  134.5948  156.5846 H   0  0  0  0  0  0  0  0  0  0  0  0
  147.6689  135.7380  154.6826 H   0  0  0  0  0  0  0  0  0  0  0  0
  147.3280  137.2240  155.5606 H   0  0  0  0  0  0  0  0  0  0  0  0
  148.8416  138.8679  154.8082 H   0  0  0  0  0  0  0  0  0  0  0  0
  151.1702  139.6357  154.4393 H   0  0  0  0  0  0  0  0  0  0  0  0
  153.0673  138.0482  154.7126 H   0  0  0  0  0  0  0  0  0  0  0  0
  152.6276  135.6851  155.3541 H   0  0  0  0  0  0  0  0  0  0  0  0
  150.3018  134.9075  155.7265 H   0  0  0  0  0  0  0  0  0  0  0  0
  1  2  1  0  0  0  0
  1 25  1  0  0  0  0
  1 26  1  0  0  0  0
  1 27  1  0  0  0  0
  2  3  1  0  0  0  0
  3  4  1  0  0  0  0
  3 28  1  0  0  0  0
  3 29  1  0  0  0  0
  4  5  1  0  0  0  0
  4 30  1  0  0  0  0
  4 31  1  0  0  0  0
  5 23  1  0  0  0  0
  5  6  1  0  0  0  0
  6  7  1  0  0  0  0
  6 11  2  0  0  0  0
  7  8  1  0  0  0  0
  7 32  1  0  0  0  0
  8  9  1  0  0  0  0
  8 10  2  0  0  0  0
  9 33  1  0  0  0  0
  9 34  1  0  0  0  0
  9 35  1  0  0  0  0
 11 12  1  0  0  0  0
 11 20  1  0  0  0  0
 12 13  1  0  0  0  0
 12 36  1  0  0  0  0
 13 14  1  0  0  0  0
 13 37  1  0  0  0  0
 13 38  1  0  0  0  0
 14 19  1  0  0  0  0
 14 15  2  0  0  0  0
 15 16  1  0  0  0  0
 15 39  1  0  0  0  0
 16 17  2  0  0  0  0
 16 40  1  0  0  0  0
 17 18  1  0  0  0  0
 17 41  1  0  0  0  0
 18 19  2  0  0  0  0
 18 42  1  0  0  0  0
 19 43  1  0  0  0  0
 20 21  2  0  0  0  0
 20 22  1  0  0  0  0
 22 23  1  0  0  0  0
 23 24  2  0  0  0  0
M  CHG  1  22  -1
M  END
> <s_m_source_file>
AV-unprocessed.smi

> <i_m_source_file_index>
801

> <i_lp_mmshare_version>
43012

> <i_f3d_flags>
0

> <s_epik_input>
W0NIM11PW0NIMl1bQ0gyXW4xYyhbTkhdQyg9TylbQ0gzXSljKGMoPU8pW25IXWMxPU8pW05IXVtDSDJdYzJbY0hdW2NIXVtjSF1bY0hdW2NIXTI=

> <s_epik_cmdline>
J2VwaWtfcHl0aG9uJywgJy1waCcsICc3LjAnLCAnLXRuJywgJzgnLCAnLW1hJywgJzIwMCcsICctbWV0YWxfYmluZGluZycsICctaW1hZScsICc8aW5maWxlLm1hZT4nLCAnLW9tYWUnLCAnPG91dGZpbGUubWFlPic=

> <r_lp_tautomer_probability>
0.999901

> <r_epik_Ionization_Penalty>
3.93073

> <r_epik_Ionization_Penalty_Charging>
1.379e-07

> <r_epik_Ionization_Penalty_Neutral>
3.93073

> <r_epik_State_Penalty>
3.9304

> <r_epik_Charging_Adjusted_Penalty>
3.9304

> <i_epik_Tot_Q>
-1

> <i_epik_Tot_abs_Q>
1

> <r_epik_Metal_State_Penalty>
0.600886

> <b_epik_Metal_Only>
1

> <s_lp_Force_Field>
OPLS_2005

> <r_lp_Energy>
31.5589

> <b_lp_Chiralities_Consistent>
1

> <s_lp_Variant>
AV-unprocessed.smi:801-2

> <Gold.Version>
5.8.1

> <Gold.Id.Protein>
6NUR|6NUR_protein|mol2

> <Gold.PLP.Fitness>
40.5480

> <Gold.PLP.PLP>
-30.6863

> <Gold.PLP.part.hbond>
-3.6595

> <Gold.PLP.part.metal>
0.0000

> <Gold.PLP.part.buried>
-5.0500

> <Gold.PLP.part.nonpolar>
-23.3976

> <Gold.PLP.part.repulsive>
0.0550

> <Gold.PLP.ligand.clash>
0.0000

> <Gold.PLP.ligand.torsion>
1.0330

> <Gold.PLP.Chemscore.Hbond>
3.6000

> <Gold.PLP.Chemscore.CHOScore>
0.0000

> <Gold.PLP.Chemscore.Metal>
0.0000

> <Gold.Chemscore.Hbonds>
donor molecule, donor type, donor heavy atom, donor atom, acceptor molecule, acceptor atom, score
      P1  H  6896  6907       L1    10  1.00
      P1  H  6931  6943       L1    24  1.00
      P1  H  6934  6947       L1    22  0.65

> <Gold.PLP.Chemscore.Internal.Correction>
1.1278

> <Gold.Rescore>
     Score         DG    S(hbond)    S(metal)    S(lipo)     H(rot)  DE(clash)    DE(int)     intcor
      8.77     -13.47       1.89        0.00      57.64       1.98       0.03       4.67       ----

> <Gold.Chemscore.Fitness>
8.7740

> <Gold.Chemscore.DG>
-13.4689

> <Gold.Chemscore.ZeroCoef>
-5.4800

> <Gold.Chemscore.Hbond>
1.8923

> <Gold.Chemscore.Metal>
0.0000

> <Gold.Chemscore.Lipo>
57.6364

> <Gold.Chemscore.Internal_Hbond>
0.0000

> <Gold.Chemscore.DEClash>
0.0291

> <Gold.Chemscore.DEInternal>
4.6658

> <Gold.Chemscore.Rot>
1.9824

> <Gold.Chemscore.Internal.Correction>
   9.000000E+99

> <Gold.Chemscore.Hbonds>
donor molecule, donor type, donor heavy atom, donor atom, acceptor molecule, acceptor atom, score
      P1  H  6896  6907       L1    10  1.00
      P1  H  6931  6943       L1    24  0.29
      P1  H  6934  6947       L1    22  0.02

> <Gold.Chemscore.Hbond.Weighted>
-6.3204

> <Gold.Chemscore.Metal.Weighted>
-0.0000

> <Gold.Chemscore.Lipo.Weighted>
-6.7435

> <Gold.Chemscore.Internal_Hbond.Weighted>
0.0000

> <Gold.Chemscore.DEClash.Weighted>
0.0291

> <Gold.Chemscore.DEInternal.Weighted>
4.6658

> <Gold.Chemscore.Rot.Weighted>
5.0749

> <Gold.Chemscore.Internal.Correction.Weighted>
   9.000000E+99

> <Gold.Protein.RotatedTorsions>
[ 6907 6896 6895 6894 ] final -132.28 input  -60.11 | X-H torsion
[ 7974 7965 7964 7962 ] final  -43.47 input  175.53 | X-H torsion
[ 8008 7997 7996 7995 ] final    7.05 input   59.86 | X-H torsion
[ 10167 10162 10161 10158 ] final  -10.28 input  -65.29 | X-H torsion
[ 10718 10713 10712 10709 ] final  -81.26 input   66.30 | X-H torsion
[ 10763 10752 10751 10750 ] final  -32.31 input  -60.55 | X-H torsion
[ 11005 11000 10999 10996 ] final -122.96 input  -57.11 | X-H torsion

> <Gold.Protein.ActiveResidues>
 VAL166  LYS551  ARG553  GLY616  TRP617  ASP618  TYR619  PRO620  LYS621  CYS622 
 ASP623  PHE694  ASN695  SER759  ASP760  ASP761  ALA762  ILE779  LEU786  VAL792 
 PHE793  MET794  SER795  GLU796  ALA797  LYS798  CYS799  TRP800  GLU811  SER814 

> <Gold.Protein.RotatedAtoms>
  150.9606  133.6449  159.2754 H   0  0  0  0  0  0  0  0  0  0  0  0  # atno 6907 bound_to 6896
  151.3773  135.0932  159.9494 H   0  0  0  0  0  0  0  0  0  0  0  0  # atno 6908 bound_to 6896
  152.5146  133.9148  159.7560 H   0  0  0  0  0  0  0  0  0  0  0  0  # atno 6909 bound_to 6896
  146.0016  140.7068  142.9268 H   0  0  0  0  0  0  0  0  0  0  0  0  # atno 7974 bound_to 7965
  154.7488  140.2763  155.6310 H   0  0  0  0  0  0  0  0  0  0  0  0  # atno 8008 bound_to 7997
  156.2891  140.2682  156.2162 H   0  0  0  0  0  0  0  0  0  0  0  0  # atno 8009 bound_to 7997
  155.0163  140.0372  157.2409 H   0  0  0  0  0  0  0  0  0  0  0  0  # atno 8010 bound_to 7997
  140.7110  143.5765  150.9037 H   0  0  0  0  0  0  0  0  0  0  0  0  # atno 10167 bound_to 10162
  156.0054  130.4598  150.3925 H   0  0  0  0  0  0  0  0  0  0  0  0  # atno 10718 bound_to 10713
  153.8117  135.6882  153.4840 H   0  0  0  0  0  0  0  0  0  0  0  0  # atno 10763 bound_to 10752
  153.1624  135.4574  154.9789 H   0  0  0  0  0  0  0  0  0  0  0  0  # atno 10764 bound_to 10752
  154.7964  135.3321  154.7597 H   0  0  0  0  0  0  0  0  0  0  0  0  # atno 10765 bound_to 10752
  140.9956  134.0477  157.3602 H   0  0  0  0  0  0  0  0  0  0  0  0  # atno 11005 bound_to 11000
  144.6921  140.3242  143.7227 LP  0  0  0  0  0  0  0  0  0  0  0  0  # atno 17320 bound_to 7965
  145.7479  139.1784  143.2338 LP  0  0  0  0  0  0  0  0  0  0  0  0  # atno 17321 bound_to 7965
  139.9491  143.6293  152.3034 LP  0  0  0  0  0  0  0  0  0  0  0  0  # atno 17342 bound_to 10162
  139.6805  144.7656  151.1617 LP  0  0  0  0  0  0  0  0  0  0  0  0  # atno 17343 bound_to 10162
  157.1998  131.0435  151.2656 LP  0  0  0  0  0  0  0  0  0  0  0  0  # atno 17370 bound_to 10713
  157.3985  130.7320  149.6750 LP  0  0  0  0  0  0  0  0  0  0  0  0  # atno 17371 bound_to 10713
  139.9013  135.0165  156.7280 LP  0  0  0  0  0  0  0  0  0  0  0  0  # atno 17394 bound_to 11000
  140.6972  133.9338  155.8002 LP  0  0  0  0  0  0  0  0  0  0  0  0  # atno 17395 bound_to 11000

$$$$
