AV-unprocessed.smi:2024|AV-procd|sdf|8191|dock6
  -GOLD-   2272010443D 1   1.00000     0.00000
 Structure written by MMmdl.
 44 45  0  0  0  0  0  0  0  0  2 V2000
  147.0704  139.8930  151.6786 C   0  0  0  0  0  0  0  0  0  0  0  0
  146.5939  140.0725  153.0695 N   0  3  0  0  0  0  0  0  0  0  0  0
  147.2625  141.1754  153.7967 C   0  0  0  0  0  0  0  0  0  0  0  0
  148.6818  140.7759  154.2475 C   0  0  0  0  0  0  0  0  0  0  0  0
  148.6317  139.5909  155.1204 N   0  0  0  0  0  0  0  0  0  0  0  0
  149.9146  139.2706  155.8042 C   0  0  0  0  0  0  0  0  0  0  0  0
  151.0781  139.3141  154.7808 C   0  0  0  0  0  0  0  0  0  0  0  0
  150.2261  140.2744  156.9404 C   0  0  0  0  0  0  0  0  0  0  0  0
  149.8657  137.8351  156.4092 C   0  0  0  0  0  0  0  0  0  0  0  0
  148.8424  137.6779  157.4438 N   0  0  0  0  0  0  0  0  0  0  0  0
  148.9962  137.0245  158.6047 C   0  0  0  0  0  0  0  0  0  0  0  0
  150.0458  136.4779  158.9443 O   0  0  0  0  0  0  0  0  0  0  0  0
  147.8613  137.0425  159.3253 N   0  0  0  0  0  0  0  0  0  0  0  0
  147.6202  136.4612  160.5979 C   0  0  0  0  0  0  0  0  0  0  0  0
  147.4094  137.1597  161.7196 N   0  0  0  0  0  0  0  0  0  0  0  0
  147.1982  136.3288  162.8228 C   0  0  0  0  0  0  0  0  0  0  0  0
  147.2532  134.9908  162.5209 C   0  0  0  0  0  0  0  0  0  0  0  0
  147.5716  134.7194  160.8284 S   0  0  0  0  0  0  0  0  0  0  0  0
  148.0585  138.4877  154.3309 C   0  0  0  0  0  0  0  0  0  0  0  0
  146.6249  138.8340  153.8801 C   0  0  0  0  0  0  0  0  0  0  0  0
  148.1219  139.6088  151.6392 H   0  0  0  0  0  0  0  0  0  0  0  0
  146.9475  140.8166  151.1122 H   0  0  0  0  0  0  0  0  0  0  0  0
  146.4914  139.1183  151.1749 H   0  0  0  0  0  0  0  0  0  0  0  0
  147.2974  142.0677  153.1705 H   0  0  0  0  0  0  0  0  0  0  0  0
  146.6614  141.4352  154.6694 H   0  0  0  0  0  0  0  0  0  0  0  0
  149.3171  140.5922  153.3810 H   0  0  0  0  0  0  0  0  0  0  0  0
  149.1035  141.6317  154.7693 H   0  0  0  0  0  0  0  0  0  0  0  0
  151.9835  138.8711  155.1974 H   0  0  0  0  0  0  0  0  0  0  0  0
  151.3482  140.3308  154.4966 H   0  0  0  0  0  0  0  0  0  0  0  0
  150.8400  138.7646  153.8692 H   0  0  0  0  0  0  0  0  0  0  0  0
  151.1787  140.0339  157.4138 H   0  0  0  0  0  0  0  0  0  0  0  0
  149.4738  140.2559  157.7286 H   0  0  0  0  0  0  0  0  0  0  0  0
  150.3076  141.2992  156.5788 H   0  0  0  0  0  0  0  0  0  0  0  0
  149.7111  137.1049  155.6126 H   0  0  0  0  0  0  0  0  0  0  0  0
  150.8251  137.5513  156.8400 H   0  0  0  0  0  0  0  0  0  0  0  0
  147.9418  138.0903  157.2510 H   0  0  0  0  0  0  0  0  0  0  0  0
  147.0758  137.5248  158.9148 H   0  0  0  0  0  0  0  0  0  0  0  0
  147.0153  136.7756  163.7888 H   0  0  0  0  0  0  0  0  0  0  0  0
  147.1258  134.1518  163.1888 H   0  0  0  0  0  0  0  0  0  0  0  0
  148.6852  138.2620  153.4682 H   0  0  0  0  0  0  0  0  0  0  0  0
  147.9920  137.5750  154.9190 H   0  0  0  0  0  0  0  0  0  0  0  0
  145.9895  138.9730  154.7559 H   0  0  0  0  0  0  0  0  0  0  0  0
  146.1917  138.0083  153.3144 H   0  0  0  0  0  0  0  0  0  0  0  0
  145.6220  140.3341  152.9858 H   0  0  0  0  0  0  0  0  0  0  0  0
  1  2  1  0  0  0  0
  1 21  1  0  0  0  0
  1 22  1  0  0  0  0
  1 23  1  0  0  0  0
  2 20  1  0  0  0  0
  2  3  1  0  0  0  0
  2 44  1  0  0  0  0
  3  4  1  0  0  0  0
  3 24  1  0  0  0  0
  3 25  1  0  0  0  0
  4  5  1  0  0  0  0
  4 26  1  0  0  0  0
  4 27  1  0  0  0  0
  5  6  1  0  0  0  0
  5 19  1  0  0  0  0
  6  7  1  0  0  0  0
  6  8  1  0  0  0  0
  6  9  1  0  0  0  0
  7 28  1  0  0  0  0
  7 29  1  0  0  0  0
  7 30  1  0  0  0  0
  8 31  1  0  0  0  0
  8 32  1  0  0  0  0
  8 33  1  0  0  0  0
  9 10  1  0  0  0  0
  9 34  1  0  0  0  0
  9 35  1  0  0  0  0
 10 11  1  0  0  0  0
 10 36  1  0  0  0  0
 11 12  2  0  0  0  0
 11 13  1  0  0  0  0
 13 14  1  0  0  0  0
 13 37  1  0  0  0  0
 14 18  1  0  0  0  0
 14 15  2  0  0  0  0
 15 16  1  0  0  0  0
 16 17  2  0  0  0  0
 16 38  1  0  0  0  0
 17 18  1  0  0  0  0
 17 39  1  0  0  0  0
 19 20  1  0  0  0  0
 19 40  1  0  0  0  0
 19 41  1  0  0  0  0
 20 42  1  0  0  0  0
 20 43  1  0  0  0  0
M  CHG  1   2   1
M  END
> <s_m_source_file>
AV-unprocessed.smi

> <i_m_source_file_index>
2024

> <i_lp_mmshare_version>
43012

> <i_f3d_flags>
0

> <s_epik_input>
W0NIM11OMVtDSDJdW0NIMl1OKFtDSDJdW0NIMl0xKUMoW0NIM10pKFtDSDNdKVtDSDJdW05IXUMoPU8pW05IXWMybltjSF1bY0hdczI=

> <s_epik_cmdline>
J2VwaWtfcHl0aG9uJywgJy1waCcsICc3LjAnLCAnLXRuJywgJzgnLCAnLW1hJywgJzIwMCcsICctbWV0YWxfYmluZGluZycsICctaW1hZScsICc8aW5maWxlLm1hZT4nLCAnLW9tYWUnLCAnPG91dGZpbGUubWFlPic=

> <r_lp_tautomer_probability>
0.999

> <r_epik_Ionization_Penalty>
0.025257

> <r_epik_Ionization_Penalty_Charging>
0.0242302

> <r_epik_Ionization_Penalty_Neutral>
0.00102675

> <r_epik_State_Penalty>
0.128805

> <r_epik_Charging_Adjusted_Penalty>
0.153036

> <i_epik_Tot_Q>
1

> <i_epik_Tot_abs_Q>
1

> <r_epik_Metal_State_Penalty>
0.161314

> <b_epik_Metal_Only>
0

> <s_lp_Force_Field>
OPLS_2005

> <r_lp_Energy>
25.0383

> <b_lp_Chiralities_Consistent>
1

> <s_lp_Variant>
AV-unprocessed.smi:2024-1

> <Gold.Version>
5.8.1

> <Gold.Id.Protein>
6NUR|6NUR_protein|mol2

> <Gold.PLP.Fitness>
44.7288

> <Gold.PLP.PLP>
-32.7904

> <Gold.PLP.part.hbond>
-4.0000

> <Gold.PLP.part.metal>
0.0000

> <Gold.PLP.part.buried>
0.1091

> <Gold.PLP.part.nonpolar>
-28.8920

> <Gold.PLP.part.repulsive>
0.2707

> <Gold.PLP.ligand.clash>
0.0000

> <Gold.PLP.ligand.torsion>
1.1364

> <Gold.PLP.Chemscore.Hbond>
4.7280

> <Gold.PLP.Chemscore.CHOScore>
0.0000

> <Gold.PLP.Chemscore.Metal>
0.0000

> <Gold.Chemscore.Hbonds>
donor molecule, donor type, donor heavy atom, donor atom, acceptor molecule, acceptor atom, score
      L1  H     2    44       P1 10175  2.00
      P1  H  6896  6909       L1    12  1.00
      P1  H  6931  6943       L1    15  0.93
      P1  H  6934  6947       L1    15  0.82

> <Gold.PLP.Chemscore.Internal.Correction>
0.0273

> <Gold.Rescore>
     Score         DG    S(hbond)    S(metal)    S(lipo)     H(rot)  DE(clash)    DE(int)     intcor
     17.41     -20.24       2.91        0.00      78.01       1.60       1.81       1.02       ----

> <Gold.Chemscore.Fitness>
17.4086

> <Gold.Chemscore.DG>
-20.2448

> <Gold.Chemscore.ZeroCoef>
-5.4800

> <Gold.Chemscore.Hbond>
2.9135

> <Gold.Chemscore.Metal>
0.0000

> <Gold.Chemscore.Lipo>
78.0127

> <Gold.Chemscore.Internal_Hbond>
0.0000

> <Gold.Chemscore.DEClash>
1.8139

> <Gold.Chemscore.DEInternal>
1.0223

> <Gold.Chemscore.Rot>
1.5991

> <Gold.Chemscore.Internal.Correction>
   9.000000E+99

> <Gold.Chemscore.Hbonds>
donor molecule, donor type, donor heavy atom, donor atom, acceptor molecule, acceptor atom, score
      L1  H     2    44       P1 10175  0.88
      P1  H  6896  6909       L1    12  0.95
      P1  H  6931  6943       L1    15  0.33
      P1  H  6934  6947       L1    15  0.23

> <Gold.Chemscore.Hbond.Weighted>
-9.7309

> <Gold.Chemscore.Metal.Weighted>
-0.0000

> <Gold.Chemscore.Lipo.Weighted>
-9.1275

> <Gold.Chemscore.Internal_Hbond.Weighted>
0.0000

> <Gold.Chemscore.DEClash.Weighted>
1.8139

> <Gold.Chemscore.DEInternal.Weighted>
1.0223

> <Gold.Chemscore.Rot.Weighted>
4.0936

> <Gold.Chemscore.Internal.Correction.Weighted>
   9.000000E+99

> <Gold.Protein.RotatedTorsions>
[ 6907 6896 6895 6894 ] final   61.32 input  -60.11 | X-H torsion
[ 7974 7965 7964 7962 ] final  -79.06 input  175.53 | X-H torsion
[ 8008 7997 7996 7995 ] final   30.57 input   59.86 | X-H torsion
[ 10167 10162 10161 10158 ] final  -45.90 input  -65.29 | X-H torsion
[ 10718 10713 10712 10709 ] final   37.74 input   66.30 | X-H torsion
[ 10763 10752 10751 10750 ] final -147.37 input  -60.55 | X-H torsion
[ 11005 11000 10999 10996 ] final  -35.04 input  -57.11 | X-H torsion

> <Gold.Protein.ActiveResidues>
 VAL166  LYS551  ARG553  GLY616  TRP617  ASP618  TYR619  PRO620  LYS621  CYS622 
 ASP623  PHE694  ASN695  SER759  ASP760  ASP761  ALA762  ILE779  LEU786  VAL792 
 PHE793  MET794  SER795  GLU796  ALA797  LYS798  CYS799  TRP800  GLU811  SER814 

> <Gold.Protein.RotatedAtoms>
  152.4078  134.6176  160.0042 H   0  0  0  0  0  0  0  0  0  0  0  0  # atno 6907 bound_to 6896
  151.6362  133.3323  159.3128 H   0  0  0  0  0  0  0  0  0  0  0  0  # atno 6908 bound_to 6896
  150.7972  134.7080  159.6632 H   0  0  0  0  0  0  0  0  0  0  0  0  # atno 6909 bound_to 6896
  145.5782  140.9453  143.1358 H   0  0  0  0  0  0  0  0  0  0  0  0  # atno 7974 bound_to 7965
  155.0925  140.3221  155.4569 H   0  0  0  0  0  0  0  0  0  0  0  0  # atno 8008 bound_to 7997
  156.2739  140.2075  156.5999 H   0  0  0  0  0  0  0  0  0  0  0  0  # atno 8009 bound_to 7997
  154.6892  140.0518  157.0333 H   0  0  0  0  0  0  0  0  0  0  0  0  # atno 8010 bound_to 7997
  140.6839  143.2857  151.3706 H   0  0  0  0  0  0  0  0  0  0  0  0  # atno 10167 bound_to 10162
  157.3506  130.7596  149.6976 H   0  0  0  0  0  0  0  0  0  0  0  0  # atno 10718 bound_to 10713
  154.8289  135.3362  154.6808 H   0  0  0  0  0  0  0  0  0  0  0  0  # atno 10763 bound_to 10752
  153.7430  135.6944  153.4967 H   0  0  0  0  0  0  0  0  0  0  0  0  # atno 10764 bound_to 10752
  153.2230  135.4442  155.0462 H   0  0  0  0  0  0  0  0  0  0  0  0  # atno 10765 bound_to 10752
  140.9764  133.7080  156.1610 H   0  0  0  0  0  0  0  0  0  0  0  0  # atno 11005 bound_to 11000
  144.7406  139.7459  143.7312 LP  0  0  0  0  0  0  0  0  0  0  0  0  # atno 17320 bound_to 7965
  146.1735  139.4896  142.9912 LP  0  0  0  0  0  0  0  0  0  0  0  0  # atno 17321 bound_to 7965
  139.6182  144.0959  152.2366 LP  0  0  0  0  0  0  0  0  0  0  0  0  # atno 17342 bound_to 10162
  140.0395  144.6018  150.7422 LP  0  0  0  0  0  0  0  0  0  0  0  0  # atno 17343 bound_to 10162
  155.9721  130.4142  150.4119 LP  0  0  0  0  0  0  0  0  0  0  0  0  # atno 17370 bound_to 10713
  157.2181  131.0476  151.2562 LP  0  0  0  0  0  0  0  0  0  0  0  0  # atno 17371 bound_to 10713
  140.7252  134.4315  157.5571 LP  0  0  0  0  0  0  0  0  0  0  0  0  # atno 17394 bound_to 11000
  139.8932  134.8735  156.2233 LP  0  0  0  0  0  0  0  0  0  0  0  0  # atno 17395 bound_to 11000

$$$$
