AV-unprocessed.smi:2855|AV-procd|sdf|10977|dock5
  -GOLD-   2272015433D 1   1.00000     0.00000
 Structure written by MMmdl.
 47 48  0  0  0  0  0  0  0  0  1 V2000
  149.4284  139.6615  154.4690 C   0  0  0  0  0  0  0  0  0  0  0  0
  149.9500  140.1892  155.8132 C   0  0  2  0  0  0  0  0  0  0  0  0
  149.2991  141.5313  156.1823 C   0  0  0  0  0  0  0  0  0  0  0  0
  149.8175  142.0662  157.5265 C   0  0  0  0  0  0  0  0  0  0  0  0
  151.3589  142.2254  157.5482 C   0  0  1  0  0  0  0  0  0  0  0  0
  151.8791  142.7978  158.9044 C   0  0  0  0  0  0  0  0  0  0  0  0
  151.4579  144.2630  159.1285 C   0  0  0  0  0  0  0  0  0  0  0  0
  153.4103  142.6969  159.0483 C   0  0  0  0  0  0  0  0  0  0  0  0
  152.0335  140.8860  157.1352 C   0  0  1  0  0  0  0  0  0  0  0  0
  151.9066  139.8882  158.1974 N   0  0  0  0  0  0  0  0  0  0  0  0
  152.6734  138.7984  158.3479 C   0  0  0  0  0  0  0  0  0  0  0  0
  153.5487  138.4671  157.5476 O   0  0  0  0  0  0  0  0  0  0  0  0
  152.4025  137.9472  159.5945 C   0  0  0  0  0  0  0  0  0  0  0  0
  153.5678  137.8920  160.4881 N   0  0  0  0  0  0  0  0  0  0  0  0
  154.0393  139.0439  161.1015 C   0  0  0  0  0  0  0  0  0  0  0  0
  155.0999  139.0592  161.9434 C   0  0  0  0  0  0  0  0  0  0  0  0
  155.8155  137.8259  162.2529 C   0  0  0  0  0  0  0  0  0  0  0  0
  156.7861  137.7383  163.0014 O   0  0  0  0  0  0  0  0  0  0  0  0
  155.3098  136.6882  161.6182 N   0  0  0  0  0  0  0  0  0  0  0  0
  154.2171  136.6650  160.7502 C   0  0  0  0  0  0  0  0  0  0  0  0
  153.8501  135.6039  160.2457 O   0  0  0  0  0  0  0  0  0  0  0  0
  151.4819  140.3362  155.8042 C   0  0  0  0  0  0  0  0  0  0  0  0
  155.7718  135.8100  161.8045 H   0  0  0  0  0  0  0  0  0  0  0  0
  149.6617  140.3486  153.6552 H   0  0  0  0  0  0  0  0  0  0  0  0
  148.3466  139.5287  154.4928 H   0  0  0  0  0  0  0  0  0  0  0  0
  149.8734  138.6960  154.2269 H   0  0  0  0  0  0  0  0  0  0  0  0
  149.6789  139.4592  156.5771 H   0  0  0  0  0  0  0  0  0  0  0  0
  149.4969  142.2658  155.4001 H   0  0  0  0  0  0  0  0  0  0  0  0
  148.2155  141.4176  156.2303 H   0  0  0  0  0  0  0  0  0  0  0  0
  149.3286  143.0214  157.7106 H   0  0  0  0  0  0  0  0  0  0  0  0
  149.5012  141.4008  158.3309 H   0  0  0  0  0  0  0  0  0  0  0  0
  151.6131  142.9539  156.7765 H   0  0  0  0  0  0  0  0  0  0  0  0
  151.4422  142.2152  159.7166 H   0  0  0  0  0  0  0  0  0  0  0  0
  151.7736  144.8977  158.3000 H   0  0  0  0  0  0  0  0  0  0  0  0
  151.9028  144.6647  160.0393 H   0  0  0  0  0  0  0  0  0  0  0  0
  150.3796  144.3667  159.2430 H   0  0  0  0  0  0  0  0  0  0  0  0
  153.9198  143.1972  158.2244 H   0  0  0  0  0  0  0  0  0  0  0  0
  153.7524  141.6630  159.0790 H   0  0  0  0  0  0  0  0  0  0  0  0
  153.7489  143.1590  159.9759 H   0  0  0  0  0  0  0  0  0  0  0  0
  153.0920  141.0863  156.9646 H   0  0  0  0  0  0  0  0  0  0  0  0
  151.2060  140.0691  158.9018 H   0  0  0  0  0  0  0  0  0  0  0  0
  151.5349  138.3267  160.1388 H   0  0  0  0  0  0  0  0  0  0  0  0
  152.1214  136.9461  159.2650 H   0  0  0  0  0  0  0  0  0  0  0  0
  153.5375  139.9809  160.9056 H   0  0  0  0  0  0  0  0  0  0  0  0
  155.4197  139.9887  162.3918 H   0  0  0  0  0  0  0  0  0  0  0  0
  151.9488  139.3770  155.5762 H   0  0  0  0  0  0  0  0  0  0  0  0
  151.7720  141.0105  154.9973 H   0  0  0  0  0  0  0  0  0  0  0  0
  1  2  1  0  0  0  0
  1 24  1  0  0  0  0
  1 25  1  0  0  0  0
  1 26  1  0  0  0  0
  2 22  1  0  0  0  0
  2  3  1  0  0  0  0
  2 27  1  0  0  0  0
  3  4  1  0  0  0  0
  3 28  1  0  0  0  0
  3 29  1  0  0  0  0
  4  5  1  0  0  0  0
  4 30  1  0  0  0  0
  4 31  1  0  0  0  0
  5  6  1  0  0  0  0
  5  9  1  0  0  0  0
  5 32  1  0  0  0  0
  6  7  1  0  0  0  0
  6  8  1  0  0  0  0
  6 33  1  0  0  0  0
  7 34  1  0  0  0  0
  7 35  1  0  0  0  0
  7 36  1  0  0  0  0
  8 37  1  0  0  0  0
  8 38  1  0  0  0  0
  8 39  1  0  0  0  0
  9 10  1  0  0  0  0
  9 22  1  0  0  0  0
  9 40  1  0  0  0  0
 10 11  1  0  0  0  0
 10 41  1  0  0  0  0
 11 12  2  0  0  0  0
 11 13  1  0  0  0  0
 13 14  1  0  0  0  0
 13 42  1  0  0  0  0
 13 43  1  0  0  0  0
 14 20  1  0  0  0  0
 14 15  1  0  0  0  0
 15 16  2  0  0  0  0
 15 44  1  0  0  0  0
 16 17  1  0  0  0  0
 16 45  1  0  0  0  0
 17 18  2  0  0  0  0
 17 19  1  0  0  0  0
 19 23  1  0  0  0  0
 19 20  1  0  0  0  0
 20 21  2  0  0  0  0
 22 46  1  0  0  0  0
 22 47  1  0  0  0  0
M  END
> <s_m_source_file>
AV-unprocessed.smi

> <i_m_source_file_index>
2855

> <i_lp_mmshare_version>
43012

> <i_f3d_flags>
0

> <s_epik_input>
W0NIM11bQ0BASF0xW0NIMl1bQ0gyXVtDQEBIXShbQ0hdKFtDSDNdKVtDSDNdKVtDQEhdKFtDSDJdMSlbTkhdQyg9TylbQ0gyXW4yW2NIXVtjSF1jKD1PKVtuSF1jMj1P

> <s_epik_cmdline>
J2VwaWtfcHl0aG9uJywgJy1waCcsICc3LjAnLCAnLXRuJywgJzgnLCAnLW1hJywgJzIwMCcsICctbWV0YWxfYmluZGluZycsICctaW1hZScsICc8aW5maWxlLm1hZT4nLCAnLW9tYWUnLCAnPG91dGZpbGUubWFlPic=

> <r_lp_tautomer_probability>
0.999537

> <r_epik_Ionization_Penalty>
0.00306256

> <r_epik_Ionization_Penalty_Charging>
0.00306254

> <r_epik_Ionization_Penalty_Neutral>
2.0223e-08

> <r_epik_State_Penalty>
0.0021533

> <r_epik_Charging_Adjusted_Penalty>
0.00521583

> <i_epik_Tot_Q>
0

> <i_epik_Tot_abs_Q>
0

> <r_epik_Metal_State_Penalty>
0.362116

> <b_epik_Metal_Only>
0

> <s_lp_Force_Field>
OPLS_2005

> <r_lp_Energy>
12.8991

> <b_lp_Chiralities_Consistent>
1

> <s_lp_Variant>
AV-unprocessed.smi:2855-1

> <Gold.Version>
5.8.1

> <Gold.Id.Protein>
6NUR|6NUR_protein|mol2

> <Gold.PLP.Fitness>
38.9238

> <Gold.PLP.PLP>
-33.7236

> <Gold.PLP.part.hbond>
-2.0000

> <Gold.PLP.part.metal>
0.0000

> <Gold.PLP.part.buried>
-4.8627

> <Gold.PLP.part.nonpolar>
-26.9271

> <Gold.PLP.part.repulsive>
0.0978

> <Gold.PLP.ligand.clash>
0.0000

> <Gold.PLP.ligand.torsion>
0.4233

> <Gold.PLP.Chemscore.Hbond>
2.0000

> <Gold.PLP.Chemscore.CHOScore>
0.0000

> <Gold.PLP.Chemscore.Metal>
0.0000

> <Gold.Chemscore.Hbonds>
donor molecule, donor type, donor heavy atom, donor atom, acceptor molecule, acceptor atom, score
      P1  H  6896  6908       L1    21  1.00
      P1  H  7997  8008       L1    12  1.00

> <Gold.PLP.Chemscore.Internal.Correction>
0.0468

> <Gold.Rescore>
     Score         DG    S(hbond)    S(metal)    S(lipo)     H(rot)  DE(clash)    DE(int)     intcor
     17.75     -18.13       1.98        0.00      92.25       1.85       0.02       0.36       ----

> <Gold.Chemscore.Fitness>
17.7539

> <Gold.Chemscore.DG>
-18.1338

> <Gold.Chemscore.ZeroCoef>
-5.4800

> <Gold.Chemscore.Hbond>
1.9781

> <Gold.Chemscore.Metal>
0.0000

> <Gold.Chemscore.Lipo>
92.2478

> <Gold.Chemscore.Internal_Hbond>
0.0000

> <Gold.Chemscore.DEClash>
0.0183

> <Gold.Chemscore.DEInternal>
0.3617

> <Gold.Chemscore.Rot>
1.8539

> <Gold.Chemscore.Internal.Correction>
   9.000000E+99

> <Gold.Chemscore.Hbonds>
donor molecule, donor type, donor heavy atom, donor atom, acceptor molecule, acceptor atom, score
      P1  H  6896  6908       L1    21  1.00
      P1  H  7997  8008       L1    12  0.75

> <Gold.Chemscore.Hbond.Weighted>
-6.6069

> <Gold.Chemscore.Metal.Weighted>
-0.0000

> <Gold.Chemscore.Lipo.Weighted>
-10.7930

> <Gold.Chemscore.Internal_Hbond.Weighted>
0.0000

> <Gold.Chemscore.DEClash.Weighted>
0.0183

> <Gold.Chemscore.DEInternal.Weighted>
0.3617

> <Gold.Chemscore.Rot.Weighted>
4.7460

> <Gold.Chemscore.Internal.Correction.Weighted>
   9.000000E+99

> <Gold.Protein.RotatedTorsions>
[ 6907 6896 6895 6894 ] final  -51.21 input  -60.11 | X-H torsion
[ 7974 7965 7964 7962 ] final   80.35 input  175.53 | X-H torsion
[ 8008 7997 7996 7995 ] final  -74.32 input   59.86 | X-H torsion
[ 10167 10162 10161 10158 ] final   13.78 input  -65.29 | X-H torsion
[ 10718 10713 10712 10709 ] final -146.48 input   66.30 | X-H torsion
[ 10763 10752 10751 10750 ] final   92.90 input  -60.55 | X-H torsion
[ 11005 11000 10999 10996 ] final   76.81 input  -57.11 | X-H torsion

> <Gold.Protein.ActiveResidues>
 VAL166  LYS551  ARG553  GLY616  TRP617  ASP618  TYR619  PRO620  LYS621  CYS622 
 ASP623  PHE694  ASN695  SER759  ASP760  ASP761  ALA762  ILE779  LEU786  VAL792 
 PHE793  MET794  SER795  GLU796  ALA797  LYS798  CYS799  TRP800  GLU811  SER814 

> <Gold.Protein.RotatedAtoms>
  150.8633  134.7990  159.7099 H   0  0  0  0  0  0  0  0  0  0  0  0  # atno 6907 bound_to 6896
  152.4663  134.5065  159.9750 H   0  0  0  0  0  0  0  0  0  0  0  0  # atno 6908 bound_to 6896
  151.5165  133.3436  159.2929 H   0  0  0  0  0  0  0  0  0  0  0  0  # atno 6909 bound_to 6896
  145.6523  139.2450  143.1970 H   0  0  0  0  0  0  0  0  0  0  0  0  # atno 7974 bound_to 7965
  154.5321  140.0763  156.8363 H   0  0  0  0  0  0  0  0  0  0  0  0  # atno 8008 bound_to 7997
  155.3353  140.3404  155.4221 H   0  0  0  0  0  0  0  0  0  0  0  0  # atno 8009 bound_to 7997
  156.1792  140.1646  156.8293 H   0  0  0  0  0  0  0  0  0  0  0  0  # atno 8010 bound_to 7997
  140.5980  143.8662  150.6937 H   0  0  0  0  0  0  0  0  0  0  0  0  # atno 10167 bound_to 10162
  156.3955  130.7907  151.2113 H   0  0  0  0  0  0  0  0  0  0  0  0  # atno 10718 bound_to 10713
  153.2242  135.4345  155.0524 H   0  0  0  0  0  0  0  0  0  0  0  0  # atno 10763 bound_to 10752
  154.8265  135.3364  154.6882 H   0  0  0  0  0  0  0  0  0  0  0  0  # atno 10764 bound_to 10752
  153.7312  135.7011  153.5045 H   0  0  0  0  0  0  0  0  0  0  0  0  # atno 10765 bound_to 10752
  139.9282  134.7631  156.1442 H   0  0  0  0  0  0  0  0  0  0  0  0  # atno 11005 bound_to 11000
  146.1193  140.7329  142.9465 LP  0  0  0  0  0  0  0  0  0  0  0  0  # atno 17320 bound_to 7965
  144.7118  140.4067  143.7074 LP  0  0  0  0  0  0  0  0  0  0  0  0  # atno 17321 bound_to 7965
  140.2201  143.3815  152.1649 LP  0  0  0  0  0  0  0  0  0  0  0  0  # atno 17342 bound_to 10162
  139.5271  144.7116  151.5189 LP  0  0  0  0  0  0  0  0  0  0  0  0  # atno 17343 bound_to 10162
  157.7501  131.0303  150.4130 LP  0  0  0  0  0  0  0  0  0  0  0  0  # atno 17370 bound_to 10713
  156.4399  130.3989  149.6704 LP  0  0  0  0  0  0  0  0  0  0  0  0  # atno 17371 bound_to 10713
  141.0854  133.6736  156.2424 LP  0  0  0  0  0  0  0  0  0  0  0  0  # atno 17394 bound_to 11000
  140.6276  134.5297  157.5555 LP  0  0  0  0  0  0  0  0  0  0  0  0  # atno 17395 bound_to 11000

$$$$
