AV-unprocessed.smi:610|AV-procd|sdf|3054|dock10
  -GOLD-   2262023573D 1   1.00000     0.00000
 Structure written by MMmdl.
 39 40  0  0  0  0  0  0  0  0  3 V2000
  144.5336  137.2239  152.5407 C   0  0  0  0  0  0  0  0  0  0  0  0
  145.8505  136.5018  152.8559 C   0  0  1  0  0  0  0  0  0  0  0  0
  146.2401  135.5355  151.7164 C   0  0  0  0  0  0  0  0  0  0  0  0
  145.1233  134.6977  151.2651 N   0  0  0  0  0  0  0  0  0  0  0  0
  144.8575  133.4021  151.6280 C   0  0  0  0  0  0  0  0  0  0  0  0
  143.7208  133.0333  150.9558 C   0  0  0  0  0  0  0  0  0  0  0  0
  143.3363  134.1207  150.2181 N   0  3  0  0  0  0  0  0  0  0  0  0
  144.1862  135.1341  150.4132 C   0  0  0  0  0  0  0  0  0  0  0  0
  146.8935  137.5029  153.0777 N   0  0  0  0  0  0  0  0  0  0  0  0
  146.7623  138.6425  153.7791 C   0  0  0  0  0  0  0  0  0  0  0  0
  145.7039  138.9652  154.3193 O   0  0  0  0  0  0  0  0  0  0  0  0
  147.9872  139.5814  153.8915 C   0  0  0  0  0  0  0  0  0  0  0  0
  149.1262  138.8898  153.2599 N   0  3  0  0  0  0  0  0  0  0  0  0
  147.7104  140.9361  153.2123 C   0  0  0  0  0  0  0  0  0  0  0  0
  147.0032  141.7948  154.2718 C   0  0  0  0  0  0  0  0  0  0  0  0
  147.3659  141.1817  155.6336 C   0  0  0  0  0  0  0  0  0  0  0  0
  148.3295  140.0276  155.3282 C   0  0  0  0  0  0  0  0  0  0  0  0
  143.7195  136.5120  152.4011 H   0  0  0  0  0  0  0  0  0  0  0  0
  144.6139  137.8184  151.6298 H   0  0  0  0  0  0  0  0  0  0  0  0
  144.2472  137.8938  153.3522 H   0  0  0  0  0  0  0  0  0  0  0  0
  145.6901  135.9262  153.7695 H   0  0  0  0  0  0  0  0  0  0  0  0
  146.5852  136.0970  150.8474 H   0  0  0  0  0  0  0  0  0  0  0  0
  147.0647  134.8883  152.0204 H   0  0  0  0  0  0  0  0  0  0  0  0
  145.4840  132.8512  152.3146 H   0  0  0  0  0  0  0  0  0  0  0  0
  143.1705  132.1035  150.9489 H   0  0  0  0  0  0  0  0  0  0  0  0
  144.1295  136.1099  149.9645 H   0  0  0  0  0  0  0  0  0  0  0  0
  147.7926  137.3119  152.6590 H   0  0  0  0  0  0  0  0  0  0  0  0
  149.8014  138.6322  153.9653 H   0  0  0  0  0  0  0  0  0  0  0  0
  149.5589  139.5078  152.5880 H   0  0  0  0  0  0  0  0  0  0  0  0
  148.6539  141.4131  152.9419 H   0  0  0  0  0  0  0  0  0  0  0  0
  147.1249  140.8611  152.2949 H   0  0  0  0  0  0  0  0  0  0  0  0
  147.3123  142.8383  154.2019 H   0  0  0  0  0  0  0  0  0  0  0  0
  145.9231  141.7667  154.1263 H   0  0  0  0  0  0  0  0  0  0  0  0
  147.8161  141.9118  156.3071 H   0  0  0  0  0  0  0  0  0  0  0  0
  146.4653  140.8029  156.1188 H   0  0  0  0  0  0  0  0  0  0  0  0
  148.2825  139.2332  156.0741 H   0  0  0  0  0  0  0  0  0  0  0  0
  149.3512  140.4106  155.3553 H   0  0  0  0  0  0  0  0  0  0  0  0
  148.7976  138.0602  152.7870 H   0  0  0  0  0  0  0  0  0  0  0  0
  142.5227  134.1566  149.6165 H   0  0  0  0  0  0  0  0  0  0  0  0
  1  2  1  0  0  0  0
  1 18  1  0  0  0  0
  1 19  1  0  0  0  0
  1 20  1  0  0  0  0
  2  3  1  0  0  0  0
  2  9  1  0  0  0  0
  2 21  1  0  0  0  0
  3  4  1  0  0  0  0
  3 22  1  0  0  0  0
  3 23  1  0  0  0  0
  4  8  1  0  0  0  0
  4  5  1  0  0  0  0
  5  6  2  0  0  0  0
  5 24  1  0  0  0  0
  6  7  1  0  0  0  0
  6 25  1  0  0  0  0
  7  8  2  0  0  0  0
  7 39  1  0  0  0  0
  8 26  1  0  0  0  0
  9 10  1  0  0  0  0
  9 27  1  0  0  0  0
 10 11  2  0  0  0  0
 10 12  1  0  0  0  0
 12 17  1  0  0  0  0
 12 13  1  0  0  0  0
 12 14  1  0  0  0  0
 13 28  1  0  0  0  0
 13 29  1  0  0  0  0
 13 38  1  0  0  0  0
 14 15  1  0  0  0  0
 14 30  1  0  0  0  0
 14 31  1  0  0  0  0
 15 16  1  0  0  0  0
 15 32  1  0  0  0  0
 15 33  1  0  0  0  0
 16 17  1  0  0  0  0
 16 34  1  0  0  0  0
 16 35  1  0  0  0  0
 17 36  1  0  0  0  0
 17 37  1  0  0  0  0
M  CHG  1   7   1
M  CHG  1  13   1
M  END
> <s_m_source_file>
AV-unprocessed.smi

> <i_m_source_file_index>
610

> <i_lp_mmshare_version>
43012

> <i_f3d_flags>
0

> <s_epik_input>
W2NIXTFuW2NIXVtjSF1uMVtDSDJdW0NAQEhdKFtDSDNdKVtOSF1DKD1PKUMyKFtOSDJdKVtDSDJdW0NIMl1bQ0gyXVtDSDJdMg==

> <s_epik_cmdline>
J2VwaWtfcHl0aG9uJywgJy1waCcsICc3LjAnLCAnLXRuJywgJzgnLCAnLW1hJywgJzIwMCcsICctbWV0YWxfYmluZGluZycsICctaW1hZScsICc8aW5maWxlLm1hZT4nLCAnLW9tYWUnLCAnPG91dGZpbGUubWFlPic=

> <r_lp_tautomer_probability>
1

> <r_epik_Ionization_Penalty>
0.349719

> <r_epik_Ionization_Penalty_Charging>
0.0753376

> <r_epik_Ionization_Penalty_Neutral>
0.274381

> <r_epik_State_Penalty>
0.326418

> <r_epik_Charging_Adjusted_Penalty>
0.401755

> <i_epik_Tot_Q>
2

> <i_epik_Tot_abs_Q>
2

> <r_epik_Metal_State_Penalty>
0.608513

> <b_epik_Metal_Only>
0

> <s_lp_Force_Field>
OPLS_2005

> <r_lp_Energy>
30.9651

> <b_lp_Chiralities_Consistent>
1

> <s_lp_Variant>
AV-unprocessed.smi:610-2

> <Gold.Version>
5.8.1

> <Gold.Id.Protein>
6NUR|6NUR_protein|mol2

> <Gold.PLP.Fitness>
42.8569

> <Gold.PLP.PLP>
-23.3867

> <Gold.PLP.part.hbond>
-3.6321

> <Gold.PLP.part.metal>
0.0000

> <Gold.PLP.part.buried>
0.7986

> <Gold.PLP.part.nonpolar>
-20.6870

> <Gold.PLP.part.repulsive>
0.2546

> <Gold.PLP.ligand.clash>
0.0000

> <Gold.PLP.ligand.torsion>
0.7176

> <Gold.PLP.Chemscore.Hbond>
5.9515

> <Gold.PLP.Chemscore.CHOScore>
0.9975

> <Gold.PLP.Chemscore.Metal>
0.0000

> <Gold.Chemscore.Hbonds>
donor molecule, donor type, donor heavy atom, donor atom, acceptor molecule, acceptor atom, score
      L1  H     7    39       P1 10186  1.82
      L1  H     9    27       P1  7948  1.00
      L1  H    13    29       P1  7957  0.94
      L1  H    13    38       P1  7948  2.00
      L1  C     8    26       P1 10171  1.00

> <Gold.PLP.Chemscore.Internal.Correction>
0.0587

> <Gold.Rescore>
     Score         DG    S(hbond)    S(metal)    S(lipo)     H(rot)  DE(clash)    DE(int)     intcor
     15.16     -18.28       3.75        0.00      47.64       2.06       0.20       2.92       ----

> <Gold.Chemscore.Fitness>
15.1622

> <Gold.Chemscore.DG>
-18.2837

> <Gold.Chemscore.ZeroCoef>
-5.4800

> <Gold.Chemscore.Hbond>
3.7468

> <Gold.Chemscore.Metal>
0.0000

> <Gold.Chemscore.Lipo>
47.6408

> <Gold.Chemscore.Internal_Hbond>
0.0000

> <Gold.Chemscore.DEClash>
0.1991

> <Gold.Chemscore.DEInternal>
2.9223

> <Gold.Chemscore.Rot>
2.0644

> <Gold.Chemscore.Internal.Correction>
   9.000000E+99

> <Gold.Chemscore.Hbonds>
donor molecule, donor type, donor heavy atom, donor atom, acceptor molecule, acceptor atom, score
      L1  H     7    39       P1 10186  0.84
      L1  H     9    27       P1  7948  0.97
      L1  H    13    29       P1  7957  0.84
      L1  H    13    38       P1  7948  0.92

> <Gold.Chemscore.Hbond.Weighted>
-12.5144

> <Gold.Chemscore.Metal.Weighted>
-0.0000

> <Gold.Chemscore.Lipo.Weighted>
-5.5740

> <Gold.Chemscore.Internal_Hbond.Weighted>
0.0000

> <Gold.Chemscore.DEClash.Weighted>
0.1991

> <Gold.Chemscore.DEInternal.Weighted>
2.9223

> <Gold.Chemscore.Rot.Weighted>
5.2848

> <Gold.Chemscore.Internal.Correction.Weighted>
   9.000000E+99

> <Gold.Protein.RotatedTorsions>
[ 6907 6896 6895 6894 ] final  -50.81 input  -60.11 | X-H torsion
[ 7974 7965 7964 7962 ] final -138.87 input  175.53 | X-H torsion
[ 8008 7997 7996 7995 ] final  135.10 input   59.86 | X-H torsion
[ 10167 10162 10161 10158 ] final  -55.04 input  -65.29 | X-H torsion
[ 10718 10713 10712 10709 ] final -151.71 input   66.30 | X-H torsion
[ 10763 10752 10751 10750 ] final -120.47 input  -60.55 | X-H torsion
[ 11005 11000 10999 10996 ] final -157.83 input  -57.11 | X-H torsion

> <Gold.Protein.ActiveResidues>
 VAL166  LYS551  ARG553  GLY616  TRP617  ASP618  TYR619  PRO620  LYS621  CYS622 
 ASP623  PHE694  ASN695  SER759  ASP760  ASP761  ALA762  ILE779  LEU786  VAL792 
 PHE793  MET794  SER795  GLU796  ALA797  LYS798  CYS799  TRP800  GLU811  SER814 

> <Gold.Protein.RotatedAtoms>
  150.8671  134.8037  159.7126 H   0  0  0  0  0  0  0  0  0  0  0  0  # atno 6907 bound_to 6896
  152.4689  134.5006  159.9733 H   0  0  0  0  0  0  0  0  0  0  0  0  # atno 6908 bound_to 6896
  151.5100  133.3448  159.2919 H   0  0  0  0  0  0  0  0  0  0  0  0  # atno 6909 bound_to 6896
  144.8723  140.6385  143.5259 H   0  0  0  0  0  0  0  0  0  0  0  0  # atno 7974 bound_to 7965
  156.3002  140.2479  156.3527 H   0  0  0  0  0  0  0  0  0  0  0  0  # atno 8008 bound_to 7997
  154.8951  140.0408  157.1880 H   0  0  0  0  0  0  0  0  0  0  0  0  # atno 8009 bound_to 7997
  154.8558  140.2913  155.5574 H   0  0  0  0  0  0  0  0  0  0  0  0  # atno 8010 bound_to 7997
  140.6397  143.2501  151.5023 H   0  0  0  0  0  0  0  0  0  0  0  0  # atno 10167 bound_to 10162
  156.4629  130.8222  151.2452 H   0  0  0  0  0  0  0  0  0  0  0  0  # atno 10718 bound_to 10713
  154.8645  135.4202  154.2465 H   0  0  0  0  0  0  0  0  0  0  0  0  # atno 10763 bound_to 10752
  153.3420  135.6994  153.6865 H   0  0  0  0  0  0  0  0  0  0  0  0  # atno 10764 bound_to 10752
  153.5840  135.3567  155.2858 H   0  0  0  0  0  0  0  0  0  0  0  0  # atno 10765 bound_to 10752
  140.6603  134.4357  157.5234 H   0  0  0  0  0  0  0  0  0  0  0  0  # atno 11005 bound_to 11000
  145.4108  139.1580  143.4127 LP  0  0  0  0  0  0  0  0  0  0  0  0  # atno 17320 bound_to 7965
  146.2938  140.4212  142.8729 LP  0  0  0  0  0  0  0  0  0  0  0  0  # atno 17321 bound_to 7965
  139.5606  144.2165  152.1685 LP  0  0  0  0  0  0  0  0  0  0  0  0  # atno 17342 bound_to 10162
  140.1432  144.5183  150.6731 LP  0  0  0  0  0  0  0  0  0  0  0  0  # atno 17343 bound_to 10162
  157.7496  131.0101  150.3294 LP  0  0  0  0  0  0  0  0  0  0  0  0  # atno 17370 bound_to 10713
  156.3698  130.3861  149.7185 LP  0  0  0  0  0  0  0  0  0  0  0  0  # atno 17371 bound_to 10713
  139.9015  134.8545  156.1876 LP  0  0  0  0  0  0  0  0  0  0  0  0  # atno 17394 bound_to 11000
  141.0470  133.6908  156.1702 LP  0  0  0  0  0  0  0  0  0  0  0  0  # atno 17395 bound_to 11000

$$$$
