AV-unprocessed.smi:2560|AV-procd|sdf|10039|dock9
  -GOLD-   2272014 83D 1   1.00000     0.00000
 Structure written by MMmdl.
 31 32  0  0  0  0  0  0  0  0  1 V2000
  151.6017  130.1206  155.4228 C   0  0  0  0  0  0  0  0  0  0  0  0
  151.5546  131.2021  156.8777 S   0  0  0  0  0  0  0  0  0  0  0  0
  150.4792  132.5347  156.4554 C   0  0  0  0  0  0  0  0  0  0  0  0
  150.1221  133.4458  157.3786 N   0  0  0  0  0  0  0  0  0  0  0  0
  149.0972  134.5764  156.6509 S   0  0  0  0  0  0  0  0  0  0  0  0
  149.2137  133.7467  155.1271 C   0  0  0  0  0  0  0  0  0  0  0  0
  148.5413  134.2005  153.9553 N   0  0  0  0  0  0  0  0  0  0  0  0
  147.4672  133.7097  153.3002 C   0  0  0  0  0  0  0  0  0  0  0  0
  146.8892  132.6993  153.6965 O   0  0  0  0  0  0  0  0  0  0  0  0
  147.0791  134.3879  152.2074 N   0  0  0  0  0  0  0  0  0  0  0  0
  145.9470  134.0563  151.3503 C   0  0  1  0  0  0  0  0  0  0  0  0
  146.3105  132.8555  150.4908 C   0  0  0  0  0  0  0  0  0  0  0  0
  145.4905  131.8128  150.2750 C   0  0  0  0  0  0  0  0  0  0  0  0
  144.0905  131.7160  150.8515 C   0  0  0  0  0  0  0  0  0  0  0  0
  143.5898  133.0703  151.3830 C   0  0  0  0  0  0  0  0  0  0  0  0
  144.6742  133.7990  152.1911 C   0  0  0  0  0  0  0  0  0  0  0  0
  149.9969  132.6711  155.2077 N   0  0  0  0  0  0  0  0  0  0  0  0
  152.2555  129.2688  155.6090 H   0  0  0  0  0  0  0  0  0  0  0  0
  151.9776  130.6617  154.5544 H   0  0  0  0  0  0  0  0  0  0  0  0
  150.6031  129.7470  155.1952 H   0  0  0  0  0  0  0  0  0  0  0  0
  148.9525  135.0185  153.5293 H   0  0  0  0  0  0  0  0  0  0  0  0
  147.6137  135.2063  151.9532 H   0  0  0  0  0  0  0  0  0  0  0  0
  145.7674  134.8851  150.6634 H   0  0  0  0  0  0  0  0  0  0  0  0
  147.2924  132.8595  150.0402 H   0  0  0  0  0  0  0  0  0  0  0  0
  145.8265  130.9827  149.6715 H   0  0  0  0  0  0  0  0  0  0  0  0
  143.4099  131.3436  150.0855 H   0  0  0  0  0  0  0  0  0  0  0  0
  144.1039  130.9765  151.6526 H   0  0  0  0  0  0  0  0  0  0  0  0
  143.2904  133.7002  150.5444 H   0  0  0  0  0  0  0  0  0  0  0  0
  142.6970  132.9241  151.9915 H   0  0  0  0  0  0  0  0  0  0  0  0
  144.9238  133.1917  153.0626 H   0  0  0  0  0  0  0  0  0  0  0  0
  144.2825  134.7410  152.5766 H   0  0  0  0  0  0  0  0  0  0  0  0
  1  2  1  0  0  0  0
  1 18  1  0  0  0  0
  1 19  1  0  0  0  0
  1 20  1  0  0  0  0
  2  3  1  0  0  0  0
  3 17  1  0  0  0  0
  3  4  2  0  0  0  0
  4  5  1  0  0  0  0
  5  6  1  0  0  0  0
  6  7  1  0  0  0  0
  6 17  2  0  0  0  0
  7  8  1  0  0  0  0
  7 21  1  0  0  0  0
  8  9  2  0  0  0  0
  8 10  1  0  0  0  0
 10 11  1  0  0  0  0
 10 22  1  0  0  0  0
 11 16  1  0  0  0  0
 11 12  1  0  0  0  0
 11 23  1  0  0  0  0
 12 13  2  0  0  0  0
 12 24  1  0  0  0  0
 13 14  1  0  0  0  0
 13 25  1  0  0  0  0
 14 15  1  0  0  0  0
 14 26  1  0  0  0  0
 14 27  1  0  0  0  0
 15 16  1  0  0  0  0
 15 28  1  0  0  0  0
 15 29  1  0  0  0  0
 16 30  1  0  0  0  0
 16 31  1  0  0  0  0
M  END
> <s_m_source_file>
AV-unprocessed.smi

> <i_m_source_file_index>
2560

> <i_lp_mmshare_version>
43012

> <i_f3d_flags>
0

> <s_epik_input>
W0NIM11TYzFuc2MobjEpW05IXUMoPU8pW05IXVtDQEBIXTJbQ0hdPVtDSF1bQ0gyXVtDSDJdW0NIMl0y

> <s_epik_cmdline>
J2VwaWtfcHl0aG9uJywgJy1waCcsICc3LjAnLCAnLXRuJywgJzgnLCAnLW1hJywgJzIwMCcsICctbWV0YWxfYmluZGluZycsICctaW1hZScsICc8aW5maWxlLm1hZT4nLCAnLW9tYWUnLCAnPG91dGZpbGUubWFlPic=

> <r_lp_tautomer_probability>
1

> <r_epik_Ionization_Penalty>
2.65559e-05

> <r_epik_Ionization_Penalty_Charging>
0

> <r_epik_Ionization_Penalty_Neutral>
2.65559e-05

> <r_epik_State_Penalty>
-0

> <r_epik_Charging_Adjusted_Penalty>
0

> <i_epik_Tot_Q>
0

> <i_epik_Tot_abs_Q>
0

> <r_epik_Metal_State_Penalty>
-0

> <b_epik_Metal_Only>
0

> <s_lp_Force_Field>
OPLS_2005

> <r_lp_Energy>
8.24661

> <b_lp_Chiralities_Consistent>
1

> <s_lp_Variant>
AV-unprocessed.smi:2560-2

> <Gold.Version>
5.8.1

> <Gold.Id.Protein>
6NUR|6NUR_protein|mol2

> <Gold.PLP.Fitness>
35.5036

> <Gold.PLP.PLP>
-28.6951

> <Gold.PLP.part.hbond>
-3.0000

> <Gold.PLP.part.metal>
0.0000

> <Gold.PLP.part.buried>
-4.4333

> <Gold.PLP.part.nonpolar>
-22.1326

> <Gold.PLP.part.repulsive>
0.1132

> <Gold.PLP.ligand.clash>
0.0000

> <Gold.PLP.ligand.torsion>
0.8814

> <Gold.PLP.Chemscore.Hbond>
2.8548

> <Gold.PLP.Chemscore.CHOScore>
0.0000

> <Gold.PLP.Chemscore.Metal>
0.0000

> <Gold.Chemscore.Hbonds>
donor molecule, donor type, donor heavy atom, donor atom, acceptor molecule, acceptor atom, score
      L1  H     7    21       P1  7948  0.90
      L1  H    10    22       P1  7948  1.00
      P1  H  6896  6908       L1     4  0.99

> <Gold.PLP.Chemscore.Internal.Correction>
0.0071

> <Gold.Rescore>
     Score         DG    S(hbond)    S(metal)    S(lipo)     H(rot)  DE(clash)    DE(int)     intcor
     15.65     -17.32       2.41        0.00      59.77       1.25       0.09       1.58       ----

> <Gold.Chemscore.Fitness>
15.6527

> <Gold.Chemscore.DG>
-17.3221

> <Gold.Chemscore.ZeroCoef>
-5.4800

> <Gold.Chemscore.Hbond>
2.4117

> <Gold.Chemscore.Metal>
0.0000

> <Gold.Chemscore.Lipo>
59.7712

> <Gold.Chemscore.Internal_Hbond>
0.0000

> <Gold.Chemscore.DEClash>
0.0901

> <Gold.Chemscore.DEInternal>
1.5793

> <Gold.Chemscore.Rot>
1.2524

> <Gold.Chemscore.Internal.Correction>
   9.000000E+99

> <Gold.Chemscore.Hbonds>
donor molecule, donor type, donor heavy atom, donor atom, acceptor molecule, acceptor atom, score
      L1  H     7    21       P1  7948  0.37
      L1  H    10    22       P1  7948  0.93
      P1  H  6896  6908       L1     4  0.87

> <Gold.Chemscore.Hbond.Weighted>
-8.0550

> <Gold.Chemscore.Metal.Weighted>
-0.0000

> <Gold.Chemscore.Lipo.Weighted>
-6.9932

> <Gold.Chemscore.Internal_Hbond.Weighted>
0.0000

> <Gold.Chemscore.DEClash.Weighted>
0.0901

> <Gold.Chemscore.DEInternal.Weighted>
1.5793

> <Gold.Chemscore.Rot.Weighted>
3.2062

> <Gold.Chemscore.Internal.Correction.Weighted>
   9.000000E+99

> <Gold.Protein.RotatedTorsions>
[ 6907 6896 6895 6894 ] final  101.24 input  -60.11 | X-H torsion
[ 7974 7965 7964 7962 ] final  -93.81 input  175.53 | X-H torsion
[ 8008 7997 7996 7995 ] final  -40.19 input   59.86 | X-H torsion
[ 10167 10162 10161 10158 ] final -118.53 input  -65.29 | X-H torsion
[ 10718 10713 10712 10709 ] final   99.53 input   66.30 | X-H torsion
[ 10763 10752 10751 10750 ] final   -8.28 input  -60.55 | X-H torsion
[ 11005 11000 10999 10996 ] final -109.59 input  -57.11 | X-H torsion

> <Gold.Protein.ActiveResidues>
 VAL166  LYS551  ARG553  GLY616  TRP617  ASP618  TYR619  PRO620  LYS621  CYS622 
 ASP623  PHE694  ASN695  SER759  ASP760  ASP761  ALA762  ILE779  LEU786  VAL792 
 PHE793  MET794  SER795  GLU796  ALA797  LYS798  CYS799  TRP800  GLU811  SER814 

> <Gold.Protein.RotatedAtoms>
  152.5354  134.0156  159.7957 H   0  0  0  0  0  0  0  0  0  0  0  0  # atno 6907 bound_to 6896
  151.0351  133.5748  159.2664 H   0  0  0  0  0  0  0  0  0  0  0  0  # atno 6908 bound_to 6896
  151.2738  135.0700  159.9198 H   0  0  0  0  0  0  0  0  0  0  0  0  # atno 6909 bound_to 6896
  145.3816  140.9518  143.2390 H   0  0  0  0  0  0  0  0  0  0  0  0  # atno 7974 bound_to 7965
  154.4014  140.1532  156.2986 H   0  0  0  0  0  0  0  0  0  0  0  0  # atno 8008 bound_to 7997
  155.8721  140.3448  155.5806 H   0  0  0  0  0  0  0  0  0  0  0  0  # atno 8009 bound_to 7997
  155.7763  140.0837  157.2073 H   0  0  0  0  0  0  0  0  0  0  0  0  # atno 8010 bound_to 7997
  140.0565  143.5009  152.2054 H   0  0  0  0  0  0  0  0  0  0  0  0  # atno 10167 bound_to 10162
  157.6874  131.0672  150.4963 H   0  0  0  0  0  0  0  0  0  0  0  0  # atno 10718 bound_to 10713
  153.4382  135.7013  153.6186 H   0  0  0  0  0  0  0  0  0  0  0  0  # atno 10763 bound_to 10752
  153.4572  135.3744  155.2318 H   0  0  0  0  0  0  0  0  0  0  0  0  # atno 10764 bound_to 10752
  154.8727  135.4011  154.3776 H   0  0  0  0  0  0  0  0  0  0  0  0  # atno 10765 bound_to 10752
  141.0839  133.9173  157.2229 H   0  0  0  0  0  0  0  0  0  0  0  0  # atno 11005 bound_to 11000
  144.8503  139.5331  143.6859 LP  0  0  0  0  0  0  0  0  0  0  0  0  # atno 17320 bound_to 7965
  146.2839  139.6952  142.9209 LP  0  0  0  0  0  0  0  0  0  0  0  0  # atno 17321 bound_to 7965
  139.5920  144.7553  151.3377 LP  0  0  0  0  0  0  0  0  0  0  0  0  # atno 17342 bound_to 10162
  140.7192  143.7182  150.7716 LP  0  0  0  0  0  0  0  0  0  0  0  0  # atno 17343 bound_to 10162
  156.5287  130.4179  149.6213 LP  0  0  0  0  0  0  0  0  0  0  0  0  # atno 17370 bound_to 10713
  156.3089  130.7218  151.2106 LP  0  0  0  0  0  0  0  0  0  0  0  0  # atno 17371 bound_to 10713
  139.9655  135.0143  156.9375 LP  0  0  0  0  0  0  0  0  0  0  0  0  # atno 17394 bound_to 11000
  140.5407  134.0722  155.7341 LP  0  0  0  0  0  0  0  0  0  0  0  0  # atno 17395 bound_to 11000

$$$$
