AV-unprocessed.smi:2076|AV-procd|sdf|8458|dock8
  -GOLD-   2272011153D 1   1.00000     0.00000
 Structure written by MMmdl.
 44 45  0  0  0  0  0  0  0  0  1 V2000
  150.7152  144.9139  159.4866 C   0  0  0  0  0  0  0  0  0  0  0  0
  151.5557  143.8545  160.1358 C   0  0  0  0  0  0  0  0  0  0  0  0
  151.9378  143.7462  161.5022 C   0  0  0  0  0  0  0  0  0  0  0  0
  152.6922  142.6080  161.5531 C   0  0  0  0  0  0  0  0  0  0  0  0
  153.3757  141.9578  162.7109 C   0  0  0  0  0  0  0  0  0  0  0  0
  152.7344  142.0967  160.2678 N   0  0  0  0  0  0  0  0  0  0  0  0
  153.3958  140.8975  159.7773 C   0  0  0  0  0  0  0  0  0  0  0  0
  152.4419  140.0406  158.9440 C   0  0  0  0  0  0  0  0  0  0  0  0
  152.2815  138.8516  159.2181 O   0  0  0  0  0  0  0  0  0  0  0  0
  151.8165  140.6570  157.9308 N   0  0  0  0  0  0  0  0  0  0  0  0
  150.8687  140.0176  157.0257 C   0  0  0  0  0  0  0  0  0  0  0  0
  151.2600  140.2044  155.5337 C   0  0  1  0  0  0  0  0  0  0  0  0
  152.3653  139.1780  155.1760 C   0  0  0  0  0  0  0  0  0  0  0  0
  150.1038  140.1412  154.6091 N   0  0  0  0  0  0  0  0  0  0  0  0
  149.0834  141.1502  154.9170 C   0  0  0  0  0  0  0  0  0  0  0  0
  147.8655  141.0762  153.9798 C   0  0  0  0  0  0  0  0  0  0  0  0
  147.2978  139.7749  154.0333 O   0  0  0  0  0  0  0  0  0  0  0  0
  148.2325  138.7710  153.6637 C   0  0  0  0  0  0  0  0  0  0  0  0
  149.4512  138.8267  154.6011 C   0  0  0  0  0  0  0  0  0  0  0  0
  152.0362  142.8643  159.4018 N   0  0  0  0  0  0  0  0  0  0  0  0
  150.3519  145.6333  160.2208 H   0  0  0  0  0  0  0  0  0  0  0  0
  149.8467  144.4785  158.9916 H   0  0  0  0  0  0  0  0  0  0  0  0
  151.2865  145.4638  158.7385 H   0  0  0  0  0  0  0  0  0  0  0  0
  151.6933  144.4046  162.3225 H   0  0  0  0  0  0  0  0  0  0  0  0
  153.2936  142.5734  163.6066 H   0  0  0  0  0  0  0  0  0  0  0  0
  154.4355  141.8081  162.5056 H   0  0  0  0  0  0  0  0  0  0  0  0
  152.9305  140.9870  162.9286 H   0  0  0  0  0  0  0  0  0  0  0  0
  154.2631  141.1790  159.1776 H   0  0  0  0  0  0  0  0  0  0  0  0
  153.7722  140.3239  160.6249 H   0  0  0  0  0  0  0  0  0  0  0  0
  152.0042  141.6380  157.7820 H   0  0  0  0  0  0  0  0  0  0  0  0
  150.7894  138.9542  157.2590 H   0  0  0  0  0  0  0  0  0  0  0  0
  149.9029  140.4684  157.2480 H   0  0  0  0  0  0  0  0  0  0  0  0
  151.7058  141.1965  155.4453 H   0  0  0  0  0  0  0  0  0  0  0  0
  153.1886  139.1826  155.8896 H   0  0  0  0  0  0  0  0  0  0  0  0
  152.8265  139.3867  154.2118 H   0  0  0  0  0  0  0  0  0  0  0  0
  151.9653  138.1640  155.1469 H   0  0  0  0  0  0  0  0  0  0  0  0
  148.7516  141.0376  155.9502 H   0  0  0  0  0  0  0  0  0  0  0  0
  149.4947  142.1537  154.8243 H   0  0  0  0  0  0  0  0  0  0  0  0
  147.1123  141.8043  154.2810 H   0  0  0  0  0  0  0  0  0  0  0  0
  148.1511  141.3163  152.9546 H   0  0  0  0  0  0  0  0  0  0  0  0
  147.7504  137.7954  153.7274 H   0  0  0  0  0  0  0  0  0  0  0  0
  148.5371  138.9098  152.6250 H   0  0  0  0  0  0  0  0  0  0  0  0
  150.1406  138.0551  154.2647 H   0  0  0  0  0  0  0  0  0  0  0  0
  149.1429  138.5601  155.6131 H   0  0  0  0  0  0  0  0  0  0  0  0
  1  2  1  0  0  0  0
  1 21  1  0  0  0  0
  1 22  1  0  0  0  0
  1 23  1  0  0  0  0
  2 20  2  0  0  0  0
  2  3  1  0  0  0  0
  3  4  2  0  0  0  0
  3 24  1  0  0  0  0
  4  5  1  0  0  0  0
  4  6  1  0  0  0  0
  5 25  1  0  0  0  0
  5 26  1  0  0  0  0
  5 27  1  0  0  0  0
  6  7  1  0  0  0  0
  6 20  1  0  0  0  0
  7  8  1  0  0  0  0
  7 28  1  0  0  0  0
  7 29  1  0  0  0  0
  8  9  2  0  0  0  0
  8 10  1  0  0  0  0
 10 11  1  0  0  0  0
 10 30  1  0  0  0  0
 11 12  1  0  0  0  0
 11 31  1  0  0  0  0
 11 32  1  0  0  0  0
 12 13  1  0  0  0  0
 12 14  1  0  0  0  0
 12 33  1  0  0  0  0
 13 34  1  0  0  0  0
 13 35  1  0  0  0  0
 13 36  1  0  0  0  0
 14 19  1  0  0  0  0
 14 15  1  0  0  0  0
 15 16  1  0  0  0  0
 15 37  1  0  0  0  0
 15 38  1  0  0  0  0
 16 17  1  0  0  0  0
 16 39  1  0  0  0  0
 16 40  1  0  0  0  0
 17 18  1  0  0  0  0
 18 19  1  0  0  0  0
 18 41  1  0  0  0  0
 18 42  1  0  0  0  0
 19 43  1  0  0  0  0
 19 44  1  0  0  0  0
M  END
> <s_m_source_file>
AV-unprocessed.smi

> <i_m_source_file_index>
2076

> <i_lp_mmshare_version>
43012

> <i_f3d_flags>
0

> <s_epik_input>
W0NIM11jMVtjSF1jKFtDSDNdKW4objEpW0NIMl1DKD1PKVtOSF1bQ0gyXVtDQEhdKFtDSDNdKU4yW0NIMl1bQ0gyXU9bQ0gyXVtDSDJdMg==

> <s_epik_cmdline>
J2VwaWtfcHl0aG9uJywgJy1waCcsICc3LjAnLCAnLXRuJywgJzgnLCAnLW1hJywgJzIwMCcsICctbWV0YWxfYmluZGluZycsICctaW1hZScsICc8aW5maWxlLm1hZT4nLCAnLW9tYWUnLCAnPG91dGZpbGUubWFlPic=

> <r_lp_tautomer_probability>
1

> <r_epik_Ionization_Penalty>
0.197284

> <r_epik_Ionization_Penalty_Charging>
0

> <r_epik_Ionization_Penalty_Neutral>
0.197284

> <r_epik_State_Penalty>
0.186684

> <r_epik_Charging_Adjusted_Penalty>
0.186684

> <i_epik_Tot_Q>
0

> <i_epik_Tot_abs_Q>
0

> <r_epik_Metal_State_Penalty>
0.186636

> <b_epik_Metal_Only>
0

> <s_lp_Force_Field>
OPLS_2005

> <r_lp_Energy>
27.1724

> <b_lp_Chiralities_Consistent>
1

> <s_lp_Variant>
AV-unprocessed.smi:2076-2

> <Gold.Version>
5.8.1

> <Gold.Id.Protein>
6NUR|6NUR_protein|mol2

> <Gold.PLP.Fitness>
47.6611

> <Gold.PLP.PLP>
-48.4112

> <Gold.PLP.part.hbond>
-1.0000

> <Gold.PLP.part.metal>
0.0000

> <Gold.PLP.part.buried>
-4.4750

> <Gold.PLP.part.nonpolar>
-43.0881

> <Gold.PLP.part.repulsive>
0.3143

> <Gold.PLP.ligand.clash>
0.0000

> <Gold.PLP.ligand.torsion>
0.4091

> <Gold.PLP.Chemscore.Hbond>
0.0000

> <Gold.PLP.Chemscore.CHOScore>
0.0000

> <Gold.PLP.Chemscore.Metal>
0.0000

> <Gold.PLP.Chemscore.Internal.Correction>
0.0682

> <Gold.Rescore>
     Score         DG    S(hbond)    S(metal)    S(lipo)     H(rot)  DE(clash)    DE(int)     intcor
     12.62     -14.49       0.00        0.00     114.16       1.70       0.34       1.52       ----

> <Gold.Chemscore.Fitness>
12.6211

> <Gold.Chemscore.DG>
-14.4867

> <Gold.Chemscore.ZeroCoef>
-5.4800

> <Gold.Chemscore.Hbond>
0.0000

> <Gold.Chemscore.Metal>
0.0000

> <Gold.Chemscore.Lipo>
114.1614

> <Gold.Chemscore.Internal_Hbond>
0.0000

> <Gold.Chemscore.DEClash>
0.3438

> <Gold.Chemscore.DEInternal>
1.5217

> <Gold.Chemscore.Rot>
1.6993

> <Gold.Chemscore.Internal.Correction>
   9.000000E+99

> <Gold.Chemscore.Hbond.Weighted>
-0.0000

> <Gold.Chemscore.Metal.Weighted>
-0.0000

> <Gold.Chemscore.Lipo.Weighted>
-13.3569

> <Gold.Chemscore.Internal_Hbond.Weighted>
0.0000

> <Gold.Chemscore.DEClash.Weighted>
0.3438

> <Gold.Chemscore.DEInternal.Weighted>
1.5217

> <Gold.Chemscore.Rot.Weighted>
4.3502

> <Gold.Chemscore.Internal.Correction.Weighted>
   9.000000E+99

> <Gold.Protein.RotatedTorsions>
[ 6907 6896 6895 6894 ] final  -89.00 input  -60.11 | X-H torsion
[ 7974 7965 7964 7962 ] final -138.86 input  175.53 | X-H torsion
[ 8008 7997 7996 7995 ] final -143.70 input   59.86 | X-H torsion
[ 10167 10162 10161 10158 ] final   64.87 input  -65.29 | X-H torsion
[ 10718 10713 10712 10709 ] final  -97.86 input   66.30 | X-H torsion
[ 10763 10752 10751 10750 ] final   18.96 input  -60.55 | X-H torsion
[ 11005 11000 10999 10996 ] final  128.16 input  -57.11 | X-H torsion

> <Gold.Protein.ActiveResidues>
 VAL166  LYS551  ARG553  GLY616  TRP617  ASP618  TYR619  PRO620  LYS621  CYS622 
 ASP623  PHE694  ASN695  SER759  ASP760  ASP761  ALA762  ILE779  LEU786  VAL792 
 PHE793  MET794  SER795  GLU796  ALA797  LYS798  CYS799  TRP800  GLU811  SER814 

> <Gold.Protein.RotatedAtoms>
  150.6871  134.2655  159.4566 H   0  0  0  0  0  0  0  0  0  0  0  0  # atno 6907 bound_to 6896
  152.0582  134.9608  160.0584 H   0  0  0  0  0  0  0  0  0  0  0  0  # atno 6908 bound_to 6896
  152.1046  133.4233  159.4640 H   0  0  0  0  0  0  0  0  0  0  0  0  # atno 6909 bound_to 6896
  144.8723  140.6386  143.5259 H   0  0  0  0  0  0  0  0  0  0  0  0  # atno 7974 bound_to 7965
  155.5149  140.0586  157.2917 H   0  0  0  0  0  0  0  0  0  0  0  0  # atno 8008 bound_to 7997
  154.4538  140.1962  156.0386 H   0  0  0  0  0  0  0  0  0  0  0  0  # atno 8009 bound_to 7997
  156.0759  140.3253  155.7637 H   0  0  0  0  0  0  0  0  0  0  0  0  # atno 8010 bound_to 7997
  140.1174  144.4762  150.6941 H   0  0  0  0  0  0  0  0  0  0  0  0  # atno 10167 bound_to 10162
  156.0093  130.5213  150.6438 H   0  0  0  0  0  0  0  0  0  0  0  0  # atno 10718 bound_to 10713
  153.1203  135.6717  153.9347 H   0  0  0  0  0  0  0  0  0  0  0  0  # atno 10763 bound_to 10752
  153.8864  135.3052  155.3448 H   0  0  0  0  0  0  0  0  0  0  0  0  # atno 10764 bound_to 10752
  154.7615  135.4985  153.9553 H   0  0  0  0  0  0  0  0  0  0  0  0  # atno 10765 bound_to 10752
  139.9545  134.9615  156.8960 H   0  0  0  0  0  0  0  0  0  0  0  0  # atno 11005 bound_to 11000
  145.4106  139.1581  143.4128 LP  0  0  0  0  0  0  0  0  0  0  0  0  # atno 17320 bound_to 7965
  146.2939  140.4210  142.8729 LP  0  0  0  0  0  0  0  0  0  0  0  0  # atno 17321 bound_to 7965
  140.6891  143.2366  151.5179 LP  0  0  0  0  0  0  0  0  0  0  0  0  # atno 17342 bound_to 10162
  139.5587  144.2212  152.1655 LP  0  0  0  0  0  0  0  0  0  0  0  0  # atno 17343 bound_to 10162
  157.4213  131.0837  151.1128 LP  0  0  0  0  0  0  0  0  0  0  0  0  # atno 17370 bound_to 10713
  157.1730  130.6275  149.5646 LP  0  0  0  0  0  0  0  0  0  0  0  0  # atno 17371 bound_to 10713
  140.5640  134.0507  155.7408 LP  0  0  0  0  0  0  0  0  0  0  0  0  # atno 17394 bound_to 11000
  141.1215  133.9454  157.2721 LP  0  0  0  0  0  0  0  0  0  0  0  0  # atno 17395 bound_to 11000

$$$$
