AV-unprocessed.smi:3329|AV-procd|sdf|12800|dock7
  -GOLD-   2272019163D 1   1.00000     0.00000
 Structure written by MMmdl.
 41 42  0  0  0  0  0  0  0  0  3 V2000
  143.4585  134.1241  151.7254 C   0  0  0  0  0  0  0  0  0  0  0  0
  144.8861  133.7509  152.0032 C   0  0  0  0  0  0  0  0  0  0  0  0
  146.0078  133.8899  151.1375 C   0  0  0  0  0  0  0  0  0  0  0  0
  147.1353  133.4644  151.6836 N   0  0  0  0  0  0  0  0  0  0  0  0
  146.7756  133.0416  152.9136 N   0  0  0  0  0  0  0  0  0  0  0  0
  147.7822  132.5117  153.8164 C   0  0  0  0  0  0  0  0  0  0  0  0
  149.0645  133.3598  153.8133 C   0  0  0  0  0  0  0  0  0  0  0  0
  148.7807  134.7471  154.2257 N   0  3  0  0  0  0  0  0  0  0  0  0
  149.4838  135.1890  155.4457 C   0  0  0  0  0  0  0  0  0  0  0  0
  149.6242  136.7118  155.4163 C   0  0  0  0  0  0  0  0  0  0  0  0
  148.6142  137.4112  155.4699 O   0  0  0  0  0  0  0  0  0  0  0  0
  150.9236  137.0917  155.3180 N   0  5  0  0  0  0  0  0  0  0  0  0
  151.3614  138.4868  155.3616 C   0  0  2  0  0  0  0  0  0  0  0  0
  150.5356  139.3274  154.3680 C   0  0  0  0  0  0  0  0  0  0  0  0
  152.8027  138.6000  155.0468 C   0  0  0  0  0  0  0  0  0  0  0  0
  153.9308  138.6890  154.8009 N   0  0  0  0  0  0  0  0  0  0  0  0
  151.0964  138.9829  156.7822 C   0  0  0  0  0  0  0  0  0  0  0  0
  149.7685  139.5806  157.1931 C   0  0  0  0  0  0  0  0  0  0  0  0
  151.0017  140.4526  157.1297 C   0  0  0  0  0  0  0  0  0  0  0  0
  145.4231  133.2007  153.1325 C   0  0  0  0  0  0  0  0  0  0  0  0
  142.9912  133.4306  151.0265 H   0  0  0  0  0  0  0  0  0  0  0  0
  143.3813  135.1205  151.2901 H   0  0  0  0  0  0  0  0  0  0  0  0
  142.8540  134.1229  152.6327 H   0  0  0  0  0  0  0  0  0  0  0  0
  146.0353  134.2865  150.1331 H   0  0  0  0  0  0  0  0  0  0  0  0
  147.3609  132.4606  154.8215 H   0  0  0  0  0  0  0  0  0  0  0  0
  148.0082  131.4871  153.5182 H   0  0  0  0  0  0  0  0  0  0  0  0
  149.7994  132.9301  154.4948 H   0  0  0  0  0  0  0  0  0  0  0  0
  149.5114  133.3580  152.8180 H   0  0  0  0  0  0  0  0  0  0  0  0
  149.0730  135.3663  153.4822 H   0  0  0  0  0  0  0  0  0  0  0  0
  148.9245  134.8754  156.3283 H   0  0  0  0  0  0  0  0  0  0  0  0
  150.4733  134.7322  155.5015 H   0  0  0  0  0  0  0  0  0  0  0  0
  150.7965  140.3835  154.4436 H   0  0  0  0  0  0  0  0  0  0  0  0
  149.4656  139.2401  154.5613 H   0  0  0  0  0  0  0  0  0  0  0  0
  150.7119  139.0273  153.3348 H   0  0  0  0  0  0  0  0  0  0  0  0
  151.5690  138.3616  157.5420 H   0  0  0  0  0  0  0  0  0  0  0  0
  149.0095  139.7271  156.4274 H   0  0  0  0  0  0  0  0  0  0  0  0
  149.3875  139.3220  158.1789 H   0  0  0  0  0  0  0  0  0  0  0  0
  151.4407  140.7690  158.0731 H   0  0  0  0  0  0  0  0  0  0  0  0
  151.0684  141.1785  156.3222 H   0  0  0  0  0  0  0  0  0  0  0  0
  144.9589  132.9171  154.0656 H   0  0  0  0  0  0  0  0  0  0  0  0
  147.7874  134.8629  154.3645 H   0  0  0  0  0  0  0  0  0  0  0  0
  1  2  1  0  0  0  0
  1 21  1  0  0  0  0
  1 22  1  0  0  0  0
  1 23  1  0  0  0  0
  2 20  2  0  0  0  0
  2  3  1  0  0  0  0
  3  4  2  0  0  0  0
  3 24  1  0  0  0  0
  4  5  1  0  0  0  0
  5  6  1  0  0  0  0
  5 20  1  0  0  0  0
  6  7  1  0  0  0  0
  6 25  1  0  0  0  0
  6 26  1  0  0  0  0
  7  8  1  0  0  0  0
  7 27  1  0  0  0  0
  7 28  1  0  0  0  0
  8  9  1  0  0  0  0
  8 29  1  0  0  0  0
  8 41  1  0  0  0  0
  9 10  1  0  0  0  0
  9 30  1  0  0  0  0
  9 31  1  0  0  0  0
 10 11  2  0  0  0  0
 10 12  1  0  0  0  0
 12 13  1  0  0  0  0
 13 14  1  0  0  0  0
 13 15  1  0  0  0  0
 13 17  1  0  0  0  0
 14 32  1  0  0  0  0
 14 33  1  0  0  0  0
 14 34  1  0  0  0  0
 15 16  3  0  0  0  0
 17 19  1  0  0  0  0
 17 18  1  0  0  0  0
 17 35  1  0  0  0  0
 18 19  1  0  0  0  0
 18 36  1  0  0  0  0
 18 37  1  0  0  0  0
 19 38  1  0  0  0  0
 19 39  1  0  0  0  0
 20 40  1  0  0  0  0
M  CHG  1   8   1
M  CHG  1  12  -1
M  END
> <s_m_source_file>
AV-unprocessed.smi

> <i_m_source_file_index>
3329

> <i_lp_mmshare_version>
43012

> <i_f3d_flags>
0

> <s_epik_input>
W0NIM11jMVtjSF1ubihbY0hdMSlbQ0gyXVtDSDJdW05IXVtDSDJdQyg9TylbTkhdW0NAQF0oW0NIM10pKEMjTilbQ0hdMltDSDJdW0NIMl0y

> <s_epik_cmdline>
J2VwaWtfcHl0aG9uJywgJy1waCcsICc3LjAnLCAnLXRuJywgJzgnLCAnLW1hJywgJzIwMCcsICctbWV0YWxfYmluZGluZycsICctaW1hZScsICc8aW5maWxlLm1hZT4nLCAnLW9tYWUnLCAnPG91dGZpbGUubWFlPic=

> <r_lp_tautomer_probability>
1

> <r_epik_Ionization_Penalty>
5.61187

> <r_epik_Ionization_Penalty_Charging>
5.61186

> <r_epik_Ionization_Penalty_Neutral>
4.91277e-06

> <r_epik_State_Penalty>
5.94522

> <r_epik_Charging_Adjusted_Penalty>
11.5571

> <i_epik_Tot_Q>
0

> <i_epik_Tot_abs_Q>
2

> <r_epik_Metal_State_Penalty>
1.9215

> <b_epik_Metal_Only>
1

> <s_lp_Force_Field>
OPLS_2005

> <r_lp_Energy>
5.18635

> <b_lp_Chiralities_Consistent>
1

> <s_lp_Variant>
AV-unprocessed.smi:3329-6

> <Gold.Version>
5.8.1

> <Gold.Id.Protein>
6NUR|6NUR_protein|mol2

> <Gold.PLP.Fitness>
43.3527

> <Gold.PLP.PLP>
-31.2242

> <Gold.PLP.part.hbond>
-2.0000

> <Gold.PLP.part.metal>
0.0000

> <Gold.PLP.part.buried>
-6.1600

> <Gold.PLP.part.nonpolar>
-24.5381

> <Gold.PLP.part.repulsive>
0.4171

> <Gold.PLP.ligand.clash>
0.0000

> <Gold.PLP.ligand.torsion>
1.6336

> <Gold.PLP.Chemscore.Hbond>
3.0000

> <Gold.PLP.Chemscore.CHOScore>
1.5615

> <Gold.PLP.Chemscore.Metal>
0.0000

> <Gold.Chemscore.Hbonds>
donor molecule, donor type, donor heavy atom, donor atom, acceptor molecule, acceptor atom, score
      L1  H     8    29       P1  7948  2.00
      P1  H  7997  8010       L1    16  0.75
      L1  C     3    24       P1  7921  0.96
      L1  C    20    40       P1 10957  0.69

> <Gold.PLP.Chemscore.Internal.Correction>
1.7113

> <Gold.Rescore>
     Score         DG    S(hbond)    S(metal)    S(lipo)     H(rot)  DE(clash)    DE(int)     intcor
      9.91     -13.01       1.90        0.00      60.81       2.31       0.02       3.08       ----

> <Gold.Chemscore.Fitness>
9.9059

> <Gold.Chemscore.DG>
-13.0102

> <Gold.Chemscore.ZeroCoef>
-5.4800

> <Gold.Chemscore.Hbond>
1.8980

> <Gold.Chemscore.Metal>
0.0000

> <Gold.Chemscore.Lipo>
60.8104

> <Gold.Chemscore.Internal_Hbond>
0.0000

> <Gold.Chemscore.DEClash>
0.0243

> <Gold.Chemscore.DEInternal>
3.0800

> <Gold.Chemscore.Rot>
2.3140

> <Gold.Chemscore.Internal.Correction>
   9.000000E+99

> <Gold.Chemscore.Hbonds>
donor molecule, donor type, donor heavy atom, donor atom, acceptor molecule, acceptor atom, score
      L1  H     8    29       P1  7948  0.49
      P1  H  7997  8010       L1    16  0.26

> <Gold.Chemscore.Hbond.Weighted>
-6.3392

> <Gold.Chemscore.Metal.Weighted>
-0.0000

> <Gold.Chemscore.Lipo.Weighted>
-7.1148

> <Gold.Chemscore.Internal_Hbond.Weighted>
0.0000

> <Gold.Chemscore.DEClash.Weighted>
0.0243

> <Gold.Chemscore.DEInternal.Weighted>
3.0800

> <Gold.Chemscore.Rot.Weighted>
5.9238

> <Gold.Chemscore.Internal.Correction.Weighted>
   9.000000E+99

> <Gold.Protein.RotatedTorsions>
[ 6907 6896 6895 6894 ] final   69.82 input  -60.11 | X-H torsion
[ 7974 7965 7964 7962 ] final   41.16 input  175.53 | X-H torsion
[ 8008 7997 7996 7995 ] final  102.06 input   59.86 | X-H torsion
[ 10167 10162 10161 10158 ] final -171.84 input  -65.29 | X-H torsion
[ 10718 10713 10712 10709 ] final -178.91 input   66.30 | X-H torsion
[ 10763 10752 10751 10750 ] final   38.32 input  -60.55 | X-H torsion
[ 11005 11000 10999 10996 ] final   28.57 input  -57.11 | X-H torsion

> <Gold.Protein.ActiveResidues>
 VAL166  LYS551  ARG553  GLY616  TRP617  ASP618  TYR619  PRO620  LYS621  CYS622 
 ASP623  PHE694  ASN695  SER759  ASP760  ASP761  ALA762  ILE779  LEU786  VAL792 
 PHE793  MET794  SER795  GLU796  ALA797  LYS798  CYS799  TRP800  GLU811  SER814 

> <Gold.Protein.RotatedAtoms>
  152.4710  134.4960  159.9709 H   0  0  0  0  0  0  0  0  0  0  0  0  # atno 6907 bound_to 6896
  151.4986  133.3503  159.2873 H   0  0  0  0  0  0  0  0  0  0  0  0  # atno 6908 bound_to 6896
  150.8720  134.8124  159.7224 H   0  0  0  0  0  0  0  0  0  0  0  0  # atno 6909 bound_to 6896
  146.0846  139.5448  142.9515 H   0  0  0  0  0  0  0  0  0  0  0  0  # atno 7974 bound_to 7965
  156.1357  140.3187  155.8417 H   0  0  0  0  0  0  0  0  0  0  0  0  # atno 8008 bound_to 7997
  155.4248  140.0515  157.3040 H   0  0  0  0  0  0  0  0  0  0  0  0  # atno 8009 bound_to 7997
  154.4935  140.2101  155.9510 H   0  0  0  0  0  0  0  0  0  0  0  0  # atno 8010 bound_to 7997
  139.5779  144.1491  152.1475 H   0  0  0  0  0  0  0  0  0  0  0  0  # atno 10167 bound_to 10162
  156.8512  130.9720  151.3092 H   0  0  0  0  0  0  0  0  0  0  0  0  # atno 10718 bound_to 10713
  153.0005  135.6253  154.2285 H   0  0  0  0  0  0  0  0  0  0  0  0  # atno 10763 bound_to 10752
  154.2028  135.2803  155.2987 H   0  0  0  0  0  0  0  0  0  0  0  0  # atno 10764 bound_to 10752
  154.5670  135.5688  153.7118 H   0  0  0  0  0  0  0  0  0  0  0  0  # atno 10765 bound_to 10752
  140.3141  134.2616  155.7729 H   0  0  0  0  0  0  0  0  0  0  0  0  # atno 11005 bound_to 11000
  145.6154  141.0332  143.1944 LP  0  0  0  0  0  0  0  0  0  0  0  0  # atno 17320 bound_to 7965
  144.7317  139.7707  143.7345 LP  0  0  0  0  0  0  0  0  0  0  0  0  # atno 17321 bound_to 7965
  140.1037  144.5517  150.6971 LP  0  0  0  0  0  0  0  0  0  0  0  0  # atno 17342 bound_to 10162
  140.7060  143.2468  151.4725 LP  0  0  0  0  0  0  0  0  0  0  0  0  # atno 17343 bound_to 10162
  157.6302  130.8723  149.9260 LP  0  0  0  0  0  0  0  0  0  0  0  0  # atno 17370 bound_to 10713
  156.0827  130.3671  150.0548 LP  0  0  0  0  0  0  0  0  0  0  0  0  # atno 17371 bound_to 10713
  141.2101  133.7728  156.9951 LP  0  0  0  0  0  0  0  0  0  0  0  0  # atno 17394 bound_to 11000
  140.0999  134.9542  157.1906 LP  0  0  0  0  0  0  0  0  0  0  0  0  # atno 17395 bound_to 11000

$$$$
