AV-unprocessed.smi:54|AV-procd|sdf|540|dock7
  -GOLD-   2262016423D 1   1.00000     0.00000
 Structure written by MMmdl.
 44 46  0  0  0  0  0  0  0  0  1 V2000
  152.1919  143.3493  161.0269 C   0  0  0  0  0  0  0  0  0  0  0  0
  152.5708  143.6752  159.5730 C   0  0  0  0  0  0  0  0  0  0  0  0
  152.1993  145.1221  159.2103 C   0  0  0  0  0  0  0  0  0  0  0  0
  151.9044  142.6880  158.6082 C   0  0  0  0  0  0  0  0  0  0  0  0
  151.2304  143.0672  157.6498 O   0  0  0  0  0  0  0  0  0  0  0  0
  152.1237  141.2833  158.9059 N   0  0  0  0  0  0  0  0  0  0  0  0
  151.6467  140.2122  158.2295 C   0  0  0  0  0  0  0  0  0  0  0  0
  151.1065  140.2962  157.0220 N   0  0  0  0  0  0  0  0  0  0  0  0
  150.6737  139.1054  156.5089 C   0  0  0  0  0  0  0  0  0  0  0  0
  150.7526  137.8698  157.1157 C   0  0  0  0  0  0  0  0  0  0  0  0
  150.2039  136.8947  156.2902 N   0  0  0  0  0  0  0  0  0  0  0  0
  149.8120  137.5559  155.2366 C   0  0  0  0  0  0  0  0  0  0  0  0
  150.0617  138.9075  155.2907 N   0  0  0  0  0  0  0  0  0  0  0  0
  149.7520  139.9727  154.2893 C   0  0  1  0  0  0  0  0  0  0  0  0
  149.0630  139.3749  153.2303 O   0  0  0  0  0  0  0  0  0  0  0  0
  147.7623  139.9372  153.0874 C   0  0  1  0  0  0  0  0  0  0  0  0
  146.7614  138.8876  152.5736 C   0  0  0  0  0  0  0  0  0  0  0  0
  147.1554  138.4174  151.3021 O   0  0  0  0  0  0  0  0  0  0  0  0
  147.4488  140.6010  154.4360 C   0  0  1  0  0  0  0  0  0  0  0  0
  146.8523  139.6930  155.3438 O   0  0  0  0  0  0  0  0  0  0  0  0
  148.8258  141.0204  154.9264 C   0  0  2  0  0  0  0  0  0  0  0  0
  149.1499  142.3232  154.4837 O   0  0  0  0  0  0  0  0  0  0  0  0
  151.3416  137.7606  158.4190 C   0  0  0  0  0  0  0  0  0  0  0  0
  151.4966  136.7512  159.1029 O   0  0  0  0  0  0  0  0  0  0  0  0
  151.7682  139.0012  158.9115 N   0  0  0  0  0  0  0  0  0  0  0  0
  150.7280  140.3526  153.9837 H   0  0  0  0  0  0  0  0  0  0  0  0
  147.8594  140.7259  152.3392 H   0  0  0  0  0  0  0  0  0  0  0  0
  146.7712  141.4483  154.3230 H   0  0  0  0  0  0  0  0  0  0  0  0
  148.9053  141.0125  156.0149 H   0  0  0  0  0  0  0  0  0  0  0  0
  152.4496  142.3210  161.2831 H   0  0  0  0  0  0  0  0  0  0  0  0
  151.1230  143.4784  161.2019 H   0  0  0  0  0  0  0  0  0  0  0  0
  152.7207  144.0013  161.7226 H   0  0  0  0  0  0  0  0  0  0  0  0
  153.6523  143.5708  159.4746 H   0  0  0  0  0  0  0  0  0  0  0  0
  152.4578  145.3512  158.1757 H   0  0  0  0  0  0  0  0  0  0  0  0
  152.7322  145.8309  159.8445 H   0  0  0  0  0  0  0  0  0  0  0  0
  151.1314  145.3057  159.3357 H   0  0  0  0  0  0  0  0  0  0  0  0
  152.6932  141.0890  159.7160 H   0  0  0  0  0  0  0  0  0  0  0  0
  149.3275  137.0745  154.3997 H   0  0  0  0  0  0  0  0  0  0  0  0
  146.7315  138.0388  153.2570 H   0  0  0  0  0  0  0  0  0  0  0  0
  145.7487  139.2881  152.5228 H   0  0  0  0  0  0  0  0  0  0  0  0
  147.4826  137.5355  151.3955 H   0  0  0  0  0  0  0  0  0  0  0  0
  146.4735  138.9826  154.8486 H   0  0  0  0  0  0  0  0  0  0  0  0
  148.9965  142.9281  155.1934 H   0  0  0  0  0  0  0  0  0  0  0  0
  152.1896  139.0000  159.8287 H   0  0  0  0  0  0  0  0  0  0  0  0
  1  2  1  0  0  0  0
  1 30  1  0  0  0  0
  1 31  1  0  0  0  0
  1 32  1  0  0  0  0
  2  3  1  0  0  0  0
  2  4  1  0  0  0  0
  2 33  1  0  0  0  0
  3 34  1  0  0  0  0
  3 35  1  0  0  0  0
  3 36  1  0  0  0  0
  4  5  2  0  0  0  0
  4  6  1  0  0  0  0
  6 37  1  0  0  0  0
  6  7  1  0  0  0  0
  7 25  1  0  0  0  0
  7  8  2  0  0  0  0
  8  9  1  0  0  0  0
  9 13  1  0  0  0  0
  9 10  2  0  0  0  0
 10 11  1  0  0  0  0
 10 23  1  0  0  0  0
 11 12  2  0  0  0  0
 12 13  1  0  0  0  0
 12 38  1  0  0  0  0
 13 14  1  0  0  0  0
 14 26  1  0  0  0  0
 14 21  1  0  0  0  0
 14 15  1  0  0  0  0
 15 16  1  0  0  0  0
 16 27  1  0  0  0  0
 16 17  1  0  0  0  0
 16 19  1  0  0  0  0
 17 18  1  0  0  0  0
 17 39  1  0  0  0  0
 17 40  1  0  0  0  0
 18 41  1  0  0  0  0
 19 28  1  0  0  0  0
 19 20  1  0  0  0  0
 19 21  1  0  0  0  0
 20 42  1  0  0  0  0
 21 29  1  0  0  0  0
 21 22  1  0  0  0  0
 22 43  1  0  0  0  0
 23 24  2  0  0  0  0
 23 25  1  0  0  0  0
 25 44  1  0  0  0  0
M  END
> <s_m_source_file>
AV-unprocessed.smi

> <i_m_source_file_index>
54

> <i_lp_mmshare_version>
43012

> <i_f3d_flags>
0

> <s_epik_input>
W0NIM11bQ0hdKFtDSDNdKUMoPU8pW05IXWMobjEpW25IXWMoPU8pYyhjMTIpbltjSF1uMltDQEBIXTNPW0NASF0oW0NIMl1bT0hdKVtDQEBIXShbT0hdKVtDQEhdM1tPSF0=

> <s_epik_cmdline>
J2VwaWtfcHl0aG9uJywgJy1waCcsICc3LjAnLCAnLXRuJywgJzgnLCAnLW1hJywgJzIwMCcsICctbWV0YWxfYmluZGluZycsICctaW1hZScsICc8aW5maWxlLm1hZT4nLCAnLW9tYWUnLCAnPG91dGZpbGUubWFlPic=

> <r_lp_tautomer_probability>
0.85571

> <r_epik_Ionization_Penalty>
0.0316551

> <r_epik_Ionization_Penalty_Charging>
0.0316043

> <r_epik_Ionization_Penalty_Neutral>
5.07097e-05

> <r_epik_State_Penalty>
3.15494e-07

> <r_epik_Charging_Adjusted_Penalty>
0.0316047

> <i_epik_Tot_Q>
0

> <i_epik_Tot_abs_Q>
0

> <r_epik_Metal_State_Penalty>
0.421206

> <b_epik_Metal_Only>
0

> <s_epik_Chemistry_Notes>
This compound contains an acetal/aminal-like group ( X-CH(R)-Y where X, Y are N, S, or O) that may be acid/base labile, releasing an aldehyde.

> <s_lp_Force_Field>
OPLS_2005

> <r_lp_Energy>
34.69

> <b_lp_Chiralities_Consistent>
1

> <s_lp_Variant>
AV-unprocessed.smi:54-12

> <Gold.Version>
5.8.1

> <Gold.Id.Protein>
6NUR|6NUR_protein|mol2

> <Gold.PLP.Fitness>
44.8027

> <Gold.PLP.PLP>
-34.4395

> <Gold.PLP.part.hbond>
-6.0000

> <Gold.PLP.part.metal>
0.0000

> <Gold.PLP.part.buried>
-2.4100

> <Gold.PLP.part.nonpolar>
-30.3361

> <Gold.PLP.part.repulsive>
5.9504

> <Gold.PLP.ligand.clash>
0.0000

> <Gold.PLP.ligand.torsion>
0.1185

> <Gold.PLP.Chemscore.Hbond>
2.9700

> <Gold.PLP.Chemscore.CHOScore>
0.5547

> <Gold.PLP.Chemscore.Metal>
0.0000

> <Gold.Chemscore.Hbonds>
donor molecule, donor type, donor heavy atom, donor atom, acceptor molecule, acceptor atom, score
      L1  H    18    41       P1  7948  1.00
      L1  H    22    43       P1  8028  0.88
      P1  H  6896  6908       L1    24  0.99
      P1  H  8011  8017       L1    22  0.10
      L1  C    12    38       P1  7948  0.63

> <Gold.PLP.Chemscore.Internal.Correction>
0.0261

> <Gold.Rescore>
     Score         DG    S(hbond)    S(metal)    S(lipo)     H(rot)  DE(clash)    DE(int)     intcor
      8.90     -13.45       3.02        0.00      70.52       4.05       3.16       1.40       ----

> <Gold.Chemscore.Fitness>
8.8953

> <Gold.Chemscore.DG>
-13.4536

> <Gold.Chemscore.ZeroCoef>
-5.4800

> <Gold.Chemscore.Hbond>
3.0207

> <Gold.Chemscore.Metal>
0.0000

> <Gold.Chemscore.Lipo>
70.5177

> <Gold.Chemscore.Internal_Hbond>
0.0000

> <Gold.Chemscore.DEClash>
3.1551

> <Gold.Chemscore.DEInternal>
1.4032

> <Gold.Chemscore.Rot>
4.0493

> <Gold.Chemscore.Internal.Correction>
   9.000000E+99

> <Gold.Chemscore.Hbonds>
donor molecule, donor type, donor heavy atom, donor atom, acceptor molecule, acceptor atom, score
      L1  H    18    41       P1  7948  0.93
      L1  H    22    43       P1  8028  0.86
      P1  H  6896  6908       L1    24  0.94
      P1  H  8011  8017       L1    22  0.09

> <Gold.Chemscore.Hbond.Weighted>
-10.0893

> <Gold.Chemscore.Metal.Weighted>
-0.0000

> <Gold.Chemscore.Lipo.Weighted>
-8.2506

> <Gold.Chemscore.Internal_Hbond.Weighted>
0.0000

> <Gold.Chemscore.DEClash.Weighted>
3.1551

> <Gold.Chemscore.DEInternal.Weighted>
1.4032

> <Gold.Chemscore.Rot.Weighted>
10.3662

> <Gold.Chemscore.Internal.Correction.Weighted>
   9.000000E+99

> <Gold.Protein.RotatedTorsions>
[ 6907 6896 6895 6894 ] final -135.38 input  -60.11 | X-H torsion
[ 7974 7965 7964 7962 ] final -176.91 input  175.53 | X-H torsion
[ 8008 7997 7996 7995 ] final -107.56 input   59.86 | X-H torsion
[ 10167 10162 10161 10158 ] final   27.71 input  -65.29 | X-H torsion
[ 10718 10713 10712 10709 ] final  102.56 input   66.30 | X-H torsion
[ 10763 10752 10751 10750 ] final -167.33 input  -60.55 | X-H torsion
[ 11005 11000 10999 10996 ] final -166.75 input  -57.11 | X-H torsion

> <Gold.Protein.ActiveResidues>
 VAL166  LYS551  ARG553  GLY616  TRP617  ASP618  TYR619  PRO620  LYS621  CYS622 
 ASP623  PHE694  ASN695  SER759  ASP760  ASP761  ALA762  ILE779  LEU786  VAL792 
 PHE793  MET794  SER795  GLU796  ALA797  LYS798  CYS799  TRP800  GLU811  SER814 

> <Gold.Protein.RotatedAtoms>
  150.9972  133.6091  159.2699 H   0  0  0  0  0  0  0  0  0  0  0  0  # atno 6907 bound_to 6896
  151.3291  135.0836  159.9342 H   0  0  0  0  0  0  0  0  0  0  0  0  # atno 6908 bound_to 6896
  152.5263  133.9605  159.7769 H   0  0  0  0  0  0  0  0  0  0  0  0  # atno 6909 bound_to 6896
  144.7127  140.1099  143.6411 H   0  0  0  0  0  0  0  0  0  0  0  0  # atno 7974 bound_to 7965
  154.9311  140.0405  157.2048 H   0  0  0  0  0  0  0  0  0  0  0  0  # atno 8008 bound_to 7997
  154.8160  140.2876  155.5798 H   0  0  0  0  0  0  0  0  0  0  0  0  # atno 8009 bound_to 7997
  156.2976  140.2528  156.3057 H   0  0  0  0  0  0  0  0  0  0  0  0  # atno 8010 bound_to 7997
  140.4915  144.0459  150.6299 H   0  0  0  0  0  0  0  0  0  0  0  0  # atno 10167 bound_to 10162
  157.6798  131.0756  150.5423 H   0  0  0  0  0  0  0  0  0  0  0  0  # atno 10718 bound_to 10713
  154.6743  135.2944  154.9700 H   0  0  0  0  0  0  0  0  0  0  0  0  # atno 10763 bound_to 10752
  154.0716  135.6617  153.4829 H   0  0  0  0  0  0  0  0  0  0  0  0  # atno 10764 bound_to 10752
  153.0506  135.5176  154.7754 H   0  0  0  0  0  0  0  0  0  0  0  0  # atno 10765 bound_to 10752
  140.5610  134.5333  157.5143 H   0  0  0  0  0  0  0  0  0  0  0  0  # atno 11005 bound_to 11000
  145.9463  139.2703  143.1238 LP  0  0  0  0  0  0  0  0  0  0  0  0  # atno 17320 bound_to 7965
  145.9370  140.9007  143.0327 LP  0  0  0  0  0  0  0  0  0  0  0  0  # atno 17321 bound_to 7965
  140.3729  143.2844  152.0257 LP  0  0  0  0  0  0  0  0  0  0  0  0  # atno 17342 bound_to 10162
  139.4852  144.6215  151.7245 LP  0  0  0  0  0  0  0  0  0  0  0  0  # atno 17343 bound_to 10162
  156.5729  130.4284  149.6011 LP  0  0  0  0  0  0  0  0  0  0  0  0  # atno 17370 bound_to 10713
  156.2725  130.7025  151.1826 LP  0  0  0  0  0  0  0  0  0  0  0  0  # atno 17371 bound_to 10713
  139.9408  134.7791  156.0684 LP  0  0  0  0  0  0  0  0  0  0  0  0  # atno 17394 bound_to 11000
  141.1114  133.6642  156.2988 LP  0  0  0  0  0  0  0  0  0  0  0  0  # atno 17395 bound_to 11000

$$$$
