AV-unprocessed.smi:113|AV-procd|sdf|1093|dock10
  -GOLD-   2262018193D 1   1.00000     0.00000
 Structure written by MMmdl.
 52 55  0  0  0  0  0  0  0  0  1 V2000
  154.8246  140.1059  162.5954 C   0  0  0  0  0  0  0  0  0  0  0  0
  154.0132  140.5444  161.3941 C   0  0  0  0  0  0  0  0  0  0  0  0
  153.7105  139.6365  160.3641 C   0  0  0  0  0  0  0  0  0  0  0  0
  152.9473  140.0802  159.2600 C   0  0  0  0  0  0  0  0  0  0  0  0
  152.5923  139.1312  158.1095 C   0  0  0  0  0  0  0  0  0  0  0  0
  151.1993  138.7198  158.0019 N   0  0  0  0  0  0  0  0  0  0  0  0
  150.4063  139.3296  156.9995 C   0  0  0  0  0  0  0  0  0  0  0  0
  150.8658  140.1926  156.2482 O   0  0  0  0  0  0  0  0  0  0  0  0
  149.0272  138.8436  156.9171 C   0  0  0  0  0  0  0  0  0  0  0  0
  148.1162  139.4476  155.8599 C   0  0  0  0  0  0  0  0  0  0  0  0
  148.6024  137.8775  157.7665 C   0  0  0  0  0  0  0  0  0  0  0  0
  149.3951  137.3017  158.7440 N   0  0  0  0  0  0  0  0  0  0  0  0
  148.8249  136.1874  159.5983 C   0  0  2  0  0  0  0  0  0  0  0  0
  147.4832  135.6466  159.0916 C   0  0  0  0  0  0  0  0  0  0  0  0
  146.7964  135.3110  160.3991 C   0  0  2  0  0  0  0  0  0  0  0  0
  145.3916  135.3219  160.2500 O   0  0  0  0  0  0  0  0  0  0  0  0
  147.2938  136.4206  161.3315 C   0  0  1  0  0  0  0  0  0  0  0  0
  147.2888  136.0183  162.8143 C   0  0  0  0  0  0  0  0  0  0  0  0
  147.8978  137.0261  163.5930 O   0  0  0  0  0  0  0  0  0  0  0  0
  148.6340  136.6610  160.8994 O   0  0  0  0  0  0  0  0  0  0  0  0
  150.7461  137.6978  158.8663 C   0  0  0  0  0  0  0  0  0  0  0  0
  151.5002  137.1615  159.6803 O   0  0  0  0  0  0  0  0  0  0  0  0
  152.5181  141.4349  159.2500 C   0  0  0  0  0  0  0  0  0  0  0  0
  151.7466  141.9585  158.1845 C   0  0  0  0  0  0  0  0  0  0  0  0
  151.3354  143.3032  158.1913 C   0  0  0  0  0  0  0  0  0  0  0  0
  151.6897  144.1384  159.2636 C   0  0  0  0  0  0  0  0  0  0  0  0
  152.4533  143.6254  160.3273 C   0  0  0  0  0  0  0  0  0  0  0  0
  152.8770  142.2792  160.3419 C   0  0  0  0  0  0  0  0  0  0  0  0
  153.6078  141.8291  161.3854 N   0  0  0  0  0  0  0  0  0  0  0  0
  155.5117  139.3032  162.3257 H   0  0  0  0  0  0  0  0  0  0  0  0
  154.1635  139.7417  163.3820 H   0  0  0  0  0  0  0  0  0  0  0  0
  155.4130  140.9324  162.9956 H   0  0  0  0  0  0  0  0  0  0  0  0
  154.0648  138.6194  160.4355 H   0  0  0  0  0  0  0  0  0  0  0  0
  152.8755  139.5759  157.1542 H   0  0  0  0  0  0  0  0  0  0  0  0
  153.1938  138.2234  158.1714 H   0  0  0  0  0  0  0  0  0  0  0  0
  147.1159  139.0146  155.8899 H   0  0  0  0  0  0  0  0  0  0  0  0
  148.5233  139.2762  154.8626 H   0  0  0  0  0  0  0  0  0  0  0  0
  148.0181  140.5234  156.0102 H   0  0  0  0  0  0  0  0  0  0  0  0
  147.5800  137.5403  157.6725 H   0  0  0  0  0  0  0  0  0  0  0  0
  149.5854  135.4069  159.6362 H   0  0  0  0  0  0  0  0  0  0  0  0
  146.9322  136.4075  158.5399 H   0  0  0  0  0  0  0  0  0  0  0  0
  147.6296  134.7840  158.4412 H   0  0  0  0  0  0  0  0  0  0  0  0
  147.1295  134.3338  160.7523 H   0  0  0  0  0  0  0  0  0  0  0  0
  145.0949  136.2193  160.2669 H   0  0  0  0  0  0  0  0  0  0  0  0
  146.7007  137.3225  161.1707 H   0  0  0  0  0  0  0  0  0  0  0  0
  146.2637  135.9081  163.1691 H   0  0  0  0  0  0  0  0  0  0  0  0
  147.7896  135.0623  162.9686 H   0  0  0  0  0  0  0  0  0  0  0  0
  147.9817  136.7111  164.4800 H   0  0  0  0  0  0  0  0  0  0  0  0
  151.4558  141.3436  157.3467 H   0  0  0  0  0  0  0  0  0  0  0  0
  150.7476  143.6929  157.3733 H   0  0  0  0  0  0  0  0  0  0  0  0
  151.3757  145.1718  159.2715 H   0  0  0  0  0  0  0  0  0  0  0  0
  152.7185  144.2774  161.1468 H   0  0  0  0  0  0  0  0  0  0  0  0
  1  2  1  0  0  0  0
  1 30  1  0  0  0  0
  1 31  1  0  0  0  0
  1 32  1  0  0  0  0
  2 29  1  0  0  0  0
  2  3  2  0  0  0  0
  3  4  1  0  0  0  0
  3 33  1  0  0  0  0
  4  5  1  0  0  0  0
  4 23  2  0  0  0  0
  5  6  1  0  0  0  0
  5 34  1  0  0  0  0
  5 35  1  0  0  0  0
  6 21  1  0  0  0  0
  6  7  1  0  0  0  0
  7  8  2  0  0  0  0
  7  9  1  0  0  0  0
  9 10  1  0  0  0  0
  9 11  2  0  0  0  0
 10 36  1  0  0  0  0
 10 37  1  0  0  0  0
 10 38  1  0  0  0  0
 11 12  1  0  0  0  0
 11 39  1  0  0  0  0
 12 13  1  0  0  0  0
 12 21  1  0  0  0  0
 13 20  1  0  0  0  0
 13 14  1  0  0  0  0
 13 40  1  0  0  0  0
 14 15  1  0  0  0  0
 14 41  1  0  0  0  0
 14 42  1  0  0  0  0
 15 16  1  0  0  0  0
 15 17  1  0  0  0  0
 15 43  1  0  0  0  0
 16 44  1  0  0  0  0
 17 18  1  0  0  0  0
 17 20  1  0  0  0  0
 17 45  1  0  0  0  0
 18 19  1  0  0  0  0
 18 46  1  0  0  0  0
 18 47  1  0  0  0  0
 19 48  1  0  0  0  0
 21 22  2  0  0  0  0
 23 28  1  0  0  0  0
 23 24  1  0  0  0  0
 24 25  2  0  0  0  0
 24 49  1  0  0  0  0
 25 26  1  0  0  0  0
 25 50  1  0  0  0  0
 26 27  2  0  0  0  0
 26 51  1  0  0  0  0
 27 28  1  0  0  0  0
 27 52  1  0  0  0  0
 28 29  2  0  0  0  0
M  END
> <s_m_source_file>
AV-unprocessed.smi

> <i_m_source_file_index>
113

> <i_lp_mmshare_version>
43012

> <i_f3d_flags>
0

> <s_epik_input>
W2NIXTFbY0hdW2NIXVtjSF1jKGMxMiluYyhbQ0gzXSlbY0hdYzJbQ0gyXW4zYyg9TyljKFtDSDNdKVtjSF1uKGMzPU8pW0NAQEhdNFtDSDJdW0NAQEhdKFtPSF0pW0NASF0oTzQpW0NIMl1bT0hd

> <s_epik_cmdline>
J2VwaWtfcHl0aG9uJywgJy1waCcsICc3LjAnLCAnLXRuJywgJzgnLCAnLW1hJywgJzIwMCcsICctbWV0YWxfYmluZGluZycsICctaW1hZScsICc8aW5maWxlLm1hZT4nLCAnLW9tYWUnLCAnPG91dGZpbGUubWFlPic=

> <r_lp_tautomer_probability>
1

> <r_epik_Ionization_Penalty>
0.214728

> <r_epik_Ionization_Penalty_Charging>
3.04883e-08

> <r_epik_Ionization_Penalty_Neutral>
0.214728

> <r_epik_State_Penalty>
0.204913

> <r_epik_Charging_Adjusted_Penalty>
0.204913

> <i_epik_Tot_Q>
0

> <i_epik_Tot_abs_Q>
0

> <r_epik_Metal_State_Penalty>
0.000244761

> <b_epik_Metal_Only>
0

> <s_epik_Chemistry_Notes>
This compound contains an acetal/aminal-like group ( X-CH(R)-Y where X, Y are N, S, or O) that may be acid/base labile, releasing an aldehyde.

> <s_lp_Force_Field>
OPLS_2005

> <r_lp_Energy>
34.9534

> <b_lp_Chiralities_Consistent>
1

> <s_lp_Variant>
AV-unprocessed.smi:113-3

> <Gold.Version>
5.8.1

> <Gold.Id.Protein>
6NUR|6NUR_protein|mol2

> <Gold.PLP.Fitness>
54.3348

> <Gold.PLP.PLP>
-50.5013

> <Gold.PLP.part.hbond>
-2.6560

> <Gold.PLP.part.metal>
0.0000

> <Gold.PLP.part.buried>
-8.2097

> <Gold.PLP.part.nonpolar>
-41.2093

> <Gold.PLP.part.repulsive>
0.0000

> <Gold.PLP.ligand.clash>
0.0000

> <Gold.PLP.ligand.torsion>
0.6446

> <Gold.PLP.Chemscore.Hbond>
1.6975

> <Gold.PLP.Chemscore.CHOScore>
0.0000

> <Gold.PLP.Chemscore.Metal>
0.0000

> <Gold.Chemscore.Hbonds>
donor molecule, donor type, donor heavy atom, donor atom, acceptor molecule, acceptor atom, score
      P1  H  6896  6907       L1    22  1.00
      P1  H  6931  6943       L1    20  1.00

> <Gold.PLP.Chemscore.Internal.Correction>
0.0302

> <Gold.Rescore>
     Score         DG    S(hbond)    S(metal)    S(lipo)     H(rot)  DE(clash)    DE(int)     intcor
     16.34     -18.42       1.76        0.00     124.78       2.95       0.01       2.07       ----

> <Gold.Chemscore.Fitness>
16.3376

> <Gold.Chemscore.DG>
-18.4175

> <Gold.Chemscore.ZeroCoef>
-5.4800

> <Gold.Chemscore.Hbond>
1.7612

> <Gold.Chemscore.Metal>
0.0000

> <Gold.Chemscore.Lipo>
124.7788

> <Gold.Chemscore.Internal_Hbond>
0.0000

> <Gold.Chemscore.DEClash>
0.0096

> <Gold.Chemscore.DEInternal>
2.0703

> <Gold.Chemscore.Rot>
2.9469

> <Gold.Chemscore.Internal.Correction>
   9.000000E+99

> <Gold.Chemscore.Hbonds>
donor molecule, donor type, donor heavy atom, donor atom, acceptor molecule, acceptor atom, score
      P1  H  6896  6907       L1    22  0.94
      P1  H  6931  6943       L1    20  0.29

> <Gold.Chemscore.Hbond.Weighted>
-5.8823

> <Gold.Chemscore.Metal.Weighted>
-0.0000

> <Gold.Chemscore.Lipo.Weighted>
-14.5991

> <Gold.Chemscore.Internal_Hbond.Weighted>
0.0000

> <Gold.Chemscore.DEClash.Weighted>
0.0096

> <Gold.Chemscore.DEInternal.Weighted>
2.0703

> <Gold.Chemscore.Rot.Weighted>
7.5439

> <Gold.Chemscore.Internal.Correction.Weighted>
   9.000000E+99

> <Gold.Protein.RotatedTorsions>
[ 6907 6896 6895 6894 ] final   -5.90 input  -60.11 | X-H torsion
[ 7974 7965 7964 7962 ] final  -43.25 input  175.53 | X-H torsion
[ 8008 7997 7996 7995 ] final -111.56 input   59.86 | X-H torsion
[ 10167 10162 10161 10158 ] final  -23.69 input  -65.29 | X-H torsion
[ 10718 10713 10712 10709 ] final  -96.93 input   66.30 | X-H torsion
[ 10763 10752 10751 10750 ] final   87.53 input  -60.55 | X-H torsion
[ 11005 11000 10999 10996 ] final   45.15 input  -57.11 | X-H torsion

> <Gold.Protein.ActiveResidues>
 VAL166  LYS551  ARG553  GLY616  TRP617  ASP618  TYR619  PRO620  LYS621  CYS622 
 ASP623  PHE694  ASN695  SER759  ASP760  ASP761  ALA762  ILE779  LEU786  VAL792 
 PHE793  MET794  SER795  GLU796  ALA797  LYS798  CYS799  TRP800  GLU811  SER814 

> <Gold.Protein.RotatedAtoms>
  151.4741  135.1048  159.9759 H   0  0  0  0  0  0  0  0  0  0  0  0  # atno 6907 bound_to 6896
  152.4805  133.8238  159.7078 H   0  0  0  0  0  0  0  0  0  0  0  0  # atno 6908 bound_to 6896
  150.8873  133.7229  159.2941 H   0  0  0  0  0  0  0  0  0  0  0  0  # atno 6909 bound_to 6896
  146.0037  140.7045  142.9258 H   0  0  0  0  0  0  0  0  0  0  0  0  # atno 7974 bound_to 7965
  154.9917  140.0395  157.2322 H   0  0  0  0  0  0  0  0  0  0  0  0  # atno 8008 bound_to 7997
  154.7623  140.2786  155.6182 H   0  0  0  0  0  0  0  0  0  0  0  0  # atno 8009 bound_to 7997
  156.2906  140.2626  156.2404 H   0  0  0  0  0  0  0  0  0  0  0  0  # atno 8010 bound_to 7997
  140.7288  143.4420  151.0643 H   0  0  0  0  0  0  0  0  0  0  0  0  # atno 10167 bound_to 10162
  156.0072  130.5172  150.6298 H   0  0  0  0  0  0  0  0  0  0  0  0  # atno 10718 bound_to 10713
  153.1677  135.4540  154.9860 H   0  0  0  0  0  0  0  0  0  0  0  0  # atno 10763 bound_to 10752
  154.7944  135.3232  154.7705 H   0  0  0  0  0  0  0  0  0  0  0  0  # atno 10764 bound_to 10752
  153.8185  135.6949  153.4885 H   0  0  0  0  0  0  0  0  0  0  0  0  # atno 10765 bound_to 10752
  140.1486  134.4490  155.8398 H   0  0  0  0  0  0  0  0  0  0  0  0  # atno 11005 bound_to 11000
  144.6928  140.3277  143.7221 LP  0  0  0  0  0  0  0  0  0  0  0  0  # atno 17320 bound_to 7965
  145.7449  139.1775  143.2355 LP  0  0  0  0  0  0  0  0  0  0  0  0  # atno 17321 bound_to 7965
  139.8088  143.7980  152.3169 LP  0  0  0  0  0  0  0  0  0  0  0  0  # atno 17342 bound_to 10162
  139.8022  144.7369  150.9809 LP  0  0  0  0  0  0  0  0  0  0  0  0  # atno 17343 bound_to 10162
  157.4098  131.0822  151.1231 LP  0  0  0  0  0  0  0  0  0  0  0  0  # atno 17370 bound_to 10713
  157.1866  130.6333  149.5690 LP  0  0  0  0  0  0  0  0  0  0  0  0  # atno 17371 bound_to 10713
  141.2196  133.6863  156.7380 LP  0  0  0  0  0  0  0  0  0  0  0  0  # atno 17394 bound_to 11000
  140.2632  134.8450  157.3778 LP  0  0  0  0  0  0  0  0  0  0  0  0  # atno 17395 bound_to 11000

$$$$
