AV-unprocessed.smi:2067|AV-procd|sdf|8425|dock6
  -GOLD-   2272011123D 1   1.00000     0.00000
 Structure written by MMmdl.
 47 48  0  0  0  0  0  0  0  0  1 V2000
  150.6795  141.1631  156.0502 C   0  0  0  0  0  0  0  0  0  0  0  0
  149.6471  140.9768  154.9289 C   0  0  2  0  0  0  0  0  0  0  0  0
  148.3141  141.6841  155.2442 C   0  0  0  0  0  0  0  0  0  0  0  0
  147.3136  141.5323  154.0866 C   0  0  0  0  0  0  0  0  0  0  0  0
  147.0870  140.0546  153.7302 C   0  0  0  0  0  0  0  0  0  0  0  0
  148.4159  139.3399  153.4287 C   0  0  0  0  0  0  0  0  0  0  0  0
  149.4172  139.4869  154.5933 C   0  0  2  0  0  0  0  0  0  0  0  0
  148.8988  138.8290  155.7439 O   0  0  0  0  0  0  0  0  0  0  0  0
  148.5567  137.4671  155.5380 C   0  0  0  0  0  0  0  0  0  0  0  0
  149.7776  136.7356  154.9737 C   0  0  0  0  0  0  0  0  0  0  0  0
  149.4165  135.4406  154.4180 N   0  0  0  0  0  0  0  0  0  0  0  0
  149.8635  134.2029  154.8708 C   0  0  0  0  0  0  0  0  0  0  0  0
  150.7127  134.0959  155.9321 C   0  0  0  0  0  0  0  0  0  0  0  0
  151.1695  135.2195  156.6892 C   0  0  0  0  0  0  0  0  0  0  0  0
  151.5407  136.1177  157.3189 N   0  0  0  0  0  0  0  0  0  0  0  0
  151.2012  132.8040  156.4122 C   0  0  0  0  0  0  0  0  0  0  0  0
  151.9610  132.6812  157.3753 O   0  0  0  0  0  0  0  0  0  0  0  0
  150.7279  131.6906  155.6842 N   0  0  0  0  0  0  0  0  0  0  0  0
  151.1541  130.3602  156.0711 C   0  0  0  0  0  0  0  0  0  0  0  0
  149.8363  131.7732  154.5976 C   0  0  0  0  0  0  0  0  0  0  0  0
  149.4458  130.7561  154.0150 O   0  0  0  0  0  0  0  0  0  0  0  0
  149.4040  133.0627  154.2057 N   0  0  0  0  0  0  0  0  0  0  0  0
  148.4820  133.0723  153.0896 C   0  0  0  0  0  0  0  0  0  0  0  0
  150.3350  140.7211  156.9837 H   0  0  0  0  0  0  0  0  0  0  0  0
  150.8725  142.2202  156.2346 H   0  0  0  0  0  0  0  0  0  0  0  0
  151.6293  140.6943  155.7917 H   0  0  0  0  0  0  0  0  0  0  0  0
  150.0637  141.4504  154.0386 H   0  0  0  0  0  0  0  0  0  0  0  0
  147.8822  141.2741  156.1584 H   0  0  0  0  0  0  0  0  0  0  0  0
  148.4899  142.7430  155.4366 H   0  0  0  0  0  0  0  0  0  0  0  0
  146.3652  142.0003  154.3514 H   0  0  0  0  0  0  0  0  0  0  0  0
  147.6864  142.0646  153.2107 H   0  0  0  0  0  0  0  0  0  0  0  0
  146.5805  139.5538  154.5564 H   0  0  0  0  0  0  0  0  0  0  0  0
  146.4211  139.9785  152.8703 H   0  0  0  0  0  0  0  0  0  0  0  0
  148.2293  138.2884  153.2112 H   0  0  0  0  0  0  0  0  0  0  0  0
  148.8534  139.7622  152.5232 H   0  0  0  0  0  0  0  0  0  0  0  0
  150.3755  139.0468  154.3099 H   0  0  0  0  0  0  0  0  0  0  0  0
  148.2687  136.9988  156.4795 H   0  0  0  0  0  0  0  0  0  0  0  0
  147.7046  137.3902  154.8610 H   0  0  0  0  0  0  0  0  0  0  0  0
  150.2448  137.3625  154.2144 H   0  0  0  0  0  0  0  0  0  0  0  0
  150.5151  136.5790  155.7610 H   0  0  0  0  0  0  0  0  0  0  0  0
  149.2548  135.4843  153.4219 H   0  0  0  0  0  0  0  0  0  0  0  0
  151.5382  129.8631  155.1786 H   0  0  0  0  0  0  0  0  0  0  0  0
  150.2766  129.8463  156.4669 H   0  0  0  0  0  0  0  0  0  0  0  0
  151.9438  130.3968  156.8207 H   0  0  0  0  0  0  0  0  0  0  0  0
  149.0047  132.6452  152.2319 H   0  0  0  0  0  0  0  0  0  0  0  0
  148.1621  134.0869  152.8638 H   0  0  0  0  0  0  0  0  0  0  0  0
  147.6150  132.4724  153.3731 H   0  0  0  0  0  0  0  0  0  0  0  0
  1  2  1  0  0  0  0
  1 24  1  0  0  0  0
  1 25  1  0  0  0  0
  1 26  1  0  0  0  0
  2  7  1  0  0  0  0
  2  3  1  0  0  0  0
  2 27  1  0  0  0  0
  3  4  1  0  0  0  0
  3 28  1  0  0  0  0
  3 29  1  0  0  0  0
  4  5  1  0  0  0  0
  4 30  1  0  0  0  0
  4 31  1  0  0  0  0
  5  6  1  0  0  0  0
  5 32  1  0  0  0  0
  5 33  1  0  0  0  0
  6  7  1  0  0  0  0
  6 34  1  0  0  0  0
  6 35  1  0  0  0  0
  7  8  1  0  0  0  0
  7 36  1  0  0  0  0
  8  9  1  0  0  0  0
  9 10  1  0  0  0  0
  9 37  1  0  0  0  0
  9 38  1  0  0  0  0
 10 11  1  0  0  0  0
 10 39  1  0  0  0  0
 10 40  1  0  0  0  0
 11 12  1  0  0  0  0
 11 41  1  0  0  0  0
 12 22  1  0  0  0  0
 12 13  2  0  0  0  0
 13 14  1  0  0  0  0
 13 16  1  0  0  0  0
 14 15  3  0  0  0  0
 16 17  2  0  0  0  0
 16 18  1  0  0  0  0
 18 19  1  0  0  0  0
 18 20  1  0  0  0  0
 19 42  1  0  0  0  0
 19 43  1  0  0  0  0
 19 44  1  0  0  0  0
 20 21  2  0  0  0  0
 20 22  1  0  0  0  0
 22 23  1  0  0  0  0
 23 45  1  0  0  0  0
 23 46  1  0  0  0  0
 23 47  1  0  0  0  0
M  END
> <s_m_source_file>
AV-unprocessed.smi

> <i_m_source_file_index>
2067

> <i_lp_mmshare_version>
43012

> <i_f3d_flags>
0

> <s_epik_input>
W0NIM11bQ0BASF0xW0NIMl1bQ0gyXVtDSDJdW0NIMl1bQ0BIXTFPW0NIMl1bQ0gyXVtOSF1jMmMoQyNOKWMoPU8pbihbQ0gzXSljKD1PKW4yW0NIM10=

> <s_epik_cmdline>
J2VwaWtfcHl0aG9uJywgJy1waCcsICc3LjAnLCAnLXRuJywgJzgnLCAnLW1hJywgJzIwMCcsICctbWV0YWxfYmluZGluZycsICctaW1hZScsICc8aW5maWxlLm1hZT4nLCAnLW9tYWUnLCAnPG91dGZpbGUubWFlPic=

> <r_epik_Ionization_Penalty>
0.00056529

> <r_epik_Ionization_Penalty_Charging>
3.94678e-10

> <r_epik_Ionization_Penalty_Neutral>
0.000565289

> <r_epik_State_Penalty>
0.000354611

> <r_epik_Charging_Adjusted_Penalty>
0.000354611

> <i_epik_Tot_Q>
0

> <i_epik_Tot_abs_Q>
0

> <r_epik_Metal_State_Penalty>
-0

> <b_epik_Metal_Only>
0

> <s_lp_Force_Field>
OPLS_2005

> <r_lp_Energy>
32.9241

> <b_lp_Chiralities_Consistent>
1

> <s_lp_Variant>
AV-unprocessed.smi:2067-3

> <Gold.Version>
5.8.1

> <Gold.Id.Protein>
6NUR|6NUR_protein|mol2

> <Gold.PLP.Fitness>
43.0626

> <Gold.PLP.PLP>
-37.2342

> <Gold.PLP.part.hbond>
-2.0665

> <Gold.PLP.part.metal>
0.0000

> <Gold.PLP.part.buried>
2.0574

> <Gold.PLP.part.nonpolar>
-37.1357

> <Gold.PLP.part.repulsive>
0.1492

> <Gold.PLP.ligand.clash>
10.1185

> <Gold.PLP.ligand.torsion>
0.0753

> <Gold.PLP.Chemscore.Hbond>
1.9920

> <Gold.PLP.Chemscore.CHOScore>
0.0000

> <Gold.PLP.Chemscore.Metal>
0.0000

> <Gold.Chemscore.Hbonds>
donor molecule, donor type, donor heavy atom, donor atom, acceptor molecule, acceptor atom, score
      L1  H    11    41       P1  7948  1.00
      P1  H  6896  6907       L1    17  0.99

> <Gold.PLP.Chemscore.Internal.Correction>
10.1216

> <Gold.Rescore>
     Score         DG    S(hbond)    S(metal)    S(lipo)     H(rot)  DE(clash)    DE(int)     intcor
     10.73     -13.75       1.76        0.00      58.98       1.76       0.37       2.65       ----

> <Gold.Chemscore.Fitness>
10.7291

> <Gold.Chemscore.DG>
-13.7507

> <Gold.Chemscore.ZeroCoef>
-5.4800

> <Gold.Chemscore.Hbond>
1.7579

> <Gold.Chemscore.Metal>
0.0000

> <Gold.Chemscore.Lipo>
58.9788

> <Gold.Chemscore.Internal_Hbond>
0.0000

> <Gold.Chemscore.DEClash>
0.3733

> <Gold.Chemscore.DEInternal>
2.6483

> <Gold.Chemscore.Rot>
1.7583

> <Gold.Chemscore.Internal.Correction>
   9.000000E+99

> <Gold.Chemscore.Hbonds>
donor molecule, donor type, donor heavy atom, donor atom, acceptor molecule, acceptor atom, score
      L1  H    11    41       P1  7948  0.34
      P1  H  6896  6907       L1    17  0.90

> <Gold.Chemscore.Hbond.Weighted>
-5.8714

> <Gold.Chemscore.Metal.Weighted>
-0.0000

> <Gold.Chemscore.Lipo.Weighted>
-6.9005

> <Gold.Chemscore.Internal_Hbond.Weighted>
0.0000

> <Gold.Chemscore.DEClash.Weighted>
0.3733

> <Gold.Chemscore.DEInternal.Weighted>
2.6483

> <Gold.Chemscore.Rot.Weighted>
4.5012

> <Gold.Chemscore.Internal.Correction.Weighted>
   9.000000E+99

> <Gold.Protein.RotatedTorsions>
[ 6907 6896 6895 6894 ] final -176.64 input  -60.11 | X-H torsion
[ 7974 7965 7964 7962 ] final  121.88 input  175.53 | X-H torsion
[ 8008 7997 7996 7995 ] final    8.84 input   59.86 | X-H torsion
[ 10167 10162 10161 10158 ] final   62.74 input  -65.29 | X-H torsion
[ 10718 10713 10712 10709 ] final   23.50 input   66.30 | X-H torsion
[ 10763 10752 10751 10750 ] final  112.56 input  -60.55 | X-H torsion
[ 11005 11000 10999 10996 ] final  130.00 input  -57.11 | X-H torsion

> <Gold.Protein.ActiveResidues>
 VAL166  LYS551  ARG553  GLY616  TRP617  ASP618  TYR619  PRO620  LYS621  CYS622 
 ASP623  PHE694  ASN695  SER759  ASP760  ASP761  ALA762  ILE779  LEU786  VAL792 
 PHE793  MET794  SER795  GLU796  ALA797  LYS798  CYS799  TRP800  GLU811  SER814 

> <Gold.Protein.RotatedAtoms>
  151.6081  133.3350  159.3061 H   0  0  0  0  0  0  0  0  0  0  0  0  # atno 6907 bound_to 6896
  150.8171  134.7363  159.6751 H   0  0  0  0  0  0  0  0  0  0  0  0  # atno 6908 bound_to 6896
  152.4267  134.5861  160.0013 H   0  0  0  0  0  0  0  0  0  0  0  0  # atno 6909 bound_to 6896
  145.1141  139.3433  143.4748 H   0  0  0  0  0  0  0  0  0  0  0  0  # atno 7974 bound_to 7965
  154.7722  140.2804  155.6129 H   0  0  0  0  0  0  0  0  0  0  0  0  # atno 8008 bound_to 7997
  156.2935  140.2639  156.2455 H   0  0  0  0  0  0  0  0  0  0  0  0  # atno 8009 bound_to 7997
  154.9886  140.0374  157.2299 H   0  0  0  0  0  0  0  0  0  0  0  0  # atno 8010 bound_to 7997
  140.1407  144.4556  150.6813 H   0  0  0  0  0  0  0  0  0  0  0  0  # atno 10167 bound_to 10162
  157.1670  130.6742  149.6064 H   0  0  0  0  0  0  0  0  0  0  0  0  # atno 10718 bound_to 10713
  153.4796  135.3682  155.2435 H   0  0  0  0  0  0  0  0  0  0  0  0  # atno 10763 bound_to 10752
  154.8755  135.3951  154.3716 H   0  0  0  0  0  0  0  0  0  0  0  0  # atno 10764 bound_to 10752
  153.4317  135.7082  153.6291 H   0  0  0  0  0  0  0  0  0  0  0  0  # atno 10765 bound_to 10752
  139.9647  134.9593  156.9230 H   0  0  0  0  0  0  0  0  0  0  0  0  # atno 11005 bound_to 11000
  146.3525  140.1072  142.8605 LP  0  0  0  0  0  0  0  0  0  0  0  0  # atno 17320 bound_to 7965
  145.0814  140.9223  143.4823 LP  0  0  0  0  0  0  0  0  0  0  0  0  # atno 17321 bound_to 7965
  140.6762  143.2306  151.5501 LP  0  0  0  0  0  0  0  0  0  0  0  0  # atno 17342 bound_to 10162
  139.5473  144.2486  152.1467 LP  0  0  0  0  0  0  0  0  0  0  0  0  # atno 17343 bound_to 10162
  155.9744  130.4692  150.6387 LP  0  0  0  0  0  0  0  0  0  0  0  0  # atno 17370 bound_to 10713
  157.4079  131.0819  151.1248 LP  0  0  0  0  0  0  0  0  0  0  0  0  # atno 17371 bound_to 10713
  140.5423  134.0708  155.7345 LP  0  0  0  0  0  0  0  0  0  0  0  0  # atno 17394 bound_to 11000
  141.1326  133.9276  157.2503 LP  0  0  0  0  0  0  0  0  0  0  0  0  # atno 17395 bound_to 11000

$$$$
