AV-unprocessed.smi:244|AV-procd|sdf|1869|dock10
  -GOLD-   2262020503D 1   1.00000     0.00000
 Structure written by MMmdl.
 57 61  0  0  0  0  0  0  0  0  2 V2000
  148.0044  133.3276  152.9099 C   0  0  0  0  0  0  0  0  0  0  0  0
  146.9348  132.3203  153.0975 N   0  3  2  0  0  0  0  0  0  0  0  0
  146.7198  131.4471  151.9166 C   0  0  0  0  0  0  0  0  0  0  0  0
  145.9246  132.1625  150.8129 C   0  0  0  0  0  0  0  0  0  0  0  0
  144.5805  132.6837  151.3591 C   0  0  2  0  0  0  0  0  0  0  0  0
  143.8033  133.3426  150.3586 O   0  0  0  0  0  0  0  0  0  0  0  0
  144.3078  134.6129  149.9569 C   0  0  0  0  0  0  0  0  0  0  0  0
  144.4221  135.5356  151.1767 C   0  0  0  0  0  0  0  0  0  0  0  0
  145.2391  134.9179  152.2146 N   0  0  0  0  0  0  0  0  0  0  0  0
  145.4910  135.8087  153.2028 C   0  0  0  0  0  0  0  0  0  0  0  0
  145.2274  135.4936  154.4986 N   0  0  0  0  0  0  0  0  0  0  0  0
  145.4731  136.3832  155.4656 C   0  0  0  0  0  0  0  0  0  0  0  0
  145.9709  137.6171  155.3579 N   0  0  0  0  0  0  0  0  0  0  0  0
  146.2279  137.9365  154.0568 C   0  0  0  0  0  0  0  0  0  0  0  0
  146.0105  137.1005  152.9271 C   0  0  0  0  0  0  0  0  0  0  0  0
  146.3800  137.7619  151.7633 N   0  0  0  0  0  0  0  0  0  0  0  0
  146.7961  138.9262  152.1819 C   0  0  0  0  0  0  0  0  0  0  0  0
  146.7533  139.1102  153.5462 N   0  0  0  0  0  0  0  0  0  0  0  0
  147.1683  140.2964  154.2785 C   0  0  0  0  0  0  0  0  0  0  0  0
  148.7047  140.4798  154.3567 C   0  0  0  0  0  0  0  0  0  0  0  0
  149.1284  141.1170  153.1638 O   0  0  0  0  0  0  0  0  0  0  0  0
  149.1394  141.3563  155.5523 C   0  0  0  0  0  0  0  0  0  0  0  0
  150.6663  141.3561  155.7462 C   0  0  0  0  0  0  0  0  0  0  0  0
  151.1432  140.0227  155.8770 O   0  0  0  0  0  0  0  0  0  0  0  0
  150.9157  139.2428  154.7096 C   0  0  0  0  0  0  0  0  0  0  0  0
  149.4038  139.1089  154.4539 C   0  0  0  0  0  0  0  0  0  0  0  0
  144.7679  133.5829  152.6049 C   0  0  2  0  0  0  0  0  0  0  0  0
  145.6666  132.8649  153.6532 C   0  0  0  0  0  0  0  0  0  0  0  0
  147.7851  134.0098  152.0899 H   0  0  0  0  0  0  0  0  0  0  0  0
  148.9519  132.8359  152.6885 H   0  0  0  0  0  0  0  0  0  0  0  0
  148.1430  133.9180  153.8163 H   0  0  0  0  0  0  0  0  0  0  0  0
  147.6783  131.0969  151.5317 H   0  0  0  0  0  0  0  0  0  0  0  0
  146.1763  130.5583  152.2394 H   0  0  0  0  0  0  0  0  0  0  0  0
  146.5279  132.9735  150.4080 H   0  0  0  0  0  0  0  0  0  0  0  0
  145.7436  131.4753  149.9860 H   0  0  0  0  0  0  0  0  0  0  0  0
  143.9980  131.8130  151.6627 H   0  0  0  0  0  0  0  0  0  0  0  0
  145.2673  134.5129  149.4504 H   0  0  0  0  0  0  0  0  0  0  0  0
  143.6208  135.0450  149.2292 H   0  0  0  0  0  0  0  0  0  0  0  0
  144.8516  136.4915  150.8725 H   0  0  0  0  0  0  0  0  0  0  0  0
  143.4285  135.7439  151.5769 H   0  0  0  0  0  0  0  0  0  0  0  0
  145.2389  136.0598  156.4691 H   0  0  0  0  0  0  0  0  0  0  0  0
  147.1601  139.6847  151.5042 H   0  0  0  0  0  0  0  0  0  0  0  0
  146.7138  141.1628  153.7957 H   0  0  0  0  0  0  0  0  0  0  0  0
  146.7389  140.2490  155.2803 H   0  0  0  0  0  0  0  0  0  0  0  0
  149.1317  140.4790  152.4664 H   0  0  0  0  0  0  0  0  0  0  0  0
  148.7895  142.3821  155.4309 H   0  0  0  0  0  0  0  0  0  0  0  0
  148.6738  140.9775  156.4632 H   0  0  0  0  0  0  0  0  0  0  0  0
  151.1677  141.8543  154.9151 H   0  0  0  0  0  0  0  0  0  0  0  0
  150.9265  141.9109  156.6478 H   0  0  0  0  0  0  0  0  0  0  0  0
  151.4230  139.6898  153.8534 H   0  0  0  0  0  0  0  0  0  0  0  0
  151.3562  138.2565  154.8570 H   0  0  0  0  0  0  0  0  0  0  0  0
  148.9671  138.5400  155.2759 H   0  0  0  0  0  0  0  0  0  0  0  0
  149.2275  138.5229  153.5511 H   0  0  0  0  0  0  0  0  0  0  0  0
  143.7827  133.7216  153.0535 H   0  0  0  0  0  0  0  0  0  0  0  0
  145.1079  132.0150  154.0468 H   0  0  0  0  0  0  0  0  0  0  0  0
  145.8777  133.4899  154.5206 H   0  0  0  0  0  0  0  0  0  0  0  0
  147.2943  131.7104  153.8181 H   0  0  0  0  0  0  0  0  0  0  0  0
  1  2  1  0  0  0  0
  1 29  1  0  0  0  0
  1 30  1  0  0  0  0
  1 31  1  0  0  0  0
  2 28  1  0  0  0  0
  2  3  1  0  0  0  0
  2 57  1  0  0  0  0
  3  4  1  0  0  0  0
  3 32  1  0  0  0  0
  3 33  1  0  0  0  0
  4  5  1  0  0  0  0
  4 34  1  0  0  0  0
  4 35  1  0  0  0  0
  5 27  1  0  0  0  0
  5  6  1  0  0  0  0
  5 36  1  0  0  0  0
  6  7  1  0  0  0  0
  7  8  1  0  0  0  0
  7 37  1  0  0  0  0
  7 38  1  0  0  0  0
  8  9  1  0  0  0  0
  8 39  1  0  0  0  0
  8 40  1  0  0  0  0
  9 10  1  0  0  0  0
  9 27  1  0  0  0  0
 10 15  1  0  0  0  0
 10 11  2  0  0  0  0
 11 12  1  0  0  0  0
 12 13  2  0  0  0  0
 12 41  1  0  0  0  0
 13 14  1  0  0  0  0
 14 18  1  0  0  0  0
 14 15  2  0  0  0  0
 15 16  1  0  0  0  0
 16 17  2  0  0  0  0
 17 18  1  0  0  0  0
 17 42  1  0  0  0  0
 18 19  1  0  0  0  0
 19 20  1  0  0  0  0
 19 43  1  0  0  0  0
 19 44  1  0  0  0  0
 20 26  1  0  0  0  0
 20 21  1  0  0  0  0
 20 22  1  0  0  0  0
 21 45  1  0  0  0  0
 22 23  1  0  0  0  0
 22 46  1  0  0  0  0
 22 47  1  0  0  0  0
 23 24  1  0  0  0  0
 23 48  1  0  0  0  0
 23 49  1  0  0  0  0
 24 25  1  0  0  0  0
 25 26  1  0  0  0  0
 25 50  1  0  0  0  0
 25 51  1  0  0  0  0
 26 52  1  0  0  0  0
 26 53  1  0  0  0  0
 27 28  1  0  0  0  0
 27 54  1  0  0  0  0
 28 55  1  0  0  0  0
 28 56  1  0  0  0  0
M  CHG  1   2   1
M  END
> <s_m_source_file>
AV-unprocessed.smi

> <i_m_source_file_index>
244

> <i_lp_mmshare_version>
43012

> <i_f3d_flags>
0

> <s_epik_input>
W0NIMl0xW0NIMl1OKFtDSDNdKVtDSDJdW0NAQEhdKFtDQEhdMTIpTihbQ0gyXVtDSDJdTzIpYyhuW2NIXW4zKWMoYzM0KW5bY0hdbjRbQ0gyXUM1KFtPSF0pW0NIMl1bQ0gyXU9bQ0gyXVtDSDJdNQ==

> <s_epik_cmdline>
J2VwaWtfcHl0aG9uJywgJy1waCcsICc3LjAnLCAnLXRuJywgJzgnLCAnLW1hJywgJzIwMCcsICctbWV0YWxfYmluZGluZycsICctaW1hZScsICc8aW5maWxlLm1hZT4nLCAnLW9tYWUnLCAnPG91dGZpbGUubWFlPic=

> <r_lp_tautomer_probability>
1

> <r_epik_Ionization_Penalty>
0.0136215

> <r_epik_Ionization_Penalty_Charging>
0.0131385

> <r_epik_Ionization_Penalty_Neutral>
0.000483022

> <r_epik_State_Penalty>
0.0104001

> <r_epik_Charging_Adjusted_Penalty>
0.0235387

> <i_epik_Tot_Q>
1

> <i_epik_Tot_abs_Q>
1

> <r_epik_Metal_State_Penalty>
0.0104469

> <b_epik_Metal_Only>
0

> <s_lp_Force_Field>
OPLS_2005

> <r_lp_Energy>
50.9375

> <b_lp_Chiralities_Consistent>
1

> <s_lp_Variant>
AV-unprocessed.smi:244-6

> <Gold.Version>
5.8.1

> <Gold.Id.Protein>
6NUR|6NUR_protein|mol2

> <Gold.PLP.Fitness>
43.0561

> <Gold.PLP.PLP>
-36.0949

> <Gold.PLP.part.hbond>
-2.4184

> <Gold.PLP.part.metal>
0.0000

> <Gold.PLP.part.buried>
-2.7822

> <Gold.PLP.part.nonpolar>
-34.0529

> <Gold.PLP.part.repulsive>
1.9328

> <Gold.PLP.ligand.clash>
0.0000

> <Gold.PLP.ligand.torsion>
0.6208

> <Gold.PLP.Chemscore.Hbond>
1.8040

> <Gold.PLP.Chemscore.CHOScore>
0.8819

> <Gold.PLP.Chemscore.Metal>
0.0000

> <Gold.Chemscore.Hbonds>
donor molecule, donor type, donor heavy atom, donor atom, acceptor molecule, acceptor atom, score
      L1  H    21    45       P1  7957  0.81
      P1  H  8011  8017       L1    21  0.90
      L1  C    17    42       P1  7957  0.84

> <Gold.PLP.Chemscore.Internal.Correction>
0.1452

> <Gold.Rescore>
     Score         DG    S(hbond)    S(metal)    S(lipo)     H(rot)  DE(clash)    DE(int)     intcor
     10.08     -14.42       1.06        0.00      91.99       2.09       1.78       2.56       ----

> <Gold.Chemscore.Fitness>
10.0841

> <Gold.Chemscore.DG>
-14.4244

> <Gold.Chemscore.ZeroCoef>
-5.4800

> <Gold.Chemscore.Hbond>
1.0583

> <Gold.Chemscore.Metal>
0.0000

> <Gold.Chemscore.Lipo>
91.9900

> <Gold.Chemscore.Internal_Hbond>
0.0000

> <Gold.Chemscore.DEClash>
1.7797

> <Gold.Chemscore.DEInternal>
2.5606

> <Gold.Chemscore.Rot>
2.0911

> <Gold.Chemscore.Internal.Correction>
   9.000000E+99

> <Gold.Chemscore.Hbonds>
donor molecule, donor type, donor heavy atom, donor atom, acceptor molecule, acceptor atom, score
      L1  H    21    45       P1  7957  0.75
      P1  H  8011  8017       L1    21  0.18

> <Gold.Chemscore.Hbond.Weighted>
-3.5347

> <Gold.Chemscore.Metal.Weighted>
-0.0000

> <Gold.Chemscore.Lipo.Weighted>
-10.7628

> <Gold.Chemscore.Internal_Hbond.Weighted>
0.0000

> <Gold.Chemscore.DEClash.Weighted>
1.7797

> <Gold.Chemscore.DEInternal.Weighted>
2.5606

> <Gold.Chemscore.Rot.Weighted>
5.3531

> <Gold.Chemscore.Internal.Correction.Weighted>
   9.000000E+99

> <Gold.Protein.RotatedTorsions>
[ 6907 6896 6895 6894 ] final  -45.23 input  -60.11 | X-H torsion
[ 7974 7965 7964 7962 ] final  155.70 input  175.53 | X-H torsion
[ 8008 7997 7996 7995 ] final  -14.87 input   59.86 | X-H torsion
[ 10167 10162 10161 10158 ] final   39.42 input  -65.29 | X-H torsion
[ 10718 10713 10712 10709 ] final -154.73 input   66.30 | X-H torsion
[ 10763 10752 10751 10750 ] final  138.78 input  -60.55 | X-H torsion
[ 11005 11000 10999 10996 ] final  -85.34 input  -57.11 | X-H torsion

> <Gold.Protein.ActiveResidues>
 VAL166  LYS551  ARG553  GLY616  TRP617  ASP618  TYR619  PRO620  LYS621  CYS622 
 ASP623  PHE694  ASN695  SER759  ASP760  ASP761  ALA762  ILE779  LEU786  VAL792 
 PHE793  MET794  SER795  GLU796  ALA797  LYS798  CYS799  TRP800  GLU811  SER814 

> <Gold.Protein.RotatedAtoms>
  150.9242  134.8659  159.7508 H   0  0  0  0  0  0  0  0  0  0  0  0  # atno 6907 bound_to 6896
  152.5007  134.4174  159.9479 H   0  0  0  0  0  0  0  0  0  0  0  0  # atno 6908 bound_to 6896
  151.4205  133.3660  159.2790 H   0  0  0  0  0  0  0  0  0  0  0  0  # atno 6909 bound_to 6896
  144.8008  139.7104  143.6182 H   0  0  0  0  0  0  0  0  0  0  0  0  # atno 7974 bound_to 7965
  154.5175  140.2211  155.9038 H   0  0  0  0  0  0  0  0  0  0  0  0  # atno 8008 bound_to 7997
  156.1624  140.3139  155.8796 H   0  0  0  0  0  0  0  0  0  0  0  0  # atno 8009 bound_to 7997
  155.3724  140.0467  157.3036 H   0  0  0  0  0  0  0  0  0  0  0  0  # atno 8010 bound_to 7997
  140.3841  144.1940  150.6130 H   0  0  0  0  0  0  0  0  0  0  0  0  # atno 10167 bound_to 10162
  156.5032  130.8401  151.2617 H   0  0  0  0  0  0  0  0  0  0  0  0  # atno 10718 bound_to 10713
  153.8953  135.3028  155.3448 H   0  0  0  0  0  0  0  0  0  0  0  0  # atno 10763 bound_to 10752
  154.7697  135.4892  153.9627 H   0  0  0  0  0  0  0  0  0  0  0  0  # atno 10764 bound_to 10752
  153.1275  135.6796  153.9332 H   0  0  0  0  0  0  0  0  0  0  0  0  # atno 10765 bound_to 10752
  141.1642  133.7394  156.9001 H   0  0  0  0  0  0  0  0  0  0  0  0  # atno 11005 bound_to 11000
  146.2289  139.5776  142.9568 LP  0  0  0  0  0  0  0  0  0  0  0  0  # atno 17320 bound_to 7965
  145.5557  141.0409  143.2254 LP  0  0  0  0  0  0  0  0  0  0  0  0  # atno 17321 bound_to 7965
  140.4907  143.2348  151.8822 LP  0  0  0  0  0  0  0  0  0  0  0  0  # atno 17342 bound_to 10162
  139.4793  144.5168  151.8856 LP  0  0  0  0  0  0  0  0  0  0  0  0  # atno 17343 bound_to 10162
  157.7460  130.9974  150.2817 LP  0  0  0  0  0  0  0  0  0  0  0  0  # atno 17370 bound_to 10713
  156.3312  130.3800  149.7489 LP  0  0  0  0  0  0  0  0  0  0  0  0  # atno 17371 bound_to 10713
  140.1588  134.9180  157.2688 LP  0  0  0  0  0  0  0  0  0  0  0  0  # atno 17394 bound_to 11000
  140.2635  134.3543  155.7398 LP  0  0  0  0  0  0  0  0  0  0  0  0  # atno 17395 bound_to 11000

$$$$
