AV-unprocessed.smi:2846|AV-procd|sdf|10951|dock8
  -GOLD-   2272015403D 1   1.00000     0.00000
 Structure written by MMmdl.
 48 50  0  0  0  0  0  0  0  0  1 V2000
  150.9274  140.6219  157.4864 O   0  0  0  0  0  0  0  0  0  0  0  0
  150.4967  141.7139  157.1139 C   0  0  0  0  0  0  0  0  0  0  0  0
  151.3458  142.9796  157.2544 C   0  0  0  0  0  0  0  0  0  0  0  0
  151.8817  143.2815  158.6444 C   0  0  0  0  0  0  0  0  0  0  0  0
  151.6584  144.4600  159.2580 C   0  0  0  0  0  0  0  0  0  0  0  0
  152.1598  144.8042  160.6492 C   0  0  0  0  0  0  0  0  0  0  0  0
  152.6382  143.5631  161.4215 C   0  0  0  0  0  0  0  0  0  0  0  0
  153.4854  142.6475  160.5287 C   0  0  0  0  0  0  0  0  0  0  0  0
  152.6929  142.1694  159.2984 C   0  0  0  0  0  0  0  0  0  0  0  0
  149.2848  141.8800  156.5636 N   0  0  0  0  0  0  0  0  0  0  0  0
  148.3109  140.8189  156.3145 C   0  0  0  0  0  0  0  0  0  0  0  0
  147.0384  141.3164  155.5732 C   0  0  0  0  0  0  0  0  0  0  0  0
  146.1975  142.1940  156.5131 C   0  0  0  0  0  0  0  0  0  0  0  0
  146.6169  142.4273  157.8430 C   0  0  0  0  0  0  0  0  0  0  0  0
  145.8335  143.2548  158.6714 C   0  0  0  0  0  0  0  0  0  0  0  0
  144.6950  143.8509  158.2607 N   0  0  0  0  0  0  0  0  0  0  0  0
  144.2993  143.6386  156.9885 C   0  0  0  0  0  0  0  0  0  0  0  0
  145.0098  142.8296  156.0798 C   0  0  0  0  0  0  0  0  0  0  0  0
  147.3889  142.0203  154.2424 C   0  0  0  0  0  0  0  0  0  0  0  0
  147.6752  140.9080  153.2300 C   0  0  0  0  0  0  0  0  0  0  0  0
  146.8867  139.6889  153.7204 C   0  0  0  0  0  0  0  0  0  0  0  0
  146.2361  140.1084  155.0451 C   0  0  0  0  0  0  0  0  0  0  0  0
  152.1940  142.8764  156.5760 H   0  0  0  0  0  0  0  0  0  0  0  0
  150.7782  143.8402  156.8979 H   0  0  0  0  0  0  0  0  0  0  0  0
  151.0998  145.2318  158.7488 H   0  0  0  0  0  0  0  0  0  0  0  0
  152.9746  145.5212  160.5452 H   0  0  0  0  0  0  0  0  0  0  0  0
  151.3657  145.3037  161.2046 H   0  0  0  0  0  0  0  0  0  0  0  0
  153.2049  143.8672  162.3020 H   0  0  0  0  0  0  0  0  0  0  0  0
  151.7748  143.0060  161.7873 H   0  0  0  0  0  0  0  0  0  0  0  0
  154.3721  143.1914  160.2000 H   0  0  0  0  0  0  0  0  0  0  0  0
  153.8437  141.7886  161.0968 H   0  0  0  0  0  0  0  0  0  0  0  0
  152.0041  141.3739  159.5840 H   0  0  0  0  0  0  0  0  0  0  0  0
  153.3817  141.7432  158.5681 H   0  0  0  0  0  0  0  0  0  0  0  0
  149.0178  142.8131  156.2843 H   0  0  0  0  0  0  0  0  0  0  0  0
  148.7747  139.9831  155.7888 H   0  0  0  0  0  0  0  0  0  0  0  0
  148.0264  140.4240  157.2904 H   0  0  0  0  0  0  0  0  0  0  0  0
  147.5245  141.9879  158.2290 H   0  0  0  0  0  0  0  0  0  0  0  0
  146.1332  143.4461  159.6912 H   0  0  0  0  0  0  0  0  0  0  0  0
  143.3899  144.1334  156.6818 H   0  0  0  0  0  0  0  0  0  0  0  0
  144.6415  142.7149  155.0716 H   0  0  0  0  0  0  0  0  0  0  0  0
  146.5185  142.5720  153.8831 H   0  0  0  0  0  0  0  0  0  0  0  0
  148.2056  142.7375  154.3205 H   0  0  0  0  0  0  0  0  0  0  0  0
  147.3928  141.2018  152.2186 H   0  0  0  0  0  0  0  0  0  0  0  0
  148.7417  140.6790  153.2178 H   0  0  0  0  0  0  0  0  0  0  0  0
  146.1358  139.3729  152.9957 H   0  0  0  0  0  0  0  0  0  0  0  0
  147.5630  138.8478  153.8771 H   0  0  0  0  0  0  0  0  0  0  0  0
  146.1731  139.2854  155.7577 H   0  0  0  0  0  0  0  0  0  0  0  0
  145.2127  140.4209  154.8301 H   0  0  0  0  0  0  0  0  0  0  0  0
  1  2  2  0  0  0  0
  2  3  1  0  0  0  0
  2 10  1  0  0  0  0
  3  4  1  0  0  0  0
  3 23  1  0  0  0  0
  3 24  1  0  0  0  0
  4  9  1  0  0  0  0
  4  5  2  0  0  0  0
  5  6  1  0  0  0  0
  5 25  1  0  0  0  0
  6  7  1  0  0  0  0
  6 26  1  0  0  0  0
  6 27  1  0  0  0  0
  7  8  1  0  0  0  0
  7 28  1  0  0  0  0
  7 29  1  0  0  0  0
  8  9  1  0  0  0  0
  8 30  1  0  0  0  0
  8 31  1  0  0  0  0
  9 32  1  0  0  0  0
  9 33  1  0  0  0  0
 10 11  1  0  0  0  0
 10 34  1  0  0  0  0
 11 12  1  0  0  0  0
 11 35  1  0  0  0  0
 11 36  1  0  0  0  0
 12 22  1  0  0  0  0
 12 13  1  0  0  0  0
 12 19  1  0  0  0  0
 13 18  1  0  0  0  0
 13 14  2  0  0  0  0
 14 15  1  0  0  0  0
 14 37  1  0  0  0  0
 15 16  2  0  0  0  0
 15 38  1  0  0  0  0
 16 17  1  0  0  0  0
 17 18  2  0  0  0  0
 17 39  1  0  0  0  0
 18 40  1  0  0  0  0
 19 20  1  0  0  0  0
 19 41  1  0  0  0  0
 19 42  1  0  0  0  0
 20 21  1  0  0  0  0
 20 43  1  0  0  0  0
 20 44  1  0  0  0  0
 21 22  1  0  0  0  0
 21 45  1  0  0  0  0
 21 46  1  0  0  0  0
 22 47  1  0  0  0  0
 22 48  1  0  0  0  0
M  END
> <s_m_source_file>
AV-unprocessed.smi

> <i_m_source_file_index>
2846

> <i_lp_mmshare_version>
43012

> <i_f3d_flags>
0

> <s_epik_input>
W0NIMl0xW0NIMl1bQ0gyXVtDSDJdW0NIXT1DMVtDSDJdQyg9TylbTkhdW0NIMl1DMihbQ0gyXVtDSDJdW0NIMl1bQ0gyXTIpYzNbY0hdW2NIXW5bY0hdW2NIXTM=

> <s_epik_cmdline>
J2VwaWtfcHl0aG9uJywgJy1waCcsICc3LjAnLCAnLXRuJywgJzgnLCAnLW1hJywgJzIwMCcsICctbWV0YWxfYmluZGluZycsICctaW1hZScsICc8aW5maWxlLm1hZT4nLCAnLW9tYWUnLCAnPG91dGZpbGUubWFlPic=

> <r_epik_Ionization_Penalty>
0.0617419

> <r_epik_Ionization_Penalty_Charging>
0

> <r_epik_Ionization_Penalty_Neutral>
0.0617419

> <r_epik_State_Penalty>
0.0536117

> <r_epik_Charging_Adjusted_Penalty>
0.0536117

> <i_epik_Tot_Q>
0

> <i_epik_Tot_abs_Q>
0

> <r_epik_Metal_State_Penalty>
0.0485218

> <b_epik_Metal_Only>
0

> <s_lp_Force_Field>
OPLS_2005

> <r_lp_Energy>
29.944

> <b_lp_Chiralities_Consistent>
1

> <s_lp_Variant>
AV-unprocessed.smi:2846-1

> <Gold.Version>
5.8.1

> <Gold.Id.Protein>
6NUR|6NUR_protein|mol2

> <Gold.PLP.Fitness>
45.6898

> <Gold.PLP.PLP>
-42.9733

> <Gold.PLP.part.hbond>
-1.0000

> <Gold.PLP.part.metal>
0.0000

> <Gold.PLP.part.buried>
-4.1257

> <Gold.PLP.part.nonpolar>
-38.2330

> <Gold.PLP.part.repulsive>
0.1164

> <Gold.PLP.ligand.clash>
0.0000

> <Gold.PLP.ligand.torsion>
0.2100

> <Gold.PLP.Chemscore.Hbond>
1.0000

> <Gold.PLP.Chemscore.CHOScore>
0.0000

> <Gold.PLP.Chemscore.Metal>
0.0000

> <Gold.Chemscore.Hbonds>
donor molecule, donor type, donor heavy atom, donor atom, acceptor molecule, acceptor atom, score
      L1  H    10    34       P1  8028  1.00

> <Gold.PLP.Chemscore.Internal.Correction>
0.1365

> <Gold.Rescore>
     Score         DG    S(hbond)    S(metal)    S(lipo)     H(rot)  DE(clash)    DE(int)     intcor
     17.77     -19.35       0.99        0.00     120.41       1.38       0.06       1.52       ----

> <Gold.Chemscore.Fitness>
17.7750

> <Gold.Chemscore.DG>
-19.3545

> <Gold.Chemscore.ZeroCoef>
-5.4800

> <Gold.Chemscore.Hbond>
0.9928

> <Gold.Chemscore.Metal>
0.0000

> <Gold.Chemscore.Lipo>
120.4144

> <Gold.Chemscore.Internal_Hbond>
0.0000

> <Gold.Chemscore.DEClash>
0.0562

> <Gold.Chemscore.DEInternal>
1.5232

> <Gold.Chemscore.Rot>
1.3789

> <Gold.Chemscore.Internal.Correction>
   9.000000E+99

> <Gold.Chemscore.Hbonds>
donor molecule, donor type, donor heavy atom, donor atom, acceptor molecule, acceptor atom, score
      L1  H    10    34       P1  8028  0.95

> <Gold.Chemscore.Hbond.Weighted>
-3.3159

> <Gold.Chemscore.Metal.Weighted>
-0.0000

> <Gold.Chemscore.Lipo.Weighted>
-14.0885

> <Gold.Chemscore.Internal_Hbond.Weighted>
0.0000

> <Gold.Chemscore.DEClash.Weighted>
0.0562

> <Gold.Chemscore.DEInternal.Weighted>
1.5232

> <Gold.Chemscore.Rot.Weighted>
3.5299

> <Gold.Chemscore.Internal.Correction.Weighted>
   9.000000E+99

> <Gold.Protein.RotatedTorsions>
[ 6907 6896 6895 6894 ] final   27.84 input  -60.11 | X-H torsion
[ 7974 7965 7964 7962 ] final -135.63 input  175.53 | X-H torsion
[ 8008 7997 7996 7995 ] final   -8.45 input   59.86 | X-H torsion
[ 10167 10162 10161 10158 ] final   10.21 input  -65.29 | X-H torsion
[ 10718 10713 10712 10709 ] final  175.89 input   66.30 | X-H torsion
[ 10763 10752 10751 10750 ] final -155.03 input  -60.55 | X-H torsion
[ 11005 11000 10999 10996 ] final   87.10 input  -57.11 | X-H torsion

> <Gold.Protein.ActiveResidues>
 VAL166  LYS551  ARG553  GLY616  TRP617  ASP618  TYR619  PRO620  LYS621  CYS622 
 ASP623  PHE694  ASN695  SER759  ASP760  ASP761  ALA762  ILE779  LEU786  VAL792 
 PHE793  MET794  SER795  GLU796  ALA797  LYS798  CYS799  TRP800  GLU811  SER814 

> <Gold.Protein.RotatedAtoms>
  152.0082  134.9891  160.0567 H   0  0  0  0  0  0  0  0  0  0  0  0  # atno 6907 bound_to 6896
  152.1454  133.4484  159.4795 H   0  0  0  0  0  0  0  0  0  0  0  0  # atno 6908 bound_to 6896
  150.6869  134.2173  159.4426 H   0  0  0  0  0  0  0  0  0  0  0  0  # atno 6909 bound_to 6896
  144.8997  140.6755  143.5093 H   0  0  0  0  0  0  0  0  0  0  0  0  # atno 7974 bound_to 7965
  154.5740  140.2381  155.8149 H   0  0  0  0  0  0  0  0  0  0  0  0  # atno 8008 bound_to 7997
  156.2129  140.3021  155.9730 H   0  0  0  0  0  0  0  0  0  0  0  0  # atno 8009 bound_to 7997
  155.2660  140.0416  157.2993 H   0  0  0  0  0  0  0  0  0  0  0  0  # atno 8010 bound_to 7997
  140.6208  143.8208  150.7173 H   0  0  0  0  0  0  0  0  0  0  0  0  # atno 10167 bound_to 10162
  156.9282  130.9962  151.2992 H   0  0  0  0  0  0  0  0  0  0  0  0  # atno 10718 bound_to 10713
  154.7816  135.3176  154.7977 H   0  0  0  0  0  0  0  0  0  0  0  0  # atno 10763 bound_to 10752
  153.8687  135.6846  153.4780 H   0  0  0  0  0  0  0  0  0  0  0  0  # atno 10764 bound_to 10752
  153.1454  135.4721  154.9497 H   0  0  0  0  0  0  0  0  0  0  0  0  # atno 10765 bound_to 10752
  139.8928  134.8399  156.2812 H   0  0  0  0  0  0  0  0  0  0  0  0  # atno 11005 bound_to 11000
  145.3638  139.1675  143.4369 LP  0  0  0  0  0  0  0  0  0  0  0  0  # atno 17320 bound_to 7965
  146.3101  140.3703  142.8673 LP  0  0  0  0  0  0  0  0  0  0  0  0  # atno 17321 bound_to 7965
  140.1798  143.4124  152.1941 LP  0  0  0  0  0  0  0  0  0  0  0  0  # atno 17342 bound_to 10162
  139.5437  144.7280  151.4651 LP  0  0  0  0  0  0  0  0  0  0  0  0  # atno 17343 bound_to 10162
  157.5864  130.8412  149.8595 LP  0  0  0  0  0  0  0  0  0  0  0  0  # atno 17370 bound_to 10713
  156.0459  130.3728  150.1318 LP  0  0  0  0  0  0  0  0  0  0  0  0  # atno 17371 bound_to 10713
  141.0037  133.7136  156.1001 LP  0  0  0  0  0  0  0  0  0  0  0  0  # atno 17394 bound_to 11000
  140.7462  134.4095  157.5548 LP  0  0  0  0  0  0  0  0  0  0  0  0  # atno 17395 bound_to 11000

$$$$
