AV-unprocessed.smi:45|AV-procd|sdf|411|dock2
  -GOLD-   2262016273D 1   1.00000     0.00000
 Structure written by MMmdl.
 61 64  0  0  0  0  0  0  0  0  2 V2000
  155.2882  128.0999  154.8709 C   0  0  0  0  0  0  0  0  0  0  0  0
  154.9342  129.2721  155.5902 O   0  0  0  0  0  0  0  0  0  0  0  0
  153.6094  129.6570  155.5998 C   0  0  0  0  0  0  0  0  0  0  0  0
  152.5874  128.9834  154.8833 C   0  0  0  0  0  0  0  0  0  0  0  0
  151.2553  129.4363  154.9393 C   0  0  0  0  0  0  0  0  0  0  0  0
  150.9222  130.5670  155.7100 C   0  0  0  0  0  0  0  0  0  0  0  0
  149.4918  131.0622  155.7616 C   0  0  0  0  0  0  0  0  0  0  0  0
  149.3809  132.4065  156.3076 N   0  0  0  0  0  0  0  0  0  0  0  0
  148.5988  133.3892  155.6801 C   0  0  0  0  0  0  0  0  0  0  0  0
  147.9576  133.0585  154.5278 N   0  3  0  0  0  0  0  0  0  0  0  0
  147.2084  133.9589  153.8711 C   0  0  0  0  0  0  0  0  0  0  0  0
  146.5669  133.5755  152.6967 N   0  0  0  0  0  0  0  0  0  0  0  0
  146.6940  132.2540  152.0949 C   0  0  0  0  0  0  0  0  0  0  0  0
  145.8134  132.2738  150.8442 C   0  0  0  0  0  0  0  0  0  0  0  0
  145.7208  133.7580  150.4966 C   0  0  0  0  0  0  0  0  0  0  0  0
  145.7527  134.4559  151.8644 C   0  0  1  0  0  0  0  0  0  0  0  0
  144.3458  134.6579  152.4649 C   0  0  0  0  0  0  0  0  0  0  0  0
  143.7220  133.4084  152.6694 O   0  0  0  0  0  0  0  0  0  0  0  0
  147.0542  135.2133  154.3130 N   0  0  0  0  0  0  0  0  0  0  0  0
  147.6662  135.5905  155.4511 C   0  0  0  0  0  0  0  0  0  0  0  0
  148.4745  134.7067  156.1925 C   0  0  0  0  0  0  0  0  0  0  0  0
  149.1128  135.1541  157.4800 C   0  0  0  0  0  0  0  0  0  0  0  0
  150.3142  134.9856  157.6884 O   0  0  0  0  0  0  0  0  0  0  0  0
  148.2867  135.7548  158.3514 N   0  0  0  0  0  0  0  0  0  0  0  0
  148.6700  136.2024  159.6851 C   0  0  0  0  0  0  0  0  0  0  0  0
  147.4765  136.3206  160.6166 C   0  0  0  0  0  0  0  0  0  0  0  0
  147.6287  137.0867  161.7014 N   0  0  0  0  0  0  0  0  0  0  0  0
  146.5726  137.1766  162.5387 C   0  0  0  0  0  0  0  0  0  0  0  0
  145.3645  136.4964  162.2840 C   0  0  0  0  0  0  0  0  0  0  0  0
  145.3223  135.7183  161.1096 C   0  0  0  0  0  0  0  0  0  0  0  0
  146.3821  135.6307  160.2765 N   0  0  0  0  0  0  0  0  0  0  0  0
  151.9311  131.2420  156.4248 C   0  0  0  0  0  0  0  0  0  0  0  0
  153.2641  130.7897  156.3708 C   0  0  0  0  0  0  0  0  0  0  0  0
  154.4770  131.6400  157.2593 Cl  0  0  0  0  0  0  0  0  0  0  0  0
  146.2459  135.4241  151.7658 H   0  0  0  0  0  0  0  0  0  0  0  0
  156.3632  127.9398  154.9513 H   0  0  0  0  0  0  0  0  0  0  0  0
  155.0481  128.1947  153.8110 H   0  0  0  0  0  0  0  0  0  0  0  0
  154.7922  127.2175  155.2774 H   0  0  0  0  0  0  0  0  0  0  0  0
  152.7997  128.1142  154.2796 H   0  0  0  0  0  0  0  0  0  0  0  0
  150.4909  128.9127  154.3838 H   0  0  0  0  0  0  0  0  0  0  0  0
  149.0652  131.0406  154.7580 H   0  0  0  0  0  0  0  0  0  0  0  0
  148.9064  130.3753  156.3739 H   0  0  0  0  0  0  0  0  0  0  0  0
  149.8485  132.6175  157.1787 H   0  0  0  0  0  0  0  0  0  0  0  0
  147.7376  132.0881  151.8248 H   0  0  0  0  0  0  0  0  0  0  0  0
  146.3909  131.4666  152.7859 H   0  0  0  0  0  0  0  0  0  0  0  0
  146.2195  131.6700  150.0320 H   0  0  0  0  0  0  0  0  0  0  0  0
  144.8213  131.8892  151.0838 H   0  0  0  0  0  0  0  0  0  0  0  0
  146.5999  134.0485  149.9194 H   0  0  0  0  0  0  0  0  0  0  0  0
  144.8415  134.0010  149.8992 H   0  0  0  0  0  0  0  0  0  0  0  0
  144.3916  135.2011  153.4094 H   0  0  0  0  0  0  0  0  0  0  0  0
  143.7142  135.2385  151.7921 H   0  0  0  0  0  0  0  0  0  0  0  0
  143.5127  133.3202  153.5870 H   0  0  0  0  0  0  0  0  0  0  0  0
  147.4958  136.6080  155.7721 H   0  0  0  0  0  0  0  0  0  0  0  0
  147.3167  135.8713  158.0976 H   0  0  0  0  0  0  0  0  0  0  0  0
  149.4221  135.5323  160.1067 H   0  0  0  0  0  0  0  0  0  0  0  0
  149.1461  137.1795  159.5978 H   0  0  0  0  0  0  0  0  0  0  0  0
  146.6918  137.7949  163.4163 H   0  0  0  0  0  0  0  0  0  0  0  0
  144.5187  136.5674  162.9516 H   0  0  0  0  0  0  0  0  0  0  0  0
  144.4364  135.1635  160.8382 H   0  0  0  0  0  0  0  0  0  0  0  0
  151.6831  132.1118  157.0157 H   0  0  0  0  0  0  0  0  0  0  0  0
  148.0528  132.1100  154.1662 H   0  0  0  0  0  0  0  0  0  0  0  0
  1  2  1  0  0  0  0
  1 36  1  0  0  0  0
  1 37  1  0  0  0  0
  1 38  1  0  0  0  0
  2  3  1  0  0  0  0
  3 33  1  0  0  0  0
  3  4  2  0  0  0  0
  4  5  1  0  0  0  0
  4 39  1  0  0  0  0
  5  6  2  0  0  0  0
  5 40  1  0  0  0  0
  6  7  1  0  0  0  0
  6 32  1  0  0  0  0
  7  8  1  0  0  0  0
  7 41  1  0  0  0  0
  7 42  1  0  0  0  0
  8  9  1  0  0  0  0
  8 43  1  0  0  0  0
  9 21  1  0  0  0  0
  9 10  2  0  0  0  0
 10 11  1  0  0  0  0
 10 61  1  0  0  0  0
 11 12  1  0  0  0  0
 11 19  2  0  0  0  0
 12 16  1  0  0  0  0
 12 13  1  0  0  0  0
 13 14  1  0  0  0  0
 13 44  1  0  0  0  0
 13 45  1  0  0  0  0
 14 15  1  0  0  0  0
 14 46  1  0  0  0  0
 14 47  1  0  0  0  0
 15 16  1  0  0  0  0
 15 48  1  0  0  0  0
 15 49  1  0  0  0  0
 16 35  1  0  0  0  0
 16 17  1  0  0  0  0
 17 18  1  0  0  0  0
 17 50  1  0  0  0  0
 17 51  1  0  0  0  0
 18 52  1  0  0  0  0
 19 20  1  0  0  0  0
 20 21  2  0  0  0  0
 20 53  1  0  0  0  0
 21 22  1  0  0  0  0
 22 23  2  0  0  0  0
 22 24  1  0  0  0  0
 24 25  1  0  0  0  0
 24 54  1  0  0  0  0
 25 26  1  0  0  0  0
 25 55  1  0  0  0  0
 25 56  1  0  0  0  0
 26 31  1  0  0  0  0
 26 27  2  0  0  0  0
 27 28  1  0  0  0  0
 28 29  2  0  0  0  0
 28 57  1  0  0  0  0
 29 30  1  0  0  0  0
 29 58  1  0  0  0  0
 30 31  2  0  0  0  0
 30 59  1  0  0  0  0
 32 33  2  0  0  0  0
 32 60  1  0  0  0  0
 33 34  1  0  0  0  0
M  CHG  1  10   1
M  END
> <s_m_source_file>
AV-unprocessed.smi

> <i_m_source_file_index>
45

> <i_lp_mmshare_version>
43012

> <i_f3d_flags>
0

> <s_epik_input>
W0NIM11PYzFbY0hdW2NIXWMoW2NIXWMxQ2wpW0NIMl1bTkhdYzJuYyhOM1tDSDJdW0NIMl1bQ0gyXVtDQEhdM1tDSDJdW09IXSluW2NIXWMyQyg9TylbTkhdW0NIMl1jNG5bY0hdW2NIXVtjSF1uNA==

> <s_epik_cmdline>
J2VwaWtfcHl0aG9uJywgJy1waCcsICc3LjAnLCAnLXRuJywgJzgnLCAnLW1hJywgJzIwMCcsICctbWV0YWxfYmluZGluZycsICctaW1hZScsICc8aW5maWxlLm1hZT4nLCAnLW9tYWUnLCAnPG91dGZpbGUubWFlPic=

> <r_lp_tautomer_probability>
0.424989

> <r_epik_Ionization_Penalty>
2.31209

> <r_epik_Ionization_Penalty_Charging>
2.31199

> <r_epik_Ionization_Penalty_Neutral>
9.65277e-05

> <r_epik_State_Penalty>
2.29675

> <r_epik_Charging_Adjusted_Penalty>
4.60874

> <i_epik_Tot_Q>
1

> <i_epik_Tot_abs_Q>
1

> <r_epik_Metal_State_Penalty>
2.3404

> <b_epik_Metal_Only>
0

> <s_epik_Chemistry_Notes>
This compound contains an electron-poor aromatic ring that is susceptible to covalent hydrolysis at low pH, typically resulting in measured values for nitrogen ring protonation that are around two units higher than predicted values.

> <s_lp_Force_Field>
OPLS_2005

> <r_lp_Energy>
34.7273

> <b_lp_Chiralities_Consistent>
1

> <s_lp_Variant>
AV-unprocessed.smi:45-5

> <Gold.Version>
5.8.1

> <Gold.Id.Protein>
6NUR|6NUR_protein|mol2

> <Gold.PLP.Fitness>
49.6674

> <Gold.PLP.PLP>
-42.8962

> <Gold.PLP.part.hbond>
-4.0000

> <Gold.PLP.part.metal>
0.0000

> <Gold.PLP.part.buried>
-4.8305

> <Gold.PLP.part.nonpolar>
-34.4396

> <Gold.PLP.part.repulsive>
0.1717

> <Gold.PLP.ligand.clash>
0.0400

> <Gold.PLP.ligand.torsion>
1.6176

> <Gold.PLP.Chemscore.Hbond>
2.8016

> <Gold.PLP.Chemscore.CHOScore>
0.0000

> <Gold.PLP.Chemscore.Metal>
0.0000

> <Gold.Chemscore.Hbonds>
donor molecule, donor type, donor heavy atom, donor atom, acceptor molecule, acceptor atom, score
      L1  H    18    52       P1 10957  0.49
      P1  H  6896  6907       L1    23  0.66
      P1  H  6931  6943       L1    27  1.00
      P1  H  6934  6947       L1    27  0.29

> <Gold.PLP.Chemscore.Internal.Correction>
1.6415

> <Gold.Rescore>
     Score         DG    S(hbond)    S(metal)    S(lipo)     H(rot)  DE(clash)    DE(int)     intcor
     14.27     -16.86       2.09        0.00     101.99       2.94       0.04       2.55       ----

> <Gold.Chemscore.Fitness>
14.2652

> <Gold.Chemscore.DG>
-16.8598

> <Gold.Chemscore.ZeroCoef>
-5.4800

> <Gold.Chemscore.Hbond>
2.0873

> <Gold.Chemscore.Metal>
0.0000

> <Gold.Chemscore.Lipo>
101.9944

> <Gold.Chemscore.Internal_Hbond>
0.0000

> <Gold.Chemscore.DEClash>
0.0420

> <Gold.Chemscore.DEInternal>
2.5526

> <Gold.Chemscore.Rot>
2.9395

> <Gold.Chemscore.Internal.Correction>
   9.000000E+99

> <Gold.Chemscore.Hbonds>
donor molecule, donor type, donor heavy atom, donor atom, acceptor molecule, acceptor atom, score
      L1  H    18    52       P1 10957  0.49
      P1  H  6896  6907       L1    23  0.56
      P1  H  6931  6943       L1    27  0.93

> <Gold.Chemscore.Hbond.Weighted>
-6.9716

> <Gold.Chemscore.Metal.Weighted>
-0.0000

> <Gold.Chemscore.Lipo.Weighted>
-11.9333

> <Gold.Chemscore.Internal_Hbond.Weighted>
0.0000

> <Gold.Chemscore.DEClash.Weighted>
0.0420

> <Gold.Chemscore.DEInternal.Weighted>
2.5526

> <Gold.Chemscore.Rot.Weighted>
7.5251

> <Gold.Chemscore.Internal.Correction.Weighted>
   9.000000E+99

> <Gold.Protein.RotatedTorsions>
[ 6907 6896 6895 6894 ] final  -83.85 input  -60.11 | X-H torsion
[ 7974 7965 7964 7962 ] final   53.94 input  175.53 | X-H torsion
[ 8008 7997 7996 7995 ] final  -83.77 input   59.86 | X-H torsion
[ 10167 10162 10161 10158 ] final  -81.57 input  -65.29 | X-H torsion
[ 10718 10713 10712 10709 ] final   -9.13 input   66.30 | X-H torsion
[ 10763 10752 10751 10750 ] final  151.79 input  -60.55 | X-H torsion
[ 11005 11000 10999 10996 ] final  -20.15 input  -57.11 | X-H torsion

> <Gold.Protein.ActiveResidues>
 VAL166  LYS551  ARG553  GLY616  TRP617  ASP618  TYR619  PRO620  LYS621  CYS622 
 ASP623  PHE694  ASN695  SER759  ASP760  ASP761  ALA762  ILE779  LEU786  VAL792 
 PHE793  MET794  SER795  GLU796  ALA797  LYS798  CYS799  TRP800  GLU811  SER814 

> <Gold.Protein.RotatedAtoms>
  150.6881  134.3449  159.4883 H   0  0  0  0  0  0  0  0  0  0  0  0  # atno 6907 bound_to 6896
  152.1298  134.9141  160.0568 H   0  0  0  0  0  0  0  0  0  0  0  0  # atno 6908 bound_to 6896
  152.0315  133.3904  159.4336 H   0  0  0  0  0  0  0  0  0  0  0  0  # atno 6909 bound_to 6896
  145.9660  139.4103  143.0219 H   0  0  0  0  0  0  0  0  0  0  0  0  # atno 7974 bound_to 7965
  154.6227  140.0614  156.9634 H   0  0  0  0  0  0  0  0  0  0  0  0  # atno 8008 bound_to 7997
  155.1792  140.3297  155.4360 H   0  0  0  0  0  0  0  0  0  0  0  0  # atno 8009 bound_to 7997
  156.2440  140.1900  156.6890 H   0  0  0  0  0  0  0  0  0  0  0  0  # atno 8010 bound_to 7997
  140.4400  143.2518  151.8639 H   0  0  0  0  0  0  0  0  0  0  0  0  # atno 10167 bound_to 10162
  156.6925  130.5069  149.5939 H   0  0  0  0  0  0  0  0  0  0  0  0  # atno 10718 bound_to 10713
  154.1095  135.2840  155.3234 H   0  0  0  0  0  0  0  0  0  0  0  0  # atno 10763 bound_to 10752
  154.6500  135.5372  153.7893 H   0  0  0  0  0  0  0  0  0  0  0  0  # atno 10764 bound_to 10752
  153.0350  135.6507  154.1254 H   0  0  0  0  0  0  0  0  0  0  0  0  # atno 10765 bound_to 10752
  140.8436  133.7908  155.9888 H   0  0  0  0  0  0  0  0  0  0  0  0  # atno 11005 bound_to 11000
  145.7973  140.9787  143.1017 LP  0  0  0  0  0  0  0  0  0  0  0  0  # atno 17320 bound_to 7965
  144.6825  139.9758  143.7483 LP  0  0  0  0  0  0  0  0  0  0  0  0  # atno 17321 bound_to 7965
  139.4789  144.5240  151.8762 LP  0  0  0  0  0  0  0  0  0  0  0  0  # atno 17342 bound_to 10162
  140.4329  144.2091  150.5888 LP  0  0  0  0  0  0  0  0  0  0  0  0  # atno 17343 bound_to 10162
  156.1787  130.6484  151.0925 LP  0  0  0  0  0  0  0  0  0  0  0  0  # atno 17370 bound_to 10713
  157.7003  131.0778  150.6840 LP  0  0  0  0  0  0  0  0  0  0  0  0  # atno 17371 bound_to 10713
  140.8868  134.2544  157.5115 LP  0  0  0  0  0  0  0  0  0  0  0  0  # atno 17394 bound_to 11000
  139.8703  134.9642  156.4487 LP  0  0  0  0  0  0  0  0  0  0  0  0  # atno 17395 bound_to 11000

$$$$
