AV-unprocessed.smi:2032|AV-procd|sdf|8243|dock2
  -GOLD-   2272010513D 1   1.00000     0.00000
 Structure written by MMmdl.
 43 44  0  0  0  0  0  0  0  0  2 V2000
  144.2396  142.8369  157.2951 C   0  0  0  0  0  0  0  0  0  0  0  0
  144.4514  142.7584  155.7790 C   0  0  2  0  0  0  0  0  0  0  0  0
  145.7018  141.9395  155.4079 C   0  0  0  0  0  0  0  0  0  0  0  0
  145.9410  141.9326  153.9369 N   0  3  2  0  0  0  0  0  0  0  0  0
  147.1423  141.1259  153.5305 C   0  0  1  0  0  0  0  0  0  0  0  0
  148.4442  141.7019  154.1410 C   0  0  0  0  0  0  0  0  0  0  0  0
  146.9874  139.6195  153.8845 C   0  0  0  0  0  0  0  0  0  0  0  0
  146.0862  138.9014  152.9853 N   0  0  0  0  0  0  0  0  0  0  0  0
  145.7238  137.6160  153.1125 C   0  0  0  0  0  0  0  0  0  0  0  0
  146.1396  136.8795  154.0075 O   0  0  0  0  0  0  0  0  0  0  0  0
  144.8689  137.2529  152.1406 N   0  0  0  0  0  0  0  0  0  0  0  0
  144.2703  135.9834  151.9278 C   0  0  0  0  0  0  0  0  0  0  0  0
  143.4125  135.4016  152.7744 N   0  0  0  0  0  0  0  0  0  0  0  0
  142.9799  134.1570  152.3095 C   0  0  0  0  0  0  0  0  0  0  0  0
  143.5239  133.8035  151.0997 C   0  0  0  0  0  0  0  0  0  0  0  0
  144.6070  135.0272  150.4920 S   0  0  0  0  0  0  0  0  0  0  0  0
  145.9465  143.3331  153.4269 C   0  0  0  0  0  0  0  0  0  0  0  0
  144.6917  144.1089  153.8705 C   0  0  2  0  0  0  0  0  0  0  0  0
  144.7317  145.5750  153.4248 C   0  0  0  0  0  0  0  0  0  0  0  0
  144.6008  144.0813  155.2867 O   0  0  0  0  0  0  0  0  0  0  0  0
  144.1029  141.8443  157.7248 H   0  0  0  0  0  0  0  0  0  0  0  0
  143.3541  143.4261  157.5343 H   0  0  0  0  0  0  0  0  0  0  0  0
  145.0921  143.3021  157.7910 H   0  0  0  0  0  0  0  0  0  0  0  0
  143.5660  142.3024  155.3316 H   0  0  0  0  0  0  0  0  0  0  0  0
  146.5799  142.3417  155.9159 H   0  0  0  0  0  0  0  0  0  0  0  0
  145.5456  140.9300  155.7826 H   0  0  0  0  0  0  0  0  0  0  0  0
  147.2288  141.1969  152.4450 H   0  0  0  0  0  0  0  0  0  0  0  0
  149.3183  141.1079  153.8781 H   0  0  0  0  0  0  0  0  0  0  0  0
  148.3885  141.7389  155.2293 H   0  0  0  0  0  0  0  0  0  0  0  0
  148.6729  142.7020  153.7773 H   0  0  0  0  0  0  0  0  0  0  0  0
  147.9665  139.1393  153.9285 H   0  0  0  0  0  0  0  0  0  0  0  0
  146.5388  139.4981  154.8694 H   0  0  0  0  0  0  0  0  0  0  0  0
  145.6983  139.4280  152.2161 H   0  0  0  0  0  0  0  0  0  0  0  0
  144.6159  137.9670  151.4737 H   0  0  0  0  0  0  0  0  0  0  0  0
  142.2817  133.5879  152.9054 H   0  0  0  0  0  0  0  0  0  0  0  0
  143.3535  132.9012  150.5316 H   0  0  0  0  0  0  0  0  0  0  0  0
  146.8485  143.8412  153.7727 H   0  0  0  0  0  0  0  0  0  0  0  0
  145.9581  143.3494  152.3385 H   0  0  0  0  0  0  0  0  0  0  0  0
  143.8013  143.6445  153.4428 H   0  0  0  0  0  0  0  0  0  0  0  0
  144.7833  145.6541  152.3386 H   0  0  0  0  0  0  0  0  0  0  0  0
  145.5981  146.0912  153.8396 H   0  0  0  0  0  0  0  0  0  0  0  0
  143.8385  146.1070  153.7535 H   0  0  0  0  0  0  0  0  0  0  0  0
  145.1393  141.4830  153.5176 H   0  0  0  0  0  0  0  0  0  0  0  0
  1  2  1  0  0  0  0
  1 21  1  0  0  0  0
  1 22  1  0  0  0  0
  1 23  1  0  0  0  0
  2 20  1  0  0  0  0
  2  3  1  0  0  0  0
  2 24  1  0  0  0  0
  3  4  1  0  0  0  0
  3 25  1  0  0  0  0
  3 26  1  0  0  0  0
  4  5  1  0  0  0  0
  4 17  1  0  0  0  0
  4 43  1  0  0  0  0
  5  6  1  0  0  0  0
  5  7  1  0  0  0  0
  5 27  1  0  0  0  0
  6 28  1  0  0  0  0
  6 29  1  0  0  0  0
  6 30  1  0  0  0  0
  7  8  1  0  0  0  0
  7 31  1  0  0  0  0
  7 32  1  0  0  0  0
  8  9  1  0  0  0  0
  8 33  1  0  0  0  0
  9 10  2  0  0  0  0
  9 11  1  0  0  0  0
 11 12  1  0  0  0  0
 11 34  1  0  0  0  0
 12 16  1  0  0  0  0
 12 13  2  0  0  0  0
 13 14  1  0  0  0  0
 14 15  2  0  0  0  0
 14 35  1  0  0  0  0
 15 16  1  0  0  0  0
 15 36  1  0  0  0  0
 17 18  1  0  0  0  0
 17 37  1  0  0  0  0
 17 38  1  0  0  0  0
 18 19  1  0  0  0  0
 18 20  1  0  0  0  0
 18 39  1  0  0  0  0
 19 40  1  0  0  0  0
 19 41  1  0  0  0  0
 19 42  1  0  0  0  0
M  CHG  1   4   1
M  END
> <s_m_source_file>
AV-unprocessed.smi

> <i_m_source_file_index>
2032

> <i_lp_mmshare_version>
43012

> <i_f3d_flags>
0

> <s_epik_input>
W0NIM11bQ0BASF0xW0NIMl1OKFtDSDJdW0NASF0oTzEpW0NIM10pW0NASF0oW0NIM10pW0NIMl1bTkhdQyg9TylbTkhdYzJuW2NIXVtjSF1zMg==

> <s_epik_cmdline>
J2VwaWtfcHl0aG9uJywgJy1waCcsICc3LjAnLCAnLXRuJywgJzgnLCAnLW1hJywgJzIwMCcsICctbWV0YWxfYmluZGluZycsICctaW1hZScsICc8aW5maWxlLm1hZT4nLCAnLW9tYWUnLCAnPG91dGZpbGUubWFlPic=

> <r_lp_tautomer_probability>
0.999

> <r_epik_Ionization_Penalty>
0.695838

> <r_epik_Ionization_Penalty_Charging>
0.695697

> <r_epik_Ionization_Penalty_Neutral>
0.000141198

> <r_epik_State_Penalty>
0.717972

> <r_epik_Charging_Adjusted_Penalty>
1.41367

> <i_epik_Tot_Q>
1

> <i_epik_Tot_abs_Q>
1

> <r_epik_Metal_State_Penalty>
0.756405

> <b_epik_Metal_Only>
0

> <s_lp_Force_Field>
OPLS_2005

> <r_lp_Energy>
18.3762

> <b_lp_Chiralities_Consistent>
1

> <s_lp_Variant>
AV-unprocessed.smi:2032-13

> <Gold.Version>
5.8.1

> <Gold.Id.Protein>
6NUR|6NUR_protein|mol2

> <Gold.PLP.Fitness>
41.1920

> <Gold.PLP.PLP>
-30.4190

> <Gold.PLP.part.hbond>
-3.0000

> <Gold.PLP.part.metal>
0.0000

> <Gold.PLP.part.buried>
-3.1227

> <Gold.PLP.part.nonpolar>
-25.8211

> <Gold.PLP.part.repulsive>
0.4003

> <Gold.PLP.ligand.clash>
0.0000

> <Gold.PLP.ligand.torsion>
0.8028

> <Gold.PLP.Chemscore.Hbond>
3.1028

> <Gold.PLP.Chemscore.CHOScore>
1.0000

> <Gold.PLP.Chemscore.Metal>
0.0000

> <Gold.Chemscore.Hbonds>
donor molecule, donor type, donor heavy atom, donor atom, acceptor molecule, acceptor atom, score
      L1  H     4    43       P1 10175  1.59
      L1  H     8    33       P1 10175  0.16
      L1  H    11    34       P1 10171  1.00
      L1  C    14    35       P1 10957  0.76

> <Gold.PLP.Chemscore.Internal.Correction>
0.0701

> <Gold.Rescore>
     Score         DG    S(hbond)    S(metal)    S(lipo)     H(rot)  DE(clash)    DE(int)     intcor
     15.13     -16.05       2.29        0.00      60.17       1.61       0.19       0.72       ----

> <Gold.Chemscore.Fitness>
15.1326

> <Gold.Chemscore.DG>
-16.0481

> <Gold.Chemscore.ZeroCoef>
-5.4800

> <Gold.Chemscore.Hbond>
2.2912

> <Gold.Chemscore.Metal>
0.0000

> <Gold.Chemscore.Lipo>
60.1686

> <Gold.Chemscore.Internal_Hbond>
0.0000

> <Gold.Chemscore.DEClash>
0.1910

> <Gold.Chemscore.DEInternal>
0.7246

> <Gold.Chemscore.Rot>
1.6110

> <Gold.Chemscore.Internal.Correction>
   9.000000E+99

> <Gold.Chemscore.Hbonds>
donor molecule, donor type, donor heavy atom, donor atom, acceptor molecule, acceptor atom, score
      L1  H     4    43       P1 10175  0.11
      L1  H     8    33       P1 10175  0.15
      L1  H    11    34       P1 10171  0.97

> <Gold.Chemscore.Hbond.Weighted>
-7.6526

> <Gold.Chemscore.Metal.Weighted>
-0.0000

> <Gold.Chemscore.Lipo.Weighted>
-7.0397

> <Gold.Chemscore.Internal_Hbond.Weighted>
0.0000

> <Gold.Chemscore.DEClash.Weighted>
0.1910

> <Gold.Chemscore.DEInternal.Weighted>
0.7246

> <Gold.Chemscore.Rot.Weighted>
4.1242

> <Gold.Chemscore.Internal.Correction.Weighted>
   9.000000E+99

> <Gold.Protein.RotatedTorsions>
[ 6907 6896 6895 6894 ] final  112.14 input  -60.11 | X-H torsion
[ 7974 7965 7964 7962 ] final -177.02 input  175.53 | X-H torsion
[ 8008 7997 7996 7995 ] final -131.94 input   59.86 | X-H torsion
[ 10167 10162 10161 10158 ] final  142.04 input  -65.29 | X-H torsion
[ 10718 10713 10712 10709 ] final   52.89 input   66.30 | X-H torsion
[ 10763 10752 10751 10750 ] final -129.41 input  -60.55 | X-H torsion
[ 11005 11000 10999 10996 ] final   25.39 input  -57.11 | X-H torsion

> <Gold.Protein.ActiveResidues>
 VAL166  LYS551  ARG553  GLY616  TRP617  ASP618  TYR619  PRO620  LYS621  CYS622 
 ASP623  PHE694  ASN695  SER759  ASP760  ASP761  ALA762  ILE779  LEU786  VAL792 
 PHE793  MET794  SER795  GLU796  ALA797  LYS798  CYS799  TRP800  GLU811  SER814 

> <Gold.Protein.RotatedAtoms>
  152.4932  133.8558  159.7224 H   0  0  0  0  0  0  0  0  0  0  0  0  # atno 6907 bound_to 6896
  150.9083  133.7021  159.2868 H   0  0  0  0  0  0  0  0  0  0  0  0  # atno 6908 bound_to 6896
  151.4439  135.1027  159.9730 H   0  0  0  0  0  0  0  0  0  0  0  0  # atno 6909 bound_to 6896
  144.7127  140.1083  143.6412 H   0  0  0  0  0  0  0  0  0  0  0  0  # atno 7974 bound_to 7965
  155.3207  140.0462  157.3039 H   0  0  0  0  0  0  0  0  0  0  0  0  # atno 8008 bound_to 7997
  154.5382  140.2279  155.8653 H   0  0  0  0  0  0  0  0  0  0  0  0  # atno 8009 bound_to 7997
  156.1855  140.3063  155.9237 H   0  0  0  0  0  0  0  0  0  0  0  0  # atno 8010 bound_to 7997
  139.5004  144.6132  151.6223 H   0  0  0  0  0  0  0  0  0  0  0  0  # atno 10167 bound_to 10162
  157.5116  130.8505  149.8443 H   0  0  0  0  0  0  0  0  0  0  0  0  # atno 10718 bound_to 10713
  154.8757  135.3896  154.3916 H   0  0  0  0  0  0  0  0  0  0  0  0  # atno 10763 bound_to 10752
  153.4651  135.7029  153.6032 H   0  0  0  0  0  0  0  0  0  0  0  0  # atno 10764 bound_to 10752
  153.4513  135.3833  155.2254 H   0  0  0  0  0  0  0  0  0  0  0  0  # atno 10765 bound_to 10752
  140.3484  134.2256  155.7682 H   0  0  0  0  0  0  0  0  0  0  0  0  # atno 11005 bound_to 11000
  145.9477  139.2712  143.1231 LP  0  0  0  0  0  0  0  0  0  0  0  0  # atno 17320 bound_to 7965
  145.9356  140.9017  143.0334 LP  0  0  0  0  0  0  0  0  0  0  0  0  # atno 17321 bound_to 7965
  140.5813  143.9941  150.6270 LP  0  0  0  0  0  0  0  0  0  0  0  0  # atno 17342 bound_to 10162
  140.3091  143.3210  152.0897 LP  0  0  0  0  0  0  0  0  0  0  0  0  # atno 17343 bound_to 10162
  156.0293  130.3769  150.1733 LP  0  0  0  0  0  0  0  0  0  0  0  0  # atno 17370 bound_to 10713
  156.9922  130.9897  151.3412 LP  0  0  0  0  0  0  0  0  0  0  0  0  # atno 17371 bound_to 10713
  141.2019  133.7951  157.0417 LP  0  0  0  0  0  0  0  0  0  0  0  0  # atno 17394 bound_to 11000
  140.0723  134.9695  157.1488 LP  0  0  0  0  0  0  0  0  0  0  0  0  # atno 17395 bound_to 11000

$$$$
