AV-unprocessed.smi:2061|AV-procd|sdf|8362|dock9
  -GOLD-   2272011 33D 1   1.00000     0.00000
 Structure written by MMmdl.
 45 46  0  0  0  0  0  0  0  0  1 V2000
  148.9839  131.5121  155.2584 C   0  0  0  0  0  0  0  0  0  0  0  0
  149.4703  132.7952  155.8406 C   0  0  0  0  0  0  0  0  0  0  0  0
  149.8199  133.9947  155.2867 C   0  0  0  0  0  0  0  0  0  0  0  0
  150.1965  134.7708  156.4151 C   0  0  0  0  0  0  0  0  0  0  0  0
  150.6384  136.1102  156.2641 N   0  0  0  0  0  0  0  0  0  0  0  0
  151.2322  136.8851  157.1875 C   0  0  0  0  0  0  0  0  0  0  0  0
  151.4866  136.5425  158.3425 O   0  0  0  0  0  0  0  0  0  0  0  0
  151.5173  138.0984  156.6934 N   0  0  0  0  0  0  0  0  0  0  0  0
  152.1542  139.1899  157.4285 C   0  0  0  0  0  0  0  0  0  0  0  0
  151.2617  140.4572  157.5041 C   0  0  2  0  0  0  0  0  0  0  0  0
  150.7764  140.8000  156.0773 C   0  0  0  0  0  0  0  0  0  0  0  0
  151.8924  141.5986  158.2035 N   0  0  0  0  0  0  0  0  0  0  0  0
  152.1146  141.3330  159.6264 C   0  0  0  0  0  0  0  0  0  0  0  0
  152.7995  142.5080  160.3472 C   0  0  2  0  0  0  0  0  0  0  0  0
  152.9528  142.2516  161.8501 C   0  0  0  0  0  0  0  0  0  0  0  0
  152.0202  143.6881  160.1790 O   0  0  0  0  0  0  0  0  0  0  0  0
  151.7350  144.0305  158.8240 C   0  0  1  0  0  0  0  0  0  0  0  0
  152.9673  144.6084  158.1070 C   0  0  0  0  0  0  0  0  0  0  0  0
  151.1064  142.8305  158.0881 C   0  0  0  0  0  0  0  0  0  0  0  0
  150.0841  134.1060  157.5548 N   0  0  0  0  0  0  0  0  0  0  0  0
  149.6189  132.8365  157.1924 O   0  0  0  0  0  0  0  0  0  0  0  0
  148.5181  131.6774  154.2868 H   0  0  0  0  0  0  0  0  0  0  0  0
  148.2463  131.0432  155.9100 H   0  0  0  0  0  0  0  0  0  0  0  0
  149.8098  130.8134  155.1239 H   0  0  0  0  0  0  0  0  0  0  0  0
  149.8097  134.2683  154.2422 H   0  0  0  0  0  0  0  0  0  0  0  0
  150.4907  136.5204  155.3540 H   0  0  0  0  0  0  0  0  0  0  0  0
  151.2614  138.2922  155.7364 H   0  0  0  0  0  0  0  0  0  0  0  0
  152.4345  138.8668  158.4324 H   0  0  0  0  0  0  0  0  0  0  0  0
  153.1043  139.4142  156.9450 H   0  0  0  0  0  0  0  0  0  0  0  0
  150.3727  140.1696  158.0677 H   0  0  0  0  0  0  0  0  0  0  0  0
  150.4374  139.9084  155.5494 H   0  0  0  0  0  0  0  0  0  0  0  0
  151.5701  141.2527  155.4820 H   0  0  0  0  0  0  0  0  0  0  0  0
  149.9299  141.4857  156.0861 H   0  0  0  0  0  0  0  0  0  0  0  0
  151.1641  141.1075  160.1123 H   0  0  0  0  0  0  0  0  0  0  0  0
  152.7497  140.4586  159.7569 H   0  0  0  0  0  0  0  0  0  0  0  0
  153.7924  142.6648  159.9252 H   0  0  0  0  0  0  0  0  0  0  0  0
  153.5587  141.3650  162.0375 H   0  0  0  0  0  0  0  0  0  0  0  0
  151.9835  142.1021  162.3264 H   0  0  0  0  0  0  0  0  0  0  0  0
  153.4383  143.0954  162.3411 H   0  0  0  0  0  0  0  0  0  0  0  0
  150.9898  144.8255  158.8620 H   0  0  0  0  0  0  0  0  0  0  0  0
  152.7015  144.9738  157.1149 H   0  0  0  0  0  0  0  0  0  0  0  0
  153.7540  143.8653  157.9788 H   0  0  0  0  0  0  0  0  0  0  0  0
  153.3849  145.4458  158.6661 H   0  0  0  0  0  0  0  0  0  0  0  0
  150.9792  143.1117  157.0440 H   0  0  0  0  0  0  0  0  0  0  0  0
  150.1056  142.6575  158.4868 H   0  0  0  0  0  0  0  0  0  0  0  0
  1  2  1  0  0  0  0
  1 22  1  0  0  0  0
  1 23  1  0  0  0  0
  1 24  1  0  0  0  0
  2 21  1  0  0  0  0
  2  3  2  0  0  0  0
  3  4  1  0  0  0  0
  3 25  1  0  0  0  0
  4  5  1  0  0  0  0
  4 20  2  0  0  0  0
  5  6  1  0  0  0  0
  5 26  1  0  0  0  0
  6  7  2  0  0  0  0
  6  8  1  0  0  0  0
  8  9  1  0  0  0  0
  8 27  1  0  0  0  0
  9 10  1  0  0  0  0
  9 28  1  0  0  0  0
  9 29  1  0  0  0  0
 10 11  1  0  0  0  0
 10 12  1  0  0  0  0
 10 30  1  0  0  0  0
 11 31  1  0  0  0  0
 11 32  1  0  0  0  0
 11 33  1  0  0  0  0
 12 19  1  0  0  0  0
 12 13  1  0  0  0  0
 13 14  1  0  0  0  0
 13 34  1  0  0  0  0
 13 35  1  0  0  0  0
 14 15  1  0  0  0  0
 14 16  1  0  0  0  0
 14 36  1  0  0  0  0
 15 37  1  0  0  0  0
 15 38  1  0  0  0  0
 15 39  1  0  0  0  0
 16 17  1  0  0  0  0
 17 18  1  0  0  0  0
 17 19  1  0  0  0  0
 17 40  1  0  0  0  0
 18 41  1  0  0  0  0
 18 42  1  0  0  0  0
 18 43  1  0  0  0  0
 19 44  1  0  0  0  0
 19 45  1  0  0  0  0
 20 21  1  0  0  0  0
M  END
> <s_m_source_file>
AV-unprocessed.smi

> <i_m_source_file_index>
2061

> <i_lp_mmshare_version>
43012

> <i_f3d_flags>
0

> <s_epik_input>
W0NIM11jMVtjSF1jKG5vMSlbTkhdQyg9TylbTkhdW0NIMl1bQ0BIXShbQ0gzXSlOMltDSDJdW0NAQEhdKFtDSDNdKU9bQ0BASF0oW0NIM10pW0NIMl0y

> <s_epik_cmdline>
J2VwaWtfcHl0aG9uJywgJy1waCcsICc3LjAnLCAnLXRuJywgJzgnLCAnLW1hJywgJzIwMCcsICctbWV0YWxfYmluZGluZycsICctaW1hZScsICc8aW5maWxlLm1hZT4nLCAnLW9tYWUnLCAnPG91dGZpbGUubWFlPic=

> <r_epik_Ionization_Penalty>
0.214073

> <r_epik_Ionization_Penalty_Charging>
0

> <r_epik_Ionization_Penalty_Neutral>
0.214073

> <r_epik_State_Penalty>
0.204211

> <r_epik_Charging_Adjusted_Penalty>
0.204211

> <i_epik_Tot_Q>
0

> <i_epik_Tot_abs_Q>
0

> <r_epik_Metal_State_Penalty>
0.217067

> <b_epik_Metal_Only>
0

> <s_lp_Force_Field>
OPLS_2005

> <r_lp_Energy>
31.3151

> <b_lp_Chiralities_Consistent>
1

> <s_lp_Variant>
AV-unprocessed.smi:2061-3

> <Gold.Version>
5.8.1

> <Gold.Id.Protein>
6NUR|6NUR_protein|mol2

> <Gold.PLP.Fitness>
40.9715

> <Gold.PLP.PLP>
-38.8109

> <Gold.PLP.part.hbond>
-1.9850

> <Gold.PLP.part.metal>
0.0000

> <Gold.PLP.part.buried>
-6.3633

> <Gold.PLP.part.nonpolar>
-31.6423

> <Gold.PLP.part.repulsive>
0.2257

> <Gold.PLP.ligand.clash>
0.0000

> <Gold.PLP.ligand.torsion>
0.1573

> <Gold.PLP.Chemscore.Hbond>
0.8128

> <Gold.PLP.Chemscore.CHOScore>
0.0000

> <Gold.PLP.Chemscore.Metal>
0.0000

> <Gold.Chemscore.Hbonds>
donor molecule, donor type, donor heavy atom, donor atom, acceptor molecule, acceptor atom, score
      P1  H  6896  6907       L1     7  0.49
      P1  H  6896  6909       L1    20  0.83

> <Gold.PLP.Chemscore.Internal.Correction>
0.0369

> <Gold.Rescore>
     Score         DG    S(hbond)    S(metal)    S(lipo)     H(rot)  DE(clash)    DE(int)     intcor
     15.16     -16.55       1.32        0.00      90.67       1.55       0.00       1.39       ----

> <Gold.Chemscore.Fitness>
15.1589

> <Gold.Chemscore.DG>
-16.5479

> <Gold.Chemscore.ZeroCoef>
-5.4800

> <Gold.Chemscore.Hbond>
1.3236

> <Gold.Chemscore.Metal>
0.0000

> <Gold.Chemscore.Lipo>
90.6700

> <Gold.Chemscore.Internal_Hbond>
0.0000

> <Gold.Chemscore.DEClash>
0.0000

> <Gold.Chemscore.DEInternal>
1.3889

> <Gold.Chemscore.Rot>
1.5474

> <Gold.Chemscore.Internal.Correction>
   9.000000E+99

> <Gold.Chemscore.Hbonds>
donor molecule, donor type, donor heavy atom, donor atom, acceptor molecule, acceptor atom, score
      P1  H  6896  6907       L1     7  0.50
      P1  H  6896  6909       L1    20  0.24

> <Gold.Chemscore.Hbond.Weighted>
-4.4207

> <Gold.Chemscore.Metal.Weighted>
-0.0000

> <Gold.Chemscore.Lipo.Weighted>
-10.6084

> <Gold.Chemscore.Internal_Hbond.Weighted>
0.0000

> <Gold.Chemscore.DEClash.Weighted>
0.0000

> <Gold.Chemscore.DEInternal.Weighted>
1.3889

> <Gold.Chemscore.Rot.Weighted>
3.9612

> <Gold.Chemscore.Internal.Correction.Weighted>
   9.000000E+99

> <Gold.Protein.RotatedTorsions>
[ 6907 6896 6895 6894 ] final   -6.54 input  -60.11 | X-H torsion
[ 7974 7965 7964 7962 ] final  -69.53 input  175.53 | X-H torsion
[ 8008 7997 7996 7995 ] final   22.71 input   59.86 | X-H torsion
[ 10167 10162 10161 10158 ] final  -19.19 input  -65.29 | X-H torsion
[ 10718 10713 10712 10709 ] final -119.41 input   66.30 | X-H torsion
[ 10763 10752 10751 10750 ] final  -67.38 input  -60.55 | X-H torsion
[ 11005 11000 10999 10996 ] final  -22.91 input  -57.11 | X-H torsion

> <Gold.Protein.ActiveResidues>
 VAL166  LYS551  ARG553  GLY616  TRP617  ASP618  TYR619  PRO620  LYS621  CYS622 
 ASP623  PHE694  ASN695  SER759  ASP760  ASP761  ALA762  ILE779  LEU786  VAL792 
 PHE793  MET794  SER795  GLU796  ALA797  LYS798  CYS799  TRP800  GLU811  SER814 

> <Gold.Protein.RotatedAtoms>
  151.4640  135.1040  159.9732 H   0  0  0  0  0  0  0  0  0  0  0  0  # atno 6907 bound_to 6896
  152.4842  133.8326  159.7122 H   0  0  0  0  0  0  0  0  0  0  0  0  # atno 6908 bound_to 6896
  150.8938  133.7148  159.2924 H   0  0  0  0  0  0  0  0  0  0  0  0  # atno 6909 bound_to 6896
  145.7026  140.9110  143.0723 H   0  0  0  0  0  0  0  0  0  0  0  0  # atno 7974 bound_to 7965
  154.9699  140.3089  155.4992 H   0  0  0  0  0  0  0  0  0  0  0  0  # atno 8008 bound_to 7997
  156.2967  140.2286  156.4730 H   0  0  0  0  0  0  0  0  0  0  0  0  # atno 8009 bound_to 7997
  154.7886  140.0441  157.1172 H   0  0  0  0  0  0  0  0  0  0  0  0  # atno 8010 bound_to 7997
  140.7266  143.4843  151.0076 H   0  0  0  0  0  0  0  0  0  0  0  0  # atno 10167 bound_to 10162
  156.1179  130.6300  150.9413 H   0  0  0  0  0  0  0  0  0  0  0  0  # atno 10718 bound_to 10713
  154.3737  135.6089  153.5753 H   0  0  0  0  0  0  0  0  0  0  0  0  # atno 10763 bound_to 10752
  152.9789  135.5844  154.4492 H   0  0  0  0  0  0  0  0  0  0  0  0  # atno 10764 bound_to 10752
  154.4250  135.2846  155.1928 H   0  0  0  0  0  0  0  0  0  0  0  0  # atno 10765 bound_to 10752
  140.8701  133.7726  156.0177 H   0  0  0  0  0  0  0  0  0  0  0  0  # atno 11005 bound_to 11000
  144.6964  139.8968  143.7456 LP  0  0  0  0  0  0  0  0  0  0  0  0  # atno 17320 bound_to 7965
  146.0784  139.3772  143.0480 LP  0  0  0  0  0  0  0  0  0  0  0  0  # atno 17321 bound_to 7965
  139.8544  143.7397  152.3176 LP  0  0  0  0  0  0  0  0  0  0  0  0  # atno 17342 bound_to 10162
  139.7590  144.7512  151.0392 LP  0  0  0  0  0  0  0  0  0  0  0  0  # atno 17343 bound_to 10162
  157.6363  131.0915  150.8342 LP  0  0  0  0  0  0  0  0  0  0  0  0  # atno 17370 bound_to 10713
  156.8443  130.5059  149.5318 LP  0  0  0  0  0  0  0  0  0  0  0  0  # atno 17371 bound_to 10713
  140.8582  134.2872  157.5246 LP  0  0  0  0  0  0  0  0  0  0  0  0  # atno 17394 bound_to 11000
  139.8711  134.9504  156.4055 LP  0  0  0  0  0  0  0  0  0  0  0  0  # atno 17395 bound_to 11000

$$$$
