AV-unprocessed.smi:2083|AV-procd|sdf|8506|dock7
  -GOLD-   2272011223D 1   1.00000     0.00000
 Structure written by MMmdl.
 44 45  0  0  0  0  0  0  0  0  3 V2000
  153.0174  141.7424  160.9483 C   0  0  0  0  0  0  0  0  0  0  0  0
  153.0674  140.6836  159.9007 C   0  0  0  0  0  0  0  0  0  0  0  0
  152.1013  140.0561  159.1664 C   0  0  0  0  0  0  0  0  0  0  0  0
  152.8453  139.1529  158.3611 C   0  0  0  0  0  0  0  0  0  0  0  0
  152.1870  138.2930  157.4430 N   0  0  0  0  0  0  0  0  0  0  0  0
  152.6761  137.2237  156.7889 C   0  0  0  0  0  0  0  0  0  0  0  0
  153.8551  136.8825  156.9424 O   0  0  0  0  0  0  0  0  0  0  0  0
  151.7379  136.6319  156.0005 N   0  5  0  0  0  0  0  0  0  0  0  0
  150.9314  137.3338  155.0033 C   0  0  0  0  0  0  0  0  0  0  0  0
  149.4105  137.0827  155.2590 C   0  0  2  0  0  0  0  0  0  0  0  0
  149.0049  137.2324  156.7448 C   0  0  0  0  0  0  0  0  0  0  0  0
  148.8618  135.7969  154.7060 N   0  3  1  0  0  0  0  0  0  0  0  0
  149.7029  134.5920  154.9547 C   0  0  0  0  0  0  0  0  0  0  0  0
  149.2669  133.4314  154.0474 C   0  0  0  0  0  0  0  0  0  0  0  0
  147.7770  133.1149  154.2363 C   0  0  0  0  0  0  0  0  0  0  0  0
  146.9262  134.3762  154.0054 C   0  0  1  0  0  0  0  0  0  0  0  0
  145.4315  134.0890  154.2065 C   0  0  0  0  0  0  0  0  0  0  0  0
  147.4090  135.5202  154.9191 C   0  0  0  0  0  0  0  0  0  0  0  0
  154.1497  139.2271  158.5816 N   0  0  0  0  0  0  0  0  0  0  0  0
  154.2986  140.2084  159.5689 O   0  0  0  0  0  0  0  0  0  0  0  0
  151.9962  141.8976  161.2967 H   0  0  0  0  0  0  0  0  0  0  0  0
  153.3897  142.6892  160.5575 H   0  0  0  0  0  0  0  0  0  0  0  0
  153.6281  141.4659  161.8079 H   0  0  0  0  0  0  0  0  0  0  0  0
  151.0341  140.2160  159.2026 H   0  0  0  0  0  0  0  0  0  0  0  0
  151.2171  138.5072  157.2653 H   0  0  0  0  0  0  0  0  0  0  0  0
  151.1227  138.4065  155.0404 H   0  0  0  0  0  0  0  0  0  0  0  0
  151.1735  137.0276  153.9849 H   0  0  0  0  0  0  0  0  0  0  0  0
  148.8687  137.8710  154.7335 H   0  0  0  0  0  0  0  0  0  0  0  0
  149.1964  138.2384  157.1228 H   0  0  0  0  0  0  0  0  0  0  0  0
  149.5292  136.5354  157.4000 H   0  0  0  0  0  0  0  0  0  0  0  0
  147.9365  137.0539  156.8706 H   0  0  0  0  0  0  0  0  0  0  0  0
  150.7517  134.8199  154.7614 H   0  0  0  0  0  0  0  0  0  0  0  0
  149.6302  134.2897  156.0003 H   0  0  0  0  0  0  0  0  0  0  0  0
  149.4578  133.6901  153.0050 H   0  0  0  0  0  0  0  0  0  0  0  0
  149.8662  132.5459  154.2611 H   0  0  0  0  0  0  0  0  0  0  0  0
  147.4769  132.3242  153.5479 H   0  0  0  0  0  0  0  0  0  0  0  0
  147.6089  132.7322  155.2440 H   0  0  0  0  0  0  0  0  0  0  0  0
  147.0632  134.6916  152.9699 H   0  0  0  0  0  0  0  0  0  0  0  0
  145.2225  133.7723  155.2289 H   0  0  0  0  0  0  0  0  0  0  0  0
  145.0900  133.2994  153.5370 H   0  0  0  0  0  0  0  0  0  0  0  0
  144.8303  134.9756  154.0029 H   0  0  0  0  0  0  0  0  0  0  0  0
  147.2236  135.2566  155.9617 H   0  0  0  0  0  0  0  0  0  0  0  0
  146.8208  136.4131  154.7102 H   0  0  0  0  0  0  0  0  0  0  0  0
  148.9394  135.9355  153.7090 H   0  0  0  0  0  0  0  0  0  0  0  0
  1  2  1  0  0  0  0
  1 21  1  0  0  0  0
  1 22  1  0  0  0  0
  1 23  1  0  0  0  0
  2 20  1  0  0  0  0
  2  3  2  0  0  0  0
  3  4  1  0  0  0  0
  3 24  1  0  0  0  0
  4  5  1  0  0  0  0
  4 19  2  0  0  0  0
  5  6  1  0  0  0  0
  5 25  1  0  0  0  0
  6  7  2  0  0  0  0
  6  8  1  0  0  0  0
  8  9  1  0  0  0  0
  9 10  1  0  0  0  0
  9 26  1  0  0  0  0
  9 27  1  0  0  0  0
 10 11  1  0  0  0  0
 10 12  1  0  0  0  0
 10 28  1  0  0  0  0
 11 29  1  0  0  0  0
 11 30  1  0  0  0  0
 11 31  1  0  0  0  0
 12 18  1  0  0  0  0
 12 13  1  0  0  0  0
 12 44  1  0  0  0  0
 13 14  1  0  0  0  0
 13 32  1  0  0  0  0
 13 33  1  0  0  0  0
 14 15  1  0  0  0  0
 14 34  1  0  0  0  0
 14 35  1  0  0  0  0
 15 16  1  0  0  0  0
 15 36  1  0  0  0  0
 15 37  1  0  0  0  0
 16 17  1  0  0  0  0
 16 18  1  0  0  0  0
 16 38  1  0  0  0  0
 17 39  1  0  0  0  0
 17 40  1  0  0  0  0
 17 41  1  0  0  0  0
 18 42  1  0  0  0  0
 18 43  1  0  0  0  0
 19 20  1  0  0  0  0
M  CHG  1   8  -1
M  CHG  1  12   1
M  END
> <s_m_source_file>
AV-unprocessed.smi

> <i_m_source_file_index>
2083

> <i_lp_mmshare_version>
43012

> <i_f3d_flags>
0

> <s_epik_input>
W0NIM11jMVtjSF1jKG5vMSlbTkhdQyg9TylbTkhdW0NIMl1bQ0BIXShbQ0gzXSlOMltDSDJdW0NIMl1bQ0gyXVtDQEBIXShbQ0gzXSlbQ0gyXTI=

> <s_epik_cmdline>
J2VwaWtfcHl0aG9uJywgJy1waCcsICc3LjAnLCAnLXRuJywgJzgnLCAnLW1hJywgJzIwMCcsICctbWV0YWxfYmluZGluZycsICctaW1hZScsICc8aW5maWxlLm1hZT4nLCAnLW9tYWUnLCAnPG91dGZpbGUubWFlPic=

> <r_epik_Ionization_Penalty>
6.76934

> <r_epik_Ionization_Penalty_Charging>
6.76934

> <r_epik_Ionization_Penalty_Neutral>
5.77849e-06

> <r_epik_State_Penalty>
6.79457

> <r_epik_Charging_Adjusted_Penalty>
13.5639

> <i_epik_Tot_Q>
0

> <i_epik_Tot_abs_Q>
2

> <r_epik_Metal_State_Penalty>
2.72837

> <b_epik_Metal_Only>
1

> <s_lp_Force_Field>
OPLS_2005

> <r_lp_Energy>
20.364

> <b_lp_Chiralities_Consistent>
1

> <s_lp_Variant>
AV-unprocessed.smi:2083-17

> <Gold.Version>
5.8.1

> <Gold.Id.Protein>
6NUR|6NUR_protein|mol2

> <Gold.PLP.Fitness>
40.2607

> <Gold.PLP.PLP>
-26.8041

> <Gold.PLP.part.hbond>
-4.3377

> <Gold.PLP.part.metal>
0.0000

> <Gold.PLP.part.buried>
-3.3333

> <Gold.PLP.part.nonpolar>
-19.9499

> <Gold.PLP.part.repulsive>
0.1130

> <Gold.PLP.ligand.clash>
0.0000

> <Gold.PLP.ligand.torsion>
0.9079

> <Gold.PLP.Chemscore.Hbond>
5.0000

> <Gold.PLP.Chemscore.CHOScore>
0.0000

> <Gold.PLP.Chemscore.Metal>
0.0000

> <Gold.Chemscore.Hbonds>
donor molecule, donor type, donor heavy atom, donor atom, acceptor molecule, acceptor atom, score
      L1  H    12    44       P1  7948  2.00
      P1  H  7997  8009       L1    19  0.95
      P1  H 10752 10763       L1     8  1.37

> <Gold.PLP.Chemscore.Internal.Correction>
0.2724

> <Gold.Rescore>
     Score         DG    S(hbond)    S(metal)    S(lipo)     H(rot)  DE(clash)    DE(int)     intcor
     13.34     -15.82       2.16        0.00      60.06       1.52       0.05       2.43       ----

> <Gold.Chemscore.Fitness>
13.3421

> <Gold.Chemscore.DG>
-15.8206

> <Gold.Chemscore.ZeroCoef>
-5.4800

> <Gold.Chemscore.Hbond>
2.1565

> <Gold.Chemscore.Metal>
0.0000

> <Gold.Chemscore.Lipo>
60.0573

> <Gold.Chemscore.Internal_Hbond>
0.0000

> <Gold.Chemscore.DEClash>
0.0534

> <Gold.Chemscore.DEInternal>
2.4252

> <Gold.Chemscore.Rot>
1.5190

> <Gold.Chemscore.Internal.Correction>
   9.000000E+99

> <Gold.Chemscore.Hbonds>
donor molecule, donor type, donor heavy atom, donor atom, acceptor molecule, acceptor atom, score
      L1  H    12    44       P1  7948  0.97
      P1  H  7997  8009       L1    19  0.18
      P1  H 10752 10763       L1     8  0.04

> <Gold.Chemscore.Hbond.Weighted>
-7.2026

> <Gold.Chemscore.Metal.Weighted>
-0.0000

> <Gold.Chemscore.Lipo.Weighted>
-7.0267

> <Gold.Chemscore.Internal_Hbond.Weighted>
0.0000

> <Gold.Chemscore.DEClash.Weighted>
0.0534

> <Gold.Chemscore.DEInternal.Weighted>
2.4252

> <Gold.Chemscore.Rot.Weighted>
3.8886

> <Gold.Chemscore.Internal.Correction.Weighted>
   9.000000E+99

> <Gold.Protein.RotatedTorsions>
[ 6907 6896 6895 6894 ] final   70.70 input  -60.11 | X-H torsion
[ 7974 7965 7964 7962 ] final  -95.20 input  175.53 | X-H torsion
[ 8008 7997 7996 7995 ] final  124.94 input   59.86 | X-H torsion
[ 10167 10162 10161 10158 ] final   74.04 input  -65.29 | X-H torsion
[ 10718 10713 10712 10709 ] final  103.59 input   66.30 | X-H torsion
[ 10763 10752 10751 10750 ] final   85.09 input  -60.55 | X-H torsion
[ 11005 11000 10999 10996 ] final   53.15 input  -57.11 | X-H torsion

> <Gold.Protein.ActiveResidues>
 VAL166  LYS551  ARG553  GLY616  TRP617  ASP618  TYR619  PRO620  LYS621  CYS622 
 ASP623  PHE694  ASN695  SER759  ASP760  ASP761  ALA762  ILE779  LEU786  VAL792 
 PHE793  MET794  SER795  GLU796  ALA797  LYS798  CYS799  TRP800  GLU811  SER814 

> <Gold.Protein.RotatedAtoms>
  152.4765  134.4829  159.9670 H   0  0  0  0  0  0  0  0  0  0  0  0  # atno 6907 bound_to 6896
  151.4844  133.3533  159.2851 H   0  0  0  0  0  0  0  0  0  0  0  0  # atno 6908 bound_to 6896
  150.8808  134.8225  159.7285 H   0  0  0  0  0  0  0  0  0  0  0  0  # atno 6909 bound_to 6896
  145.3633  140.9495  143.2488 H   0  0  0  0  0  0  0  0  0  0  0  0  # atno 7974 bound_to 7965
  156.2818  140.2728  156.1869 H   0  0  0  0  0  0  0  0  0  0  0  0  # atno 8008 bound_to 7997
  155.0499  140.0386  157.2558 H   0  0  0  0  0  0  0  0  0  0  0  0  # atno 8009 bound_to 7997
  154.7204  140.2686  155.6552 H   0  0  0  0  0  0  0  0  0  0  0  0  # atno 8010 bound_to 7997
  140.0180  144.5563  150.7605 H   0  0  0  0  0  0  0  0  0  0  0  0  # atno 10167 bound_to 10162
  157.6767  131.0782  150.5578 H   0  0  0  0  0  0  0  0  0  0  0  0  # atno 10718 bound_to 10713
  153.1442  135.4630  154.9542 H   0  0  0  0  0  0  0  0  0  0  0  0  # atno 10763 bound_to 10752
  154.7773  135.3177  154.8068 H   0  0  0  0  0  0  0  0  0  0  0  0  # atno 10764 bound_to 10752
  153.8585  135.6915  153.4839 H   0  0  0  0  0  0  0  0  0  0  0  0  # atno 10765 bound_to 10752
  140.0790  134.5364  155.8966 H   0  0  0  0  0  0  0  0  0  0  0  0  # atno 11005 bound_to 11000
  144.8630  139.5148  143.6803 LP  0  0  0  0  0  0  0  0  0  0  0  0  # atno 17320 bound_to 7965
  146.2918  139.7161  142.9155 LP  0  0  0  0  0  0  0  0  0  0  0  0  # atno 17321 bound_to 7965
  140.7354  143.2741  151.3797 LP  0  0  0  0  0  0  0  0  0  0  0  0  # atno 17342 bound_to 10162
  139.6159  144.1003  152.2345 LP  0  0  0  0  0  0  0  0  0  0  0  0  # atno 17343 bound_to 10162
  156.5881  130.4322  149.5948 LP  0  0  0  0  0  0  0  0  0  0  0  0  # atno 17370 bound_to 10713
  156.2605  130.6960  151.1727 LP  0  0  0  0  0  0  0  0  0  0  0  0  # atno 17371 bound_to 10713
  141.2040  133.6636  156.6095 LP  0  0  0  0  0  0  0  0  0  0  0  0  # atno 17394 bound_to 11000
  140.3515  134.7764  157.4470 LP  0  0  0  0  0  0  0  0  0  0  0  0  # atno 17395 bound_to 11000

$$$$
