AV-unprocessed.smi:2993|AV-procd|sdf|11402|dock8
  -GOLD-   2272016323D 1   1.00000     0.00000
 Structure written by MMmdl.
 34 35  0  0  0  0  0  0  0  0  1 V2000
  148.8212  141.4192  157.2161 C   0  0  0  0  0  0  0  0  0  0  0  0
  149.9093  140.7635  156.4147 C   0  0  0  0  0  0  0  0  0  0  0  0
  149.9115  140.8935  155.0987 N   0  0  0  0  0  0  0  0  0  0  0  0
  151.0281  140.1848  154.6451 O   0  0  0  0  0  0  0  0  0  0  0  0
  151.6614  139.6478  155.7187 C   0  0  0  0  0  0  0  0  0  0  0  0
  152.8890  138.8499  155.4346 C   0  0  0  0  0  0  0  0  0  0  0  0
  151.0031  139.9736  156.8733 C   0  0  0  0  0  0  0  0  0  0  0  0
  151.3454  139.5965  158.2919 C   0  0  0  0  0  0  0  0  0  0  0  0
  152.4796  140.4864  158.7997 C   0  0  0  0  0  0  0  0  0  0  0  0
  153.6438  140.0915  158.7440 O   0  0  0  0  0  0  0  0  0  0  0  0
  152.1221  141.6803  159.2978 N   0  0  0  0  0  0  0  0  0  0  0  0
  153.0309  142.6752  159.8560 C   0  0  2  0  0  0  0  0  0  0  0  0
  152.9095  142.6423  161.3858 C   0  0  0  0  0  0  0  0  0  0  0  0
  152.7928  144.0785  159.3240 C   0  0  0  0  0  0  0  0  0  0  0  0
  151.3973  144.5977  159.0672 C   0  0  0  0  0  0  0  0  0  0  0  0
  152.3196  144.3024  157.9072 C   0  0  0  0  0  0  0  0  0  0  0  0
  149.1222  141.5606  158.2539 H   0  0  0  0  0  0  0  0  0  0  0  0
  147.9155  140.8128  157.2132 H   0  0  0  0  0  0  0  0  0  0  0  0
  148.5671  142.4001  156.8130 H   0  0  0  0  0  0  0  0  0  0  0  0
  153.4776  138.6981  156.3392 H   0  0  0  0  0  0  0  0  0  0  0  0
  153.5205  139.3572  154.7052 H   0  0  0  0  0  0  0  0  0  0  0  0
  152.6272  137.8707  155.0343 H   0  0  0  0  0  0  0  0  0  0  0  0
  150.4844  139.7083  158.9517 H   0  0  0  0  0  0  0  0  0  0  0  0
  151.6453  138.5504  158.3660 H   0  0  0  0  0  0  0  0  0  0  0  0
  151.1399  141.9139  159.2991 H   0  0  0  0  0  0  0  0  0  0  0  0
  154.0538  142.3872  159.6055 H   0  0  0  0  0  0  0  0  0  0  0  0
  153.6159  143.3302  161.8513 H   0  0  0  0  0  0  0  0  0  0  0  0
  153.1179  141.6457  161.7768 H   0  0  0  0  0  0  0  0  0  0  0  0
  151.9076  142.9251  161.7108 H   0  0  0  0  0  0  0  0  0  0  0  0
  153.5100  144.8090  159.6947 H   0  0  0  0  0  0  0  0  0  0  0  0
  150.5628  143.9179  159.2273 H   0  0  0  0  0  0  0  0  0  0  0  0
  151.1991  145.6416  159.3013 H   0  0  0  0  0  0  0  0  0  0  0  0
  152.7370  145.1496  157.3672 H   0  0  0  0  0  0  0  0  0  0  0  0
  152.0975  143.4262  157.3011 H   0  0  0  0  0  0  0  0  0  0  0  0
  1  2  1  0  0  0  0
  1 17  1  0  0  0  0
  1 18  1  0  0  0  0
  1 19  1  0  0  0  0
  2  7  1  0  0  0  0
  2  3  2  0  0  0  0
  3  4  1  0  0  0  0
  4  5  1  0  0  0  0
  5  6  1  0  0  0  0
  5  7  2  0  0  0  0
  6 20  1  0  0  0  0
  6 21  1  0  0  0  0
  6 22  1  0  0  0  0
  7  8  1  0  0  0  0
  8  9  1  0  0  0  0
  8 23  1  0  0  0  0
  8 24  1  0  0  0  0
  9 10  2  0  0  0  0
  9 11  1  0  0  0  0
 11 12  1  0  0  0  0
 11 25  1  0  0  0  0
 12 13  1  0  0  0  0
 12 14  1  0  0  0  0
 12 26  1  0  0  0  0
 13 27  1  0  0  0  0
 13 28  1  0  0  0  0
 13 29  1  0  0  0  0
 14 16  1  0  0  0  0
 14 15  1  0  0  0  0
 14 30  1  0  0  0  0
 15 16  1  0  0  0  0
 15 31  1  0  0  0  0
 15 32  1  0  0  0  0
 16 33  1  0  0  0  0
 16 34  1  0  0  0  0
M  END
> <s_m_source_file>
AV-unprocessed.smi

> <i_m_source_file_index>
2993

> <i_lp_mmshare_version>
43012

> <i_f3d_flags>
0

> <s_epik_input>
W0NIM11jMW5vYyhbQ0gzXSljMVtDSDJdQyg9TylbTkhdW0NASF0oW0NIM10pW0NIXTJbQ0gyXVtDSDJdMg==

> <s_epik_cmdline>
J2VwaWtfcHl0aG9uJywgJy1waCcsICc3LjAnLCAnLXRuJywgJzgnLCAnLW1hJywgJzIwMCcsICctbWV0YWxfYmluZGluZycsICctaW1hZScsICc8aW5maWxlLm1hZT4nLCAnLW9tYWUnLCAnPG91dGZpbGUubWFlPic=

> <r_lp_tautomer_probability>
1

> <r_epik_Ionization_Penalty>
1.92533e-08

> <r_epik_Ionization_Penalty_Charging>
0

> <r_epik_Ionization_Penalty_Neutral>
1.92533e-08

> <r_epik_State_Penalty>
-0

> <r_epik_Charging_Adjusted_Penalty>
0

> <i_epik_Tot_Q>
0

> <i_epik_Tot_abs_Q>
0

> <r_epik_Metal_State_Penalty>
-0

> <b_epik_Metal_Only>
0

> <s_lp_Force_Field>
OPLS_2005

> <r_lp_Energy>
6.61094

> <b_lp_Chiralities_Consistent>
1

> <s_lp_Variant>
AV-unprocessed.smi:2993-1

> <Gold.Version>
5.8.1

> <Gold.Id.Protein>
6NUR|6NUR_protein|mol2

> <Gold.PLP.Fitness>
42.2755

> <Gold.PLP.PLP>
-37.7992

> <Gold.PLP.part.hbond>
-1.9330

> <Gold.PLP.part.metal>
0.0000

> <Gold.PLP.part.buried>
-4.4617

> <Gold.PLP.part.nonpolar>
-31.0411

> <Gold.PLP.part.repulsive>
0.3347

> <Gold.PLP.ligand.clash>
0.0000

> <Gold.PLP.ligand.torsion>
1.2947

> <Gold.PLP.Chemscore.Hbond>
2.0000

> <Gold.PLP.Chemscore.CHOScore>
0.0000

> <Gold.PLP.Chemscore.Metal>
0.0000

> <Gold.Chemscore.Hbonds>
donor molecule, donor type, donor heavy atom, donor atom, acceptor molecule, acceptor atom, score
      P1  H  7989  7998       L1     4  0.84
      P1  H  7997  8008       L1    10  0.99

> <Gold.PLP.Chemscore.Internal.Correction>
1.0658

> <Gold.Rescore>
     Score         DG    S(hbond)    S(metal)    S(lipo)     H(rot)  DE(clash)    DE(int)     intcor
     17.98     -19.18       1.94        0.00      93.52       1.46       0.02       1.18       ----

> <Gold.Chemscore.Fitness>
17.9847

> <Gold.Chemscore.DG>
-19.1773

> <Gold.Chemscore.ZeroCoef>
-5.4800

> <Gold.Chemscore.Hbond>
1.9429

> <Gold.Chemscore.Metal>
0.0000

> <Gold.Chemscore.Lipo>
93.5176

> <Gold.Chemscore.Internal_Hbond>
0.0000

> <Gold.Chemscore.DEClash>
0.0156

> <Gold.Chemscore.DEInternal>
1.1770

> <Gold.Chemscore.Rot>
1.4584

> <Gold.Chemscore.Internal.Correction>
   9.000000E+99

> <Gold.Chemscore.Hbonds>
donor molecule, donor type, donor heavy atom, donor atom, acceptor molecule, acceptor atom, score
      P1  H  7989  7998       L1     4  0.61
      P1  H  7997  8008       L1    10  0.93

> <Gold.Chemscore.Hbond.Weighted>
-6.4891

> <Gold.Chemscore.Metal.Weighted>
-0.0000

> <Gold.Chemscore.Lipo.Weighted>
-10.9416

> <Gold.Chemscore.Internal_Hbond.Weighted>
0.0000

> <Gold.Chemscore.DEClash.Weighted>
0.0156

> <Gold.Chemscore.DEInternal.Weighted>
1.1770

> <Gold.Chemscore.Rot.Weighted>
3.7334

> <Gold.Chemscore.Internal.Correction.Weighted>
   9.000000E+99

> <Gold.Protein.RotatedTorsions>
[ 6907 6896 6895 6894 ] final -132.70 input  -60.11 | X-H torsion
[ 7974 7965 7964 7962 ] final   68.15 input  175.53 | X-H torsion
[ 8008 7997 7996 7995 ] final  -93.40 input   59.86 | X-H torsion
[ 10167 10162 10161 10158 ] final -125.89 input  -65.29 | X-H torsion
[ 10718 10713 10712 10709 ] final  -11.96 input   66.30 | X-H torsion
[ 10763 10752 10751 10750 ] final   -6.26 input  -60.55 | X-H torsion
[ 11005 11000 10999 10996 ] final  -99.84 input  -57.11 | X-H torsion

> <Gold.Protein.ActiveResidues>
 VAL166  LYS551  ARG553  GLY616  TRP617  ASP618  TYR619  PRO620  LYS621  CYS622 
 ASP623  PHE694  ASN695  SER759  ASP760  ASP761  ALA762  ILE779  LEU786  VAL792 
 PHE793  MET794  SER795  GLU796  ALA797  LYS798  CYS799  TRP800  GLU811  SER814 

> <Gold.Protein.RotatedAtoms>
  150.9655  133.6400  159.2746 H   0  0  0  0  0  0  0  0  0  0  0  0  # atno 6907 bound_to 6896
  151.3707  135.0921  159.9474 H   0  0  0  0  0  0  0  0  0  0  0  0  # atno 6908 bound_to 6896
  152.5163  133.9209  159.7588 H   0  0  0  0  0  0  0  0  0  0  0  0  # atno 6909 bound_to 6896
  145.8061  139.3008  143.1126 H   0  0  0  0  0  0  0  0  0  0  0  0  # atno 7974 bound_to 7965
  154.7352  140.0499  157.0762 H   0  0  0  0  0  0  0  0  0  0  0  0  # atno 8008 bound_to 7997
  155.0250  140.3151  155.4760 H   0  0  0  0  0  0  0  0  0  0  0  0  # atno 8009 bound_to 7997
  156.2851  140.2160  156.5369 H   0  0  0  0  0  0  0  0  0  0  0  0  # atno 8010 bound_to 7997
  139.9773  143.5780  152.2391 H   0  0  0  0  0  0  0  0  0  0  0  0  # atno 10167 bound_to 10162
  156.6515  130.4956  149.6060 H   0  0  0  0  0  0  0  0  0  0  0  0  # atno 10718 bound_to 10713
  153.4100  135.7007  153.6366 H   0  0  0  0  0  0  0  0  0  0  0  0  # atno 10763 bound_to 10752
  153.4864  135.3682  155.2469 H   0  0  0  0  0  0  0  0  0  0  0  0  # atno 10764 bound_to 10752
  154.8716  135.4078  154.3450 H   0  0  0  0  0  0  0  0  0  0  0  0  # atno 10765 bound_to 10752
  141.1293  133.8353  157.1025 H   0  0  0  0  0  0  0  0  0  0  0  0  # atno 11005 bound_to 11000
  145.9826  140.8669  143.0106 LP  0  0  0  0  0  0  0  0  0  0  0  0  # atno 17320 bound_to 7965
  144.6763  140.2102  143.7378 LP  0  0  0  0  0  0  0  0  0  0  0  0  # atno 17321 bound_to 7965
  139.6436  144.7656  151.2289 LP  0  0  0  0  0  0  0  0  0  0  0  0  # atno 17342 bound_to 10162
  140.7501  143.6276  150.8453 LP  0  0  0  0  0  0  0  0  0  0  0  0  # atno 17343 bound_to 10162
  156.2081  130.6661  151.1240 LP  0  0  0  0  0  0  0  0  0  0  0  0  # atno 17370 bound_to 10713
  157.7139  131.0720  150.6399 LP  0  0  0  0  0  0  0  0  0  0  0  0  # atno 17371 bound_to 10713
  140.0325  134.9894  157.0807 LP  0  0  0  0  0  0  0  0  0  0  0  0  # atno 17394 bound_to 11000
  140.4263  134.1828  155.7166 LP  0  0  0  0  0  0  0  0  0  0  0  0  # atno 17395 bound_to 11000

$$$$
