AV-unprocessed.smi:3143|AV-procd|sdf|11974|dock5
  -GOLD-   2272017373D 1   1.00000     0.00000
 Structure written by MMmdl.
 38 39  0  0  0  0  0  0  0  0  2 V2000
  147.0240  140.5266  153.0580 C   0  0  0  0  0  0  0  0  0  0  0  0
  147.2478  139.0147  153.2196 C   0  0  2  0  0  0  0  0  0  0  0  0
  148.7002  138.7249  153.1877 N   0  3  0  0  0  0  0  0  0  0  0  0
  149.4327  139.0654  154.4259 C   0  0  0  0  0  0  0  0  0  0  0  0
  149.7047  140.5748  154.5056 C   0  0  0  0  0  0  0  0  0  0  0  0
  150.4616  140.9281  155.6917 N   0  0  0  0  0  0  0  0  0  0  0  0
  150.1985  141.9192  156.6141 C   0  0  0  0  0  0  0  0  0  0  0  0
  151.1947  141.8805  157.5473 C   0  0  0  0  0  0  0  0  0  0  0  0
  152.0361  140.8236  157.1004 C   0  0  0  0  0  0  0  0  0  0  0  0
  151.5964  140.2579  155.9875 N   0  0  0  0  0  0  0  0  0  0  0  0
  146.4935  138.2497  152.1132 C   0  0  0  0  0  0  0  0  0  0  0  0
  146.7526  138.5026  150.9356 O   0  0  0  0  0  0  0  0  0  0  0  0
  145.5614  137.3351  152.4578 N   0  0  0  0  0  0  0  0  0  0  0  0
  145.2166  137.0282  153.8453 C   0  0  0  0  0  0  0  0  0  0  0  0
  143.9593  136.1615  153.7802 C   0  0  0  0  0  0  0  0  0  0  0  0
  144.0377  135.4989  152.4126 C   0  0  0  0  0  0  0  0  0  0  0  0
  144.7565  136.5281  151.5401 C   0  0  0  0  0  0  0  0  0  0  0  0
  145.9642  140.7814  153.0927 H   0  0  0  0  0  0  0  0  0  0  0  0
  147.4205  140.8915  152.1094 H   0  0  0  0  0  0  0  0  0  0  0  0
  147.5166  141.0816  153.8567 H   0  0  0  0  0  0  0  0  0  0  0  0
  146.8841  138.7212  154.2043 H   0  0  0  0  0  0  0  0  0  0  0  0
  148.8244  137.7419  152.9893 H   0  0  0  0  0  0  0  0  0  0  0  0
  148.8455  138.7479  155.2885 H   0  0  0  0  0  0  0  0  0  0  0  0
  150.3733  138.5143  154.4566 H   0  0  0  0  0  0  0  0  0  0  0  0
  150.2609  140.9107  153.6293 H   0  0  0  0  0  0  0  0  0  0  0  0
  148.7650  141.1286  154.5173 H   0  0  0  0  0  0  0  0  0  0  0  0
  149.3344  142.5623  156.5325 H   0  0  0  0  0  0  0  0  0  0  0  0
  151.3071  142.5130  158.4155 H   0  0  0  0  0  0  0  0  0  0  0  0
  152.9472  140.4544  157.5476 H   0  0  0  0  0  0  0  0  0  0  0  0
  146.0388  136.4748  154.3013 H   0  0  0  0  0  0  0  0  0  0  0  0
  145.0451  137.9289  154.4368 H   0  0  0  0  0  0  0  0  0  0  0  0
  143.8980  135.4420  154.5974 H   0  0  0  0  0  0  0  0  0  0  0  0
  143.0741  136.7973  153.8273 H   0  0  0  0  0  0  0  0  0  0  0  0
  144.6400  134.5919  152.4809 H   0  0  0  0  0  0  0  0  0  0  0  0
  143.0592  135.2208  152.0197 H   0  0  0  0  0  0  0  0  0  0  0  0
  144.0309  137.1730  151.0422 H   0  0  0  0  0  0  0  0  0  0  0  0
  145.3597  136.0365  150.7762 H   0  0  0  0  0  0  0  0  0  0  0  0
  149.1089  139.2602  152.4353 H   0  0  0  0  0  0  0  0  0  0  0  0
  1  2  1  0  0  0  0
  1 18  1  0  0  0  0
  1 19  1  0  0  0  0
  1 20  1  0  0  0  0
  2  3  1  0  0  0  0
  2 11  1  0  0  0  0
  2 21  1  0  0  0  0
  3  4  1  0  0  0  0
  3 22  1  0  0  0  0
  3 38  1  0  0  0  0
  4  5  1  0  0  0  0
  4 23  1  0  0  0  0
  4 24  1  0  0  0  0
  5  6  1  0  0  0  0
  5 25  1  0  0  0  0
  5 26  1  0  0  0  0
  6 10  1  0  0  0  0
  6  7  1  0  0  0  0
  7  8  2  0  0  0  0
  7 27  1  0  0  0  0
  8  9  1  0  0  0  0
  8 28  1  0  0  0  0
  9 10  2  0  0  0  0
  9 29  1  0  0  0  0
 11 12  2  0  0  0  0
 11 13  1  0  0  0  0
 13 17  1  0  0  0  0
 13 14  1  0  0  0  0
 14 15  1  0  0  0  0
 14 30  1  0  0  0  0
 14 31  1  0  0  0  0
 15 16  1  0  0  0  0
 15 32  1  0  0  0  0
 15 33  1  0  0  0  0
 16 17  1  0  0  0  0
 16 34  1  0  0  0  0
 16 35  1  0  0  0  0
 17 36  1  0  0  0  0
 17 37  1  0  0  0  0
M  CHG  1   3   1
M  END
> <s_m_source_file>
AV-unprocessed.smi

> <i_m_source_file_index>
3143

> <i_lp_mmshare_version>
43012

> <i_f3d_flags>
0

> <s_epik_input>
W0NIMl0xW0NIMl1bQ0gyXVtDSDJdTjFDKD1PKVtDQEhdKFtDSDNdKVtOSF1bQ0gyXVtDSDJdbjJbY0hdW2NIXVtjSF1uMg==

> <s_epik_cmdline>
J2VwaWtfcHl0aG9uJywgJy1waCcsICc3LjAnLCAnLXRuJywgJzgnLCAnLW1hJywgJzIwMCcsICctbWV0YWxfYmluZGluZycsICctaW1hZScsICc8aW5maWxlLm1hZT4nLCAnLW9tYWUnLCAnPG91dGZpbGUubWFlPic=

> <r_lp_tautomer_probability>
1

> <r_epik_Ionization_Penalty>
0.203171

> <r_epik_Ionization_Penalty_Charging>
0.203168

> <r_epik_Ionization_Penalty_Neutral>
2.46932e-06

> <r_epik_State_Penalty>
0.193072

> <r_epik_Charging_Adjusted_Penalty>
0.39624

> <i_epik_Tot_Q>
1

> <i_epik_Tot_abs_Q>
1

> <r_epik_Metal_State_Penalty>
0.193323

> <b_epik_Metal_Only>
0

> <s_lp_Force_Field>
OPLS_2005

> <r_lp_Energy>
30.2015

> <b_lp_Chiralities_Consistent>
1

> <s_lp_Variant>
AV-unprocessed.smi:3143-1

> <Gold.Version>
5.8.1

> <Gold.Id.Protein>
6NUR|6NUR_protein|mol2

> <Gold.PLP.Fitness>
43.6162

> <Gold.PLP.PLP>
-29.2673

> <Gold.PLP.part.hbond>
-3.0000

> <Gold.PLP.part.metal>
0.0000

> <Gold.PLP.part.buried>
-0.4806

> <Gold.PLP.part.nonpolar>
-26.9857

> <Gold.PLP.part.repulsive>
0.6042

> <Gold.PLP.ligand.clash>
0.0000

> <Gold.PLP.ligand.torsion>
0.3303

> <Gold.PLP.Chemscore.Hbond>
3.9920

> <Gold.PLP.Chemscore.CHOScore>
1.0000

> <Gold.PLP.Chemscore.Metal>
0.0000

> <Gold.Chemscore.Hbonds>
donor molecule, donor type, donor heavy atom, donor atom, acceptor molecule, acceptor atom, score
      L1  H     3    22       P1  7948  2.00
      L1  H     3    38       P1  7957  1.00
      P1  H  7954  7966       L1    12  1.00
      L1  C     7    27       P1  8028  1.00

> <Gold.PLP.Chemscore.Internal.Correction>
0.0336

> <Gold.Rescore>
     Score         DG    S(hbond)    S(metal)    S(lipo)     H(rot)  DE(clash)    DE(int)     intcor
     16.84     -17.58       2.95        0.00      59.45       1.84       0.37       0.37       ----

> <Gold.Chemscore.Fitness>
16.8359

> <Gold.Chemscore.DG>
-17.5801

> <Gold.Chemscore.ZeroCoef>
-5.4800

> <Gold.Chemscore.Hbond>
2.9508

> <Gold.Chemscore.Metal>
0.0000

> <Gold.Chemscore.Lipo>
59.4537

> <Gold.Chemscore.Internal_Hbond>
0.0000

> <Gold.Chemscore.DEClash>
0.3706

> <Gold.Chemscore.DEInternal>
0.3736

> <Gold.Chemscore.Rot>
1.8405

> <Gold.Chemscore.Internal.Correction>
   9.000000E+99

> <Gold.Chemscore.Hbonds>
donor molecule, donor type, donor heavy atom, donor atom, acceptor molecule, acceptor atom, score
      L1  H     3    22       P1  7948  0.98
      L1  H     3    38       P1  7957  0.97
      P1  H  7954  7966       L1    12  0.95

> <Gold.Chemscore.Hbond.Weighted>
-9.8557

> <Gold.Chemscore.Metal.Weighted>
-0.0000

> <Gold.Chemscore.Lipo.Weighted>
-6.9561

> <Gold.Chemscore.Internal_Hbond.Weighted>
0.0000

> <Gold.Chemscore.DEClash.Weighted>
0.3706

> <Gold.Chemscore.DEInternal.Weighted>
0.3736

> <Gold.Chemscore.Rot.Weighted>
4.7117

> <Gold.Chemscore.Internal.Correction.Weighted>
   9.000000E+99

> <Gold.Protein.RotatedTorsions>
[ 6907 6896 6895 6894 ] final  161.25 input  -60.11 | X-H torsion
[ 7974 7965 7964 7962 ] final   35.13 input  175.53 | X-H torsion
[ 8008 7997 7996 7995 ] final   19.33 input   59.86 | X-H torsion
[ 10167 10162 10161 10158 ] final  164.59 input  -65.29 | X-H torsion
[ 10718 10713 10712 10709 ] final -130.04 input   66.30 | X-H torsion
[ 10763 10752 10751 10750 ] final -154.57 input  -60.55 | X-H torsion
[ 11005 11000 10999 10996 ] final  168.74 input  -57.11 | X-H torsion

> <Gold.Protein.ActiveResidues>
 VAL166  LYS551  ARG553  GLY616  TRP617  ASP618  TYR619  PRO620  LYS621  CYS622 
 ASP623  PHE694  ASN695  SER759  ASP760  ASP761  ALA762  ILE779  LEU786  VAL792 
 PHE793  MET794  SER795  GLU796  ALA797  LYS798  CYS799  TRP800  GLU811  SER814 

> <Gold.Protein.RotatedAtoms>
  151.9584  133.3687  159.4025 H   0  0  0  0  0  0  0  0  0  0  0  0  # atno 6907 bound_to 6896
  150.6968  134.4266  159.5238 H   0  0  0  0  0  0  0  0  0  0  0  0  # atno 6908 bound_to 6896
  152.1951  134.8638  160.0564 H   0  0  0  0  0  0  0  0  0  0  0  0  # atno 6909 bound_to 6896
  146.1304  139.6181  142.9230 H   0  0  0  0  0  0  0  0  0  0  0  0  # atno 7974 bound_to 7965
  154.9191  140.3025  155.5225 H   0  0  0  0  0  0  0  0  0  0  0  0  # atno 8008 bound_to 7997
  156.3011  140.2375  156.4175 H   0  0  0  0  0  0  0  0  0  0  0  0  # atno 8009 bound_to 7997
  154.8348  140.0416  157.1490 H   0  0  0  0  0  0  0  0  0  0  0  0  # atno 8010 bound_to 7997
  139.4891  144.4219  151.9176 H   0  0  0  0  0  0  0  0  0  0  0  0  # atno 10167 bound_to 10162
  156.2105  130.6915  151.0644 H   0  0  0  0  0  0  0  0  0  0  0  0  # atno 10718 bound_to 10713
  154.7849  135.3187  154.7908 H   0  0  0  0  0  0  0  0  0  0  0  0  # atno 10763 bound_to 10752
  153.8610  135.6853  153.4787 H   0  0  0  0  0  0  0  0  0  0  0  0  # atno 10764 bound_to 10752
  153.1498  135.4704  154.9558 H   0  0  0  0  0  0  0  0  0  0  0  0  # atno 10765 bound_to 10752
  140.2904  134.7678  157.3833 H   0  0  0  0  0  0  0  0  0  0  0  0  # atno 11005 bound_to 11000
  145.5272  141.0429  143.2403 LP  0  0  0  0  0  0  0  0  0  0  0  0  # atno 17320 bound_to 7965
  144.7685  139.6789  143.7204 LP  0  0  0  0  0  0  0  0  0  0  0  0  # atno 17321 bound_to 7965
  140.3664  144.2910  150.5926 LP  0  0  0  0  0  0  0  0  0  0  0  0  # atno 17342 bound_to 10162
  140.5358  143.2233  151.8166 LP  0  0  0  0  0  0  0  0  0  0  0  0  # atno 17343 bound_to 10162
  157.7036  131.0766  150.6741 LP  0  0  0  0  0  0  0  0  0  0  0  0  # atno 17370 bound_to 10713
  156.6800  130.4564  149.5630 LP  0  0  0  0  0  0  0  0  0  0  0  0  # atno 17371 bound_to 10713
  140.1201  134.5231  155.8191 LP  0  0  0  0  0  0  0  0  0  0  0  0  # atno 17394 bound_to 11000
  141.2147  133.6753  156.6849 LP  0  0  0  0  0  0  0  0  0  0  0  0  # atno 17395 bound_to 11000

$$$$
