AV-unprocessed.smi:3044|AV-procd|sdf|11608|dock5
  -GOLD-   2272016583D 1   1.00000     0.00000
 Structure written by MMmdl.
 41 42  0  0  0  0  0  0  0  0  1 V2000
  150.4211  137.3197  159.2665 C   0  0  0  0  0  0  0  0  0  0  0  0
  150.7738  136.9588  157.8340 C   0  0  0  0  0  0  0  0  0  0  0  0
  151.0356  135.6507  157.6157 N   0  0  0  0  0  0  0  0  0  0  0  0
  151.3601  135.2637  156.3649 C   0  0  0  0  0  0  0  0  0  0  0  0
  151.4459  136.1563  155.2808 C   0  0  0  0  0  0  0  0  0  0  0  0
  151.1731  137.5181  155.5091 C   0  0  0  0  0  0  0  0  0  0  0  0
  150.8144  137.9408  156.8129 C   0  0  0  0  0  0  0  0  0  0  0  0
  150.5397  139.2973  157.1484 N   0  0  0  0  0  0  0  0  0  0  0  0
  150.8364  140.4139  156.4580 C   0  0  0  0  0  0  0  0  0  0  0  0
  151.3857  140.4350  155.3572 O   0  0  0  0  0  0  0  0  0  0  0  0
  150.4148  141.7308  157.1054 C   0  0  0  0  0  0  0  0  0  0  0  0
  151.0816  141.8483  158.3535 O   0  0  0  0  0  0  0  0  0  0  0  0
  152.2299  142.6892  158.3391 C   0  0  1  0  0  0  0  0  0  0  0  0
  151.8447  144.1695  158.1328 C   0  0  0  0  0  0  0  0  0  0  0  0
  151.0274  144.7123  159.3155 C   0  0  0  0  0  0  0  0  0  0  0  0
  151.7801  144.5264  160.6420 C   0  0  0  0  0  0  0  0  0  0  0  0
  152.1601  143.0517  160.8749 C   0  0  2  0  0  0  0  0  0  0  0  0
  152.9231  142.8719  162.1951 C   0  0  0  0  0  0  0  0  0  0  0  0
  152.9664  142.5032  159.6789 C   0  0  0  0  0  0  0  0  0  0  0  0
  149.4139  137.7336  159.3155 H   0  0  0  0  0  0  0  0  0  0  0  0
  151.1194  138.0608  159.6559 H   0  0  0  0  0  0  0  0  0  0  0  0
  150.4587  136.4480  159.9213 H   0  0  0  0  0  0  0  0  0  0  0  0
  151.5646  134.2126  156.2254 H   0  0  0  0  0  0  0  0  0  0  0  0
  151.7205  135.8054  154.2972 H   0  0  0  0  0  0  0  0  0  0  0  0
  151.2602  138.2089  154.6853 H   0  0  0  0  0  0  0  0  0  0  0  0
  150.0001  139.4329  157.9909 H   0  0  0  0  0  0  0  0  0  0  0  0
  150.6661  142.5738  156.4593 H   0  0  0  0  0  0  0  0  0  0  0  0
  149.3325  141.7223  157.2327 H   0  0  0  0  0  0  0  0  0  0  0  0
  152.8990  142.3702  157.5382 H   0  0  0  0  0  0  0  0  0  0  0  0
  152.7545  144.7621  158.0290 H   0  0  0  0  0  0  0  0  0  0  0  0
  151.2941  144.3082  157.2035 H   0  0  0  0  0  0  0  0  0  0  0  0
  150.8063  145.7686  159.1601 H   0  0  0  0  0  0  0  0  0  0  0  0
  150.0658  144.1996  159.3632 H   0  0  0  0  0  0  0  0  0  0  0  0
  152.6796  145.1435  160.6380 H   0  0  0  0  0  0  0  0  0  0  0  0
  151.1626  144.8876  161.4650 H   0  0  0  0  0  0  0  0  0  0  0  0
  151.2362  142.4765  160.9521 H   0  0  0  0  0  0  0  0  0  0  0  0
  153.8644  143.4228  162.1875 H   0  0  0  0  0  0  0  0  0  0  0  0
  153.1534  141.8216  162.3759 H   0  0  0  0  0  0  0  0  0  0  0  0
  152.3347  143.2299  163.0403 H   0  0  0  0  0  0  0  0  0  0  0  0
  153.1881  141.4461  159.8304 H   0  0  0  0  0  0  0  0  0  0  0  0
  153.9299  143.0121  159.6294 H   0  0  0  0  0  0  0  0  0  0  0  0
  1  2  1  0  0  0  0
  1 20  1  0  0  0  0
  1 21  1  0  0  0  0
  1 22  1  0  0  0  0
  2  7  1  0  0  0  0
  2  3  2  0  0  0  0
  3  4  1  0  0  0  0
  4  5  2  0  0  0  0
  4 23  1  0  0  0  0
  5  6  1  0  0  0  0
  5 24  1  0  0  0  0
  6  7  2  0  0  0  0
  6 25  1  0  0  0  0
  7  8  1  0  0  0  0
  8  9  1  0  0  0  0
  8 26  1  0  0  0  0
  9 10  2  0  0  0  0
  9 11  1  0  0  0  0
 11 12  1  0  0  0  0
 11 27  1  0  0  0  0
 11 28  1  0  0  0  0
 12 13  1  0  0  0  0
 13 19  1  0  0  0  0
 13 14  1  0  0  0  0
 13 29  1  0  0  0  0
 14 15  1  0  0  0  0
 14 30  1  0  0  0  0
 14 31  1  0  0  0  0
 15 16  1  0  0  0  0
 15 32  1  0  0  0  0
 15 33  1  0  0  0  0
 16 17  1  0  0  0  0
 16 34  1  0  0  0  0
 16 35  1  0  0  0  0
 17 18  1  0  0  0  0
 17 19  1  0  0  0  0
 17 36  1  0  0  0  0
 18 37  1  0  0  0  0
 18 38  1  0  0  0  0
 18 39  1  0  0  0  0
 19 40  1  0  0  0  0
 19 41  1  0  0  0  0
M  END
> <s_m_source_file>
AV-unprocessed.smi

> <i_m_source_file_index>
3044

> <i_lp_mmshare_version>
43012

> <i_f3d_flags>
0

> <s_epik_input>
W0NIM11jMW5bY0hdW2NIXVtjSF1jMVtOSF1DKD1PKVtDSDJdT1tDQEBIXTJbQ0gyXVtDSDJdW0NIMl1bQ0BASF0oW0NIM10pW0NIMl0y

> <s_epik_cmdline>
J2VwaWtfcHl0aG9uJywgJy1waCcsICc3LjAnLCAnLXRuJywgJzgnLCAnLW1hJywgJzIwMCcsICctbWV0YWxfYmluZGluZycsICctaW1hZScsICc8aW5maWxlLm1hZT4nLCAnLW9tYWUnLCAnPG91dGZpbGUubWFlPic=

> <r_epik_Ionization_Penalty>
0.0077122

> <r_epik_Ionization_Penalty_Charging>
0

> <r_epik_Ionization_Penalty_Neutral>
0.0077122

> <r_epik_State_Penalty>
0.00577497

> <r_epik_Charging_Adjusted_Penalty>
0.00577497

> <i_epik_Tot_Q>
0

> <i_epik_Tot_abs_Q>
0

> <r_epik_Metal_State_Penalty>
-0

> <b_epik_Metal_Only>
0

> <s_lp_Force_Field>
OPLS_2005

> <r_lp_Energy>
18.191

> <b_lp_Chiralities_Consistent>
1

> <s_lp_Variant>
AV-unprocessed.smi:3044-4

> <Gold.Version>
5.8.1

> <Gold.Id.Protein>
6NUR|6NUR_protein|mol2

> <Gold.PLP.Fitness>
42.6295

> <Gold.PLP.PLP>
-38.5668

> <Gold.PLP.part.hbond>
-2.0000

> <Gold.PLP.part.metal>
0.0000

> <Gold.PLP.part.buried>
-4.3049

> <Gold.PLP.part.nonpolar>
-32.9240

> <Gold.PLP.part.repulsive>
0.0648

> <Gold.PLP.ligand.clash>
0.0000

> <Gold.PLP.ligand.torsion>
0.3918

> <Gold.PLP.Chemscore.Hbond>
1.6100

> <Gold.PLP.Chemscore.CHOScore>
0.0000

> <Gold.PLP.Chemscore.Metal>
0.0000

> <Gold.Chemscore.Hbonds>
donor molecule, donor type, donor heavy atom, donor atom, acceptor molecule, acceptor atom, score
      P1  H  6896  6907       L1     3  0.20
      P1  H  7989  7998       L1    10  0.90

> <Gold.PLP.Chemscore.Internal.Correction>
0.0165

> <Gold.Rescore>
     Score         DG    S(hbond)    S(metal)    S(lipo)     H(rot)  DE(clash)    DE(int)     intcor
     18.07     -20.14       1.52        0.00     110.39       1.31       0.31       1.75       ----

> <Gold.Chemscore.Fitness>
18.0719

> <Gold.Chemscore.DG>
-20.1374

> <Gold.Chemscore.ZeroCoef>
-5.4800

> <Gold.Chemscore.Hbond>
1.5226

> <Gold.Chemscore.Metal>
0.0000

> <Gold.Chemscore.Lipo>
110.3944

> <Gold.Chemscore.Internal_Hbond>
0.0000

> <Gold.Chemscore.DEClash>
0.3107

> <Gold.Chemscore.DEInternal>
1.7548

> <Gold.Chemscore.Rot>
1.3064

> <Gold.Chemscore.Internal.Correction>
   9.000000E+99

> <Gold.Chemscore.Hbonds>
donor molecule, donor type, donor heavy atom, donor atom, acceptor molecule, acceptor atom, score
      P1  H  6896  6907       L1     3  0.11
      P1  H  7989  7998       L1    10  0.88

> <Gold.Chemscore.Hbond.Weighted>
-5.0856

> <Gold.Chemscore.Metal.Weighted>
-0.0000

> <Gold.Chemscore.Lipo.Weighted>
-12.9161

> <Gold.Chemscore.Internal_Hbond.Weighted>
0.0000

> <Gold.Chemscore.DEClash.Weighted>
0.3107

> <Gold.Chemscore.DEInternal.Weighted>
1.7548

> <Gold.Chemscore.Rot.Weighted>
3.3443

> <Gold.Chemscore.Internal.Correction.Weighted>
   9.000000E+99

> <Gold.Protein.RotatedTorsions>
[ 6907 6896 6895 6894 ] final  -64.42 input  -60.11 | X-H torsion
[ 7974 7965 7964 7962 ] final   53.94 input  175.53 | X-H torsion
[ 8008 7997 7996 7995 ] final   26.16 input   59.86 | X-H torsion
[ 10167 10162 10161 10158 ] final   17.77 input  -65.29 | X-H torsion
[ 10718 10713 10712 10709 ] final -163.54 input   66.30 | X-H torsion
[ 10763 10752 10751 10750 ] final   81.82 input  -60.55 | X-H torsion
[ 11005 11000 10999 10996 ] final  176.14 input  -57.11 | X-H torsion

> <Gold.Protein.ActiveResidues>
 VAL166  LYS551  ARG553  GLY616  TRP617  ASP618  TYR619  PRO620  LYS621  CYS622 
 ASP623  PHE694  ASN695  SER759  ASP760  ASP761  ALA762  ILE779  LEU786  VAL792 
 PHE793  MET794  SER795  GLU796  ALA797  LYS798  CYS799  TRP800  GLU811  SER814 

> <Gold.Protein.RotatedAtoms>
  150.7586  134.6301  159.6181 H   0  0  0  0  0  0  0  0  0  0  0  0  # atno 6907 bound_to 6896
  152.3581  134.6908  160.0225 H   0  0  0  0  0  0  0  0  0  0  0  0  # atno 6908 bound_to 6896
  151.7307  133.3281  159.3376 H   0  0  0  0  0  0  0  0  0  0  0  0  # atno 6909 bound_to 6896
  145.9660  139.4104  143.0219 H   0  0  0  0  0  0  0  0  0  0  0  0  # atno 7974 bound_to 7965
  155.0230  140.3150  155.4786 H   0  0  0  0  0  0  0  0  0  0  0  0  # atno 8008 bound_to 7997
  156.2888  140.2194  156.5290 H   0  0  0  0  0  0  0  0  0  0  0  0  # atno 8009 bound_to 7997
  154.7436  140.0471  157.0820 H   0  0  0  0  0  0  0  0  0  0  0  0  # atno 8010 bound_to 7997
  140.5701  143.9176  150.6707 H   0  0  0  0  0  0  0  0  0  0  0  0  # atno 10167 bound_to 10162
  156.6262  130.8910  151.2968 H   0  0  0  0  0  0  0  0  0  0  0  0  # atno 10718 bound_to 10713
  153.1150  135.4751  154.9099 H   0  0  0  0  0  0  0  0  0  0  0  0  # atno 10763 bound_to 10752
  154.7519  135.3108  154.8544 H   0  0  0  0  0  0  0  0  0  0  0  0  # atno 10764 bound_to 10752
  153.9123  135.6864  153.4804 H   0  0  0  0  0  0  0  0  0  0  0  0  # atno 10765 bound_to 10752
  140.3698  134.7040  157.4385 H   0  0  0  0  0  0  0  0  0  0  0  0  # atno 11005 bound_to 11000
  145.7973  140.9787  143.1017 LP  0  0  0  0  0  0  0  0  0  0  0  0  # atno 17320 bound_to 7965
  144.6825  139.9757  143.7483 LP  0  0  0  0  0  0  0  0  0  0  0  0  # atno 17321 bound_to 7965
  140.2649  143.3497  152.1289 LP  0  0  0  0  0  0  0  0  0  0  0  0  # atno 17342 bound_to 10162
  139.5113  144.6899  151.5789 LP  0  0  0  0  0  0  0  0  0  0  0  0  # atno 17343 bound_to 10162
  157.7213  130.9563  150.1452 LP  0  0  0  0  0  0  0  0  0  0  0  0  # atno 17370 bound_to 10713
  156.2272  130.3679  149.8487 LP  0  0  0  0  0  0  0  0  0  0  0  0  # atno 17371 bound_to 10713
  140.0561  134.6062  155.8804 LP  0  0  0  0  0  0  0  0  0  0  0  0  # atno 17394 bound_to 11000
  141.1958  133.6589  156.5661 LP  0  0  0  0  0  0  0  0  0  0  0  0  # atno 17395 bound_to 11000

$$$$
