AV-unprocessed.smi:228|AV-procd|sdf|1744|dock9
  -GOLD-   2262020253D 1   1.00000     0.00000
 Structure written by MMmdl.
 60 63  0  0  0  0  0  0  0  0  2 V2000
  148.2036  138.4710  155.4091 C   0  0  0  0  0  0  0  0  0  0  0  0
  147.4995  139.2865  154.4272 N   0  0  0  0  0  0  0  0  0  0  0  0
  148.1318  140.5572  154.0632 C   0  0  0  0  0  0  0  0  0  0  0  0
  149.0483  141.1267  155.1713 C   0  0  1  0  0  0  0  0  0  0  0  0
  149.5774  142.3555  154.7156 O   0  0  0  0  0  0  0  0  0  0  0  0
  148.2654  141.4028  156.4701 C   0  0  0  0  0  0  0  0  0  0  0  0
  148.9277  142.4240  157.3203 N   0  3  0  0  0  0  0  0  0  0  0  0
  148.1511  142.7406  158.5422 C   0  0  0  0  0  0  0  0  0  0  0  0
  148.8519  143.8448  159.3521 C   0  0  0  0  0  0  0  0  0  0  0  0
  150.1749  143.4344  159.6741 O   0  0  0  0  0  0  0  0  0  0  0  0
  150.9603  143.2073  158.5102 C   0  0  0  0  0  0  0  0  0  0  0  0
  150.3287  142.0822  157.6735 C   0  0  0  0  0  0  0  0  0  0  0  0
  146.9403  138.5402  153.4384 C   0  0  0  0  0  0  0  0  0  0  0  0
  146.8315  139.0476  152.1806 N   0  0  0  0  0  0  0  0  0  0  0  0
  146.2746  138.3230  151.2065 C   0  0  0  0  0  0  0  0  0  0  0  0
  145.7672  137.0918  151.2716 N   0  0  0  0  0  0  0  0  0  0  0  0
  145.8734  136.5733  152.5288 C   0  0  0  0  0  0  0  0  0  0  0  0
  146.4443  137.2247  153.6590 C   0  0  0  0  0  0  0  0  0  0  0  0
  146.3664  136.3964  154.7716 N   0  0  0  0  0  0  0  0  0  0  0  0
  145.7903  135.3144  154.3243 C   0  0  0  0  0  0  0  0  0  0  0  0
  145.4560  135.3338  152.9883 N   0  0  0  0  0  0  0  0  0  0  0  0
  144.8063  134.2823  152.2560 C   0  0  0  0  0  0  0  0  0  0  0  0
  145.4169  132.8814  152.1591 C   0  0  0  0  0  0  0  0  0  0  0  0
  144.8459  132.7419  150.7282 C   0  0  0  0  0  0  0  0  0  0  0  0
  145.7682  132.0805  149.6849 C   0  0  0  0  0  0  0  0  0  0  0  0
  147.1077  132.5220  149.7865 O   0  0  0  0  0  0  0  0  0  0  0  0
  143.4893  132.0160  150.6649 C   0  0  0  0  0  0  0  0  0  0  0  0
  142.9092  132.1056  149.3792 O   0  0  0  0  0  0  0  0  0  0  0  0
  144.7698  134.2872  150.7258 C   0  0  0  0  0  0  0  0  0  0  0  0
  147.5177  137.8195  155.9505 H   0  0  0  0  0  0  0  0  0  0  0  0
  148.7072  139.0978  156.1456 H   0  0  0  0  0  0  0  0  0  0  0  0
  148.9573  137.8491  154.9241 H   0  0  0  0  0  0  0  0  0  0  0  0
  148.6921  140.4442  153.1339 H   0  0  0  0  0  0  0  0  0  0  0  0
  147.3373  141.2678  153.8316 H   0  0  0  0  0  0  0  0  0  0  0  0
  149.8788  140.4528  155.3741 H   0  0  0  0  0  0  0  0  0  0  0  0
  149.0524  143.0580  155.0693 H   0  0  0  0  0  0  0  0  0  0  0  0
  147.2556  141.7254  156.2104 H   0  0  0  0  0  0  0  0  0  0  0  0
  148.1492  140.4862  157.0503 H   0  0  0  0  0  0  0  0  0  0  0  0
  147.1476  143.0690  158.2689 H   0  0  0  0  0  0  0  0  0  0  0  0
  148.0413  141.8412  159.1503 H   0  0  0  0  0  0  0  0  0  0  0  0
  148.8745  144.7826  158.7943 H   0  0  0  0  0  0  0  0  0  0  0  0
  148.3064  144.0371  160.2762 H   0  0  0  0  0  0  0  0  0  0  0  0
  151.0460  144.1261  157.9278 H   0  0  0  0  0  0  0  0  0  0  0  0
  151.9691  142.9274  158.8142 H   0  0  0  0  0  0  0  0  0  0  0  0
  150.3473  141.1481  158.2371 H   0  0  0  0  0  0  0  0  0  0  0  0
  150.9257  141.9222  156.7764 H   0  0  0  0  0  0  0  0  0  0  0  0
  146.2272  138.7969  150.2374 H   0  0  0  0  0  0  0  0  0  0  0  0
  145.5884  134.4684  154.9654 H   0  0  0  0  0  0  0  0  0  0  0  0
  143.7893  134.2149  152.6473 H   0  0  0  0  0  0  0  0  0  0  0  0
  146.5064  132.8902  152.1990 H   0  0  0  0  0  0  0  0  0  0  0  0
  145.0150  132.1700  152.8812 H   0  0  0  0  0  0  0  0  0  0  0  0
  145.7647  130.9961  149.7975 H   0  0  0  0  0  0  0  0  0  0  0  0
  145.4302  132.2922  148.6702 H   0  0  0  0  0  0  0  0  0  0  0  0
  147.6483  131.7874  150.0337 H   0  0  0  0  0  0  0  0  0  0  0  0
  143.5955  130.9633  150.9286 H   0  0  0  0  0  0  0  0  0  0  0  0
  142.7820  132.4391  151.3787 H   0  0  0  0  0  0  0  0  0  0  0  0
  142.4532  132.9307  149.3116 H   0  0  0  0  0  0  0  0  0  0  0  0
  143.8533  134.7016  150.3045 H   0  0  0  0  0  0  0  0  0  0  0  0
  145.6437  134.7657  150.2830 H   0  0  0  0  0  0  0  0  0  0  0  0
  148.9537  143.2739  156.7748 H   0  0  0  0  0  0  0  0  0  0  0  0
  1  2  1  0  0  0  0
  1 30  1  0  0  0  0
  1 31  1  0  0  0  0
  1 32  1  0  0  0  0
  2  3  1  0  0  0  0
  2 13  1  0  0  0  0
  3  4  1  0  0  0  0
  3 33  1  0  0  0  0
  3 34  1  0  0  0  0
  4  5  1  0  0  0  0
  4  6  1  0  0  0  0
  4 35  1  0  0  0  0
  5 36  1  0  0  0  0
  6  7  1  0  0  0  0
  6 37  1  0  0  0  0
  6 38  1  0  0  0  0
  7 12  1  0  0  0  0
  7  8  1  0  0  0  0
  7 60  1  0  0  0  0
  8  9  1  0  0  0  0
  8 39  1  0  0  0  0
  8 40  1  0  0  0  0
  9 10  1  0  0  0  0
  9 41  1  0  0  0  0
  9 42  1  0  0  0  0
 10 11  1  0  0  0  0
 11 12  1  0  0  0  0
 11 43  1  0  0  0  0
 11 44  1  0  0  0  0
 12 45  1  0  0  0  0
 12 46  1  0  0  0  0
 13 18  1  0  0  0  0
 13 14  2  0  0  0  0
 14 15  1  0  0  0  0
 15 16  2  0  0  0  0
 15 47  1  0  0  0  0
 16 17  1  0  0  0  0
 17 21  1  0  0  0  0
 17 18  2  0  0  0  0
 18 19  1  0  0  0  0
 19 20  2  0  0  0  0
 20 21  1  0  0  0  0
 20 48  1  0  0  0  0
 21 22  1  0  0  0  0
 22 29  1  0  0  0  0
 22 23  1  0  0  0  0
 22 49  1  0  0  0  0
 23 24  1  0  0  0  0
 23 50  1  0  0  0  0
 23 51  1  0  0  0  0
 24 25  1  0  0  0  0
 24 27  1  0  0  0  0
 24 29  1  0  0  0  0
 25 26  1  0  0  0  0
 25 52  1  0  0  0  0
 25 53  1  0  0  0  0
 26 54  1  0  0  0  0
 27 28  1  0  0  0  0
 27 55  1  0  0  0  0
 27 56  1  0  0  0  0
 28 57  1  0  0  0  0
 29 58  1  0  0  0  0
 29 59  1  0  0  0  0
M  CHG  1   7   1
M  END
> <s_m_source_file>
AV-unprocessed.smi

> <i_m_source_file_index>
228

> <i_lp_mmshare_version>
43012

> <i_f3d_flags>
0

> <s_epik_input>
W0NIMl0xW0NIMl1PW0NIMl1bQ0gyXU4xW0NIMl1bQ0BASF0oW09IXSlbQ0gyXU4oW0NIM10pYyhuW2NIXW4yKWMoYzIzKW5bY0hdbjNbQ0hdKFtDSDJdNClbQ0gyXUM0KFtDSDJdW09IXSlbQ0gyXVtPSF0=

> <s_epik_cmdline>
J2VwaWtfcHl0aG9uJywgJy1waCcsICc3LjAnLCAnLXRuJywgJzgnLCAnLW1hJywgJzIwMCcsICctbWV0YWxfYmluZGluZycsICctaW1hZScsICc8aW5maWxlLm1hZT4nLCAnLW9tYWUnLCAnPG91dGZpbGUubWFlPic=

> <r_lp_tautomer_probability>
1

> <r_epik_Ionization_Penalty>
0.403032

> <r_epik_Ionization_Penalty_Charging>
0.40072

> <r_epik_Ionization_Penalty_Neutral>
0.00231206

> <r_epik_State_Penalty>
0.387266

> <r_epik_Charging_Adjusted_Penalty>
0.787986

> <i_epik_Tot_Q>
1

> <i_epik_Tot_abs_Q>
1

> <r_epik_Metal_State_Penalty>
0.385845

> <b_epik_Metal_Only>
0

> <s_lp_Force_Field>
OPLS_2005

> <r_lp_Energy>
50.3724

> <b_lp_Chiralities_Consistent>
1

> <s_lp_Variant>
AV-unprocessed.smi:228-2

> <Gold.Version>
5.8.1

> <Gold.Id.Protein>
6NUR|6NUR_protein|mol2

> <Gold.PLP.Fitness>
54.6019

> <Gold.PLP.PLP>
-37.3728

> <Gold.PLP.part.hbond>
-9.7268

> <Gold.PLP.part.metal>
0.0000

> <Gold.PLP.part.buried>
-0.6696

> <Gold.PLP.part.nonpolar>
-31.0974

> <Gold.PLP.part.repulsive>
3.1358

> <Gold.PLP.ligand.clash>
0.0000

> <Gold.PLP.ligand.torsion>
1.2924

> <Gold.PLP.Chemscore.Hbond>
5.7779

> <Gold.PLP.Chemscore.CHOScore>
0.4269

> <Gold.PLP.Chemscore.Metal>
0.0000

> <Gold.Chemscore.Hbonds>
donor molecule, donor type, donor heavy atom, donor atom, acceptor molecule, acceptor atom, score
      L1  H     5    36       P1  8028  1.00
      L1  H     7    60       P1  8028  2.00
      L1  H    26    54       P1 10747  1.00
      L1  H    28    57       P1 10186  0.86
      P1  H  8011  8017       L1     5  0.02
      P1  H 10785 10796       L1    28  0.86
      L1  C    15    47       P1 10171  0.42

> <Gold.PLP.Chemscore.Internal.Correction>
1.1995

> <Gold.Rescore>
     Score         DG    S(hbond)    S(metal)    S(lipo)     H(rot)  DE(clash)    DE(int)     intcor
      9.96     -16.09       4.26        0.00      81.01       5.11       2.53       3.60       ----

> <Gold.Chemscore.Fitness>
9.9631

> <Gold.Chemscore.DG>
-16.0932

> <Gold.Chemscore.ZeroCoef>
-5.4800

> <Gold.Chemscore.Hbond>
4.2603

> <Gold.Chemscore.Metal>
0.0000

> <Gold.Chemscore.Lipo>
81.0090

> <Gold.Chemscore.Internal_Hbond>
0.0000

> <Gold.Chemscore.DEClash>
2.5338

> <Gold.Chemscore.DEInternal>
3.5963

> <Gold.Chemscore.Rot>
5.1149

> <Gold.Chemscore.Internal.Correction>
   9.000000E+99

> <Gold.Chemscore.Hbonds>
donor molecule, donor type, donor heavy atom, donor atom, acceptor molecule, acceptor atom, score
      L1  H     5    36       P1  8028  0.95
      L1  H     7    60       P1  8028  0.88
      L1  H    26    54       P1 10747  0.99
      L1  H    28    57       P1 10186  0.84
      P1  H  8011  8017       L1     5  0.02
      P1  H 10785 10796       L1    28  0.21

> <Gold.Chemscore.Hbond.Weighted>
-14.2293

> <Gold.Chemscore.Metal.Weighted>
-0.0000

> <Gold.Chemscore.Lipo.Weighted>
-9.4780

> <Gold.Chemscore.Internal_Hbond.Weighted>
0.0000

> <Gold.Chemscore.DEClash.Weighted>
2.5338

> <Gold.Chemscore.DEInternal.Weighted>
3.5963

> <Gold.Chemscore.Rot.Weighted>
13.0942

> <Gold.Chemscore.Internal.Correction.Weighted>
   9.000000E+99

> <Gold.Protein.RotatedTorsions>
[ 6907 6896 6895 6894 ] final  159.62 input  -60.11 | X-H torsion
[ 7974 7965 7964 7962 ] final  -79.38 input  175.53 | X-H torsion
[ 8008 7997 7996 7995 ] final  -88.77 input   59.86 | X-H torsion
[ 10167 10162 10161 10158 ] final -138.29 input  -65.29 | X-H torsion
[ 10718 10713 10712 10709 ] final  -96.70 input   66.30 | X-H torsion
[ 10763 10752 10751 10750 ] final  162.03 input  -60.55 | X-H torsion
[ 11005 11000 10999 10996 ] final  129.08 input  -57.11 | X-H torsion

> <Gold.Protein.ActiveResidues>
 VAL166  LYS551  ARG553  GLY616  TRP617  ASP618  TYR619  PRO620  LYS621  CYS622 
 ASP623  PHE694  ASN695  SER759  ASP760  ASP761  ALA762  ILE779  LEU786  VAL792 
 PHE793  MET794  SER795  GLU796  ALA797  LYS798  CYS799  TRP800  GLU811  SER814 

> <Gold.Protein.RotatedAtoms>
  151.9828  133.3764  159.4113 H   0  0  0  0  0  0  0  0  0  0  0  0  # atno 6907 bound_to 6896
  150.6932  134.4020  159.5132 H   0  0  0  0  0  0  0  0  0  0  0  0  # atno 6908 bound_to 6896
  152.1741  134.8809  160.0582 H   0  0  0  0  0  0  0  0  0  0  0  0  # atno 6909 bound_to 6896
  145.5740  140.9461  143.1380 H   0  0  0  0  0  0  0  0  0  0  0  0  # atno 7974 bound_to 7965
  154.6787  140.0549  157.0243 H   0  0  0  0  0  0  0  0  0  0  0  0  # atno 8008 bound_to 7997
  155.0982  140.3226  155.4535 H   0  0  0  0  0  0  0  0  0  0  0  0  # atno 8009 bound_to 7997
  156.2686  140.2036  156.6109 H   0  0  0  0  0  0  0  0  0  0  0  0  # atno 8010 bound_to 7997
  139.8493  143.7220  152.2659 H   0  0  0  0  0  0  0  0  0  0  0  0  # atno 10167 bound_to 10162
  156.0067  130.5162  150.6265 H   0  0  0  0  0  0  0  0  0  0  0  0  # atno 10718 bound_to 10713
  154.2721  135.2765  155.2733 H   0  0  0  0  0  0  0  0  0  0  0  0  # atno 10763 bound_to 10752
  154.5292  135.5734  153.6748 H   0  0  0  0  0  0  0  0  0  0  0  0  # atno 10764 bound_to 10752
  152.9943  135.6223  154.2876 H   0  0  0  0  0  0  0  0  0  0  0  0  # atno 10765 bound_to 10752
  139.9596  134.9605  156.9096 H   0  0  0  0  0  0  0  0  0  0  0  0  # atno 11005 bound_to 11000
  144.7424  139.7411  143.7305 LP  0  0  0  0  0  0  0  0  0  0  0  0  # atno 17320 bound_to 7965
  146.1764  139.4936  142.9895 LP  0  0  0  0  0  0  0  0  0  0  0  0  # atno 17321 bound_to 7965
  139.7481  144.7541  151.0548 LP  0  0  0  0  0  0  0  0  0  0  0  0  # atno 17342 bound_to 10162
  140.7789  143.4892  150.9916 LP  0  0  0  0  0  0  0  0  0  0  0  0  # atno 17343 bound_to 10162
  157.4071  131.0818  151.1255 LP  0  0  0  0  0  0  0  0  0  0  0  0  # atno 17370 bound_to 10713
  157.1899  130.6347  149.5701 LP  0  0  0  0  0  0  0  0  0  0  0  0  # atno 17371 bound_to 10713
  140.5531  134.0607  155.7375 LP  0  0  0  0  0  0  0  0  0  0  0  0  # atno 17394 bound_to 11000
  141.1271  133.9364  157.2612 LP  0  0  0  0  0  0  0  0  0  0  0  0  # atno 17395 bound_to 11000

$$$$
