AV-unprocessed.smi:1978|AV-procd|sdf|7999|dock2
  -GOLD-   2272010183D 1   1.00000     0.00000
 Structure written by MMmdl.
 45 46  0  0  0  0  0  0  0  0  2 V2000
  150.2805  141.9567  156.0635 C   0  0  0  0  0  0  0  0  0  0  0  0
  149.9798  140.7535  155.2371 C   0  0  0  0  0  0  0  0  0  0  0  0
  148.8243  140.2573  154.7017 C   0  0  0  0  0  0  0  0  0  0  0  0
  149.2610  139.0842  154.0309 C   0  0  0  0  0  0  0  0  0  0  0  0
  148.3420  138.2614  153.3311 N   0  0  0  0  0  0  0  0  0  0  0  0
  147.0065  138.3959  153.2692 C   0  0  0  0  0  0  0  0  0  0  0  0
  146.3530  139.2755  153.8309 O   0  0  0  0  0  0  0  0  0  0  0  0
  146.4535  137.4407  152.5075 N   0  0  0  0  0  0  0  0  0  0  0  0
  145.0222  137.3048  152.2501 C   0  0  0  0  0  0  0  0  0  0  0  0
  144.4399  135.9286  152.6899 C   0  0  1  0  0  0  0  0  0  0  0  0
  142.9256  136.0746  152.9830 C   0  0  0  0  0  0  0  0  0  0  0  0
  144.7066  134.8370  151.6878 N   0  3  2  0  0  0  0  0  0  0  0  0
  143.6838  133.7456  151.6991 C   0  0  0  0  0  0  0  0  0  0  0  0
  143.8747  132.7601  150.5342 C   0  0  0  0  0  0  0  0  0  0  0  0
  145.2808  132.1600  150.5356 C   0  0  0  0  0  0  0  0  0  0  0  0
  146.3119  133.2920  150.5236 C   0  0  0  0  0  0  0  0  0  0  0  0
  146.1037  134.2840  151.6874 C   0  0  2  0  0  0  0  0  0  0  0  0
  146.5262  133.6805  153.0460 C   0  0  0  0  0  0  0  0  0  0  0  0
  150.5643  138.8811  154.1474 N   0  0  0  0  0  0  0  0  0  0  0  0
  151.0319  139.9504  154.9208 O   0  0  0  0  0  0  0  0  0  0  0  0
  149.3653  142.4865  156.3281 H   0  0  0  0  0  0  0  0  0  0  0  0
  150.9256  142.6469  155.5195 H   0  0  0  0  0  0  0  0  0  0  0  0
  150.7870  141.6755  156.9870 H   0  0  0  0  0  0  0  0  0  0  0  0
  147.8294  140.6702  154.7786 H   0  0  0  0  0  0  0  0  0  0  0  0
  148.7459  137.4871  152.8253 H   0  0  0  0  0  0  0  0  0  0  0  0
  147.0617  136.7546  152.0844 H   0  0  0  0  0  0  0  0  0  0  0  0
  144.5066  138.1110  152.7728 H   0  0  0  0  0  0  0  0  0  0  0  0
  144.8862  137.4884  151.1851 H   0  0  0  0  0  0  0  0  0  0  0  0
  144.9230  135.6377  153.6234 H   0  0  0  0  0  0  0  0  0  0  0  0
  142.7104  136.9262  153.6271 H   0  0  0  0  0  0  0  0  0  0  0  0
  142.5184  135.2155  153.5134 H   0  0  0  0  0  0  0  0  0  0  0  0
  142.3553  136.2110  152.0638 H   0  0  0  0  0  0  0  0  0  0  0  0
  143.7105  133.2182  152.6531 H   0  0  0  0  0  0  0  0  0  0  0  0
  142.6779  134.1447  151.5957 H   0  0  0  0  0  0  0  0  0  0  0  0
  143.1317  131.9643  150.5950 H   0  0  0  0  0  0  0  0  0  0  0  0
  143.6980  133.2741  149.5881 H   0  0  0  0  0  0  0  0  0  0  0  0
  145.4193  131.5282  151.4135 H   0  0  0  0  0  0  0  0  0  0  0  0
  145.4168  131.5168  149.6657 H   0  0  0  0  0  0  0  0  0  0  0  0
  147.3204  132.8778  150.5553 H   0  0  0  0  0  0  0  0  0  0  0  0
  146.2380  133.8293  149.5770 H   0  0  0  0  0  0  0  0  0  0  0  0
  146.7937  135.0951  151.4635 H   0  0  0  0  0  0  0  0  0  0  0  0
  147.5459  133.2978  152.9963 H   0  0  0  0  0  0  0  0  0  0  0  0
  145.8861  132.8530  153.3500 H   0  0  0  0  0  0  0  0  0  0  0  0
  146.5080  134.4202  153.8457 H   0  0  0  0  0  0  0  0  0  0  0  0
  144.6066  135.2824  150.7869 H   0  0  0  0  0  0  0  0  0  0  0  0
  1  2  1  0  0  0  0
  1 21  1  0  0  0  0
  1 22  1  0  0  0  0
  1 23  1  0  0  0  0
  2 20  1  0  0  0  0
  2  3  2  0  0  0  0
  3  4  1  0  0  0  0
  3 24  1  0  0  0  0
  4  5  1  0  0  0  0
  4 19  2  0  0  0  0
  5  6  1  0  0  0  0
  5 25  1  0  0  0  0
  6  7  2  0  0  0  0
  6  8  1  0  0  0  0
  8  9  1  0  0  0  0
  8 26  1  0  0  0  0
  9 10  1  0  0  0  0
  9 27  1  0  0  0  0
  9 28  1  0  0  0  0
 10 11  1  0  0  0  0
 10 12  1  0  0  0  0
 10 29  1  0  0  0  0
 11 30  1  0  0  0  0
 11 31  1  0  0  0  0
 11 32  1  0  0  0  0
 12 17  1  0  0  0  0
 12 13  1  0  0  0  0
 12 45  1  0  0  0  0
 13 14  1  0  0  0  0
 13 33  1  0  0  0  0
 13 34  1  0  0  0  0
 14 15  1  0  0  0  0
 14 35  1  0  0  0  0
 14 36  1  0  0  0  0
 15 16  1  0  0  0  0
 15 37  1  0  0  0  0
 15 38  1  0  0  0  0
 16 17  1  0  0  0  0
 16 39  1  0  0  0  0
 16 40  1  0  0  0  0
 17 18  1  0  0  0  0
 17 41  1  0  0  0  0
 18 42  1  0  0  0  0
 18 43  1  0  0  0  0
 18 44  1  0  0  0  0
 19 20  1  0  0  0  0
M  CHG  1  12   1
M  END
> <s_m_source_file>
AV-unprocessed.smi

> <i_m_source_file_index>
1978

> <i_lp_mmshare_version>
43012

> <i_f3d_flags>
0

> <s_epik_input>
W0NIM11jMVtjSF1jKG5vMSlbTkhdQyg9TylbTkhdW0NIMl1bQ0BIXShbQ0gzXSlOMltDSDJdW0NIMl1bQ0gyXVtDSDJdW0NASF0yW0NIM10=

> <s_epik_cmdline>
J2VwaWtfcHl0aG9uJywgJy1waCcsICc3LjAnLCAnLXRuJywgJzgnLCAnLW1hJywgJzIwMCcsICctbWV0YWxfYmluZGluZycsICctaW1hZScsICc8aW5maWxlLm1hZT4nLCAnLW9tYWUnLCAnPG91dGZpbGUubWFlPic=

> <r_epik_Ionization_Penalty>
0.00265971

> <r_epik_Ionization_Penalty_Charging>
0.00262393

> <r_epik_Ionization_Penalty_Neutral>
3.57846e-05

> <r_epik_State_Penalty>
0.00182566

> <r_epik_Charging_Adjusted_Penalty>
0.00444959

> <i_epik_Tot_Q>
1

> <i_epik_Tot_abs_Q>
1

> <r_epik_Metal_State_Penalty>
0.0216344

> <b_epik_Metal_Only>
0

> <s_lp_Force_Field>
OPLS_2005

> <r_lp_Energy>
22.4222

> <b_lp_Chiralities_Consistent>
1

> <s_lp_Variant>
AV-unprocessed.smi:1978-8

> <Gold.Version>
5.8.1

> <Gold.Id.Protein>
6NUR|6NUR_protein|mol2

> <Gold.PLP.Fitness>
39.0348

> <Gold.PLP.PLP>
-32.7229

> <Gold.PLP.part.hbond>
-4.0006

> <Gold.PLP.part.metal>
0.0000

> <Gold.PLP.part.buried>
-2.6368

> <Gold.PLP.part.nonpolar>
-26.6724

> <Gold.PLP.part.repulsive>
0.4993

> <Gold.PLP.ligand.clash>
0.0000

> <Gold.PLP.ligand.torsion>
0.7764

> <Gold.PLP.Chemscore.Hbond>
2.5925

> <Gold.PLP.Chemscore.CHOScore>
0.0000

> <Gold.PLP.Chemscore.Metal>
0.0000

> <Gold.Chemscore.Hbonds>
donor molecule, donor type, donor heavy atom, donor atom, acceptor molecule, acceptor atom, score
      L1  H     5    25       P1  7948  1.00
      L1  H     8    26       P1  7948  0.88
      P1  H  7989  7998       L1    20  0.63

> <Gold.PLP.Chemscore.Internal.Correction>
0.0872

> <Gold.Rescore>
     Score         DG    S(hbond)    S(metal)    S(lipo)     H(rot)  DE(clash)    DE(int)     intcor
     14.17     -16.50       1.92        0.00      73.12       1.55       0.13       2.20       ----

> <Gold.Chemscore.Fitness>
14.1721

> <Gold.Chemscore.DG>
-16.5018

> <Gold.Chemscore.ZeroCoef>
-5.4800

> <Gold.Chemscore.Hbond>
1.9247

> <Gold.Chemscore.Metal>
0.0000

> <Gold.Chemscore.Lipo>
73.1151

> <Gold.Chemscore.Internal_Hbond>
0.0000

> <Gold.Chemscore.DEClash>
0.1318

> <Gold.Chemscore.DEInternal>
2.1980

> <Gold.Chemscore.Rot>
1.5474

> <Gold.Chemscore.Internal.Correction>
   9.000000E+99

> <Gold.Chemscore.Hbonds>
donor molecule, donor type, donor heavy atom, donor atom, acceptor molecule, acceptor atom, score
      L1  H     5    25       P1  7948  0.97
      L1  H     8    26       P1  7948  0.85
      P1  H  7989  7998       L1    20  0.01

> <Gold.Chemscore.Hbond.Weighted>
-6.4286

> <Gold.Chemscore.Metal.Weighted>
-0.0000

> <Gold.Chemscore.Lipo.Weighted>
-8.5545

> <Gold.Chemscore.Internal_Hbond.Weighted>
0.0000

> <Gold.Chemscore.DEClash.Weighted>
0.1318

> <Gold.Chemscore.DEInternal.Weighted>
2.1980

> <Gold.Chemscore.Rot.Weighted>
3.9612

> <Gold.Chemscore.Internal.Correction.Weighted>
   9.000000E+99

> <Gold.Protein.RotatedTorsions>
[ 6907 6896 6895 6894 ] final  109.63 input  -60.11 | X-H torsion
[ 7974 7965 7964 7962 ] final -112.75 input  175.53 | X-H torsion
[ 8008 7997 7996 7995 ] final   13.64 input   59.86 | X-H torsion
[ 10167 10162 10161 10158 ] final -173.71 input  -65.29 | X-H torsion
[ 10718 10713 10712 10709 ] final -121.17 input   66.30 | X-H torsion
[ 10763 10752 10751 10750 ] final   53.43 input  -60.55 | X-H torsion
[ 11005 11000 10999 10996 ] final  134.47 input  -57.11 | X-H torsion

> <Gold.Protein.ActiveResidues>
 VAL166  LYS551  ARG553  GLY616  TRP617  ASP618  TYR619  PRO620  LYS621  CYS622 
 ASP623  PHE694  ASN695  SER759  ASP760  ASP761  ALA762  ILE779  LEU786  VAL792 
 PHE793  MET794  SER795  GLU796  ALA797  LYS798  CYS799  TRP800  GLU811  SER814 

> <Gold.Protein.RotatedAtoms>
  152.5058  133.8917  159.7396 H   0  0  0  0  0  0  0  0  0  0  0  0  # atno 6907 bound_to 6896
  150.9354  133.6709  159.2808 H   0  0  0  0  0  0  0  0  0  0  0  0  # atno 6908 bound_to 6896
  151.4039  135.0980  159.9617 H   0  0  0  0  0  0  0  0  0  0  0  0  # atno 6909 bound_to 6896
  145.1403  140.8774  143.3706 H   0  0  0  0  0  0  0  0  0  0  0  0  # atno 7974 bound_to 7965
  154.8372  140.2909  155.5683 H   0  0  0  0  0  0  0  0  0  0  0  0  # atno 8008 bound_to 7997
  156.3009  140.2521  156.3240 H   0  0  0  0  0  0  0  0  0  0  0  0  # atno 8009 bound_to 7997
  154.9165  140.0387  157.1964 H   0  0  0  0  0  0  0  0  0  0  0  0  # atno 8010 bound_to 7997
  139.5673  144.1724  152.1332 H   0  0  0  0  0  0  0  0  0  0  0  0  # atno 10167 bound_to 10162
  156.1316  130.6399  150.9630 H   0  0  0  0  0  0  0  0  0  0  0  0  # atno 10718 bound_to 10713
  152.9795  135.5779  154.4741 H   0  0  0  0  0  0  0  0  0  0  0  0  # atno 10763 bound_to 10752
  154.4299  135.2773  155.1921 H   0  0  0  0  0  0  0  0  0  0  0  0  # atno 10764 bound_to 10752
  154.3634  135.6183  153.5756 H   0  0  0  0  0  0  0  0  0  0  0  0  # atno 10765 bound_to 10752
  139.9917  134.9512  156.9871 H   0  0  0  0  0  0  0  0  0  0  0  0  # atno 11005 bound_to 11000
  145.0540  139.3159  143.5914 LP  0  0  0  0  0  0  0  0  0  0  0  0  # atno 17320 bound_to 7965
  146.3506  139.9958  142.8681 LP  0  0  0  0  0  0  0  0  0  0  0  0  # atno 17321 bound_to 7965
  140.1250  144.5339  150.6839 LP  0  0  0  0  0  0  0  0  0  0  0  0  # atno 17342 bound_to 10162
  140.6957  143.2402  151.5007 LP  0  0  0  0  0  0  0  0  0  0  0  0  # atno 17343 bound_to 10162
  157.6493  131.0899  150.8085 LP  0  0  0  0  0  0  0  0  0  0  0  0  # atno 17370 bound_to 10713
  156.8169  130.4971  149.5348 LP  0  0  0  0  0  0  0  0  0  0  0  0  # atno 17371 bound_to 10713
  140.4896  134.1207  155.7230 LP  0  0  0  0  0  0  0  0  0  0  0  0  # atno 17394 bound_to 11000
  141.1571  133.8862  157.1948 LP  0  0  0  0  0  0  0  0  0  0  0  0  # atno 17395 bound_to 11000

$$$$
