AV-unprocessed.smi:447|AV-procd|sdf|2597|dock5
  -GOLD-   2262022593D 1   1.00000     0.00000
 Structure written by MMmdl.
 45 47  0  0  0  0  0  0  0  0  1 V2000
  144.4757  138.3001  154.3521 C   0  0  0  0  0  0  0  0  0  0  0  0
  145.6231  139.0664  155.0010 C   0  0  0  0  0  0  0  0  0  0  0  0
  146.2518  138.5635  155.9311 O   0  0  0  0  0  0  0  0  0  0  0  0
  145.8828  140.2823  154.4963 N   0  0  0  0  0  0  0  0  0  0  0  0
  146.9433  141.1847  154.9464 C   0  0  2  0  0  0  0  0  0  0  0  0
  146.9606  142.4383  154.0615 C   0  0  0  0  0  0  0  0  0  0  0  0
  148.2680  140.4593  154.9161 C   0  0  0  0  0  0  0  0  0  0  0  0
  148.4446  139.3130  154.2508 N   0  0  0  0  0  0  0  0  0  0  0  0
  149.7748  139.0247  154.4767 C   0  0  0  0  0  0  0  0  0  0  0  0
  150.5634  137.9321  154.0502 C   0  0  0  0  0  0  0  0  0  0  0  0
  151.9255  137.8530  154.4072 C   0  0  0  0  0  0  0  0  0  0  0  0
  152.5174  138.8639  155.1919 C   0  0  0  0  0  0  0  0  0  0  0  0
  151.7492  139.9618  155.6252 C   0  0  0  0  0  0  0  0  0  0  0  0
  150.3893  140.0340  155.2685 C   0  0  0  0  0  0  0  0  0  0  0  0
  149.3792  140.9563  155.5217 N   0  0  0  0  0  0  0  0  0  0  0  0
  149.5355  142.1930  156.2779 C   0  0  0  0  0  0  0  0  0  0  0  0
  149.8813  141.9484  157.7601 C   0  0  2  0  0  0  0  0  0  0  0  0
  148.6994  141.7490  158.5093 O   0  0  0  0  0  0  0  0  0  0  0  0
  150.7314  143.0781  158.3197 C   0  0  0  0  0  0  0  0  0  0  0  0
  150.2426  143.8705  159.3808 C   0  0  0  0  0  0  0  0  0  0  0  0
  151.0290  144.9135  159.9084 C   0  0  0  0  0  0  0  0  0  0  0  0
  152.3088  145.1685  159.3794 C   0  0  0  0  0  0  0  0  0  0  0  0
  152.8034  144.3787  158.3239 C   0  0  0  0  0  0  0  0  0  0  0  0
  152.0178  143.3356  157.7963 C   0  0  0  0  0  0  0  0  0  0  0  0
  144.5885  138.2862  153.2675 H   0  0  0  0  0  0  0  0  0  0  0  0
  143.5215  138.7683  154.5959 H   0  0  0  0  0  0  0  0  0  0  0  0
  144.4505  137.2683  154.7047 H   0  0  0  0  0  0  0  0  0  0  0  0
  145.3153  140.6028  153.7254 H   0  0  0  0  0  0  0  0  0  0  0  0
  146.7140  141.4873  155.9684 H   0  0  0  0  0  0  0  0  0  0  0  0
  147.7287  143.1389  154.3900 H   0  0  0  0  0  0  0  0  0  0  0  0
  146.0031  142.9584  154.0989 H   0  0  0  0  0  0  0  0  0  0  0  0
  147.1648  142.1871  153.0200 H   0  0  0  0  0  0  0  0  0  0  0  0
  150.1191  137.1537  153.4478 H   0  0  0  0  0  0  0  0  0  0  0  0
  152.5188  137.0133  154.0762 H   0  0  0  0  0  0  0  0  0  0  0  0
  153.5615  138.7963  155.4603 H   0  0  0  0  0  0  0  0  0  0  0  0
  152.1993  140.7382  156.2257 H   0  0  0  0  0  0  0  0  0  0  0  0
  150.3320  142.7718  155.8084 H   0  0  0  0  0  0  0  0  0  0  0  0
  148.6370  142.8015  156.1825 H   0  0  0  0  0  0  0  0  0  0  0  0
  150.4528  141.0225  157.8374 H   0  0  0  0  0  0  0  0  0  0  0  0
  148.1451  142.5071  158.4045 H   0  0  0  0  0  0  0  0  0  0  0  0
  149.2631  143.6810  159.7949 H   0  0  0  0  0  0  0  0  0  0  0  0
  150.6505  145.5175  160.7200 H   0  0  0  0  0  0  0  0  0  0  0  0
  152.9119  145.9680  159.7842 H   0  0  0  0  0  0  0  0  0  0  0  0
  153.7861  144.5720  157.9193 H   0  0  0  0  0  0  0  0  0  0  0  0
  152.4072  142.7320  156.9892 H   0  0  0  0  0  0  0  0  0  0  0  0
  1  2  1  0  0  0  0
  1 25  1  0  0  0  0
  1 26  1  0  0  0  0
  1 27  1  0  0  0  0
  2  3  2  0  0  0  0
  2  4  1  0  0  0  0
  4  5  1  0  0  0  0
  4 28  1  0  0  0  0
  5  6  1  0  0  0  0
  5  7  1  0  0  0  0
  5 29  1  0  0  0  0
  6 30  1  0  0  0  0
  6 31  1  0  0  0  0
  6 32  1  0  0  0  0
  7 15  1  0  0  0  0
  7  8  2  0  0  0  0
  8  9  1  0  0  0  0
  9 14  2  0  0  0  0
  9 10  1  0  0  0  0
 10 11  2  0  0  0  0
 10 33  1  0  0  0  0
 11 12  1  0  0  0  0
 11 34  1  0  0  0  0
 12 13  2  0  0  0  0
 12 35  1  0  0  0  0
 13 14  1  0  0  0  0
 13 36  1  0  0  0  0
 14 15  1  0  0  0  0
 15 16  1  0  0  0  0
 16 17  1  0  0  0  0
 16 37  1  0  0  0  0
 16 38  1  0  0  0  0
 17 18  1  0  0  0  0
 17 19  1  0  0  0  0
 17 39  1  0  0  0  0
 18 40  1  0  0  0  0
 19 24  1  0  0  0  0
 19 20  2  0  0  0  0
 20 21  1  0  0  0  0
 20 41  1  0  0  0  0
 21 22  2  0  0  0  0
 21 42  1  0  0  0  0
 22 23  1  0  0  0  0
 22 43  1  0  0  0  0
 23 24  2  0  0  0  0
 23 44  1  0  0  0  0
 24 45  1  0  0  0  0
M  END
> <s_m_source_file>
AV-unprocessed.smi

> <i_m_source_file_index>
447

> <i_lp_mmshare_version>
43012

> <i_f3d_flags>
0

> <s_epik_input>
W0NIM11DKD1PKVtOSF1bQ0BIXShbQ0gzXSljKG4xKW4oYyhjMTIpW2NIXVtjSF1bY0hdW2NIXTIpW0NIMl1bQ0BIXShbT0hdKWMzW2NIXVtjSF1bY0hdW2NIXVtjSF0z

> <s_epik_cmdline>
J2VwaWtfcHl0aG9uJywgJy1waCcsICc3LjAnLCAnLXRuJywgJzgnLCAnLW1hJywgJzIwMCcsICctbWV0YWxfYmluZGluZycsICctaW1hZScsICc8aW5maWxlLm1hZT4nLCAnLW9tYWUnLCAnPG91dGZpbGUubWFlPic=

> <r_epik_Ionization_Penalty>
0.13301

> <r_epik_Ionization_Penalty_Charging>
0

> <r_epik_Ionization_Penalty_Neutral>
0.13301

> <r_epik_State_Penalty>
0.122384

> <r_epik_Charging_Adjusted_Penalty>
0.122384

> <i_epik_Tot_Q>
0

> <i_epik_Tot_abs_Q>
0

> <r_epik_Metal_State_Penalty>
0.0997374

> <b_epik_Metal_Only>
0

> <s_lp_Force_Field>
OPLS_2005

> <r_lp_Energy>
7.61604

> <b_lp_Chiralities_Consistent>
1

> <s_lp_Variant>
AV-unprocessed.smi:447-1

> <Gold.Version>
5.8.1

> <Gold.Id.Protein>
6NUR|6NUR_protein|mol2

> <Gold.PLP.Fitness>
48.2383

> <Gold.PLP.PLP>
-46.7057

> <Gold.PLP.part.hbond>
-1.4645

> <Gold.PLP.part.metal>
0.0000

> <Gold.PLP.part.buried>
0.0351

> <Gold.PLP.part.nonpolar>
-45.6576

> <Gold.PLP.part.repulsive>
0.1463

> <Gold.PLP.ligand.clash>
0.0000

> <Gold.PLP.ligand.torsion>
0.7597

> <Gold.PLP.Chemscore.Hbond>
1.0000

> <Gold.PLP.Chemscore.CHOScore>
0.0000

> <Gold.PLP.Chemscore.Metal>
0.0000

> <Gold.Chemscore.Hbonds>
donor molecule, donor type, donor heavy atom, donor atom, acceptor molecule, acceptor atom, score
      L1  H     4    28       P1 10175  0.94

> <Gold.PLP.Chemscore.Internal.Correction>
0.0519

> <Gold.Rescore>
     Score         DG    S(hbond)    S(metal)    S(lipo)     H(rot)  DE(clash)    DE(int)     intcor
     15.78     -18.06       0.93        0.00     132.39       2.35       1.53       0.75       ----

> <Gold.Chemscore.Fitness>
15.7783

> <Gold.Chemscore.DG>
-18.0562

> <Gold.Chemscore.ZeroCoef>
-5.4800

> <Gold.Chemscore.Hbond>
0.9312

> <Gold.Chemscore.Metal>
0.0000

> <Gold.Chemscore.Lipo>
132.3854

> <Gold.Chemscore.Internal_Hbond>
0.0000

> <Gold.Chemscore.DEClash>
1.5310

> <Gold.Chemscore.DEInternal>
0.7469

> <Gold.Chemscore.Rot>
2.3528

> <Gold.Chemscore.Internal.Correction>
   9.000000E+99

> <Gold.Chemscore.Hbonds>
donor molecule, donor type, donor heavy atom, donor atom, acceptor molecule, acceptor atom, score
      L1  H     4    28       P1 10175  0.85

> <Gold.Chemscore.Hbond.Weighted>
-3.1103

> <Gold.Chemscore.Metal.Weighted>
-0.0000

> <Gold.Chemscore.Lipo.Weighted>
-15.4891

> <Gold.Chemscore.Internal_Hbond.Weighted>
0.0000

> <Gold.Chemscore.DEClash.Weighted>
1.5310

> <Gold.Chemscore.DEInternal.Weighted>
0.7469

> <Gold.Chemscore.Rot.Weighted>
6.0231

> <Gold.Chemscore.Internal.Correction.Weighted>
   9.000000E+99

> <Gold.Protein.RotatedTorsions>
[ 6907 6896 6895 6894 ] final  -73.31 input  -60.11 | X-H torsion
[ 7974 7965 7964 7962 ] final  -36.86 input  175.53 | X-H torsion
[ 8008 7997 7996 7995 ] final   39.19 input   59.86 | X-H torsion
[ 10167 10162 10161 10158 ] final   36.52 input  -65.29 | X-H torsion
[ 10718 10713 10712 10709 ] final   31.76 input   66.30 | X-H torsion
[ 10763 10752 10751 10750 ] final  -60.04 input  -60.55 | X-H torsion
[ 11005 11000 10999 10996 ] final -125.01 input  -57.11 | X-H torsion

> <Gold.Protein.ActiveResidues>
 VAL166  LYS551  ARG553  GLY616  TRP617  ASP618  TYR619  PRO620  LYS621  CYS622 
 ASP623  PHE694  ASN695  SER759  ASP760  ASP761  ALA762  ILE779  LEU786  VAL792 
 PHE793  MET794  SER795  GLU796  ALA797  LYS798  CYS799  TRP800  GLU811  SER814 

> <Gold.Protein.RotatedAtoms>
  150.7135  134.5035  159.5572 H   0  0  0  0  0  0  0  0  0  0  0  0  # atno 6907 bound_to 6896
  152.2627  134.8014  160.0437 H   0  0  0  0  0  0  0  0  0  0  0  0  # atno 6908 bound_to 6896
  151.8722  133.3443  159.3775 H   0  0  0  0  0  0  0  0  0  0  0  0  # atno 6909 bound_to 6896
  146.0625  140.6328  142.8990 H   0  0  0  0  0  0  0  0  0  0  0  0  # atno 7974 bound_to 7965
  155.2326  140.3339  155.4301 H   0  0  0  0  0  0  0  0  0  0  0  0  # atno 8008 bound_to 7997
  156.2289  140.1841  156.7339 H   0  0  0  0  0  0  0  0  0  0  0  0  # atno 8009 bound_to 7997
  154.5944  140.0633  156.9269 H   0  0  0  0  0  0  0  0  0  0  0  0  # atno 8010 bound_to 7997
  140.4119  144.1580  150.6140 H   0  0  0  0  0  0  0  0  0  0  0  0  # atno 10167 bound_to 10162
  157.2766  130.7234  149.6533 H   0  0  0  0  0  0  0  0  0  0  0  0  # atno 10718 bound_to 10713
  154.2630  135.6304  153.5281 H   0  0  0  0  0  0  0  0  0  0  0  0  # atno 10763 bound_to 10752
  152.9892  135.5592  154.5684 H   0  0  0  0  0  0  0  0  0  0  0  0  # atno 10764 bound_to 10752
  154.5237  135.2884  155.1216 H   0  0  0  0  0  0  0  0  0  0  0  0  # atno 10765 bound_to 10752
  140.9796  134.0692  157.3780 H   0  0  0  0  0  0  0  0  0  0  0  0  # atno 11005 bound_to 11000
  144.7183  140.4286  143.7027 LP  0  0  0  0  0  0  0  0  0  0  0  0  # atno 17320 bound_to 7965
  145.6535  139.1569  143.2848 LP  0  0  0  0  0  0  0  0  0  0  0  0  # atno 17321 bound_to 7965
  140.4628  143.2442  151.9196 LP  0  0  0  0  0  0  0  0  0  0  0  0  # atno 17342 bound_to 10162
  139.4782  144.5450  151.8472 LP  0  0  0  0  0  0  0  0  0  0  0  0  # atno 17343 bound_to 10162
  155.9664  130.4351  150.5077 LP  0  0  0  0  0  0  0  0  0  0  0  0  # atno 17370 bound_to 10713
  157.3012  131.0645  151.2067 LP  0  0  0  0  0  0  0  0  0  0  0  0  # atno 17371 bound_to 10713
  139.8944  135.0136  156.6951 LP  0  0  0  0  0  0  0  0  0  0  0  0  # atno 17394 bound_to 11000
  140.7207  133.9143  155.8145 LP  0  0  0  0  0  0  0  0  0  0  0  0  # atno 17395 bound_to 11000

$$$$
