AV-unprocessed.smi:249|AV-procd|sdf|1899|dock1
  -GOLD-   2262020573D 1   1.00000     0.00000
 Structure written by MMmdl.
 64 67  0  0  0  0  0  0  0  0  2 V2000
  143.6675  132.2125  149.9754 C   0  0  0  0  0  0  0  0  0  0  0  0
  144.3831  132.0329  151.3228 C   0  0  0  0  0  0  0  0  0  0  0  0
  145.8404  132.3546  151.2630 N   0  3  1  0  0  0  0  0  0  0  0  0
  146.1395  133.7738  150.9219 C   0  0  0  0  0  0  0  0  0  0  0  0
  145.8102  134.7239  152.0885 C   0  0  0  0  0  0  0  0  0  0  0  0
  146.5631  134.3135  153.3743 C   0  0  1  0  0  0  0  0  0  0  0  0
  146.3006  135.1978  154.5192 N   0  0  0  0  0  0  0  0  0  0  0  0
  144.9825  135.1268  155.1384 C   0  0  0  0  0  0  0  0  0  0  0  0
  146.8138  136.4496  154.4598 C   0  0  0  0  0  0  0  0  0  0  0  0
  145.9899  137.4434  154.0428 N   0  0  0  0  0  0  0  0  0  0  0  0
  146.4279  138.7051  154.0047 C   0  0  0  0  0  0  0  0  0  0  0  0
  147.6265  139.1824  154.3451 N   0  0  0  0  0  0  0  0  0  0  0  0
  148.4613  138.1841  154.7529 C   0  0  0  0  0  0  0  0  0  0  0  0
  148.1465  136.7981  154.8210 C   0  0  0  0  0  0  0  0  0  0  0  0
  149.2521  136.0834  155.2681 N   0  0  0  0  0  0  0  0  0  0  0  0
  150.1621  136.9959  155.4705 C   0  0  0  0  0  0  0  0  0  0  0  0
  149.7586  138.2887  155.2231 N   0  0  0  0  0  0  0  0  0  0  0  0
  150.5527  139.4906  155.3975 C   0  0  0  0  0  0  0  0  0  0  0  0
  149.9734  140.5162  156.4138 C   0  0  2  0  0  0  0  0  0  0  0  0
  148.7800  141.2521  155.7563 C   0  0  0  0  0  0  0  0  0  0  0  0
  149.1862  141.9749  154.6122 O   0  0  0  0  0  0  0  0  0  0  0  0
  151.0311  141.5236  156.9641 C   0  0  2  0  0  0  0  0  0  0  0  0
  152.1077  140.9423  157.8739 C   0  0  0  0  0  0  0  0  0  0  0  0
  152.6344  142.1621  158.6227 C   0  0  0  0  0  0  0  0  0  0  0  0
  151.5628  143.0935  158.6589 O   0  0  0  0  0  0  0  0  0  0  0  0
  150.4644  142.5920  157.9090 C   0  0  0  0  0  0  0  0  0  0  0  0
  146.3082  132.8194  153.6806 C   0  0  0  0  0  0  0  0  0  0  0  0
  146.6316  131.9351  152.4592 C   0  0  1  0  0  0  0  0  0  0  0  0
  146.5209  130.4324  152.7745 C   0  0  0  0  0  0  0  0  0  0  0  0
  142.6503  131.8240  150.0304 H   0  0  0  0  0  0  0  0  0  0  0  0
  144.1816  131.6741  149.1788 H   0  0  0  0  0  0  0  0  0  0  0  0
  143.5903  133.2599  149.6860 H   0  0  0  0  0  0  0  0  0  0  0  0
  143.8818  132.6201  152.0917 H   0  0  0  0  0  0  0  0  0  0  0  0
  144.2485  130.9902  151.6041 H   0  0  0  0  0  0  0  0  0  0  0  0
  147.2006  133.8545  150.6822 H   0  0  0  0  0  0  0  0  0  0  0  0
  145.6171  134.0835  150.0183 H   0  0  0  0  0  0  0  0  0  0  0  0
  146.0802  135.7444  151.8143 H   0  0  0  0  0  0  0  0  0  0  0  0
  144.7326  134.7280  152.2488 H   0  0  0  0  0  0  0  0  0  0  0  0
  147.6276  134.4191  153.1604 H   0  0  0  0  0  0  0  0  0  0  0  0
  144.9256  135.7775  156.0123 H   0  0  0  0  0  0  0  0  0  0  0  0
  144.7799  134.1082  155.4701 H   0  0  0  0  0  0  0  0  0  0  0  0
  144.1951  135.4177  154.4435 H   0  0  0  0  0  0  0  0  0  0  0  0
  145.7126  139.4388  153.6630 H   0  0  0  0  0  0  0  0  0  0  0  0
  151.1497  136.7516  155.8344 H   0  0  0  0  0  0  0  0  0  0  0  0
  151.5578  139.1975  155.7036 H   0  0  0  0  0  0  0  0  0  0  0  0
  150.6559  139.9443  154.4114 H   0  0  0  0  0  0  0  0  0  0  0  0
  149.5725  139.9676  157.2668 H   0  0  0  0  0  0  0  0  0  0  0  0
  148.0135  140.5555  155.4201 H   0  0  0  0  0  0  0  0  0  0  0  0
  148.3064  141.9327  156.4643 H   0  0  0  0  0  0  0  0  0  0  0  0
  149.1484  142.8981  154.8105 H   0  0  0  0  0  0  0  0  0  0  0  0
  151.5146  142.0308  156.1278 H   0  0  0  0  0  0  0  0  0  0  0  0
  151.6701  140.2338  158.5788 H   0  0  0  0  0  0  0  0  0  0  0  0
  152.9133  140.4401  157.3426 H   0  0  0  0  0  0  0  0  0  0  0  0
  152.9769  141.9135  159.6270 H   0  0  0  0  0  0  0  0  0  0  0  0
  153.4678  142.6131  158.0828 H   0  0  0  0  0  0  0  0  0  0  0  0
  149.9658  143.4029  157.3777 H   0  0  0  0  0  0  0  0  0  0  0  0
  149.7482  142.1512  158.6038 H   0  0  0  0  0  0  0  0  0  0  0  0
  146.9203  132.5032  154.5254 H   0  0  0  0  0  0  0  0  0  0  0  0
  145.2721  132.6587  153.9761 H   0  0  0  0  0  0  0  0  0  0  0  0
  147.6786  132.1054  152.2028 H   0  0  0  0  0  0  0  0  0  0  0  0
  147.2688  130.1407  153.5122 H   0  0  0  0  0  0  0  0  0  0  0  0
  146.6885  129.8266  151.8835 H   0  0  0  0  0  0  0  0  0  0  0  0
  145.5490  130.1675  153.1907 H   0  0  0  0  0  0  0  0  0  0  0  0
  146.1988  131.8049  150.4950 H   0  0  0  0  0  0  0  0  0  0  0  0
  1  2  1  0  0  0  0
  1 30  1  0  0  0  0
  1 31  1  0  0  0  0
  1 32  1  0  0  0  0
  2  3  1  0  0  0  0
  2 33  1  0  0  0  0
  2 34  1  0  0  0  0
  3 28  1  0  0  0  0
  3  4  1  0  0  0  0
  3 64  1  0  0  0  0
  4  5  1  0  0  0  0
  4 35  1  0  0  0  0
  4 36  1  0  0  0  0
  5  6  1  0  0  0  0
  5 37  1  0  0  0  0
  5 38  1  0  0  0  0
  6  7  1  0  0  0  0
  6 27  1  0  0  0  0
  6 39  1  0  0  0  0
  7  8  1  0  0  0  0
  7  9  1  0  0  0  0
  8 40  1  0  0  0  0
  8 41  1  0  0  0  0
  8 42  1  0  0  0  0
  9 14  1  0  0  0  0
  9 10  2  0  0  0  0
 10 11  1  0  0  0  0
 11 12  2  0  0  0  0
 11 43  1  0  0  0  0
 12 13  1  0  0  0  0
 13 17  1  0  0  0  0
 13 14  2  0  0  0  0
 14 15  1  0  0  0  0
 15 16  2  0  0  0  0
 16 17  1  0  0  0  0
 16 44  1  0  0  0  0
 17 18  1  0  0  0  0
 18 19  1  0  0  0  0
 18 45  1  0  0  0  0
 18 46  1  0  0  0  0
 19 20  1  0  0  0  0
 19 22  1  0  0  0  0
 19 47  1  0  0  0  0
 20 21  1  0  0  0  0
 20 48  1  0  0  0  0
 20 49  1  0  0  0  0
 21 50  1  0  0  0  0
 22 26  1  0  0  0  0
 22 23  1  0  0  0  0
 22 51  1  0  0  0  0
 23 24  1  0  0  0  0
 23 52  1  0  0  0  0
 23 53  1  0  0  0  0
 24 25  1  0  0  0  0
 24 54  1  0  0  0  0
 24 55  1  0  0  0  0
 25 26  1  0  0  0  0
 26 56  1  0  0  0  0
 26 57  1  0  0  0  0
 27 28  1  0  0  0  0
 27 58  1  0  0  0  0
 27 59  1  0  0  0  0
 28 29  1  0  0  0  0
 28 60  1  0  0  0  0
 29 61  1  0  0  0  0
 29 62  1  0  0  0  0
 29 63  1  0  0  0  0
M  CHG  1   3   1
M  END
> <s_m_source_file>
AV-unprocessed.smi

> <i_m_source_file_index>
249

> <i_lp_mmshare_version>
43012

> <i_f3d_flags>
0

> <s_epik_input>
W0NIM11bQ0gyXU4xW0NIMl1bQ0gyXVtDQEhdKFtDSDJdW0NASF0xW0NIM10pTihbQ0gzXSljKG5bY0hdbjIpYyhjMjMpbltjSF1uM1tDSDJdW0NASF0oW0NIMl1bT0hdKVtDQEBIXTRbQ0gyXVtDSDJdT1tDSDJdNA==

> <s_epik_cmdline>
J2VwaWtfcHl0aG9uJywgJy1waCcsICc3LjAnLCAnLXRuJywgJzgnLCAnLW1hJywgJzIwMCcsICctbWV0YWxfYmluZGluZycsICctaW1hZScsICc8aW5maWxlLm1hZT4nLCAnLW9tYWUnLCAnPG91dGZpbGUubWFlPic=

> <r_lp_tautomer_probability>
1

> <r_epik_Ionization_Penalty>
0.00294688

> <r_epik_Ionization_Penalty_Charging>
0.00169971

> <r_epik_Ionization_Penalty_Neutral>
0.00124717

> <r_epik_State_Penalty>
-0

> <r_epik_Charging_Adjusted_Penalty>
0.00169971

> <i_epik_Tot_Q>
1

> <i_epik_Tot_abs_Q>
1

> <r_epik_Metal_State_Penalty>
-0

> <b_epik_Metal_Only>
0

> <s_lp_Force_Field>
OPLS_2005

> <r_lp_Energy>
54.564

> <b_lp_Chiralities_Consistent>
1

> <s_lp_Variant>
AV-unprocessed.smi:249-2

> <Gold.Version>
5.8.1

> <Gold.Id.Protein>
6NUR|6NUR_protein|mol2

> <Gold.PLP.Fitness>
41.7096

> <Gold.PLP.PLP>
-36.0919

> <Gold.PLP.part.hbond>
-2.3304

> <Gold.PLP.part.metal>
0.0000

> <Gold.PLP.part.buried>
-5.0555

> <Gold.PLP.part.nonpolar>
-29.3306

> <Gold.PLP.part.repulsive>
0.5400

> <Gold.PLP.ligand.clash>
0.0000

> <Gold.PLP.ligand.torsion>
0.8977

> <Gold.PLP.Chemscore.Hbond>
1.0800

> <Gold.PLP.Chemscore.CHOScore>
1.0000

> <Gold.PLP.Chemscore.Metal>
0.0000

> <Gold.Chemscore.Hbonds>
donor molecule, donor type, donor heavy atom, donor atom, acceptor molecule, acceptor atom, score
      L1  H    21    50       P1  8028  1.00
      P1  H  8011  8017       L1    21  0.02
      L1  C    11    43       P1 10175  0.90

> <Gold.PLP.Chemscore.Internal.Correction>
1.1731

> <Gold.Rescore>
     Score         DG    S(hbond)    S(metal)    S(lipo)     H(rot)  DE(clash)    DE(int)     intcor
     14.34     -15.60       1.95        0.00      94.21       2.90       0.09       1.17       ----

> <Gold.Chemscore.Fitness>
14.3398

> <Gold.Chemscore.DG>
-15.5961

> <Gold.Chemscore.ZeroCoef>
-5.4800

> <Gold.Chemscore.Hbond>
1.9519

> <Gold.Chemscore.Metal>
0.0000

> <Gold.Chemscore.Lipo>
94.2088

> <Gold.Chemscore.Internal_Hbond>
0.0000

> <Gold.Chemscore.DEClash>
0.0910

> <Gold.Chemscore.DEInternal>
1.1653

> <Gold.Chemscore.Rot>
2.9006

> <Gold.Chemscore.Internal.Correction>
   9.000000E+99

> <Gold.Chemscore.Hbonds>
donor molecule, donor type, donor heavy atom, donor atom, acceptor molecule, acceptor atom, score
      L1  H    21    50       P1  8028  0.95

> <Gold.Chemscore.Hbond.Weighted>
-6.5193

> <Gold.Chemscore.Metal.Weighted>
-0.0000

> <Gold.Chemscore.Lipo.Weighted>
-11.0224

> <Gold.Chemscore.Internal_Hbond.Weighted>
0.0000

> <Gold.Chemscore.DEClash.Weighted>
0.0910

> <Gold.Chemscore.DEInternal.Weighted>
1.1653

> <Gold.Chemscore.Rot.Weighted>
7.4256

> <Gold.Chemscore.Internal.Correction.Weighted>
   9.000000E+99

> <Gold.Protein.RotatedTorsions>
[ 6907 6896 6895 6894 ] final   71.01 input  -60.11 | X-H torsion
[ 7974 7965 7964 7962 ] final -116.86 input  175.53 | X-H torsion
[ 8008 7997 7996 7995 ] final    2.08 input   59.86 | X-H torsion
[ 10167 10162 10161 10158 ] final  179.23 input  -65.29 | X-H torsion
[ 10718 10713 10712 10709 ] final  165.61 input   66.30 | X-H torsion
[ 10763 10752 10751 10750 ] final  168.02 input  -60.55 | X-H torsion
[ 11005 11000 10999 10996 ] final  -72.39 input  -57.11 | X-H torsion

> <Gold.Protein.ActiveResidues>
 VAL166  LYS551  ARG553  GLY616  TRP617  ASP618  TYR619  PRO620  LYS621  CYS622 
 ASP623  PHE694  ASN695  SER759  ASP760  ASP761  ALA762  ILE779  LEU786  VAL792 
 PHE793  MET794  SER795  GLU796  ALA797  LYS798  CYS799  TRP800  GLU811  SER814 

> <Gold.Protein.RotatedAtoms>
  152.4784  134.4783  159.9657 H   0  0  0  0  0  0  0  0  0  0  0  0  # atno 6907 bound_to 6896
  151.4794  133.3544  159.2844 H   0  0  0  0  0  0  0  0  0  0  0  0  # atno 6908 bound_to 6896
  150.8839  134.8260  159.7306 H   0  0  0  0  0  0  0  0  0  0  0  0  # atno 6909 bound_to 6896
  145.0919  140.8495  143.3977 H   0  0  0  0  0  0  0  0  0  0  0  0  # atno 7974 bound_to 7965
  154.6874  140.2646  155.6847 H   0  0  0  0  0  0  0  0  0  0  0  0  # atno 8008 bound_to 7997
  156.2719  140.2798  156.1363 H   0  0  0  0  0  0  0  0  0  0  0  0  # atno 8009 bound_to 7997
  155.0945  140.0374  157.2668 H   0  0  0  0  0  0  0  0  0  0  0  0  # atno 8010 bound_to 7997
  139.5327  144.2585  152.0726 H   0  0  0  0  0  0  0  0  0  0  0  0  # atno 10167 bound_to 10162
  157.0777  131.0383  151.2587 H   0  0  0  0  0  0  0  0  0  0  0  0  # atno 10718 bound_to 10713
  154.3624  135.2753  155.2312 H   0  0  0  0  0  0  0  0  0  0  0  0  # atno 10763 bound_to 10752
  154.4495  135.5934  153.6186 H   0  0  0  0  0  0  0  0  0  0  0  0  # atno 10764 bound_to 10752
  152.9843  135.6038  154.3846 H   0  0  0  0  0  0  0  0  0  0  0  0  # atno 10765 bound_to 10752
  141.1607  133.6845  156.7051 H   0  0  0  0  0  0  0  0  0  0  0  0  # atno 11005 bound_to 11000
  145.1056  139.2792  143.5664 LP  0  0  0  0  0  0  0  0  0  0  0  0  # atno 17320 bound_to 7965
  146.3531  140.0636  142.8627 LP  0  0  0  0  0  0  0  0  0  0  0  0  # atno 17321 bound_to 7965
  140.2051  144.4619  150.6412 LP  0  0  0  0  0  0  0  0  0  0  0  0  # atno 17342 bound_to 10162
  140.6516  143.2226  151.6064 LP  0  0  0  0  0  0  0  0  0  0  0  0  # atno 17343 bound_to 10162
  157.4826  130.7774  149.7429 LP  0  0  0  0  0  0  0  0  0  0  0  0  # atno 17370 bound_to 10713
  155.9932  130.3925  150.2908 LP  0  0  0  0  0  0  0  0  0  0  0  0  # atno 17371 bound_to 10713
  140.2929  134.8226  157.4032 LP  0  0  0  0  0  0  0  0  0  0  0  0  # atno 17394 bound_to 11000
  140.1330  134.5070  155.8090 LP  0  0  0  0  0  0  0  0  0  0  0  0  # atno 17395 bound_to 11000

$$$$
