AV-unprocessed.smi:2245|AV-procd|sdf|9081|dock10
  -GOLD-   2272012283D 1   1.00000     0.00000
 Structure written by MMmdl.
 45 46  0  0  0  0  0  0  0  0  2 V2000
  147.7184  141.5870  153.4793 C   0  0  0  0  0  0  0  0  0  0  0  0
  148.6287  140.6624  154.2602 C   0  0  0  0  0  0  0  0  0  0  0  0
  149.6173  141.1817  155.1172 C   0  0  0  0  0  0  0  0  0  0  0  0
  150.4381  140.2728  155.8134 C   0  0  0  0  0  0  0  0  0  0  0  0
  151.5191  140.7618  156.7542 C   0  0  0  0  0  0  0  0  0  0  0  0
  150.3186  138.9332  155.6957 N   0  0  0  0  0  0  0  0  0  0  0  0
  149.3699  138.4216  154.8729 C   0  0  0  0  0  0  0  0  0  0  0  0
  149.1650  137.0297  154.6776 N   0  0  0  0  0  0  0  0  0  0  0  0
  149.3328  136.0338  155.5654 C   0  0  0  0  0  0  0  0  0  0  0  0
  149.6849  136.1739  156.7369 O   0  0  0  0  0  0  0  0  0  0  0  0
  149.0702  134.8400  155.0138 N   0  0  0  0  0  0  0  0  0  0  0  0
  149.1477  133.5590  155.7095 C   0  0  0  0  0  0  0  0  0  0  0  0
  148.9295  132.3604  154.7646 C   0  0  1  0  0  0  0  0  0  0  0  0
  149.4642  131.0357  155.3054 C   0  0  0  0  0  0  0  0  0  0  0  0
  148.6604  129.9627  154.5585 C   0  0  0  0  0  0  0  0  0  0  0  0
  147.4928  130.6453  153.9492 N   0  3  1  0  0  0  0  0  0  0  0  0
  146.2007  129.9264  154.0619 C   0  0  0  0  0  0  0  0  0  0  0  0
  145.7309  129.3394  152.7192 C   0  0  0  0  0  0  0  0  0  0  0  0
  144.5723  128.7082  152.9026 F   0  0  0  0  0  0  0  0  0  0  0  0
  145.5495  130.3174  151.8319 F   0  0  0  0  0  0  0  0  0  0  0  0
  146.6152  128.4673  152.2365 F   0  0  0  0  0  0  0  0  0  0  0  0
  147.4663  132.0239  154.4770 C   0  0  0  0  0  0  0  0  0  0  0  0
  148.5060  139.2635  154.1371 C   0  0  0  0  0  0  0  0  0  0  0  0
  147.6457  142.5628  153.9605 H   0  0  0  0  0  0  0  0  0  0  0  0
  146.7139  141.1692  153.4079 H   0  0  0  0  0  0  0  0  0  0  0  0
  148.1049  141.7290  152.4698 H   0  0  0  0  0  0  0  0  0  0  0  0
  149.7429  142.2480  155.2374 H   0  0  0  0  0  0  0  0  0  0  0  0
  151.6628  141.8391  156.6648 H   0  0  0  0  0  0  0  0  0  0  0  0
  152.4686  140.2735  156.5323 H   0  0  0  0  0  0  0  0  0  0  0  0
  151.2499  140.5367  157.7864 H   0  0  0  0  0  0  0  0  0  0  0  0
  148.8608  136.7632  153.7531 H   0  0  0  0  0  0  0  0  0  0  0  0
  148.7796  134.8165  154.0473 H   0  0  0  0  0  0  0  0  0  0  0  0
  150.1134  133.4734  156.2106 H   0  0  0  0  0  0  0  0  0  0  0  0
  148.3926  133.5589  156.4961 H   0  0  0  0  0  0  0  0  0  0  0  0
  149.4271  132.5552  153.8129 H   0  0  0  0  0  0  0  0  0  0  0  0
  150.5400  130.9292  155.1620 H   0  0  0  0  0  0  0  0  0  0  0  0
  149.2644  130.9599  156.3754 H   0  0  0  0  0  0  0  0  0  0  0  0
  149.2546  129.5117  153.7633 H   0  0  0  0  0  0  0  0  0  0  0  0
  148.3638  129.1671  155.2430 H   0  0  0  0  0  0  0  0  0  0  0  0
  146.2669  129.1496  154.8254 H   0  0  0  0  0  0  0  0  0  0  0  0
  145.4463  130.6355  154.4063 H   0  0  0  0  0  0  0  0  0  0  0  0
  146.8867  132.0537  155.4016 H   0  0  0  0  0  0  0  0  0  0  0  0
  147.0082  132.7131  153.7667 H   0  0  0  0  0  0  0  0  0  0  0  0
  147.7551  138.8429  153.4838 H   0  0  0  0  0  0  0  0  0  0  0  0
  147.6988  130.7334  152.9640 H   0  0  0  0  0  0  0  0  0  0  0  0
  1  2  1  0  0  0  0
  1 24  1  0  0  0  0
  1 25  1  0  0  0  0
  1 26  1  0  0  0  0
  2 23  1  0  0  0  0
  2  3  2  0  0  0  0
  3  4  1  0  0  0  0
  3 27  1  0  0  0  0
  4  5  1  0  0  0  0
  4  6  2  0  0  0  0
  5 28  1  0  0  0  0
  5 29  1  0  0  0  0
  5 30  1  0  0  0  0
  6  7  1  0  0  0  0
  7  8  1  0  0  0  0
  7 23  2  0  0  0  0
  8  9  1  0  0  0  0
  8 31  1  0  0  0  0
  9 10  2  0  0  0  0
  9 11  1  0  0  0  0
 11 12  1  0  0  0  0
 11 32  1  0  0  0  0
 12 13  1  0  0  0  0
 12 33  1  0  0  0  0
 12 34  1  0  0  0  0
 13 22  1  0  0  0  0
 13 14  1  0  0  0  0
 13 35  1  0  0  0  0
 14 15  1  0  0  0  0
 14 36  1  0  0  0  0
 14 37  1  0  0  0  0
 15 16  1  0  0  0  0
 15 38  1  0  0  0  0
 15 39  1  0  0  0  0
 16 17  1  0  0  0  0
 16 22  1  0  0  0  0
 16 45  1  0  0  0  0
 17 18  1  0  0  0  0
 17 40  1  0  0  0  0
 17 41  1  0  0  0  0
 18 19  1  0  0  0  0
 18 20  1  0  0  0  0
 18 21  1  0  0  0  0
 22 42  1  0  0  0  0
 22 43  1  0  0  0  0
 23 44  1  0  0  0  0
M  CHG  1  16   1
M  END
> <s_m_source_file>
AV-unprocessed.smi

> <i_m_source_file_index>
2245

> <i_lp_mmshare_version>
43012

> <i_f3d_flags>
0

> <s_epik_input>
W0NIM11jMVtjSF1jKFtDSDNdKW5jKFtjSF0xKVtOSF1DKD1PKVtOSF1bQ0gyXVtDQEBIXTJbQ0gyXVtDSDJdTihbQ0gyXTIpW0NIMl1DKEYpKEYpRg==

> <s_epik_cmdline>
J2VwaWtfcHl0aG9uJywgJy1waCcsICc3LjAnLCAnLXRuJywgJzgnLCAnLW1hJywgJzIwMCcsICctbWV0YWxfYmluZGluZycsICctaW1hZScsICc8aW5maWxlLm1hZT4nLCAnLW9tYWUnLCAnPG91dGZpbGUubWFlPic=

> <r_epik_Ionization_Penalty>
0.628315

> <r_epik_Ionization_Penalty_Charging>
0.628113

> <r_epik_Ionization_Penalty_Neutral>
0.000202271

> <r_epik_State_Penalty>
0.644725

> <r_epik_Charging_Adjusted_Penalty>
1.27284

> <i_epik_Tot_Q>
1

> <i_epik_Tot_abs_Q>
1

> <r_epik_Metal_State_Penalty>
0.644752

> <b_epik_Metal_Only>
0

> <s_lp_Force_Field>
OPLS_2005

> <r_lp_Energy>
28.8991

> <b_lp_Chiralities_Consistent>
1

> <s_lp_Variant>
AV-unprocessed.smi:2245-6

> <Gold.Version>
5.8.1

> <Gold.Id.Protein>
6NUR|6NUR_protein|mol2

> <Gold.PLP.Fitness>
49.4905

> <Gold.PLP.PLP>
-42.8842

> <Gold.PLP.part.hbond>
-3.0000

> <Gold.PLP.part.metal>
0.0000

> <Gold.PLP.part.buried>
-2.9534

> <Gold.PLP.part.nonpolar>
-35.6688

> <Gold.PLP.part.repulsive>
0.0869

> <Gold.PLP.ligand.clash>
0.0000

> <Gold.PLP.ligand.torsion>
1.1530

> <Gold.PLP.Chemscore.Hbond>
2.8299

> <Gold.PLP.Chemscore.CHOScore>
0.0000

> <Gold.PLP.Chemscore.Metal>
0.0000

> <Gold.Chemscore.Hbonds>
donor molecule, donor type, donor heavy atom, donor atom, acceptor molecule, acceptor atom, score
      L1  H     8    31       P1  7948  1.00

> <Gold.PLP.Chemscore.Internal.Correction>
0.4226

> <Gold.Rescore>
     Score         DG    S(hbond)    S(metal)    S(lipo)     H(rot)  DE(clash)    DE(int)     intcor
     14.65     -16.95       1.93        0.00      78.23       1.61       0.23       2.07       ----

> <Gold.Chemscore.Fitness>
14.6509

> <Gold.Chemscore.DG>
-16.9518

> <Gold.Chemscore.ZeroCoef>
-5.4800

> <Gold.Chemscore.Hbond>
1.9314

> <Gold.Chemscore.Metal>
0.0000

> <Gold.Chemscore.Lipo>
78.2342

> <Gold.Chemscore.Internal_Hbond>
0.0000

> <Gold.Chemscore.DEClash>
0.2344

> <Gold.Chemscore.DEInternal>
2.0665

> <Gold.Chemscore.Rot>
1.6143

> <Gold.Chemscore.Internal.Correction>
   9.000000E+99

> <Gold.Chemscore.Hbonds>
donor molecule, donor type, donor heavy atom, donor atom, acceptor molecule, acceptor atom, score
      L1  H     8    31       P1  7948  0.98

> <Gold.Chemscore.Hbond.Weighted>
-6.4509

> <Gold.Chemscore.Metal.Weighted>
-0.0000

> <Gold.Chemscore.Lipo.Weighted>
-9.1534

> <Gold.Chemscore.Internal_Hbond.Weighted>
0.0000

> <Gold.Chemscore.DEClash.Weighted>
0.2344

> <Gold.Chemscore.DEInternal.Weighted>
2.0665

> <Gold.Chemscore.Rot.Weighted>
4.1325

> <Gold.Chemscore.Internal.Correction.Weighted>
   9.000000E+99

> <Gold.Protein.RotatedTorsions>
[ 6907 6896 6895 6894 ] final  154.81 input  -60.11 | X-H torsion
[ 7974 7965 7964 7962 ] final   76.72 input  175.53 | X-H torsion
[ 8008 7997 7996 7995 ] final  -21.71 input   59.86 | X-H torsion
[ 10167 10162 10161 10158 ] final  -10.14 input  -65.29 | X-H torsion
[ 10718 10713 10712 10709 ] final   92.35 input   66.30 | X-H torsion
[ 10763 10752 10751 10750 ] final  -98.20 input  -60.55 | X-H torsion
[ 11005 11000 10999 10996 ] final   56.95 input  -57.11 | X-H torsion

> <Gold.Protein.ActiveResidues>
 VAL166  LYS551  ARG553  GLY616  TRP617  ASP618  TYR619  PRO620  LYS621  CYS622 
 ASP623  PHE694  ASN695  SER759  ASP760  ASP761  ALA762  ILE779  LEU786  VAL792 
 PHE793  MET794  SER795  GLU796  ALA797  LYS798  CYS799  TRP800  GLU811  SER814 

> <Gold.Protein.RotatedAtoms>
  152.0531  133.4028  159.4385 H   0  0  0  0  0  0  0  0  0  0  0  0  # atno 6907 bound_to 6896
  150.6869  134.3285  159.4826 H   0  0  0  0  0  0  0  0  0  0  0  0  # atno 6908 bound_to 6896
  152.1097  134.9283  160.0617 H   0  0  0  0  0  0  0  0  0  0  0  0  # atno 6909 bound_to 6896
  145.6992  139.2577  143.1715 H   0  0  0  0  0  0  0  0  0  0  0  0  # atno 7974 bound_to 7965
  154.4689  140.2027  156.0046 H   0  0  0  0  0  0  0  0  0  0  0  0  # atno 8008 bound_to 7997
  156.0976  140.3249  155.7869 H   0  0  0  0  0  0  0  0  0  0  0  0  # atno 8009 bound_to 7997
  155.4852  140.0542  157.2952 H   0  0  0  0  0  0  0  0  0  0  0  0  # atno 8010 bound_to 7997
  140.7106  143.5780  150.9021 H   0  0  0  0  0  0  0  0  0  0  0  0  # atno 10167 bound_to 10162
  157.6959  131.0440  150.3869 H   0  0  0  0  0  0  0  0  0  0  0  0  # atno 10718 bound_to 10713
  154.7394  135.5018  153.9097 H   0  0  0  0  0  0  0  0  0  0  0  0  # atno 10763 bound_to 10752
  153.1028  135.6689  153.9650 H   0  0  0  0  0  0  0  0  0  0  0  0  # atno 10764 bound_to 10752
  153.9431  135.3065  155.3421 H   0  0  0  0  0  0  0  0  0  0  0  0  # atno 10765 bound_to 10752
  140.0489  134.5765  155.9288 H   0  0  0  0  0  0  0  0  0  0  0  0  # atno 11005 bound_to 11000
  146.0812  140.7761  142.9640 LP  0  0  0  0  0  0  0  0  0  0  0  0  # atno 17320 bound_to 7965
  144.6973  140.3492  143.7185 LP  0  0  0  0  0  0  0  0  0  0  0  0  # atno 17321 bound_to 7965
  139.9506  143.6276  152.3030 LP  0  0  0  0  0  0  0  0  0  0  0  0  # atno 17342 bound_to 10162
  139.6793  144.7656  151.1637 LP  0  0  0  0  0  0  0  0  0  0  0  0  # atno 17343 bound_to 10162
  156.4276  130.3965  149.6782 LP  0  0  0  0  0  0  0  0  0  0  0  0  # atno 17370 bound_to 10713
  156.4010  130.7675  151.2682 LP  0  0  0  0  0  0  0  0  0  0  0  0  # atno 17371 bound_to 10713
  141.1921  133.6574  156.5485 LP  0  0  0  0  0  0  0  0  0  0  0  0  # atno 17394 bound_to 11000
  140.3948  134.7408  157.4744 LP  0  0  0  0  0  0  0  0  0  0  0  0  # atno 17395 bound_to 11000

$$$$
