AV-unprocessed.smi:1667|AV-procd|sdf|6678|dock6
  -GOLD-   22720 7393D 1   1.00000     0.00000
 Structure written by MMmdl.
 46 48  0  0  0  0  0  0  0  0  2 V2000
  152.6927  137.2622  158.6833 C   0  0  0  0  0  0  0  0  0  0  0  0
  152.7641  137.1911  157.1620 C   0  0  0  0  0  0  0  0  0  0  0  0
  153.5910  136.4605  156.6174 O   0  0  0  0  0  0  0  0  0  0  0  0
  151.8901  137.9620  156.4932 N   0  0  0  0  0  0  0  0  0  0  0  0
  151.7614  138.0919  155.0419 C   0  0  2  0  0  0  0  0  0  0  0  0
  153.0541  138.6394  154.4066 C   0  0  0  0  0  0  0  0  0  0  0  0
  150.5400  138.8683  154.6291 C   0  0  0  0  0  0  0  0  0  0  0  0
  149.5671  138.4397  153.7733 N   0  3  0  0  0  0  0  0  0  0  0  0
  148.6003  139.4310  153.6144 C   0  0  0  0  0  0  0  0  0  0  0  0
  147.4323  139.4518  152.8584 C   0  0  0  0  0  0  0  0  0  0  0  0
  146.6586  140.6292  152.9224 C   0  0  0  0  0  0  0  0  0  0  0  0
  147.0554  141.7261  153.7147 C   0  0  0  0  0  0  0  0  0  0  0  0
  148.2431  141.6933  154.4750 C   0  0  0  0  0  0  0  0  0  0  0  0
  149.0035  140.5261  154.4039 C   0  0  0  0  0  0  0  0  0  0  0  0
  150.2122  140.1434  154.9970 N   0  0  0  0  0  0  0  0  0  0  0  0
  150.9021  141.0983  155.8808 C   0  0  0  0  0  0  0  0  0  0  0  0
  150.7568  140.7646  157.3810 C   0  0  2  0  0  0  0  0  0  0  0  0
  149.3939  140.7824  157.7551 O   0  0  0  0  0  0  0  0  0  0  0  0
  151.5959  141.7004  158.2357 C   0  0  0  0  0  0  0  0  0  0  0  0
  152.5659  141.1850  159.1238 C   0  0  0  0  0  0  0  0  0  0  0  0
  153.3356  142.0569  159.9182 C   0  0  0  0  0  0  0  0  0  0  0  0
  153.1390  143.4484  159.8305 C   0  0  0  0  0  0  0  0  0  0  0  0
  152.1707  143.9675  158.9497 C   0  0  0  0  0  0  0  0  0  0  0  0
  151.9786  145.3051  158.8671 F   0  0  0  0  0  0  0  0  0  0  0  0
  151.4009  143.0960  158.1551 C   0  0  0  0  0  0  0  0  0  0  0  0
  151.6393  137.0769  154.6646 H   0  0  0  0  0  0  0  0  0  0  0  0
  152.6856  138.2996  159.0192 H   0  0  0  0  0  0  0  0  0  0  0  0
  153.5513  136.7646  159.1352 H   0  0  0  0  0  0  0  0  0  0  0  0
  151.7859  136.7758  159.0429 H   0  0  0  0  0  0  0  0  0  0  0  0
  151.2603  138.5263  157.0454 H   0  0  0  0  0  0  0  0  0  0  0  0
  152.9884  138.6287  153.3182 H   0  0  0  0  0  0  0  0  0  0  0  0
  153.9139  138.0307  154.6873 H   0  0  0  0  0  0  0  0  0  0  0  0
  153.2627  139.6643  154.7148 H   0  0  0  0  0  0  0  0  0  0  0  0
  147.1267  138.6119  152.2518 H   0  0  0  0  0  0  0  0  0  0  0  0
  145.7422  140.6919  152.3534 H   0  0  0  0  0  0  0  0  0  0  0  0
  146.4364  142.6113  153.7395 H   0  0  0  0  0  0  0  0  0  0  0  0
  148.5376  142.5388  155.0787 H   0  0  0  0  0  0  0  0  0  0  0  0
  151.9536  141.1276  155.5921 H   0  0  0  0  0  0  0  0  0  0  0  0
  150.5040  142.0921  155.6776 H   0  0  0  0  0  0  0  0  0  0  0  0
  151.1038  139.7459  157.5552 H   0  0  0  0  0  0  0  0  0  0  0  0
  148.8978  140.3157  157.0997 H   0  0  0  0  0  0  0  0  0  0  0  0
  152.7210  140.1186  159.2002 H   0  0  0  0  0  0  0  0  0  0  0  0
  154.0764  141.6582  160.5955 H   0  0  0  0  0  0  0  0  0  0  0  0
  153.7292  144.1170  160.4397 H   0  0  0  0  0  0  0  0  0  0  0  0
  150.6596  143.5048  157.4841 H   0  0  0  0  0  0  0  0  0  0  0  0
  149.5728  137.5309  153.3285 H   0  0  0  0  0  0  0  0  0  0  0  0
  1  2  1  0  0  0  0
  1 27  1  0  0  0  0
  1 28  1  0  0  0  0
  1 29  1  0  0  0  0
  2  3  2  0  0  0  0
  2  4  1  0  0  0  0
  4  5  1  0  0  0  0
  4 30  1  0  0  0  0
  5 26  1  0  0  0  0
  5  6  1  0  0  0  0
  5  7  1  0  0  0  0
  6 31  1  0  0  0  0
  6 32  1  0  0  0  0
  6 33  1  0  0  0  0
  7 15  1  0  0  0  0
  7  8  2  0  0  0  0
  8  9  1  0  0  0  0
  8 46  1  0  0  0  0
  9 14  2  0  0  0  0
  9 10  1  0  0  0  0
 10 11  2  0  0  0  0
 10 34  1  0  0  0  0
 11 12  1  0  0  0  0
 11 35  1  0  0  0  0
 12 13  2  0  0  0  0
 12 36  1  0  0  0  0
 13 14  1  0  0  0  0
 13 37  1  0  0  0  0
 14 15  1  0  0  0  0
 15 16  1  0  0  0  0
 16 17  1  0  0  0  0
 16 38  1  0  0  0  0
 16 39  1  0  0  0  0
 17 18  1  0  0  0  0
 17 19  1  0  0  0  0
 17 40  1  0  0  0  0
 18 41  1  0  0  0  0
 19 25  1  0  0  0  0
 19 20  2  0  0  0  0
 20 21  1  0  0  0  0
 20 42  1  0  0  0  0
 21 22  2  0  0  0  0
 21 43  1  0  0  0  0
 22 23  1  0  0  0  0
 22 44  1  0  0  0  0
 23 24  1  0  0  0  0
 23 25  2  0  0  0  0
 25 45  1  0  0  0  0
M  CHG  1   8   1
M  END
> <s_m_source_file>
AV-unprocessed.smi

> <i_m_source_file_index>
1667

> <i_lp_mmshare_version>
43012

> <i_f3d_flags>
0

> <s_epik_input>
W0NIM11DKD1PKVtOSF1bQ0BASF0oW0NIM10pYyhuMSluKGMoYzEyKVtjSF1bY0hdW2NIXVtjSF0yKVtDSDJdW0NASF0oW09IXSljM1tjSF1bY0hdW2NIXWMoRilbY0hdMw==

> <s_epik_cmdline>
J2VwaWtfcHl0aG9uJywgJy1waCcsICc3LjAnLCAnLXRuJywgJzgnLCAnLW1hJywgJzIwMCcsICctbWV0YWxfYmluZGluZycsICctaW1hZScsICc8aW5maWxlLm1hZT4nLCAnLW9tYWUnLCAnPG91dGZpbGUubWFlPic=

> <r_epik_Ionization_Penalty>
0.950383

> <r_epik_Ionization_Penalty_Charging>
0.950379

> <r_epik_Ionization_Penalty_Neutral>
3.60962e-06

> <r_epik_State_Penalty>
0.994584

> <r_epik_Charging_Adjusted_Penalty>
1.94496

> <i_epik_Tot_Q>
1

> <i_epik_Tot_abs_Q>
1

> <r_epik_Metal_State_Penalty>
1.10485

> <b_epik_Metal_Only>
0

> <s_lp_Force_Field>
OPLS_2005

> <r_lp_Energy>
9.34024

> <b_lp_Chiralities_Consistent>
1

> <s_lp_Variant>
AV-unprocessed.smi:1667-6

> <Gold.Version>
5.8.1

> <Gold.Id.Protein>
6NUR|6NUR_protein|mol2

> <Gold.PLP.Fitness>
62.0976

> <Gold.PLP.PLP>
-53.8547

> <Gold.PLP.part.hbond>
-2.8145

> <Gold.PLP.part.metal>
0.0000

> <Gold.PLP.part.buried>
0.5911

> <Gold.PLP.part.nonpolar>
-52.4111

> <Gold.PLP.part.repulsive>
0.1412

> <Gold.PLP.ligand.clash>
0.0000

> <Gold.PLP.ligand.torsion>
0.4372

> <Gold.PLP.Chemscore.Hbond>
2.9920

> <Gold.PLP.Chemscore.CHOScore>
0.0000

> <Gold.PLP.Chemscore.Metal>
0.0000

> <Gold.Chemscore.Hbonds>
donor molecule, donor type, donor heavy atom, donor atom, acceptor molecule, acceptor atom, score
      L1  H     8    46       P1  7948  2.00
      P1  H 10752 10763       L1     3  0.90

> <Gold.PLP.Chemscore.Internal.Correction>
0.1413

> <Gold.Rescore>
     Score         DG    S(hbond)    S(metal)    S(lipo)     H(rot)  DE(clash)    DE(int)     intcor
     19.27     -20.31       1.52        0.00     138.90       2.53       0.69       0.35       ----

> <Gold.Chemscore.Fitness>
19.2671

> <Gold.Chemscore.DG>
-20.3101

> <Gold.Chemscore.ZeroCoef>
-5.4800

> <Gold.Chemscore.Hbond>
1.5164

> <Gold.Chemscore.Metal>
0.0000

> <Gold.Chemscore.Lipo>
138.8979

> <Gold.Chemscore.Internal_Hbond>
0.0000

> <Gold.Chemscore.DEClash>
0.6902

> <Gold.Chemscore.DEInternal>
0.3528

> <Gold.Chemscore.Rot>
2.5335

> <Gold.Chemscore.Internal.Correction>
   9.000000E+99

> <Gold.Chemscore.Hbonds>
donor molecule, donor type, donor heavy atom, donor atom, acceptor molecule, acceptor atom, score
      L1  H     8    46       P1  7948  0.78
      P1  H 10752 10763       L1     3  0.88

> <Gold.Chemscore.Hbond.Weighted>
-5.0647

> <Gold.Chemscore.Metal.Weighted>
-0.0000

> <Gold.Chemscore.Lipo.Weighted>
-16.2511

> <Gold.Chemscore.Internal_Hbond.Weighted>
0.0000

> <Gold.Chemscore.DEClash.Weighted>
0.6902

> <Gold.Chemscore.DEInternal.Weighted>
0.3528

> <Gold.Chemscore.Rot.Weighted>
6.4856

> <Gold.Chemscore.Internal.Correction.Weighted>
   9.000000E+99

> <Gold.Protein.RotatedTorsions>
[ 6907 6896 6895 6894 ] final   42.51 input  -60.11 | X-H torsion
[ 7974 7965 7964 7962 ] final  -42.53 input  175.53 | X-H torsion
[ 8008 7997 7996 7995 ] final   66.18 input   59.86 | X-H torsion
[ 10167 10162 10161 10158 ] final   44.22 input  -65.29 | X-H torsion
[ 10718 10713 10712 10709 ] final  -66.66 input   66.30 | X-H torsion
[ 10763 10752 10751 10750 ] final  116.70 input  -60.55 | X-H torsion
[ 11005 11000 10999 10996 ] final -148.59 input  -57.11 | X-H torsion

> <Gold.Protein.ActiveResidues>
 VAL166  LYS551  ARG553  GLY616  TRP617  ASP618  TYR619  PRO620  LYS621  CYS622 
 ASP623  PHE694  ASN695  SER759  ASP760  ASP761  ALA762  ILE779  LEU786  VAL792 
 PHE793  MET794  SER795  GLU796  ALA797  LYS798  CYS799  TRP800  GLU811  SER814 

> <Gold.Protein.RotatedAtoms>
  152.2087  134.8521  160.0499 H   0  0  0  0  0  0  0  0  0  0  0  0  # atno 6907 bound_to 6896
  151.9348  133.3616  159.3952 H   0  0  0  0  0  0  0  0  0  0  0  0  # atno 6908 bound_to 6896
  150.6971  134.4425  159.5342 H   0  0  0  0  0  0  0  0  0  0  0  0  # atno 6909 bound_to 6896
  146.0107  140.6967  142.9226 H   0  0  0  0  0  0  0  0  0  0  0  0  # atno 7974 bound_to 7965
  155.6733  140.3497  155.4827 H   0  0  0  0  0  0  0  0  0  0  0  0  # atno 8008 bound_to 7997
  155.9669  140.1148  157.0869 H   0  0  0  0  0  0  0  0  0  0  0  0  # atno 8009 bound_to 7997
  154.4156  140.1164  156.5241 H   0  0  0  0  0  0  0  0  0  0  0  0  # atno 8010 bound_to 7997
  140.3365  144.2523  150.6161 H   0  0  0  0  0  0  0  0  0  0  0  0  # atno 10167 bound_to 10162
  156.0600  130.4265  150.1741 H   0  0  0  0  0  0  0  0  0  0  0  0  # atno 10718 bound_to 10713
  153.5412  135.3558  155.2719 H   0  0  0  0  0  0  0  0  0  0  0  0  # atno 10763 bound_to 10752
  154.8717  135.4091  154.3042 H   0  0  0  0  0  0  0  0  0  0  0  0  # atno 10764 bound_to 10752
  153.3749  135.7066  153.6677 H   0  0  0  0  0  0  0  0  0  0  0  0  # atno 10765 bound_to 10752
  140.7597  134.3313  157.5105 H   0  0  0  0  0  0  0  0  0  0  0  0  # atno 11005 bound_to 11000
  144.6952  140.3393  143.7202 LP  0  0  0  0  0  0  0  0  0  0  0  0  # atno 17320 bound_to 7965
  145.7346  139.1746  143.2410 LP  0  0  0  0  0  0  0  0  0  0  0  0  # atno 17321 bound_to 7965
  140.5348  143.2235  151.8180 LP  0  0  0  0  0  0  0  0  0  0  0  0  # atno 17342 bound_to 10162
  139.4847  144.4674  151.9467 LP  0  0  0  0  0  0  0  0  0  0  0  0  # atno 17343 bound_to 10162
  156.9811  130.9864  151.3437 LP  0  0  0  0  0  0  0  0  0  0  0  0  # atno 17370 bound_to 10713
  157.5601  130.8240  149.8255 LP  0  0  0  0  0  0  0  0  0  0  0  0  # atno 17371 bound_to 10713
  139.8773  134.9194  156.3226 LP  0  0  0  0  0  0  0  0  0  0  0  0  # atno 17394 bound_to 11000
  140.9675  133.7349  156.0487 LP  0  0  0  0  0  0  0  0  0  0  0  0  # atno 17395 bound_to 11000

$$$$
