AV-unprocessed.smi:17|AV-procd|sdf|100|dock10
  -GOLD-   2262015243D 1   1.00000     0.00000
 Structure written by MMmdl.
 57 59  0  0  0  0  0  0  0  0  1 V2000
  147.5067  131.8297  161.5773 C   0  0  0  0  0  0  0  0  0  0  0  0
  146.3720  132.2795  160.6462 C   0  0  0  0  0  0  0  0  0  0  0  0
  145.8497  133.6019  161.0027 N   0  0  0  0  0  0  0  0  0  0  0  0
  146.7041  134.6614  161.0284 C   0  0  0  0  0  0  0  0  0  0  0  0
  146.9233  135.2807  162.2187 N   0  0  0  0  0  0  0  0  0  0  0  0
  147.7695  136.3101  162.3055 C   0  0  0  0  0  0  0  0  0  0  0  0
  148.4880  136.8817  161.3391 N   0  0  0  0  0  0  0  0  0  0  0  0
  148.2599  136.2817  160.1365 C   0  0  0  0  0  0  0  0  0  0  0  0
  147.3882  135.1823  159.8895 C   0  0  0  0  0  0  0  0  0  0  0  0
  147.4007  134.8765  158.5319 N   0  0  0  0  0  0  0  0  0  0  0  0
  148.2483  135.7229  158.0153 C   0  0  0  0  0  0  0  0  0  0  0  0
  148.8183  136.5970  158.9112 N   0  0  0  0  0  0  0  0  0  0  0  0
  149.7893  137.6362  158.6214 C   0  0  0  0  0  0  0  0  0  0  0  0
  149.7000  138.1892  157.1737 C   0  0  1  0  0  0  0  0  0  0  0  0
  148.5177  139.1759  156.9927 C   0  0  0  0  0  0  0  0  0  0  0  0
  148.6285  140.2956  157.8477 O   0  0  0  0  0  0  0  0  0  0  0  0
  151.0432  138.8433  156.7562 C   0  0  2  0  0  0  0  0  0  0  0  0
  151.1720  139.1427  155.2666 C   0  0  0  0  0  0  0  0  0  0  0  0
  152.6778  139.0956  154.9955 C   0  0  0  0  0  0  0  0  0  0  0  0
  153.2789  138.5876  156.1798 O   0  0  0  0  0  0  0  0  0  0  0  0
  152.2792  137.9668  156.9699 C   0  0  0  0  0  0  0  0  0  0  0  0
  144.4349  133.7916  161.3429 C   0  0  2  0  0  0  0  0  0  0  0  0
  144.2648  134.1416  162.8304 C   0  0  0  0  0  0  0  0  0  0  0  0
  143.5538  132.5915  160.9329 C   0  0  0  0  0  0  0  0  0  0  0  0
  143.2247  132.5151  159.1115 S   0  0  0  0  0  0  0  0  0  0  0  0
  142.3017  130.9329  158.9330 C   0  0  0  0  0  0  0  0  0  0  0  0
  142.2988  133.6059  158.7721 O   0  0  0  0  0  0  0  0  0  0  0  0
  144.5000  132.3880  158.3891 O   0  0  0  0  0  0  0  0  0  0  0  0
  147.8513  130.8310  161.3098 H   0  0  0  0  0  0  0  0  0  0  0  0
  147.1766  131.8000  162.6160 H   0  0  0  0  0  0  0  0  0  0  0  0
  148.3634  132.5011  161.5163 H   0  0  0  0  0  0  0  0  0  0  0  0
  146.7116  132.2702  159.6103 H   0  0  0  0  0  0  0  0  0  0  0  0
  145.5697  131.5444  160.6983 H   0  0  0  0  0  0  0  0  0  0  0  0
  147.8895  136.7352  163.2909 H   0  0  0  0  0  0  0  0  0  0  0  0
  148.4867  135.7282  156.9617 H   0  0  0  0  0  0  0  0  0  0  0  0
  149.6579  138.4448  159.3414 H   0  0  0  0  0  0  0  0  0  0  0  0
  150.7733  137.2097  158.8137 H   0  0  0  0  0  0  0  0  0  0  0  0
  149.5368  137.3462  156.5002 H   0  0  0  0  0  0  0  0  0  0  0  0
  148.4456  139.5104  155.9573 H   0  0  0  0  0  0  0  0  0  0  0  0
  147.5669  138.7036  157.2348 H   0  0  0  0  0  0  0  0  0  0  0  0
  149.5254  140.3687  158.1363 H   0  0  0  0  0  0  0  0  0  0  0  0
  151.1841  139.7725  157.3111 H   0  0  0  0  0  0  0  0  0  0  0  0
  150.6729  138.3723  154.6771 H   0  0  0  0  0  0  0  0  0  0  0  0
  150.7382  140.1051  154.9934 H   0  0  0  0  0  0  0  0  0  0  0  0
  152.9025  138.4448  154.1498 H   0  0  0  0  0  0  0  0  0  0  0  0
  153.0814  140.0849  154.7791 H   0  0  0  0  0  0  0  0  0  0  0  0
  152.5916  137.9164  158.0130 H   0  0  0  0  0  0  0  0  0  0  0  0
  152.1098  136.9506  156.6098 H   0  0  0  0  0  0  0  0  0  0  0  0
  144.0381  134.6373  160.7859 H   0  0  0  0  0  0  0  0  0  0  0  0
  143.2237  134.3660  163.0626 H   0  0  0  0  0  0  0  0  0  0  0  0
  144.8553  135.0191  163.0956 H   0  0  0  0  0  0  0  0  0  0  0  0
  144.5772  133.3217  163.4771 H   0  0  0  0  0  0  0  0  0  0  0  0
  143.9579  131.6351  161.2619 H   0  0  0  0  0  0  0  0  0  0  0  0
  142.5787  132.6944  161.4100 H   0  0  0  0  0  0  0  0  0  0  0  0
  141.9798  130.8204  157.8982 H   0  0  0  0  0  0  0  0  0  0  0  0
  141.4273  130.9425  159.5828 H   0  0  0  0  0  0  0  0  0  0  0  0
  142.9414  130.0939  159.1958 H   0  0  0  0  0  0  0  0  0  0  0  0
  1  2  1  0  0  0  0
  1 29  1  0  0  0  0
  1 30  1  0  0  0  0
  1 31  1  0  0  0  0
  2  3  1  0  0  0  0
  2 32  1  0  0  0  0
  2 33  1  0  0  0  0
  3  4  1  0  0  0  0
  3 22  1  0  0  0  0
  4  9  1  0  0  0  0
  4  5  2  0  0  0  0
  5  6  1  0  0  0  0
  6  7  2  0  0  0  0
  6 34  1  0  0  0  0
  7  8  1  0  0  0  0
  8 12  1  0  0  0  0
  8  9  2  0  0  0  0
  9 10  1  0  0  0  0
 10 11  2  0  0  0  0
 11 12  1  0  0  0  0
 11 35  1  0  0  0  0
 12 13  1  0  0  0  0
 13 14  1  0  0  0  0
 13 36  1  0  0  0  0
 13 37  1  0  0  0  0
 14 15  1  0  0  0  0
 14 17  1  0  0  0  0
 14 38  1  0  0  0  0
 15 16  1  0  0  0  0
 15 39  1  0  0  0  0
 15 40  1  0  0  0  0
 16 41  1  0  0  0  0
 17 21  1  0  0  0  0
 17 18  1  0  0  0  0
 17 42  1  0  0  0  0
 18 19  1  0  0  0  0
 18 43  1  0  0  0  0
 18 44  1  0  0  0  0
 19 20  1  0  0  0  0
 19 45  1  0  0  0  0
 19 46  1  0  0  0  0
 20 21  1  0  0  0  0
 21 47  1  0  0  0  0
 21 48  1  0  0  0  0
 22 23  1  0  0  0  0
 22 24  1  0  0  0  0
 22 49  1  0  0  0  0
 23 50  1  0  0  0  0
 23 51  1  0  0  0  0
 23 52  1  0  0  0  0
 24 25  1  0  0  0  0
 24 53  1  0  0  0  0
 24 54  1  0  0  0  0
 25 26  1  0  0  0  0
 25 27  2  0  0  0  0
 25 28  2  0  0  0  0
 26 55  1  0  0  0  0
 26 56  1  0  0  0  0
 26 57  1  0  0  0  0
M  END
> <s_m_source_file>
AV-unprocessed.smi

> <i_m_source_file_index>
17

> <i_lp_mmshare_version>
43012

> <i_f3d_flags>
0

> <s_epik_input>
W0NIM11TKD1PKSg9TylbQ0gyXVtDQEBIXShbQ0gzXSlOKFtDSDJdW0NIM10pYyhuW2NIXW4xKWMoYzEyKW5bY0hdbjJbQ0gyXVtDQEhdKFtDSDJdW09IXSlbQ0BASF0zW0NIMl1bQ0gyXU9bQ0gyXTM=

> <s_epik_cmdline>
J2VwaWtfcHl0aG9uJywgJy1waCcsICc3LjAnLCAnLXRuJywgJzgnLCAnLW1hJywgJzIwMCcsICctbWV0YWxfYmluZGluZycsICctaW1hZScsICc8aW5maWxlLm1hZT4nLCAnLW9tYWUnLCAnPG91dGZpbGUubWFlPic=

> <r_lp_tautomer_probability>
1

> <r_epik_Ionization_Penalty>
0.00119955

> <r_epik_Ionization_Penalty_Charging>
0

> <r_epik_Ionization_Penalty_Neutral>
0.00119955

> <r_epik_State_Penalty>
0.000665399

> <r_epik_Charging_Adjusted_Penalty>
0.000665399

> <i_epik_Tot_Q>
0

> <i_epik_Tot_abs_Q>
0

> <r_epik_Metal_State_Penalty>
-0

> <b_epik_Metal_Only>
0

> <s_lp_Force_Field>
OPLS_2005

> <r_lp_Energy>
33.0306

> <b_lp_Chiralities_Consistent>
1

> <s_lp_Variant>
AV-unprocessed.smi:17-2

> <Gold.Version>
5.8.1

> <Gold.Id.Protein>
6NUR|6NUR_protein|mol2

> <Gold.PLP.Fitness>
42.7618

> <Gold.PLP.PLP>
-37.8435

> <Gold.PLP.part.hbond>
-3.6651

> <Gold.PLP.part.metal>
0.0000

> <Gold.PLP.part.buried>
-5.9230

> <Gold.PLP.part.nonpolar>
-27.7964

> <Gold.PLP.part.repulsive>
0.0873

> <Gold.PLP.ligand.clash>
0.0000

> <Gold.PLP.ligand.torsion>
2.3299

> <Gold.PLP.Chemscore.Hbond>
3.0000

> <Gold.PLP.Chemscore.CHOScore>
0.0000

> <Gold.PLP.Chemscore.Metal>
0.0000

> <Gold.Chemscore.Hbonds>
donor molecule, donor type, donor heavy atom, donor atom, acceptor molecule, acceptor atom, score
      P1  H  6931  6943       L1     7  1.00
      P1  H  7997  8010       L1    20  0.79
      P1  H 11000 11005       L1    27  1.00

> <Gold.PLP.Chemscore.Internal.Correction>
0.5781

> <Gold.Rescore>
     Score         DG    S(hbond)    S(metal)    S(lipo)     H(rot)  DE(clash)    DE(int)     intcor
      9.54     -14.18       3.15        0.00      61.09       3.51       1.57       3.07       ----

> <Gold.Chemscore.Fitness>
9.5427

> <Gold.Chemscore.DG>
-14.1799

> <Gold.Chemscore.ZeroCoef>
-5.4800

> <Gold.Chemscore.Hbond>
3.1519

> <Gold.Chemscore.Metal>
0.0000

> <Gold.Chemscore.Lipo>
61.0894

> <Gold.Chemscore.Internal_Hbond>
0.0000

> <Gold.Chemscore.DEClash>
1.5687

> <Gold.Chemscore.DEInternal>
3.0685

> <Gold.Chemscore.Rot>
3.5059

> <Gold.Chemscore.Internal.Correction>
   9.000000E+99

> <Gold.Chemscore.Hbonds>
donor molecule, donor type, donor heavy atom, donor atom, acceptor molecule, acceptor atom, score
      P1  H  6931  6943       L1     7  0.64
      P1  H  7997  8010       L1    20  0.13
      P1  H 11000 11005       L1    27  0.99

> <Gold.Chemscore.Hbond.Weighted>
-10.5274

> <Gold.Chemscore.Metal.Weighted>
-0.0000

> <Gold.Chemscore.Lipo.Weighted>
-7.1475

> <Gold.Chemscore.Internal_Hbond.Weighted>
0.0000

> <Gold.Chemscore.DEClash.Weighted>
1.5687

> <Gold.Chemscore.DEInternal.Weighted>
3.0685

> <Gold.Chemscore.Rot.Weighted>
8.9750

> <Gold.Chemscore.Internal.Correction.Weighted>
   9.000000E+99

> <Gold.Protein.RotatedTorsions>
[ 6907 6896 6895 6894 ] final  120.60 input  -60.11 | X-H torsion
[ 7974 7965 7964 7962 ] final  -95.18 input  175.53 | X-H torsion
[ 8008 7997 7996 7995 ] final   64.98 input   59.86 | X-H torsion
[ 10167 10162 10161 10158 ] final   50.15 input  -65.29 | X-H torsion
[ 10718 10713 10712 10709 ] final  163.37 input   66.30 | X-H torsion
[ 10763 10752 10751 10750 ] final   -8.38 input  -60.55 | X-H torsion
[ 11005 11000 10999 10996 ] final -130.55 input  -57.11 | X-H torsion

> <Gold.Protein.ActiveResidues>
 VAL166  LYS551  ARG553  GLY616  TRP617  ASP618  TYR619  PRO620  LYS621  CYS622 
 ASP623  PHE694  ASN695  SER759  ASP760  ASP761  ALA762  ILE779  LEU786  VAL792 
 PHE793  MET794  SER795  GLU796  ALA797  LYS798  CYS799  TRP800  GLU811  SER814 

> <Gold.Protein.RotatedAtoms>
  152.4386  133.7406  159.6638 H   0  0  0  0  0  0  0  0  0  0  0  0  # atno 6907 bound_to 6896
  150.8273  133.8140  159.3119 H   0  0  0  0  0  0  0  0  0  0  0  0  # atno 6908 bound_to 6896
  151.5804  135.1061  160.0067 H   0  0  0  0  0  0  0  0  0  0  0  0  # atno 6909 bound_to 6896
  145.3635  140.9495  143.2487 H   0  0  0  0  0  0  0  0  0  0  0  0  # atno 7974 bound_to 7965
  155.6545  140.3497  155.4760 H   0  0  0  0  0  0  0  0  0  0  0  0  # atno 8008 bound_to 7997
  155.9820  140.1176  157.0741 H   0  0  0  0  0  0  0  0  0  0  0  0  # atno 8009 bound_to 7997
  154.4194  140.1136  156.5434 H   0  0  0  0  0  0  0  0  0  0  0  0  # atno 8010 bound_to 7997
  140.2754  144.3217  150.6278 H   0  0  0  0  0  0  0  0  0  0  0  0  # atno 10167 bound_to 10162
  157.1094  131.0464  151.2464 H   0  0  0  0  0  0  0  0  0  0  0  0  # atno 10718 bound_to 10713
  153.4397  135.7013  153.6177 H   0  0  0  0  0  0  0  0  0  0  0  0  # atno 10763 bound_to 10752
  153.4557  135.3748  155.2310 H   0  0  0  0  0  0  0  0  0  0  0  0  # atno 10764 bound_to 10752
  154.8727  135.4008  154.3793 H   0  0  0  0  0  0  0  0  0  0  0  0  # atno 10765 bound_to 10752
  140.9336  134.1287  157.4213 H   0  0  0  0  0  0  0  0  0  0  0  0  # atno 11005 bound_to 11000
  144.8629  139.5151  143.6804 LP  0  0  0  0  0  0  0  0  0  0  0  0  # atno 17320 bound_to 7965
  146.2917  139.7158  142.9156 LP  0  0  0  0  0  0  0  0  0  0  0  0  # atno 17321 bound_to 7965
  140.5855  143.2170  151.7349 LP  0  0  0  0  0  0  0  0  0  0  0  0  # atno 17342 bound_to 10162
  139.4977  144.4017  152.0174 LP  0  0  0  0  0  0  0  0  0  0  0  0  # atno 17343 bound_to 10162
  157.4572  130.7632  149.7203 LP  0  0  0  0  0  0  0  0  0  0  0  0  # atno 17370 bound_to 10713
  155.9854  130.3983  150.3263 LP  0  0  0  0  0  0  0  0  0  0  0  0  # atno 17371 bound_to 10713
  139.8802  135.0013  156.6061 LP  0  0  0  0  0  0  0  0  0  0  0  0  # atno 17394 bound_to 11000
  140.7829  133.8645  155.8582 LP  0  0  0  0  0  0  0  0  0  0  0  0  # atno 17395 bound_to 11000

$$$$
