AV-unprocessed.smi:2718|AV-procd|sdf|10489|dock9
  -GOLD-   2272014533D 1   1.00000     0.00000
 Structure written by MMmdl.
 47 48  0  0  0  0  0  0  0  0  1 V2000
  151.7895  145.4953  159.8439 C   0  0  0  0  0  0  0  0  0  0  0  0
  151.5105  144.3712  158.8660 C   0  0  0  0  0  0  0  0  0  0  0  0
  151.8316  144.6957  157.4175 C   0  0  0  0  0  0  0  0  0  0  0  0
  151.0136  143.1873  159.2721 C   0  0  0  0  0  0  0  0  0  0  0  0
  150.6900  142.0174  158.4139 C   0  0  1  0  0  0  0  0  0  0  0  0
  151.5747  141.6590  157.2347 C   0  0  2  0  0  0  0  0  0  0  0  0
  150.9300  141.2079  155.9615 C   0  0  0  0  0  0  0  0  0  0  0  0
  151.2911  140.2175  155.3250 O   0  0  0  0  0  0  0  0  0  0  0  0
  149.8944  141.9733  155.5876 N   0  0  0  0  0  0  0  0  0  0  0  0
  149.0432  141.7341  154.4256 C   0  0  0  0  0  0  0  0  0  0  0  0
  147.7404  140.9828  154.7808 C   0  0  2  0  0  0  0  0  0  0  0  0
  147.0582  140.4043  153.5324 C   0  0  0  0  0  0  0  0  0  0  0  0
  146.7903  141.8215  155.5948 C   0  0  0  0  0  0  0  0  0  0  0  0
  146.6471  141.6968  156.9212 N   0  0  0  0  0  0  0  0  0  0  0  0
  145.6808  142.6138  157.2820 N   0  0  0  0  0  0  0  0  0  0  0  0
  145.3344  143.2021  156.1382 C   0  0  0  0  0  0  0  0  0  0  0  0
  145.9839  142.7589  155.0514 N   0  0  0  0  0  0  0  0  0  0  0  0
  145.8318  143.1914  153.6760 C   0  0  0  0  0  0  0  0  0  0  0  0
  151.5291  140.7500  158.4577 C   0  0  0  0  0  0  0  0  0  0  0  0
  152.7903  140.6605  159.3039 C   0  0  0  0  0  0  0  0  0  0  0  0
  150.8153  139.4033  158.4734 C   0  0  0  0  0  0  0  0  0  0  0  0
  152.8444  145.7694  159.8147 H   0  0  0  0  0  0  0  0  0  0  0  0
  151.5418  145.2093  160.8667 H   0  0  0  0  0  0  0  0  0  0  0  0
  151.1994  146.3750  159.5857 H   0  0  0  0  0  0  0  0  0  0  0  0
  151.2130  145.5247  157.0734 H   0  0  0  0  0  0  0  0  0  0  0  0
  151.6601  143.8503  156.7520 H   0  0  0  0  0  0  0  0  0  0  0  0
  152.8773  144.9879  157.3214 H   0  0  0  0  0  0  0  0  0  0  0  0
  150.8233  143.0455  160.3261 H   0  0  0  0  0  0  0  0  0  0  0  0
  149.6151  141.9038  158.2831 H   0  0  0  0  0  0  0  0  0  0  0  0
  152.4859  142.2435  157.1106 H   0  0  0  0  0  0  0  0  0  0  0  0
  149.6595  142.7664  156.1670 H   0  0  0  0  0  0  0  0  0  0  0  0
  148.7991  142.7087  154.0021 H   0  0  0  0  0  0  0  0  0  0  0  0
  149.6005  141.1967  153.6566 H   0  0  0  0  0  0  0  0  0  0  0  0
  148.0318  140.1246  155.3856 H   0  0  0  0  0  0  0  0  0  0  0  0
  146.1863  139.8085  153.8038 H   0  0  0  0  0  0  0  0  0  0  0  0
  147.7392  139.7589  152.9768 H   0  0  0  0  0  0  0  0  0  0  0  0
  146.7257  141.1942  152.8579 H   0  0  0  0  0  0  0  0  0  0  0  0
  144.5839  143.9775  156.0929 H   0  0  0  0  0  0  0  0  0  0  0  0
  145.1192  144.0146  153.6183 H   0  0  0  0  0  0  0  0  0  0  0  0
  145.4656  142.3650  153.0669 H   0  0  0  0  0  0  0  0  0  0  0  0
  146.7922  143.5293  153.2865 H   0  0  0  0  0  0  0  0  0  0  0  0
  153.4442  139.8742  158.9254 H   0  0  0  0  0  0  0  0  0  0  0  0
  152.5391  140.4359  160.3407 H   0  0  0  0  0  0  0  0  0  0  0  0
  153.3445  141.5994  159.2838 H   0  0  0  0  0  0  0  0  0  0  0  0
  151.3723  138.6735  157.8855 H   0  0  0  0  0  0  0  0  0  0  0  0
  149.8060  139.4779  158.0705 H   0  0  0  0  0  0  0  0  0  0  0  0
  150.7291  139.0313  159.4947 H   0  0  0  0  0  0  0  0  0  0  0  0
  1  2  1  0  0  0  0
  1 22  1  0  0  0  0
  1 23  1  0  0  0  0
  1 24  1  0  0  0  0
  2  3  1  0  0  0  0
  2  4  2  0  0  0  0
  3 25  1  0  0  0  0
  3 26  1  0  0  0  0
  3 27  1  0  0  0  0
  4  5  1  0  0  0  0
  4 28  1  0  0  0  0
  5 19  1  0  0  0  0
  5  6  1  0  0  0  0
  5 29  1  0  0  0  0
  6  7  1  0  0  0  0
  6 19  1  0  0  0  0
  6 30  1  0  0  0  0
  7  8  2  0  0  0  0
  7  9  1  0  0  0  0
  9 10  1  0  0  0  0
  9 31  1  0  0  0  0
 10 11  1  0  0  0  0
 10 32  1  0  0  0  0
 10 33  1  0  0  0  0
 11 12  1  0  0  0  0
 11 13  1  0  0  0  0
 11 34  1  0  0  0  0
 12 35  1  0  0  0  0
 12 36  1  0  0  0  0
 12 37  1  0  0  0  0
 13 17  1  0  0  0  0
 13 14  2  0  0  0  0
 14 15  1  0  0  0  0
 15 16  2  0  0  0  0
 16 17  1  0  0  0  0
 16 38  1  0  0  0  0
 17 18  1  0  0  0  0
 18 39  1  0  0  0  0
 18 40  1  0  0  0  0
 18 41  1  0  0  0  0
 19 20  1  0  0  0  0
 19 21  1  0  0  0  0
 20 42  1  0  0  0  0
 20 43  1  0  0  0  0
 20 44  1  0  0  0  0
 21 45  1  0  0  0  0
 21 46  1  0  0  0  0
 21 47  1  0  0  0  0
M  END
> <s_m_source_file>
AV-unprocessed.smi

> <i_m_source_file_index>
2718

> <i_lp_mmshare_version>
43012

> <i_f3d_flags>
0

> <s_epik_input>
W0NIM11DKFtDSDNdKT1bQ0hdW0NAQEhdKEMxKFtDSDNdKVtDSDNdKVtDQEhdMUMoPU8pW05IXVtDSDJdW0NASF0oW0NIM10pYzJubltjSF1uMltDSDNd

> <s_epik_cmdline>
J2VwaWtfcHl0aG9uJywgJy1waCcsICc3LjAnLCAnLXRuJywgJzgnLCAnLW1hJywgJzIwMCcsICctbWV0YWxfYmluZGluZycsICctaW1hZScsICc8aW5maWxlLm1hZT4nLCAnLW9tYWUnLCAnPG91dGZpbGUubWFlPic=

> <r_lp_tautomer_probability>
1

> <r_epik_Ionization_Penalty>
0.000449586

> <r_epik_Ionization_Penalty_Charging>
0

> <r_epik_Ionization_Penalty_Neutral>
0.000449586

> <r_epik_State_Penalty>
0.000243372

> <r_epik_Charging_Adjusted_Penalty>
0.000243372

> <i_epik_Tot_Q>
0

> <i_epik_Tot_abs_Q>
0

> <r_epik_Metal_State_Penalty>
-0

> <b_epik_Metal_Only>
0

> <s_lp_Force_Field>
OPLS_2005

> <r_lp_Energy>
15.8619

> <b_lp_Chiralities_Consistent>
1

> <s_lp_Variant>
AV-unprocessed.smi:2718-4

> <Gold.Version>
5.8.1

> <Gold.Id.Protein>
6NUR|6NUR_protein|mol2

> <Gold.PLP.Fitness>
46.2214

> <Gold.PLP.PLP>
-43.5977

> <Gold.PLP.part.hbond>
-2.0000

> <Gold.PLP.part.metal>
0.0000

> <Gold.PLP.part.buried>
-5.6987

> <Gold.PLP.part.nonpolar>
-34.8187

> <Gold.PLP.part.repulsive>
0.4054

> <Gold.PLP.ligand.clash>
0.0000

> <Gold.PLP.ligand.torsion>
1.0335

> <Gold.PLP.Chemscore.Hbond>
1.4807

> <Gold.PLP.Chemscore.CHOScore>
0.0000

> <Gold.PLP.Chemscore.Metal>
0.0000

> <Gold.Chemscore.Hbonds>
donor molecule, donor type, donor heavy atom, donor atom, acceptor molecule, acceptor atom, score
      L1  H     9    31       P1  8028  0.42
      P1  H  7989  7998       L1     8  1.00

> <Gold.PLP.Chemscore.Internal.Correction>
0.2486

> <Gold.Rescore>
     Score         DG    S(hbond)    S(metal)    S(lipo)     H(rot)  DE(clash)    DE(int)     intcor
     14.09     -16.00       1.09        0.00     101.54       1.95       0.30       1.60       ----

> <Gold.Chemscore.Fitness>
14.0924

> <Gold.Chemscore.DG>
-15.9981

> <Gold.Chemscore.ZeroCoef>
-5.4800

> <Gold.Chemscore.Hbond>
1.0895

> <Gold.Chemscore.Metal>
0.0000

> <Gold.Chemscore.Lipo>
101.5368

> <Gold.Chemscore.Internal_Hbond>
0.0000

> <Gold.Chemscore.DEClash>
0.3016

> <Gold.Chemscore.DEInternal>
1.6041

> <Gold.Chemscore.Rot>
1.9533

> <Gold.Chemscore.Internal.Correction>
   9.000000E+99

> <Gold.Chemscore.Hbonds>
donor molecule, donor type, donor heavy atom, donor atom, acceptor molecule, acceptor atom, score
      L1  H     9    31       P1  8028  0.41
      P1  H  7989  7998       L1     8  0.47

> <Gold.Chemscore.Hbond.Weighted>
-3.6388

> <Gold.Chemscore.Metal.Weighted>
-0.0000

> <Gold.Chemscore.Lipo.Weighted>
-11.8798

> <Gold.Chemscore.Internal_Hbond.Weighted>
0.0000

> <Gold.Chemscore.DEClash.Weighted>
0.3016

> <Gold.Chemscore.DEInternal.Weighted>
1.6041

> <Gold.Chemscore.Rot.Weighted>
5.0005

> <Gold.Chemscore.Internal.Correction.Weighted>
   9.000000E+99

> <Gold.Protein.RotatedTorsions>
[ 6907 6896 6895 6894 ] final  -23.83 input  -60.11 | X-H torsion
[ 7974 7965 7964 7962 ] final   67.75 input  175.53 | X-H torsion
[ 8008 7997 7996 7995 ] final    8.55 input   59.86 | X-H torsion
[ 10167 10162 10161 10158 ] final -165.18 input  -65.29 | X-H torsion
[ 10718 10713 10712 10709 ] final  -51.97 input   66.30 | X-H torsion
[ 10763 10752 10751 10750 ] final    4.47 input  -60.55 | X-H torsion
[ 11005 11000 10999 10996 ] final  126.11 input  -57.11 | X-H torsion

> <Gold.Protein.ActiveResidues>
 VAL166  LYS551  ARG553  GLY616  TRP617  ASP618  TYR619  PRO620  LYS621  CYS622 
 ASP623  PHE694  ASN695  SER759  ASP760  ASP761  ALA762  ILE779  LEU786  VAL792 
 PHE793  MET794  SER795  GLU796  ALA797  LYS798  CYS799  TRP800  GLU811  SER814 

> <Gold.Protein.RotatedAtoms>
  151.1983  135.0432  159.8861 H   0  0  0  0  0  0  0  0  0  0  0  0  # atno 6907 bound_to 6896
  152.5434  134.0878  159.8274 H   0  0  0  0  0  0  0  0  0  0  0  0  # atno 6908 bound_to 6896
  151.1016  133.5192  159.2642 H   0  0  0  0  0  0  0  0  0  0  0  0  # atno 6909 bound_to 6896
  145.8108  139.3031  143.1100 H   0  0  0  0  0  0  0  0  0  0  0  0  # atno 7974 bound_to 7965
  154.7683  140.2797  155.6158 H   0  0  0  0  0  0  0  0  0  0  0  0  # atno 8008 bound_to 7997
  156.2929  140.2646  156.2406 H   0  0  0  0  0  0  0  0  0  0  0  0  # atno 8009 bound_to 7997
  154.9932  140.0373  157.2318 H   0  0  0  0  0  0  0  0  0  0  0  0  # atno 8010 bound_to 7997
  139.6200  144.0644  152.1923 H   0  0  0  0  0  0  0  0  0  0  0  0  # atno 10167 bound_to 10162
  156.1663  130.4149  149.9716 H   0  0  0  0  0  0  0  0  0  0  0  0  # atno 10718 bound_to 10713
  153.2708  135.6932  153.7482 H   0  0  0  0  0  0  0  0  0  0  0  0  # atno 10763 bound_to 10752
  153.6506  135.3377  155.3099 H   0  0  0  0  0  0  0  0  0  0  0  0  # atno 10764 bound_to 10752
  154.8463  135.4453  154.1730 H   0  0  0  0  0  0  0  0  0  0  0  0  # atno 10765 bound_to 10752
  139.9439  134.9632  156.8658 H   0  0  0  0  0  0  0  0  0  0  0  0  # atno 11005 bound_to 11000
  145.9779  140.8707  143.0129 LP  0  0  0  0  0  0  0  0  0  0  0  0  # atno 17320 bound_to 7965
  144.6757  140.2038  143.7384 LP  0  0  0  0  0  0  0  0  0  0  0  0  # atno 17321 bound_to 7965
  140.0283  144.6100  150.7509 LP  0  0  0  0  0  0  0  0  0  0  0  0  # atno 17342 bound_to 10162
  140.7376  143.2767  151.3721 LP  0  0  0  0  0  0  0  0  0  0  0  0  # atno 17343 bound_to 10162
  156.7530  130.9122  151.3638 LP  0  0  0  0  0  0  0  0  0  0  0  0  # atno 17370 bound_to 10713
  157.6770  130.9104  150.0174 LP  0  0  0  0  0  0  0  0  0  0  0  0  # atno 17371 bound_to 10713
  140.5882  134.0287  155.7489 LP  0  0  0  0  0  0  0  0  0  0  0  0  # atno 17394 bound_to 11000
  141.1084  133.9657  157.2956 LP  0  0  0  0  0  0  0  0  0  0  0  0  # atno 17395 bound_to 11000

$$$$
