AV-unprocessed.smi:2695|AV-procd|sdf|10411|dock2
  -GOLD-   2272014443D 1   1.00000     0.00000
 Structure written by MMmdl.
 42 43  0  0  0  0  0  0  0  0  1 V2000
  151.3614  144.3991  159.5698 C   0  0  0  0  0  0  0  0  0  0  0  0
  152.2031  143.1485  159.7913 C   0  0  0  0  0  0  0  0  0  0  0  0
  152.9023  143.0136  160.9421 C   0  0  0  0  0  0  0  0  0  0  0  0
  153.7564  141.8358  161.1745 C   0  0  0  0  0  0  0  0  0  0  0  0
  154.3769  141.6753  162.2235 O   0  0  0  0  0  0  0  0  0  0  0  0
  153.8262  140.8675  160.0711 C   0  0  0  0  0  0  0  0  0  0  0  0
  153.0914  141.0835  158.9630 C   0  0  0  0  0  0  0  0  0  0  0  0
  153.1385  140.2406  157.9200 O   0  0  0  0  0  0  0  0  0  0  0  0
  152.2282  142.1792  158.7635 N   0  0  0  0  0  0  0  0  0  0  0  0
  151.3920  142.2975  157.5549 C   0  0  0  0  0  0  0  0  0  0  0  0
  150.3346  141.1912  157.4328 C   0  0  0  0  0  0  0  0  0  0  0  0
  150.2326  140.3121  158.2897 O   0  0  0  0  0  0  0  0  0  0  0  0
  149.5568  141.2511  156.3410 N   0  0  0  0  0  0  0  0  0  0  0  0
  148.4694  140.3304  156.0036 C   0  0  2  0  0  0  0  0  0  0  0  0
  149.0600  139.0088  155.4455 C   0  0  0  0  0  0  0  0  0  0  0  0
  149.8171  138.1525  156.4679 C   0  0  0  0  0  0  0  0  0  0  0  0
  150.7071  137.2161  155.6431 C   0  0  0  0  0  0  0  0  0  0  0  0
  150.8710  137.8770  154.2677 C   0  0  0  0  0  0  0  0  0  0  0  0
  150.1039  139.2005  154.3363 C   0  0  0  0  0  0  0  0  0  0  0  0
  147.5022  141.0459  155.0326 C   0  0  0  0  0  0  0  0  0  0  0  0
  146.5865  140.1824  154.5906 F   0  0  0  0  0  0  0  0  0  0  0  0
  146.8785  142.0517  155.6474 F   0  0  0  0  0  0  0  0  0  0  0  0
  148.1523  141.5233  153.9723 F   0  0  0  0  0  0  0  0  0  0  0  0
  151.6384  145.1841  160.2744 H   0  0  0  0  0  0  0  0  0  0  0  0
  150.3044  144.1782  159.7196 H   0  0  0  0  0  0  0  0  0  0  0  0
  151.4992  144.8114  158.5705 H   0  0  0  0  0  0  0  0  0  0  0  0
  152.8641  143.7720  161.7108 H   0  0  0  0  0  0  0  0  0  0  0  0
  154.4733  140.0077  160.1678 H   0  0  0  0  0  0  0  0  0  0  0  0
  150.8907  143.2658  157.5264 H   0  0  0  0  0  0  0  0  0  0  0  0
  152.0035  142.3009  156.6533 H   0  0  0  0  0  0  0  0  0  0  0  0
  149.7173  142.0088  155.6932 H   0  0  0  0  0  0  0  0  0  0  0  0
  147.9016  140.0934  156.9051 H   0  0  0  0  0  0  0  0  0  0  0  0
  148.2488  138.4044  155.0360 H   0  0  0  0  0  0  0  0  0  0  0  0
  150.4439  138.7893  157.0939 H   0  0  0  0  0  0  0  0  0  0  0  0
  149.1491  137.5967  157.1261 H   0  0  0  0  0  0  0  0  0  0  0  0
  151.6673  137.0507  156.1328 H   0  0  0  0  0  0  0  0  0  0  0  0
  150.2277  136.2430  155.5302 H   0  0  0  0  0  0  0  0  0  0  0  0
  151.9190  138.0361  154.0119 H   0  0  0  0  0  0  0  0  0  0  0  0
  150.4414  137.2349  153.4978 H   0  0  0  0  0  0  0  0  0  0  0  0
  149.6565  139.4649  153.3776 H   0  0  0  0  0  0  0  0  0  0  0  0
  150.7911  140.0026  154.6100 H   0  0  0  0  0  0  0  0  0  0  0  0
  152.4401  140.4792  157.3298 H   0  0  0  0  0  0  0  0  0  0  0  0
  1  2  1  0  0  0  0
  1 24  1  0  0  0  0
  1 25  1  0  0  0  0
  1 26  1  0  0  0  0
  2  9  1  0  0  0  0
  2  3  2  0  0  0  0
  3  4  1  0  0  0  0
  3 27  1  0  0  0  0
  4  5  2  0  0  0  0
  4  6  1  0  0  0  0
  6  7  2  0  0  0  0
  6 28  1  0  0  0  0
  7  8  1  0  0  0  0
  7  9  1  0  0  0  0
  8 42  1  0  0  0  0
  9 10  1  0  0  0  0
 10 11  1  0  0  0  0
 10 29  1  0  0  0  0
 10 30  1  0  0  0  0
 11 12  2  0  0  0  0
 11 13  1  0  0  0  0
 13 14  1  0  0  0  0
 13 31  1  0  0  0  0
 14 15  1  0  0  0  0
 14 20  1  0  0  0  0
 14 32  1  0  0  0  0
 15 19  1  0  0  0  0
 15 16  1  0  0  0  0
 15 33  1  0  0  0  0
 16 17  1  0  0  0  0
 16 34  1  0  0  0  0
 16 35  1  0  0  0  0
 17 18  1  0  0  0  0
 17 36  1  0  0  0  0
 17 37  1  0  0  0  0
 18 19  1  0  0  0  0
 18 38  1  0  0  0  0
 18 39  1  0  0  0  0
 19 40  1  0  0  0  0
 19 41  1  0  0  0  0
 20 21  1  0  0  0  0
 20 22  1  0  0  0  0
 20 23  1  0  0  0  0
M  END
> <s_m_source_file>
AV-unprocessed.smi

> <i_m_source_file_index>
2695

> <i_lp_mmshare_version>
43012

> <i_f3d_flags>
0

> <s_epik_input>
W0NIM11jMVtjSF1jKFtPSF0pW2NIXWMoPU8pbjFbQ0gyXUMoPU8pW05IXVtDQEBIXShDKEYpKEYpRilbQ0hdMltDSDJdW0NIMl1bQ0gyXVtDSDJdMg==

> <s_epik_cmdline>
J2VwaWtfcHl0aG9uJywgJy1waCcsICc3LjAnLCAnLXRuJywgJzgnLCAnLW1hJywgJzIwMCcsICctbWV0YWxfYmluZGluZycsICctaW1hZScsICc8aW5maWxlLm1hZT4nLCAnLW9tYWUnLCAnPG91dGZpbGUubWFlPic=

> <r_epik_Ionization_Penalty>
1.35977e-07

> <r_epik_Ionization_Penalty_Charging>
0

> <r_epik_Ionization_Penalty_Neutral>
1.35977e-07

> <r_epik_State_Penalty>
2.53185

> <r_epik_Charging_Adjusted_Penalty>
2.53185

> <i_epik_Tot_Q>
0

> <i_epik_Tot_abs_Q>
0

> <r_epik_Metal_State_Penalty>
2.53184

> <b_epik_Metal_Only>
0

> <s_lp_Force_Field>
OPLS_2005

> <r_lp_Energy>
25.5635

> <b_lp_Chiralities_Consistent>
1

> <s_lp_Variant>
AV-unprocessed.smi:2695-5

> <Gold.Version>
5.8.1

> <Gold.Id.Protein>
6NUR|6NUR_protein|mol2

> <Gold.PLP.Fitness>
44.4455

> <Gold.PLP.PLP>
-42.2974

> <Gold.PLP.part.hbond>
-2.0000

> <Gold.PLP.part.metal>
0.0000

> <Gold.PLP.part.buried>
-3.7603

> <Gold.PLP.part.nonpolar>
-36.0960

> <Gold.PLP.part.repulsive>
0.0555

> <Gold.PLP.ligand.clash>
0.0000

> <Gold.PLP.ligand.torsion>
0.5129

> <Gold.PLP.Chemscore.Hbond>
0.9440

> <Gold.PLP.Chemscore.CHOScore>
0.0000

> <Gold.PLP.Chemscore.Metal>
0.0000

> <Gold.Chemscore.Hbonds>
donor molecule, donor type, donor heavy atom, donor atom, acceptor molecule, acceptor atom, score
      P1  H  7997  8009       L1     8  0.94

> <Gold.PLP.Chemscore.Internal.Correction>
0.3420

> <Gold.Rescore>
     Score         DG    S(hbond)    S(metal)    S(lipo)     H(rot)  DE(clash)    DE(int)     intcor
      8.77     -11.31       0.87        0.00      78.64       2.45       0.53       2.01       ----

> <Gold.Chemscore.Fitness>
8.7656

> <Gold.Chemscore.DG>
-11.3059

> <Gold.Chemscore.ZeroCoef>
-5.4800

> <Gold.Chemscore.Hbond>
0.8684

> <Gold.Chemscore.Metal>
0.0000

> <Gold.Chemscore.Lipo>
78.6391

> <Gold.Chemscore.Internal_Hbond>
0.0000

> <Gold.Chemscore.DEClash>
0.5308

> <Gold.Chemscore.DEInternal>
2.0096

> <Gold.Chemscore.Rot>
2.4512

> <Gold.Chemscore.Internal.Correction>
   9.000000E+99

> <Gold.Chemscore.Hbonds>
donor molecule, donor type, donor heavy atom, donor atom, acceptor molecule, acceptor atom, score
      P1  H  7997  8009       L1     8  0.41

> <Gold.Chemscore.Hbond.Weighted>
-2.9003

> <Gold.Chemscore.Metal.Weighted>
-0.0000

> <Gold.Chemscore.Lipo.Weighted>
-9.2008

> <Gold.Chemscore.Internal_Hbond.Weighted>
0.0000

> <Gold.Chemscore.DEClash.Weighted>
0.5308

> <Gold.Chemscore.DEInternal.Weighted>
2.0096

> <Gold.Chemscore.Rot.Weighted>
6.2752

> <Gold.Chemscore.Internal.Correction.Weighted>
   9.000000E+99

> <Gold.Protein.RotatedTorsions>
[ 6907 6896 6895 6894 ] final  135.80 input  -60.11 | X-H torsion
[ 7974 7965 7964 7962 ] final -146.61 input  175.53 | X-H torsion
[ 8008 7997 7996 7995 ] final  164.56 input   59.86 | X-H torsion
[ 10167 10162 10161 10158 ] final  173.60 input  -65.29 | X-H torsion
[ 10718 10713 10712 10709 ] final   16.82 input   66.30 | X-H torsion
[ 10763 10752 10751 10750 ] final  -89.29 input  -60.55 | X-H torsion
[ 11005 11000 10999 10996 ] final -160.10 input  -57.11 | X-H torsion

> <Gold.Protein.ActiveResidues>
 VAL166  LYS551  ARG553  GLY616  TRP617  ASP618  TYR619  PRO620  LYS621  CYS622 
 ASP623  PHE694  ASN695  SER759  ASP760  ASP761  ALA762  ILE779  LEU786  VAL792 
 PHE793  MET794  SER795  GLU796  ALA797  LYS798  CYS799  TRP800  GLU811  SER814 

> <Gold.Protein.RotatedAtoms>
  152.2965  133.5612  159.5590 H   0  0  0  0  0  0  0  0  0  0  0  0  # atno 6907 bound_to 6896
  150.7258  134.0354  159.3756 H   0  0  0  0  0  0  0  0  0  0  0  0  # atno 6908 bound_to 6896
  151.8256  135.0638  160.0481 H   0  0  0  0  0  0  0  0  0  0  0  0  # atno 6909 bound_to 6896
  144.8148  140.5434  143.5618 H   0  0  0  0  0  0  0  0  0  0  0  0  # atno 7974 bound_to 7965
  156.1870  140.1693  156.8166 H   0  0  0  0  0  0  0  0  0  0  0  0  # atno 8008 bound_to 7997
  154.5426  140.0733  156.8567 H   0  0  0  0  0  0  0  0  0  0  0  0  # atno 8009 bound_to 7997
  155.3185  140.3372  155.4244 H   0  0  0  0  0  0  0  0  0  0  0  0  # atno 8010 bound_to 7997
  139.5114  144.3242  152.0173 H   0  0  0  0  0  0  0  0  0  0  0  0  # atno 10167 bound_to 10162
  157.0733  130.6357  149.5810 H   0  0  0  0  0  0  0  0  0  0  0  0  # atno 10718 bound_to 10713
  154.6537  135.5346  153.7933 H   0  0  0  0  0  0  0  0  0  0  0  0  # atno 10763 bound_to 10752
  153.0401  135.6489  154.0978 H   0  0  0  0  0  0  0  0  0  0  0  0  # atno 10764 bound_to 10752
  154.0893  135.2941  155.3255 H   0  0  0  0  0  0  0  0  0  0  0  0  # atno 10765 bound_to 10752
  140.6352  134.4609  157.5231 H   0  0  0  0  0  0  0  0  0  0  0  0  # atno 11005 bound_to 11000
  145.5240  139.1476  143.3536 LP  0  0  0  0  0  0  0  0  0  0  0  0  # atno 17320 bound_to 7965
  146.2450  140.5380  142.8917 LP  0  0  0  0  0  0  0  0  0  0  0  0  # atno 17321 bound_to 7965
  140.2683  144.3992  150.6160 LP  0  0  0  0  0  0  0  0  0  0  0  0  # atno 17342 bound_to 10162
  140.6107  143.2169  151.6892 LP  0  0  0  0  0  0  0  0  0  0  0  0  # atno 17343 bound_to 10162
  155.9944  130.5008  150.7419 LP  0  0  0  0  0  0  0  0  0  0  0  0  # atno 17370 bound_to 10713
  157.4860  131.0907  151.0481 LP  0  0  0  0  0  0  0  0  0  0  0  0  # atno 17371 bound_to 10713
  139.9101  134.8364  156.1560 LP  0  0  0  0  0  0  0  0  0  0  0  0  # atno 17394 bound_to 11000
  141.0647  133.6825  156.2020 LP  0  0  0  0  0  0  0  0  0  0  0  0  # atno 17395 bound_to 11000

$$$$
