AV-unprocessed.smi:657|AV-procd|sdf|3226|dock8
  -GOLD-   22720 0163D 1   1.00000     0.00000
 Structure written by MMmdl.
 46 47  0  0  0  0  0  0  0  0  3 V2000
  147.4498  140.3458  154.3388 C   0  0  0  0  0  0  0  0  0  0  0  0
  147.8737  139.2074  153.3902 C   0  0  0  0  0  0  0  0  0  0  0  0
  146.8492  138.9944  152.2625 C   0  0  0  0  0  0  0  0  0  0  0  0
  148.1873  137.9188  154.0963 N   0  3  2  0  0  0  0  0  0  0  0  0
  146.9718  137.2300  154.6230 C   0  0  0  0  0  0  0  0  0  0  0  0
  147.2881  135.8331  155.1705 C   0  0  0  0  0  0  0  0  0  0  0  0
  148.3249  135.9294  156.2892 C   0  0  0  0  0  0  0  0  0  0  0  0
  149.5852  136.6032  155.7439 C   0  0  0  0  0  0  0  0  0  0  0  0
  149.2889  137.9916  155.1190 C   0  0  1  0  0  0  0  0  0  0  0  0
  150.6127  138.5770  154.5802 C   0  0  0  0  0  0  0  0  0  0  0  0
  151.1853  137.9705  153.6696 O   0  0  0  0  0  0  0  0  0  0  0  0
  150.9622  139.7225  155.2330 N   0  5  0  0  0  0  0  0  0  0  0  0
  150.2714  140.2246  156.4170 C   0  0  0  0  0  0  0  0  0  0  0  0
  150.3537  141.7629  156.4523 C   0  0  0  0  0  0  0  0  0  0  0  0
  151.0579  142.2835  157.6812 C   0  0  0  0  0  0  0  0  0  0  0  0
  151.1888  143.6370  158.1099 C   0  0  0  0  0  0  0  0  0  0  0  0
  151.8620  143.7576  159.2426 N   0  0  0  0  0  0  0  0  0  0  0  0
  152.1796  142.4913  159.5804 N   0  0  0  0  0  0  0  0  0  0  0  0
  152.9329  142.2438  160.7909 C   0  0  0  0  0  0  0  0  0  0  0  0
  151.7039  141.5811  158.6615 C   0  0  0  0  0  0  0  0  0  0  0  0
  147.3597  141.2848  153.7922 H   0  0  0  0  0  0  0  0  0  0  0  0
  148.1825  140.5047  155.1298 H   0  0  0  0  0  0  0  0  0  0  0  0
  146.4832  140.1546  154.8049 H   0  0  0  0  0  0  0  0  0  0  0  0
  148.7642  139.5595  152.8735 H   0  0  0  0  0  0  0  0  0  0  0  0
  146.7548  139.8939  151.6535 H   0  0  0  0  0  0  0  0  0  0  0  0
  145.8551  138.7598  152.6416 H   0  0  0  0  0  0  0  0  0  0  0  0
  147.1585  138.1845  151.6009 H   0  0  0  0  0  0  0  0  0  0  0  0
  146.5234  137.8246  155.4194 H   0  0  0  0  0  0  0  0  0  0  0  0
  146.2199  137.1309  153.8417 H   0  0  0  0  0  0  0  0  0  0  0  0
  146.3772  135.3667  155.5474 H   0  0  0  0  0  0  0  0  0  0  0  0
  147.6589  135.1934  154.3686 H   0  0  0  0  0  0  0  0  0  0  0  0
  147.9250  136.5032  157.1262 H   0  0  0  0  0  0  0  0  0  0  0  0
  148.5630  134.9364  156.6716 H   0  0  0  0  0  0  0  0  0  0  0  0
  150.3176  136.7025  156.5464 H   0  0  0  0  0  0  0  0  0  0  0  0
  150.0366  135.9414  155.0027 H   0  0  0  0  0  0  0  0  0  0  0  0
  148.9422  138.6465  155.9198 H   0  0  0  0  0  0  0  0  0  0  0  0
  149.2206  139.9310  156.4291 H   0  0  0  0  0  0  0  0  0  0  0  0
  150.7070  139.8213  157.3318 H   0  0  0  0  0  0  0  0  0  0  0  0
  150.8616  142.1153  155.5536 H   0  0  0  0  0  0  0  0  0  0  0  0
  149.3450  142.1749  156.3968 H   0  0  0  0  0  0  0  0  0  0  0  0
  150.8172  144.5305  157.6301 H   0  0  0  0  0  0  0  0  0  0  0  0
  153.1331  141.1771  160.8961 H   0  0  0  0  0  0  0  0  0  0  0  0
  152.3636  142.5850  161.6559 H   0  0  0  0  0  0  0  0  0  0  0  0
  153.8816  142.7798  160.7514 H   0  0  0  0  0  0  0  0  0  0  0  0
  151.8643  140.5190  158.7756 H   0  0  0  0  0  0  0  0  0  0  0  0
  148.5659  137.3167  153.3785 H   0  0  0  0  0  0  0  0  0  0  0  0
  1  2  1  0  0  0  0
  1 21  1  0  0  0  0
  1 22  1  0  0  0  0
  1 23  1  0  0  0  0
  2  3  1  0  0  0  0
  2  4  1  0  0  0  0
  2 24  1  0  0  0  0
  3 25  1  0  0  0  0
  3 26  1  0  0  0  0
  3 27  1  0  0  0  0
  4  9  1  0  0  0  0
  4  5  1  0  0  0  0
  4 46  1  0  0  0  0
  5  6  1  0  0  0  0
  5 28  1  0  0  0  0
  5 29  1  0  0  0  0
  6  7  1  0  0  0  0
  6 30  1  0  0  0  0
  6 31  1  0  0  0  0
  7  8  1  0  0  0  0
  7 32  1  0  0  0  0
  7 33  1  0  0  0  0
  8  9  1  0  0  0  0
  8 34  1  0  0  0  0
  8 35  1  0  0  0  0
  9 10  1  0  0  0  0
  9 36  1  0  0  0  0
 10 11  2  0  0  0  0
 10 12  1  0  0  0  0
 12 13  1  0  0  0  0
 13 14  1  0  0  0  0
 13 37  1  0  0  0  0
 13 38  1  0  0  0  0
 14 15  1  0  0  0  0
 14 39  1  0  0  0  0
 14 40  1  0  0  0  0
 15 20  2  0  0  0  0
 15 16  1  0  0  0  0
 16 17  2  0  0  0  0
 16 41  1  0  0  0  0
 17 18  1  0  0  0  0
 18 19  1  0  0  0  0
 18 20  1  0  0  0  0
 19 42  1  0  0  0  0
 19 43  1  0  0  0  0
 19 44  1  0  0  0  0
 20 45  1  0  0  0  0
M  CHG  1   4   1
M  CHG  1  12  -1
M  END
> <s_m_source_file>
AV-unprocessed.smi

> <i_m_source_file_index>
657

> <i_lp_mmshare_version>
43012

> <i_f3d_flags>
0

> <s_epik_input>
W0NIM11bQ0hdKFtDSDNdKU4xW0NIMl1bQ0gyXVtDSDJdW0NIMl1bQ0BIXTFDKD1PKVtOSF1bQ0gyXVtDSDJdYzJbY0hdbm4oW0NIM10pW2NIXTI=

> <s_epik_cmdline>
J2VwaWtfcHl0aG9uJywgJy1waCcsICc3LjAnLCAnLXRuJywgJzgnLCAnLW1hJywgJzIwMCcsICctbWV0YWxfYmluZGluZycsICctaW1hZScsICc8aW5maWxlLm1hZT4nLCAnLW9tYWUnLCAnPG91dGZpbGUubWFlPic=

> <r_lp_tautomer_probability>
1

> <r_epik_Ionization_Penalty>
6.1622

> <r_epik_Ionization_Penalty_Charging>
6.16146

> <r_epik_Ionization_Penalty_Neutral>
0.00073675

> <r_epik_State_Penalty>
6.18018

> <r_epik_Charging_Adjusted_Penalty>
12.3416

> <i_epik_Tot_Q>
0

> <i_epik_Tot_abs_Q>
2

> <r_epik_Metal_State_Penalty>
2.12232

> <b_epik_Metal_Only>
1

> <s_lp_Force_Field>
OPLS_2005

> <r_lp_Energy>
11.2403

> <b_lp_Chiralities_Consistent>
1

> <s_lp_Variant>
AV-unprocessed.smi:657-7

> <Gold.Version>
5.8.1

> <Gold.Id.Protein>
6NUR|6NUR_protein|mol2

> <Gold.PLP.Fitness>
41.3524

> <Gold.PLP.PLP>
-30.8348

> <Gold.PLP.part.hbond>
-2.0000

> <Gold.PLP.part.metal>
0.0000

> <Gold.PLP.part.buried>
0.2614

> <Gold.PLP.part.nonpolar>
-29.9903

> <Gold.PLP.part.repulsive>
1.5675

> <Gold.PLP.ligand.clash>
0.0000

> <Gold.PLP.ligand.torsion>
0.6898

> <Gold.PLP.Chemscore.Hbond>
3.0000

> <Gold.PLP.Chemscore.CHOScore>
0.8912

> <Gold.PLP.Chemscore.Metal>
0.0000

> <Gold.Chemscore.Hbonds>
donor molecule, donor type, donor heavy atom, donor atom, acceptor molecule, acceptor atom, score
      L1  H     4    46       P1  7948  2.00
      P1  H  7989  7998       L1    12  0.56
      L1  C    16    41       P1  8028  0.49

> <Gold.PLP.Chemscore.Internal.Correction>
0.2235

> <Gold.Rescore>
     Score         DG    S(hbond)    S(metal)    S(lipo)     H(rot)  DE(clash)    DE(int)     intcor
     14.75     -16.67       1.54        0.00      86.10       1.57       1.31       0.62       ----

> <Gold.Chemscore.Fitness>
14.7488

> <Gold.Chemscore.DG>
-16.6744

> <Gold.Chemscore.ZeroCoef>
-5.4800

> <Gold.Chemscore.Hbond>
1.5419

> <Gold.Chemscore.Metal>
0.0000

> <Gold.Chemscore.Lipo>
86.1048

> <Gold.Chemscore.Internal_Hbond>
0.0000

> <Gold.Chemscore.DEClash>
1.3087

> <Gold.Chemscore.DEInternal>
0.6169

> <Gold.Chemscore.Rot>
1.5741

> <Gold.Chemscore.Internal.Correction>
   9.000000E+99

> <Gold.Chemscore.Hbonds>
donor molecule, donor type, donor heavy atom, donor atom, acceptor molecule, acceptor atom, score
      L1  H     4    46       P1  7948  1.00
      P1  H  7989  7998       L1    12  0.11

> <Gold.Chemscore.Hbond.Weighted>
-5.1498

> <Gold.Chemscore.Metal.Weighted>
-0.0000

> <Gold.Chemscore.Lipo.Weighted>
-10.0743

> <Gold.Chemscore.Internal_Hbond.Weighted>
0.0000

> <Gold.Chemscore.DEClash.Weighted>
1.3087

> <Gold.Chemscore.DEInternal.Weighted>
0.6169

> <Gold.Chemscore.Rot.Weighted>
4.0297

> <Gold.Chemscore.Internal.Correction.Weighted>
   9.000000E+99

> <Gold.Protein.RotatedTorsions>
[ 6907 6896 6895 6894 ] final  -50.39 input  -60.11 | X-H torsion
[ 7974 7965 7964 7962 ] final  164.39 input  175.53 | X-H torsion
[ 8008 7997 7996 7995 ] final -145.72 input   59.86 | X-H torsion
[ 10167 10162 10161 10158 ] final  147.88 input  -65.29 | X-H torsion
[ 10718 10713 10712 10709 ] final -104.49 input   66.30 | X-H torsion
[ 10763 10752 10751 10750 ] final  -96.96 input  -60.55 | X-H torsion
[ 11005 11000 10999 10996 ] final -120.38 input  -57.11 | X-H torsion

> <Gold.Protein.ActiveResidues>
 VAL166  LYS551  ARG553  GLY616  TRP617  ASP618  TYR619  PRO620  LYS621  CYS622 
 ASP623  PHE694  ASN695  SER759  ASP760  ASP761  ALA762  ILE779  LEU786  VAL792 
 PHE793  MET794  SER795  GLU796  ALA797  LYS798  CYS799  TRP800  GLU811  SER814 

> <Gold.Protein.RotatedAtoms>
  150.8711  134.8085  159.7155 H   0  0  0  0  0  0  0  0  0  0  0  0  # atno 6907 bound_to 6896
  152.4715  134.4945  159.9715 H   0  0  0  0  0  0  0  0  0  0  0  0  # atno 6908 bound_to 6896
  151.5033  133.3461  159.2908 H   0  0  0  0  0  0  0  0  0  0  0  0  # atno 6909 bound_to 6896
  144.7547  139.8319  143.6354 H   0  0  0  0  0  0  0  0  0  0  0  0  # atno 7974 bound_to 7965
  155.5478  140.0614  157.2856 H   0  0  0  0  0  0  0  0  0  0  0  0  # atno 8008 bound_to 7997
  154.4430  140.1908  156.0700 H   0  0  0  0  0  0  0  0  0  0  0  0  # atno 8009 bound_to 7997
  156.0538  140.3281  155.7385 H   0  0  0  0  0  0  0  0  0  0  0  0  # atno 8010 bound_to 7997
  139.4883  144.5722  151.7034 H   0  0  0  0  0  0  0  0  0  0  0  0  # atno 10167 bound_to 10162
  156.0307  130.5518  150.7404 H   0  0  0  0  0  0  0  0  0  0  0  0  # atno 10718 bound_to 10713
  154.7286  135.5064  153.8926 H   0  0  0  0  0  0  0  0  0  0  0  0  # atno 10763 bound_to 10752
  153.0928  135.6664  153.9830 H   0  0  0  0  0  0  0  0  0  0  0  0  # atno 10764 bound_to 10752
  153.9636  135.3045  155.3411 H   0  0  0  0  0  0  0  0  0  0  0  0  # atno 10765 bound_to 10752
  141.0148  134.0212  157.3365 H   0  0  0  0  0  0  0  0  0  0  0  0  # atno 11005 bound_to 11000
  146.1543  139.4636  143.0029 LP  0  0  0  0  0  0  0  0  0  0  0  0  # atno 17320 bound_to 7965
  145.6820  141.0188  143.1601 LP  0  0  0  0  0  0  0  0  0  0  0  0  # atno 17321 bound_to 7965
  140.5311  144.0729  150.6054 LP  0  0  0  0  0  0  0  0  0  0  0  0  # atno 17342 bound_to 10162
  140.3719  143.2850  152.0268 LP  0  0  0  0  0  0  0  0  0  0  0  0  # atno 17343 bound_to 10162
  157.4974  131.0916  151.0355 LP  0  0  0  0  0  0  0  0  0  0  0  0  # atno 17370 bound_to 10713
  157.0745  130.5877  149.5408 LP  0  0  0  0  0  0  0  0  0  0  0  0  # atno 17371 bound_to 10713
  139.9110  135.0190  156.7692 LP  0  0  0  0  0  0  0  0  0  0  0  0  # atno 17394 bound_to 11000
  140.6674  133.9590  155.7837 LP  0  0  0  0  0  0  0  0  0  0  0  0  # atno 17395 bound_to 11000

$$$$
