AV-unprocessed.smi:1889|AV-procd|sdf|7661|dock4
  -GOLD-   22720 9393D 1   1.00000     0.00000
 Structure written by MMmdl.
 35 36  0  0  0  0  0  0  0  0  2 V2000
  141.8422  134.4501  163.8051 C   0  0  0  0  0  0  0  0  0  0  0  0
  143.0121  135.1144  163.0710 C   0  0  0  0  0  0  0  0  0  0  0  0
  144.2738  134.2398  163.0609 C   0  0  0  0  0  0  0  0  0  0  0  0
  145.4138  134.8854  162.3464 C   0  0  0  0  0  0  0  0  0  0  0  0
  146.6286  134.3351  162.2722 N   0  0  0  0  0  0  0  0  0  0  0  0
  147.5244  135.1366  161.5794 N   0  0  0  0  0  0  0  0  0  0  0  0
  146.9793  136.2827  161.1477 C   0  0  0  0  0  0  0  0  0  0  0  0
  147.6800  137.2014  160.4625 N   0  5  0  0  0  0  0  0  0  0  0  0
  148.5233  136.8124  159.4792 C   0  0  0  0  0  0  0  0  0  0  0  0
  149.0293  135.6951  159.3517 O   0  0  0  0  0  0  0  0  0  0  0  0
  148.7895  137.7759  158.5852 N   0  0  0  0  0  0  0  0  0  0  0  0
  149.6498  137.6536  157.4112 C   0  0  0  0  0  0  0  0  0  0  0  0
  149.8051  138.9955  156.6705 C   0  0  2  0  0  0  0  0  0  0  0  0
  148.6662  139.3567  155.7362 C   0  0  0  0  0  0  0  0  0  0  0  0
  149.3122  140.4044  154.8343 C   0  0  0  0  0  0  0  0  0  0  0  0
  150.6985  140.0774  154.7812 O   0  0  0  0  0  0  0  0  0  0  0  0
  150.9883  139.0328  155.7048 C   0  0  0  0  0  0  0  0  0  0  0  0
  145.2828  136.4656  161.5929 S   0  0  0  0  0  0  0  0  0  0  0  0
  140.9626  135.0941  163.7960 H   0  0  0  0  0  0  0  0  0  0  0  0
  142.0953  134.2468  164.8460 H   0  0  0  0  0  0  0  0  0  0  0  0
  141.5679  133.5054  163.3349 H   0  0  0  0  0  0  0  0  0  0  0  0
  142.7130  135.3347  162.0456 H   0  0  0  0  0  0  0  0  0  0  0  0
  143.2349  136.0729  163.5412 H   0  0  0  0  0  0  0  0  0  0  0  0
  144.5828  134.0145  164.0825 H   0  0  0  0  0  0  0  0  0  0  0  0
  144.0626  133.2837  162.5811 H   0  0  0  0  0  0  0  0  0  0  0  0
  148.3517  138.6734  158.7340 H   0  0  0  0  0  0  0  0  0  0  0  0
  150.6273  137.3158  157.7555 H   0  0  0  0  0  0  0  0  0  0  0  0
  149.2827  136.8784  156.7364 H   0  0  0  0  0  0  0  0  0  0  0  0
  149.9273  139.7993  157.3987 H   0  0  0  0  0  0  0  0  0  0  0  0
  148.3699  138.4884  155.1456 H   0  0  0  0  0  0  0  0  0  0  0  0
  147.7842  139.7318  156.2563 H   0  0  0  0  0  0  0  0  0  0  0  0
  148.8693  140.4232  153.8382 H   0  0  0  0  0  0  0  0  0  0  0  0
  149.2078  141.3989  155.2700 H   0  0  0  0  0  0  0  0  0  0  0  0
  151.9380  139.2028  156.2127 H   0  0  0  0  0  0  0  0  0  0  0  0
  151.0646  138.0958  155.1512 H   0  0  0  0  0  0  0  0  0  0  0  0
  1  2  1  0  0  0  0
  1 19  1  0  0  0  0
  1 20  1  0  0  0  0
  1 21  1  0  0  0  0
  2  3  1  0  0  0  0
  2 22  1  0  0  0  0
  2 23  1  0  0  0  0
  3  4  1  0  0  0  0
  3 24  1  0  0  0  0
  3 25  1  0  0  0  0
  4 18  1  0  0  0  0
  4  5  2  0  0  0  0
  5  6  1  0  0  0  0
  6  7  2  0  0  0  0
  7  8  1  0  0  0  0
  7 18  1  0  0  0  0
  8  9  1  0  0  0  0
  9 10  2  0  0  0  0
  9 11  1  0  0  0  0
 11 12  1  0  0  0  0
 11 26  1  0  0  0  0
 12 13  1  0  0  0  0
 12 27  1  0  0  0  0
 12 28  1  0  0  0  0
 13 17  1  0  0  0  0
 13 14  1  0  0  0  0
 13 29  1  0  0  0  0
 14 15  1  0  0  0  0
 14 30  1  0  0  0  0
 14 31  1  0  0  0  0
 15 16  1  0  0  0  0
 15 32  1  0  0  0  0
 15 33  1  0  0  0  0
 16 17  1  0  0  0  0
 17 34  1  0  0  0  0
 17 35  1  0  0  0  0
M  CHG  1   8  -1
M  END
> <s_m_source_file>
AV-unprocessed.smi

> <i_m_source_file_index>
1889

> <i_lp_mmshare_version>
43012

> <i_f3d_flags>
0

> <s_epik_input>
W0NIM11bQ0gyXVtDSDJdYzFubmMoczEpW05IXUMoPU8pW05IXVtDSDJdW0NAQEhdMltDSDJdW0NIMl1PW0NIMl0y

> <s_epik_cmdline>
J2VwaWtfcHl0aG9uJywgJy1waCcsICc3LjAnLCAnLXRuJywgJzgnLCAnLW1hJywgJzIwMCcsICctbWV0YWxfYmluZGluZycsICctaW1hZScsICc8aW5maWxlLm1hZT4nLCAnLW9tYWUnLCAnPG91dGZpbGUubWFlPic=

> <r_lp_tautomer_probability>
1

> <r_epik_Ionization_Penalty>
4.29669

> <r_epik_Ionization_Penalty_Charging>
4.28522

> <r_epik_Ionization_Penalty_Neutral>
0.0114689

> <r_epik_State_Penalty>
4.28479

> <r_epik_Charging_Adjusted_Penalty>
8.57002

> <i_epik_Tot_Q>
-1

> <i_epik_Tot_abs_Q>
1

> <r_epik_Metal_State_Penalty>
0.72177

> <b_epik_Metal_Only>
1

> <s_lp_Force_Field>
OPLS_2005

> <r_lp_Energy>
11.5011

> <b_lp_Chiralities_Consistent>
1

> <s_lp_Variant>
AV-unprocessed.smi:1889-3

> <Gold.Version>
5.8.1

> <Gold.Id.Protein>
6NUR|6NUR_protein|mol2

> <Gold.PLP.Fitness>
42.8102

> <Gold.PLP.PLP>
-28.3281

> <Gold.PLP.part.hbond>
-4.0000

> <Gold.PLP.part.metal>
0.0000

> <Gold.PLP.part.buried>
-5.9194

> <Gold.PLP.part.nonpolar>
-19.1340

> <Gold.PLP.part.repulsive>
0.2311

> <Gold.PLP.ligand.clash>
0.0000

> <Gold.PLP.ligand.torsion>
0.6399

> <Gold.PLP.Chemscore.Hbond>
5.2240

> <Gold.PLP.Chemscore.CHOScore>
0.0000

> <Gold.PLP.Chemscore.Metal>
0.0000

> <Gold.Chemscore.Hbonds>
donor molecule, donor type, donor heavy atom, donor atom, acceptor molecule, acceptor atom, score
      P1  H  6896  6907       L1    10  1.00
      P1  H  6931  6943       L1     8  0.72
      P1  H  6934  6947       L1     8  1.86
      P1  H  7989  7998       L1    16  1.00

> <Gold.PLP.Chemscore.Internal.Correction>
0.0898

> <Gold.Rescore>
     Score         DG    S(hbond)    S(metal)    S(lipo)     H(rot)  DE(clash)    DE(int)     intcor
     16.16     -18.11       3.04        0.00      56.06       1.59       0.00       1.96       ----

> <Gold.Chemscore.Fitness>
16.1554

> <Gold.Chemscore.DG>
-18.1122

> <Gold.Chemscore.ZeroCoef>
-5.4800

> <Gold.Chemscore.Hbond>
3.0386

> <Gold.Chemscore.Metal>
0.0000

> <Gold.Chemscore.Lipo>
56.0619

> <Gold.Chemscore.Internal_Hbond>
0.0000

> <Gold.Chemscore.DEClash>
0.0004

> <Gold.Chemscore.DEInternal>
1.9564

> <Gold.Chemscore.Rot>
1.5922

> <Gold.Chemscore.Internal.Correction>
   9.000000E+99

> <Gold.Chemscore.Hbonds>
donor molecule, donor type, donor heavy atom, donor atom, acceptor molecule, acceptor atom, score
      P1  H  6896  6907       L1    10  0.98
      P1  H  6931  6943       L1     8  0.10
      P1  H  6934  6947       L1     8  0.76
      P1  H  7989  7998       L1    16  0.93

> <Gold.Chemscore.Hbond.Weighted>
-10.1491

> <Gold.Chemscore.Metal.Weighted>
-0.0000

> <Gold.Chemscore.Lipo.Weighted>
-6.5592

> <Gold.Chemscore.Internal_Hbond.Weighted>
0.0000

> <Gold.Chemscore.DEClash.Weighted>
0.0004

> <Gold.Chemscore.DEInternal.Weighted>
1.9564

> <Gold.Chemscore.Rot.Weighted>
4.0761

> <Gold.Chemscore.Internal.Correction.Weighted>
   9.000000E+99

> <Gold.Protein.RotatedTorsions>
[ 6907 6896 6895 6894 ] final  -59.20 input  -60.11 | X-H torsion
[ 7974 7965 7964 7962 ] final  147.57 input  175.53 | X-H torsion
[ 8008 7997 7996 7995 ] final   -2.63 input   59.86 | X-H torsion
[ 10167 10162 10161 10158 ] final  167.92 input  -65.29 | X-H torsion
[ 10718 10713 10712 10709 ] final   -7.39 input   66.30 | X-H torsion
[ 10763 10752 10751 10750 ] final  -72.44 input  -60.55 | X-H torsion
[ 11005 11000 10999 10996 ] final -110.59 input  -57.11 | X-H torsion

> <Gold.Protein.ActiveResidues>
 VAL166  LYS551  ARG553  GLY616  TRP617  ASP618  TYR619  PRO620  LYS621  CYS622 
 ASP623  PHE694  ASN695  SER759  ASP760  ASP761  ALA762  ILE779  LEU786  VAL792 
 PHE793  MET794  SER795  GLU796  ALA797  LYS798  CYS799  TRP800  GLU811  SER814 

> <Gold.Protein.RotatedAtoms>
  150.7948  134.6999  159.6543 H   0  0  0  0  0  0  0  0  0  0  0  0  # atno 6907 bound_to 6896
  152.4059  134.6205  160.0059 H   0  0  0  0  0  0  0  0  0  0  0  0  # atno 6908 bound_to 6896
  151.6462  133.3286  159.3177 H   0  0  0  0  0  0  0  0  0  0  0  0  # atno 6909 bound_to 6896
  144.8581  139.6045  143.5943 H   0  0  0  0  0  0  0  0  0  0  0  0  # atno 7974 bound_to 7965
  154.6337  140.2529  155.7404 H   0  0  0  0  0  0  0  0  0  0  0  0  # atno 8008 bound_to 7997
  156.2493  140.2902  156.0619 H   0  0  0  0  0  0  0  0  0  0  0  0  # atno 8009 bound_to 7997
  155.1705  140.0386  157.2852 H   0  0  0  0  0  0  0  0  0  0  0  0  # atno 8010 bound_to 7997
  139.4956  144.3870  151.9559 H   0  0  0  0  0  0  0  0  0  0  0  0  # atno 10167 bound_to 10162
  156.7179  130.5142  149.5875 H   0  0  0  0  0  0  0  0  0  0  0  0  # atno 10718 bound_to 10713
  154.4457  135.5930  153.6158 H   0  0  0  0  0  0  0  0  0  0  0  0  # atno 10763 bound_to 10752
  152.9809  135.6009  154.3667 H   0  0  0  0  0  0  0  0  0  0  0  0  # atno 10764 bound_to 10752
  154.3522  135.2841  155.2344 H   0  0  0  0  0  0  0  0  0  0  0  0  # atno 10765 bound_to 10752
  141.0783  133.9263  157.2343 H   0  0  0  0  0  0  0  0  0  0  0  0  # atno 11005 bound_to 11000
  146.2839  139.6951  142.9209 LP  0  0  0  0  0  0  0  0  0  0  0  0  # atno 17320 bound_to 7965
  145.4366  141.0419  143.2881 LP  0  0  0  0  0  0  0  0  0  0  0  0  # atno 17321 bound_to 7965
  140.3307  144.3319  150.5988 LP  0  0  0  0  0  0  0  0  0  0  0  0  # atno 17342 bound_to 10162
  140.5647  143.2187  151.7704 LP  0  0  0  0  0  0  0  0  0  0  0  0  # atno 17343 bound_to 10162
  156.1615  130.6377  151.0725 LP  0  0  0  0  0  0  0  0  0  0  0  0  # atno 17370 bound_to 10713
  157.6910  131.0810  150.7108 LP  0  0  0  0  0  0  0  0  0  0  0  0  # atno 17371 bound_to 10713
  139.9596  135.0157  156.9224 LP  0  0  0  0  0  0  0  0  0  0  0  0  # atno 17394 bound_to 11000
  140.5524  134.0614  155.7373 LP  0  0  0  0  0  0  0  0  0  0  0  0  # atno 17395 bound_to 11000

$$$$
