AV-unprocessed.smi:135|AV-procd|sdf|1169|dock1
  -GOLD-   2262018313D 1   1.00000     0.00000
 Structure written by MMmdl.
 51 54  0  0  0  0  0  0  0  0  1 V2000
  151.5239  137.2001  160.0135 O   0  0  0  0  0  0  0  0  0  0  0  0
  151.4326  137.4714  158.8155 C   0  0  0  0  0  0  0  0  0  0  0  0
  152.5242  138.2947  158.1149 C   0  0  0  0  0  0  0  0  0  0  0  0
  152.1780  139.7248  157.9667 N   0  0  0  0  0  0  0  0  0  0  0  0
  151.2594  140.0955  156.9539 C   0  0  0  0  0  0  0  0  0  0  0  0
  150.7502  139.2525  156.2140 O   0  0  0  0  0  0  0  0  0  0  0  0
  150.9766  141.5225  156.8524 C   0  0  0  0  0  0  0  0  0  0  0  0
  150.1205  141.9655  155.9160 F   0  0  0  0  0  0  0  0  0  0  0  0
  151.5632  142.4091  157.6828 C   0  0  0  0  0  0  0  0  0  0  0  0
  152.4545  142.0327  158.6725 N   0  0  0  0  0  0  0  0  0  0  0  0
  153.1301  143.0449  159.5761 C   0  0  2  0  0  0  0  0  0  0  0  0
  152.7848  142.7777  161.0557 C   0  0  0  0  0  0  0  0  0  0  0  0
  152.2424  144.1136  161.5253 C   0  0  0  0  0  0  0  0  0  0  0  0
  151.6812  144.6987  160.2387 C   0  0  0  0  0  0  0  0  0  0  0  0
  152.6648  144.3313  159.2814 O   0  0  0  0  0  0  0  0  0  0  0  0
  152.7958  140.6702  158.8194 C   0  0  0  0  0  0  0  0  0  0  0  0
  153.6162  140.3177  159.6696 O   0  0  0  0  0  0  0  0  0  0  0  0
  150.4114  137.0906  158.0291 N   0  0  0  0  0  0  0  0  0  0  0  0
  149.2873  136.2987  158.3836 C   0  0  0  0  0  0  0  0  0  0  0  0
  148.7335  136.3180  159.6861 C   0  0  0  0  0  0  0  0  0  0  0  0
  147.5925  135.5493  159.9844 C   0  0  0  0  0  0  0  0  0  0  0  0
  146.9878  134.7670  158.9834 C   0  0  0  0  0  0  0  0  0  0  0  0
  147.5249  134.7541  157.6827 C   0  0  0  0  0  0  0  0  0  0  0  0
  148.6744  135.5120  157.3786 C   0  0  0  0  0  0  0  0  0  0  0  0
  149.1747  135.4780  156.1006 O   0  0  0  0  0  0  0  0  0  0  0  0
  149.5116  134.2491  155.5902 C   0  0  0  0  0  0  0  0  0  0  0  0
  150.4615  133.4243  156.2326 C   0  0  0  0  0  0  0  0  0  0  0  0
  150.7923  132.1682  155.6878 C   0  0  0  0  0  0  0  0  0  0  0  0
  150.1724  131.7287  154.5023 C   0  0  0  0  0  0  0  0  0  0  0  0
  149.2173  132.5433  153.8646 C   0  0  0  0  0  0  0  0  0  0  0  0
  148.8856  133.7987  154.4098 C   0  0  0  0  0  0  0  0  0  0  0  0
  153.4622  138.1836  158.6620 H   0  0  0  0  0  0  0  0  0  0  0  0
  152.7286  137.8336  157.1475 H   0  0  0  0  0  0  0  0  0  0  0  0
  151.3142  143.4506  157.5484 H   0  0  0  0  0  0  0  0  0  0  0  0
  154.1943  142.9746  159.3442 H   0  0  0  0  0  0  0  0  0  0  0  0
  152.0177  142.0060  161.1356 H   0  0  0  0  0  0  0  0  0  0  0  0
  153.6677  142.4580  161.6096 H   0  0  0  0  0  0  0  0  0  0  0  0
  151.4952  144.0188  162.3135 H   0  0  0  0  0  0  0  0  0  0  0  0
  153.0554  144.7394  161.8958 H   0  0  0  0  0  0  0  0  0  0  0  0
  150.7219  144.2429  159.9895 H   0  0  0  0  0  0  0  0  0  0  0  0
  151.5494  145.7795  160.2867 H   0  0  0  0  0  0  0  0  0  0  0  0
  150.5105  137.2897  157.0443 H   0  0  0  0  0  0  0  0  0  0  0  0
  149.1634  136.9306  160.4643 H   0  0  0  0  0  0  0  0  0  0  0  0
  147.1755  135.5678  160.9805 H   0  0  0  0  0  0  0  0  0  0  0  0
  146.1095  134.1815  159.2116 H   0  0  0  0  0  0  0  0  0  0  0  0
  147.0567  134.1560  156.9149 H   0  0  0  0  0  0  0  0  0  0  0  0
  150.9406  133.7529  157.1428 H   0  0  0  0  0  0  0  0  0  0  0  0
  151.5222  131.5421  156.1793 H   0  0  0  0  0  0  0  0  0  0  0  0
  150.4281  130.7666  154.0835 H   0  0  0  0  0  0  0  0  0  0  0  0
  148.7408  132.2068  152.9558 H   0  0  0  0  0  0  0  0  0  0  0  0
  148.1547  134.4213  153.9154 H   0  0  0  0  0  0  0  0  0  0  0  0
  1  2  2  0  0  0  0
  2  3  1  0  0  0  0
  2 18  1  0  0  0  0
  3  4  1  0  0  0  0
  3 32  1  0  0  0  0
  3 33  1  0  0  0  0
  4 16  1  0  0  0  0
  4  5  1  0  0  0  0
  5  6  2  0  0  0  0
  5  7  1  0  0  0  0
  7  8  1  0  0  0  0
  7  9  2  0  0  0  0
  9 10  1  0  0  0  0
  9 34  1  0  0  0  0
 10 11  1  0  0  0  0
 10 16  1  0  0  0  0
 11 15  1  0  0  0  0
 11 12  1  0  0  0  0
 11 35  1  0  0  0  0
 12 13  1  0  0  0  0
 12 36  1  0  0  0  0
 12 37  1  0  0  0  0
 13 14  1  0  0  0  0
 13 38  1  0  0  0  0
 13 39  1  0  0  0  0
 14 15  1  0  0  0  0
 14 40  1  0  0  0  0
 14 41  1  0  0  0  0
 16 17  2  0  0  0  0
 18 19  1  0  0  0  0
 18 42  1  0  0  0  0
 19 24  1  0  0  0  0
 19 20  2  0  0  0  0
 20 21  1  0  0  0  0
 20 43  1  0  0  0  0
 21 22  2  0  0  0  0
 21 44  1  0  0  0  0
 22 23  1  0  0  0  0
 22 45  1  0  0  0  0
 23 24  2  0  0  0  0
 23 46  1  0  0  0  0
 24 25  1  0  0  0  0
 25 26  1  0  0  0  0
 26 31  1  0  0  0  0
 26 27  2  0  0  0  0
 27 28  1  0  0  0  0
 27 47  1  0  0  0  0
 28 29  2  0  0  0  0
 28 48  1  0  0  0  0
 29 30  1  0  0  0  0
 29 49  1  0  0  0  0
 30 31  2  0  0  0  0
 30 50  1  0  0  0  0
 31 51  1  0  0  0  0
M  END
> <s_m_source_file>
AV-unprocessed.smi

> <i_m_source_file_index>
135

> <i_lp_mmshare_version>
43012

> <i_f3d_flags>
0

> <s_epik_input>
TzFbQ0gyXVtDSDJdW0NIMl1bQ0BIXTFuKGMyPU8pW2NIXWMoRiljKD1PKW4yW0NIMl1DKD1PKVtOSF1jM1tjSF1bY0hdW2NIXVtjSF1jM09jNFtjSF1bY0hdW2NIXVtjSF1bY0hdNA==

> <s_epik_cmdline>
J2VwaWtfcHl0aG9uJywgJy1waCcsICc3LjAnLCAnLXRuJywgJzgnLCAnLW1hJywgJzIwMCcsICctbWV0YWxfYmluZGluZycsICctaW1hZScsICc8aW5maWxlLm1hZT4nLCAnLW9tYWUnLCAnPG91dGZpbGUubWFlPic=

> <r_lp_tautomer_probability>
1

> <r_epik_Ionization_Penalty>
1.89877e-06

> <r_epik_Ionization_Penalty_Charging>
3.88729e-08

> <r_epik_Ionization_Penalty_Neutral>
1.8599e-06

> <r_epik_State_Penalty>
-0

> <r_epik_Charging_Adjusted_Penalty>
3.88729e-08

> <i_epik_Tot_Q>
0

> <i_epik_Tot_abs_Q>
0

> <r_epik_Metal_State_Penalty>
-0

> <b_epik_Metal_Only>
0

> <s_epik_Chemistry_Notes>
This compound contains an acetal/aminal-like group ( X-CH(R)-Y where X, Y are N, S, or O) that may be acid/base labile, releasing an aldehyde.

> <s_lp_Force_Field>
OPLS_2005

> <r_lp_Energy>
40.0565

> <b_lp_Chiralities_Consistent>
1

> <s_lp_Variant>
AV-unprocessed.smi:135-1

> <Gold.Version>
5.8.1

> <Gold.Id.Protein>
6NUR|6NUR_protein|mol2

> <Gold.PLP.Fitness>
51.8008

> <Gold.PLP.PLP>
-50.1851

> <Gold.PLP.part.hbond>
-1.0000

> <Gold.PLP.part.metal>
0.0000

> <Gold.PLP.part.buried>
-6.9200

> <Gold.PLP.part.nonpolar>
-42.6606

> <Gold.PLP.part.repulsive>
0.1259

> <Gold.PLP.ligand.clash>
0.0000

> <Gold.PLP.ligand.torsion>
0.7126

> <Gold.PLP.Chemscore.Hbond>
0.9750

> <Gold.PLP.Chemscore.CHOScore>
0.0000

> <Gold.PLP.Chemscore.Metal>
0.0000

> <Gold.Chemscore.Hbonds>
donor molecule, donor type, donor heavy atom, donor atom, acceptor molecule, acceptor atom, score
      P1  H  6896  6907       L1     1  0.94

> <Gold.PLP.Chemscore.Internal.Correction>
0.1160

> <Gold.Rescore>
     Score         DG    S(hbond)    S(metal)    S(lipo)     H(rot)  DE(clash)    DE(int)     intcor
     12.79     -16.01       1.07        0.00     103.94       2.04       0.21       3.01       ----

> <Gold.Chemscore.Fitness>
12.7944

> <Gold.Chemscore.DG>
-16.0073

> <Gold.Chemscore.ZeroCoef>
-5.4800

> <Gold.Chemscore.Hbond>
1.0725

> <Gold.Chemscore.Metal>
0.0000

> <Gold.Chemscore.Lipo>
103.9448

> <Gold.Chemscore.Internal_Hbond>
0.0000

> <Gold.Chemscore.DEClash>
0.2052

> <Gold.Chemscore.DEInternal>
3.0077

> <Gold.Chemscore.Rot>
2.0377

> <Gold.Chemscore.Internal.Correction>
   9.000000E+99

> <Gold.Chemscore.Hbonds>
donor molecule, donor type, donor heavy atom, donor atom, acceptor molecule, acceptor atom, score
      P1  H  6896  6907       L1     1  0.23

> <Gold.Chemscore.Hbond.Weighted>
-3.5823

> <Gold.Chemscore.Metal.Weighted>
-0.0000

> <Gold.Chemscore.Lipo.Weighted>
-12.1615

> <Gold.Chemscore.Internal_Hbond.Weighted>
0.0000

> <Gold.Chemscore.DEClash.Weighted>
0.2052

> <Gold.Chemscore.DEInternal.Weighted>
3.0077

> <Gold.Chemscore.Rot.Weighted>
5.2165

> <Gold.Chemscore.Internal.Correction.Weighted>
   9.000000E+99

> <Gold.Protein.RotatedTorsions>
[ 6907 6896 6895 6894 ] final  -14.12 input  -60.11 | X-H torsion
[ 7974 7965 7964 7962 ] final    1.84 input  175.53 | X-H torsion
[ 8008 7997 7996 7995 ] final -129.72 input   59.86 | X-H torsion
[ 10167 10162 10161 10158 ] final   37.91 input  -65.29 | X-H torsion
[ 10718 10713 10712 10709 ] final -106.11 input   66.30 | X-H torsion
[ 10763 10752 10751 10750 ] final  179.02 input  -60.55 | X-H torsion
[ 11005 11000 10999 10996 ] final  -95.27 input  -57.11 | X-H torsion

> <Gold.Protein.ActiveResidues>
 VAL166  LYS551  ARG553  GLY616  TRP617  ASP618  TYR619  PRO620  LYS621  CYS622 
 ASP623  PHE694  ASN695  SER759  ASP760  ASP761  ALA762  ILE779  LEU786  VAL792 
 PHE793  MET794  SER795  GLU796  ALA797  LYS798  CYS799  TRP800  GLU811  SER814 

> <Gold.Protein.RotatedAtoms>
  151.3443  135.0870  159.9381 H   0  0  0  0  0  0  0  0  0  0  0  0  # atno 6907 bound_to 6896
  152.5203  133.9416  159.7639 H   0  0  0  0  0  0  0  0  0  0  0  0  # atno 6908 bound_to 6896
  150.9779  133.6222  159.2757 H   0  0  0  0  0  0  0  0  0  0  0  0  # atno 6909 bound_to 6896
  146.2442  140.0927  142.8351 H   0  0  0  0  0  0  0  0  0  0  0  0  # atno 7974 bound_to 7965
  155.2839  140.0445  157.3018 H   0  0  0  0  0  0  0  0  0  0  0  0  # atno 8008 bound_to 7997
  154.5580  140.2337  155.8347 H   0  0  0  0  0  0  0  0  0  0  0  0  # atno 8009 bound_to 7997
  156.2024  140.3022  155.9562 H   0  0  0  0  0  0  0  0  0  0  0  0  # atno 8010 bound_to 7997
  140.3987  144.1753  150.6133 H   0  0  0  0  0  0  0  0  0  0  0  0  # atno 10167 bound_to 10162
  156.0375  130.5597  150.7635 H   0  0  0  0  0  0  0  0  0  0  0  0  # atno 10718 bound_to 10713
  154.5152  135.2791  155.1309 H   0  0  0  0  0  0  0  0  0  0  0  0  # atno 10763 bound_to 10752
  154.2888  135.6271  153.5380 H   0  0  0  0  0  0  0  0  0  0  0  0  # atno 10764 bound_to 10752
  152.9926  135.5669  154.5628 H   0  0  0  0  0  0  0  0  0  0  0  0  # atno 10765 bound_to 10752
  141.1447  133.8014  157.0412 H   0  0  0  0  0  0  0  0  0  0  0  0  # atno 11005 bound_to 11000
  145.0637  140.9106  143.4923 LP  0  0  0  0  0  0  0  0  0  0  0  0  # atno 17320 bound_to 7965
  145.1047  139.2798  143.5668 LP  0  0  0  0  0  0  0  0  0  0  0  0  # atno 17321 bound_to 7965
  140.4762  143.2395  151.9019 LP  0  0  0  0  0  0  0  0  0  0  0  0  # atno 17342 bound_to 10162
  139.4785  144.5317  151.8656 LP  0  0  0  0  0  0  0  0  0  0  0  0  # atno 17343 bound_to 10162
  157.5148  131.0928  151.0153 LP  0  0  0  0  0  0  0  0  0  0  0  0  # atno 17370 bound_to 10713
  157.0499  130.5783  149.5369 LP  0  0  0  0  0  0  0  0  0  0  0  0  # atno 17371 bound_to 10713
  140.0691  134.9712  157.1437 LP  0  0  0  0  0  0  0  0  0  0  0  0  # atno 17394 bound_to 11000
  140.3736  134.2363  155.7176 LP  0  0  0  0  0  0  0  0  0  0  0  0  # atno 17395 bound_to 11000

$$$$
