AV-unprocessed.smi:1433|AV-procd|sdf|5840|dock5
  -GOLD-   22720 5503D 1   1.00000     0.00000
 Structure written by MMmdl.
 44 45  0  0  0  0  0  0  0  0  1 V2000
  153.6431  141.6962  160.9017 C   0  0  0  0  0  0  0  0  0  0  0  0
  152.8096  142.1433  159.6962 C   0  0  1  0  0  0  0  0  0  0  0  0
  151.6380  141.1848  159.4161 C   0  0  0  0  0  0  0  0  0  0  0  0
  150.7783  141.6395  158.3192 N   0  0  0  0  0  0  0  0  0  0  0  0
  149.6591  140.7088  158.0409 C   0  0  1  0  0  0  0  0  0  0  0  0
  148.9454  141.0170  156.6982 C   0  0  0  0  0  0  0  0  0  0  0  0
  150.0834  139.2139  158.0508 C   0  0  0  0  0  0  0  0  0  0  0  0
  148.9778  138.3310  158.4016 N   0  0  0  0  0  0  0  0  0  0  0  0
  149.1035  137.1322  158.9892 C   0  0  0  0  0  0  0  0  0  0  0  0
  150.1815  136.6632  159.3531 O   0  0  0  0  0  0  0  0  0  0  0  0
  147.8123  136.3375  159.1949 C   0  0  0  0  0  0  0  0  0  0  0  0
  147.5587  136.1030  160.6063 N   0  0  0  0  0  0  0  0  0  0  0  0
  147.4238  134.8975  161.2631 C   0  0  0  0  0  0  0  0  0  0  0  0
  147.1780  135.1757  162.5771 C   0  0  0  0  0  0  0  0  0  0  0  0
  147.1818  136.5977  162.6284 C   0  0  0  0  0  0  0  0  0  0  0  0
  147.4092  137.1504  161.4477 N   0  0  0  0  0  0  0  0  0  0  0  0
  150.3143  142.9939  158.6417 C   0  0  0  0  0  0  0  0  0  0  0  0
  151.4549  143.9809  158.9600 C   0  0  2  0  0  0  0  0  0  0  0  0
  152.2453  144.4216  157.7158 C   0  0  0  0  0  0  0  0  0  0  0  0
  152.3062  143.4461  159.9703 O   0  0  0  0  0  0  0  0  0  0  0  0
  154.0664  140.7045  160.7410 H   0  0  0  0  0  0  0  0  0  0  0  0
  153.0381  141.6591  161.8079 H   0  0  0  0  0  0  0  0  0  0  0  0
  154.4694  142.3847  161.0807 H   0  0  0  0  0  0  0  0  0  0  0  0
  153.4641  142.1818  158.8251 H   0  0  0  0  0  0  0  0  0  0  0  0
  152.0777  140.2170  159.1843 H   0  0  0  0  0  0  0  0  0  0  0  0
  151.0430  141.0554  160.3217 H   0  0  0  0  0  0  0  0  0  0  0  0
  148.9164  140.8320  158.8309 H   0  0  0  0  0  0  0  0  0  0  0  0
  148.1587  140.3000  156.4648 H   0  0  0  0  0  0  0  0  0  0  0  0
  149.6511  141.0077  155.8667 H   0  0  0  0  0  0  0  0  0  0  0  0
  148.4472  141.9851  156.7069 H   0  0  0  0  0  0  0  0  0  0  0  0
  150.4904  138.9404  157.0754 H   0  0  0  0  0  0  0  0  0  0  0  0
  150.8581  139.0170  158.7897 H   0  0  0  0  0  0  0  0  0  0  0  0
  148.0506  138.6341  158.1400 H   0  0  0  0  0  0  0  0  0  0  0  0
  146.9658  136.8811  158.7731 H   0  0  0  0  0  0  0  0  0  0  0  0
  147.8764  135.3831  158.6698 H   0  0  0  0  0  0  0  0  0  0  0  0
  147.5097  133.9537  160.7445 H   0  0  0  0  0  0  0  0  0  0  0  0
  147.0191  134.4708  163.3794 H   0  0  0  0  0  0  0  0  0  0  0  0
  147.0260  137.2403  163.4825 H   0  0  0  0  0  0  0  0  0  0  0  0
  149.7436  143.4167  157.8168 H   0  0  0  0  0  0  0  0  0  0  0  0
  149.6382  142.9491  159.4971 H   0  0  0  0  0  0  0  0  0  0  0  0
  151.0082  144.8802  159.3847 H   0  0  0  0  0  0  0  0  0  0  0  0
  151.5967  144.9406  157.0097 H   0  0  0  0  0  0  0  0  0  0  0  0
  152.6871  143.5763  157.1886 H   0  0  0  0  0  0  0  0  0  0  0  0
  153.0500  145.1047  157.9880 H   0  0  0  0  0  0  0  0  0  0  0  0
  1  2  1  0  0  0  0
  1 21  1  0  0  0  0
  1 22  1  0  0  0  0
  1 23  1  0  0  0  0
  2 20  1  0  0  0  0
  2  3  1  0  0  0  0
  2 24  1  0  0  0  0
  3  4  1  0  0  0  0
  3 25  1  0  0  0  0
  3 26  1  0  0  0  0
  4  5  1  0  0  0  0
  4 17  1  0  0  0  0
  5  6  1  0  0  0  0
  5  7  1  0  0  0  0
  5 27  1  0  0  0  0
  6 28  1  0  0  0  0
  6 29  1  0  0  0  0
  6 30  1  0  0  0  0
  7  8  1  0  0  0  0
  7 31  1  0  0  0  0
  7 32  1  0  0  0  0
  8  9  1  0  0  0  0
  8 33  1  0  0  0  0
  9 10  2  0  0  0  0
  9 11  1  0  0  0  0
 11 12  1  0  0  0  0
 11 34  1  0  0  0  0
 11 35  1  0  0  0  0
 12 16  1  0  0  0  0
 12 13  1  0  0  0  0
 13 14  2  0  0  0  0
 13 36  1  0  0  0  0
 14 15  1  0  0  0  0
 14 37  1  0  0  0  0
 15 16  2  0  0  0  0
 15 38  1  0  0  0  0
 17 18  1  0  0  0  0
 17 39  1  0  0  0  0
 17 40  1  0  0  0  0
 18 19  1  0  0  0  0
 18 20  1  0  0  0  0
 18 41  1  0  0  0  0
 19 42  1  0  0  0  0
 19 43  1  0  0  0  0
 19 44  1  0  0  0  0
M  END
> <s_m_source_file>
AV-unprocessed.smi

> <i_m_source_file_index>
1433

> <i_lp_mmshare_version>
43012

> <i_f3d_flags>
0

> <s_epik_input>
W0NIM11bQ0BASF0xW0NIMl1OKFtDSDJdW0NASF0oTzEpW0NIM10pW0NASF0oW0NIM10pW0NIMl1bTkhdQyg9TylbQ0gyXW4yW2NIXVtjSF1bY0hdbjI=

> <s_epik_cmdline>
J2VwaWtfcHl0aG9uJywgJy1waCcsICc3LjAnLCAnLXRuJywgJzgnLCAnLW1hJywgJzIwMCcsICctbWV0YWxfYmluZGluZycsICctaW1hZScsICc8aW5maWxlLm1hZT4nLCAnLW9tYWUnLCAnPG91dGZpbGUubWFlPic=

> <r_lp_tautomer_probability>
1

> <r_epik_Ionization_Penalty>
0.196927

> <r_epik_Ionization_Penalty_Charging>
0

> <r_epik_Ionization_Penalty_Neutral>
0.196927

> <r_epik_State_Penalty>
0.186684

> <r_epik_Charging_Adjusted_Penalty>
0.186684

> <i_epik_Tot_Q>
0

> <i_epik_Tot_abs_Q>
0

> <r_epik_Metal_State_Penalty>
0.186682

> <b_epik_Metal_Only>
0

> <s_lp_Force_Field>
OPLS_2005

> <r_lp_Energy>
30.3055

> <b_lp_Chiralities_Consistent>
1

> <s_lp_Variant>
AV-unprocessed.smi:1433-6

> <Gold.Version>
5.8.1

> <Gold.Id.Protein>
6NUR|6NUR_protein|mol2

> <Gold.PLP.Fitness>
50.8395

> <Gold.PLP.PLP>
-43.7808

> <Gold.PLP.part.hbond>
-3.0000

> <Gold.PLP.part.metal>
0.0000

> <Gold.PLP.part.buried>
-6.9198

> <Gold.PLP.part.nonpolar>
-34.3609

> <Gold.PLP.part.repulsive>
0.2171

> <Gold.PLP.ligand.clash>
0.0000

> <Gold.PLP.ligand.torsion>
0.6354

> <Gold.PLP.Chemscore.Hbond>
2.7600

> <Gold.PLP.Chemscore.CHOScore>
0.0000

> <Gold.PLP.Chemscore.Metal>
0.0000

> <Gold.Chemscore.Hbonds>
donor molecule, donor type, donor heavy atom, donor atom, acceptor molecule, acceptor atom, score
      P1  H  6896  6909       L1    10  1.00
      P1  H  6931  6943       L1    16  0.88
      P1  H  6934  6947       L1    16  0.91

> <Gold.PLP.Chemscore.Internal.Correction>
0.0496

> <Gold.Rescore>
     Score         DG    S(hbond)    S(metal)    S(lipo)     H(rot)  DE(clash)    DE(int)     intcor
     20.62     -21.24       2.49        0.00     103.24       1.80       0.07       0.55       ----

> <Gold.Chemscore.Fitness>
20.6173

> <Gold.Chemscore.DG>
-21.2428

> <Gold.Chemscore.ZeroCoef>
-5.4800

> <Gold.Chemscore.Hbond>
2.4853

> <Gold.Chemscore.Metal>
0.0000

> <Gold.Chemscore.Lipo>
103.2438

> <Gold.Chemscore.Internal_Hbond>
0.0000

> <Gold.Chemscore.DEClash>
0.0736

> <Gold.Chemscore.DEInternal>
0.5519

> <Gold.Chemscore.Rot>
1.8038

> <Gold.Chemscore.Internal.Correction>
   9.000000E+99

> <Gold.Chemscore.Hbonds>
donor molecule, donor type, donor heavy atom, donor atom, acceptor molecule, acceptor atom, score
      P1  H  6896  6909       L1    10  0.98
      P1  H  6931  6943       L1    16  0.18
      P1  H  6934  6947       L1    16  0.88

> <Gold.Chemscore.Hbond.Weighted>
-8.3010

> <Gold.Chemscore.Metal.Weighted>
-0.0000

> <Gold.Chemscore.Lipo.Weighted>
-12.0795

> <Gold.Chemscore.Internal_Hbond.Weighted>
0.0000

> <Gold.Chemscore.DEClash.Weighted>
0.0736

> <Gold.Chemscore.DEInternal.Weighted>
0.5519

> <Gold.Chemscore.Rot.Weighted>
4.6178

> <Gold.Chemscore.Internal.Correction.Weighted>
   9.000000E+99

> <Gold.Protein.RotatedTorsions>
[ 6907 6896 6895 6894 ] final   70.21 input  -60.11 | X-H torsion
[ 7974 7965 7964 7962 ] final  166.76 input  175.53 | X-H torsion
[ 8008 7997 7996 7995 ] final  164.79 input   59.86 | X-H torsion
[ 10167 10162 10161 10158 ] final  112.01 input  -65.29 | X-H torsion
[ 10718 10713 10712 10709 ] final  -74.27 input   66.30 | X-H torsion
[ 10763 10752 10751 10750 ] final  166.86 input  -60.55 | X-H torsion
[ 11005 11000 10999 10996 ] final -158.26 input  -57.11 | X-H torsion

> <Gold.Protein.ActiveResidues>
 VAL166  LYS551  ARG553  GLY616  TRP617  ASP618  TYR619  PRO620  LYS621  CYS622 
 ASP623  PHE694  ASN695  SER759  ASP760  ASP761  ALA762  ILE779  LEU786  VAL792 
 PHE793  MET794  SER795  GLU796  ALA797  LYS798  CYS799  TRP800  GLU811  SER814 

> <Gold.Protein.RotatedAtoms>
  152.4735  134.4903  159.9692 H   0  0  0  0  0  0  0  0  0  0  0  0  # atno 6907 bound_to 6896
  151.4924  133.3516  159.2863 H   0  0  0  0  0  0  0  0  0  0  0  0  # atno 6908 bound_to 6896
  150.8759  134.8168  159.7250 H   0  0  0  0  0  0  0  0  0  0  0  0  # atno 6909 bound_to 6896
  144.7450  139.8662  143.6385 H   0  0  0  0  0  0  0  0  0  0  0  0  # atno 7974 bound_to 7965
  156.1852  140.1687  156.8198 H   0  0  0  0  0  0  0  0  0  0  0  0  # atno 8008 bound_to 7997
  154.5406  140.0737  156.8536 H   0  0  0  0  0  0  0  0  0  0  0  0  # atno 8009 bound_to 7997
  155.3222  140.3374  155.4243 H   0  0  0  0  0  0  0  0  0  0  0  0  # atno 8010 bound_to 7997
  139.6568  144.7129  151.1942 H   0  0  0  0  0  0  0  0  0  0  0  0  # atno 10167 bound_to 10162
  156.0249  130.4413  150.2867 H   0  0  0  0  0  0  0  0  0  0  0  0  # atno 10718 bound_to 10713
  154.3453  135.2753  155.2401 H   0  0  0  0  0  0  0  0  0  0  0  0  # atno 10763 bound_to 10752
  154.4653  135.5896  153.6287 H   0  0  0  0  0  0  0  0  0  0  0  0  # atno 10764 bound_to 10752
  152.9854  135.6075  154.3658 H   0  0  0  0  0  0  0  0  0  0  0  0  # atno 10765 bound_to 10752
  140.6555  134.4405  157.5235 H   0  0  0  0  0  0  0  0  0  0  0  0  # atno 11005 bound_to 11000
  146.1313  139.4349  143.0167 LP  0  0  0  0  0  0  0  0  0  0  0  0  # atno 17320 bound_to 7965
  145.7159  141.0091  143.1428 LP  0  0  0  0  0  0  0  0  0  0  0  0  # atno 17321 bound_to 7965
  140.7562  143.6060  150.8653 LP  0  0  0  0  0  0  0  0  0  0  0  0  # atno 17342 bound_to 10162
  139.9713  143.6053  152.2972 LP  0  0  0  0  0  0  0  0  0  0  0  0  # atno 17343 bound_to 10162
  157.0971  131.0185  151.3100 LP  0  0  0  0  0  0  0  0  0  0  0  0  # atno 17370 bound_to 10713
  157.4809  130.7764  149.7413 LP  0  0  0  0  0  0  0  0  0  0  0  0  # atno 17371 bound_to 10713
  139.9031  134.8511  156.1815 LP  0  0  0  0  0  0  0  0  0  0  0  0  # atno 17394 bound_to 11000
  141.0504  133.6891  156.1762 LP  0  0  0  0  0  0  0  0  0  0  0  0  # atno 17395 bound_to 11000

$$$$
