AV-unprocessed.smi:1818|AV-procd|sdf|7380|dock3
  -GOLD-   22720 9 43D 1   1.00000     0.00000
 Structure written by MMmdl.
 36 37  0  0  0  0  0  0  0  0  1 V2000
  152.2521  136.9628  159.6240 N   0  0  0  0  0  0  0  0  0  0  0  0
  151.8926  137.9100  159.0647 C   0  0  0  0  0  0  0  0  0  0  0  0
  151.4329  139.1177  158.3506 C   0  0  0  0  0  0  0  0  0  0  0  0
  151.7410  140.3185  159.1339 N   0  0  0  0  0  0  0  0  0  0  0  0
  152.9577  140.8016  159.4376 C   0  0  0  0  0  0  0  0  0  0  0  0
  154.0113  140.2598  159.1061 O   0  0  0  0  0  0  0  0  0  0  0  0
  152.9907  142.1068  160.2315 C   0  0  0  0  0  0  0  0  0  0  0  0
  152.4276  143.1956  159.4557 N   0  0  0  0  0  0  0  0  0  0  0  0
  151.9707  143.1447  158.1447 C   0  0  0  0  0  0  0  0  0  0  0  0
  151.5362  144.4126  157.8306 C   0  0  0  0  0  0  0  0  0  0  0  0
  151.7162  145.2545  158.9255 N   0  0  0  0  0  0  0  0  0  0  0  0
  152.2497  144.4648  159.8484 C   0  0  0  0  0  0  0  0  0  0  0  0
  152.2434  139.2053  157.0335 C   0  0  0  0  0  0  0  0  0  0  0  0
  151.6205  140.0525  155.9093 C   0  0  0  0  0  0  0  0  0  0  0  0
  150.6826  139.2325  155.0049 C   0  0  0  0  0  0  0  0  0  0  0  0
  149.3368  138.8516  155.6416 C   0  0  0  0  0  0  0  0  0  0  0  0
  149.4425  138.1112  156.9864 C   0  0  0  0  0  0  0  0  0  0  0  0
  149.9000  139.0356  158.1271 C   0  0  0  0  0  0  0  0  0  0  0  0
  150.9444  140.8452  159.4611 H   0  0  0  0  0  0  0  0  0  0  0  0
  152.4317  142.0060  161.1629 H   0  0  0  0  0  0  0  0  0  0  0  0
  154.0197  142.3532  160.4972 H   0  0  0  0  0  0  0  0  0  0  0  0
  151.9936  142.2374  157.5590 H   0  0  0  0  0  0  0  0  0  0  0  0
  151.1131  144.7815  156.9079 H   0  0  0  0  0  0  0  0  0  0  0  0
  152.5195  144.8181  160.8332 H   0  0  0  0  0  0  0  0  0  0  0  0
  153.2373  139.5960  157.2584 H   0  0  0  0  0  0  0  0  0  0  0  0
  152.4299  138.2012  156.6492 H   0  0  0  0  0  0  0  0  0  0  0  0
  151.1176  140.9341  156.3082 H   0  0  0  0  0  0  0  0  0  0  0  0
  152.4305  140.4305  155.2848 H   0  0  0  0  0  0  0  0  0  0  0  0
  150.4798  139.8070  154.1006 H   0  0  0  0  0  0  0  0  0  0  0  0
  151.1945  138.3301  154.6684 H   0  0  0  0  0  0  0  0  0  0  0  0
  148.7264  139.7471  155.7645 H   0  0  0  0  0  0  0  0  0  0  0  0
  148.7920  138.2216  154.9376 H   0  0  0  0  0  0  0  0  0  0  0  0
  148.4495  137.7346  157.2340 H   0  0  0  0  0  0  0  0  0  0  0  0
  150.0831  137.2322  156.9071 H   0  0  0  0  0  0  0  0  0  0  0  0
  149.4368  138.6840  159.0499 H   0  0  0  0  0  0  0  0  0  0  0  0
  149.4842  140.0318  157.9681 H   0  0  0  0  0  0  0  0  0  0  0  0
  1  2  3  0  0  0  0
  2  3  1  0  0  0  0
  3 18  1  0  0  0  0
  3  4  1  0  0  0  0
  3 13  1  0  0  0  0
  4  5  1  0  0  0  0
  4 19  1  0  0  0  0
  5  6  2  0  0  0  0
  5  7  1  0  0  0  0
  7  8  1  0  0  0  0
  7 20  1  0  0  0  0
  7 21  1  0  0  0  0
  8 12  1  0  0  0  0
  8  9  1  0  0  0  0
  9 10  2  0  0  0  0
  9 22  1  0  0  0  0
 10 11  1  0  0  0  0
 10 23  1  0  0  0  0
 11 12  2  0  0  0  0
 12 24  1  0  0  0  0
 13 14  1  0  0  0  0
 13 25  1  0  0  0  0
 13 26  1  0  0  0  0
 14 15  1  0  0  0  0
 14 27  1  0  0  0  0
 14 28  1  0  0  0  0
 15 16  1  0  0  0  0
 15 29  1  0  0  0  0
 15 30  1  0  0  0  0
 16 17  1  0  0  0  0
 16 31  1  0  0  0  0
 16 32  1  0  0  0  0
 17 18  1  0  0  0  0
 17 33  1  0  0  0  0
 17 34  1  0  0  0  0
 18 35  1  0  0  0  0
 18 36  1  0  0  0  0
M  END
> <s_m_source_file>
AV-unprocessed.smi

> <i_m_source_file_index>
1818

> <i_lp_mmshare_version>
43012

> <i_f3d_flags>
0

> <s_epik_input>
W0NIMl0xW0NIMl1bQ0gyXVtDSDJdW0NIMl1bQ0gyXUMxKEMjTilbTkhdQyg9TylbQ0gyXW4yW2NIXVtjSF1uW2NIXTI=

> <s_epik_cmdline>
J2VwaWtfcHl0aG9uJywgJy1waCcsICc3LjAnLCAnLXRuJywgJzgnLCAnLW1hJywgJzIwMCcsICctbWV0YWxfYmluZGluZycsICctaW1hZScsICc8aW5maWxlLm1hZT4nLCAnLW9tYWUnLCAnPG91dGZpbGUubWFlPic=

> <r_lp_tautomer_probability>
1

> <r_epik_Ionization_Penalty>
0.21493

> <r_epik_Ionization_Penalty_Charging>
0.214927

> <r_epik_Ionization_Penalty_Neutral>
2.56273e-06

> <r_epik_State_Penalty>
0.205117

> <r_epik_Charging_Adjusted_Penalty>
0.420044

> <i_epik_Tot_Q>
0

> <i_epik_Tot_abs_Q>
0

> <r_epik_Metal_State_Penalty>
0.148888

> <b_epik_Metal_Only>
0

> <s_lp_Force_Field>
OPLS_2005

> <r_lp_Energy>
17.7076

> <b_lp_Chiralities_Consistent>
1

> <s_lp_Variant>
AV-unprocessed.smi:1818-1

> <Gold.Version>
5.8.1

> <Gold.Id.Protein>
6NUR|6NUR_protein|mol2

> <Gold.PLP.Fitness>
43.7761

> <Gold.PLP.PLP>
-35.3781

> <Gold.PLP.part.hbond>
-2.0000

> <Gold.PLP.part.metal>
0.0000

> <Gold.PLP.part.buried>
-3.7176

> <Gold.PLP.part.nonpolar>
-29.4159

> <Gold.PLP.part.repulsive>
0.2544

> <Gold.PLP.ligand.clash>
0.0000

> <Gold.PLP.ligand.torsion>
0.1091

> <Gold.PLP.Chemscore.Hbond>
1.8882

> <Gold.PLP.Chemscore.CHOScore>
0.9800

> <Gold.PLP.Chemscore.Metal>
0.0000

> <Gold.Chemscore.Hbonds>
donor molecule, donor type, donor heavy atom, donor atom, acceptor molecule, acceptor atom, score
      P1  H  6896  6907       L1     1  1.00
      P1  H  7997  8009       L1     6  0.84
      L1  C    10    23       P1  8028  1.00

> <Gold.PLP.Chemscore.Internal.Correction>
0.0118

> <Gold.Rescore>
     Score         DG    S(hbond)    S(metal)    S(lipo)     H(rot)  DE(clash)    DE(int)     intcor
     14.07     -15.49       1.93        0.00      66.50       1.65       0.04       1.39       ----

> <Gold.Chemscore.Fitness>
14.0659

> <Gold.Chemscore.DG>
-15.4931

> <Gold.Chemscore.ZeroCoef>
-5.4800

> <Gold.Chemscore.Hbond>
1.9322

> <Gold.Chemscore.Metal>
0.0000

> <Gold.Chemscore.Lipo>
66.5014

> <Gold.Chemscore.Internal_Hbond>
0.0000

> <Gold.Chemscore.DEClash>
0.0402

> <Gold.Chemscore.DEInternal>
1.3870

> <Gold.Chemscore.Rot>
1.6488

> <Gold.Chemscore.Internal.Correction>
   9.000000E+99

> <Gold.Chemscore.Hbonds>
donor molecule, donor type, donor heavy atom, donor atom, acceptor molecule, acceptor atom, score
      P1  H  6896  6907       L1     1  0.98
      P1  H  7997  8009       L1     6  0.79

> <Gold.Chemscore.Hbond.Weighted>
-6.4534

> <Gold.Chemscore.Metal.Weighted>
-0.0000

> <Gold.Chemscore.Lipo.Weighted>
-7.7807

> <Gold.Chemscore.Internal_Hbond.Weighted>
0.0000

> <Gold.Chemscore.DEClash.Weighted>
0.0402

> <Gold.Chemscore.DEInternal.Weighted>
1.3870

> <Gold.Chemscore.Rot.Weighted>
4.2210

> <Gold.Chemscore.Internal.Correction.Weighted>
   9.000000E+99

> <Gold.Protein.RotatedTorsions>
[ 6907 6896 6895 6894 ] final   23.02 input  -60.11 | X-H torsion
[ 7974 7965 7964 7962 ] final -116.55 input  175.53 | X-H torsion
[ 8008 7997 7996 7995 ] final  128.78 input   59.86 | X-H torsion
[ 10167 10162 10161 10158 ] final -161.87 input  -65.29 | X-H torsion
[ 10718 10713 10712 10709 ] final -175.09 input   66.30 | X-H torsion
[ 10763 10752 10751 10750 ] final  -96.88 input  -60.55 | X-H torsion
[ 11005 11000 10999 10996 ] final   35.44 input  -57.11 | X-H torsion

> <Gold.Protein.ActiveResidues>
 VAL166  LYS551  ARG553  GLY616  TRP617  ASP618  TYR619  PRO620  LYS621  CYS622 
 ASP623  PHE694  ASN695  SER759  ASP760  ASP761  ALA762  ILE779  LEU786  VAL792 
 PHE793  MET794  SER795  GLU796  ALA797  LYS798  CYS799  TRP800  GLU811  SER814 

> <Gold.Protein.RotatedAtoms>
  151.9361  135.0235  160.0532 H   0  0  0  0  0  0  0  0  0  0  0  0  # atno 6907 bound_to 6896
  152.2077  133.4883  159.5101 H   0  0  0  0  0  0  0  0  0  0  0  0  # atno 6908 bound_to 6896
  150.6969  134.1425  159.4153 H   0  0  0  0  0  0  0  0  0  0  0  0  # atno 6909 bound_to 6896
  145.0954  140.8517  143.3958 H   0  0  0  0  0  0  0  0  0  0  0  0  # atno 7974 bound_to 7965
  156.2922  140.2636  156.2491 H   0  0  0  0  0  0  0  0  0  0  0  0  # atno 8008 bound_to 7997
  154.9900  140.0389  157.2334 H   0  0  0  0  0  0  0  0  0  0  0  0  # atno 8009 bound_to 7997
  154.7694  140.2775  155.6154 H   0  0  0  0  0  0  0  0  0  0  0  0  # atno 8010 bound_to 7997
  139.6434  144.0218  152.2109 H   0  0  0  0  0  0  0  0  0  0  0  0  # atno 10167 bound_to 10162
  156.7948  130.9531  151.3120 H   0  0  0  0  0  0  0  0  0  0  0  0  # atno 10718 bound_to 10713
  154.7279  135.5067  153.8916 H   0  0  0  0  0  0  0  0  0  0  0  0  # atno 10763 bound_to 10752
  153.0922  135.6662  153.9841 H   0  0  0  0  0  0  0  0  0  0  0  0  # atno 10764 bound_to 10752
  153.9649  135.3044  155.3410 H   0  0  0  0  0  0  0  0  0  0  0  0  # atno 10765 bound_to 10752
  140.2427  134.3396  155.7920 H   0  0  0  0  0  0  0  0  0  0  0  0  # atno 11005 bound_to 11000
  145.1017  139.2818  143.5683 LP  0  0  0  0  0  0  0  0  0  0  0  0  # atno 17320 bound_to 7965
  146.3531  140.0586  142.8631 LP  0  0  0  0  0  0  0  0  0  0  0  0  # atno 17321 bound_to 7965
  139.9913  144.6359  150.7811 LP  0  0  0  0  0  0  0  0  0  0  0  0  # atno 17342 bound_to 10162
  140.7502  143.2951  151.3225 LP  0  0  0  0  0  0  0  0  0  0  0  0  # atno 17343 bound_to 10162
  157.6583  130.8943  149.9775 LP  0  0  0  0  0  0  0  0  0  0  0  0  # atno 17370 bound_to 10713
  156.1137  130.3649  150.0005 LP  0  0  0  0  0  0  0  0  0  0  0  0  # atno 17371 bound_to 10713
  141.2209  133.7308  156.8910 LP  0  0  0  0  0  0  0  0  0  0  0  0  # atno 17394 bound_to 11000
  140.1637  134.9148  157.2747 LP  0  0  0  0  0  0  0  0  0  0  0  0  # atno 17395 bound_to 11000

$$$$
