AV-unprocessed.smi:2260|AV-procd|sdf|9135|dock5
  -GOLD-   2272012343D 1   1.00000     0.00000
 Structure written by MMmdl.
 42 43  0  0  0  0  0  0  0  0  1 V2000
  148.3743  140.6527  154.3805 C   0  0  0  0  0  0  0  0  0  0  0  0
  149.5837  139.7561  154.5811 C   0  0  0  0  0  0  0  0  0  0  0  0
  149.7182  138.5109  154.1122 C   0  0  0  0  0  0  0  0  0  0  0  0
  151.2645  137.8018  154.5121 S   0  0  0  0  0  0  0  0  0  0  0  0
  151.7480  139.3116  155.3656 C   0  0  0  0  0  0  0  0  0  0  0  0
  152.8430  139.4502  155.9085 O   0  0  0  0  0  0  0  0  0  0  0  0
  150.6973  140.2243  155.2900 N   0  0  0  0  0  0  0  0  0  0  0  0
  150.7770  141.5483  155.9125 C   0  0  0  0  0  0  0  0  0  0  0  0
  151.1689  141.4417  157.3934 C   0  0  0  0  0  0  0  0  0  0  0  0
  151.4205  142.7721  157.9249 N   0  0  0  0  0  0  0  0  0  0  0  0
  151.5629  142.7521  159.3778 C   0  0  1  0  0  0  0  0  0  0  0  0
  152.9521  142.1681  159.7084 C   0  0  0  0  0  0  0  0  0  0  0  0
  153.1876  142.1114  161.2233 C   0  0  0  0  0  0  0  0  0  0  0  0
  153.0035  143.4939  161.8615 C   0  0  0  0  0  0  0  0  0  0  0  0
  151.6216  144.0818  161.5252 C   0  0  0  0  0  0  0  0  0  0  0  0
  151.3334  144.1650  160.0032 C   0  0  0  0  0  0  0  0  0  0  0  0
  152.2275  145.2526  159.3591 C   0  0  0  0  0  0  0  0  0  0  0  0
  149.8592  144.5879  159.8290 C   0  0  0  0  0  0  0  0  0  0  0  0
  147.7679  140.2891  153.5505 H   0  0  0  0  0  0  0  0  0  0  0  0
  148.6640  141.6771  154.1482 H   0  0  0  0  0  0  0  0  0  0  0  0
  147.7536  140.6579  155.2767 H   0  0  0  0  0  0  0  0  0  0  0  0
  148.9891  137.9613  153.5356 H   0  0  0  0  0  0  0  0  0  0  0  0
  151.4793  142.1843  155.3734 H   0  0  0  0  0  0  0  0  0  0  0  0
  149.8113  142.0497  155.8239 H   0  0  0  0  0  0  0  0  0  0  0  0
  150.3706  140.9605  157.9593 H   0  0  0  0  0  0  0  0  0  0  0  0
  152.0643  140.8294  157.5067 H   0  0  0  0  0  0  0  0  0  0  0  0
  152.2619  143.1452  157.5088 H   0  0  0  0  0  0  0  0  0  0  0  0
  150.8261  142.0701  159.8069 H   0  0  0  0  0  0  0  0  0  0  0  0
  153.0403  141.1625  159.2950 H   0  0  0  0  0  0  0  0  0  0  0  0
  153.7396  142.7577  159.2381 H   0  0  0  0  0  0  0  0  0  0  0  0
  152.4903  141.4045  161.6748 H   0  0  0  0  0  0  0  0  0  0  0  0
  154.1893  141.7346  161.4313 H   0  0  0  0  0  0  0  0  0  0  0  0
  153.1160  143.4165  162.9432 H   0  0  0  0  0  0  0  0  0  0  0  0
  153.7925  144.1660  161.5237 H   0  0  0  0  0  0  0  0  0  0  0  0
  150.8622  143.4604  162.0023 H   0  0  0  0  0  0  0  0  0  0  0  0
  151.5265  145.0681  161.9816 H   0  0  0  0  0  0  0  0  0  0  0  0
  152.0855  146.2166  159.8488 H   0  0  0  0  0  0  0  0  0  0  0  0
  151.9920  145.3949  158.3042 H   0  0  0  0  0  0  0  0  0  0  0  0
  153.2880  145.0139  159.4224 H   0  0  0  0  0  0  0  0  0  0  0  0
  149.6542  145.5303  160.3381 H   0  0  0  0  0  0  0  0  0  0  0  0
  149.1782  143.8406  160.2376 H   0  0  0  0  0  0  0  0  0  0  0  0
  149.6004  144.7279  158.7790 H   0  0  0  0  0  0  0  0  0  0  0  0
  1  2  1  0  0  0  0
  1 19  1  0  0  0  0
  1 20  1  0  0  0  0
  1 21  1  0  0  0  0
  2  7  1  0  0  0  0
  2  3  2  0  0  0  0
  3  4  1  0  0  0  0
  3 22  1  0  0  0  0
  4  5  1  0  0  0  0
  5  6  2  0  0  0  0
  5  7  1  0  0  0  0
  7  8  1  0  0  0  0
  8  9  1  0  0  0  0
  8 23  1  0  0  0  0
  8 24  1  0  0  0  0
  9 10  1  0  0  0  0
  9 25  1  0  0  0  0
  9 26  1  0  0  0  0
 10 11  1  0  0  0  0
 10 27  1  0  0  0  0
 11 16  1  0  0  0  0
 11 12  1  0  0  0  0
 11 28  1  0  0  0  0
 12 13  1  0  0  0  0
 12 29  1  0  0  0  0
 12 30  1  0  0  0  0
 13 14  1  0  0  0  0
 13 31  1  0  0  0  0
 13 32  1  0  0  0  0
 14 15  1  0  0  0  0
 14 33  1  0  0  0  0
 14 34  1  0  0  0  0
 15 16  1  0  0  0  0
 15 35  1  0  0  0  0
 15 36  1  0  0  0  0
 16 17  1  0  0  0  0
 16 18  1  0  0  0  0
 17 37  1  0  0  0  0
 17 38  1  0  0  0  0
 17 39  1  0  0  0  0
 18 40  1  0  0  0  0
 18 41  1  0  0  0  0
 18 42  1  0  0  0  0
M  END
> <s_m_source_file>
AV-unprocessed.smi

> <i_m_source_file_index>
2260

> <i_lp_mmshare_version>
43012

> <i_f3d_flags>
0

> <s_epik_input>
W0NIM11jMVtjSF1zYyg9TyluMVtDSDJdW0NIMl1bTkhdW0NAQEhdKEMyKFtDSDNdKVtDSDNdKVtDSDJdW0NIMl1bQ0gyXVtDSDJdMg==

> <s_epik_cmdline>
J2VwaWtfcHl0aG9uJywgJy1waCcsICc3LjAnLCAnLXRuJywgJzgnLCAnLW1hJywgJzIwMCcsICctbWV0YWxfYmluZGluZycsICctaW1hZScsICc8aW5maWxlLm1hZT4nLCAnLW9tYWUnLCAnPG91dGZpbGUubWFlPic=

> <r_epik_Ionization_Penalty>
2.34504

> <r_epik_Ionization_Penalty_Charging>
4.7617e-06

> <r_epik_Ionization_Penalty_Neutral>
2.34504

> <r_epik_State_Penalty>
2.49894

> <r_epik_Charging_Adjusted_Penalty>
2.49895

> <i_epik_Tot_Q>
0

> <i_epik_Tot_abs_Q>
0

> <r_epik_Metal_State_Penalty>
2.49894

> <b_epik_Metal_Only>
0

> <s_lp_Force_Field>
OPLS_2005

> <r_lp_Energy>
26.7026

> <b_lp_Chiralities_Consistent>
1

> <s_lp_Variant>
AV-unprocessed.smi:2260-4

> <Gold.Version>
5.8.1

> <Gold.Id.Protein>
6NUR|6NUR_protein|mol2

> <Gold.PLP.Fitness>
51.3555

> <Gold.PLP.PLP>
-45.8265

> <Gold.PLP.part.hbond>
-0.9660

> <Gold.PLP.part.metal>
0.0000

> <Gold.PLP.part.buried>
-3.3297

> <Gold.PLP.part.nonpolar>
-41.1452

> <Gold.PLP.part.repulsive>
0.0000

> <Gold.PLP.ligand.clash>
0.0000

> <Gold.PLP.ligand.torsion>
0.2433

> <Gold.PLP.Chemscore.Hbond>
1.0000

> <Gold.PLP.Chemscore.CHOScore>
1.0000

> <Gold.PLP.Chemscore.Metal>
0.0000

> <Gold.Chemscore.Hbonds>
donor molecule, donor type, donor heavy atom, donor atom, acceptor molecule, acceptor atom, score
      P1  H  7997  8008       L1     6  1.00
      L1  C     3    22       P1  7948  1.00

> <Gold.PLP.Chemscore.Internal.Correction>
0.0157

> <Gold.Rescore>
     Score         DG    S(hbond)    S(metal)    S(lipo)     H(rot)  DE(clash)    DE(int)     intcor
     19.01     -19.48       1.00        0.00     122.41       1.43       0.21       0.25       ----

> <Gold.Chemscore.Fitness>
19.0094

> <Gold.Chemscore.DG>
-19.4764

> <Gold.Chemscore.ZeroCoef>
-5.4800

> <Gold.Chemscore.Hbond>
0.9975

> <Gold.Chemscore.Metal>
0.0000

> <Gold.Chemscore.Lipo>
122.4060

> <Gold.Chemscore.Internal_Hbond>
0.0000

> <Gold.Chemscore.DEClash>
0.2129

> <Gold.Chemscore.DEInternal>
0.2541

> <Gold.Chemscore.Rot>
1.4285

> <Gold.Chemscore.Internal.Correction>
   9.000000E+99

> <Gold.Chemscore.Hbonds>
donor molecule, donor type, donor heavy atom, donor atom, acceptor molecule, acceptor atom, score
      P1  H  7997  8008       L1     6  1.00

> <Gold.Chemscore.Hbond.Weighted>
-3.3318

> <Gold.Chemscore.Metal.Weighted>
-0.0000

> <Gold.Chemscore.Lipo.Weighted>
-14.3215

> <Gold.Chemscore.Internal_Hbond.Weighted>
0.0000

> <Gold.Chemscore.DEClash.Weighted>
0.2129

> <Gold.Chemscore.DEInternal.Weighted>
0.2541

> <Gold.Chemscore.Rot.Weighted>
3.6569

> <Gold.Chemscore.Internal.Correction.Weighted>
   9.000000E+99

> <Gold.Protein.RotatedTorsions>
[ 6907 6896 6895 6894 ] final -109.78 input  -60.11 | X-H torsion
[ 7974 7965 7964 7962 ] final   44.06 input  175.53 | X-H torsion
[ 8008 7997 7996 7995 ] final  -22.96 input   59.86 | X-H torsion
[ 10167 10162 10161 10158 ] final  -82.46 input  -65.29 | X-H torsion
[ 10718 10713 10712 10709 ] final -123.06 input   66.30 | X-H torsion
[ 10763 10752 10751 10750 ] final -177.49 input  -60.55 | X-H torsion
[ 11005 11000 10999 10996 ] final  148.19 input  -57.11 | X-H torsion

> <Gold.Protein.ActiveResidues>
 VAL166  LYS551  ARG553  GLY616  TRP617  ASP618  TYR619  PRO620  LYS621  CYS622 
 ASP623  PHE694  ASN695  SER759  ASP760  ASP761  ALA762  ILE779  LEU786  VAL792 
 PHE793  MET794  SER795  GLU796  ALA797  LYS798  CYS799  TRP800  GLU811  SER814 

> <Gold.Protein.RotatedAtoms>
  150.7583  133.9479  159.3476 H   0  0  0  0  0  0  0  0  0  0  0  0  # atno 6907 bound_to 6896
  151.7393  135.0856  160.0322 H   0  0  0  0  0  0  0  0  0  0  0  0  # atno 6908 bound_to 6896
  152.3539  133.6175  159.6001 H   0  0  0  0  0  0  0  0  0  0  0  0  # atno 6909 bound_to 6896
  146.0602  139.5117  142.9663 H   0  0  0  0  0  0  0  0  0  0  0  0  # atno 7974 bound_to 7965
  154.4613  140.1993  156.0238 H   0  0  0  0  0  0  0  0  0  0  0  0  # atno 8008 bound_to 7997
  156.0845  140.3267  155.7707 H   0  0  0  0  0  0  0  0  0  0  0  0  # atno 8009 bound_to 7997
  155.5058  140.0557  157.2922 H   0  0  0  0  0  0  0  0  0  0  0  0  # atno 8010 bound_to 7997
  140.4317  143.2546  151.8749 H   0  0  0  0  0  0  0  0  0  0  0  0  # atno 10167 bound_to 10162
  156.1470  130.6507  150.9857 H   0  0  0  0  0  0  0  0  0  0  0  0  # atno 10718 bound_to 10713
  154.5595  135.2819  155.0933 H   0  0  0  0  0  0  0  0  0  0  0  0  # atno 10763 bound_to 10752
  154.2347  135.6368  153.5191 H   0  0  0  0  0  0  0  0  0  0  0  0  # atno 10764 bound_to 10752
  153.0025  135.5545  154.6185 H   0  0  0  0  0  0  0  0  0  0  0  0  # atno 10765 bound_to 10752
  140.0939  134.9024  157.1693 H   0  0  0  0  0  0  0  0  0  0  0  0  # atno 11005 bound_to 11000
  145.6574  141.0249  143.1727 LP  0  0  0  0  0  0  0  0  0  0  0  0  # atno 17320 bound_to 7965
  144.7170  139.8161  143.7395 LP  0  0  0  0  0  0  0  0  0  0  0  0  # atno 17321 bound_to 7965
  139.4785  144.5327  151.8644 LP  0  0  0  0  0  0  0  0  0  0  0  0  # atno 17342 bound_to 10162
  140.4419  144.1974  150.5892 LP  0  0  0  0  0  0  0  0  0  0  0  0  # atno 17343 bound_to 10162
  157.6625  131.0878  150.7805 LP  0  0  0  0  0  0  0  0  0  0  0  0  # atno 17370 bound_to 10713
  156.7876  130.4879  149.5390 LP  0  0  0  0  0  0  0  0  0  0  0  0  # atno 17371 bound_to 10713
  140.3314  134.2806  155.7227 LP  0  0  0  0  0  0  0  0  0  0  0  0  # atno 17394 bound_to 11000
  141.2086  133.7773  157.0048 LP  0  0  0  0  0  0  0  0  0  0  0  0  # atno 17395 bound_to 11000

$$$$
