AV-unprocessed.smi:1586|AV-procd|sdf|6383|dock4
  -GOLD-   22720 7 13D 1   1.00000     0.00000
 Structure written by MMmdl.
 46 47  0  0  0  0  0  0  0  0  3 V2000
  143.8633  132.0556  150.1638 C   0  0  0  0  0  0  0  0  0  0  0  0
  144.0293  133.2377  151.1301 C   0  0  0  0  0  0  0  0  0  0  0  0
  145.1393  134.1112  150.7419 N   0  0  0  0  0  0  0  0  0  0  0  0
  145.4344  135.1949  151.6828 C   0  0  0  0  0  0  0  0  0  0  0  0
  146.0427  134.6807  153.0047 C   0  0  0  0  0  0  0  0  0  0  0  0
  147.2886  133.9050  152.7533 N   0  3  0  0  0  0  0  0  0  0  0  0
  148.0165  133.4155  153.9693 C   0  0  2  0  0  0  0  0  0  0  0  0
  147.2696  132.2916  154.7293 C   0  0  0  0  0  0  0  0  0  0  0  0
  148.3081  134.6017  154.9193 C   0  0  0  0  0  0  0  0  0  0  0  0
  149.3644  135.4674  154.4067 N   0  0  0  0  0  0  0  0  0  0  0  0
  150.3803  135.9617  155.1264 C   0  0  0  0  0  0  0  0  0  0  0  0
  150.4572  135.7117  156.3314 O   0  0  0  0  0  0  0  0  0  0  0  0
  151.2433  136.7113  154.4035 N   0  5  0  0  0  0  0  0  0  0  0  0
  151.5025  137.9782  154.7630 C   0  0  0  0  0  0  0  0  0  0  0  0
  150.6163  138.8524  155.4500 C   0  0  0  0  0  0  0  0  0  0  0  0
  151.3412  140.0046  155.5650 C   0  0  0  0  0  0  0  0  0  0  0  0
  151.0447  141.3299  156.1796 C   0  0  0  0  0  0  0  0  0  0  0  0
  152.5629  139.8533  154.9865 O   0  0  0  0  0  0  0  0  0  0  0  0
  152.6556  138.5556  154.4696 N   0  0  0  0  0  0  0  0  0  0  0  0
  146.9962  132.8129  151.7853 C   0  0  0  0  0  0  0  0  0  0  0  0
  146.3756  133.3706  150.4872 C   0  0  0  0  0  0  0  0  0  0  0  0
  143.1236  131.3524  150.5465 H   0  0  0  0  0  0  0  0  0  0  0  0
  144.7997  131.5113  150.0383 H   0  0  0  0  0  0  0  0  0  0  0  0
  143.5216  132.3754  149.1800 H   0  0  0  0  0  0  0  0  0  0  0  0
  143.0930  133.7879  151.2153 H   0  0  0  0  0  0  0  0  0  0  0  0
  144.2412  132.8334  152.1208 H   0  0  0  0  0  0  0  0  0  0  0  0
  146.1379  135.8790  151.2063 H   0  0  0  0  0  0  0  0  0  0  0  0
  144.5396  135.7833  151.8810 H   0  0  0  0  0  0  0  0  0  0  0  0
  146.2592  135.5594  153.6112 H   0  0  0  0  0  0  0  0  0  0  0  0
  145.3265  134.0767  153.5630 H   0  0  0  0  0  0  0  0  0  0  0  0
  148.9670  132.9916  153.6403 H   0  0  0  0  0  0  0  0  0  0  0  0
  147.8163  131.9701  155.6160 H   0  0  0  0  0  0  0  0  0  0  0  0
  147.1480  131.3958  154.1204 H   0  0  0  0  0  0  0  0  0  0  0  0
  146.2832  132.6201  155.0585 H   0  0  0  0  0  0  0  0  0  0  0  0
  147.4276  135.2245  155.0699 H   0  0  0  0  0  0  0  0  0  0  0  0
  148.5910  134.2157  155.9005 H   0  0  0  0  0  0  0  0  0  0  0  0
  149.3362  135.6983  153.4242 H   0  0  0  0  0  0  0  0  0  0  0  0
  149.6147  138.6621  155.8054 H   0  0  0  0  0  0  0  0  0  0  0  0
  150.9082  141.2322  157.2565 H   0  0  0  0  0  0  0  0  0  0  0  0
  150.1331  141.7543  155.7592 H   0  0  0  0  0  0  0  0  0  0  0  0
  151.8572  142.0357  156.0054 H   0  0  0  0  0  0  0  0  0  0  0  0
  147.9084  132.2814  151.5207 H   0  0  0  0  0  0  0  0  0  0  0  0
  146.3375  132.0746  152.2443 H   0  0  0  0  0  0  0  0  0  0  0  0
  146.1800  132.5612  149.7828 H   0  0  0  0  0  0  0  0  0  0  0  0
  147.0882  134.0357  149.9974 H   0  0  0  0  0  0  0  0  0  0  0  0
  147.9184  134.5455  152.2913 H   0  0  0  0  0  0  0  0  0  0  0  0
  1  2  1  0  0  0  0
  1 22  1  0  0  0  0
  1 23  1  0  0  0  0
  1 24  1  0  0  0  0
  2  3  1  0  0  0  0
  2 25  1  0  0  0  0
  2 26  1  0  0  0  0
  3 21  1  0  0  0  0
  3  4  1  0  0  0  0
  4  5  1  0  0  0  0
  4 27  1  0  0  0  0
  4 28  1  0  0  0  0
  5  6  1  0  0  0  0
  5 29  1  0  0  0  0
  5 30  1  0  0  0  0
  6  7  1  0  0  0  0
  6 20  1  0  0  0  0
  6 46  1  0  0  0  0
  7  8  1  0  0  0  0
  7  9  1  0  0  0  0
  7 31  1  0  0  0  0
  8 32  1  0  0  0  0
  8 33  1  0  0  0  0
  8 34  1  0  0  0  0
  9 10  1  0  0  0  0
  9 35  1  0  0  0  0
  9 36  1  0  0  0  0
 10 11  1  0  0  0  0
 10 37  1  0  0  0  0
 11 12  2  0  0  0  0
 11 13  1  0  0  0  0
 13 14  1  0  0  0  0
 14 19  2  0  0  0  0
 14 15  1  0  0  0  0
 15 16  2  0  0  0  0
 15 38  1  0  0  0  0
 16 17  1  0  0  0  0
 16 18  1  0  0  0  0
 17 39  1  0  0  0  0
 17 40  1  0  0  0  0
 17 41  1  0  0  0  0
 18 19  1  0  0  0  0
 20 21  1  0  0  0  0
 20 42  1  0  0  0  0
 20 43  1  0  0  0  0
 21 44  1  0  0  0  0
 21 45  1  0  0  0  0
M  CHG  1   6   1
M  CHG  1  13  -1
M  END
> <s_m_source_file>
AV-unprocessed.smi

> <i_m_source_file_index>
1586

> <i_lp_mmshare_version>
43012

> <i_f3d_flags>
0

> <s_epik_input>
W0NIM11bQ0gyXU4xW0NIMl1bQ0gyXU4oW0NIMl1bQ0gyXTEpW0NASF0oW0NIM10pW0NIMl1bTkhdQyg9TylbTkhdYzJbY0hdYyhbQ0gzXSlvbjI=

> <s_epik_cmdline>
J2VwaWtfcHl0aG9uJywgJy1waCcsICc3LjAnLCAnLXRuJywgJzgnLCAnLW1hJywgJzIwMCcsICctbWV0YWxfYmluZGluZycsICctaW1hZScsICc8aW5maWxlLm1hZT4nLCAnLW9tYWUnLCAnPG91dGZpbGUubWFlPic=

> <r_epik_Ionization_Penalty>
6.35599

> <r_epik_Ionization_Penalty_Charging>
6.35441

> <r_epik_Ionization_Penalty_Neutral>
0.00158318

> <r_epik_State_Penalty>
7.1902

> <r_epik_Charging_Adjusted_Penalty>
13.5446

> <i_epik_Tot_Q>
0

> <i_epik_Tot_abs_Q>
2

> <r_epik_Metal_State_Penalty>
3.12491

> <b_epik_Metal_Only>
1

> <s_lp_Force_Field>
OPLS_2005

> <r_lp_Energy>
12.1212

> <b_lp_Chiralities_Consistent>
1

> <s_lp_Variant>
AV-unprocessed.smi:1586-11

> <Gold.Version>
5.8.1

> <Gold.Id.Protein>
6NUR|6NUR_protein|mol2

> <Gold.PLP.Fitness>
51.6595

> <Gold.PLP.PLP>
-35.5242

> <Gold.PLP.part.hbond>
-5.1548

> <Gold.PLP.part.metal>
0.0000

> <Gold.PLP.part.buried>
-5.3370

> <Gold.PLP.part.nonpolar>
-25.4551

> <Gold.PLP.part.repulsive>
1.4955

> <Gold.PLP.ligand.clash>
0.0000

> <Gold.PLP.ligand.torsion>
0.9845

> <Gold.PLP.Chemscore.Hbond>
6.0000

> <Gold.PLP.Chemscore.CHOScore>
0.0000

> <Gold.PLP.Chemscore.Metal>
0.0000

> <Gold.Chemscore.Hbonds>
donor molecule, donor type, donor heavy atom, donor atom, acceptor molecule, acceptor atom, score
      L1  H     6    46       P1  7948  2.00
      L1  H    10    37       P1  7948  1.00
      P1  H  7989  7998       L1    18  0.09
      P1  H  7997  8008       L1    18  0.78
      P1  H 10752 10763       L1    13  2.00

> <Gold.PLP.Chemscore.Internal.Correction>
0.1043

> <Gold.Rescore>
     Score         DG    S(hbond)    S(metal)    S(lipo)     H(rot)  DE(clash)    DE(int)     intcor
     16.95     -18.06       2.78        0.00      66.03       1.73       0.11       0.99       ----

> <Gold.Chemscore.Fitness>
16.9520

> <Gold.Chemscore.DG>
-18.0579

> <Gold.Chemscore.ZeroCoef>
-5.4800

> <Gold.Chemscore.Hbond>
2.7750

> <Gold.Chemscore.Metal>
0.0000

> <Gold.Chemscore.Lipo>
66.0298

> <Gold.Chemscore.Internal_Hbond>
0.0000

> <Gold.Chemscore.DEClash>
0.1133

> <Gold.Chemscore.DEInternal>
0.9927

> <Gold.Chemscore.Rot>
1.7250

> <Gold.Chemscore.Internal.Correction>
   9.000000E+99

> <Gold.Chemscore.Hbonds>
donor molecule, donor type, donor heavy atom, donor atom, acceptor molecule, acceptor atom, score
      L1  H     6    46       P1  7948  0.39
      L1  H    10    37       P1  7948  0.40
      P1  H  7997  8008       L1    18  0.38
      P1  H 10752 10763       L1    13  0.32

> <Gold.Chemscore.Hbond.Weighted>
-9.2686

> <Gold.Chemscore.Metal.Weighted>
-0.0000

> <Gold.Chemscore.Lipo.Weighted>
-7.7255

> <Gold.Chemscore.Internal_Hbond.Weighted>
0.0000

> <Gold.Chemscore.DEClash.Weighted>
0.1133

> <Gold.Chemscore.DEInternal.Weighted>
0.9927

> <Gold.Chemscore.Rot.Weighted>
4.4161

> <Gold.Chemscore.Internal.Correction.Weighted>
   9.000000E+99

> <Gold.Protein.RotatedTorsions>
[ 6907 6896 6895 6894 ] final  -53.45 input  -60.11 | X-H torsion
[ 7974 7965 7964 7962 ] final  -14.80 input  175.53 | X-H torsion
[ 8008 7997 7996 7995 ] final  -14.66 input   59.86 | X-H torsion
[ 10167 10162 10161 10158 ] final   95.70 input  -65.29 | X-H torsion
[ 10718 10713 10712 10709 ] final   62.53 input   66.30 | X-H torsion
[ 10763 10752 10751 10750 ] final   48.13 input  -60.55 | X-H torsion
[ 11005 11000 10999 10996 ] final  129.21 input  -57.11 | X-H torsion

> <Gold.Protein.ActiveResidues>
 VAL166  LYS551  ARG553  GLY616  TRP617  ASP618  TYR619  PRO620  LYS621  CYS622 
 ASP623  PHE694  ASN695  SER759  ASP760  ASP761  ALA762  ILE779  LEU786  VAL792 
 PHE793  MET794  SER795  GLU796  ALA797  LYS798  CYS799  TRP800  GLU811  SER814 

> <Gold.Protein.RotatedAtoms>
  150.8426  134.7724  159.6944 H   0  0  0  0  0  0  0  0  0  0  0  0  # atno 6907 bound_to 6896
  152.4510  134.5390  159.9843 H   0  0  0  0  0  0  0  0  0  0  0  0  # atno 6908 bound_to 6896
  151.5527  133.3377  159.2992 H   0  0  0  0  0  0  0  0  0  0  0  0  # atno 6909 bound_to 6896
  146.2059  140.3401  142.8407 H   0  0  0  0  0  0  0  0  0  0  0  0  # atno 7974 bound_to 7965
  154.5192  140.2217  155.9008 H   0  0  0  0  0  0  0  0  0  0  0  0  # atno 8008 bound_to 7997
  156.1642  140.3135  155.8825 H   0  0  0  0  0  0  0  0  0  0  0  0  # atno 8009 bound_to 7997
  155.3689  140.0465  157.3036 H   0  0  0  0  0  0  0  0  0  0  0  0  # atno 8010 bound_to 7997
  139.7964  144.6831  150.9823 H   0  0  0  0  0  0  0  0  0  0  0  0  # atno 10167 bound_to 10162
  157.5907  130.9055  149.9599 H   0  0  0  0  0  0  0  0  0  0  0  0  # atno 10718 bound_to 10713
  152.9794  135.5954  154.3876 H   0  0  0  0  0  0  0  0  0  0  0  0  # atno 10763 bound_to 10752
  154.3534  135.2767  155.2361 H   0  0  0  0  0  0  0  0  0  0  0  0  # atno 10764 bound_to 10752
  154.4390  135.6018  153.6172 H   0  0  0  0  0  0  0  0  0  0  0  0  # atno 10765 bound_to 10752
  139.9603  134.9604  156.9115 H   0  0  0  0  0  0  0  0  0  0  0  0  # atno 11005 bound_to 11000
  144.8791  140.7376  143.5998 LP  0  0  0  0  0  0  0  0  0  0  0  0  # atno 17320 bound_to 7965
  145.3321  139.1756  143.4531 LP  0  0  0  0  0  0  0  0  0  0  0  0  # atno 17321 bound_to 7965
  140.7820  143.4327  151.0670 LP  0  0  0  0  0  0  0  0  0  0  0  0  # atno 17342 bound_to 10162
  139.8001  143.8096  152.3162 LP  0  0  0  0  0  0  0  0  0  0  0  0  # atno 17343 bound_to 10162
  156.0961  130.3659  150.0303 LP  0  0  0  0  0  0  0  0  0  0  0  0  # atno 17370 bound_to 10713
  156.8426  130.9431  151.3631 LP  0  0  0  0  0  0  0  0  0  0  0  0  # atno 17371 bound_to 10713
  140.5516  134.0622  155.7371 LP  0  0  0  0  0  0  0  0  0  0  0  0  # atno 17394 bound_to 11000
  141.1279  133.9352  157.2597 LP  0  0  0  0  0  0  0  0  0  0  0  0  # atno 17395 bound_to 11000

$$$$
