AV-unprocessed.smi:2450|AV-procd|sdf|9665|dock9
  -GOLD-   2272013303D 1   1.00000     0.00000
 Structure written by MMmdl.
 41 42  0  0  0  0  0  0  0  0  1 V2000
  150.5093  145.3021  159.7731 C   0  0  0  0  0  0  0  0  0  0  0  0
  151.9624  144.8229  159.9049 C   0  0  0  0  0  0  0  0  0  0  0  0
  152.1267  143.2989  159.7556 C   0  0  2  0  0  0  0  0  0  0  0  0
  153.5967  142.8713  159.8833 C   0  0  0  0  0  0  0  0  0  0  0  0
  151.5936  142.8578  158.4687 N   0  0  0  0  0  0  0  0  0  0  0  0
  151.7540  141.6392  157.9335 C   0  0  0  0  0  0  0  0  0  0  0  0
  152.3827  140.7315  158.4779 O   0  0  0  0  0  0  0  0  0  0  0  0
  151.1286  141.5492  156.7479 N   0  0  0  0  0  0  0  0  0  0  0  0
  150.9983  140.4134  155.8992 C   0  0  0  0  0  0  0  0  0  0  0  0
  151.9684  139.3812  155.8820 C   0  0  0  0  0  0  0  0  0  0  0  0
  151.8264  138.3158  154.9764 C   0  0  0  0  0  0  0  0  0  0  0  0
  150.7255  138.3271  154.1044 C   0  0  0  0  0  0  0  0  0  0  0  0
  149.8016  139.3084  154.0978 N   0  0  0  0  0  0  0  0  0  0  0  0
  149.9164  140.3355  154.9756 C   0  0  0  0  0  0  0  0  0  0  0  0
  148.9107  141.3284  154.9304 N   0  0  0  0  0  0  0  0  0  0  0  0
  147.9914  141.3999  153.7998 C   0  0  0  0  0  0  0  0  0  0  0  0
  146.8585  142.3070  154.2701 C   0  0  0  0  0  0  0  0  0  0  0  0
  146.7409  141.9412  155.7465 C   0  0  0  0  0  0  0  0  0  0  0  0
  148.1827  141.6273  156.1605 C   0  0  0  0  0  0  0  0  0  0  0  0
  150.4421  146.3787  159.9293 H   0  0  0  0  0  0  0  0  0  0  0  0
  149.8679  144.8194  160.5110 H   0  0  0  0  0  0  0  0  0  0  0  0
  150.1030  145.0874  158.7844 H   0  0  0  0  0  0  0  0  0  0  0  0
  152.5793  145.3359  159.1659 H   0  0  0  0  0  0  0  0  0  0  0  0
  152.3414  145.1295  160.8806 H   0  0  0  0  0  0  0  0  0  0  0  0
  151.5654  142.8252  160.5633 H   0  0  0  0  0  0  0  0  0  0  0  0
  154.0109  143.1738  160.8453 H   0  0  0  0  0  0  0  0  0  0  0  0
  154.2102  143.3194  159.1009 H   0  0  0  0  0  0  0  0  0  0  0  0
  153.6998  141.7883  159.8086 H   0  0  0  0  0  0  0  0  0  0  0  0
  151.0570  143.5353  157.9470 H   0  0  0  0  0  0  0  0  0  0  0  0
  150.5869  142.3551  156.4714 H   0  0  0  0  0  0  0  0  0  0  0  0
  152.8310  139.3990  156.5300 H   0  0  0  0  0  0  0  0  0  0  0  0
  152.5517  137.5165  154.9431 H   0  0  0  0  0  0  0  0  0  0  0  0
  150.5856  137.5308  153.3887 H   0  0  0  0  0  0  0  0  0  0  0  0
  148.4838  141.7938  152.9102 H   0  0  0  0  0  0  0  0  0  0  0  0
  147.5909  140.4134  153.5629 H   0  0  0  0  0  0  0  0  0  0  0  0
  147.1493  143.3533  154.1669 H   0  0  0  0  0  0  0  0  0  0  0  0
  145.9326  142.1538  153.7155 H   0  0  0  0  0  0  0  0  0  0  0  0
  146.2906  142.7321  156.3467 H   0  0  0  0  0  0  0  0  0  0  0  0
  146.1260  141.0467  155.8530 H   0  0  0  0  0  0  0  0  0  0  0  0
  148.2217  140.8012  156.8721 H   0  0  0  0  0  0  0  0  0  0  0  0
  148.6308  142.5022  156.6322 H   0  0  0  0  0  0  0  0  0  0  0  0
  1  2  1  0  0  0  0
  1 20  1  0  0  0  0
  1 21  1  0  0  0  0
  1 22  1  0  0  0  0
  2  3  1  0  0  0  0
  2 23  1  0  0  0  0
  2 24  1  0  0  0  0
  3  4  1  0  0  0  0
  3  5  1  0  0  0  0
  3 25  1  0  0  0  0
  4 26  1  0  0  0  0
  4 27  1  0  0  0  0
  4 28  1  0  0  0  0
  5  6  1  0  0  0  0
  5 29  1  0  0  0  0
  6  7  2  0  0  0  0
  6  8  1  0  0  0  0
  8  9  1  0  0  0  0
  8 30  1  0  0  0  0
  9 14  1  0  0  0  0
  9 10  2  0  0  0  0
 10 11  1  0  0  0  0
 10 31  1  0  0  0  0
 11 12  2  0  0  0  0
 11 32  1  0  0  0  0
 12 13  1  0  0  0  0
 12 33  1  0  0  0  0
 13 14  2  0  0  0  0
 14 15  1  0  0  0  0
 15 19  1  0  0  0  0
 15 16  1  0  0  0  0
 16 17  1  0  0  0  0
 16 34  1  0  0  0  0
 16 35  1  0  0  0  0
 17 18  1  0  0  0  0
 17 36  1  0  0  0  0
 17 37  1  0  0  0  0
 18 19  1  0  0  0  0
 18 38  1  0  0  0  0
 18 39  1  0  0  0  0
 19 40  1  0  0  0  0
 19 41  1  0  0  0  0
M  END
> <s_m_source_file>
AV-unprocessed.smi

> <i_m_source_file_index>
2450

> <i_lp_mmshare_version>
43012

> <i_f3d_flags>
0

> <s_epik_input>
W0NIM11bQ0gyXVtDQEhdKFtDSDNdKVtOSF1DKD1PKVtOSF1jMVtjSF1bY0hdW2NIXW5jMU4yW0NIMl1bQ0gyXVtDSDJdW0NIMl0y

> <s_epik_cmdline>
J2VwaWtfcHl0aG9uJywgJy1waCcsICc3LjAnLCAnLXRuJywgJzgnLCAnLW1hJywgJzIwMCcsICctbWV0YWxfYmluZGluZycsICctaW1hZScsICc8aW5maWxlLm1hZT4nLCAnLW9tYWUnLCAnPG91dGZpbGUubWFlPic=

> <r_lp_tautomer_probability>
1

> <r_epik_Ionization_Penalty>
0.103391

> <r_epik_Ionization_Penalty_Charging>
0

> <r_epik_Ionization_Penalty_Neutral>
0.103391

> <r_epik_State_Penalty>
0.0927616

> <r_epik_Charging_Adjusted_Penalty>
0.0927616

> <i_epik_Tot_Q>
0

> <i_epik_Tot_abs_Q>
0

> <r_epik_Metal_State_Penalty>
0.0789158

> <b_epik_Metal_Only>
0

> <s_lp_Force_Field>
OPLS_2005

> <r_lp_Energy>
32.2235

> <b_lp_Chiralities_Consistent>
1

> <s_lp_Variant>
AV-unprocessed.smi:2450-1

> <Gold.Version>
5.8.1

> <Gold.Id.Protein>
6NUR|6NUR_protein|mol2

> <Gold.PLP.Fitness>
43.6272

> <Gold.PLP.PLP>
-40.6673

> <Gold.PLP.part.hbond>
0.0000

> <Gold.PLP.part.metal>
0.0000

> <Gold.PLP.part.buried>
-6.4251

> <Gold.PLP.part.nonpolar>
-35.2431

> <Gold.PLP.part.repulsive>
1.0739

> <Gold.PLP.ligand.clash>
0.0000

> <Gold.PLP.ligand.torsion>
0.4707

> <Gold.PLP.Chemscore.Hbond>
0.0000

> <Gold.PLP.Chemscore.CHOScore>
1.1891

> <Gold.PLP.Chemscore.Metal>
0.0000

> <Gold.Chemscore.Hbonds>
donor molecule, donor type, donor heavy atom, donor atom, acceptor molecule, acceptor atom, score
      L1  C    12    33       P1  7948  0.57
      L1  C    12    33       P1  7949  0.61

> <Gold.PLP.Chemscore.Internal.Correction>
0.3342

> <Gold.Rescore>
     Score         DG    S(hbond)    S(metal)    S(lipo)     H(rot)  DE(clash)    DE(int)     intcor
     10.37     -13.44       0.00        0.00      96.84       1.32       0.05       3.02       ----

> <Gold.Chemscore.Fitness>
10.3741

> <Gold.Chemscore.DG>
-13.4410

> <Gold.Chemscore.ZeroCoef>
-5.4800

> <Gold.Chemscore.Hbond>
0.0000

> <Gold.Chemscore.Metal>
0.0000

> <Gold.Chemscore.Lipo>
96.8427

> <Gold.Chemscore.Internal_Hbond>
0.0000

> <Gold.Chemscore.DEClash>
0.0491

> <Gold.Chemscore.DEInternal>
3.0178

> <Gold.Chemscore.Rot>
1.3163

> <Gold.Chemscore.Internal.Correction>
   9.000000E+99

> <Gold.Chemscore.Hbond.Weighted>
-0.0000

> <Gold.Chemscore.Metal.Weighted>
-0.0000

> <Gold.Chemscore.Lipo.Weighted>
-11.3306

> <Gold.Chemscore.Internal_Hbond.Weighted>
0.0000

> <Gold.Chemscore.DEClash.Weighted>
0.0491

> <Gold.Chemscore.DEInternal.Weighted>
3.0178

> <Gold.Chemscore.Rot.Weighted>
3.3696

> <Gold.Chemscore.Internal.Correction.Weighted>
   9.000000E+99

> <Gold.Protein.RotatedTorsions>
[ 6907 6896 6895 6894 ] final  157.02 input  -60.11 | X-H torsion
[ 7974 7965 7964 7962 ] final -137.57 input  175.53 | X-H torsion
[ 8008 7997 7996 7995 ] final  -21.87 input   59.86 | X-H torsion
[ 10167 10162 10161 10158 ] final -165.09 input  -65.29 | X-H torsion
[ 10718 10713 10712 10709 ] final  -67.65 input   66.30 | X-H torsion
[ 10763 10752 10751 10750 ] final   11.55 input  -60.55 | X-H torsion
[ 11005 11000 10999 10996 ] final -133.31 input  -57.11 | X-H torsion

> <Gold.Protein.ActiveResidues>
 VAL166  LYS551  ARG553  GLY616  TRP617  ASP618  TYR619  PRO620  LYS621  CYS622 
 ASP623  PHE694  ASN695  SER759  ASP760  ASP761  ALA762  ILE779  LEU786  VAL792 
 PHE793  MET794  SER795  GLU796  ALA797  LYS798  CYS799  TRP800  GLU811  SER814 

> <Gold.Protein.RotatedAtoms>
  152.0212  133.3899  159.4258 H   0  0  0  0  0  0  0  0  0  0  0  0  # atno 6907 bound_to 6896
  150.6890  134.3624  159.4965 H   0  0  0  0  0  0  0  0  0  0  0  0  # atno 6908 bound_to 6896
  152.1398  134.9071  160.0605 H   0  0  0  0  0  0  0  0  0  0  0  0  # atno 6909 bound_to 6896
  144.8831  140.6536  143.5193 H   0  0  0  0  0  0  0  0  0  0  0  0  # atno 7974 bound_to 7965
  154.4678  140.2023  156.0072 H   0  0  0  0  0  0  0  0  0  0  0  0  # atno 8008 bound_to 7997
  156.0959  140.3251  155.7847 H   0  0  0  0  0  0  0  0  0  0  0  0  # atno 8009 bound_to 7997
  155.4880  140.0544  157.2948 H   0  0  0  0  0  0  0  0  0  0  0  0  # atno 8010 bound_to 7997
  139.6206  144.0633  152.1929 H   0  0  0  0  0  0  0  0  0  0  0  0  # atno 10167 bound_to 10162
  156.0546  130.4281  150.1885 H   0  0  0  0  0  0  0  0  0  0  0  0  # atno 10718 bound_to 10713
  153.1914  135.6843  153.8347 H   0  0  0  0  0  0  0  0  0  0  0  0  # atno 10763 bound_to 10752
  153.7645  135.3205  155.3343 H   0  0  0  0  0  0  0  0  0  0  0  0  # atno 10764 bound_to 10752
  154.8119  135.4711  154.0639 H   0  0  0  0  0  0  0  0  0  0  0  0  # atno 10765 bound_to 10752
  140.9092  134.1590  157.4402 H   0  0  0  0  0  0  0  0  0  0  0  0  # atno 11005 bound_to 11000
  145.3918  139.1615  143.4225 LP  0  0  0  0  0  0  0  0  0  0  0  0  # atno 17320 bound_to 7965
  146.3007  140.4008  142.8705 LP  0  0  0  0  0  0  0  0  0  0  0  0  # atno 17321 bound_to 7965
  140.0273  144.6107  150.7516 LP  0  0  0  0  0  0  0  0  0  0  0  0  # atno 17342 bound_to 10162
  140.7379  143.2771  151.3708 LP  0  0  0  0  0  0  0  0  0  0  0  0  # atno 17343 bound_to 10162
  156.9963  130.9908  151.3402 LP  0  0  0  0  0  0  0  0  0  0  0  0  # atno 17370 bound_to 10713
  157.5505  130.8179  149.8139 LP  0  0  0  0  0  0  0  0  0  0  0  0  # atno 17371 bound_to 10713
  139.8754  134.9929  156.5618 LP  0  0  0  0  0  0  0  0  0  0  0  0  # atno 17394 bound_to 11000
  140.8132  133.8413  155.8828 LP  0  0  0  0  0  0  0  0  0  0  0  0  # atno 17395 bound_to 11000

$$$$
