AV-unprocessed.smi:2282|AV-procd|sdf|9195|dock7
  -GOLD-   2272012413D 1   1.00000     0.00000
 Structure written by MMmdl.
 32 33  0  0  0  0  0  0  0  0  1 V2000
  153.3362  143.6889  163.2643 C   0  0  0  0  0  0  0  0  0  0  0  0
  153.4629  142.6375  162.1776 C   0  0  0  0  0  0  0  0  0  0  0  0
  154.2849  141.6028  162.4583 N   0  0  0  0  0  0  0  0  0  0  0  0
  154.4397  140.6436  161.5230 C   0  0  0  0  0  0  0  0  0  0  0  0
  153.7853  140.6639  160.2767 C   0  0  0  0  0  0  0  0  0  0  0  0
  152.9099  141.7375  159.9859 C   0  0  0  0  0  0  0  0  0  0  0  0
  152.2161  141.8675  158.7508 N   0  0  0  0  0  0  0  0  0  0  0  0
  152.1942  141.0253  157.7016 C   0  0  0  0  0  0  0  0  0  0  0  0
  152.8024  139.9557  157.6532 O   0  0  0  0  0  0  0  0  0  0  0  0
  151.3291  141.4788  156.5136 C   0  0  2  0  0  0  0  0  0  0  0  0
  149.8281  141.6227  156.8391 C   0  0  0  0  0  0  0  0  0  0  0  0
  149.1456  140.6229  155.9200 C   0  0  0  0  0  0  0  0  0  0  0  0
  150.2624  139.6397  155.5871 C   0  0  1  0  0  0  0  0  0  0  0  0
  150.0517  138.8684  154.2801 C   0  0  0  0  0  0  0  0  0  0  0  0
  151.3985  140.4866  155.4914 O   0  0  0  0  0  0  0  0  0  0  0  0
  152.7573  142.7549  160.9570 C   0  0  0  0  0  0  0  0  0  0  0  0
  151.7230  144.1129  160.6622 Cl  0  0  0  0  0  0  0  0  0  0  0  0
  152.3007  143.7681  163.5962 H   0  0  0  0  0  0  0  0  0  0  0  0
  153.6536  144.6621  162.8892 H   0  0  0  0  0  0  0  0  0  0  0  0
  153.9508  143.4458  164.1321 H   0  0  0  0  0  0  0  0  0  0  0  0
  155.1122  139.8367  161.7727 H   0  0  0  0  0  0  0  0  0  0  0  0
  153.9774  139.8706  159.5712 H   0  0  0  0  0  0  0  0  0  0  0  0
  151.6036  142.6675  158.6841 H   0  0  0  0  0  0  0  0  0  0  0  0
  151.7189  142.4150  156.1107 H   0  0  0  0  0  0  0  0  0  0  0  0
  149.6022  141.3945  157.8815 H   0  0  0  0  0  0  0  0  0  0  0  0
  149.4708  142.6357  156.6505 H   0  0  0  0  0  0  0  0  0  0  0  0
  148.2812  140.1426  156.3795 H   0  0  0  0  0  0  0  0  0  0  0  0
  148.8085  141.1305  155.0152 H   0  0  0  0  0  0  0  0  0  0  0  0
  150.4043  138.9415  156.4135 H   0  0  0  0  0  0  0  0  0  0  0  0
  149.1588  138.2451  154.3342 H   0  0  0  0  0  0  0  0  0  0  0  0
  150.9012  138.2171  154.0728 H   0  0  0  0  0  0  0  0  0  0  0  0
  149.9377  139.5462  153.4337 H   0  0  0  0  0  0  0  0  0  0  0  0
  1  2  1  0  0  0  0
  1 18  1  0  0  0  0
  1 19  1  0  0  0  0
  1 20  1  0  0  0  0
  2 16  1  0  0  0  0
  2  3  2  0  0  0  0
  3  4  1  0  0  0  0
  4  5  2  0  0  0  0
  4 21  1  0  0  0  0
  5  6  1  0  0  0  0
  5 22  1  0  0  0  0
  6  7  1  0  0  0  0
  6 16  2  0  0  0  0
  7  8  1  0  0  0  0
  7 23  1  0  0  0  0
  8  9  2  0  0  0  0
  8 10  1  0  0  0  0
 10 15  1  0  0  0  0
 10 11  1  0  0  0  0
 10 24  1  0  0  0  0
 11 12  1  0  0  0  0
 11 25  1  0  0  0  0
 11 26  1  0  0  0  0
 12 13  1  0  0  0  0
 12 27  1  0  0  0  0
 12 28  1  0  0  0  0
 13 14  1  0  0  0  0
 13 15  1  0  0  0  0
 13 29  1  0  0  0  0
 14 30  1  0  0  0  0
 14 31  1  0  0  0  0
 14 32  1  0  0  0  0
 16 17  1  0  0  0  0
M  END
> <s_m_source_file>
AV-unprocessed.smi

> <i_m_source_file_index>
2282

> <i_lp_mmshare_version>
43012

> <i_f3d_flags>
0

> <s_epik_input>
W0NIM11jMW5bY0hdW2NIXWMoYzFDbClbTkhdQyg9TylbQ0BASF0yW0NIMl1bQ0gyXVtDQEhdKE8yKVtDSDNd

> <s_epik_cmdline>
J2VwaWtfcHl0aG9uJywgJy1waCcsICc3LjAnLCAnLXRuJywgJzgnLCAnLW1hJywgJzIwMCcsICctbWV0YWxfYmluZGluZycsICctaW1hZScsICc8aW5maWxlLm1hZT4nLCAnLW9tYWUnLCAnPG91dGZpbGUubWFlPic=

> <r_epik_Ionization_Penalty>
0.00037231

> <r_epik_Ionization_Penalty_Charging>
0

> <r_epik_Ionization_Penalty_Neutral>
0.00037231

> <r_epik_State_Penalty>
0.000225113

> <r_epik_Charging_Adjusted_Penalty>
0.000225113

> <i_epik_Tot_Q>
0

> <i_epik_Tot_abs_Q>
0

> <r_epik_Metal_State_Penalty>
-0

> <b_epik_Metal_Only>
0

> <s_lp_Force_Field>
OPLS_2005

> <r_lp_Energy>
24.6828

> <b_lp_Chiralities_Consistent>
1

> <s_lp_Variant>
AV-unprocessed.smi:2282-1

> <Gold.Version>
5.8.1

> <Gold.Id.Protein>
6NUR|6NUR_protein|mol2

> <Gold.PLP.Fitness>
43.3866

> <Gold.PLP.PLP>
-37.8019

> <Gold.PLP.part.hbond>
-3.0000

> <Gold.PLP.part.metal>
0.0000

> <Gold.PLP.part.buried>
-5.9507

> <Gold.PLP.part.nonpolar>
-27.6491

> <Gold.PLP.part.repulsive>
0.1018

> <Gold.PLP.ligand.clash>
0.0000

> <Gold.PLP.ligand.torsion>
0.0078

> <Gold.PLP.Chemscore.Hbond>
1.8640

> <Gold.PLP.Chemscore.CHOScore>
0.0000

> <Gold.PLP.Chemscore.Metal>
0.0000

> <Gold.Chemscore.Hbonds>
donor molecule, donor type, donor heavy atom, donor atom, acceptor molecule, acceptor atom, score
      P1  H  7989  7998       L1    15  0.86
      P1  H  7997  8010       L1     9  1.00

> <Gold.PLP.Chemscore.Internal.Correction>
0.0083

> <Gold.Rescore>
     Score         DG    S(hbond)    S(metal)    S(lipo)     H(rot)  DE(clash)    DE(int)     intcor
     19.64     -20.99       1.88        0.00     100.71       1.00       0.07       1.28       ----

> <Gold.Chemscore.Fitness>
19.6378

> <Gold.Chemscore.DG>
-20.9913

> <Gold.Chemscore.ZeroCoef>
-5.4800

> <Gold.Chemscore.Hbond>
1.8827

> <Gold.Chemscore.Metal>
0.0000

> <Gold.Chemscore.Lipo>
100.7114

> <Gold.Chemscore.Internal_Hbond>
0.0000

> <Gold.Chemscore.DEClash>
0.0735

> <Gold.Chemscore.DEInternal>
1.2801

> <Gold.Chemscore.Rot>
1.0000

> <Gold.Chemscore.Internal.Correction>
   9.000000E+99

> <Gold.Chemscore.Hbonds>
donor molecule, donor type, donor heavy atom, donor atom, acceptor molecule, acceptor atom, score
      P1  H  7989  7998       L1    15  0.47
      P1  H  7997  8010       L1     9  0.80

> <Gold.Chemscore.Hbond.Weighted>
-6.2881

> <Gold.Chemscore.Metal.Weighted>
-0.0000

> <Gold.Chemscore.Lipo.Weighted>
-11.7832

> <Gold.Chemscore.Internal_Hbond.Weighted>
0.0000

> <Gold.Chemscore.DEClash.Weighted>
0.0735

> <Gold.Chemscore.DEInternal.Weighted>
1.2801

> <Gold.Chemscore.Rot.Weighted>
2.5600

> <Gold.Chemscore.Internal.Correction.Weighted>
   9.000000E+99

> <Gold.Protein.RotatedTorsions>
[ 6907 6896 6895 6894 ] final -104.92 input  -60.11 | X-H torsion
[ 7974 7965 7964 7962 ] final -159.34 input  175.53 | X-H torsion
[ 8008 7997 7996 7995 ] final   59.12 input   59.86 | X-H torsion
[ 10167 10162 10161 10158 ] final   36.64 input  -65.29 | X-H torsion
[ 10718 10713 10712 10709 ] final  106.04 input   66.30 | X-H torsion
[ 10763 10752 10751 10750 ] final  138.55 input  -60.55 | X-H torsion
[ 11005 11000 10999 10996 ] final   13.66 input  -57.11 | X-H torsion

> <Gold.Protein.ActiveResidues>
 VAL166  LYS551  ARG553  GLY616  TRP617  ASP618  TYR619  PRO620  LYS621  CYS622 
 ASP623  PHE694  ASN695  SER759  ASP760  ASP761  ALA762  ILE779  LEU786  VAL792 
 PHE793  MET794  SER795  GLU796  ALA797  LYS798  CYS799  TRP800  GLU811  SER814 

> <Gold.Protein.RotatedAtoms>
  150.7311  134.0205  159.3699 H   0  0  0  0  0  0  0  0  0  0  0  0  # atno 6907 bound_to 6896
  151.8169  135.0661  160.0429 H   0  0  0  0  0  0  0  0  0  0  0  0  # atno 6908 bound_to 6896
  152.3032  133.5640  159.5668 H   0  0  0  0  0  0  0  0  0  0  0  0  # atno 6909 bound_to 6896
  144.7469  140.3698  143.6078 H   0  0  0  0  0  0  0  0  0  0  0  0  # atno 7974 bound_to 7965
  155.5610  140.3488  155.4491 H   0  0  0  0  0  0  0  0  0  0  0  0  # atno 8008 bound_to 7997
  156.0514  140.1318  157.0071 H   0  0  0  0  0  0  0  0  0  0  0  0  # atno 8009 bound_to 7997
  154.4436  140.1004  156.6367 H   0  0  0  0  0  0  0  0  0  0  0  0  # atno 8010 bound_to 7997
  140.4109  144.1594  150.6139 H   0  0  0  0  0  0  0  0  0  0  0  0  # atno 10167 bound_to 10162
  157.6683  131.0842  150.5947 H   0  0  0  0  0  0  0  0  0  0  0  0  # atno 10718 bound_to 10713
  153.8914  135.3032  155.3447 H   0  0  0  0  0  0  0  0  0  0  0  0  # atno 10763 bound_to 10752
  154.7714  135.4884  153.9660 H   0  0  0  0  0  0  0  0  0  0  0  0  # atno 10764 bound_to 10752
  153.1295  135.6801  153.9300 H   0  0  0  0  0  0  0  0  0  0  0  0  # atno 10765 bound_to 10752
  140.4782  134.0962  155.7746 H   0  0  0  0  0  0  0  0  0  0  0  0  # atno 11005 bound_to 11000
  145.7089  139.1680  143.2550 LP  0  0  0  0  0  0  0  0  0  0  0  0  # atno 17320 bound_to 7965
  146.1361  140.7121  142.9389 LP  0  0  0  0  0  0  0  0  0  0  0  0  # atno 17321 bound_to 7965
  140.4639  143.2438  151.9182 LP  0  0  0  0  0  0  0  0  0  0  0  0  # atno 17342 bound_to 10162
  139.4782  144.5439  151.8487 LP  0  0  0  0  0  0  0  0  0  0  0  0  # atno 17343 bound_to 10162
  156.6248  130.4415  149.5808 LP  0  0  0  0  0  0  0  0  0  0  0  0  # atno 17370 bound_to 10713
  156.2327  130.6804  151.1480 LP  0  0  0  0  0  0  0  0  0  0  0  0  # atno 17371 bound_to 10713
  141.1544  133.8910  157.2016 LP  0  0  0  0  0  0  0  0  0  0  0  0  # atno 17394 bound_to 11000
  139.9843  135.0087  156.9824 LP  0  0  0  0  0  0  0  0  0  0  0  0  # atno 17395 bound_to 11000

$$$$
