AV-unprocessed.smi:446|AV-procd|sdf|2593|dock10
  -GOLD-   2262022593D 1   1.00000     0.00000
 Structure written by MMmdl.
 35 37  0  0  0  0  0  0  0  0  1 V2000
  152.3715  139.1421  155.4981 C   0  0  0  0  0  0  0  0  0  0  0  0
  151.0836  139.9016  155.5355 C   0  0  0  0  0  0  0  0  0  0  0  0
  150.4289  140.2444  154.4258 N   0  0  0  0  0  0  0  0  0  0  0  0
  149.3219  140.9077  154.9196 C   0  0  0  0  0  0  0  0  0  0  0  0
  148.2391  141.5178  154.2466 C   0  0  0  0  0  0  0  0  0  0  0  0
  147.2060  142.1424  154.9760 C   0  0  0  0  0  0  0  0  0  0  0  0
  147.2401  142.1660  156.3855 C   0  0  0  0  0  0  0  0  0  0  0  0
  148.3106  141.5656  157.0758 C   0  0  0  0  0  0  0  0  0  0  0  0
  149.3397  140.9448  156.3428 C   0  0  0  0  0  0  0  0  0  0  0  0
  150.5085  140.2827  156.7030 N   0  0  0  0  0  0  0  0  0  0  0  0
  150.9837  140.0620  158.0622 C   0  0  0  0  0  0  0  0  0  0  0  0
  152.4247  140.5682  158.2717 C   0  0  2  0  0  0  0  0  0  0  0  0
  153.3189  139.4736  158.3257 O   0  0  0  0  0  0  0  0  0  0  0  0
  152.5264  141.4559  159.5021 C   0  0  0  0  0  0  0  0  0  0  0  0
  151.8295  142.6828  159.5435 C   0  0  0  0  0  0  0  0  0  0  0  0
  151.9132  143.5093  160.6811 C   0  0  0  0  0  0  0  0  0  0  0  0
  152.6924  143.1126  161.7848 C   0  0  0  0  0  0  0  0  0  0  0  0
  152.7730  143.9073  162.8780 F   0  0  0  0  0  0  0  0  0  0  0  0
  153.3863  141.8878  161.7512 C   0  0  0  0  0  0  0  0  0  0  0  0
  153.3027  141.0606  160.6143 C   0  0  0  0  0  0  0  0  0  0  0  0
  152.6967  138.9901  154.4683 H   0  0  0  0  0  0  0  0  0  0  0  0
  152.2456  138.1654  155.9656 H   0  0  0  0  0  0  0  0  0  0  0  0
  153.1519  139.6901  156.0258 H   0  0  0  0  0  0  0  0  0  0  0  0
  148.2037  141.5048  153.1674 H   0  0  0  0  0  0  0  0  0  0  0  0
  146.3830  142.6052  154.4513 H   0  0  0  0  0  0  0  0  0  0  0  0
  146.4443  142.6454  156.9366 H   0  0  0  0  0  0  0  0  0  0  0  0
  148.3413  141.5818  158.1551 H   0  0  0  0  0  0  0  0  0  0  0  0
  150.3067  140.5838  158.7397 H   0  0  0  0  0  0  0  0  0  0  0  0
  150.9063  139.0042  158.3137 H   0  0  0  0  0  0  0  0  0  0  0  0
  152.7177  141.1606  157.4040 H   0  0  0  0  0  0  0  0  0  0  0  0
  152.8696  138.7045  158.0099 H   0  0  0  0  0  0  0  0  0  0  0  0
  151.2267  142.9949  158.7030 H   0  0  0  0  0  0  0  0  0  0  0  0
  151.3789  144.4476  160.7068 H   0  0  0  0  0  0  0  0  0  0  0  0
  153.9820  141.5819  162.5984 H   0  0  0  0  0  0  0  0  0  0  0  0
  153.8352  140.1209  160.5998 H   0  0  0  0  0  0  0  0  0  0  0  0
  1  2  1  0  0  0  0
  1 21  1  0  0  0  0
  1 22  1  0  0  0  0
  1 23  1  0  0  0  0
  2 10  1  0  0  0  0
  2  3  2  0  0  0  0
  3  4  1  0  0  0  0
  4  9  2  0  0  0  0
  4  5  1  0  0  0  0
  5  6  2  0  0  0  0
  5 24  1  0  0  0  0
  6  7  1  0  0  0  0
  6 25  1  0  0  0  0
  7  8  2  0  0  0  0
  7 26  1  0  0  0  0
  8  9  1  0  0  0  0
  8 27  1  0  0  0  0
  9 10  1  0  0  0  0
 10 11  1  0  0  0  0
 11 12  1  0  0  0  0
 11 28  1  0  0  0  0
 11 29  1  0  0  0  0
 12 13  1  0  0  0  0
 12 14  1  0  0  0  0
 12 30  1  0  0  0  0
 13 31  1  0  0  0  0
 14 20  1  0  0  0  0
 14 15  2  0  0  0  0
 15 16  1  0  0  0  0
 15 32  1  0  0  0  0
 16 17  2  0  0  0  0
 16 33  1  0  0  0  0
 17 18  1  0  0  0  0
 17 19  1  0  0  0  0
 19 20  2  0  0  0  0
 19 34  1  0  0  0  0
 20 35  1  0  0  0  0
M  END
> <s_m_source_file>
AV-unprocessed.smi

> <i_m_source_file_index>
446

> <i_lp_mmshare_version>
43012

> <i_f3d_flags>
0

> <s_epik_input>
W2NIXTFbY0hdW2NIXVtjSF1jKGMxMiluKGMobjIpW0NIM10pW0NIMl1bQ0BIXShbT0hdKWMzW2NIXVtjSF1jKEYpW2NIXVtjSF0z

> <s_epik_cmdline>
J2VwaWtfcHl0aG9uJywgJy1waCcsICc3LjAnLCAnLXRuJywgJzgnLCAnLW1hJywgJzIwMCcsICctbWV0YWxfYmluZGluZycsICctaW1hZScsICc8aW5maWxlLm1hZT4nLCAnLW9tYWUnLCAnPG91dGZpbGUubWFlPic=

> <r_epik_Ionization_Penalty>
0.129663

> <r_epik_Ionization_Penalty_Charging>
0

> <r_epik_Ionization_Penalty_Neutral>
0.129663

> <r_epik_State_Penalty>
0.119073

> <r_epik_Charging_Adjusted_Penalty>
0.119073

> <i_epik_Tot_Q>
0

> <i_epik_Tot_abs_Q>
0

> <r_epik_Metal_State_Penalty>
0.000131867

> <b_epik_Metal_Only>
0

> <s_lp_Force_Field>
OPLS_2005

> <r_lp_Energy>
11.4063

> <b_lp_Chiralities_Consistent>
1

> <s_lp_Variant>
AV-unprocessed.smi:446-1

> <Gold.Version>
5.8.1

> <Gold.Id.Protein>
6NUR|6NUR_protein|mol2

> <Gold.PLP.Fitness>
50.5608

> <Gold.PLP.PLP>
-46.1253

> <Gold.PLP.part.hbond>
-2.0000

> <Gold.PLP.part.metal>
0.0000

> <Gold.PLP.part.buried>
-3.6976

> <Gold.PLP.part.nonpolar>
-40.6539

> <Gold.PLP.part.repulsive>
0.1052

> <Gold.PLP.ligand.clash>
0.0000

> <Gold.PLP.ligand.torsion>
0.7934

> <Gold.PLP.Chemscore.Hbond>
2.0000

> <Gold.PLP.Chemscore.CHOScore>
0.0000

> <Gold.PLP.Chemscore.Metal>
0.0000

> <Gold.Chemscore.Hbonds>
donor molecule, donor type, donor heavy atom, donor atom, acceptor molecule, acceptor atom, score
      P1  H  7989  7998       L1     3  1.00
      P1  H  7997  8010       L1    13  1.00

> <Gold.PLP.Chemscore.Internal.Correction>
0.0223

> <Gold.Rescore>
     Score         DG    S(hbond)    S(metal)    S(lipo)     H(rot)  DE(clash)    DE(int)     intcor
     16.06     -18.25       1.25        0.00     112.76       1.79       0.33       1.86       ----

> <Gold.Chemscore.Fitness>
16.0555

> <Gold.Chemscore.DG>
-18.2508

> <Gold.Chemscore.ZeroCoef>
-5.4800

> <Gold.Chemscore.Hbond>
1.2477

> <Gold.Chemscore.Metal>
0.0000

> <Gold.Chemscore.Lipo>
112.7577

> <Gold.Chemscore.Internal_Hbond>
0.0000

> <Gold.Chemscore.DEClash>
0.3306

> <Gold.Chemscore.DEInternal>
1.8646

> <Gold.Chemscore.Rot>
1.7926

> <Gold.Chemscore.Internal.Correction>
   9.000000E+99

> <Gold.Chemscore.Hbonds>
donor molecule, donor type, donor heavy atom, donor atom, acceptor molecule, acceptor atom, score
      P1  H  7989  7998       L1     3  0.39
      P1  H  7997  8010       L1    13  0.39

> <Gold.Chemscore.Hbond.Weighted>
-4.1672

> <Gold.Chemscore.Metal.Weighted>
-0.0000

> <Gold.Chemscore.Lipo.Weighted>
-13.1926

> <Gold.Chemscore.Internal_Hbond.Weighted>
0.0000

> <Gold.Chemscore.DEClash.Weighted>
0.3306

> <Gold.Chemscore.DEInternal.Weighted>
1.8646

> <Gold.Chemscore.Rot.Weighted>
4.5890

> <Gold.Chemscore.Internal.Correction.Weighted>
   9.000000E+99

> <Gold.Protein.RotatedTorsions>
[ 6907 6896 6895 6894 ] final  130.02 input  -60.11 | X-H torsion
[ 7974 7965 7964 7962 ] final  -29.04 input  175.53 | X-H torsion
[ 8008 7997 7996 7995 ] final   17.50 input   59.86 | X-H torsion
[ 10167 10162 10161 10158 ] final -175.21 input  -65.29 | X-H torsion
[ 10718 10713 10712 10709 ] final  -48.00 input   66.30 | X-H torsion
[ 10763 10752 10751 10750 ] final  -64.56 input  -60.55 | X-H torsion
[ 11005 11000 10999 10996 ] final  -61.60 input  -57.11 | X-H torsion

> <Gold.Protein.ActiveResidues>
 VAL166  LYS551  ARG553  GLY616  TRP617  ASP618  TYR619  PRO620  LYS621  CYS622 
 ASP623  PHE694  ASN695  SER759  ASP760  ASP761  ALA762  ILE779  LEU786  VAL792 
 PHE793  MET794  SER795  GLU796  ALA797  LYS798  CYS799  TRP800  GLU811  SER814 

> <Gold.Protein.RotatedAtoms>
  152.3567  133.6246  159.5984 H   0  0  0  0  0  0  0  0  0  0  0  0  # atno 6907 bound_to 6896
  150.7573  133.9488  159.3488 H   0  0  0  0  0  0  0  0  0  0  0  0  # atno 6908 bound_to 6896
  151.7332  135.0871  160.0354 H   0  0  0  0  0  0  0  0  0  0  0  0  # atno 6909 bound_to 6896
  146.1245  140.5361  142.8721 H   0  0  0  0  0  0  0  0  0  0  0  0  # atno 7974 bound_to 7965
  154.8924  140.2989  155.5363 H   0  0  0  0  0  0  0  0  0  0  0  0  # atno 8008 bound_to 7997
  156.3020  140.2422  156.3875 H   0  0  0  0  0  0  0  0  0  0  0  0  # atno 8009 bound_to 7997
  154.8605  140.0405  157.1651 H   0  0  0  0  0  0  0  0  0  0  0  0  # atno 8010 bound_to 7997
  139.5593  144.1910  152.1212 H   0  0  0  0  0  0  0  0  0  0  0  0  # atno 10167 bound_to 10162
  156.2030  130.4157  149.9216 H   0  0  0  0  0  0  0  0  0  0  0  0  # atno 10718 bound_to 10713
  154.3319  135.6175  153.5555 H   0  0  0  0  0  0  0  0  0  0  0  0  # atno 10763 bound_to 10752
  152.9811  135.5749  154.4952 H   0  0  0  0  0  0  0  0  0  0  0  0  # atno 10764 bound_to 10752
  154.4640  135.2857  155.1669 H   0  0  0  0  0  0  0  0  0  0  0  0  # atno 10765 bound_to 10752
  141.1330  133.6631  156.5399 H   0  0  0  0  0  0  0  0  0  0  0  0  # atno 11005 bound_to 11000
  144.7629  140.5463  143.6723 LP  0  0  0  0  0  0  0  0  0  0  0  0  # atno 17320 bound_to 7965
  145.5395  139.1475  143.3455 LP  0  0  0  0  0  0  0  0  0  0  0  0  # atno 17321 bound_to 7965
  140.1420  144.5193  150.6738 LP  0  0  0  0  0  0  0  0  0  0  0  0  # atno 17342 bound_to 10162
  140.6871  143.2355  151.5232 LP  0  0  0  0  0  0  0  0  0  0  0  0  # atno 17343 bound_to 10162
  156.6919  130.8899  151.3589 LP  0  0  0  0  0  0  0  0  0  0  0  0  # atno 17370 bound_to 10713
  157.6996  130.9319  150.0746 LP  0  0  0  0  0  0  0  0  0  0  0  0  # atno 17371 bound_to 10713
  140.4148  134.7240  157.4856 LP  0  0  0  0  0  0  0  0  0  0  0  0  # atno 17394 bound_to 11000
  140.0402  134.6279  155.8991 LP  0  0  0  0  0  0  0  0  0  0  0  0  # atno 17395 bound_to 11000

$$$$
