AV-unprocessed.smi:1833|AV-procd|sdf|7466|dock8
  -GOLD-   22720 9163D 1   1.00000     0.00000
 Structure written by MMmdl.
 42 43  0  0  0  0  0  0  0  0  2 V2000
  144.4088  133.7733  150.7202 C   0  0  0  0  0  0  0  0  0  0  0  0
  145.6580  134.6644  150.7181 C   0  0  0  0  0  0  0  0  0  0  0  0
  146.5420  134.4098  151.8830 N   0  3  2  0  0  0  0  0  0  0  0  0
  147.0051  132.9979  151.9313 C   0  0  0  0  0  0  0  0  0  0  0  0
  148.0256  132.7791  153.0610 C   0  0  0  0  0  0  0  0  0  0  0  0
  147.4598  133.2297  154.4171 C   0  0  0  0  0  0  0  0  0  0  0  0
  146.9474  134.6783  154.3425 C   0  0  1  0  0  0  0  0  0  0  0  0
  148.0753  135.5981  154.1991 N   0  0  0  0  0  0  0  0  0  0  0  0
  149.0211  135.8132  155.1237 C   0  0  0  0  0  0  0  0  0  0  0  0
  149.0356  135.2767  156.2313 O   0  0  0  0  0  0  0  0  0  0  0  0
  149.9473  136.6796  154.6907 N   0  0  0  0  0  0  0  0  0  0  0  0
  151.1419  137.0825  155.4273 C   0  0  0  0  0  0  0  0  0  0  0  0
  151.6672  138.4658  155.0031 C   0  0  0  0  0  0  0  0  0  0  0  0
  151.0832  139.6051  155.7742 C   0  0  0  0  0  0  0  0  0  0  0  0
  150.3240  140.5614  155.2302 N   0  0  0  0  0  0  0  0  0  0  0  0
  149.9022  141.5045  156.1709 C   0  0  0  0  0  0  0  0  0  0  0  0
  150.3252  141.2344  157.4469 C   0  0  0  0  0  0  0  0  0  0  0  0
  151.2881  139.7849  157.5133 S   0  0  0  0  0  0  0  0  0  0  0  0
  145.9423  134.8266  153.1798 C   0  0  0  0  0  0  0  0  0  0  0  0
  143.7329  134.0589  149.9141 H   0  0  0  0  0  0  0  0  0  0  0  0
  143.8606  133.8652  151.6584 H   0  0  0  0  0  0  0  0  0  0  0  0
  144.6564  132.7226  150.5741 H   0  0  0  0  0  0  0  0  0  0  0  0
  146.2168  134.5424  149.7893 H   0  0  0  0  0  0  0  0  0  0  0  0
  145.3233  135.7023  150.7432 H   0  0  0  0  0  0  0  0  0  0  0  0
  146.1468  132.3380  152.0678 H   0  0  0  0  0  0  0  0  0  0  0  0
  147.4649  132.7267  150.9803 H   0  0  0  0  0  0  0  0  0  0  0  0
  148.3068  131.7267  153.1083 H   0  0  0  0  0  0  0  0  0  0  0  0
  148.9406  133.3293  152.8386 H   0  0  0  0  0  0  0  0  0  0  0  0
  146.6386  132.5703  154.7009 H   0  0  0  0  0  0  0  0  0  0  0  0
  148.2165  133.1291  155.1964 H   0  0  0  0  0  0  0  0  0  0  0  0
  146.4378  134.9055  155.2808 H   0  0  0  0  0  0  0  0  0  0  0  0
  148.1591  136.0811  153.3165 H   0  0  0  0  0  0  0  0  0  0  0  0
  149.8376  137.0678  153.7655 H   0  0  0  0  0  0  0  0  0  0  0  0
  150.9608  137.0601  156.5033 H   0  0  0  0  0  0  0  0  0  0  0  0
  151.9110  136.3344  155.2356 H   0  0  0  0  0  0  0  0  0  0  0  0
  152.7501  138.4950  155.1262 H   0  0  0  0  0  0  0  0  0  0  0  0
  151.4776  138.6253  153.9409 H   0  0  0  0  0  0  0  0  0  0  0  0
  149.3019  142.3407  155.8461 H   0  0  0  0  0  0  0  0  0  0  0  0
  150.1336  141.7991  158.3473 H   0  0  0  0  0  0  0  0  0  0  0  0
  145.6010  135.8600  153.1290 H   0  0  0  0  0  0  0  0  0  0  0  0
  145.0562  134.2210  153.3772 H   0  0  0  0  0  0  0  0  0  0  0  0
  147.3672  134.9759  151.7459 H   0  0  0  0  0  0  0  0  0  0  0  0
  1  2  1  0  0  0  0
  1 20  1  0  0  0  0
  1 21  1  0  0  0  0
  1 22  1  0  0  0  0
  2  3  1  0  0  0  0
  2 23  1  0  0  0  0
  2 24  1  0  0  0  0
  3 19  1  0  0  0  0
  3  4  1  0  0  0  0
  3 42  1  0  0  0  0
  4  5  1  0  0  0  0
  4 25  1  0  0  0  0
  4 26  1  0  0  0  0
  5  6  1  0  0  0  0
  5 27  1  0  0  0  0
  5 28  1  0  0  0  0
  6  7  1  0  0  0  0
  6 29  1  0  0  0  0
  6 30  1  0  0  0  0
  7  8  1  0  0  0  0
  7 19  1  0  0  0  0
  7 31  1  0  0  0  0
  8  9  1  0  0  0  0
  8 32  1  0  0  0  0
  9 10  2  0  0  0  0
  9 11  1  0  0  0  0
 11 12  1  0  0  0  0
 11 33  1  0  0  0  0
 12 13  1  0  0  0  0
 12 34  1  0  0  0  0
 12 35  1  0  0  0  0
 13 14  1  0  0  0  0
 13 36  1  0  0  0  0
 13 37  1  0  0  0  0
 14 18  1  0  0  0  0
 14 15  2  0  0  0  0
 15 16  1  0  0  0  0
 16 17  2  0  0  0  0
 16 38  1  0  0  0  0
 17 18  1  0  0  0  0
 17 39  1  0  0  0  0
 19 40  1  0  0  0  0
 19 41  1  0  0  0  0
M  CHG  1   3   1
M  END
> <s_m_source_file>
AV-unprocessed.smi

> <i_m_source_file_index>
1833

> <i_lp_mmshare_version>
43012

> <i_f3d_flags>
0

> <s_epik_input>
W0NIM11bQ0gyXU4xW0NIMl1bQ0gyXVtDSDJdW0NASF0oW0NIMl0xKVtOSF1DKD1PKVtOSF1bQ0gyXVtDSDJdYzJuW2NIXVtjSF1zMg==

> <s_epik_cmdline>
J2VwaWtfcHl0aG9uJywgJy1waCcsICc3LjAnLCAnLXRuJywgJzgnLCAnLW1hJywgJzIwMCcsICctbWV0YWxfYmluZGluZycsICctaW1hZScsICc8aW5maWxlLm1hZT4nLCAnLW9tYWUnLCAnPG91dGZpbGUubWFlPic=

> <r_lp_tautomer_probability>
1

> <r_epik_Ionization_Penalty>
0.00269629

> <r_epik_Ionization_Penalty_Charging>
0.00233899

> <r_epik_Ionization_Penalty_Neutral>
0.000357304

> <r_epik_State_Penalty>
-0

> <r_epik_Charging_Adjusted_Penalty>
0.00233899

> <i_epik_Tot_Q>
1

> <i_epik_Tot_abs_Q>
1

> <r_epik_Metal_State_Penalty>
-0

> <b_epik_Metal_Only>
0

> <s_lp_Force_Field>
OPLS_2005

> <r_lp_Energy>
14.5557

> <b_lp_Chiralities_Consistent>
1

> <s_lp_Variant>
AV-unprocessed.smi:1833-2

> <Gold.Version>
5.8.1

> <Gold.Id.Protein>
6NUR|6NUR_protein|mol2

> <Gold.PLP.Fitness>
47.2112

> <Gold.PLP.PLP>
-31.9063

> <Gold.PLP.part.hbond>
-4.0682

> <Gold.PLP.part.metal>
0.0000

> <Gold.PLP.part.buried>
-2.0564

> <Gold.PLP.part.nonpolar>
-25.9453

> <Gold.PLP.part.repulsive>
0.1938

> <Gold.PLP.ligand.clash>
0.0000

> <Gold.PLP.ligand.torsion>
0.4321

> <Gold.PLP.Chemscore.Hbond>
4.3718

> <Gold.PLP.Chemscore.CHOScore>
1.0000

> <Gold.PLP.Chemscore.Metal>
0.0000

> <Gold.Chemscore.Hbonds>
donor molecule, donor type, donor heavy atom, donor atom, acceptor molecule, acceptor atom, score
      L1  H     3    42       P1  7948  2.00
      L1  H     8    32       P1  7948  0.94
      L1  H    11    33       P1  7948  0.34
      P1  H  7989  7998       L1    15  0.43
      L1  C    16    38       P1  8028  1.00

> <Gold.PLP.Chemscore.Internal.Correction>
0.0537

> <Gold.Rescore>
     Score         DG    S(hbond)    S(metal)    S(lipo)     H(rot)  DE(clash)    DE(int)     intcor
     17.75     -18.40       2.92        0.00      64.71       1.71       0.17       0.48       ----

> <Gold.Chemscore.Fitness>
17.7474

> <Gold.Chemscore.DG>
-18.4013

> <Gold.Chemscore.ZeroCoef>
-5.4800

> <Gold.Chemscore.Hbond>
2.9162

> <Gold.Chemscore.Metal>
0.0000

> <Gold.Chemscore.Lipo>
64.7065

> <Gold.Chemscore.Internal_Hbond>
0.0000

> <Gold.Chemscore.DEClash>
0.1739

> <Gold.Chemscore.DEInternal>
0.4800

> <Gold.Chemscore.Rot>
1.7147

> <Gold.Chemscore.Internal.Correction>
   9.000000E+99

> <Gold.Chemscore.Hbonds>
donor molecule, donor type, donor heavy atom, donor atom, acceptor molecule, acceptor atom, score
      L1  H     3    42       P1  7948  0.80
      L1  H     8    32       P1  7948  0.91
      L1  H    11    33       P1  7948  0.21
      P1  H  7989  7998       L1    15  0.05

> <Gold.Chemscore.Hbond.Weighted>
-9.7402

> <Gold.Chemscore.Metal.Weighted>
-0.0000

> <Gold.Chemscore.Lipo.Weighted>
-7.5707

> <Gold.Chemscore.Internal_Hbond.Weighted>
0.0000

> <Gold.Chemscore.DEClash.Weighted>
0.1739

> <Gold.Chemscore.DEInternal.Weighted>
0.4800

> <Gold.Chemscore.Rot.Weighted>
4.3896

> <Gold.Chemscore.Internal.Correction.Weighted>
   9.000000E+99

> <Gold.Protein.RotatedTorsions>
[ 6907 6896 6895 6894 ] final -115.16 input  -60.11 | X-H torsion
[ 7974 7965 7964 7962 ] final -155.60 input  175.53 | X-H torsion
[ 8008 7997 7996 7995 ] final   76.59 input   59.86 | X-H torsion
[ 10167 10162 10161 10158 ] final -141.62 input  -65.29 | X-H torsion
[ 10718 10713 10712 10709 ] final  113.28 input   66.30 | X-H torsion
[ 10763 10752 10751 10750 ] final   -0.79 input  -60.55 | X-H torsion
[ 11005 11000 10999 10996 ] final   -2.88 input  -57.11 | X-H torsion

> <Gold.Protein.ActiveResidues>
 VAL166  LYS551  ARG553  GLY616  TRP617  ASP618  TYR619  PRO620  LYS621  CYS622 
 ASP623  PHE694  ASN695  SER759  ASP760  ASP761  ALA762  ILE779  LEU786  VAL792 
 PHE793  MET794  SER795  GLU796  ALA797  LYS798  CYS799  TRP800  GLU811  SER814 

> <Gold.Protein.RotatedAtoms>
  150.7957  133.8698  159.3255 H   0  0  0  0  0  0  0  0  0  0  0  0  # atno 6907 bound_to 6896
  151.6524  135.0998  160.0173 H   0  0  0  0  0  0  0  0  0  0  0  0  # atno 6908 bound_to 6896
  152.4038  133.6818  159.6374 H   0  0  0  0  0  0  0  0  0  0  0  0  # atno 6909 bound_to 6896
  144.7632  140.4227  143.5961 H   0  0  0  0  0  0  0  0  0  0  0  0  # atno 7974 bound_to 7965
  155.8295  140.3466  155.5564 H   0  0  0  0  0  0  0  0  0  0  0  0  # atno 8008 bound_to 7997
  155.8257  140.0919  157.1843 H   0  0  0  0  0  0  0  0  0  0  0  0  # atno 8009 bound_to 7997
  154.4004  140.1422  156.3540 H   0  0  0  0  0  0  0  0  0  0  0  0  # atno 8010 bound_to 7997
  139.8167  143.7629  152.2665 H   0  0  0  0  0  0  0  0  0  0  0  0  # atno 10167 bound_to 10162
  157.6347  131.0981  150.7018 H   0  0  0  0  0  0  0  0  0  0  0  0  # atno 10718 bound_to 10713
  153.3365  135.6978  153.6903 H   0  0  0  0  0  0  0  0  0  0  0  0  # atno 10763 bound_to 10752
  153.5685  135.3521  155.2829 H   0  0  0  0  0  0  0  0  0  0  0  0  # atno 10764 bound_to 10752
  154.8628  135.4266  154.2567 H   0  0  0  0  0  0  0  0  0  0  0  0  # atno 10765 bound_to 10752
  140.6632  133.9302  155.8449 H   0  0  0  0  0  0  0  0  0  0  0  0  # atno 11005 bound_to 11000
  145.6552  139.1571  143.2839 LP  0  0  0  0  0  0  0  0  0  0  0  0  # atno 17320 bound_to 7965
  146.1716  140.6637  142.9231 LP  0  0  0  0  0  0  0  0  0  0  0  0  # atno 17321 bound_to 7965
  139.7795  144.7449  151.0109 LP  0  0  0  0  0  0  0  0  0  0  0  0  # atno 17342 bound_to 10162
  140.7815  143.4558  151.0348 LP  0  0  0  0  0  0  0  0  0  0  0  0  # atno 17343 bound_to 10162
  156.7351  130.4722  149.5490 LP  0  0  0  0  0  0  0  0  0  0  0  0  # atno 17370 bound_to 10713
  156.1576  130.6352  151.0677 LP  0  0  0  0  0  0  0  0  0  0  0  0  # atno 17371 bound_to 10713
  141.0449  134.0568  157.3856 LP  0  0  0  0  0  0  0  0  0  0  0  0  # atno 17394 bound_to 11000
  139.9006  135.0163  156.7249 LP  0  0  0  0  0  0  0  0  0  0  0  0  # atno 17395 bound_to 11000

$$$$
