AV-unprocessed.smi:54|AV-procd|sdf|547|dock2
  -GOLD-   2262016443D 1   1.00000     0.00000
 Structure written by MMmdl.
 43 45  0  0  0  0  0  0  0  0  2 V2000
  152.3773  144.2725  158.4292 C   0  0  0  0  0  0  0  0  0  0  0  0
  151.7972  143.1959  159.3613 C   0  0  0  0  0  0  0  0  0  0  0  0
  152.8142  142.7831  160.4383 C   0  0  0  0  0  0  0  0  0  0  0  0
  151.3312  141.9726  158.5588 C   0  0  0  0  0  0  0  0  0  0  0  0
  150.1376  141.6644  158.5757 O   0  0  0  0  0  0  0  0  0  0  0  0
  152.3023  141.3297  157.8726 N   0  0  0  0  0  0  0  0  0  0  0  0
  152.2068  140.2085  157.0394 C   0  0  0  0  0  0  0  0  0  0  0  0
  151.0057  140.0428  156.5404 N   0  0  0  0  0  0  0  0  0  0  0  0
  150.9235  138.9426  155.7084 C   0  0  0  0  0  0  0  0  0  0  0  0
  151.9195  138.0666  155.3758 C   0  0  0  0  0  0  0  0  0  0  0  0
  151.4577  137.0755  154.5182 N   0  0  0  0  0  0  0  0  0  0  0  0
  150.1764  137.4094  154.3700 C   0  0  0  0  0  0  0  0  0  0  0  0
  149.7844  138.5176  155.0339 N   0  0  0  0  0  0  0  0  0  0  0  0
  148.4249  139.1485  155.0841 C   0  0  2  0  0  0  0  0  0  0  0  0
  147.5538  138.3884  154.2996 O   0  0  0  0  0  0  0  0  0  0  0  0
  147.4746  138.9556  152.9962 C   0  0  1  0  0  0  0  0  0  0  0  0
  146.2524  138.4247  152.2263 C   0  0  0  0  0  0  0  0  0  0  0  0
  146.3762  138.7282  150.8531 O   0  0  0  0  0  0  0  0  0  0  0  0
  147.4653  140.4565  153.3112 C   0  0  1  0  0  0  0  0  0  0  0  0
  146.1632  140.8775  153.6881 O   0  0  0  0  0  0  0  0  0  0  0  0
  148.4764  140.5545  154.4550 C   0  0  1  0  0  0  0  0  0  0  0  0
  148.1753  141.5890  155.3727 O   0  0  0  0  0  0  0  0  0  0  0  0
  153.2555  138.3177  155.9658 C   0  0  0  0  0  0  0  0  0  0  0  0
  154.1835  137.5587  155.6926 O   0  0  0  0  0  0  0  0  0  0  0  0
  153.3389  139.4079  156.7859 N   0  5  0  0  0  0  0  0  0  0  0  0
  148.1435  139.1224  156.1377 H   0  0  0  0  0  0  0  0  0  0  0  0
  148.3895  138.7272  152.4457 H   0  0  0  0  0  0  0  0  0  0  0  0
  147.7760  141.0495  152.4505 H   0  0  0  0  0  0  0  0  0  0  0  0
  149.4703  140.7322  154.0407 H   0  0  0  0  0  0  0  0  0  0  0  0
  151.6569  144.5635  157.6636 H   0  0  0  0  0  0  0  0  0  0  0  0
  153.2789  143.9239  157.9237 H   0  0  0  0  0  0  0  0  0  0  0  0
  152.6399  145.1707  158.9887 H   0  0  0  0  0  0  0  0  0  0  0  0
  150.9315  143.6264  159.8676 H   0  0  0  0  0  0  0  0  0  0  0  0
  152.4080  142.0090  161.0907 H   0  0  0  0  0  0  0  0  0  0  0  0
  153.0820  143.6326  161.0670 H   0  0  0  0  0  0  0  0  0  0  0  0
  153.7335  142.3971  159.9959 H   0  0  0  0  0  0  0  0  0  0  0  0
  153.2134  141.7591  157.9326 H   0  0  0  0  0  0  0  0  0  0  0  0
  149.5063  136.8270  153.7551 H   0  0  0  0  0  0  0  0  0  0  0  0
  146.1285  137.3501  152.3659 H   0  0  0  0  0  0  0  0  0  0  0  0
  145.3434  138.9082  152.5852 H   0  0  0  0  0  0  0  0  0  0  0  0
  145.5554  138.5340  150.4273 H   0  0  0  0  0  0  0  0  0  0  0  0
  145.5307  140.3860  153.1875 H   0  0  0  0  0  0  0  0  0  0  0  0
  148.5879  142.3834  155.0699 H   0  0  0  0  0  0  0  0  0  0  0  0
  1  2  1  0  0  0  0
  1 30  1  0  0  0  0
  1 31  1  0  0  0  0
  1 32  1  0  0  0  0
  2  3  1  0  0  0  0
  2  4  1  0  0  0  0
  2 33  1  0  0  0  0
  3 34  1  0  0  0  0
  3 35  1  0  0  0  0
  3 36  1  0  0  0  0
  4  5  2  0  0  0  0
  4  6  1  0  0  0  0
  6 37  1  0  0  0  0
  6  7  1  0  0  0  0
  7 25  1  0  0  0  0
  7  8  2  0  0  0  0
  8  9  1  0  0  0  0
  9 13  1  0  0  0  0
  9 10  2  0  0  0  0
 10 11  1  0  0  0  0
 10 23  1  0  0  0  0
 11 12  2  0  0  0  0
 12 13  1  0  0  0  0
 12 38  1  0  0  0  0
 13 14  1  0  0  0  0
 14 26  1  0  0  0  0
 14 21  1  0  0  0  0
 14 15  1  0  0  0  0
 15 16  1  0  0  0  0
 16 27  1  0  0  0  0
 16 17  1  0  0  0  0
 16 19  1  0  0  0  0
 17 18  1  0  0  0  0
 17 39  1  0  0  0  0
 17 40  1  0  0  0  0
 18 41  1  0  0  0  0
 19 28  1  0  0  0  0
 19 20  1  0  0  0  0
 19 21  1  0  0  0  0
 20 42  1  0  0  0  0
 21 29  1  0  0  0  0
 21 22  1  0  0  0  0
 22 43  1  0  0  0  0
 23 24  2  0  0  0  0
 23 25  1  0  0  0  0
M  CHG  1  25  -1
M  END
> <s_m_source_file>
AV-unprocessed.smi

> <i_m_source_file_index>
54

> <i_lp_mmshare_version>
43012

> <i_f3d_flags>
0

> <s_epik_input>
W0NIM11bQ0hdKFtDSDNdKUMoPU8pW05IXWMobjEpW25IXWMoPU8pYyhjMTIpbltjSF1uMltDQEBIXTNPW0NASF0oW0NIMl1bT0hdKVtDQEBIXShbT0hdKVtDQEhdM1tPSF0=

> <s_epik_cmdline>
J2VwaWtfcHl0aG9uJywgJy1waCcsICc3LjAnLCAnLXRuJywgJzgnLCAnLW1hJywgJzIwMCcsICctbWV0YWxfYmluZGluZycsICctaW1hZScsICc8aW5maWxlLm1hZT4nLCAnLW9tYWUnLCAnPG91dGZpbGUubWFlPic=

> <r_lp_tautomer_probability>
0.85571

> <r_epik_Ionization_Penalty>
1.75936

> <r_epik_Ionization_Penalty_Charging>
4.55893e-11

> <r_epik_Ionization_Penalty_Neutral>
1.75936

> <r_epik_State_Penalty>
1.72072

> <r_epik_Charging_Adjusted_Penalty>
1.72072

> <i_epik_Tot_Q>
-1

> <i_epik_Tot_abs_Q>
1

> <r_epik_Metal_State_Penalty>
0.400338

> <b_epik_Metal_Only>
1

> <s_epik_Chemistry_Notes>
This compound contains an acetal/aminal-like group ( X-CH(R)-Y where X, Y are N, S, or O) that may be acid/base labile, releasing an aldehyde.

> <s_lp_Force_Field>
OPLS_2005

> <r_lp_Energy>
64.1359

> <b_lp_Chiralities_Consistent>
1

> <s_lp_Variant>
AV-unprocessed.smi:54-19

> <Gold.Version>
5.8.1

> <Gold.Id.Protein>
6NUR|6NUR_protein|mol2

> <Gold.PLP.Fitness>
57.0134

> <Gold.PLP.PLP>
-37.7923

> <Gold.PLP.part.hbond>
-7.0317

> <Gold.PLP.part.metal>
0.0000

> <Gold.PLP.part.buried>
-0.4667

> <Gold.PLP.part.nonpolar>
-32.0816

> <Gold.PLP.part.repulsive>
0.3956

> <Gold.PLP.ligand.clash>
0.0000

> <Gold.PLP.ligand.torsion>
0.2850

> <Gold.PLP.Chemscore.Hbond>
5.5790

> <Gold.PLP.Chemscore.CHOScore>
1.0000

> <Gold.PLP.Chemscore.Metal>
0.0000

> <Gold.Chemscore.Hbonds>
donor molecule, donor type, donor heavy atom, donor atom, acceptor molecule, acceptor atom, score
      L1  H    18    41       P1 10171  1.00
      L1  H    20    42       P1 10175  0.83
      L1  H    22    43       P1  8028  0.04
      P1  H  7954  7966       L1    18  0.51
      P1  H  7997  8010       L1    25  0.59
      P1  H 10752 10764       L1    11  0.94
      P1  H 10752 10765       L1    24  0.05
      L1  C    12    38       P1  7948  1.00

> <Gold.PLP.Chemscore.Internal.Correction>
0.0542

> <Gold.Rescore>
     Score         DG    S(hbond)    S(metal)    S(lipo)     H(rot)  DE(clash)    DE(int)     intcor
     12.19     -15.26       3.42        0.00      73.93       4.02       1.32       1.75       ----

> <Gold.Chemscore.Fitness>
12.1859

> <Gold.Chemscore.DG>
-15.2553

> <Gold.Chemscore.ZeroCoef>
-5.4800

> <Gold.Chemscore.Hbond>
3.4176

> <Gold.Chemscore.Metal>
0.0000

> <Gold.Chemscore.Lipo>
73.9287

> <Gold.Chemscore.Internal_Hbond>
0.0000

> <Gold.Chemscore.DEClash>
1.3179

> <Gold.Chemscore.DEInternal>
1.7515

> <Gold.Chemscore.Rot>
4.0192

> <Gold.Chemscore.Internal.Correction>
   9.000000E+99

> <Gold.Chemscore.Hbonds>
donor molecule, donor type, donor heavy atom, donor atom, acceptor molecule, acceptor atom, score
      L1  H    18    41       P1 10171  1.00
      L1  H    20    42       P1 10175  0.79
      L1  H    22    43       P1  8028  0.07
      P1  H  7954  7966       L1    18  0.41
      P1  H  7997  8010       L1    25  0.25
      P1  H 10752 10764       L1    11  0.59
      P1  H 10752 10765       L1    24  0.05

> <Gold.Chemscore.Hbond.Weighted>
-11.4149

> <Gold.Chemscore.Metal.Weighted>
-0.0000

> <Gold.Chemscore.Lipo.Weighted>
-8.6497

> <Gold.Chemscore.Internal_Hbond.Weighted>
0.0000

> <Gold.Chemscore.DEClash.Weighted>
1.3179

> <Gold.Chemscore.DEInternal.Weighted>
1.7515

> <Gold.Chemscore.Rot.Weighted>
10.2893

> <Gold.Chemscore.Internal.Correction.Weighted>
   9.000000E+99

> <Gold.Protein.RotatedTorsions>
[ 6907 6896 6895 6894 ] final  137.69 input  -60.11 | X-H torsion
[ 7974 7965 7964 7962 ] final    5.65 input  175.53 | X-H torsion
[ 8008 7997 7996 7995 ] final   55.69 input   59.86 | X-H torsion
[ 10167 10162 10161 10158 ] final -151.50 input  -65.29 | X-H torsion
[ 10718 10713 10712 10709 ] final  -40.63 input   66.30 | X-H torsion
[ 10763 10752 10751 10750 ] final  -74.39 input  -60.55 | X-H torsion
[ 11005 11000 10999 10996 ] final  -28.47 input  -57.11 | X-H torsion

> <Gold.Protein.ActiveResidues>
 VAL166  LYS551  ARG553  GLY616  TRP617  ASP618  TYR619  PRO620  LYS621  CYS622 
 ASP623  PHE694  ASN695  SER759  ASP760  ASP761  ALA762  ILE779  LEU786  VAL792 
 PHE793  MET794  SER795  GLU796  ALA797  LYS798  CYS799  TRP800  GLU811  SER814 

> <Gold.Protein.RotatedAtoms>
  152.2752  133.5419  159.5463 H   0  0  0  0  0  0  0  0  0  0  0  0  # atno 6907 bound_to 6896
  150.7174  134.0642  159.3850 H   0  0  0  0  0  0  0  0  0  0  0  0  # atno 6908 bound_to 6896
  151.8555  135.0543  160.0514 H   0  0  0  0  0  0  0  0  0  0  0  0  # atno 6909 bound_to 6896
  146.2439  140.0352  142.8386 H   0  0  0  0  0  0  0  0  0  0  0  0  # atno 7974 bound_to 7965
  155.5052  140.3475  155.4378 H   0  0  0  0  0  0  0  0  0  0  0  0  # atno 8008 bound_to 7997
  156.0887  140.1405  156.9648 H   0  0  0  0  0  0  0  0  0  0  0  0  # atno 8009 bound_to 7997
  154.4622  140.0931  156.6900 H   0  0  0  0  0  0  0  0  0  0  0  0  # atno 8010 bound_to 7997
  139.7262  143.8880  152.2520 H   0  0  0  0  0  0  0  0  0  0  0  0  # atno 10167 bound_to 10162
  156.2792  130.4215  149.8355 H   0  0  0  0  0  0  0  0  0  0  0  0  # atno 10718 bound_to 10713
  154.4724  135.5866  153.6331 H   0  0  0  0  0  0  0  0  0  0  0  0  # atno 10763 bound_to 10752
  152.9836  135.6070  154.3350 H   0  0  0  0  0  0  0  0  0  0  0  0  # atno 10764 bound_to 10752
  154.3233  135.2843  155.2488 H   0  0  0  0  0  0  0  0  0  0  0  0  # atno 10765 bound_to 10752
  140.9211  133.7398  156.0803 H   0  0  0  0  0  0  0  0  0  0  0  0  # atno 11005 bound_to 11000
  145.1119  140.9410  143.4651 LP  0  0  0  0  0  0  0  0  0  0  0  0  # atno 17320 bound_to 7965
  145.0568  139.3137  143.5901 LP  0  0  0  0  0  0  0  0  0  0  0  0  # atno 17321 bound_to 7965
  139.8790  144.7028  150.8900 LP  0  0  0  0  0  0  0  0  0  0  0  0  # atno 17342 bound_to 10162
  140.7763  143.3677  151.1708 LP  0  0  0  0  0  0  0  0  0  0  0  0  # atno 17343 bound_to 10162
  156.5808  130.8465  151.3382 LP  0  0  0  0  0  0  0  0  0  0  0  0  # atno 17370 bound_to 10713
  157.7309  130.9692  150.1855 LP  0  0  0  0  0  0  0  0  0  0  0  0  # atno 17371 bound_to 10713
  140.7986  134.3535  157.5445 LP  0  0  0  0  0  0  0  0  0  0  0  0  # atno 17394 bound_to 11000
  139.8776  134.9184  156.3202 LP  0  0  0  0  0  0  0  0  0  0  0  0  # atno 17395 bound_to 11000

$$$$
