AV-unprocessed.smi:2965|AV-procd|sdf|11323|dock9
  -GOLD-   2272016233D 1   1.00000     0.00000
 Structure written by MMmdl.
 36 37  0  0  0  0  0  0  0  0  1 V2000
  153.1214  139.6071  157.9320 O   0  0  0  0  0  0  0  0  0  0  0  0
  152.0423  140.0486  158.3294 C   0  0  0  0  0  0  0  0  0  0  0  0
  150.7191  139.4514  157.8302 C   0  0  0  0  0  0  0  0  0  0  0  0
  150.8765  138.6346  156.6152 N   0  0  0  0  0  0  0  0  0  0  0  0
  150.5647  137.2647  156.7179 C   0  0  0  0  0  0  0  0  0  0  0  0
  150.6738  136.4087  155.6839 C   0  0  0  0  0  0  0  0  0  0  0  0
  150.2701  134.9479  155.8124 C   0  0  0  0  0  0  0  0  0  0  0  0
  149.0745  134.8267  156.3898 F   0  0  0  0  0  0  0  0  0  0  0  0
  150.2072  134.3877  154.6053 F   0  0  0  0  0  0  0  0  0  0  0  0
  151.1573  134.2671  156.5388 F   0  0  0  0  0  0  0  0  0  0  0  0
  151.1072  136.9742  154.4212 C   0  0  0  0  0  0  0  0  0  0  0  0
  151.3960  138.2850  154.3025 C   0  0  0  0  0  0  0  0  0  0  0  0
  151.2879  139.2001  155.4408 C   0  0  0  0  0  0  0  0  0  0  0  0
  151.5488  140.3998  155.3448 O   0  0  0  0  0  0  0  0  0  0  0  0
  151.9374  141.0653  159.1983 N   0  0  0  0  0  0  0  0  0  0  0  0
  153.0557  141.7601  159.8276 C   0  0  0  0  0  0  0  0  0  0  0  0
  152.7891  143.2702  159.9497 C   0  0  1  0  0  0  0  0  0  0  0  0
  152.5299  143.9954  158.6291 C   0  0  0  0  0  0  0  0  0  0  0  0
  151.7754  145.2169  159.1008 C   0  0  0  0  0  0  0  0  0  0  0  0
  150.9176  144.6454  160.2274 C   0  0  0  0  0  0  0  0  0  0  0  0
  151.6154  143.5041  160.7221 O   0  0  0  0  0  0  0  0  0  0  0  0
  150.2653  138.8541  158.6236 H   0  0  0  0  0  0  0  0  0  0  0  0
  150.0207  140.2710  157.6561 H   0  0  0  0  0  0  0  0  0  0  0  0
  150.2182  136.9543  157.6930 H   0  0  0  0  0  0  0  0  0  0  0  0
  151.2048  136.3361  153.5553 H   0  0  0  0  0  0  0  0  0  0  0  0
  151.7165  138.6717  153.3461 H   0  0  0  0  0  0  0  0  0  0  0  0
  151.0108  141.3678  159.4618 H   0  0  0  0  0  0  0  0  0  0  0  0
  153.2876  141.3312  160.8039 H   0  0  0  0  0  0  0  0  0  0  0  0
  153.9370  141.5973  159.2069 H   0  0  0  0  0  0  0  0  0  0  0  0
  153.6204  143.7538  160.4656 H   0  0  0  0  0  0  0  0  0  0  0  0
  153.4450  144.2398  158.0887 H   0  0  0  0  0  0  0  0  0  0  0  0
  151.8955  143.3938  157.9766 H   0  0  0  0  0  0  0  0  0  0  0  0
  152.4742  145.9550  159.4971 H   0  0  0  0  0  0  0  0  0  0  0  0
  151.1873  145.6900  158.3141 H   0  0  0  0  0  0  0  0  0  0  0  0
  150.7393  145.3744  161.0185 H   0  0  0  0  0  0  0  0  0  0  0  0
  149.9503  144.3187  159.8445 H   0  0  0  0  0  0  0  0  0  0  0  0
  1  2  2  0  0  0  0
  2  3  1  0  0  0  0
  2 15  1  0  0  0  0
  3  4  1  0  0  0  0
  3 22  1  0  0  0  0
  3 23  1  0  0  0  0
  4 13  1  0  0  0  0
  4  5  1  0  0  0  0
  5  6  2  0  0  0  0
  5 24  1  0  0  0  0
  6  7  1  0  0  0  0
  6 11  1  0  0  0  0
  7  8  1  0  0  0  0
  7  9  1  0  0  0  0
  7 10  1  0  0  0  0
 11 12  2  0  0  0  0
 11 25  1  0  0  0  0
 12 13  1  0  0  0  0
 12 26  1  0  0  0  0
 13 14  2  0  0  0  0
 15 16  1  0  0  0  0
 15 27  1  0  0  0  0
 16 17  1  0  0  0  0
 16 28  1  0  0  0  0
 16 29  1  0  0  0  0
 17 21  1  0  0  0  0
 17 18  1  0  0  0  0
 17 30  1  0  0  0  0
 18 19  1  0  0  0  0
 18 31  1  0  0  0  0
 18 32  1  0  0  0  0
 19 20  1  0  0  0  0
 19 33  1  0  0  0  0
 19 34  1  0  0  0  0
 20 21  1  0  0  0  0
 20 35  1  0  0  0  0
 20 36  1  0  0  0  0
M  END
> <s_m_source_file>
AV-unprocessed.smi

> <i_m_source_file_index>
2965

> <i_lp_mmshare_version>
43012

> <i_f3d_flags>
0

> <s_epik_input>
TzFbQ0gyXVtDSDJdW0NIMl1bQ0BIXTFbQ0gyXVtOSF1DKD1PKVtDSDJdbjJbY0hdYyhDKEYpKEYpRilbY0hdW2NIXWMyPU8=

> <s_epik_cmdline>
J2VwaWtfcHl0aG9uJywgJy1waCcsICc3LjAnLCAnLXRuJywgJzgnLCAnLW1hJywgJzIwMCcsICctbWV0YWxfYmluZGluZycsICctaW1hZScsICc8aW5maWxlLm1hZT4nLCAnLW9tYWUnLCAnPG91dGZpbGUubWFlPic=

> <r_lp_tautomer_probability>
1

> <r_epik_Ionization_Penalty>
4.53327e-08

> <r_epik_Ionization_Penalty_Charging>
1.84737e-08

> <r_epik_Ionization_Penalty_Neutral>
2.6859e-08

> <r_epik_State_Penalty>
-0

> <r_epik_Charging_Adjusted_Penalty>
1.84737e-08

> <i_epik_Tot_Q>
0

> <i_epik_Tot_abs_Q>
0

> <r_epik_Metal_State_Penalty>
-0

> <b_epik_Metal_Only>
0

> <s_lp_Force_Field>
OPLS_2005

> <r_lp_Energy>
29.2256

> <b_lp_Chiralities_Consistent>
1

> <s_lp_Variant>
AV-unprocessed.smi:2965-2

> <Gold.Version>
5.8.1

> <Gold.Id.Protein>
6NUR|6NUR_protein|mol2

> <Gold.PLP.Fitness>
45.8519

> <Gold.PLP.PLP>
-41.8552

> <Gold.PLP.part.hbond>
-2.0000

> <Gold.PLP.part.metal>
0.0000

> <Gold.PLP.part.buried>
-5.5321

> <Gold.PLP.part.nonpolar>
-34.3154

> <Gold.PLP.part.repulsive>
0.2592

> <Gold.PLP.ligand.clash>
0.1914

> <Gold.PLP.ligand.torsion>
0.7159

> <Gold.PLP.Chemscore.Hbond>
1.8480

> <Gold.PLP.Chemscore.CHOScore>
0.0000

> <Gold.PLP.Chemscore.Metal>
0.0000

> <Gold.Chemscore.Hbonds>
donor molecule, donor type, donor heavy atom, donor atom, acceptor molecule, acceptor atom, score
      P1  H  7989  7998       L1    14  0.86
      P1  H  7997  8010       L1     1  1.00

> <Gold.PLP.Chemscore.Internal.Correction>
0.0758

> <Gold.Rescore>
     Score         DG    S(hbond)    S(metal)    S(lipo)     H(rot)  DE(clash)    DE(int)     intcor
     17.25     -17.88       1.98        0.00      90.25       1.87       0.05       0.59       ----

> <Gold.Chemscore.Fitness>
17.2451

> <Gold.Chemscore.DG>
-17.8813

> <Gold.Chemscore.ZeroCoef>
-5.4800

> <Gold.Chemscore.Hbond>
1.9833

> <Gold.Chemscore.Metal>
0.0000

> <Gold.Chemscore.Lipo>
90.2502

> <Gold.Chemscore.Internal_Hbond>
0.0000

> <Gold.Chemscore.DEClash>
0.0465

> <Gold.Chemscore.DEInternal>
0.5896

> <Gold.Chemscore.Rot>
1.8681

> <Gold.Chemscore.Internal.Correction>
   9.000000E+99

> <Gold.Chemscore.Hbonds>
donor molecule, donor type, donor heavy atom, donor atom, acceptor molecule, acceptor atom, score
      P1  H  7989  7998       L1    14  0.63
      P1  H  7997  8010       L1     1  0.95

> <Gold.Chemscore.Hbond.Weighted>
-6.6242

> <Gold.Chemscore.Metal.Weighted>
-0.0000

> <Gold.Chemscore.Lipo.Weighted>
-10.5593

> <Gold.Chemscore.Internal_Hbond.Weighted>
0.0000

> <Gold.Chemscore.DEClash.Weighted>
0.0465

> <Gold.Chemscore.DEInternal.Weighted>
0.5896

> <Gold.Chemscore.Rot.Weighted>
4.7822

> <Gold.Chemscore.Internal.Correction.Weighted>
   9.000000E+99

> <Gold.Protein.RotatedTorsions>
[ 6907 6896 6895 6894 ] final   82.92 input  -60.11 | X-H torsion
[ 7974 7965 7964 7962 ] final -132.56 input  175.53 | X-H torsion
[ 8008 7997 7996 7995 ] final   58.33 input   59.86 | X-H torsion
[ 10167 10162 10161 10158 ] final   83.22 input  -65.29 | X-H torsion
[ 10718 10713 10712 10709 ] final  122.09 input   66.30 | X-H torsion
[ 10763 10752 10751 10750 ] final  164.90 input  -60.55 | X-H torsion
[ 11005 11000 10999 10996 ] final -116.58 input  -57.11 | X-H torsion

> <Gold.Protein.ActiveResidues>
 VAL166  LYS551  ARG553  GLY616  TRP617  ASP618  TYR619  PRO620  LYS621  CYS622 
 ASP623  PHE694  ASN695  SER759  ASP760  ASP761  ALA762  ILE779  LEU786  VAL792 
 PHE793  MET794  SER795  GLU796  ALA797  LYS798  CYS799  TRP800  GLU811  SER814 

> <Gold.Protein.RotatedAtoms>
  152.5313  134.2975  159.9065 H   0  0  0  0  0  0  0  0  0  0  0  0  # atno 6907 bound_to 6896
  151.2926  133.4152  159.2642 H   0  0  0  0  0  0  0  0  0  0  0  0  # atno 6908 bound_to 6896
  151.0187  134.9468  159.8104 H   0  0  0  0  0  0  0  0  0  0  0  0  # atno 6909 bound_to 6896
  144.9274  140.7087  143.4927 H   0  0  0  0  0  0  0  0  0  0  0  0  # atno 7974 bound_to 7965
  155.5483  140.3486  155.4462 H   0  0  0  0  0  0  0  0  0  0  0  0  # atno 8008 bound_to 7997
  156.0602  140.1338  156.9976 H   0  0  0  0  0  0  0  0  0  0  0  0  # atno 8009 bound_to 7997
  154.4476  140.0987  156.6490 H   0  0  0  0  0  0  0  0  0  0  0  0  # atno 8010 bound_to 7997
  139.9207  144.6214  150.8443 H   0  0  0  0  0  0  0  0  0  0  0  0  # atno 10167 bound_to 10162
  157.5769  131.1078  150.8262 H   0  0  0  0  0  0  0  0  0  0  0  0  # atno 10718 bound_to 10713
  154.3159  135.2756  155.2543 H   0  0  0  0  0  0  0  0  0  0  0  0  # atno 10763 bound_to 10752
  154.4918  135.5831  153.6468 H   0  0  0  0  0  0  0  0  0  0  0  0  # atno 10764 bound_to 10752
  152.9882  135.6136  154.3340 H   0  0  0  0  0  0  0  0  0  0  0  0  # atno 10765 bound_to 10752
  141.0412  133.9832  157.2991 H   0  0  0  0  0  0  0  0  0  0  0  0  # atno 11005 bound_to 11000
  145.3197  139.1792  143.4594 LP  0  0  0  0  0  0  0  0  0  0  0  0  # atno 17320 bound_to 7965
  146.3232  140.3213  142.8633 LP  0  0  0  0  0  0  0  0  0  0  0  0  # atno 17321 bound_to 7965
  140.7663  143.3299  151.2433 LP  0  0  0  0  0  0  0  0  0  0  0  0  # atno 17342 bound_to 10162
  139.6864  143.9766  152.2836 LP  0  0  0  0  0  0  0  0  0  0  0  0  # atno 17343 bound_to 10162
  156.8719  130.5149  149.5296 LP  0  0  0  0  0  0  0  0  0  0  0  0  # atno 17370 bound_to 10713
  156.0814  130.5823  150.9569 LP  0  0  0  0  0  0  0  0  0  0  0  0  # atno 17371 bound_to 10713
  139.9277  135.0201  156.8293 LP  0  0  0  0  0  0  0  0  0  0  0  0  # atno 17394 bound_to 11000
  140.6230  133.9976  155.7627 LP  0  0  0  0  0  0  0  0  0  0  0  0  # atno 17395 bound_to 11000

$$$$
