AV-unprocessed.smi:3199|AV-procd|sdf|12232|dock3
  -GOLD-   2272018 63D 1   1.00000     0.00000
 Structure written by MMmdl.
 35 36  0  0  0  0  0  0  0  0  1 V2000
  151.3189  144.2898  158.0147 C   0  0  0  0  0  0  0  0  0  0  0  0
  151.8428  143.8645  159.3705 C   0  0  0  0  0  0  0  0  0  0  0  0
  151.4361  144.5307  160.5458 C   0  0  0  0  0  0  0  0  0  0  0  0
  151.9536  144.0908  161.7792 C   0  0  0  0  0  0  0  0  0  0  0  0
  152.8546  143.0065  161.7905 C   0  0  0  0  0  0  0  0  0  0  0  0
  153.4331  142.4892  163.0927 C   0  0  0  0  0  0  0  0  0  0  0  0
  153.9332  143.6266  163.9931 C   0  0  0  0  0  0  0  0  0  0  0  0
  154.7203  143.0981  165.0980 N   0  0  0  0  0  0  0  0  0  0  0  0
  155.9844  143.4549  165.3672 C   0  0  0  0  0  0  0  0  0  0  0  0
  156.6074  144.2821  164.7004 O   0  0  0  0  0  0  0  0  0  0  0  0
  156.6340  142.7837  166.5828 C   0  0  1  0  0  0  0  0  0  0  0  0
  155.8982  143.0236  167.9159 C   0  0  0  0  0  0  0  0  0  0  0  0
  155.4116  141.6434  168.3176 C   0  0  0  0  0  0  0  0  0  0  0  0
  156.4192  140.7343  167.6286 C   0  0  0  0  0  0  0  0  0  0  0  0
  156.6108  141.3733  166.3775 O   0  0  0  0  0  0  0  0  0  0  0  0
  153.1970  142.4095  160.5588 C   0  0  0  0  0  0  0  0  0  0  0  0
  152.7060  142.8247  159.3713 N   0  0  0  0  0  0  0  0  0  0  0  0
  150.6056  145.1096  158.1053 H   0  0  0  0  0  0  0  0  0  0  0  0
  150.8169  143.4557  157.5234 H   0  0  0  0  0  0  0  0  0  0  0  0
  152.1398  144.6212  157.3783 H   0  0  0  0  0  0  0  0  0  0  0  0
  150.7433  145.3585  160.5068 H   0  0  0  0  0  0  0  0  0  0  0  0
  151.6610  144.5767  162.6984 H   0  0  0  0  0  0  0  0  0  0  0  0
  152.6706  141.9068  163.6122 H   0  0  0  0  0  0  0  0  0  0  0  0
  154.2491  141.8003  162.8698 H   0  0  0  0  0  0  0  0  0  0  0  0
  154.5473  144.3206  163.4169 H   0  0  0  0  0  0  0  0  0  0  0  0
  153.0859  144.1920  164.3851 H   0  0  0  0  0  0  0  0  0  0  0  0
  154.2763  142.4185  165.6986 H   0  0  0  0  0  0  0  0  0  0  0  0
  157.6722  143.1061  166.6792 H   0  0  0  0  0  0  0  0  0  0  0  0
  156.6010  143.4027  168.6588 H   0  0  0  0  0  0  0  0  0  0  0  0
  155.0771  143.7393  167.8546 H   0  0  0  0  0  0  0  0  0  0  0  0
  155.3750  141.4996  169.3978 H   0  0  0  0  0  0  0  0  0  0  0  0
  154.4142  141.4662  167.9132 H   0  0  0  0  0  0  0  0  0  0  0  0
  157.3624  140.7068  168.1768 H   0  0  0  0  0  0  0  0  0  0  0  0
  156.0559  139.7136  167.5084 H   0  0  0  0  0  0  0  0  0  0  0  0
  153.8809  141.5739  160.5242 H   0  0  0  0  0  0  0  0  0  0  0  0
  1  2  1  0  0  0  0
  1 18  1  0  0  0  0
  1 19  1  0  0  0  0
  1 20  1  0  0  0  0
  2 17  1  0  0  0  0
  2  3  2  0  0  0  0
  3  4  1  0  0  0  0
  3 21  1  0  0  0  0
  4  5  2  0  0  0  0
  4 22  1  0  0  0  0
  5  6  1  0  0  0  0
  5 16  1  0  0  0  0
  6  7  1  0  0  0  0
  6 23  1  0  0  0  0
  6 24  1  0  0  0  0
  7  8  1  0  0  0  0
  7 25  1  0  0  0  0
  7 26  1  0  0  0  0
  8  9  1  0  0  0  0
  8 27  1  0  0  0  0
  9 10  2  0  0  0  0
  9 11  1  0  0  0  0
 11 15  1  0  0  0  0
 11 12  1  0  0  0  0
 11 28  1  0  0  0  0
 12 13  1  0  0  0  0
 12 29  1  0  0  0  0
 12 30  1  0  0  0  0
 13 14  1  0  0  0  0
 13 31  1  0  0  0  0
 13 32  1  0  0  0  0
 14 15  1  0  0  0  0
 14 33  1  0  0  0  0
 14 34  1  0  0  0  0
 16 17  2  0  0  0  0
 16 35  1  0  0  0  0
M  END
> <s_m_source_file>
AV-unprocessed.smi

> <i_m_source_file_index>
3199

> <i_lp_mmshare_version>
43012

> <i_f3d_flags>
0

> <s_epik_input>
W0NIM11jMVtjSF1bY0hdYyhbY0hdbjEpW0NIMl1bQ0gyXVtOSF1DKD1PKVtDQEBIXTJbQ0gyXVtDSDJdW0NIMl1PMg==

> <s_epik_cmdline>
J2VwaWtfcHl0aG9uJywgJy1waCcsICc3LjAnLCAnLXRuJywgJzgnLCAnLW1hJywgJzIwMCcsICctbWV0YWxfYmluZGluZycsICctaW1hZScsICc8aW5maWxlLm1hZT4nLCAnLW9tYWUnLCAnPG91dGZpbGUubWFlPic=

> <r_epik_Ionization_Penalty>
0.0519155

> <r_epik_Ionization_Penalty_Charging>
0

> <r_epik_Ionization_Penalty_Neutral>
0.0519155

> <r_epik_State_Penalty>
0.0445047

> <r_epik_Charging_Adjusted_Penalty>
0.0445047

> <i_epik_Tot_Q>
0

> <i_epik_Tot_abs_Q>
0

> <r_epik_Metal_State_Penalty>
0.0408967

> <b_epik_Metal_Only>
0

> <s_lp_Force_Field>
OPLS_2005

> <r_lp_Energy>
16.9644

> <b_lp_Chiralities_Consistent>
1

> <s_lp_Variant>
AV-unprocessed.smi:3199-2

> <Gold.Version>
5.8.1

> <Gold.Id.Protein>
6NUR|6NUR_protein|mol2

> <Gold.PLP.Fitness>
46.0194

> <Gold.PLP.PLP>
-46.4242

> <Gold.PLP.part.hbond>
-2.0000

> <Gold.PLP.part.metal>
0.0000

> <Gold.PLP.part.buried>
-7.5980

> <Gold.PLP.part.nonpolar>
-36.5293

> <Gold.PLP.part.repulsive>
0.1468

> <Gold.PLP.ligand.clash>
0.0000

> <Gold.PLP.ligand.torsion>
0.2105

> <Gold.PLP.Chemscore.Hbond>
0.0000

> <Gold.PLP.Chemscore.CHOScore>
0.0000

> <Gold.PLP.Chemscore.Metal>
0.0000

> <Gold.PLP.Chemscore.Internal.Correction>
0.0163

> <Gold.Rescore>
     Score         DG    S(hbond)    S(metal)    S(lipo)     H(rot)  DE(clash)    DE(int)     intcor
     13.78     -15.50       0.00        0.00     118.12       1.49       1.55       0.16       ----

> <Gold.Chemscore.Fitness>
13.7830

> <Gold.Chemscore.DG>
-15.4960

> <Gold.Chemscore.ZeroCoef>
-5.4800

> <Gold.Chemscore.Hbond>
0.0000

> <Gold.Chemscore.Metal>
0.0000

> <Gold.Chemscore.Lipo>
118.1186

> <Gold.Chemscore.Internal_Hbond>
0.0000

> <Gold.Chemscore.DEClash>
1.5534

> <Gold.Chemscore.DEInternal>
0.1597

> <Gold.Chemscore.Rot>
1.4859

> <Gold.Chemscore.Internal.Correction>
   9.000000E+99

> <Gold.Chemscore.Hbond.Weighted>
-0.0000

> <Gold.Chemscore.Metal.Weighted>
-0.0000

> <Gold.Chemscore.Lipo.Weighted>
-13.8199

> <Gold.Chemscore.Internal_Hbond.Weighted>
0.0000

> <Gold.Chemscore.DEClash.Weighted>
1.5534

> <Gold.Chemscore.DEInternal.Weighted>
0.1597

> <Gold.Chemscore.Rot.Weighted>
3.8039

> <Gold.Chemscore.Internal.Correction.Weighted>
   9.000000E+99

> <Gold.Protein.RotatedTorsions>
[ 6907 6896 6895 6894 ] final -123.74 input  -60.11 | X-H torsion
[ 7974 7965 7964 7962 ] final -129.56 input  175.53 | X-H torsion
[ 8008 7997 7996 7995 ] final  -31.94 input   59.86 | X-H torsion
[ 10167 10162 10161 10158 ] final  120.22 input  -65.29 | X-H torsion
[ 10718 10713 10712 10709 ] final  155.40 input   66.30 | X-H torsion
[ 10763 10752 10751 10750 ] final  162.43 input  -60.55 | X-H torsion
[ 11005 11000 10999 10996 ] final   68.59 input  -57.11 | X-H torsion

> <Gold.Protein.ActiveResidues>
 VAL166  LYS551  ARG553  GLY616  TRP617  ASP618  TYR619  PRO620  LYS621  CYS622 
 ASP623  PHE694  ASN695  SER759  ASP760  ASP761  ALA762  ILE779  LEU786  VAL792 
 PHE793  MET794  SER795  GLU796  ALA797  LYS798  CYS799  TRP800  GLU811  SER814 

> <Gold.Protein.RotatedAtoms>
  150.8700  133.7519  159.2964 H   0  0  0  0  0  0  0  0  0  0  0  0  # atno 6907 bound_to 6896
  151.5134  135.1064  159.9869 H   0  0  0  0  0  0  0  0  0  0  0  0  # atno 6908 bound_to 6896
  152.4688  133.7938  159.6972 H   0  0  0  0  0  0  0  0  0  0  0  0  # atno 6909 bound_to 6896
  144.9560  140.7396  143.4758 H   0  0  0  0  0  0  0  0  0  0  0  0  # atno 7974 bound_to 7965
  154.4196  140.1751  156.1648 H   0  0  0  0  0  0  0  0  0  0  0  0  # atno 8008 bound_to 7997
  155.9809  140.3377  155.6638 H   0  0  0  0  0  0  0  0  0  0  0  0  # atno 8009 bound_to 7997
  155.6502  140.0689  157.2580 H   0  0  0  0  0  0  0  0  0  0  0  0  # atno 8010 bound_to 7997
  139.5996  144.7052  151.3095 H   0  0  0  0  0  0  0  0  0  0  0  0  # atno 10167 bound_to 10162
  157.2189  131.0714  151.1924 H   0  0  0  0  0  0  0  0  0  0  0  0  # atno 10718 bound_to 10713
  154.2783  135.2764  155.2708 H   0  0  0  0  0  0  0  0  0  0  0  0  # atno 10763 bound_to 10752
  154.5241  135.5748  153.6708 H   0  0  0  0  0  0  0  0  0  0  0  0  # atno 10764 bound_to 10752
  152.9933  135.6211  154.2941 H   0  0  0  0  0  0  0  0  0  0  0  0  # atno 10765 bound_to 10752
  139.9702  134.6912  156.0462 H   0  0  0  0  0  0  0  0  0  0  0  0  # atno 11005 bound_to 11000
  145.2771  139.1932  143.4811 LP  0  0  0  0  0  0  0  0  0  0  0  0  # atno 17320 bound_to 7965
  146.3337  140.2727  142.8606 LP  0  0  0  0  0  0  0  0  0  0  0  0  # atno 17321 bound_to 7965
  140.7239  143.7059  150.7808 LP  0  0  0  0  0  0  0  0  0  0  0  0  # atno 17342 bound_to 10162
  140.0633  143.5133  152.2617 LP  0  0  0  0  0  0  0  0  0  0  0  0  # atno 17343 bound_to 10162
  157.3596  130.7124  149.6493 LP  0  0  0  0  0  0  0  0  0  0  0  0  # atno 17370 bound_to 10713
  155.9684  130.4229  150.4538 LP  0  0  0  0  0  0  0  0  0  0  0  0  # atno 17371 bound_to 10713
  141.1382  133.6570  156.3654 LP  0  0  0  0  0  0  0  0  0  0  0  0  # atno 17394 bound_to 11000
  140.5309  134.6213  157.5349 LP  0  0  0  0  0  0  0  0  0  0  0  0  # atno 17395 bound_to 11000

$$$$
