AV-unprocessed.smi:2224|AV-procd|sdf|8996|dock8
  -GOLD-   2272012203D 1   1.00000     0.00000
 Structure written by MMmdl.
 44 46  0  0  0  0  0  0  0  0  1 V2000
  153.7543  141.8184  162.2509 C   0  0  0  0  0  0  0  0  0  0  0  0
  153.0499  142.3311  161.0123 C   0  0  0  0  0  0  0  0  0  0  0  0
  152.7934  143.7052  160.8423 C   0  0  0  0  0  0  0  0  0  0  0  0
  152.1335  144.1174  159.6679 C   0  0  0  0  0  0  0  0  0  0  0  0
  151.8257  145.5791  159.4198 C   0  0  0  0  0  0  0  0  0  0  0  0
  151.7363  143.2580  158.7051 N   0  0  0  0  0  0  0  0  0  0  0  0
  151.9777  141.9324  158.8587 C   0  0  0  0  0  0  0  0  0  0  0  0
  151.6058  140.9478  157.9056 N   0  0  0  0  0  0  0  0  0  0  0  0
  150.9866  141.1245  156.7253 C   0  0  0  0  0  0  0  0  0  0  0  0
  150.6114  142.2053  156.2701 O   0  0  0  0  0  0  0  0  0  0  0  0
  150.8101  139.9558  156.0948 N   0  0  0  0  0  0  0  0  0  0  0  0
  150.1310  139.7906  154.8085 C   0  0  1  0  0  0  0  0  0  0  0  0
  150.4097  138.4189  154.1538 C   0  0  1  0  0  0  0  0  0  0  0  0
  151.4739  137.4725  154.6537 C   0  0  0  0  0  0  0  0  0  0  0  0
  150.6805  136.5078  155.5399 C   0  0  0  0  0  0  0  0  0  0  0  0
  149.4860  137.2136  155.8699 O   0  0  0  0  0  0  0  0  0  0  0  0
  149.0790  137.9478  154.7170 C   0  0  1  0  0  0  0  0  0  0  0  0
  148.6335  139.4067  154.9527 C   0  0  0  0  0  0  0  0  0  0  0  0
  147.9181  139.6939  156.2800 C   0  0  0  0  0  0  0  0  0  0  0  0
  147.7347  139.9734  153.8497 C   0  0  0  0  0  0  0  0  0  0  0  0
  152.6363  141.4355  160.0058 C   0  0  0  0  0  0  0  0  0  0  0  0
  154.0952  142.6395  162.8825 H   0  0  0  0  0  0  0  0  0  0  0  0
  154.6223  141.2204  161.9727 H   0  0  0  0  0  0  0  0  0  0  0  0
  153.0795  141.1941  162.8367 H   0  0  0  0  0  0  0  0  0  0  0  0
  153.0936  144.4238  161.5911 H   0  0  0  0  0  0  0  0  0  0  0  0
  152.3044  146.2156  160.1645 H   0  0  0  0  0  0  0  0  0  0  0  0
  150.7501  145.7506  159.4646 H   0  0  0  0  0  0  0  0  0  0  0  0
  152.1822  145.8830  158.4351 H   0  0  0  0  0  0  0  0  0  0  0  0
  151.8349  139.9969  158.1528 H   0  0  0  0  0  0  0  0  0  0  0  0
  151.1412  139.1145  156.5436 H   0  0  0  0  0  0  0  0  0  0  0  0
  150.2980  140.6154  154.1133 H   0  0  0  0  0  0  0  0  0  0  0  0
  150.3675  138.4947  153.0661 H   0  0  0  0  0  0  0  0  0  0  0  0
  151.9676  136.9406  153.8401 H   0  0  0  0  0  0  0  0  0  0  0  0
  152.2491  137.9872  155.2209 H   0  0  0  0  0  0  0  0  0  0  0  0
  150.4170  135.6070  154.9839 H   0  0  0  0  0  0  0  0  0  0  0  0
  151.2296  136.2097  156.4333 H   0  0  0  0  0  0  0  0  0  0  0  0
  148.4783  137.3657  154.0165 H   0  0  0  0  0  0  0  0  0  0  0  0
  146.9060  139.2885  156.2856 H   0  0  0  0  0  0  0  0  0  0  0  0
  147.8440  140.7655  156.4677 H   0  0  0  0  0  0  0  0  0  0  0  0
  148.4363  139.2531  157.1318 H   0  0  0  0  0  0  0  0  0  0  0  0
  146.7504  139.5042  153.8529 H   0  0  0  0  0  0  0  0  0  0  0  0
  148.1627  139.8132  152.8598 H   0  0  0  0  0  0  0  0  0  0  0  0
  147.5890  141.0477  153.9660 H   0  0  0  0  0  0  0  0  0  0  0  0
  152.8224  140.3769  160.1168 H   0  0  0  0  0  0  0  0  0  0  0  0
  1  2  1  0  0  0  0
  1 22  1  0  0  0  0
  1 23  1  0  0  0  0
  1 24  1  0  0  0  0
  2 21  1  0  0  0  0
  2  3  2  0  0  0  0
  3  4  1  0  0  0  0
  3 25  1  0  0  0  0
  4  5  1  0  0  0  0
  4  6  2  0  0  0  0
  5 26  1  0  0  0  0
  5 27  1  0  0  0  0
  5 28  1  0  0  0  0
  6  7  1  0  0  0  0
  7  8  1  0  0  0  0
  7 21  2  0  0  0  0
  8  9  1  0  0  0  0
  8 29  1  0  0  0  0
  9 10  2  0  0  0  0
  9 11  1  0  0  0  0
 11 12  1  0  0  0  0
 11 30  1  0  0  0  0
 12 18  1  0  0  0  0
 12 13  1  0  0  0  0
 12 31  1  0  0  0  0
 13 17  1  0  0  0  0
 13 14  1  0  0  0  0
 13 32  1  0  0  0  0
 14 15  1  0  0  0  0
 14 33  1  0  0  0  0
 14 34  1  0  0  0  0
 15 16  1  0  0  0  0
 15 35  1  0  0  0  0
 15 36  1  0  0  0  0
 16 17  1  0  0  0  0
 17 18  1  0  0  0  0
 17 37  1  0  0  0  0
 18 19  1  0  0  0  0
 18 20  1  0  0  0  0
 19 38  1  0  0  0  0
 19 39  1  0  0  0  0
 19 40  1  0  0  0  0
 20 41  1  0  0  0  0
 20 42  1  0  0  0  0
 20 43  1  0  0  0  0
 21 44  1  0  0  0  0
M  END
> <s_m_source_file>
AV-unprocessed.smi

> <i_m_source_file_index>
2224

> <i_lp_mmshare_version>
43012

> <i_f3d_flags>
0

> <s_epik_input>
W0NIM11jMVtjSF1jKFtDSDNdKW5jKFtjSF0xKVtOSF1DKD1PKVtOSF1bQ0BIXTJDKFtDSDNdKShbQ0gzXSlbQ0BIXShbQ0BASF0yMylPW0NIMl1bQ0gyXTM=

> <s_epik_cmdline>
J2VwaWtfcHl0aG9uJywgJy1waCcsICc3LjAnLCAnLXRuJywgJzgnLCAnLW1hJywgJzIwMCcsICctbWV0YWxfYmluZGluZycsICctaW1hZScsICc8aW5maWxlLm1hZT4nLCAnLW9tYWUnLCAnPG91dGZpbGUubWFlPic=

> <r_lp_tautomer_probability>
1

> <r_epik_Ionization_Penalty>
0.000276544

> <r_epik_Ionization_Penalty_Charging>
0

> <r_epik_Ionization_Penalty_Neutral>
0.000276544

> <r_epik_State_Penalty>
-0

> <r_epik_Charging_Adjusted_Penalty>
0

> <i_epik_Tot_Q>
0

> <i_epik_Tot_abs_Q>
0

> <r_epik_Metal_State_Penalty>
-0

> <b_epik_Metal_Only>
0

> <s_lp_Force_Field>
OPLS_2005

> <r_lp_Energy>
39.8946

> <b_lp_Chiralities_Consistent>
1

> <s_lp_Variant>
AV-unprocessed.smi:2224-6

> <Gold.Version>
5.8.1

> <Gold.Id.Protein>
6NUR|6NUR_protein|mol2

> <Gold.PLP.Fitness>
39.2315

> <Gold.PLP.PLP>
-39.5871

> <Gold.PLP.part.hbond>
0.0000

> <Gold.PLP.part.metal>
0.0000

> <Gold.PLP.part.buried>
-5.3042

> <Gold.PLP.part.nonpolar>
-35.0716

> <Gold.PLP.part.repulsive>
0.8499

> <Gold.PLP.ligand.clash>
0.0000

> <Gold.PLP.ligand.torsion>
0.2716

> <Gold.PLP.Chemscore.Hbond>
0.0000

> <Gold.PLP.Chemscore.CHOScore>
0.0000

> <Gold.PLP.Chemscore.Metal>
0.0000

> <Gold.PLP.Chemscore.Internal.Correction>
0.1876

> <Gold.Rescore>
     Score         DG    S(hbond)    S(metal)    S(lipo)     H(rot)  DE(clash)    DE(int)     intcor
     14.33     -15.97       0.00        0.00     111.56       1.00       0.08       1.56       ----

> <Gold.Chemscore.Fitness>
14.3327

> <Gold.Chemscore.DG>
-15.9727

> <Gold.Chemscore.ZeroCoef>
-5.4800

> <Gold.Chemscore.Hbond>
0.0000

> <Gold.Chemscore.Metal>
0.0000

> <Gold.Chemscore.Lipo>
111.5617

> <Gold.Chemscore.Internal_Hbond>
0.0000

> <Gold.Chemscore.DEClash>
0.0779

> <Gold.Chemscore.DEInternal>
1.5621

> <Gold.Chemscore.Rot>
1.0000

> <Gold.Chemscore.Internal.Correction>
   9.000000E+99

> <Gold.Chemscore.Hbond.Weighted>
-0.0000

> <Gold.Chemscore.Metal.Weighted>
-0.0000

> <Gold.Chemscore.Lipo.Weighted>
-13.0527

> <Gold.Chemscore.Internal_Hbond.Weighted>
0.0000

> <Gold.Chemscore.DEClash.Weighted>
0.0779

> <Gold.Chemscore.DEInternal.Weighted>
1.5621

> <Gold.Chemscore.Rot.Weighted>
2.5600

> <Gold.Chemscore.Internal.Correction.Weighted>
   9.000000E+99

> <Gold.Protein.RotatedTorsions>
[ 6907 6896 6895 6894 ] final -177.79 input  -60.11 | X-H torsion
[ 7974 7965 7964 7962 ] final  117.28 input  175.53 | X-H torsion
[ 8008 7997 7996 7995 ] final  132.18 input   59.86 | X-H torsion
[ 10167 10162 10161 10158 ] final   25.66 input  -65.29 | X-H torsion
[ 10718 10713 10712 10709 ] final  158.64 input   66.30 | X-H torsion
[ 10763 10752 10751 10750 ] final -107.83 input  -60.55 | X-H torsion
[ 11005 11000 10999 10996 ] final  160.69 input  -57.11 | X-H torsion

> <Gold.Protein.ActiveResidues>
 VAL166  LYS551  ARG553  GLY616  TRP617  ASP618  TYR619  PRO620  LYS621  CYS622 
 ASP623  PHE694  ASN695  SER759  ASP760  ASP761  ALA762  ILE779  LEU786  VAL792 
 PHE793  MET794  SER795  GLU796  ALA797  LYS798  CYS799  TRP800  GLU811  SER814 

> <Gold.Protein.RotatedAtoms>
  151.6267  133.3335  159.3099 H   0  0  0  0  0  0  0  0  0  0  0  0  # atno 6907 bound_to 6896
  150.8077  134.7217  159.6671 H   0  0  0  0  0  0  0  0  0  0  0  0  # atno 6908 bound_to 6896
  152.4173  134.6023  160.0055 H   0  0  0  0  0  0  0  0  0  0  0  0  # atno 6909 bound_to 6896
  145.1694  139.3110  143.4476 H   0  0  0  0  0  0  0  0  0  0  0  0  # atno 7974 bound_to 7965
  156.2979  140.2553  156.3047 H   0  0  0  0  0  0  0  0  0  0  0  0  # atno 8008 bound_to 7997
  154.9383  140.0397  157.2102 H   0  0  0  0  0  0  0  0  0  0  0  0  # atno 8009 bound_to 7997
  154.8151  140.2851  155.5830 H   0  0  0  0  0  0  0  0  0  0  0  0  # atno 8010 bound_to 7997
  140.5087  144.0196  150.6363 H   0  0  0  0  0  0  0  0  0  0  0  0  # atno 10167 bound_to 10162
  157.1751  131.0619  151.2162 H   0  0  0  0  0  0  0  0  0  0  0  0  # atno 10718 bound_to 10713
  154.8099  135.4660  154.0489 H   0  0  0  0  0  0  0  0  0  0  0  0  # atno 10763 bound_to 10752
  153.1928  135.6857  153.8337 H   0  0  0  0  0  0  0  0  0  0  0  0  # atno 10764 bound_to 10752
  153.7849  135.3251  155.3348 H   0  0  0  0  0  0  0  0  0  0  0  0  # atno 10765 bound_to 10752
  140.2085  134.8285  157.3095 H   0  0  0  0  0  0  0  0  0  0  0  0  # atno 11005 bound_to 11000
  146.3471  140.1833  142.8589 LP  0  0  0  0  0  0  0  0  0  0  0  0  # atno 17320 bound_to 7965
  145.0249  140.8824  143.5144 LP  0  0  0  0  0  0  0  0  0  0  0  0  # atno 17321 bound_to 7965
  140.3512  143.2962  152.0485 LP  0  0  0  0  0  0  0  0  0  0  0  0  # atno 17342 bound_to 10162
  139.4890  144.6372  151.6951 LP  0  0  0  0  0  0  0  0  0  0  0  0  # atno 17343 bound_to 10162
  157.4006  130.7331  149.6764 LP  0  0  0  0  0  0  0  0  0  0  0  0  # atno 17370 bound_to 10713
  155.9732  130.4122  150.4018 LP  0  0  0  0  0  0  0  0  0  0  0  0  # atno 17371 bound_to 10713
  140.1977  134.4293  155.7680 LP  0  0  0  0  0  0  0  0  0  0  0  0  # atno 17394 bound_to 11000
  141.2226  133.7057  156.8132 LP  0  0  0  0  0  0  0  0  0  0  0  0  # atno 17395 bound_to 11000

$$$$
