AV-unprocessed.smi:189|AV-procd|sdf|1483|dock2
  -GOLD-   2262019303D 1   1.00000     0.00000
 Structure written by MMmdl.
 53 57  0  0  0  0  0  0  0  0  1 V2000
  152.5278  139.5860  158.1826 C   0  0  0  0  0  0  0  0  0  0  0  0
  152.3459  140.5331  159.3813 C   0  0  2  0  0  0  0  0  0  0  0  0
  151.6010  141.8255  158.9941 C   0  0  0  0  0  0  0  0  0  0  0  0
  152.6798  142.9098  159.0521 C   0  0  1  0  0  0  0  0  0  0  0  0
  152.1898  144.3607  159.2338 C   0  0  0  0  0  0  0  0  0  0  0  0
  151.7083  144.6611  160.6614 C   0  0  0  0  0  0  0  0  0  0  0  0
  152.7706  144.2621  161.6942 C   0  0  0  0  0  0  0  0  0  0  0  0
  153.1039  142.7699  161.5732 C   0  0  0  0  0  0  0  0  0  0  0  0
  153.6171  142.4055  160.1582 C   0  0  1  0  0  0  0  0  0  0  0  0
  153.6345  140.9634  159.9365 N   0  0  0  0  0  0  0  0  0  0  0  0
  154.3895  140.1448  160.7221 C   0  0  0  0  0  0  0  0  0  0  0  0
  155.5432  140.6262  161.2577 N   0  0  0  0  0  0  0  0  0  0  0  0
  156.3119  139.8563  162.0317 C   0  0  0  0  0  0  0  0  0  0  0  0
  156.1203  138.5891  162.3972 N   0  0  0  0  0  0  0  0  0  0  0  0
  154.9657  138.0930  161.8689 C   0  0  0  0  0  0  0  0  0  0  0  0
  154.0479  138.7941  161.0331 C   0  0  0  0  0  0  0  0  0  0  0  0
  152.9835  137.9581  160.7129 N   0  0  0  0  0  0  0  0  0  0  0  0
  153.2601  136.8331  161.3121 C   0  0  0  0  0  0  0  0  0  0  0  0
  154.4368  136.8234  162.0246 N   0  0  0  0  0  0  0  0  0  0  0  0
  154.9818  135.7128  162.7915 C   0  0  0  0  0  0  0  0  0  0  0  0
  155.1215  136.0078  164.3047 C   0  0  2  0  0  0  0  0  0  0  0  0
  154.6908  134.8724  165.0336 O   0  0  0  0  0  0  0  0  0  0  0  0
  154.2966  137.2217  164.7386 C   0  0  0  0  0  0  0  0  0  0  0  0
  155.3484  138.2866  165.0248 C   0  0  0  0  0  0  0  0  0  0  0  0
  156.4198  137.5274  165.5549 O   0  0  0  0  0  0  0  0  0  0  0  0
  156.5559  136.3737  164.7379 C   0  0  0  0  0  0  0  0  0  0  0  0
  151.5629  139.2959  157.7667 H   0  0  0  0  0  0  0  0  0  0  0  0
  153.0486  138.6712  158.4638 H   0  0  0  0  0  0  0  0  0  0  0  0
  153.1025  140.0632  157.3881 H   0  0  0  0  0  0  0  0  0  0  0  0
  151.7650  140.0219  160.1503 H   0  0  0  0  0  0  0  0  0  0  0  0
  151.1214  141.7712  158.0162 H   0  0  0  0  0  0  0  0  0  0  0  0
  150.8191  142.0248  159.7270 H   0  0  0  0  0  0  0  0  0  0  0  0
  153.2243  142.8619  158.1072 H   0  0  0  0  0  0  0  0  0  0  0  0
  153.0126  145.0368  158.9979 H   0  0  0  0  0  0  0  0  0  0  0  0
  151.4005  144.5829  158.5151 H   0  0  0  0  0  0  0  0  0  0  0  0
  151.4772  145.7224  160.7569 H   0  0  0  0  0  0  0  0  0  0  0  0
  150.7798  144.1260  160.8627 H   0  0  0  0  0  0  0  0  0  0  0  0
  153.6735  144.8569  161.5496 H   0  0  0  0  0  0  0  0  0  0  0  0
  152.4103  144.4809  162.6996 H   0  0  0  0  0  0  0  0  0  0  0  0
  153.8496  142.5023  162.3220 H   0  0  0  0  0  0  0  0  0  0  0  0
  152.2126  142.1886  161.8139 H   0  0  0  0  0  0  0  0  0  0  0  0
  154.6014  142.8418  159.9951 H   0  0  0  0  0  0  0  0  0  0  0  0
  157.2091  140.3224  162.4112 H   0  0  0  0  0  0  0  0  0  0  0  0
  152.6089  135.9732  161.2505 H   0  0  0  0  0  0  0  0  0  0  0  0
  154.3403  134.8438  162.6395 H   0  0  0  0  0  0  0  0  0  0  0  0
  155.9519  135.4511  162.3666 H   0  0  0  0  0  0  0  0  0  0  0  0
  154.4472  135.1515  165.9032 H   0  0  0  0  0  0  0  0  0  0  0  0
  153.5731  137.5468  163.9901 H   0  0  0  0  0  0  0  0  0  0  0  0
  153.7441  137.0136  165.6565 H   0  0  0  0  0  0  0  0  0  0  0  0
  155.6658  138.7820  164.1057 H   0  0  0  0  0  0  0  0  0  0  0  0
  155.0021  139.0451  165.7271 H   0  0  0  0  0  0  0  0  0  0  0  0
  157.0738  135.5709  165.2641 H   0  0  0  0  0  0  0  0  0  0  0  0
  157.1680  136.6529  163.8803 H   0  0  0  0  0  0  0  0  0  0  0  0
  1  2  1  0  0  0  0
  1 27  1  0  0  0  0
  1 28  1  0  0  0  0
  1 29  1  0  0  0  0
  2 10  1  0  0  0  0
  2  3  1  0  0  0  0
  2 30  1  0  0  0  0
  3  4  1  0  0  0  0
  3 31  1  0  0  0  0
  3 32  1  0  0  0  0
  4  9  1  0  0  0  0
  4  5  1  0  0  0  0
  4 33  1  0  0  0  0
  5  6  1  0  0  0  0
  5 34  1  0  0  0  0
  5 35  1  0  0  0  0
  6  7  1  0  0  0  0
  6 36  1  0  0  0  0
  6 37  1  0  0  0  0
  7  8  1  0  0  0  0
  7 38  1  0  0  0  0
  7 39  1  0  0  0  0
  8  9  1  0  0  0  0
  8 40  1  0  0  0  0
  8 41  1  0  0  0  0
  9 10  1  0  0  0  0
  9 42  1  0  0  0  0
 10 11  1  0  0  0  0
 11 16  1  0  0  0  0
 11 12  2  0  0  0  0
 12 13  1  0  0  0  0
 13 14  2  0  0  0  0
 13 43  1  0  0  0  0
 14 15  1  0  0  0  0
 15 19  1  0  0  0  0
 15 16  2  0  0  0  0
 16 17  1  0  0  0  0
 17 18  2  0  0  0  0
 18 19  1  0  0  0  0
 18 44  1  0  0  0  0
 19 20  1  0  0  0  0
 20 21  1  0  0  0  0
 20 45  1  0  0  0  0
 20 46  1  0  0  0  0
 21 26  1  0  0  0  0
 21 22  1  0  0  0  0
 21 23  1  0  0  0  0
 22 47  1  0  0  0  0
 23 24  1  0  0  0  0
 23 48  1  0  0  0  0
 23 49  1  0  0  0  0
 24 25  1  0  0  0  0
 24 50  1  0  0  0  0
 24 51  1  0  0  0  0
 25 26  1  0  0  0  0
 26 52  1  0  0  0  0
 26 53  1  0  0  0  0
M  END
> <s_m_source_file>
AV-unprocessed.smi

> <i_m_source_file_index>
189

> <i_lp_mmshare_version>
43012

> <i_f3d_flags>
0

> <s_epik_input>
W0NIMl0xW0NIMl1bQ0gyXVtDSDJdW0NASF0oW0NASF0xMilOKFtDQEhdKFtDSDNdKVtDSDJdMiljKG5bY0hdbjMpYyhjMzQpbltjSF1uNFtDSDJdW0NAQF01KFtPSF0pW0NIMl1bQ0gyXU9bQ0gyXTU=

> <s_epik_cmdline>
J2VwaWtfcHl0aG9uJywgJy1waCcsICc3LjAnLCAnLXRuJywgJzgnLCAnLW1hJywgJzIwMCcsICctbWV0YWxfYmluZGluZycsICctaW1hZScsICc8aW5maWxlLm1hZT4nLCAnLW9tYWUnLCAnPG91dGZpbGUubWFlPic=

> <r_lp_tautomer_probability>
1

> <r_epik_Ionization_Penalty>
0.00594261

> <r_epik_Ionization_Penalty_Charging>
0

> <r_epik_Ionization_Penalty_Neutral>
0.00594261

> <r_epik_State_Penalty>
0.00429776

> <r_epik_Charging_Adjusted_Penalty>
0.00429776

> <i_epik_Tot_Q>
0

> <i_epik_Tot_abs_Q>
0

> <r_epik_Metal_State_Penalty>
-0

> <b_epik_Metal_Only>
0

> <s_lp_Force_Field>
OPLS_2005

> <r_lp_Energy>
57.6623

> <b_lp_Chiralities_Consistent>
1

> <s_lp_Variant>
AV-unprocessed.smi:189-9

> <Gold.Version>
5.8.1

> <Gold.Id.Protein>
6NUR|6NUR_protein|mol2

> <Gold.PLP.Fitness>
50.6461

> <Gold.PLP.PLP>
-52.5718

> <Gold.PLP.part.hbond>
-1.6838

> <Gold.PLP.part.metal>
0.0000

> <Gold.PLP.part.buried>
-5.1742

> <Gold.PLP.part.nonpolar>
-45.2750

> <Gold.PLP.part.repulsive>
0.0909

> <Gold.PLP.ligand.clash>
0.0000

> <Gold.PLP.ligand.torsion>
1.0935

> <Gold.PLP.Chemscore.Hbond>
0.0000

> <Gold.PLP.Chemscore.CHOScore>
0.0000

> <Gold.PLP.Chemscore.Metal>
0.0000

> <Gold.PLP.Chemscore.Internal.Correction>
0.2614

> <Gold.Rescore>
     Score         DG    S(hbond)    S(metal)    S(lipo)     H(rot)  DE(clash)    DE(int)     intcor
     12.90     -16.01       0.00        0.00     128.08       1.74       0.46       2.64       ----

> <Gold.Chemscore.Fitness>
12.9006

> <Gold.Chemscore.DG>
-16.0059

> <Gold.Chemscore.ZeroCoef>
-5.4800

> <Gold.Chemscore.Hbond>
0.0000

> <Gold.Chemscore.Metal>
0.0000

> <Gold.Chemscore.Lipo>
128.0797

> <Gold.Chemscore.Internal_Hbond>
0.0000

> <Gold.Chemscore.DEClash>
0.4621

> <Gold.Chemscore.DEInternal>
2.6432

> <Gold.Chemscore.Rot>
1.7420

> <Gold.Chemscore.Internal.Correction>
   9.000000E+99

> <Gold.Chemscore.Hbond.Weighted>
-0.0000

> <Gold.Chemscore.Metal.Weighted>
-0.0000

> <Gold.Chemscore.Lipo.Weighted>
-14.9853

> <Gold.Chemscore.Internal_Hbond.Weighted>
0.0000

> <Gold.Chemscore.DEClash.Weighted>
0.4621

> <Gold.Chemscore.DEInternal.Weighted>
2.6432

> <Gold.Chemscore.Rot.Weighted>
4.4594

> <Gold.Chemscore.Internal.Correction.Weighted>
   9.000000E+99

> <Gold.Protein.RotatedTorsions>
[ 6907 6896 6895 6894 ] final  103.89 input  -60.11 | X-H torsion
[ 7974 7965 7964 7962 ] final  119.78 input  175.53 | X-H torsion
[ 8008 7997 7996 7995 ] final  -38.40 input   59.86 | X-H torsion
[ 10167 10162 10161 10158 ] final  -31.36 input  -65.29 | X-H torsion
[ 10718 10713 10712 10709 ] final -163.25 input   66.30 | X-H torsion
[ 10763 10752 10751 10750 ] final  -28.88 input  -60.55 | X-H torsion
[ 11005 11000 10999 10996 ] final  129.10 input  -57.11 | X-H torsion

> <Gold.Protein.ActiveResidues>
 VAL166  LYS551  ARG553  GLY616  TRP617  ASP618  TYR619  PRO620  LYS621  CYS622 
 ASP623  PHE694  ASN695  SER759  ASP760  ASP761  ALA762  ILE779  LEU786  VAL792 
 PHE793  MET794  SER795  GLU796  ALA797  LYS798  CYS799  TRP800  GLU811  SER814 

> <Gold.Protein.RotatedAtoms>
  152.5281  133.9758  159.7783 H   0  0  0  0  0  0  0  0  0  0  0  0  # atno 6907 bound_to 6896
  151.0021  133.6038  159.2700 H   0  0  0  0  0  0  0  0  0  0  0  0  # atno 6908 bound_to 6896
  151.3143  135.0808  159.9336 H   0  0  0  0  0  0  0  0  0  0  0  0  # atno 6909 bound_to 6896
  145.1390  139.3280  143.4626 H   0  0  0  0  0  0  0  0  0  0  0  0  # atno 7974 bound_to 7965
  154.4037  140.1579  156.2694 H   0  0  0  0  0  0  0  0  0  0  0  0  # atno 8008 bound_to 7997
  155.8966  140.3435  155.5973 H   0  0  0  0  0  0  0  0  0  0  0  0  # atno 8009 bound_to 7997
  155.7496  140.0803  157.2198 H   0  0  0  0  0  0  0  0  0  0  0  0  # atno 8010 bound_to 7997
  140.7237  143.3777  151.1659 H   0  0  0  0  0  0  0  0  0  0  0  0  # atno 10167 bound_to 10162
  156.6220  130.8894  151.2959 H   0  0  0  0  0  0  0  0  0  0  0  0  # atno 10718 bound_to 10713
  153.7555  135.6923  153.4936 H   0  0  0  0  0  0  0  0  0  0  0  0  # atno 10763 bound_to 10752
  153.1974  135.4449  155.0223 H   0  0  0  0  0  0  0  0  0  0  0  0  # atno 10764 bound_to 10752
  154.8172  135.3404  154.7073 H   0  0  0  0  0  0  0  0  0  0  0  0  # atno 10765 bound_to 10752
  139.9597  134.9605  156.9099 H   0  0  0  0  0  0  0  0  0  0  0  0  # atno 11005 bound_to 11000
  146.3507  140.1419  142.8594 LP  0  0  0  0  0  0  0  0  0  0  0  0  # atno 17320 bound_to 7965
  145.0553  140.9048  143.4971 LP  0  0  0  0  0  0  0  0  0  0  0  0  # atno 17321 bound_to 7965
  139.7360  143.8998  152.3035 LP  0  0  0  0  0  0  0  0  0  0  0  0  # atno 17342 bound_to 10162
  139.8803  144.7021  150.8885 LP  0  0  0  0  0  0  0  0  0  0  0  0  # atno 17343 bound_to 10162
  157.7225  130.9577  150.1496 LP  0  0  0  0  0  0  0  0  0  0  0  0  # atno 17370 bound_to 10713
  156.2304  130.3681  149.8452 LP  0  0  0  0  0  0  0  0  0  0  0  0  # atno 17371 bound_to 10713
  140.5528  134.0610  155.7374 LP  0  0  0  0  0  0  0  0  0  0  0  0  # atno 17394 bound_to 11000
  141.1273  133.9362  157.2609 LP  0  0  0  0  0  0  0  0  0  0  0  0  # atno 17395 bound_to 11000

$$$$
