AV-unprocessed.smi:1602|AV-procd|sdf|6439|dock1
  -GOLD-   22720 7 83D 1   1.00000     0.00000
 Structure written by MMmdl.
 36 37  0  0  0  0  0  0  0  0  1 V2000
  151.7681  144.4119  157.7278 C   0  0  0  0  0  0  0  0  0  0  0  0
  151.1173  143.0237  157.7719 C   0  0  2  0  0  0  0  0  0  0  0  0
  152.0094  141.9782  158.4681 C   0  0  0  0  0  0  0  0  0  0  0  0
  152.3334  142.3524  159.8334 N   0  0  0  0  0  0  0  0  0  0  0  0
  153.1579  141.7025  160.7276 C   0  0  0  0  0  0  0  0  0  0  0  0
  153.1355  142.4145  161.8924 C   0  0  0  0  0  0  0  0  0  0  0  0
  152.2598  143.4995  161.6078 C   0  0  0  0  0  0  0  0  0  0  0  0
  151.7840  143.4615  160.3735 N   0  0  0  0  0  0  0  0  0  0  0  0
  150.8108  142.5890  156.4067 N   0  0  0  0  0  0  0  0  0  0  0  0
  150.3291  140.9563  156.1360 S   0  0  0  0  0  0  0  0  0  0  0  0
  151.3261  140.3043  155.2732 O   0  0  0  0  0  0  0  0  0  0  0  0
  149.9525  140.3744  157.4334 O   0  0  0  0  0  0  0  0  0  0  0  0
  148.8967  141.2339  155.2054 N   0  0  0  0  0  0  0  0  0  0  0  0
  148.5049  140.1895  154.2410 C   0  0  0  0  0  0  0  0  0  0  0  0
  147.3492  140.6642  153.3456 C   0  0  0  0  0  0  0  0  0  0  0  0
  146.2646  141.1114  154.1440 O   0  0  0  0  0  0  0  0  0  0  0  0
  146.6349  142.2256  154.9411 C   0  0  0  0  0  0  0  0  0  0  0  0
  147.7541  141.8292  155.9177 C   0  0  0  0  0  0  0  0  0  0  0  0
  151.9784  144.7770  158.7334 H   0  0  0  0  0  0  0  0  0  0  0  0
  151.1125  145.1377  157.2450 H   0  0  0  0  0  0  0  0  0  0  0  0
  152.7092  144.3929  157.1773 H   0  0  0  0  0  0  0  0  0  0  0  0
  150.1835  143.1104  158.3298 H   0  0  0  0  0  0  0  0  0  0  0  0
  151.5212  141.0027  158.4793 H   0  0  0  0  0  0  0  0  0  0  0  0
  152.9433  141.8531  157.9180 H   0  0  0  0  0  0  0  0  0  0  0  0
  153.6795  140.7939  160.4655 H   0  0  0  0  0  0  0  0  0  0  0  0
  153.6619  142.1930  162.8088 H   0  0  0  0  0  0  0  0  0  0  0  0
  151.9575  144.3077  162.2572 H   0  0  0  0  0  0  0  0  0  0  0  0
  150.2252  143.2532  155.9012 H   0  0  0  0  0  0  0  0  0  0  0  0
  149.3567  139.9117  153.6213 H   0  0  0  0  0  0  0  0  0  0  0  0
  148.2074  139.2960  154.7911 H   0  0  0  0  0  0  0  0  0  0  0  0
  147.6788  141.4622  152.6781 H   0  0  0  0  0  0  0  0  0  0  0  0
  147.0069  139.8452  152.7130 H   0  0  0  0  0  0  0  0  0  0  0  0
  146.9507  143.0543  154.3051 H   0  0  0  0  0  0  0  0  0  0  0  0
  145.7608  142.5686  155.4951 H   0  0  0  0  0  0  0  0  0  0  0  0
  147.3791  141.1082  156.6452 H   0  0  0  0  0  0  0  0  0  0  0  0
  148.0839  142.7057  156.4758 H   0  0  0  0  0  0  0  0  0  0  0  0
  1  2  1  0  0  0  0
  1 19  1  0  0  0  0
  1 20  1  0  0  0  0
  1 21  1  0  0  0  0
  2  3  1  0  0  0  0
  2  9  1  0  0  0  0
  2 22  1  0  0  0  0
  3  4  1  0  0  0  0
  3 23  1  0  0  0  0
  3 24  1  0  0  0  0
  4  8  1  0  0  0  0
  4  5  1  0  0  0  0
  5  6  2  0  0  0  0
  5 25  1  0  0  0  0
  6  7  1  0  0  0  0
  6 26  1  0  0  0  0
  7  8  2  0  0  0  0
  7 27  1  0  0  0  0
  9 10  1  0  0  0  0
  9 28  1  0  0  0  0
 10 11  2  0  0  0  0
 10 12  2  0  0  0  0
 10 13  1  0  0  0  0
 13 18  1  0  0  0  0
 13 14  1  0  0  0  0
 14 15  1  0  0  0  0
 14 29  1  0  0  0  0
 14 30  1  0  0  0  0
 15 16  1  0  0  0  0
 15 31  1  0  0  0  0
 15 32  1  0  0  0  0
 16 17  1  0  0  0  0
 17 18  1  0  0  0  0
 17 33  1  0  0  0  0
 17 34  1  0  0  0  0
 18 35  1  0  0  0  0
 18 36  1  0  0  0  0
M  END
> <s_m_source_file>
AV-unprocessed.smi

> <i_m_source_file_index>
1602

> <i_lp_mmshare_version>
43012

> <i_f3d_flags>
0

> <s_epik_input>
bjFbY0hdW2NIXVtjSF1uMVtDSDJdW0NAQEhdKFtDSDNdKVtOSF1TKD1PKSg9TylOMltDSDJdW0NIMl1PW0NIMl1bQ0gyXTI=

> <s_epik_cmdline>
J2VwaWtfcHl0aG9uJywgJy1waCcsICc3LjAnLCAnLXRuJywgJzgnLCAnLW1hJywgJzIwMCcsICctbWV0YWxfYmluZGluZycsICctaW1hZScsICc8aW5maWxlLm1hZT4nLCAnLW9tYWUnLCAnPG91dGZpbGUubWFlPic=

> <r_lp_tautomer_probability>
1

> <r_epik_Ionization_Penalty>
0.114248

> <r_epik_Ionization_Penalty_Charging>
0

> <r_epik_Ionization_Penalty_Neutral>
0.114248

> <r_epik_State_Penalty>
0.103909

> <r_epik_Charging_Adjusted_Penalty>
0.103909

> <i_epik_Tot_Q>
0

> <i_epik_Tot_abs_Q>
0

> <r_epik_Metal_State_Penalty>
0.436178

> <b_epik_Metal_Only>
0

> <s_lp_Force_Field>
OPLS_2005

> <r_lp_Energy>
7.48288

> <b_lp_Chiralities_Consistent>
1

> <s_lp_Variant>
AV-unprocessed.smi:1602-1

> <Gold.Version>
5.8.1

> <Gold.Id.Protein>
6NUR|6NUR_protein|mol2

> <Gold.PLP.Fitness>
43.5182

> <Gold.PLP.PLP>
-38.6010

> <Gold.PLP.part.hbond>
-2.0000

> <Gold.PLP.part.metal>
0.0000

> <Gold.PLP.part.buried>
-4.3149

> <Gold.PLP.part.nonpolar>
-33.7746

> <Gold.PLP.part.repulsive>
0.3879

> <Gold.PLP.ligand.clash>
0.0000

> <Gold.PLP.ligand.torsion>
0.9056

> <Gold.PLP.Chemscore.Hbond>
1.9920

> <Gold.PLP.Chemscore.CHOScore>
0.0000

> <Gold.PLP.Chemscore.Metal>
0.0000

> <Gold.Chemscore.Hbonds>
donor molecule, donor type, donor heavy atom, donor atom, acceptor molecule, acceptor atom, score
      L1  H     9    28       P1  8028  1.00
      P1  H  7989  7998       L1    11  0.99

> <Gold.PLP.Chemscore.Internal.Correction>
0.7524

> <Gold.Rescore>
     Score         DG    S(hbond)    S(metal)    S(lipo)     H(rot)  DE(clash)    DE(int)     intcor
     13.80     -17.13       1.93        0.00      87.57       1.97       0.03       3.30       ----

> <Gold.Chemscore.Fitness>
13.7992

> <Gold.Chemscore.DG>
-17.1318

> <Gold.Chemscore.ZeroCoef>
-5.4800

> <Gold.Chemscore.Hbond>
1.9273

> <Gold.Chemscore.Metal>
0.0000

> <Gold.Chemscore.Lipo>
87.5733

> <Gold.Chemscore.Internal_Hbond>
0.0000

> <Gold.Chemscore.DEClash>
0.0339

> <Gold.Chemscore.DEInternal>
3.2986

> <Gold.Chemscore.Rot>
1.9654

> <Gold.Chemscore.Internal.Correction>
   9.000000E+99

> <Gold.Chemscore.Hbonds>
donor molecule, donor type, donor heavy atom, donor atom, acceptor molecule, acceptor atom, score
      L1  H     9    28       P1  8028  0.96
      P1  H  7989  7998       L1    11  0.93

> <Gold.Chemscore.Hbond.Weighted>
-6.4372

> <Gold.Chemscore.Metal.Weighted>
-0.0000

> <Gold.Chemscore.Lipo.Weighted>
-10.2461

> <Gold.Chemscore.Internal_Hbond.Weighted>
0.0000

> <Gold.Chemscore.DEClash.Weighted>
0.0339

> <Gold.Chemscore.DEInternal.Weighted>
3.2986

> <Gold.Chemscore.Rot.Weighted>
5.0315

> <Gold.Chemscore.Internal.Correction.Weighted>
   9.000000E+99

> <Gold.Protein.RotatedTorsions>
[ 6907 6896 6895 6894 ] final   95.49 input  -60.11 | X-H torsion
[ 7974 7965 7964 7962 ] final -179.01 input  175.53 | X-H torsion
[ 8008 7997 7996 7995 ] final   30.17 input   59.86 | X-H torsion
[ 10167 10162 10161 10158 ] final  -72.80 input  -65.29 | X-H torsion
[ 10718 10713 10712 10709 ] final    6.49 input   66.30 | X-H torsion
[ 10763 10752 10751 10750 ] final  -79.70 input  -60.55 | X-H torsion
[ 11005 11000 10999 10996 ] final  -48.41 input  -57.11 | X-H torsion

> <Gold.Protein.ActiveResidues>
 VAL166  LYS551  ARG553  GLY616  TRP617  ASP618  TYR619  PRO620  LYS621  CYS622 
 ASP623  PHE694  ASN695  SER759  ASP760  ASP761  ALA762  ILE779  LEU786  VAL792 
 PHE793  MET794  SER795  GLU796  ALA797  LYS798  CYS799  TRP800  GLU811  SER814 

> <Gold.Protein.RotatedAtoms>
  152.5443  134.1032  159.8326 H   0  0  0  0  0  0  0  0  0  0  0  0  # atno 6907 bound_to 6896
  151.1107  133.5167  159.2613 H   0  0  0  0  0  0  0  0  0  0  0  0  # atno 6908 bound_to 6896
  151.1887  135.0402  159.8878 H   0  0  0  0  0  0  0  0  0  0  0  0  # atno 6909 bound_to 6896
  144.7134  140.0782  143.6426 H   0  0  0  0  0  0  0  0  0  0  0  0  # atno 7974 bound_to 7965
  155.0862  140.3215  155.4587 H   0  0  0  0  0  0  0  0  0  0  0  0  # atno 8008 bound_to 7997
  156.2754  140.2086  156.5935 H   0  0  0  0  0  0  0  0  0  0  0  0  # atno 8009 bound_to 7997
  154.6940  140.0513  157.0379 H   0  0  0  0  0  0  0  0  0  0  0  0  # atno 8010 bound_to 7997
  140.5163  143.2337  151.7507 H   0  0  0  0  0  0  0  0  0  0  0  0  # atno 10167 bound_to 10162
  156.9230  130.5798  149.5648 H   0  0  0  0  0  0  0  0  0  0  0  0  # atno 10718 bound_to 10713
  154.5419  135.5686  153.6846 H   0  0  0  0  0  0  0  0  0  0  0  0  # atno 10763 bound_to 10752
  152.9966  135.6230  154.2491 H   0  0  0  0  0  0  0  0  0  0  0  0  # atno 10764 bound_to 10752
  154.2422  135.2862  155.2829 H   0  0  0  0  0  0  0  0  0  0  0  0  # atno 10765 bound_to 10752
  141.0699  133.6682  156.3437 H   0  0  0  0  0  0  0  0  0  0  0  0  # atno 11005 bound_to 11000
  145.9724  139.2880  143.1090 LP  0  0  0  0  0  0  0  0  0  0  0  0  # atno 17320 bound_to 7965
  145.9101  140.9185  143.0458 LP  0  0  0  0  0  0  0  0  0  0  0  0  # atno 17321 bound_to 7965
  139.4910  144.4319  151.9862 LP  0  0  0  0  0  0  0  0  0  0  0  0  # atno 17342 bound_to 10162
  140.3413  144.3199  150.5966 LP  0  0  0  0  0  0  0  0  0  0  0  0  # atno 17343 bound_to 10162
  156.0482  130.5555  150.8930 LP  0  0  0  0  0  0  0  0  0  0  0  0  # atno 17370 bound_to 10713
  157.5896  131.0945  150.9141 LP  0  0  0  0  0  0  0  0  0  0  0  0  # atno 17371 bound_to 10713
  140.5695  134.5854  157.5454 LP  0  0  0  0  0  0  0  0  0  0  0  0  # atno 17394 bound_to 11000
  139.9513  134.7612  156.0442 LP  0  0  0  0  0  0  0  0  0  0  0  0  # atno 17395 bound_to 11000

$$$$
