AV-unprocessed.smi:2981|AV-procd|sdf|11374|dock5
  -GOLD-   2272016293D 1   1.00000     0.00000
 Structure written by MMmdl.
 31 32  0  0  0  0  0  0  0  0  1 V2000
  152.8454  136.8078  156.1848 O   0  0  0  0  0  0  0  0  0  0  0  0
  151.9727  137.3211  155.4832 C   0  0  0  0  0  0  0  0  0  0  0  0
  152.1108  138.7685  154.9885 C   0  0  0  0  0  0  0  0  0  0  0  0
  151.5555  139.7601  155.9220 N   0  0  0  0  0  0  0  0  0  0  0  0
  150.6256  140.6123  155.3526 N   0  0  0  0  0  0  0  0  0  0  0  0
  150.0611  141.5130  156.0808 C   0  0  0  0  0  0  0  0  0  0  0  0
  150.3683  141.6726  157.4850 C   0  0  0  0  0  0  0  0  0  0  0  0
  149.5783  142.8993  158.4117 Cl  0  0  0  0  0  0  0  0  0  0  0  0
  151.2859  140.8361  158.0320 C   0  0  0  0  0  0  0  0  0  0  0  0
  151.7071  140.9667  159.7053 Cl  0  0  0  0  0  0  0  0  0  0  0  0
  151.9499  139.7974  157.2323 C   0  0  0  0  0  0  0  0  0  0  0  0
  152.7894  139.0209  157.6903 O   0  0  0  0  0  0  0  0  0  0  0  0
  150.8508  136.6804  155.1216 N   0  0  0  0  0  0  0  0  0  0  0  0
  150.5195  135.3045  155.4780 C   0  0  2  0  0  0  0  0  0  0  0  0
  149.3858  134.7578  154.5909 C   0  0  0  0  0  0  0  0  0  0  0  0
  148.8418  133.4713  155.2247 C   0  0  0  0  0  0  0  0  0  0  0  0
  149.0620  133.6622  157.0349 S   0  0  0  0  0  0  0  0  0  0  0  0
  147.7680  133.9775  157.6591 O   0  0  0  0  0  0  0  0  0  0  0  0
  149.8921  132.5545  157.5319 O   0  0  0  0  0  0  0  0  0  0  0  0
  150.0716  135.1884  156.9435 C   0  0  0  0  0  0  0  0  0  0  0  0
  153.1620  138.9905  154.7938 H   0  0  0  0  0  0  0  0  0  0  0  0
  151.6130  138.8412  154.0198 H   0  0  0  0  0  0  0  0  0  0  0  0
  149.3212  142.2041  155.6767 H   0  0  0  0  0  0  0  0  0  0  0  0
  150.1840  137.1775  154.5489 H   0  0  0  0  0  0  0  0  0  0  0  0
  151.3936  134.6673  155.3291 H   0  0  0  0  0  0  0  0  0  0  0  0
  148.5792  135.4911  154.5464 H   0  0  0  0  0  0  0  0  0  0  0  0
  149.7183  134.5885  153.5660 H   0  0  0  0  0  0  0  0  0  0  0  0
  147.7930  133.2906  154.9885 H   0  0  0  0  0  0  0  0  0  0  0  0
  149.4247  132.6071  154.9055 H   0  0  0  0  0  0  0  0  0  0  0  0
  150.9069  135.1297  157.6417 H   0  0  0  0  0  0  0  0  0  0  0  0
  149.4350  136.0258  157.2310 H   0  0  0  0  0  0  0  0  0  0  0  0
  1  2  2  0  0  0  0
  2  3  1  0  0  0  0
  2 13  1  0  0  0  0
  3  4  1  0  0  0  0
  3 21  1  0  0  0  0
  3 22  1  0  0  0  0
  4 11  1  0  0  0  0
  4  5  1  0  0  0  0
  5  6  2  0  0  0  0
  6  7  1  0  0  0  0
  6 23  1  0  0  0  0
  7  8  1  0  0  0  0
  7  9  2  0  0  0  0
  9 10  1  0  0  0  0
  9 11  1  0  0  0  0
 11 12  2  0  0  0  0
 13 14  1  0  0  0  0
 13 24  1  0  0  0  0
 14 20  1  0  0  0  0
 14 15  1  0  0  0  0
 14 25  1  0  0  0  0
 15 16  1  0  0  0  0
 15 26  1  0  0  0  0
 15 27  1  0  0  0  0
 16 17  1  0  0  0  0
 16 28  1  0  0  0  0
 16 29  1  0  0  0  0
 17 18  2  0  0  0  0
 17 19  2  0  0  0  0
 17 20  1  0  0  0  0
 20 30  1  0  0  0  0
 20 31  1  0  0  0  0
M  END
> <s_m_source_file>
AV-unprocessed.smi

> <i_m_source_file_index>
2981

> <i_lp_mmshare_version>
43012

> <i_f3d_flags>
0

> <s_epik_input>
Tz1TMSg9TylbQ0gyXVtDSDJdW0NASF0oW0NIMl0xKVtOSF1DKD1PKVtDSDJdbjJuW2NIXWMoQ2wpYyhDbCljMj1P

> <s_epik_cmdline>
J2VwaWtfcHl0aG9uJywgJy1waCcsICc3LjAnLCAnLXRuJywgJzgnLCAnLW1hJywgJzIwMCcsICctbWV0YWxfYmluZGluZycsICctaW1hZScsICc8aW5maWxlLm1hZT4nLCAnLW9tYWUnLCAnPG91dGZpbGUubWFlPic=

> <r_lp_tautomer_probability>
1

> <r_epik_Ionization_Penalty>
1.07216e-07

> <r_epik_Ionization_Penalty_Charging>
2.33395e-11

> <r_epik_Ionization_Penalty_Neutral>
1.07193e-07

> <r_epik_State_Penalty>
-0

> <r_epik_Charging_Adjusted_Penalty>
2.33395e-11

> <i_epik_Tot_Q>
0

> <i_epik_Tot_abs_Q>
0

> <r_epik_Metal_State_Penalty>
-0

> <b_epik_Metal_Only>
0

> <s_lp_Force_Field>
OPLS_2005

> <r_lp_Energy>
19.0616

> <b_lp_Chiralities_Consistent>
1

> <s_lp_Variant>
AV-unprocessed.smi:2981-1

> <Gold.Version>
5.8.1

> <Gold.Id.Protein>
6NUR|6NUR_protein|mol2

> <Gold.PLP.Fitness>
40.5406

> <Gold.PLP.PLP>
-28.5587

> <Gold.PLP.part.hbond>
-4.0000

> <Gold.PLP.part.metal>
0.0000

> <Gold.PLP.part.buried>
-0.9283

> <Gold.PLP.part.nonpolar>
-24.3173

> <Gold.PLP.part.repulsive>
0.1473

> <Gold.PLP.ligand.clash>
0.0000

> <Gold.PLP.ligand.torsion>
0.6146

> <Gold.PLP.Chemscore.Hbond>
3.4032

> <Gold.PLP.Chemscore.CHOScore>
1.0000

> <Gold.PLP.Chemscore.Metal>
0.0000

> <Gold.Chemscore.Hbonds>
donor molecule, donor type, donor heavy atom, donor atom, acceptor molecule, acceptor atom, score
      P1  H  6896  6907       L1    19  0.24
      P1  H  7989  7998       L1     5  0.62
      P1  H  7997  8010       L1    12  0.60
      P1  H 10752 10765       L1     1  0.81
      L1  C     6    23       P1  8028  0.95

> <Gold.PLP.Chemscore.Internal.Correction>
0.0014

> <Gold.Rescore>
     Score         DG    S(hbond)    S(metal)    S(lipo)     H(rot)  DE(clash)    DE(int)     intcor
     12.53     -13.30       1.73        0.00      54.69       1.70       0.07       0.70       ----

> <Gold.Chemscore.Fitness>
12.5291

> <Gold.Chemscore.DG>
-13.3008

> <Gold.Chemscore.ZeroCoef>
-5.4800

> <Gold.Chemscore.Hbond>
1.7327

> <Gold.Chemscore.Metal>
0.0000

> <Gold.Chemscore.Lipo>
54.6860

> <Gold.Chemscore.Internal_Hbond>
0.0000

> <Gold.Chemscore.DEClash>
0.0732

> <Gold.Chemscore.DEInternal>
0.6985

> <Gold.Chemscore.Rot>
1.7049

> <Gold.Chemscore.Internal.Correction>
   9.000000E+99

> <Gold.Chemscore.Hbonds>
donor molecule, donor type, donor heavy atom, donor atom, acceptor molecule, acceptor atom, score
      P1  H  6896  6907       L1    19  0.15
      P1  H  7989  7998       L1     5  0.10
      P1  H  7997  8010       L1    12  0.14
      P1  H 10752 10765       L1     1  0.18

> <Gold.Chemscore.Hbond.Weighted>
-5.7872

> <Gold.Chemscore.Metal.Weighted>
-0.0000

> <Gold.Chemscore.Lipo.Weighted>
-6.3983

> <Gold.Chemscore.Internal_Hbond.Weighted>
0.0000

> <Gold.Chemscore.DEClash.Weighted>
0.0732

> <Gold.Chemscore.DEInternal.Weighted>
0.6985

> <Gold.Chemscore.Rot.Weighted>
4.3646

> <Gold.Chemscore.Internal.Correction.Weighted>
   9.000000E+99

> <Gold.Protein.RotatedTorsions>
[ 6907 6896 6895 6894 ] final -159.02 input  -60.11 | X-H torsion
[ 7974 7965 7964 7962 ] final -168.07 input  175.53 | X-H torsion
[ 8008 7997 7996 7995 ] final   33.10 input   59.86 | X-H torsion
[ 10167 10162 10161 10158 ] final   -1.11 input  -65.29 | X-H torsion
[ 10718 10713 10712 10709 ] final   88.47 input   66.30 | X-H torsion
[ 10763 10752 10751 10750 ] final -140.82 input  -60.55 | X-H torsion
[ 11005 11000 10999 10996 ] final   96.18 input  -57.11 | X-H torsion

> <Gold.Protein.ActiveResidues>
 VAL166  LYS551  ARG553  GLY616  TRP617  ASP618  TYR619  PRO620  LYS621  CYS622 
 ASP623  PHE694  ASN695  SER759  ASP760  ASP761  ALA762  ILE779  LEU786  VAL792 
 PHE793  MET794  SER795  GLU796  ALA797  LYS798  CYS799  TRP800  GLU811  SER814 

> <Gold.Protein.RotatedAtoms>
  151.3272  133.4015  159.2659 H   0  0  0  0  0  0  0  0  0  0  0  0  # atno 6907 bound_to 6896
  150.9986  134.9304  159.7951 H   0  0  0  0  0  0  0  0  0  0  0  0  # atno 6908 bound_to 6896
  152.5268  134.3237  159.9210 H   0  0  0  0  0  0  0  0  0  0  0  0  # atno 6909 bound_to 6896
  144.7210  140.2424  143.6290 H   0  0  0  0  0  0  0  0  0  0  0  0  # atno 7974 bound_to 7965
  155.1332  140.3259  155.4469 H   0  0  0  0  0  0  0  0  0  0  0  0  # atno 8008 bound_to 7997
  156.2628  140.2006  156.6400 H   0  0  0  0  0  0  0  0  0  0  0  0  # atno 8009 bound_to 7997
  154.6597  140.0548  157.0035 H   0  0  0  0  0  0  0  0  0  0  0  0  # atno 8010 bound_to 7997
  140.6796  143.6814  150.8102 H   0  0  0  0  0  0  0  0  0  0  0  0  # atno 10167 bound_to 10162
  157.6949  131.0296  150.3279 H   0  0  0  0  0  0  0  0  0  0  0  0  # atno 10718 bound_to 10713
  154.8566  135.3542  154.5769 H   0  0  0  0  0  0  0  0  0  0  0  0  # atno 10763 bound_to 10752
  153.6381  135.6999  153.5256 H   0  0  0  0  0  0  0  0  0  0  0  0  # atno 10764 bound_to 10752
  153.2994  135.4211  155.1198 H   0  0  0  0  0  0  0  0  0  0  0  0  # atno 10765 bound_to 10752
  139.8783  134.8937  156.4120 H   0  0  0  0  0  0  0  0  0  0  0  0  # atno 11005 bound_to 11000
  145.8307  139.2084  143.1884 LP  0  0  0  0  0  0  0  0  0  0  0  0  # atno 17320 bound_to 7965
  146.0434  140.8142  142.9817 LP  0  0  0  0  0  0  0  0  0  0  0  0  # atno 17321 bound_to 7965
  140.0512  143.5248  152.2672 LP  0  0  0  0  0  0  0  0  0  0  0  0  # atno 17342 bound_to 10162
  139.6110  144.7608  151.2952 LP  0  0  0  0  0  0  0  0  0  0  0  0  # atno 17343 bound_to 10162
  156.3757  130.3871  149.7141 LP  0  0  0  0  0  0  0  0  0  0  0  0  # atno 17370 bound_to 10713
  156.4540  130.7920  151.2941 LP  0  0  0  0  0  0  0  0  0  0  0  0  # atno 17371 bound_to 10713
  140.9194  133.7656  155.9887 LP  0  0  0  0  0  0  0  0  0  0  0  0  # atno 17394 bound_to 11000
  140.8457  134.3014  157.5296 LP  0  0  0  0  0  0  0  0  0  0  0  0  # atno 17395 bound_to 11000

$$$$
