AV-unprocessed.smi:72|AV-procd|sdf|692|dock4
  -GOLD-   2262017 03D 1   1.00000     0.00000
 Structure written by MMmdl.
 29 30  0  0  0  0  0  0  0  0  1 V2000
  152.5617  136.5967  159.3954 N   0  0  0  0  0  0  0  0  0  0  0  0
  152.1175  137.5463  158.6529 C   0  0  0  0  0  0  0  0  0  0  0  0
  150.9810  138.3230  158.9214 N   0  0  0  0  0  0  0  0  0  0  0  0
  150.6578  139.2623  158.0869 C   0  0  0  0  0  0  0  0  0  0  0  0
  151.4450  139.5485  156.8932 N   0  0  0  0  0  0  0  0  0  0  0  0
  151.0714  140.6381  155.9008 C   0  0  1  0  0  0  0  0  0  0  0  0
  150.6238  140.0630  154.7061 O   0  0  0  0  0  0  0  0  0  0  0  0
  149.1994  140.0416  154.6843 C   0  0  2  0  0  0  0  0  0  0  0  0
  148.6649  139.8239  153.2584 C   0  0  0  0  0  0  0  0  0  0  0  0
  148.1306  138.5229  153.1405 O   0  0  0  0  0  0  0  0  0  0  0  0
  148.8556  141.3880  155.3279 C   0  0  2  0  0  0  0  0  0  0  0  0
  148.9608  142.4331  154.3745 O   0  0  0  0  0  0  0  0  0  0  0  0
  149.9028  141.4955  156.4363 C   0  0  2  0  0  0  0  0  0  0  0  0
  150.2663  142.8360  156.7091 O   0  0  0  0  0  0  0  0  0  0  0  0
  152.5725  138.7442  156.5918 C   0  0  0  0  0  0  0  0  0  0  0  0
  153.2484  138.9115  155.5767 O   0  0  0  0  0  0  0  0  0  0  0  0
  152.8642  137.7817  157.4924 N   0  0  0  0  0  0  0  0  0  0  0  0
  151.9948  141.1909  155.7185 H   0  0  0  0  0  0  0  0  0  0  0  0
  148.8360  139.2498  155.3422 H   0  0  0  0  0  0  0  0  0  0  0  0
  147.8424  141.3973  155.7311 H   0  0  0  0  0  0  0  0  0  0  0  0
  149.5066  141.0407  157.3456 H   0  0  0  0  0  0  0  0  0  0  0  0
  153.3901  136.1929  158.9822 H   0  0  0  0  0  0  0  0  0  0  0  0
  149.7778  139.8880  158.2354 H   0  0  0  0  0  0  0  0  0  0  0  0
  147.8601  140.5288  153.0478 H   0  0  0  0  0  0  0  0  0  0  0  0
  149.4421  139.9817  152.5099 H   0  0  0  0  0  0  0  0  0  0  0  0
  148.7476  137.9894  152.6632 H   0  0  0  0  0  0  0  0  0  0  0  0
  148.8562  143.2567  154.8263 H   0  0  0  0  0  0  0  0  0  0  0  0
  149.8321  143.3958  156.0829 H   0  0  0  0  0  0  0  0  0  0  0  0
  153.6670  137.1969  157.3107 H   0  0  0  0  0  0  0  0  0  0  0  0
  1  2  2  0  0  0  0
  1 22  1  0  0  0  0
  2 17  1  0  0  0  0
  2  3  1  0  0  0  0
  3  4  2  0  0  0  0
  4  5  1  0  0  0  0
  4 23  1  0  0  0  0
  5  6  1  0  0  0  0
  5 15  1  0  0  0  0
  6 18  1  0  0  0  0
  6 13  1  0  0  0  0
  6  7  1  0  0  0  0
  7  8  1  0  0  0  0
  8 19  1  0  0  0  0
  8  9  1  0  0  0  0
  8 11  1  0  0  0  0
  9 10  1  0  0  0  0
  9 24  1  0  0  0  0
  9 25  1  0  0  0  0
 10 26  1  0  0  0  0
 11 20  1  0  0  0  0
 11 12  1  0  0  0  0
 11 13  1  0  0  0  0
 12 27  1  0  0  0  0
 13 21  1  0  0  0  0
 13 14  1  0  0  0  0
 14 28  1  0  0  0  0
 15 16  2  0  0  0  0
 15 17  1  0  0  0  0
 17 29  1  0  0  0  0
M  END
> <s_m_source_file>
AV-unprocessed.smi

> <i_m_source_file_index>
72

> <i_lp_mmshare_version>
43012

> <i_f3d_flags>
0

> <s_epik_input>
W05IMl1jMW5bY0hdbihjKD1PKW4xKVtDQEBIXTJPW0NASF0oW0NIMl1bT0hdKVtDQEBIXShbT0hdKVtDQEhdMltPSF0=

> <s_epik_cmdline>
J2VwaWtfcHl0aG9uJywgJy1waCcsICc3LjAnLCAnLXRuJywgJzgnLCAnLW1hJywgJzIwMCcsICctbWV0YWxfYmluZGluZycsICctaW1hZScsICc8aW5maWxlLm1hZT4nLCAnLW9tYWUnLCAnPG91dGZpbGUubWFlPic=

> <r_lp_tautomer_probability>
7.17554e-07

> <r_epik_Ionization_Penalty>
0.0066451

> <r_epik_Ionization_Penalty_Charging>
0.00663793

> <r_epik_Ionization_Penalty_Neutral>
7.17052e-06

> <r_epik_State_Penalty>
0.419231

> <r_epik_Charging_Adjusted_Penalty>
0.425868

> <i_epik_Tot_Q>
0

> <i_epik_Tot_abs_Q>
0

> <r_epik_Metal_State_Penalty>
1.44144

> <b_epik_Metal_Only>
0

> <s_epik_Chemistry_Notes>
This compound contains an acetal/aminal-like group ( X-CH(R)-Y where X, Y are N, S, or O) that may be acid/base labile, releasing an aldehyde.

> <s_lp_Force_Field>
OPLS_2005

> <r_lp_Energy>
42.1685

> <b_lp_Chiralities_Consistent>
1

> <s_lp_Variant>
AV-unprocessed.smi:72-30

> <Gold.Version>
5.8.1

> <Gold.Id.Protein>
6NUR|6NUR_protein|mol2

> <Gold.PLP.Fitness>
40.5900

> <Gold.PLP.PLP>
-23.8680

> <Gold.PLP.part.hbond>
-8.0000

> <Gold.PLP.part.metal>
0.0000

> <Gold.PLP.part.buried>
0.0882

> <Gold.PLP.part.nonpolar>
-16.6723

> <Gold.PLP.part.repulsive>
0.2071

> <Gold.PLP.ligand.clash>
0.0000

> <Gold.PLP.ligand.torsion>
0.7747

> <Gold.PLP.Chemscore.Hbond>
6.0830

> <Gold.PLP.Chemscore.CHOScore>
0.0000

> <Gold.PLP.Chemscore.Metal>
0.0000

> <Gold.Chemscore.Hbonds>
donor molecule, donor type, donor heavy atom, donor atom, acceptor molecule, acceptor atom, score
      L1  H    10    26       P1  7948  0.86
      L1  H    12    27       P1  8028  1.00
      L1  H    14    28       P1  8028  1.00
      P1  H  6896  6908       L1     1  0.95
      P1  H  7989  7998       L1     7  1.00
      P1  H  7997  8010       L1    16  1.00
      P1  H  8011  8017       L1    12  0.10

> <Gold.PLP.Chemscore.Internal.Correction>
0.0223

> <Gold.Rescore>
     Score         DG    S(hbond)    S(metal)    S(lipo)     H(rot)  DE(clash)    DE(int)     intcor
     11.64     -14.78       4.93        0.00      27.51       4.06       2.10       1.03       ----

> <Gold.Chemscore.Fitness>
11.6400

> <Gold.Chemscore.DG>
-14.7755

> <Gold.Chemscore.ZeroCoef>
-5.4800

> <Gold.Chemscore.Hbond>
4.9314

> <Gold.Chemscore.Metal>
0.0000

> <Gold.Chemscore.Lipo>
27.5056

> <Gold.Chemscore.Internal_Hbond>
0.0000

> <Gold.Chemscore.DEClash>
2.1039

> <Gold.Chemscore.DEInternal>
1.0316

> <Gold.Chemscore.Rot>
4.0600

> <Gold.Chemscore.Internal.Correction>
   9.000000E+99

> <Gold.Chemscore.Hbonds>
donor molecule, donor type, donor heavy atom, donor atom, acceptor molecule, acceptor atom, score
      L1  H    10    26       P1  7948  0.85
      L1  H    12    27       P1  8028  1.00
      L1  H    14    28       P1  8028  0.97
      P1  H  6896  6908       L1     1  0.21
      P1  H  7989  7998       L1     7  0.35
      P1  H  7997  8010       L1    16  0.54
      P1  H  8011  8017       L1    12  0.10

> <Gold.Chemscore.Hbond.Weighted>
-16.4709

> <Gold.Chemscore.Metal.Weighted>
-0.0000

> <Gold.Chemscore.Lipo.Weighted>
-3.2182

> <Gold.Chemscore.Internal_Hbond.Weighted>
0.0000

> <Gold.Chemscore.DEClash.Weighted>
2.1039

> <Gold.Chemscore.DEInternal.Weighted>
1.0316

> <Gold.Chemscore.Rot.Weighted>
10.3936

> <Gold.Chemscore.Internal.Correction.Weighted>
   9.000000E+99

> <Gold.Protein.RotatedTorsions>
[ 6907 6896 6895 6894 ] final -106.00 input  -60.11 | X-H torsion
[ 7974 7965 7964 7962 ] final    7.66 input  175.53 | X-H torsion
[ 8008 7997 7996 7995 ] final  100.14 input   59.86 | X-H torsion
[ 10167 10162 10161 10158 ] final  105.94 input  -65.29 | X-H torsion
[ 10718 10713 10712 10709 ] final  -11.14 input   66.30 | X-H torsion
[ 10763 10752 10751 10750 ] final   70.03 input  -60.55 | X-H torsion
[ 11005 11000 10999 10996 ] final  106.32 input  -57.11 | X-H torsion

> <Gold.Protein.ActiveResidues>
 VAL166  LYS551  ARG553  GLY616  TRP617  ASP618  TYR619  PRO620  LYS621  CYS622 
 ASP623  PHE694  ASN695  SER759  ASP760  ASP761  ALA762  ILE779  LEU786  VAL792 
 PHE793  MET794  SER795  GLU796  ALA797  LYS798  CYS799  TRP800  GLU811  SER814 

> <Gold.Protein.RotatedAtoms>
  150.7366  134.0042  159.3647 H   0  0  0  0  0  0  0  0  0  0  0  0  # atno 6907 bound_to 6896
  151.7998  135.0710  160.0408 H   0  0  0  0  0  0  0  0  0  0  0  0  # atno 6908 bound_to 6896
  152.3149  133.5755  159.5742 H   0  0  0  0  0  0  0  0  0  0  0  0  # atno 6909 bound_to 6896
  146.2424  140.0050  142.8412 H   0  0  0  0  0  0  0  0  0  0  0  0  # atno 7974 bound_to 7965
  156.1174  140.3218  155.8159 H   0  0  0  0  0  0  0  0  0  0  0  0  # atno 8008 bound_to 7997
  155.4565  140.0536  157.3013 H   0  0  0  0  0  0  0  0  0  0  0  0  # atno 8009 bound_to 7997
  154.4803  140.2050  155.9794 H   0  0  0  0  0  0  0  0  0  0  0  0  # atno 8010 bound_to 7997
  139.7051  144.7088  151.1120 H   0  0  0  0  0  0  0  0  0  0  0  0  # atno 10167 bound_to 10162
  156.6633  130.4988  149.6023 H   0  0  0  0  0  0  0  0  0  0  0  0  # atno 10718 bound_to 10713
  153.0319  135.5189  154.7379 H   0  0  0  0  0  0  0  0  0  0  0  0  # atno 10763 bound_to 10752
  154.6387  135.2909  155.0132 H   0  0  0  0  0  0  0  0  0  0  0  0  # atno 10764 bound_to 10752
  154.1058  135.6629  153.4928 H   0  0  0  0  0  0  0  0  0  0  0  0  # atno 10765 bound_to 10752
  139.8812  134.9365  156.5648 H   0  0  0  0  0  0  0  0  0  0  0  0  # atno 11005 bound_to 11000
  145.1380  140.9555  143.4505 LP  0  0  0  0  0  0  0  0  0  0  0  0  # atno 17320 bound_to 7965
  145.0323  139.3330  143.6018 LP  0  0  0  0  0  0  0  0  0  0  0  0  # atno 17321 bound_to 7965
  140.7719  143.5370  150.9357 LP  0  0  0  0  0  0  0  0  0  0  0  0  # atno 17342 bound_to 10162
  139.9053  143.6786  152.3124 LP  0  0  0  0  0  0  0  0  0  0  0  0  # atno 17343 bound_to 10162
  156.1994  130.6610  151.1150 LP  0  0  0  0  0  0  0  0  0  0  0  0  # atno 17370 bound_to 10713
  157.7102  131.0738  150.6527 LP  0  0  0  0  0  0  0  0  0  0  0  0  # atno 17371 bound_to 10713
  140.8142  133.8405  155.8837 LP  0  0  0  0  0  0  0  0  0  0  0  0  # atno 17394 bound_to 11000
  140.9478  134.1818  157.4750 LP  0  0  0  0  0  0  0  0  0  0  0  0  # atno 17395 bound_to 11000

$$$$
