AV-unprocessed.smi:1860|AV-procd|sdf|7547|dock3
  -GOLD-   22720 9263D 1   1.00000     0.00000
 Structure written by MMmdl.
 31 32  0  0  0  0  0  0  0  0  1 V2000
  147.0301  144.1608  161.0724 C   0  0  0  0  0  0  0  0  0  0  0  0
  147.6673  145.5368  160.8381 C   0  0  0  0  0  0  0  0  0  0  0  0
  148.7263  145.4713  159.8385 N   0  0  0  0  0  0  0  0  0  0  0  0
  149.9163  144.8750  160.0119 C   0  0  0  0  0  0  0  0  0  0  0  0
  150.2532  144.3245  161.0601 O   0  0  0  0  0  0  0  0  0  0  0  0
  150.8725  144.8991  158.8187 C   0  0  0  0  0  0  0  0  0  0  0  0
  151.3744  143.5139  158.5313 C   0  0  0  0  0  0  0  0  0  0  0  0
  152.2703  142.7899  159.2798 C   0  0  0  0  0  0  0  0  0  0  0  0
  152.5852  141.2226  158.5874 S   0  0  0  0  0  0  0  0  0  0  0  0
  151.4590  141.6101  157.2834 C   0  0  0  0  0  0  0  0  0  0  0  0
  151.1108  140.7665  156.1871 N   0  0  0  0  0  0  0  0  0  0  0  0
  149.8833  140.9683  155.4236 C   0  0  0  0  0  0  0  0  0  0  0  0
  149.9184  139.8614  154.3746 C   0  0  0  0  0  0  0  0  0  0  0  0
  151.1567  139.1873  154.6857 N   0  0  0  0  0  0  0  0  0  0  0  0
  151.8162  139.7180  155.7179 C   0  0  0  0  0  0  0  0  0  0  0  0
  152.8886  139.2904  156.1408 O   0  0  0  0  0  0  0  0  0  0  0  0
  150.9179  142.8274  157.4011 N   0  0  0  0  0  0  0  0  0  0  0  0
  146.2183  144.2288  161.7969 H   0  0  0  0  0  0  0  0  0  0  0  0
  147.7579  143.4461  161.4576 H   0  0  0  0  0  0  0  0  0  0  0  0
  146.6177  143.7543  160.1485 H   0  0  0  0  0  0  0  0  0  0  0  0
  146.9100  146.2372  160.4857 H   0  0  0  0  0  0  0  0  0  0  0  0
  148.0532  145.9421  161.7747 H   0  0  0  0  0  0  0  0  0  0  0  0
  148.5359  145.8986  158.9438 H   0  0  0  0  0  0  0  0  0  0  0  0
  150.3617  145.3125  157.9482 H   0  0  0  0  0  0  0  0  0  0  0  0
  151.7002  145.5752  159.0377 H   0  0  0  0  0  0  0  0  0  0  0  0
  152.7669  143.0849  160.1922 H   0  0  0  0  0  0  0  0  0  0  0  0
  149.0083  140.8782  156.0688 H   0  0  0  0  0  0  0  0  0  0  0  0
  149.8751  141.9561  154.9606 H   0  0  0  0  0  0  0  0  0  0  0  0
  149.0744  139.1776  154.4710 H   0  0  0  0  0  0  0  0  0  0  0  0
  149.9416  140.2585  153.3593 H   0  0  0  0  0  0  0  0  0  0  0  0
  151.4831  138.3876  154.1628 H   0  0  0  0  0  0  0  0  0  0  0  0
  1  2  1  0  0  0  0
  1 18  1  0  0  0  0
  1 19  1  0  0  0  0
  1 20  1  0  0  0  0
  2  3  1  0  0  0  0
  2 21  1  0  0  0  0
  2 22  1  0  0  0  0
  3  4  1  0  0  0  0
  3 23  1  0  0  0  0
  4  5  2  0  0  0  0
  4  6  1  0  0  0  0
  6  7  1  0  0  0  0
  6 24  1  0  0  0  0
  6 25  1  0  0  0  0
  7 17  1  0  0  0  0
  7  8  2  0  0  0  0
  8  9  1  0  0  0  0
  8 26  1  0  0  0  0
  9 10  1  0  0  0  0
 10 11  1  0  0  0  0
 10 17  2  0  0  0  0
 11 15  1  0  0  0  0
 11 12  1  0  0  0  0
 12 13  1  0  0  0  0
 12 27  1  0  0  0  0
 12 28  1  0  0  0  0
 13 14  1  0  0  0  0
 13 29  1  0  0  0  0
 13 30  1  0  0  0  0
 14 15  1  0  0  0  0
 14 31  1  0  0  0  0
 15 16  2  0  0  0  0
M  END
> <s_m_source_file>
AV-unprocessed.smi

> <i_m_source_file_index>
1860

> <i_lp_mmshare_version>
43012

> <i_f3d_flags>
0

> <s_epik_input>
W0NIM11bQ0gyXVtOSF1DKD1PKVtDSDJdYzFbY0hdc2MobjEpTjJbQ0gyXVtDSDJdW05IXUMyPU8=

> <s_epik_cmdline>
J2VwaWtfcHl0aG9uJywgJy1waCcsICc3LjAnLCAnLXRuJywgJzgnLCAnLW1hJywgJzIwMCcsICctbWV0YWxfYmluZGluZycsICctaW1hZScsICc8aW5maWxlLm1hZT4nLCAnLW9tYWUnLCAnPG91dGZpbGUubWFlPic=

> <r_lp_tautomer_probability>
1

> <r_epik_Ionization_Penalty>
0.000119829

> <r_epik_Ionization_Penalty_Charging>
0

> <r_epik_Ionization_Penalty_Neutral>
0.000119829

> <r_epik_State_Penalty>
-0

> <r_epik_Charging_Adjusted_Penalty>
0

> <i_epik_Tot_Q>
0

> <i_epik_Tot_abs_Q>
0

> <r_epik_Metal_State_Penalty>
-0

> <b_epik_Metal_Only>
0

> <s_lp_Force_Field>
OPLS_2005

> <r_lp_Energy>
29.5586

> <b_lp_Chiralities_Consistent>
1

> <s_lp_Variant>
AV-unprocessed.smi:1860-1

> <Gold.Version>
5.8.1

> <Gold.Id.Protein>
6NUR|6NUR_protein|mol2

> <Gold.PLP.Fitness>
41.5928

> <Gold.PLP.PLP>
-36.4707

> <Gold.PLP.part.hbond>
-2.8800

> <Gold.PLP.part.metal>
0.0000

> <Gold.PLP.part.buried>
-6.8044

> <Gold.PLP.part.nonpolar>
-29.0079

> <Gold.PLP.part.repulsive>
2.4986

> <Gold.PLP.ligand.clash>
0.0000

> <Gold.PLP.ligand.torsion>
0.4404

> <Gold.PLP.Chemscore.Hbond>
2.0000

> <Gold.PLP.Chemscore.CHOScore>
0.0000

> <Gold.PLP.Chemscore.Metal>
0.0000

> <Gold.Chemscore.Hbonds>
donor molecule, donor type, donor heavy atom, donor atom, acceptor molecule, acceptor atom, score
      L1  H     3    23       P1  8029  1.00
      P1  H  7997  8009       L1    16  1.00

> <Gold.PLP.Chemscore.Internal.Correction>
0.0029

> <Gold.Rescore>
     Score         DG    S(hbond)    S(metal)    S(lipo)     H(rot)  DE(clash)    DE(int)     intcor
     15.28     -15.67       2.00        0.00      65.58       1.62       0.07       0.31       ----

> <Gold.Chemscore.Fitness>
15.2843

> <Gold.Chemscore.DG>
-15.6652

> <Gold.Chemscore.ZeroCoef>
-5.4800

> <Gold.Chemscore.Hbond>
1.9963

> <Gold.Chemscore.Metal>
0.0000

> <Gold.Chemscore.Lipo>
65.5811

> <Gold.Chemscore.Internal_Hbond>
0.0000

> <Gold.Chemscore.DEClash>
0.0682

> <Gold.Chemscore.DEInternal>
0.3127

> <Gold.Chemscore.Rot>
1.6231

> <Gold.Chemscore.Internal.Correction>
   9.000000E+99

> <Gold.Chemscore.Hbonds>
donor molecule, donor type, donor heavy atom, donor atom, acceptor molecule, acceptor atom, score
      L1  H     3    23       P1  8029  0.99
      P1  H  7997  8009       L1    16  1.00

> <Gold.Chemscore.Hbond.Weighted>
-6.6675

> <Gold.Chemscore.Metal.Weighted>
-0.0000

> <Gold.Chemscore.Lipo.Weighted>
-7.6730

> <Gold.Chemscore.Internal_Hbond.Weighted>
0.0000

> <Gold.Chemscore.DEClash.Weighted>
0.0682

> <Gold.Chemscore.DEInternal.Weighted>
0.3127

> <Gold.Chemscore.Rot.Weighted>
4.1553

> <Gold.Chemscore.Internal.Correction.Weighted>
   9.000000E+99

> <Gold.Protein.RotatedTorsions>
[ 6907 6896 6895 6894 ] final  -71.74 input  -60.11 | X-H torsion
[ 7974 7965 7964 7962 ] final  -98.24 input  175.53 | X-H torsion
[ 8008 7997 7996 7995 ] final -150.43 input   59.86 | X-H torsion
[ 10167 10162 10161 10158 ] final  107.76 input  -65.29 | X-H torsion
[ 10718 10713 10712 10709 ] final  104.55 input   66.30 | X-H torsion
[ 10763 10752 10751 10750 ] final -162.32 input  -60.55 | X-H torsion
[ 11005 11000 10999 10996 ] final  157.80 input  -57.11 | X-H torsion

> <Gold.Protein.ActiveResidues>
 VAL166  LYS551  ARG553  GLY616  TRP617  ASP618  TYR619  PRO620  LYS621  CYS622 
 ASP623  PHE694  ASN695  SER759  ASP760  ASP761  ALA762  ILE779  LEU786  VAL792 
 PHE793  MET794  SER795  GLU796  ALA797  LYS798  CYS799  TRP800  GLU811  SER814 

> <Gold.Protein.RotatedAtoms>
  150.7199  134.5264  159.5678 H   0  0  0  0  0  0  0  0  0  0  0  0  # atno 6907 bound_to 6896
  152.2807  134.7828  160.0406 H   0  0  0  0  0  0  0  0  0  0  0  0  # atno 6908 bound_to 6896
  151.8476  133.3399  159.3699 H   0  0  0  0  0  0  0  0  0  0  0  0  # atno 6909 bound_to 6896
  145.3233  140.9426  143.2703 H   0  0  0  0  0  0  0  0  0  0  0  0  # atno 7974 bound_to 7965
  155.6235  140.0684  157.2671 H   0  0  0  0  0  0  0  0  0  0  0  0  # atno 8008 bound_to 7997
  154.4223  140.1780  156.1445 H   0  0  0  0  0  0  0  0  0  0  0  0  # atno 8009 bound_to 7997
  155.9990  140.3338  155.6830 H   0  0  0  0  0  0  0  0  0  0  0  0  # atno 8010 bound_to 7997
  139.6901  144.7109  151.1363 H   0  0  0  0  0  0  0  0  0  0  0  0  # atno 10167 bound_to 10162
  157.6736  131.0806  150.5723 H   0  0  0  0  0  0  0  0  0  0  0  0  # atno 10718 bound_to 10713
  154.7225  135.3028  154.9025 H   0  0  0  0  0  0  0  0  0  0  0  0  # atno 10763 bound_to 10752
  153.9892  135.6721  153.4757 H   0  0  0  0  0  0  0  0  0  0  0  0  # atno 10764 bound_to 10752
  153.0846  135.4991  154.8489 H   0  0  0  0  0  0  0  0  0  0  0  0  # atno 10765 bound_to 10752
  140.1804  134.8480  157.2796 H   0  0  0  0  0  0  0  0  0  0  0  0  # atno 11005 bound_to 11000
  144.8922  139.4759  143.6672 LP  0  0  0  0  0  0  0  0  0  0  0  0  # atno 17320 bound_to 7965
  146.3074  139.7627  142.9046 LP  0  0  0  0  0  0  0  0  0  0  0  0  # atno 17321 bound_to 7965
  140.7680  143.5572  150.9139 LP  0  0  0  0  0  0  0  0  0  0  0  0  # atno 17342 bound_to 10162
  139.9249  143.6562  152.3089 LP  0  0  0  0  0  0  0  0  0  0  0  0  # atno 17343 bound_to 10162
  156.6024  130.4358  149.5892 LP  0  0  0  0  0  0  0  0  0  0  0  0  # atno 17370 bound_to 10713
  156.2496  130.6899  151.1632 LP  0  0  0  0  0  0  0  0  0  0  0  0  # atno 17371 bound_to 10713
  140.2274  134.3950  155.7537 LP  0  0  0  0  0  0  0  0  0  0  0  0  # atno 17394 bound_to 11000
  141.2222  133.7197  156.8587 LP  0  0  0  0  0  0  0  0  0  0  0  0  # atno 17395 bound_to 11000

$$$$
