AV-unprocessed.smi:1012|AV-procd|sdf|4424|dock4
  -GOLD-   22720 2373D 1   1.00000     0.00000
 Structure written by MMmdl.
 44 46  0  0  0  0  0  0  0  0  2 V2000
  153.7669  136.7990  161.2014 C   0  0  0  0  0  0  0  0  0  0  0  0
  152.9580  136.8753  160.0365 O   0  0  0  0  0  0  0  0  0  0  0  0
  152.5801  138.1208  159.5763 C   0  0  0  0  0  0  0  0  0  0  0  0
  153.3576  139.2911  159.7760 C   0  0  0  0  0  0  0  0  0  0  0  0
  152.9232  140.5361  159.2836 C   0  0  0  0  0  0  0  0  0  0  0  0
  151.7079  140.6328  158.5845 C   0  0  0  0  0  0  0  0  0  0  0  0
  150.9278  139.4812  158.3795 C   0  0  0  0  0  0  0  0  0  0  0  0
  151.3541  138.2297  158.8722 C   0  0  0  0  0  0  0  0  0  0  0  0
  150.4761  137.0164  158.6115 C   0  0  0  0  0  0  0  0  0  0  0  0
  150.9310  136.2818  157.4870 O   0  0  0  0  0  0  0  0  0  0  0  0
  149.9070  136.0435  156.5357 C   0  0  0  0  0  0  0  0  0  0  0  0
  150.5210  135.3721  155.2995 C   0  0  2  0  0  0  0  0  0  0  0  0
  151.2751  136.3332  154.5878 O   0  0  0  0  0  0  0  0  0  0  0  0
  149.4547  134.7583  154.3705 C   0  0  0  0  0  0  0  0  0  0  0  0
  149.4045  133.2932  154.4572 N   0  0  0  0  0  0  0  0  0  0  0  0
  150.1649  132.4305  155.1844 C   0  0  0  0  0  0  0  0  0  0  0  0
  149.7177  131.1703  154.9251 N   0  3  0  0  0  0  0  0  0  0  0  0
  148.6567  131.2294  154.0183 C   0  0  0  0  0  0  0  0  0  0  0  0
  147.8787  130.2224  153.4565 C   0  0  0  0  0  0  0  0  0  0  0  0
  146.8666  130.6264  152.5607 C   0  0  0  0  0  0  0  0  0  0  0  0
  146.0798  129.6863  151.9858 F   0  0  0  0  0  0  0  0  0  0  0  0
  146.6589  131.9881  152.2532 C   0  0  0  0  0  0  0  0  0  0  0  0
  145.6758  132.3325  151.3881 F   0  0  0  0  0  0  0  0  0  0  0  0
  147.4547  133.0005  152.8289 C   0  0  0  0  0  0  0  0  0  0  0  0
  148.4515  132.5909  153.7130 C   0  0  0  0  0  0  0  0  0  0  0  0
  153.9694  135.7526  161.4289 H   0  0  0  0  0  0  0  0  0  0  0  0
  153.2632  137.2319  162.0668 H   0  0  0  0  0  0  0  0  0  0  0  0
  154.7268  137.2955  161.0540 H   0  0  0  0  0  0  0  0  0  0  0  0
  154.2973  139.2623  160.3060 H   0  0  0  0  0  0  0  0  0  0  0  0
  153.5254  141.4184  159.4423 H   0  0  0  0  0  0  0  0  0  0  0  0
  151.3753  141.5877  158.2048 H   0  0  0  0  0  0  0  0  0  0  0  0
  149.9953  139.5596  157.8397 H   0  0  0  0  0  0  0  0  0  0  0  0
  150.5048  136.3826  159.4993 H   0  0  0  0  0  0  0  0  0  0  0  0
  149.4347  137.3018  158.4631 H   0  0  0  0  0  0  0  0  0  0  0  0
  149.1237  135.4157  156.9639 H   0  0  0  0  0  0  0  0  0  0  0  0
  149.4498  136.9940  156.2550 H   0  0  0  0  0  0  0  0  0  0  0  0
  151.2131  134.5966  155.6295 H   0  0  0  0  0  0  0  0  0  0  0  0
  151.3584  137.1063  155.1247 H   0  0  0  0  0  0  0  0  0  0  0  0
  148.4622  135.1493  154.5984 H   0  0  0  0  0  0  0  0  0  0  0  0
  149.6585  135.0202  153.3312 H   0  0  0  0  0  0  0  0  0  0  0  0
  150.9729  132.6976  155.8505 H   0  0  0  0  0  0  0  0  0  0  0  0
  148.0335  129.1794  153.6898 H   0  0  0  0  0  0  0  0  0  0  0  0
  147.2870  134.0403  152.5898 H   0  0  0  0  0  0  0  0  0  0  0  0
  150.1081  130.3342  155.3410 H   0  0  0  0  0  0  0  0  0  0  0  0
  1  2  1  0  0  0  0
  1 26  1  0  0  0  0
  1 27  1  0  0  0  0
  1 28  1  0  0  0  0
  2  3  1  0  0  0  0
  3  8  1  0  0  0  0
  3  4  2  0  0  0  0
  4  5  1  0  0  0  0
  4 29  1  0  0  0  0
  5  6  2  0  0  0  0
  5 30  1  0  0  0  0
  6  7  1  0  0  0  0
  6 31  1  0  0  0  0
  7  8  2  0  0  0  0
  7 32  1  0  0  0  0
  8  9  1  0  0  0  0
  9 10  1  0  0  0  0
  9 33  1  0  0  0  0
  9 34  1  0  0  0  0
 10 11  1  0  0  0  0
 11 12  1  0  0  0  0
 11 35  1  0  0  0  0
 11 36  1  0  0  0  0
 12 13  1  0  0  0  0
 12 14  1  0  0  0  0
 12 37  1  0  0  0  0
 13 38  1  0  0  0  0
 14 15  1  0  0  0  0
 14 39  1  0  0  0  0
 14 40  1  0  0  0  0
 15 25  1  0  0  0  0
 15 16  1  0  0  0  0
 16 17  2  0  0  0  0
 16 41  1  0  0  0  0
 17 18  1  0  0  0  0
 17 44  1  0  0  0  0
 18 25  2  0  0  0  0
 18 19  1  0  0  0  0
 19 20  2  0  0  0  0
 19 42  1  0  0  0  0
 20 21  1  0  0  0  0
 20 22  1  0  0  0  0
 22 23  1  0  0  0  0
 22 24  2  0  0  0  0
 24 25  1  0  0  0  0
 24 43  1  0  0  0  0
M  CHG  1  17   1
M  END
> <s_m_source_file>
AV-unprocessed.smi

> <i_m_source_file_index>
1012

> <i_lp_mmshare_version>
43012

> <i_f3d_flags>
0

> <s_epik_input>
W0NIM11PYzFbY0hdW2NIXVtjSF1bY0hdYzFbQ0gyXU9bQ0gyXVtDQEhdKFtPSF0pW0NIMl1uKFtjSF1uMiljKGMyMylbY0hdYyhGKWMoRilbY0hdMw==

> <s_epik_cmdline>
J2VwaWtfcHl0aG9uJywgJy1waCcsICc3LjAnLCAnLXRuJywgJzgnLCAnLW1hJywgJzIwMCcsICctbWV0YWxfYmluZGluZycsICctaW1hZScsICc8aW5maWxlLm1hZT4nLCAnLW9tYWUnLCAnPG91dGZpbGUubWFlPic=

> <r_lp_tautomer_probability>
1

> <r_epik_Ionization_Penalty>
2.14697

> <r_epik_Ionization_Penalty_Charging>
2.14697

> <r_epik_Ionization_Penalty_Neutral>
1.07667e-06

> <r_epik_State_Penalty>
2.28651

> <r_epik_Charging_Adjusted_Penalty>
4.43348

> <i_epik_Tot_Q>
1

> <i_epik_Tot_abs_Q>
1

> <r_epik_Metal_State_Penalty>
6.36664

> <b_epik_Metal_Only>
0

> <s_lp_Force_Field>
OPLS_2005

> <r_lp_Energy>
22.239

> <b_lp_Chiralities_Consistent>
1

> <s_lp_Variant>
AV-unprocessed.smi:1012-3

> <Gold.Version>
5.8.1

> <Gold.Id.Protein>
6NUR|6NUR_protein|mol2

> <Gold.PLP.Fitness>
44.7361

> <Gold.PLP.PLP>
-42.2876

> <Gold.PLP.part.hbond>
-2.7469

> <Gold.PLP.part.metal>
0.0000

> <Gold.PLP.part.buried>
-3.5124

> <Gold.PLP.part.nonpolar>
-36.1673

> <Gold.PLP.part.repulsive>
0.0000

> <Gold.PLP.ligand.clash>
0.0000

> <Gold.PLP.ligand.torsion>
1.8080

> <Gold.PLP.Chemscore.Hbond>
1.9913

> <Gold.PLP.Chemscore.CHOScore>
0.0000

> <Gold.PLP.Chemscore.Metal>
0.0000

> <Gold.Chemscore.Hbonds>
donor molecule, donor type, donor heavy atom, donor atom, acceptor molecule, acceptor atom, score
      P1  H  6896  6907       L1     2  0.98
      P1  H 10752 10764       L1    13  1.00

> <Gold.PLP.Chemscore.Internal.Correction>
0.0908

> <Gold.Rescore>
     Score         DG    S(hbond)    S(metal)    S(lipo)     H(rot)  DE(clash)    DE(int)     intcor
     12.92     -14.89       1.86        0.00      93.74       3.03       0.28       1.70       ----

> <Gold.Chemscore.Fitness>
12.9189

> <Gold.Chemscore.DG>
-14.8939

> <Gold.Chemscore.ZeroCoef>
-5.4800

> <Gold.Chemscore.Hbond>
1.8556

> <Gold.Chemscore.Metal>
0.0000

> <Gold.Chemscore.Lipo>
93.7371

> <Gold.Chemscore.Internal_Hbond>
0.0000

> <Gold.Chemscore.DEClash>
0.2752

> <Gold.Chemscore.DEInternal>
1.6998

> <Gold.Chemscore.Rot>
3.0278

> <Gold.Chemscore.Internal.Correction>
   9.000000E+99

> <Gold.Chemscore.Hbonds>
donor molecule, donor type, donor heavy atom, donor atom, acceptor molecule, acceptor atom, score
      P1  H  6896  6907       L1     2  0.32
      P1  H 10752 10764       L1    13  0.36

> <Gold.Chemscore.Hbond.Weighted>
-6.1978

> <Gold.Chemscore.Metal.Weighted>
-0.0000

> <Gold.Chemscore.Lipo.Weighted>
-10.9672

> <Gold.Chemscore.Internal_Hbond.Weighted>
0.0000

> <Gold.Chemscore.DEClash.Weighted>
0.2752

> <Gold.Chemscore.DEInternal.Weighted>
1.6998

> <Gold.Chemscore.Rot.Weighted>
7.7512

> <Gold.Chemscore.Internal.Correction.Weighted>
   9.000000E+99

> <Gold.Protein.RotatedTorsions>
[ 6907 6896 6895 6894 ] final   25.50 input  -60.11 | X-H torsion
[ 7974 7965 7964 7962 ] final  -16.52 input  175.53 | X-H torsion
[ 8008 7997 7996 7995 ] final -157.53 input   59.86 | X-H torsion
[ 10167 10162 10161 10158 ] final  -35.42 input  -65.29 | X-H torsion
[ 10718 10713 10712 10709 ] final   25.96 input   66.30 | X-H torsion
[ 10763 10752 10751 10750 ] final  -70.72 input  -60.55 | X-H torsion
[ 11005 11000 10999 10996 ] final  179.12 input  -57.11 | X-H torsion

> <Gold.Protein.ActiveResidues>
 VAL166  LYS551  ARG553  GLY616  TRP617  ASP618  TYR619  PRO620  LYS621  CYS622 
 ASP623  PHE694  ASN695  SER759  ASP760  ASP761  ALA762  ILE779  LEU786  VAL792 
 PHE793  MET794  SER795  GLU796  ALA797  LYS798  CYS799  TRP800  GLU811  SER814 

> <Gold.Protein.RotatedAtoms>
  151.9735  135.0065  160.0553 H   0  0  0  0  0  0  0  0  0  0  0  0  # atno 6907 bound_to 6896
  152.1762  133.4671  159.4942 H   0  0  0  0  0  0  0  0  0  0  0  0  # atno 6908 bound_to 6896
  150.6909  134.1809  159.4291 H   0  0  0  0  0  0  0  0  0  0  0  0  # atno 6909 bound_to 6896
  146.1983  140.3649  142.8432 H   0  0  0  0  0  0  0  0  0  0  0  0  # atno 7974 bound_to 7965
  155.7338  140.0805  157.2277 H   0  0  0  0  0  0  0  0  0  0  0  0  # atno 8008 bound_to 7997
  154.4030  140.1590  156.2594 H   0  0  0  0  0  0  0  0  0  0  0  0  # atno 8009 bound_to 7997
  155.9084  140.3405  155.6082 H   0  0  0  0  0  0  0  0  0  0  0  0  # atno 8010 bound_to 7997
  140.7165  143.3479  151.2218 H   0  0  0  0  0  0  0  0  0  0  0  0  # atno 10167 bound_to 10162
  157.2003  130.6887  149.6186 H   0  0  0  0  0  0  0  0  0  0  0  0  # atno 10718 bound_to 10713
  154.4217  135.5985  153.6014 H   0  0  0  0  0  0  0  0  0  0  0  0  # atno 10763 bound_to 10752
  152.9794  135.5954  154.3947 H   0  0  0  0  0  0  0  0  0  0  0  0  # atno 10764 bound_to 10752
  154.3773  135.2841  155.2210 H   0  0  0  0  0  0  0  0  0  0  0  0  # atno 10765 bound_to 10752
  140.4026  134.6763  157.4570 H   0  0  0  0  0  0  0  0  0  0  0  0  # atno 11005 bound_to 11000
  144.8628  140.7164  143.6096 LP  0  0  0  0  0  0  0  0  0  0  0  0  # atno 17320 bound_to 7965
  145.3569  139.1692  143.4404 LP  0  0  0  0  0  0  0  0  0  0  0  0  # atno 17321 bound_to 7965
  139.7003  143.9545  152.2902 LP  0  0  0  0  0  0  0  0  0  0  0  0  # atno 17342 bound_to 10162
  139.9235  144.6785  150.8436 LP  0  0  0  0  0  0  0  0  0  0  0  0  # atno 17343 bound_to 10162
  155.9701  130.4585  150.6001 LP  0  0  0  0  0  0  0  0  0  0  0  0  # atno 17370 bound_to 10713
  157.3773  131.0775  151.1507 LP  0  0  0  0  0  0  0  0  0  0  0  0  # atno 17371 bound_to 10713
  140.0325  134.6385  155.9087 LP  0  0  0  0  0  0  0  0  0  0  0  0  # atno 17394 bound_to 11000
  141.1851  133.6554  156.5183 LP  0  0  0  0  0  0  0  0  0  0  0  0  # atno 17395 bound_to 11000

$$$$
