AV-unprocessed.smi:484|AV-procd|sdf|2690|dock2
  -GOLD-   2262023123D 1   1.00000     0.00000
 Structure written by MMmdl.
 47 49  0  0  0  0  0  0  0  0  2 V2000
  150.1231  130.3234  154.5929 C   0  0  0  0  0  0  0  0  0  0  0  0
  149.1361  131.3916  155.0764 C   0  0  0  0  0  0  0  0  0  0  0  0
  149.8072  132.7330  155.3023 C   0  0  0  0  0  0  0  0  0  0  0  0
  150.7785  132.8807  156.3124 C   0  0  0  0  0  0  0  0  0  0  0  0
  151.4017  134.1265  156.5166 C   0  0  0  0  0  0  0  0  0  0  0  0
  151.0673  135.2407  155.7202 C   0  0  0  0  0  0  0  0  0  0  0  0
  151.7200  136.4229  155.9953 O   0  0  0  0  0  0  0  0  0  0  0  0
  151.6170  137.4839  155.0555 C   0  0  0  0  0  0  0  0  0  0  0  0
  152.1256  138.7781  155.7115 C   0  0  1  0  0  0  0  0  0  0  0  0
  152.2775  139.7514  154.6988 O   0  0  0  0  0  0  0  0  0  0  0  0
  151.2256  139.3231  156.8468 C   0  0  0  0  0  0  0  0  0  0  0  0
  151.0080  140.7833  156.8133 N   0  0  0  0  0  0  0  0  0  0  0  0
  150.2450  141.5528  155.9787 C   0  0  0  0  0  0  0  0  0  0  0  0
  149.4031  141.0973  154.8289 C   0  0  0  0  0  0  0  0  0  0  0  0
  148.8037  142.1680  154.1318 O   0  0  0  0  0  0  0  0  0  0  0  0
  150.3923  142.8476  156.3786 N   0  3  0  0  0  0  0  0  0  0  0  0
  151.2369  142.9112  157.4852 C   0  0  0  0  0  0  0  0  0  0  0  0
  151.6712  143.9994  158.2360 C   0  0  0  0  0  0  0  0  0  0  0  0
  152.5320  143.7192  159.3170 C   0  0  0  0  0  0  0  0  0  0  0  0
  152.9270  142.3995  159.6165 C   0  0  0  0  0  0  0  0  0  0  0  0
  152.4793  141.3050  158.8474 C   0  0  0  0  0  0  0  0  0  0  0  0
  151.6314  141.5893  157.7762 C   0  0  0  0  0  0  0  0  0  0  0  0
  150.0914  135.0856  154.7037 C   0  0  0  0  0  0  0  0  0  0  0  0
  149.4675  133.8397  154.4987 C   0  0  0  0  0  0  0  0  0  0  0  0
  149.6182  129.3694  154.4391 H   0  0  0  0  0  0  0  0  0  0  0  0
  150.9202  130.1651  155.3200 H   0  0  0  0  0  0  0  0  0  0  0  0
  150.5839  130.6119  153.6475 H   0  0  0  0  0  0  0  0  0  0  0  0
  148.3339  131.5114  154.3472 H   0  0  0  0  0  0  0  0  0  0  0  0
  148.6617  131.0648  156.0026 H   0  0  0  0  0  0  0  0  0  0  0  0
  151.0500  132.0391  156.9330 H   0  0  0  0  0  0  0  0  0  0  0  0
  152.1439  134.2284  157.2949 H   0  0  0  0  0  0  0  0  0  0  0  0
  152.2327  137.2503  154.1850 H   0  0  0  0  0  0  0  0  0  0  0  0
  150.5894  137.6076  154.7107 H   0  0  0  0  0  0  0  0  0  0  0  0
  153.1197  138.5905  156.1188 H   0  0  0  0  0  0  0  0  0  0  0  0
  152.9018  140.3965  154.9939 H   0  0  0  0  0  0  0  0  0  0  0  0
  150.2474  138.8457  156.7976 H   0  0  0  0  0  0  0  0  0  0  0  0
  151.6280  139.0498  157.8226 H   0  0  0  0  0  0  0  0  0  0  0  0
  150.0267  140.5338  154.1350 H   0  0  0  0  0  0  0  0  0  0  0  0
  148.6162  140.4292  155.1768 H   0  0  0  0  0  0  0  0  0  0  0  0
  149.0533  142.9769  154.5529 H   0  0  0  0  0  0  0  0  0  0  0  0
  151.3670  145.0108  158.0095 H   0  0  0  0  0  0  0  0  0  0  0  0
  152.8953  144.5320  159.9295 H   0  0  0  0  0  0  0  0  0  0  0  0
  153.5869  142.2226  160.4534 H   0  0  0  0  0  0  0  0  0  0  0  0
  152.7906  140.2996  159.0879 H   0  0  0  0  0  0  0  0  0  0  0  0
  149.8036  135.9072  154.0657 H   0  0  0  0  0  0  0  0  0  0  0  0
  148.7269  133.7352  153.7191 H   0  0  0  0  0  0  0  0  0  0  0  0
  149.9339  143.6285  155.9267 H   0  0  0  0  0  0  0  0  0  0  0  0
  1  2  1  0  0  0  0
  1 25  1  0  0  0  0
  1 26  1  0  0  0  0
  1 27  1  0  0  0  0
  2  3  1  0  0  0  0
  2 28  1  0  0  0  0
  2 29  1  0  0  0  0
  3 24  1  0  0  0  0
  3  4  2  0  0  0  0
  4  5  1  0  0  0  0
  4 30  1  0  0  0  0
  5  6  2  0  0  0  0
  5 31  1  0  0  0  0
  6  7  1  0  0  0  0
  6 23  1  0  0  0  0
  7  8  1  0  0  0  0
  8  9  1  0  0  0  0
  8 32  1  0  0  0  0
  8 33  1  0  0  0  0
  9 10  1  0  0  0  0
  9 11  1  0  0  0  0
  9 34  1  0  0  0  0
 10 35  1  0  0  0  0
 11 12  1  0  0  0  0
 11 36  1  0  0  0  0
 11 37  1  0  0  0  0
 12 22  1  0  0  0  0
 12 13  1  0  0  0  0
 13 14  1  0  0  0  0
 13 16  2  0  0  0  0
 14 15  1  0  0  0  0
 14 38  1  0  0  0  0
 14 39  1  0  0  0  0
 15 40  1  0  0  0  0
 16 17  1  0  0  0  0
 16 47  1  0  0  0  0
 17 22  2  0  0  0  0
 17 18  1  0  0  0  0
 18 19  2  0  0  0  0
 18 41  1  0  0  0  0
 19 20  1  0  0  0  0
 19 42  1  0  0  0  0
 20 21  2  0  0  0  0
 20 43  1  0  0  0  0
 21 22  1  0  0  0  0
 21 44  1  0  0  0  0
 23 24  2  0  0  0  0
 23 45  1  0  0  0  0
 24 46  1  0  0  0  0
M  CHG  1  16   1
M  END
> <s_m_source_file>
AV-unprocessed.smi

> <i_m_source_file_index>
484

> <i_lp_mmshare_version>
43012

> <i_f3d_flags>
0

> <s_epik_input>
W0NIM11bQ0gyXWMxW2NIXVtjSF1jKFtjSF1bY0hdMSlPW0NIMl1bQ0BIXShbT0hdKVtDSDJdbihjKG4yKVtDSDJdW09IXSljKGMyMylbY0hdW2NIXVtjSF1bY0hdMw==

> <s_epik_cmdline>
J2VwaWtfcHl0aG9uJywgJy1waCcsICc3LjAnLCAnLXRuJywgJzgnLCAnLW1hJywgJzIwMCcsICctbWV0YWxfYmluZGluZycsICctaW1hZScsICc8aW5maWxlLm1hZT4nLCAnLW9tYWUnLCAnPG91dGZpbGUubWFlPic=

> <r_lp_tautomer_probability>
1

> <r_epik_Ionization_Penalty>
1.43166

> <r_epik_Ionization_Penalty_Charging>
1.43081

> <r_epik_Ionization_Penalty_Neutral>
0.000858184

> <r_epik_State_Penalty>
1.51538

> <r_epik_Charging_Adjusted_Penalty>
2.94618

> <i_epik_Tot_Q>
1

> <i_epik_Tot_abs_Q>
1

> <r_epik_Metal_State_Penalty>
5.56039

> <b_epik_Metal_Only>
0

> <s_lp_Force_Field>
OPLS_2005

> <r_lp_Energy>
17.0937

> <b_lp_Chiralities_Consistent>
1

> <s_lp_Variant>
AV-unprocessed.smi:484-4

> <Gold.Version>
5.8.1

> <Gold.Id.Protein>
6NUR|6NUR_protein|mol2

> <Gold.PLP.Fitness>
62.7450

> <Gold.PLP.PLP>
-52.8268

> <Gold.PLP.part.hbond>
-5.0000

> <Gold.PLP.part.metal>
0.0000

> <Gold.PLP.part.buried>
-3.5260

> <Gold.PLP.part.nonpolar>
-44.1472

> <Gold.PLP.part.repulsive>
0.1122

> <Gold.PLP.ligand.clash>
0.0000

> <Gold.PLP.ligand.torsion>
1.0490

> <Gold.PLP.Chemscore.Hbond>
3.9104

> <Gold.PLP.Chemscore.CHOScore>
0.0000

> <Gold.PLP.Chemscore.Metal>
0.0000

> <Gold.Chemscore.Hbonds>
donor molecule, donor type, donor heavy atom, donor atom, acceptor molecule, acceptor atom, score
      L1  H    15    40       P1  8028  0.96
      L1  H    16    47       P1  8028  2.00
      P1  H  7989  7998       L1    10  0.36
      P1  H  8011  8017       L1    15  0.27
      P1  H 10752 10764       L1     7  0.10

> <Gold.PLP.Chemscore.Internal.Correction>
0.2851

> <Gold.Rescore>
     Score         DG    S(hbond)    S(metal)    S(lipo)     H(rot)  DE(clash)    DE(int)     intcor
     18.99     -20.08       2.18        0.00     132.19       3.18       0.03       1.07       ----

> <Gold.Chemscore.Fitness>
18.9860

> <Gold.Chemscore.DG>
-20.0827

> <Gold.Chemscore.ZeroCoef>
-5.4800

> <Gold.Chemscore.Hbond>
2.1789

> <Gold.Chemscore.Metal>
0.0000

> <Gold.Chemscore.Lipo>
132.1888

> <Gold.Chemscore.Internal_Hbond>
0.0000

> <Gold.Chemscore.DEClash>
0.0253

> <Gold.Chemscore.DEInternal>
1.0714

> <Gold.Chemscore.Rot>
3.1801

> <Gold.Chemscore.Internal.Correction>
   9.000000E+99

> <Gold.Chemscore.Hbonds>
donor molecule, donor type, donor heavy atom, donor atom, acceptor molecule, acceptor atom, score
      L1  H    15    40       P1  8028  0.89
      L1  H    16    47       P1  8028  0.93
      P1  H  7989  7998       L1    10  0.02
      P1  H  8011  8017       L1    15  0.04

> <Gold.Chemscore.Hbond.Weighted>
-7.2776

> <Gold.Chemscore.Metal.Weighted>
-0.0000

> <Gold.Chemscore.Lipo.Weighted>
-15.4661

> <Gold.Chemscore.Internal_Hbond.Weighted>
0.0000

> <Gold.Chemscore.DEClash.Weighted>
0.0253

> <Gold.Chemscore.DEInternal.Weighted>
1.0714

> <Gold.Chemscore.Rot.Weighted>
8.1410

> <Gold.Chemscore.Internal.Correction.Weighted>
   9.000000E+99

> <Gold.Protein.RotatedTorsions>
[ 6907 6896 6895 6894 ] final -139.51 input  -60.11 | X-H torsion
[ 7974 7965 7964 7962 ] final  -43.27 input  175.53 | X-H torsion
[ 8008 7997 7996 7995 ] final  150.30 input   59.86 | X-H torsion
[ 10167 10162 10161 10158 ] final    3.97 input  -65.29 | X-H torsion
[ 10718 10713 10712 10709 ] final  -33.05 input   66.30 | X-H torsion
[ 10763 10752 10751 10750 ] final  -17.60 input  -60.55 | X-H torsion
[ 11005 11000 10999 10996 ] final   -9.18 input  -57.11 | X-H torsion

> <Gold.Protein.ActiveResidues>
 VAL166  LYS551  ARG553  GLY616  TRP617  ASP618  TYR619  PRO620  LYS621  CYS622 
 ASP623  PHE694  ASN695  SER759  ASP760  ASP761  ALA762  ILE779  LEU786  VAL792 
 PHE793  MET794  SER795  GLU796  ALA797  LYS798  CYS799  TRP800  GLU811  SER814 

> <Gold.Protein.RotatedAtoms>
  151.0487  133.5643  159.2644 H   0  0  0  0  0  0  0  0  0  0  0  0  # atno 6907 bound_to 6896
  151.2662  135.0669  159.9127 H   0  0  0  0  0  0  0  0  0  0  0  0  # atno 6908 bound_to 6896
  152.5378  134.0224  159.8042 H   0  0  0  0  0  0  0  0  0  0  0  0  # atno 6909 bound_to 6896
  146.0035  140.7047  142.9259 H   0  0  0  0  0  0  0  0  0  0  0  0  # atno 7974 bound_to 7965
  156.2721  140.2078  156.5995 H   0  0  0  0  0  0  0  0  0  0  0  0  # atno 8008 bound_to 7997
  154.6918  140.0529  157.0395 H   0  0  0  0  0  0  0  0  0  0  0  0  # atno 8009 bound_to 7997
  155.0856  140.3191  155.4591 H   0  0  0  0  0  0  0  0  0  0  0  0  # atno 8010 bound_to 7997
  140.6559  143.7429  150.7653 H   0  0  0  0  0  0  0  0  0  0  0  0  # atno 10167 bound_to 10162
  156.3674  130.4334  149.7573 H   0  0  0  0  0  0  0  0  0  0  0  0  # atno 10718 bound_to 10713
  153.5764  135.7006  153.5482 H   0  0  0  0  0  0  0  0  0  0  0  0  # atno 10763 bound_to 10752
  153.3299  135.4050  155.1486 H   0  0  0  0  0  0  0  0  0  0  0  0  # atno 10764 bound_to 10752
  154.8625  135.3716  154.5289 H   0  0  0  0  0  0  0  0  0  0  0  0  # atno 10765 bound_to 10752
  140.7314  133.8746  155.8896 H   0  0  0  0  0  0  0  0  0  0  0  0  # atno 11005 bound_to 11000
  144.6927  140.3275  143.7222 LP  0  0  0  0  0  0  0  0  0  0  0  0  # atno 17320 bound_to 7965
  145.7451  139.1776  143.2354 LP  0  0  0  0  0  0  0  0  0  0  0  0  # atno 17321 bound_to 7965
  140.1088  143.4718  152.2382 LP  0  0  0  0  0  0  0  0  0  0  0  0  # atno 17342 bound_to 10162
  139.5781  144.7497  151.3710 LP  0  0  0  0  0  0  0  0  0  0  0  0  # atno 17343 bound_to 10162
  156.4714  130.7998  151.3016 LP  0  0  0  0  0  0  0  0  0  0  0  0  # atno 17370 bound_to 10713
  157.7480  131.0034  150.3039 LP  0  0  0  0  0  0  0  0  0  0  0  0  # atno 17371 bound_to 10713
  140.9918  134.1269  157.4401 LP  0  0  0  0  0  0  0  0  0  0  0  0  # atno 17394 bound_to 11000
  139.8825  135.0042  156.6237 LP  0  0  0  0  0  0  0  0  0  0  0  0  # atno 17395 bound_to 11000

$$$$
