AV-unprocessed.smi:1395|AV-procd|sdf|5671|dock3
  -GOLD-   22720 5293D 1   1.00000     0.00000
 Structure written by MMmdl.
 43 44  0  0  0  0  0  0  0  0  2 V2000
  153.7203  141.5293  159.5072 C   0  0  0  0  0  0  0  0  0  0  0  0
  152.6089  142.5508  159.3278 C   0  0  0  0  0  0  0  0  0  0  0  0
  152.5455  143.6612  160.1964 C   0  0  0  0  0  0  0  0  0  0  0  0
  151.5171  144.6045  160.0301 C   0  0  0  0  0  0  0  0  0  0  0  0
  150.5896  144.3960  158.9951 C   0  0  0  0  0  0  0  0  0  0  0  0
  150.6427  143.3380  158.1605 N   0  0  0  0  0  0  0  0  0  0  0  0
  151.6295  142.4185  158.3071 C   0  0  0  0  0  0  0  0  0  0  0  0
  151.7458  141.2766  157.4648 N   0  0  0  0  0  0  0  0  0  0  0  0
  151.2865  141.1116  156.2115 C   0  0  0  0  0  0  0  0  0  0  0  0
  150.6829  141.9595  155.5539 O   0  0  0  0  0  0  0  0  0  0  0  0
  151.5682  139.8841  155.7492 N   0  0  0  0  0  0  0  0  0  0  0  0
  151.2196  139.3819  154.4202 C   0  0  2  0  0  0  0  0  0  0  0  0
  149.6932  139.3228  154.2087 C   0  0  0  0  0  0  0  0  0  0  0  0
  149.0371  138.2112  155.0464 C   0  0  0  0  0  0  0  0  0  0  0  0
  149.6542  136.8910  154.7603 N   0  3  2  0  0  0  0  0  0  0  0  0
  148.9497  135.7768  155.4478 C   0  0  0  0  0  0  0  0  0  0  0  0
  149.4105  134.3704  155.0356 C   0  0  0  0  0  0  0  0  0  0  0  0
  149.3592  134.0195  153.7456 N   0  0  0  0  0  0  0  0  0  0  0  0
  149.8202  133.5951  155.8951 O   0  0  0  0  0  0  0  0  0  0  0  0
  151.1174  136.9050  155.0289 C   0  0  0  0  0  0  0  0  0  0  0  0
  151.8276  137.9866  154.1944 C   0  0  0  0  0  0  0  0  0  0  0  0
  154.3786  141.8001  160.3334 H   0  0  0  0  0  0  0  0  0  0  0  0
  154.3272  141.4620  158.6039 H   0  0  0  0  0  0  0  0  0  0  0  0
  153.3028  140.5448  159.7204 H   0  0  0  0  0  0  0  0  0  0  0  0
  153.2747  143.7916  160.9824 H   0  0  0  0  0  0  0  0  0  0  0  0
  151.4413  145.4648  160.6784 H   0  0  0  0  0  0  0  0  0  0  0  0
  149.7835  145.0960  158.8324 H   0  0  0  0  0  0  0  0  0  0  0  0
  152.2339  140.4921  157.8703 H   0  0  0  0  0  0  0  0  0  0  0  0
  152.0745  139.2564  156.3563 H   0  0  0  0  0  0  0  0  0  0  0  0
  151.6512  140.0617  153.6833 H   0  0  0  0  0  0  0  0  0  0  0  0
  149.2332  140.2846  154.4381 H   0  0  0  0  0  0  0  0  0  0  0  0
  149.4870  139.1387  153.1535 H   0  0  0  0  0  0  0  0  0  0  0  0
  149.1233  138.4341  156.1110 H   0  0  0  0  0  0  0  0  0  0  0  0
  147.9716  138.1771  154.8160 H   0  0  0  0  0  0  0  0  0  0  0  0
  149.0342  135.8927  156.5297 H   0  0  0  0  0  0  0  0  0  0  0  0
  147.8844  135.8244  155.2179 H   0  0  0  0  0  0  0  0  0  0  0  0
  149.6640  133.1063  153.4436 H   0  0  0  0  0  0  0  0  0  0  0  0
  149.0183  134.6859  153.0664 H   0  0  0  0  0  0  0  0  0  0  0  0
  151.2911  137.0747  156.0928 H   0  0  0  0  0  0  0  0  0  0  0  0
  151.5516  135.9328  154.7951 H   0  0  0  0  0  0  0  0  0  0  0  0
  151.7473  137.7284  153.1375 H   0  0  0  0  0  0  0  0  0  0  0  0
  152.8943  137.9966  154.4223 H   0  0  0  0  0  0  0  0  0  0  0  0
  149.5331  136.7360  153.7699 H   0  0  0  0  0  0  0  0  0  0  0  0
  1  2  1  0  0  0  0
  1 22  1  0  0  0  0
  1 23  1  0  0  0  0
  1 24  1  0  0  0  0
  2  7  1  0  0  0  0
  2  3  2  0  0  0  0
  3  4  1  0  0  0  0
  3 25  1  0  0  0  0
  4  5  2  0  0  0  0
  4 26  1  0  0  0  0
  5  6  1  0  0  0  0
  5 27  1  0  0  0  0
  6  7  2  0  0  0  0
  7  8  1  0  0  0  0
  8  9  1  0  0  0  0
  8 28  1  0  0  0  0
  9 10  2  0  0  0  0
  9 11  1  0  0  0  0
 11 12  1  0  0  0  0
 11 29  1  0  0  0  0
 12 21  1  0  0  0  0
 12 13  1  0  0  0  0
 12 30  1  0  0  0  0
 13 14  1  0  0  0  0
 13 31  1  0  0  0  0
 13 32  1  0  0  0  0
 14 15  1  0  0  0  0
 14 33  1  0  0  0  0
 14 34  1  0  0  0  0
 15 16  1  0  0  0  0
 15 20  1  0  0  0  0
 15 43  1  0  0  0  0
 16 17  1  0  0  0  0
 16 35  1  0  0  0  0
 16 36  1  0  0  0  0
 17 18  1  0  0  0  0
 17 19  2  0  0  0  0
 18 37  1  0  0  0  0
 18 38  1  0  0  0  0
 20 21  1  0  0  0  0
 20 39  1  0  0  0  0
 20 40  1  0  0  0  0
 21 41  1  0  0  0  0
 21 42  1  0  0  0  0
M  CHG  1  15   1
M  END
> <s_m_source_file>
AV-unprocessed.smi

> <i_m_source_file_index>
1395

> <i_lp_mmshare_version>
43012

> <i_f3d_flags>
0

> <s_epik_input>
W0NIM11jMVtjSF1bY0hdW2NIXW5jMVtOSF1DKD1PKVtOSF1bQ0hdMltDSDJdW0NIMl1OKFtDSDJdW0NIMl0yKVtDSDJdQyg9TylbTkgyXQ==

> <s_epik_cmdline>
J2VwaWtfcHl0aG9uJywgJy1waCcsICc3LjAnLCAnLXRuJywgJzgnLCAnLW1hJywgJzIwMCcsICctbWV0YWxfYmluZGluZycsICctaW1hZScsICc8aW5maWxlLm1hZT4nLCAnLW9tYWUnLCAnPG91dGZpbGUubWFlPic=

> <r_epik_Ionization_Penalty>
0.83893

> <r_epik_Ionization_Penalty_Charging>
0.838844

> <r_epik_Ionization_Penalty_Neutral>
8.62421e-05

> <r_epik_State_Penalty>
0.8734

> <r_epik_Charging_Adjusted_Penalty>
1.71224

> <i_epik_Tot_Q>
1

> <i_epik_Tot_abs_Q>
1

> <r_epik_Metal_State_Penalty>
0.890705

> <b_epik_Metal_Only>
0

> <s_lp_Force_Field>
OPLS_2005

> <r_lp_Energy>
18.2774

> <b_lp_Chiralities_Consistent>
1

> <s_lp_Variant>
AV-unprocessed.smi:1395-3

> <Gold.Version>
5.8.1

> <Gold.Id.Protein>
6NUR|6NUR_protein|mol2

> <Gold.PLP.Fitness>
46.8101

> <Gold.PLP.PLP>
-35.1556

> <Gold.PLP.part.hbond>
-3.0000

> <Gold.PLP.part.metal>
0.0000

> <Gold.PLP.part.buried>
-1.4022

> <Gold.PLP.part.nonpolar>
-31.4131

> <Gold.PLP.part.repulsive>
0.4744

> <Gold.PLP.ligand.clash>
0.0000

> <Gold.PLP.ligand.torsion>
0.1778

> <Gold.PLP.Chemscore.Hbond>
3.0000

> <Gold.PLP.Chemscore.CHOScore>
0.9938

> <Gold.PLP.Chemscore.Metal>
0.0000

> <Gold.Chemscore.Hbonds>
donor molecule, donor type, donor heavy atom, donor atom, acceptor molecule, acceptor atom, score
      L1  H    15    43       P1  7948  2.00
      L1  H    18    38       P1  7948  0.60
      L1  C     5    27       P1  8029  0.87

> <Gold.PLP.Chemscore.Internal.Correction>
0.0286

> <Gold.Rescore>
     Score         DG    S(hbond)    S(metal)    S(lipo)     H(rot)  DE(clash)    DE(int)     intcor
     14.49     -17.09       1.98        0.00      85.61       1.96       1.26       1.34       ----

> <Gold.Chemscore.Fitness>
14.4871

> <Gold.Chemscore.DG>
-17.0885

> <Gold.Chemscore.ZeroCoef>
-5.4800

> <Gold.Chemscore.Hbond>
1.9806

> <Gold.Chemscore.Metal>
0.0000

> <Gold.Chemscore.Lipo>
85.6102

> <Gold.Chemscore.Internal_Hbond>
0.0000

> <Gold.Chemscore.DEClash>
1.2633

> <Gold.Chemscore.DEInternal>
1.3381

> <Gold.Chemscore.Rot>
1.9622

> <Gold.Chemscore.Internal.Correction>
   9.000000E+99

> <Gold.Chemscore.Hbonds>
donor molecule, donor type, donor heavy atom, donor atom, acceptor molecule, acceptor atom, score
      L1  H    15    43       P1  7948  0.77
      L1  H    18    38       P1  7948  0.04

> <Gold.Chemscore.Hbond.Weighted>
-6.6153

> <Gold.Chemscore.Metal.Weighted>
-0.0000

> <Gold.Chemscore.Lipo.Weighted>
-10.0164

> <Gold.Chemscore.Internal_Hbond.Weighted>
0.0000

> <Gold.Chemscore.DEClash.Weighted>
1.2633

> <Gold.Chemscore.DEInternal.Weighted>
1.3381

> <Gold.Chemscore.Rot.Weighted>
5.0232

> <Gold.Chemscore.Internal.Correction.Weighted>
   9.000000E+99

> <Gold.Protein.RotatedTorsions>
[ 6907 6896 6895 6894 ] final -169.66 input  -60.11 | X-H torsion
[ 7974 7965 7964 7962 ] final -155.23 input  175.53 | X-H torsion
[ 8008 7997 7996 7995 ] final  -36.92 input   59.86 | X-H torsion
[ 10167 10162 10161 10158 ] final  130.65 input  -65.29 | X-H torsion
[ 10718 10713 10712 10709 ] final   99.02 input   66.30 | X-H torsion
[ 10763 10752 10751 10750 ] final -131.61 input  -60.55 | X-H torsion
[ 11005 11000 10999 10996 ] final   32.38 input  -57.11 | X-H torsion

> <Gold.Protein.ActiveResidues>
 VAL166  LYS551  ARG553  GLY616  TRP617  ASP618  TYR619  PRO620  LYS621  CYS622 
 ASP623  PHE694  ASN695  SER759  ASP760  ASP761  ALA762  ILE779  LEU786  VAL792 
 PHE793  MET794  SER795  GLU796  ALA797  LYS798  CYS799  TRP800  GLU811  SER814 

> <Gold.Protein.RotatedAtoms>
  151.4952  133.3516  159.2859 H   0  0  0  0  0  0  0  0  0  0  0  0  # atno 6907 bound_to 6896
  150.8809  134.8201  159.7235 H   0  0  0  0  0  0  0  0  0  0  0  0  # atno 6908 bound_to 6896
  152.4762  134.4849  159.9729 H   0  0  0  0  0  0  0  0  0  0  0  0  # atno 6909 bound_to 6896
  144.7650  140.4277  143.5949 H   0  0  0  0  0  0  0  0  0  0  0  0  # atno 7974 bound_to 7965
  154.4063  140.1618  156.2453 H   0  0  0  0  0  0  0  0  0  0  0  0  # atno 8008 bound_to 7997
  155.9166  140.3424  155.6117 H   0  0  0  0  0  0  0  0  0  0  0  0  # atno 8009 bound_to 7997
  155.7272  140.0776  157.2295 H   0  0  0  0  0  0  0  0  0  0  0  0  # atno 8010 bound_to 7997
  139.5420  144.6739  151.4595 H   0  0  0  0  0  0  0  0  0  0  0  0  # atno 10167 bound_to 10162
  157.6884  131.0657  150.4885 H   0  0  0  0  0  0  0  0  0  0  0  0  # atno 10718 bound_to 10713
  154.8749  135.3824  154.4274 H   0  0  0  0  0  0  0  0  0  0  0  0  # atno 10763 bound_to 10752
  153.4971  135.7030  153.5857 H   0  0  0  0  0  0  0  0  0  0  0  0  # atno 10764 bound_to 10752
  153.4205  135.3902  155.2075 H   0  0  0  0  0  0  0  0  0  0  0  0  # atno 10765 bound_to 10752
  140.2740  134.3049  155.7819 H   0  0  0  0  0  0  0  0  0  0  0  0  # atno 11005 bound_to 11000
  145.6499  139.1563  143.2868 LP  0  0  0  0  0  0  0  0  0  0  0  0  # atno 17320 bound_to 7965
  146.1749  140.6588  142.9216 LP  0  0  0  0  0  0  0  0  0  0  0  0  # atno 17321 bound_to 7965
  140.6653  143.8410  150.6935 LP  0  0  0  0  0  0  0  0  0  0  0  0  # atno 17342 bound_to 10162
  140.1818  143.4109  152.1927 LP  0  0  0  0  0  0  0  0  0  0  0  0  # atno 17343 bound_to 10162
  156.5213  130.4162  149.6249 LP  0  0  0  0  0  0  0  0  0  0  0  0  # atno 17370 bound_to 10713
  156.3151  130.7250  151.2151 LP  0  0  0  0  0  0  0  0  0  0  0  0  # atno 17371 bound_to 10713
  141.2173  133.7484  156.9379 LP  0  0  0  0  0  0  0  0  0  0  0  0  # atno 17394 bound_to 11000
  140.1346  134.9334  157.2383 LP  0  0  0  0  0  0  0  0  0  0  0  0  # atno 17395 bound_to 11000

$$$$
