AV-unprocessed.smi:160|AV-procd|sdf|1345|dock6
  -GOLD-   2262019 43D 1   1.00000     0.00000
 Structure written by MMmdl.
 29 30  0  0  0  0  0  0  0  0  1 V2000
  142.0702  134.5930  154.7523 N   0  0  0  0  0  0  0  0  0  0  0  0
  142.5329  135.7680  154.3131 C   0  0  0  0  0  0  0  0  0  0  0  0
  141.9821  136.8344  154.5813 O   0  0  0  0  0  0  0  0  0  0  0  0
  143.7731  135.7179  153.4641 C   0  0  0  0  0  0  0  0  0  0  0  0
  144.7362  136.6812  153.5641 N   0  0  0  0  0  0  0  0  0  0  0  0
  145.5838  136.2234  152.6517 C   0  0  0  0  0  0  0  0  0  0  0  0
  145.1951  135.0889  152.0608 N   0  0  0  0  0  0  0  0  0  0  0  0
  145.8628  134.3024  150.9745 C   0  0  2  0  0  0  0  0  0  0  0  0
  144.9814  134.2387  149.8930 O   0  0  0  0  0  0  0  0  0  0  0  0
  144.3207  132.9767  149.8797 C   0  0  1  0  0  0  0  0  0  0  0  0
  143.7214  132.6732  148.4951 C   0  0  0  0  0  0  0  0  0  0  0  0
  143.3249  133.8729  147.8651 O   0  0  0  0  0  0  0  0  0  0  0  0
  145.4325  132.0281  150.3467 C   0  0  1  0  0  0  0  0  0  0  0  0
  146.2828  131.6899  149.2621 O   0  0  0  0  0  0  0  0  0  0  0  0
  146.1467  132.8536  151.4182 C   0  0  1  0  0  0  0  0  0  0  0  0
  147.5280  132.5530  151.5001 O   0  0  0  0  0  0  0  0  0  0  0  0
  143.9901  134.7421  152.5804 N   0  0  0  0  0  0  0  0  0  0  0  0
  146.7523  134.8777  150.7138 H   0  0  0  0  0  0  0  0  0  0  0  0
  143.5296  132.9724  150.6313 H   0  0  0  0  0  0  0  0  0  0  0  0
  145.0273  131.1034  150.7590 H   0  0  0  0  0  0  0  0  0  0  0  0
  145.6914  132.6636  152.3907 H   0  0  0  0  0  0  0  0  0  0  0  0
  141.2379  134.5608  155.3224 H   0  0  0  0  0  0  0  0  0  0  0  0
  142.5559  133.7431  154.5050 H   0  0  0  0  0  0  0  0  0  0  0  0
  146.5081  136.7269  152.4082 H   0  0  0  0  0  0  0  0  0  0  0  0
  144.4267  132.1311  147.8645 H   0  0  0  0  0  0  0  0  0  0  0  0
  142.8318  132.0516  148.5997 H   0  0  0  0  0  0  0  0  0  0  0  0
  144.1005  134.3455  147.6040 H   0  0  0  0  0  0  0  0  0  0  0  0
  147.1190  131.4228  149.6131 H   0  0  0  0  0  0  0  0  0  0  0  0
  147.7151  131.8361  150.9133 H   0  0  0  0  0  0  0  0  0  0  0  0
  1  2  1  0  0  0  0
  1 22  1  0  0  0  0
  1 23  1  0  0  0  0
  2  3  2  0  0  0  0
  2  4  1  0  0  0  0
  4 17  2  0  0  0  0
  4  5  1  0  0  0  0
  5  6  2  0  0  0  0
  6  7  1  0  0  0  0
  6 24  1  0  0  0  0
  7  8  1  0  0  0  0
  7 17  1  0  0  0  0
  8 18  1  0  0  0  0
  8 15  1  0  0  0  0
  8  9  1  0  0  0  0
  9 10  1  0  0  0  0
 10 19  1  0  0  0  0
 10 11  1  0  0  0  0
 10 13  1  0  0  0  0
 11 12  1  0  0  0  0
 11 25  1  0  0  0  0
 11 26  1  0  0  0  0
 12 27  1  0  0  0  0
 13 20  1  0  0  0  0
 13 14  1  0  0  0  0
 13 15  1  0  0  0  0
 14 28  1  0  0  0  0
 15 21  1  0  0  0  0
 15 16  1  0  0  0  0
 16 29  1  0  0  0  0
M  END
> <s_m_source_file>
AV-unprocessed.smi

> <i_m_source_file_index>
160

> <i_lp_mmshare_version>
43012

> <i_f3d_flags>
0

> <s_epik_input>
W05IMl1DKD1PKWMxbltjSF1uKG4xKVtDQEBIXTJPW0NASF0oW0NIMl1bT0hdKVtDQEBIXShbT0hdKVtDQEhdMltPSF0=

> <s_epik_cmdline>
J2VwaWtfcHl0aG9uJywgJy1waCcsICc3LjAnLCAnLXRuJywgJzgnLCAnLW1hJywgJzIwMCcsICctbWV0YWxfYmluZGluZycsICctaW1hZScsICc8aW5maWxlLm1hZT4nLCAnLW9tYWUnLCAnPG91dGZpbGUubWFlPic=

> <r_lp_tautomer_probability>
1

> <r_epik_Ionization_Penalty>
1.06932e-05

> <r_epik_Ionization_Penalty_Charging>
0

> <r_epik_Ionization_Penalty_Neutral>
1.06932e-05

> <r_epik_State_Penalty>
-0

> <r_epik_Charging_Adjusted_Penalty>
0

> <i_epik_Tot_Q>
0

> <i_epik_Tot_abs_Q>
0

> <r_epik_Metal_State_Penalty>
0.0142097

> <b_epik_Metal_Only>
0

> <s_epik_Chemistry_Notes>
This compound contains an acetal/aminal-like group ( X-CH(R)-Y where X, Y are N, S, or O) that may be acid/base labile, releasing an aldehyde.

> <s_lp_Force_Field>
OPLS_2005

> <r_lp_Energy>
41.9483

> <b_lp_Chiralities_Consistent>
1

> <s_lp_Variant>
AV-unprocessed.smi:160-3

> <Gold.Version>
5.8.1

> <Gold.Id.Protein>
6NUR|6NUR_protein|mol2

> <Gold.PLP.Fitness>
47.4064

> <Gold.PLP.PLP>
-28.9817

> <Gold.PLP.part.hbond>
-7.9198

> <Gold.PLP.part.metal>
0.0000

> <Gold.PLP.part.buried>
-8.0783

> <Gold.PLP.part.nonpolar>
-17.0832

> <Gold.PLP.part.repulsive>
3.9387

> <Gold.PLP.ligand.clash>
0.0000

> <Gold.PLP.ligand.torsion>
0.9380

> <Gold.PLP.Chemscore.Hbond>
5.7600

> <Gold.PLP.Chemscore.CHOScore>
1.0000

> <Gold.PLP.Chemscore.Metal>
0.0000

> <Gold.Chemscore.Hbonds>
donor molecule, donor type, donor heavy atom, donor atom, acceptor molecule, acceptor atom, score
      L1  H     1    22       P1 11000  1.00
      L1  H     1    23       P1 10957  0.90
      L1  H    12    27       P1  7921  0.94
      L1  H    14    28       P1 10747  1.00
      L1  H    16    29       P1 10747  0.88
      P1  H 10192 10197       L1    12  0.85
      L1  C     6    24       P1  7948  0.98

> <Gold.PLP.Chemscore.Internal.Correction>
0.0207

> <Gold.Rescore>
     Score         DG    S(hbond)    S(metal)    S(lipo)     H(rot)  DE(clash)    DE(int)     intcor
     11.98     -13.35       4.16        0.00      37.29       4.06       0.86       0.51       ----

> <Gold.Chemscore.Fitness>
11.9750

> <Gold.Chemscore.DG>
-13.3545

> <Gold.Chemscore.ZeroCoef>
-5.4800

> <Gold.Chemscore.Hbond>
4.1633

> <Gold.Chemscore.Metal>
0.0000

> <Gold.Chemscore.Lipo>
37.2868

> <Gold.Chemscore.Internal_Hbond>
0.0000

> <Gold.Chemscore.DEClash>
0.8645

> <Gold.Chemscore.DEInternal>
0.5149

> <Gold.Chemscore.Rot>
4.0600

> <Gold.Chemscore.Internal.Correction>
   9.000000E+99

> <Gold.Chemscore.Hbonds>
donor molecule, donor type, donor heavy atom, donor atom, acceptor molecule, acceptor atom, score
      L1  H     1    22       P1 11000  0.86
      L1  H     1    23       P1 10957  0.85
      L1  H    12    27       P1  7921  0.89
      L1  H    14    28       P1 10747  0.93
      L1  H    16    29       P1 10747  0.87
      P1  H 10192 10197       L1    12  0.14

> <Gold.Chemscore.Hbond.Weighted>
-13.9055

> <Gold.Chemscore.Metal.Weighted>
-0.0000

> <Gold.Chemscore.Lipo.Weighted>
-4.3626

> <Gold.Chemscore.Internal_Hbond.Weighted>
0.0000

> <Gold.Chemscore.DEClash.Weighted>
0.8645

> <Gold.Chemscore.DEInternal.Weighted>
0.5149

> <Gold.Chemscore.Rot.Weighted>
10.3936

> <Gold.Chemscore.Internal.Correction.Weighted>
   9.000000E+99

> <Gold.Protein.RotatedTorsions>
[ 6907 6896 6895 6894 ] final    8.65 input  -60.11 | X-H torsion
[ 7974 7965 7964 7962 ] final   16.61 input  175.53 | X-H torsion
[ 8008 7997 7996 7995 ] final  -97.15 input   59.86 | X-H torsion
[ 10167 10162 10161 10158 ] final -134.66 input  -65.29 | X-H torsion
[ 10718 10713 10712 10709 ] final -115.94 input   66.30 | X-H torsion
[ 10763 10752 10751 10750 ] final  -81.62 input  -60.55 | X-H torsion
[ 11005 11000 10999 10996 ] final  170.73 input  -57.11 | X-H torsion

> <Gold.Protein.ActiveResidues>
 VAL166  LYS551  ARG553  GLY616  TRP617  ASP618  TYR619  PRO620  LYS621  CYS622 
 ASP623  PHE694  ASN695  SER759  ASP760  ASP761  ALA762  ILE779  LEU786  VAL792 
 PHE793  MET794  SER795  GLU796  ALA797  LYS798  CYS799  TRP800  GLU811  SER814 

> <Gold.Protein.RotatedAtoms>
  151.7094  135.0915  160.0264 H   0  0  0  0  0  0  0  0  0  0  0  0  # atno 6907 bound_to 6896
  152.3671  133.6366  159.6067 H   0  0  0  0  0  0  0  0  0  0  0  0  # atno 6908 bound_to 6896
  150.7646  133.9246  159.3450 H   0  0  0  0  0  0  0  0  0  0  0  0  # atno 6909 bound_to 6896
  146.2244  139.8722  142.8585 H   0  0  0  0  0  0  0  0  0  0  0  0  # atno 7974 bound_to 7965
  154.7839  140.0465  157.1148 H   0  0  0  0  0  0  0  0  0  0  0  0  # atno 8008 bound_to 7997
  154.9672  140.3085  155.4984 H   0  0  0  0  0  0  0  0  0  0  0  0  # atno 8009 bound_to 7997
  156.2940  140.2260  156.4762 H   0  0  0  0  0  0  0  0  0  0  0  0  # atno 8010 bound_to 7997
  139.8857  143.6784  152.2620 H   0  0  0  0  0  0  0  0  0  0  0  0  # atno 10167 bound_to 10162
  156.0929  130.6108  150.8971 H   0  0  0  0  0  0  0  0  0  0  0  0  # atno 10718 bound_to 10713
  154.5658  135.5620  153.7049 H   0  0  0  0  0  0  0  0  0  0  0  0  # atno 10763 bound_to 10752
  153.0032  135.6285  154.2182 H   0  0  0  0  0  0  0  0  0  0  0  0  # atno 10764 bound_to 10752
  154.2121  135.2873  155.2934 H   0  0  0  0  0  0  0  0  0  0  0  0  # atno 10765 bound_to 10752
  140.3115  134.7513  157.3994 H   0  0  0  0  0  0  0  0  0  0  0  0  # atno 11005 bound_to 11000
  145.2596  141.0072  143.3834 LP  0  0  0  0  0  0  0  0  0  0  0  0  # atno 17320 bound_to 7965
  144.9309  139.4300  143.6496 LP  0  0  0  0  0  0  0  0  0  0  0  0  # atno 17321 bound_to 7965
  139.7155  144.7612  151.1041 LP  0  0  0  0  0  0  0  0  0  0  0  0  # atno 17342 bound_to 10162
  140.7736  143.5275  150.9462 LP  0  0  0  0  0  0  0  0  0  0  0  0  # atno 17343 bound_to 10162
  157.6083  131.0938  150.8840 LP  0  0  0  0  0  0  0  0  0  0  0  0  # atno 17370 bound_to 10713
  156.8984  130.5238  149.5283 LP  0  0  0  0  0  0  0  0  0  0  0  0  # atno 17371 bound_to 10713
  140.1021  134.5459  155.8343 LP  0  0  0  0  0  0  0  0  0  0  0  0  # atno 17394 bound_to 11000
  141.2107  133.6698  156.6529 LP  0  0  0  0  0  0  0  0  0  0  0  0  # atno 17395 bound_to 11000

$$$$
