AV-unprocessed.smi:648|AV-procd|sdf|3172|dock4
  -GOLD-   22720 0 93D 1   1.00000     0.00000
 Structure written by MMmdl.
 46 47  0  0  0  0  0  0  0  0  2 V2000
  141.6985  135.9990  153.3351 C   0  0  0  0  0  0  0  0  0  0  0  0
  143.0074  135.7503  152.5709 C   0  0  2  0  0  0  0  0  0  0  0  0
  143.2298  134.2443  152.3315 C   0  0  0  0  0  0  0  0  0  0  0  0
  144.5279  133.9187  151.5544 C   0  0  0  0  0  0  0  0  0  0  0  0
  144.7914  132.4010  151.6642 C   0  0  0  0  0  0  0  0  0  0  0  0
  144.3583  134.2229  150.0482 C   0  0  0  0  0  0  0  0  0  0  0  0
  145.7426  134.6590  152.1915 C   0  0  0  0  0  0  0  0  0  0  0  0
  145.5627  136.1583  152.5817 C   0  0  2  0  0  0  0  0  0  0  0  0
  145.6365  137.0705  151.3265 C   0  0  0  0  0  0  0  0  0  0  0  0
  146.9587  137.5038  151.0683 O   0  0  0  0  0  0  0  0  0  0  0  0
  146.7233  136.5709  153.4252 N   0  3  0  0  0  0  0  0  0  0  0  0
  146.6587  137.8498  154.1708 C   0  0  0  0  0  0  0  0  0  0  0  0
  148.0513  138.2507  154.6777 C   0  0  0  0  0  0  0  0  0  0  0  0
  148.2776  139.6770  154.5515 N   0  0  0  0  0  0  0  0  0  0  0  0
  149.1605  140.3568  153.8180 C   0  0  0  0  0  0  0  0  0  0  0  0
  149.0724  141.6721  153.9586 N   0  0  0  0  0  0  0  0  0  0  0  0
  148.0459  141.7378  154.8581 C   0  0  0  0  0  0  0  0  0  0  0  0
  147.5336  140.5693  155.2455 N   0  0  0  0  0  0  0  0  0  0  0  0
  144.2109  136.3420  153.3284 C   0  0  0  0  0  0  0  0  0  0  0  0
  141.7155  135.5295  154.3193 H   0  0  0  0  0  0  0  0  0  0  0  0
  140.8433  135.5979  152.7903 H   0  0  0  0  0  0  0  0  0  0  0  0
  141.5242  137.0659  153.4785 H   0  0  0  0  0  0  0  0  0  0  0  0
  142.9040  136.2528  151.6106 H   0  0  0  0  0  0  0  0  0  0  0  0
  143.2569  133.7455  153.3018 H   0  0  0  0  0  0  0  0  0  0  0  0
  142.3711  133.8214  151.8077 H   0  0  0  0  0  0  0  0  0  0  0  0
  145.6969  132.1155  151.1270 H   0  0  0  0  0  0  0  0  0  0  0  0
  143.9672  131.8199  151.2484 H   0  0  0  0  0  0  0  0  0  0  0  0
  144.9142  132.0846  152.7006 H   0  0  0  0  0  0  0  0  0  0  0  0
  145.3083  134.1543  149.5174 H   0  0  0  0  0  0  0  0  0  0  0  0
  143.9317  135.2010  149.8475 H   0  0  0  0  0  0  0  0  0  0  0  0
  143.6781  133.5099  149.5804 H   0  0  0  0  0  0  0  0  0  0  0  0
  145.9939  134.1086  153.0970 H   0  0  0  0  0  0  0  0  0  0  0  0
  146.6189  134.5461  151.5516 H   0  0  0  0  0  0  0  0  0  0  0  0
  145.2721  136.5424  150.4446 H   0  0  0  0  0  0  0  0  0  0  0  0
  145.0359  137.9678  151.4208 H   0  0  0  0  0  0  0  0  0  0  0  0
  147.5517  136.9980  151.6037 H   0  0  0  0  0  0  0  0  0  0  0  0
  146.8958  135.8276  154.0866 H   0  0  0  0  0  0  0  0  0  0  0  0
  146.2811  138.6361  153.5166 H   0  0  0  0  0  0  0  0  0  0  0  0
  145.9739  137.7721  155.0142 H   0  0  0  0  0  0  0  0  0  0  0  0
  148.1724  137.9727  155.7258 H   0  0  0  0  0  0  0  0  0  0  0  0
  148.8267  137.7260  154.1176 H   0  0  0  0  0  0  0  0  0  0  0  0
  149.8798  139.8823  153.1665 H   0  0  0  0  0  0  0  0  0  0  0  0
  147.6648  142.6743  155.2381 H   0  0  0  0  0  0  0  0  0  0  0  0
  144.0364  137.3967  153.5439 H   0  0  0  0  0  0  0  0  0  0  0  0
  144.2408  135.8420  154.2962 H   0  0  0  0  0  0  0  0  0  0  0  0
  147.5234  136.6302  152.8108 H   0  0  0  0  0  0  0  0  0  0  0  0
  1  2  1  0  0  0  0
  1 20  1  0  0  0  0
  1 21  1  0  0  0  0
  1 22  1  0  0  0  0
  2 19  1  0  0  0  0
  2  3  1  0  0  0  0
  2 23  1  0  0  0  0
  3  4  1  0  0  0  0
  3 24  1  0  0  0  0
  3 25  1  0  0  0  0
  4  5  1  0  0  0  0
  4  6  1  0  0  0  0
  4  7  1  0  0  0  0
  5 26  1  0  0  0  0
  5 27  1  0  0  0  0
  5 28  1  0  0  0  0
  6 29  1  0  0  0  0
  6 30  1  0  0  0  0
  6 31  1  0  0  0  0
  7  8  1  0  0  0  0
  7 32  1  0  0  0  0
  7 33  1  0  0  0  0
  8  9  1  0  0  0  0
  8 11  1  0  0  0  0
  8 19  1  0  0  0  0
  9 10  1  0  0  0  0
  9 34  1  0  0  0  0
  9 35  1  0  0  0  0
 10 36  1  0  0  0  0
 11 12  1  0  0  0  0
 11 37  1  0  0  0  0
 11 46  1  0  0  0  0
 12 13  1  0  0  0  0
 12 38  1  0  0  0  0
 12 39  1  0  0  0  0
 13 14  1  0  0  0  0
 13 40  1  0  0  0  0
 13 41  1  0  0  0  0
 14 18  1  0  0  0  0
 14 15  1  0  0  0  0
 15 16  2  0  0  0  0
 15 42  1  0  0  0  0
 16 17  1  0  0  0  0
 17 18  2  0  0  0  0
 17 43  1  0  0  0  0
 19 44  1  0  0  0  0
 19 45  1  0  0  0  0
M  CHG  1  11   1
M  END
> <s_m_source_file>
AV-unprocessed.smi

> <i_m_source_file_index>
648

> <i_lp_mmshare_version>
43012

> <i_f3d_flags>
0

> <s_epik_input>
W0NIM11DMShbQ0gzXSlbQ0gyXVtDQEBIXShbQ0gzXSlbQ0gyXVtDQF0oW0NIMl0xKShbQ0gyXVtPSF0pW05IXVtDSDJdW0NIMl1uMltjSF1uW2NIXW4y

> <s_epik_cmdline>
J2VwaWtfcHl0aG9uJywgJy1waCcsICc3LjAnLCAnLXRuJywgJzgnLCAnLW1hJywgJzIwMCcsICctbWV0YWxfYmluZGluZycsICctaW1hZScsICc8aW5maWxlLm1hZT4nLCAnLW9tYWUnLCAnPG91dGZpbGUubWFlPic=

> <r_lp_tautomer_probability>
1

> <r_epik_Ionization_Penalty>
0.00942316

> <r_epik_Ionization_Penalty_Charging>
0.00942185

> <r_epik_Ionization_Penalty_Neutral>
1.31257e-06

> <r_epik_State_Penalty>
0.00715409

> <r_epik_Charging_Adjusted_Penalty>
0.0165759

> <i_epik_Tot_Q>
1

> <i_epik_Tot_abs_Q>
1

> <r_epik_Metal_State_Penalty>
0.00715563

> <b_epik_Metal_Only>
0

> <s_lp_Force_Field>
OPLS_2005

> <r_lp_Energy>
31.5344

> <b_lp_Chiralities_Consistent>
1

> <s_lp_Variant>
AV-unprocessed.smi:648-3

> <Gold.Version>
5.8.1

> <Gold.Id.Protein>
6NUR|6NUR_protein|mol2

> <Gold.PLP.Fitness>
42.4665

> <Gold.PLP.PLP>
-26.2342

> <Gold.PLP.part.hbond>
-4.2787

> <Gold.PLP.part.metal>
0.0000

> <Gold.PLP.part.buried>
1.7344

> <Gold.PLP.part.nonpolar>
-23.8302

> <Gold.PLP.part.repulsive>
0.2510

> <Gold.PLP.ligand.clash>
0.0000

> <Gold.PLP.ligand.torsion>
1.1160

> <Gold.PLP.Chemscore.Hbond>
4.3660

> <Gold.PLP.Chemscore.CHOScore>
1.7506

> <Gold.PLP.Chemscore.Metal>
0.0000

> <Gold.Chemscore.Hbonds>
donor molecule, donor type, donor heavy atom, donor atom, acceptor molecule, acceptor atom, score
      L1  H    10    36       P1  7948  1.00
      L1  H    11    46       P1  7948  2.00
      P1  H  7954  7966       L1    10  0.65
      P1  H  8011  8017       L1    16  0.61
      L1  C    15    42       P1  7957  0.77
      L1  C    17    43       P1  8028  0.98

> <Gold.PLP.Chemscore.Internal.Correction>
0.1144

> <Gold.Rescore>
     Score         DG    S(hbond)    S(metal)    S(lipo)     H(rot)  DE(clash)    DE(int)     intcor
      8.97     -13.28       2.79        0.00      56.46       3.17       3.24       1.06       ----

> <Gold.Chemscore.Fitness>
8.9723

> <Gold.Chemscore.DG>
-13.2796

> <Gold.Chemscore.ZeroCoef>
-5.4800

> <Gold.Chemscore.Hbond>
2.7908

> <Gold.Chemscore.Metal>
0.0000

> <Gold.Chemscore.Lipo>
56.4625

> <Gold.Chemscore.Internal_Hbond>
0.0000

> <Gold.Chemscore.DEClash>
3.2450

> <Gold.Chemscore.DEInternal>
1.0623

> <Gold.Chemscore.Rot>
3.1750

> <Gold.Chemscore.Internal.Correction>
   9.000000E+99

> <Gold.Chemscore.Hbonds>
donor molecule, donor type, donor heavy atom, donor atom, acceptor molecule, acceptor atom, score
      L1  H    10    36       P1  7948  0.92
      L1  H    11    46       P1  7948  1.00
      P1  H  7954  7966       L1    10  0.06
      P1  H  8011  8017       L1    16  0.33

> <Gold.Chemscore.Hbond.Weighted>
-9.3214

> <Gold.Chemscore.Metal.Weighted>
-0.0000

> <Gold.Chemscore.Lipo.Weighted>
-6.6061

> <Gold.Chemscore.Internal_Hbond.Weighted>
0.0000

> <Gold.Chemscore.DEClash.Weighted>
3.2450

> <Gold.Chemscore.DEInternal.Weighted>
1.0623

> <Gold.Chemscore.Rot.Weighted>
8.1279

> <Gold.Chemscore.Internal.Correction.Weighted>
   9.000000E+99

> <Gold.Protein.RotatedTorsions>
[ 6907 6896 6895 6894 ] final  -30.37 input  -60.11 | X-H torsion
[ 7974 7965 7964 7962 ] final -133.02 input  175.53 | X-H torsion
[ 8008 7997 7996 7995 ] final   74.38 input   59.86 | X-H torsion
[ 10167 10162 10161 10158 ] final  -52.31 input  -65.29 | X-H torsion
[ 10718 10713 10712 10709 ] final  141.12 input   66.30 | X-H torsion
[ 10763 10752 10751 10750 ] final -115.59 input  -60.55 | X-H torsion
[ 11005 11000 10999 10996 ] final   -5.46 input  -57.11 | X-H torsion

> <Gold.Protein.ActiveResidues>
 VAL166  LYS551  ARG553  GLY616  TRP617  ASP618  TYR619  PRO620  LYS621  CYS622 
 ASP623  PHE694  ASN695  SER759  ASP760  ASP761  ALA762  ILE779  LEU786  VAL792 
 PHE793  MET794  SER795  GLU796  ALA797  LYS798  CYS799  TRP800  GLU811  SER814 

> <Gold.Protein.RotatedAtoms>
  151.1065  135.0002  159.8473 H   0  0  0  0  0  0  0  0  0  0  0  0  # atno 6907 bound_to 6896
  152.5440  134.1887  159.8675 H   0  0  0  0  0  0  0  0  0  0  0  0  # atno 6908 bound_to 6896
  151.1934  133.4609  159.2628 H   0  0  0  0  0  0  0  0  0  0  0  0  # atno 6909 bound_to 6896
  144.9232  140.7039  143.4952 H   0  0  0  0  0  0  0  0  0  0  0  0  # atno 7974 bound_to 7965
  155.7976  140.3477  155.5384 H   0  0  0  0  0  0  0  0  0  0  0  0  # atno 8008 bound_to 7997
  155.8571  140.0965  157.1658 H   0  0  0  0  0  0  0  0  0  0  0  0  # atno 8009 bound_to 7997
  154.4010  140.1365  156.3902 H   0  0  0  0  0  0  0  0  0  0  0  0  # atno 8010 bound_to 7997
  140.6544  143.2588  151.4630 H   0  0  0  0  0  0  0  0  0  0  0  0  # atno 10167 bound_to 10162
  157.3956  131.1010  151.0603 H   0  0  0  0  0  0  0  0  0  0  0  0  # atno 10718 bound_to 10713
  154.8487  135.4376  154.1688 H   0  0  0  0  0  0  0  0  0  0  0  0  # atno 10763 bound_to 10752
  153.2806  135.6953  153.7395 H   0  0  0  0  0  0  0  0  0  0  0  0  # atno 10764 bound_to 10752
  153.6600  135.3436  155.3099 H   0  0  0  0  0  0  0  0  0  0  0  0  # atno 10765 bound_to 10752
  140.6914  133.9068  155.8620 H   0  0  0  0  0  0  0  0  0  0  0  0  # atno 11005 bound_to 11000
  145.3263  139.1773  143.4561 LP  0  0  0  0  0  0  0  0  0  0  0  0  # atno 17320 bound_to 7965
  146.3214  140.3286  142.8638 LP  0  0  0  0  0  0  0  0  0  0  0  0  # atno 17321 bound_to 7965
  139.5764  144.1810  152.1908 LP  0  0  0  0  0  0  0  0  0  0  0  0  # atno 17342 bound_to 10162
  140.1122  144.5447  150.6917 LP  0  0  0  0  0  0  0  0  0  0  0  0  # atno 17343 bound_to 10162
  157.1620  130.6230  149.5614 LP  0  0  0  0  0  0  0  0  0  0  0  0  # atno 17370 bound_to 10713
  155.9809  130.4814  150.6801 LP  0  0  0  0  0  0  0  0  0  0  0  0  # atno 17371 bound_to 10713
  141.0238  134.0851  157.4091 LP  0  0  0  0  0  0  0  0  0  0  0  0  # atno 17394 bound_to 11000
  139.8922  135.0123  156.6835 LP  0  0  0  0  0  0  0  0  0  0  0  0  # atno 17395 bound_to 11000

$$$$
