AV-unprocessed.smi:3314|AV-procd|sdf|12733|dock6
  -GOLD-   2272019 73D 1   1.00000     0.00000
 Structure written by MMmdl.
 38 39  0  0  0  0  0  0  0  0  2 V2000
  154.1637  141.2713  160.9504 C   0  0  0  0  0  0  0  0  0  0  0  0
  153.1818  142.0468  160.0971 C   0  0  0  0  0  0  0  0  0  0  0  0
  153.0051  143.4322  160.2749 C   0  0  0  0  0  0  0  0  0  0  0  0
  152.0783  144.0960  159.4474 C   0  0  0  0  0  0  0  0  0  0  0  0
  151.8372  145.5845  159.5851 C   0  0  0  0  0  0  0  0  0  0  0  0
  151.3566  143.4656  158.4958 N   0  0  0  0  0  0  0  0  0  0  0  0
  151.5208  142.1318  158.3145 C   0  0  0  0  0  0  0  0  0  0  0  0
  150.8119  141.3774  157.3429 N   0  0  0  0  0  0  0  0  0  0  0  0
  151.2650  140.3655  156.5794 C   0  0  0  0  0  0  0  0  0  0  0  0
  152.4110  139.9157  156.6239 O   0  0  0  0  0  0  0  0  0  0  0  0
  150.2329  139.7664  155.6045 C   0  0  2  0  0  0  0  0  0  0  0  0
  149.5332  138.4812  156.1085 C   0  0  0  0  0  0  0  0  0  0  0  0
  150.4572  137.3218  156.0971 N   0  3  1  0  0  0  0  0  0  0  0  0
  149.8311  136.0874  156.6157 C   0  0  0  0  0  0  0  0  0  0  0  0
  151.0578  137.1400  154.7568 C   0  0  0  0  0  0  0  0  0  0  0  0
  151.7584  138.4318  154.3060 C   0  0  0  0  0  0  0  0  0  0  0  0
  150.8301  139.5163  154.3286 O   0  0  0  0  0  0  0  0  0  0  0  0
  152.4270  141.3900  159.1045 C   0  0  0  0  0  0  0  0  0  0  0  0
  154.6486  141.9166  161.6835 H   0  0  0  0  0  0  0  0  0  0  0  0
  154.9367  140.8250  160.3245 H   0  0  0  0  0  0  0  0  0  0  0  0
  153.6509  140.4722  161.4861 H   0  0  0  0  0  0  0  0  0  0  0  0
  153.5647  143.9720  161.0251 H   0  0  0  0  0  0  0  0  0  0  0  0
  152.5063  146.0272  160.3237 H   0  0  0  0  0  0  0  0  0  0  0  0
  150.8102  145.7740  159.8983 H   0  0  0  0  0  0  0  0  0  0  0  0
  152.0047  146.0865  158.6318 H   0  0  0  0  0  0  0  0  0  0  0  0
  149.8436  141.6339  157.2170 H   0  0  0  0  0  0  0  0  0  0  0  0
  149.4664  140.5280  155.4553 H   0  0  0  0  0  0  0  0  0  0  0  0
  149.1420  138.6320  157.1160 H   0  0  0  0  0  0  0  0  0  0  0  0
  148.6743  138.2610  155.4725 H   0  0  0  0  0  0  0  0  0  0  0  0
  149.0054  135.7685  155.9780 H   0  0  0  0  0  0  0  0  0  0  0  0
  149.4447  136.2467  157.6229 H   0  0  0  0  0  0  0  0  0  0  0  0
  150.5603  135.2781  156.6627 H   0  0  0  0  0  0  0  0  0  0  0  0
  151.7750  136.3188  154.7810 H   0  0  0  0  0  0  0  0  0  0  0  0
  150.2810  136.8663  154.0410 H   0  0  0  0  0  0  0  0  0  0  0  0
  152.6257  138.6431  154.9329 H   0  0  0  0  0  0  0  0  0  0  0  0
  152.1335  138.3159  153.2891 H   0  0  0  0  0  0  0  0  0  0  0  0
  152.5476  140.3272  158.9512 H   0  0  0  0  0  0  0  0  0  0  0  0
  151.2137  137.5505  156.7274 H   0  0  0  0  0  0  0  0  0  0  0  0
  1  2  1  0  0  0  0
  1 19  1  0  0  0  0
  1 20  1  0  0  0  0
  1 21  1  0  0  0  0
  2 18  1  0  0  0  0
  2  3  2  0  0  0  0
  3  4  1  0  0  0  0
  3 22  1  0  0  0  0
  4  5  1  0  0  0  0
  4  6  2  0  0  0  0
  5 23  1  0  0  0  0
  5 24  1  0  0  0  0
  5 25  1  0  0  0  0
  6  7  1  0  0  0  0
  7  8  1  0  0  0  0
  7 18  2  0  0  0  0
  8  9  1  0  0  0  0
  8 26  1  0  0  0  0
  9 10  2  0  0  0  0
  9 11  1  0  0  0  0
 11 17  1  0  0  0  0
 11 12  1  0  0  0  0
 11 27  1  0  0  0  0
 12 13  1  0  0  0  0
 12 28  1  0  0  0  0
 12 29  1  0  0  0  0
 13 14  1  0  0  0  0
 13 15  1  0  0  0  0
 13 38  1  0  0  0  0
 14 30  1  0  0  0  0
 14 31  1  0  0  0  0
 14 32  1  0  0  0  0
 15 16  1  0  0  0  0
 15 33  1  0  0  0  0
 15 34  1  0  0  0  0
 16 17  1  0  0  0  0
 16 35  1  0  0  0  0
 16 36  1  0  0  0  0
 18 37  1  0  0  0  0
M  CHG  1  13   1
M  END
> <s_m_source_file>
AV-unprocessed.smi

> <i_m_source_file_index>
3314

> <i_lp_mmshare_version>
43012

> <i_f3d_flags>
0

> <s_epik_input>
W0NIM11jMVtjSF1jKFtDSDNdKW5jKFtjSF0xKVtOSF1DKD1PKVtDQEBIXTJbQ0gyXU4oW0NIM10pW0NIMl1bQ0gyXU8y

> <s_epik_cmdline>
J2VwaWtfcHl0aG9uJywgJy1waCcsICc3LjAnLCAnLXRuJywgJzgnLCAnLW1hJywgJzIwMCcsICctbWV0YWxfYmluZGluZycsICctaW1hZScsICc8aW5maWxlLm1hZT4nLCAnLW9tYWUnLCAnPG91dGZpbGUubWFlPic=

> <r_epik_Ionization_Penalty>
0.32442

> <r_epik_Ionization_Penalty_Charging>
0.314023

> <r_epik_Ionization_Penalty_Neutral>
0.0103972

> <r_epik_State_Penalty>
0.29453

> <r_epik_Charging_Adjusted_Penalty>
0.608553

> <i_epik_Tot_Q>
1

> <i_epik_Tot_abs_Q>
1

> <r_epik_Metal_State_Penalty>
0.286909

> <b_epik_Metal_Only>
0

> <s_lp_Force_Field>
OPLS_2005

> <r_lp_Energy>
14.9445

> <b_lp_Chiralities_Consistent>
1

> <s_lp_Variant>
AV-unprocessed.smi:3314-3

> <Gold.Version>
5.8.1

> <Gold.Id.Protein>
6NUR|6NUR_protein|mol2

> <Gold.PLP.Fitness>
40.3171

> <Gold.PLP.PLP>
-35.9848

> <Gold.PLP.part.hbond>
-2.0000

> <Gold.PLP.part.metal>
0.0000

> <Gold.PLP.part.buried>
-5.2283

> <Gold.PLP.part.nonpolar>
-29.1114

> <Gold.PLP.part.repulsive>
0.3008

> <Gold.PLP.ligand.clash>
0.0000

> <Gold.PLP.ligand.torsion>
0.8446

> <Gold.PLP.Chemscore.Hbond>
2.0000

> <Gold.PLP.Chemscore.CHOScore>
0.0000

> <Gold.PLP.Chemscore.Metal>
0.0000

> <Gold.Chemscore.Hbonds>
donor molecule, donor type, donor heavy atom, donor atom, acceptor molecule, acceptor atom, score
      P1  H  7989  7998       L1    17  1.00
      P1  H  7997  8009       L1    10  1.00

> <Gold.PLP.Chemscore.Internal.Correction>
0.0214

> <Gold.Rescore>
     Score         DG    S(hbond)    S(metal)    S(lipo)     H(rot)  DE(clash)    DE(int)     intcor
     16.59     -20.18       1.91        0.00      92.96       1.00       0.08       3.52       ----

> <Gold.Chemscore.Fitness>
16.5855

> <Gold.Chemscore.DG>
-20.1768

> <Gold.Chemscore.ZeroCoef>
-5.4800

> <Gold.Chemscore.Hbond>
1.9105

> <Gold.Chemscore.Metal>
0.0000

> <Gold.Chemscore.Lipo>
92.9550

> <Gold.Chemscore.Internal_Hbond>
0.0000

> <Gold.Chemscore.DEClash>
0.0760

> <Gold.Chemscore.DEInternal>
3.5153

> <Gold.Chemscore.Rot>
1.0000

> <Gold.Chemscore.Internal.Correction>
   9.000000E+99

> <Gold.Chemscore.Hbonds>
donor molecule, donor type, donor heavy atom, donor atom, acceptor molecule, acceptor atom, score
      P1  H  7989  7998       L1    17  0.53
      P1  H  7997  8009       L1    10  0.98

> <Gold.Chemscore.Hbond.Weighted>
-6.3811

> <Gold.Chemscore.Metal.Weighted>
-0.0000

> <Gold.Chemscore.Lipo.Weighted>
-10.8757

> <Gold.Chemscore.Internal_Hbond.Weighted>
0.0000

> <Gold.Chemscore.DEClash.Weighted>
0.0760

> <Gold.Chemscore.DEInternal.Weighted>
3.5153

> <Gold.Chemscore.Rot.Weighted>
2.5600

> <Gold.Chemscore.Internal.Correction.Weighted>
   9.000000E+99

> <Gold.Protein.RotatedTorsions>
[ 6907 6896 6895 6894 ] final -160.05 input  -60.11 | X-H torsion
[ 7974 7965 7964 7962 ] final -110.70 input  175.53 | X-H torsion
[ 8008 7997 7996 7995 ] final -177.31 input   59.86 | X-H torsion
[ 10167 10162 10161 10158 ] final  104.12 input  -65.29 | X-H torsion
[ 10718 10713 10712 10709 ] final  119.45 input   66.30 | X-H torsion
[ 10763 10752 10751 10750 ] final   72.24 input  -60.55 | X-H torsion
[ 11005 11000 10999 10996 ] final  -79.81 input  -57.11 | X-H torsion

> <Gold.Protein.ActiveResidues>
 VAL166  LYS551  ARG553  GLY616  TRP617  ASP618  TYR619  PRO620  LYS621  CYS622 
 ASP623  PHE694  ASN695  SER759  ASP760  ASP761  ALA762  ILE779  LEU786  VAL792 
 PHE793  MET794  SER795  GLU796  ALA797  LYS798  CYS799  TRP800  GLU811  SER814 

> <Gold.Protein.RotatedAtoms>
  151.3431  133.3954  159.2672 H   0  0  0  0  0  0  0  0  0  0  0  0  # atno 6907 bound_to 6896
  150.9862  134.9207  159.7883 H   0  0  0  0  0  0  0  0  0  0  0  0  # atno 6908 bound_to 6896
  152.5233  134.3395  159.9264 H   0  0  0  0  0  0  0  0  0  0  0  0  # atno 6909 bound_to 6896
  145.1651  140.8898  143.3568 H   0  0  0  0  0  0  0  0  0  0  0  0  # atno 7974 bound_to 7965
  156.0054  140.1229  157.0507 H   0  0  0  0  0  0  0  0  0  0  0  0  # atno 8008 bound_to 7997
  154.4257  140.1098  156.5824 H   0  0  0  0  0  0  0  0  0  0  0  0  # atno 8009 bound_to 7997
  155.6155  140.3472  155.4637 H   0  0  0  0  0  0  0  0  0  0  0  0  # atno 8010 bound_to 7997
  139.7204  144.7059  151.0882 H   0  0  0  0  0  0  0  0  0  0  0  0  # atno 10167 bound_to 10162
  157.5961  131.1058  150.7897 H   0  0  0  0  0  0  0  0  0  0  0  0  # atno 10718 bound_to 10713
  153.0447  135.5107  154.7714 H   0  0  0  0  0  0  0  0  0  0  0  0  # atno 10763 bound_to 10752
  154.6624  135.2940  154.9852 H   0  0  0  0  0  0  0  0  0  0  0  0  # atno 10764 bound_to 10752
  154.0698  135.6679  153.4875 H   0  0  0  0  0  0  0  0  0  0  0  0  # atno 10765 bound_to 10752
  141.1667  133.7122  156.8178 H   0  0  0  0  0  0  0  0  0  0  0  0  # atno 11005 bound_to 11000
  145.0291  139.3357  143.6034 LP  0  0  0  0  0  0  0  0  0  0  0  0  # atno 17320 bound_to 7965
  146.3477  139.9621  142.8716 LP  0  0  0  0  0  0  0  0  0  0  0  0  # atno 17321 bound_to 7965
  140.7752  143.5174  150.9578 LP  0  0  0  0  0  0  0  0  0  0  0  0  # atno 17342 bound_to 10162
  139.8860  143.7012  152.3151 LP  0  0  0  0  0  0  0  0  0  0  0  0  # atno 17343 bound_to 10162
  156.8307  130.5015  149.5332 LP  0  0  0  0  0  0  0  0  0  0  0  0  # atno 17370 bound_to 10713
  156.1024  130.5979  150.9915 LP  0  0  0  0  0  0  0  0  0  0  0  0  # atno 17371 bound_to 10713
  140.2141  134.8805  157.3307 LP  0  0  0  0  0  0  0  0  0  0  0  0  # atno 17394 bound_to 11000
  140.2056  134.4201  155.7639 LP  0  0  0  0  0  0  0  0  0  0  0  0  # atno 17395 bound_to 11000

$$$$
