AV-unprocessed.smi:890|AV-procd|sdf|4061|dock7
  -GOLD-   22720 1553D 1   1.00000     0.00000
 Structure written by MMmdl.
 53 56  0  0  0  0  0  0  0  0  3 V2000
  146.7346  137.2579  153.1723 O   0  0  0  0  0  0  0  0  0  0  0  0
  145.9496  138.1948  153.0368 C   0  0  0  0  0  0  0  0  0  0  0  0
  146.1899  139.4768  153.3623 N   0  0  0  0  0  0  0  0  0  0  0  0
  147.3481  140.0798  153.9393 C   0  0  0  0  0  0  0  0  0  0  0  0
  148.5930  139.4151  154.0979 C   0  0  0  0  0  0  0  0  0  0  0  0
  149.6798  140.0940  154.6838 C   0  0  0  0  0  0  0  0  0  0  0  0
  149.5120  141.4252  155.1046 C   0  0  0  0  0  0  0  0  0  0  0  0
  148.3178  142.0306  154.9419 N   0  3  0  0  0  0  0  0  0  0  0  0
  147.2418  141.4238  154.3837 C   0  0  0  0  0  0  0  0  0  0  0  0
  146.0417  142.1472  154.2679 N   0  0  0  0  0  0  0  0  0  0  0  0
  146.1149  143.3734  153.4906 C   0  0  0  0  0  0  0  0  0  0  0  0
  144.8373  144.1460  153.8292 C   0  0  0  0  0  0  0  0  0  0  0  0
  144.3776  143.5770  155.1776 C   0  0  0  0  0  0  0  0  0  0  0  0
  145.4156  142.5078  155.5287 C   0  0  0  0  0  0  0  0  0  0  0  0
  144.7156  138.0521  152.5319 N   0  0  0  0  0  0  0  0  0  0  0  0
  144.1288  136.7927  152.0825 C   0  0  2  0  0  0  0  0  0  0  0  0
  143.8267  135.8985  153.2974 C   0  0  0  0  0  0  0  0  0  0  0  0
  143.3047  134.5161  152.8610 C   0  0  0  0  0  0  0  0  0  0  0  0
  144.2359  133.8381  151.9233 N   0  3  2  0  0  0  0  0  0  0  0  0
  145.4519  133.3082  152.5845 C   0  0  0  0  0  0  0  0  0  0  0  0
  146.3988  132.6045  151.6406 C   0  0  0  0  0  0  0  0  0  0  0  0
  145.5325  131.7996  152.5835 C   0  0  0  0  0  0  0  0  0  0  0  0
  144.5307  134.6734  150.7312 C   0  0  0  0  0  0  0  0  0  0  0  0
  145.0796  136.0603  151.1158 C   0  0  0  0  0  0  0  0  0  0  0  0
  145.4342  140.1183  153.1717 H   0  0  0  0  0  0  0  0  0  0  0  0
  148.7513  138.3952  153.7885 H   0  0  0  0  0  0  0  0  0  0  0  0
  150.6306  139.5966  154.8093 H   0  0  0  0  0  0  0  0  0  0  0  0
  150.2890  142.0190  155.5637 H   0  0  0  0  0  0  0  0  0  0  0  0
  146.9910  143.9580  153.7744 H   0  0  0  0  0  0  0  0  0  0  0  0
  146.1837  143.1584  152.4237 H   0  0  0  0  0  0  0  0  0  0  0  0
  145.0177  145.2205  153.8714 H   0  0  0  0  0  0  0  0  0  0  0  0
  144.0735  143.9672  153.0714 H   0  0  0  0  0  0  0  0  0  0  0  0
  144.3137  144.3427  155.9510 H   0  0  0  0  0  0  0  0  0  0  0  0
  143.3891  143.1278  155.0733 H   0  0  0  0  0  0  0  0  0  0  0  0
  144.9549  141.6403  156.0022 H   0  0  0  0  0  0  0  0  0  0  0  0
  146.1554  142.9153  156.2190 H   0  0  0  0  0  0  0  0  0  0  0  0
  144.1374  138.8759  152.4519 H   0  0  0  0  0  0  0  0  0  0  0  0
  143.1877  136.9996  151.5690 H   0  0  0  0  0  0  0  0  0  0  0  0
  144.7246  135.7778  153.9050 H   0  0  0  0  0  0  0  0  0  0  0  0
  143.0885  136.3806  153.9393 H   0  0  0  0  0  0  0  0  0  0  0  0
  143.1270  133.8840  153.7318 H   0  0  0  0  0  0  0  0  0  0  0  0
  142.3403  134.6314  152.3646 H   0  0  0  0  0  0  0  0  0  0  0  0
  145.8419  133.8766  153.4266 H   0  0  0  0  0  0  0  0  0  0  0  0
  146.1480  132.5767  150.5818 H   0  0  0  0  0  0  0  0  0  0  0  0
  147.4622  132.6583  151.8652 H   0  0  0  0  0  0  0  0  0  0  0  0
  146.0257  131.3219  153.4277 H   0  0  0  0  0  0  0  0  0  0  0  0
  144.7060  131.2390  152.1503 H   0  0  0  0  0  0  0  0  0  0  0  0
  145.2320  134.1544  150.0768 H   0  0  0  0  0  0  0  0  0  0  0  0
  143.6095  134.7934  150.1593 H   0  0  0  0  0  0  0  0  0  0  0  0
  145.2267  136.6534  150.2124 H   0  0  0  0  0  0  0  0  0  0  0  0
  146.0646  135.9532  151.5718 H   0  0  0  0  0  0  0  0  0  0  0  0
  143.7447  133.0248  151.5801 H   0  0  0  0  0  0  0  0  0  0  0  0
  148.2200  142.9961  155.2571 H   0  0  0  0  0  0  0  0  0  0  0  0
  1  2  2  0  0  0  0
  2  3  1  0  0  0  0
  2 15  1  0  0  0  0
  3  4  1  0  0  0  0
  3 25  1  0  0  0  0
  4  9  1  0  0  0  0
  4  5  2  0  0  0  0
  5  6  1  0  0  0  0
  5 26  1  0  0  0  0
  6  7  2  0  0  0  0
  6 27  1  0  0  0  0
  7  8  1  0  0  0  0
  7 28  1  0  0  0  0
  8  9  2  0  0  0  0
  8 53  1  0  0  0  0
  9 10  1  0  0  0  0
 10 14  1  0  0  0  0
 10 11  1  0  0  0  0
 11 12  1  0  0  0  0
 11 29  1  0  0  0  0
 11 30  1  0  0  0  0
 12 13  1  0  0  0  0
 12 31  1  0  0  0  0
 12 32  1  0  0  0  0
 13 14  1  0  0  0  0
 13 33  1  0  0  0  0
 13 34  1  0  0  0  0
 14 35  1  0  0  0  0
 14 36  1  0  0  0  0
 15 16  1  0  0  0  0
 15 37  1  0  0  0  0
 16 24  1  0  0  0  0
 16 17  1  0  0  0  0
 16 38  1  0  0  0  0
 17 18  1  0  0  0  0
 17 39  1  0  0  0  0
 17 40  1  0  0  0  0
 18 19  1  0  0  0  0
 18 41  1  0  0  0  0
 18 42  1  0  0  0  0
 19 20  1  0  0  0  0
 19 23  1  0  0  0  0
 19 52  1  0  0  0  0
 20 22  1  0  0  0  0
 20 21  1  0  0  0  0
 20 43  1  0  0  0  0
 21 22  1  0  0  0  0
 21 44  1  0  0  0  0
 21 45  1  0  0  0  0
 22 46  1  0  0  0  0
 22 47  1  0  0  0  0
 23 24  1  0  0  0  0
 23 48  1  0  0  0  0
 23 49  1  0  0  0  0
 24 50  1  0  0  0  0
 24 51  1  0  0  0  0
M  CHG  1   8   1
M  CHG  1  19   1
M  END
> <s_m_source_file>
AV-unprocessed.smi

> <i_m_source_file_index>
890

> <i_lp_mmshare_version>
43012

> <i_f3d_flags>
0

> <s_epik_input>
W0NIMl0xW0NIMl1bQ0hdMU4oW0NIMl1bQ0gyXTIpW0NIMl1bQ0gyXVtDSF0yW05IXUMoPU8pW05IXWMzW2NIXVtjSF1bY0hdbmMzTjRbQ0gyXVtDSDJdW0NIMl1bQ0gyXTQ=

> <s_epik_cmdline>
J2VwaWtfcHl0aG9uJywgJy1waCcsICc3LjAnLCAnLXRuJywgJzgnLCAnLW1hJywgJzIwMCcsICctbWV0YWxfYmluZGluZycsICctaW1hZScsICc8aW5maWxlLm1hZT4nLCAnLW9tYWUnLCAnPG91dGZpbGUubWFlPic=

> <r_lp_tautomer_probability>
0.999994

> <r_epik_Ionization_Penalty>
1.36901

> <r_epik_Ionization_Penalty_Charging>
1.36899

> <r_epik_Ionization_Penalty_Neutral>
1.88098e-05

> <r_epik_State_Penalty>
1.38441

> <r_epik_Charging_Adjusted_Penalty>
2.7534

> <i_epik_Tot_Q>
2

> <i_epik_Tot_abs_Q>
2

> <r_epik_Metal_State_Penalty>
1.45718

> <b_epik_Metal_Only>
0

> <s_lp_Force_Field>
OPLS_2005

> <r_lp_Energy>
67.0325

> <b_lp_Chiralities_Consistent>
1

> <s_lp_Variant>
AV-unprocessed.smi:890-5

> <Gold.Version>
5.8.1

> <Gold.Id.Protein>
6NUR|6NUR_protein|mol2

> <Gold.PLP.Fitness>
49.6274

> <Gold.PLP.PLP>
-38.1821

> <Gold.PLP.part.hbond>
-4.0000

> <Gold.PLP.part.metal>
0.0000

> <Gold.PLP.part.buried>
-3.3451

> <Gold.PLP.part.nonpolar>
-34.1358

> <Gold.PLP.part.repulsive>
2.9613

> <Gold.PLP.ligand.clash>
0.0000

> <Gold.PLP.ligand.torsion>
0.9104

> <Gold.PLP.Chemscore.Hbond>
3.9920

> <Gold.PLP.Chemscore.CHOScore>
0.0000

> <Gold.PLP.Chemscore.Metal>
0.0000

> <Gold.Chemscore.Hbonds>
donor molecule, donor type, donor heavy atom, donor atom, acceptor molecule, acceptor atom, score
      L1  H     3    25       P1 10175  1.00
      L1  H     8    53       P1  8028  2.00
      L1  H    15    37       P1 10175  1.00

> <Gold.PLP.Chemscore.Internal.Correction>
1.2900

> <Gold.Rescore>
     Score         DG    S(hbond)    S(metal)    S(lipo)     H(rot)  DE(clash)    DE(int)     intcor
     17.03     -22.03       2.91        0.00      88.01       1.35       1.65       3.35       ----

> <Gold.Chemscore.Fitness>
17.0257

> <Gold.Chemscore.DG>
-22.0268

> <Gold.Chemscore.ZeroCoef>
-5.4800

> <Gold.Chemscore.Hbond>
2.9050

> <Gold.Chemscore.Metal>
0.0000

> <Gold.Chemscore.Lipo>
88.0102

> <Gold.Chemscore.Internal_Hbond>
0.0000

> <Gold.Chemscore.DEClash>
1.6479

> <Gold.Chemscore.DEInternal>
3.3531

> <Gold.Chemscore.Rot>
1.3489

> <Gold.Chemscore.Internal.Correction>
   9.000000E+99

> <Gold.Chemscore.Hbonds>
donor molecule, donor type, donor heavy atom, donor atom, acceptor molecule, acceptor atom, score
      L1  H     3    25       P1 10175  0.95
      L1  H     8    53       P1  8028  0.95
      L1  H    15    37       P1 10175  0.99

> <Gold.Chemscore.Hbond.Weighted>
-9.7028

> <Gold.Chemscore.Metal.Weighted>
-0.0000

> <Gold.Chemscore.Lipo.Weighted>
-10.2972

> <Gold.Chemscore.Internal_Hbond.Weighted>
0.0000

> <Gold.Chemscore.DEClash.Weighted>
1.6479

> <Gold.Chemscore.DEInternal.Weighted>
3.3531

> <Gold.Chemscore.Rot.Weighted>
3.4532

> <Gold.Chemscore.Internal.Correction.Weighted>
   9.000000E+99

> <Gold.Protein.RotatedTorsions>
[ 6907 6896 6895 6894 ] final  149.04 input  -60.11 | X-H torsion
[ 7974 7965 7964 7962 ] final   -6.31 input  175.53 | X-H torsion
[ 8008 7997 7996 7995 ] final -166.82 input   59.86 | X-H torsion
[ 10167 10162 10161 10158 ] final  149.28 input  -65.29 | X-H torsion
[ 10718 10713 10712 10709 ] final -108.00 input   66.30 | X-H torsion
[ 10763 10752 10751 10750 ] final  -87.72 input  -60.55 | X-H torsion
[ 11005 11000 10999 10996 ] final -100.70 input  -57.11 | X-H torsion

> <Gold.Protein.ActiveResidues>
 VAL166  LYS551  ARG553  GLY616  TRP617  ASP618  TYR619  PRO620  LYS621  CYS622 
 ASP623  PHE694  ASN695  SER759  ASP760  ASP761  ALA762  ILE779  LEU786  VAL792 
 PHE793  MET794  SER795  GLU796  ALA797  LYS798  CYS799  TRP800  GLU811  SER814 

> <Gold.Protein.RotatedAtoms>
  152.1334  133.4421  159.4731 H   0  0  0  0  0  0  0  0  0  0  0  0  # atno 6907 bound_to 6896
  150.6880  134.2393  159.4475 H   0  0  0  0  0  0  0  0  0  0  0  0  # atno 6908 bound_to 6896
  152.0279  134.9785  160.0622 H   0  0  0  0  0  0  0  0  0  0  0  0  # atno 6909 bound_to 6896
  146.2334  140.2152  142.8336 H   0  0  0  0  0  0  0  0  0  0  0  0  # atno 7974 bound_to 7965
  155.8692  140.0990  157.1562 H   0  0  0  0  0  0  0  0  0  0  0  0  # atno 8008 bound_to 7997
  154.3996  140.1350  156.4119 H   0  0  0  0  0  0  0  0  0  0  0  0  # atno 8009 bound_to 7997
  155.7770  140.3459  155.5279 H   0  0  0  0  0  0  0  0  0  0  0  0  # atno 8010 bound_to 7997
  139.4863  144.5614  151.7224 H   0  0  0  0  0  0  0  0  0  0  0  0  # atno 10167 bound_to 10162
  156.0464  130.5691  150.7900 H   0  0  0  0  0  0  0  0  0  0  0  0  # atno 10718 bound_to 10713
  154.6367  135.5403  153.7742 H   0  0  0  0  0  0  0  0  0  0  0  0  # atno 10763 bound_to 10752
  153.0312  135.6449  154.1221 H   0  0  0  0  0  0  0  0  0  0  0  0  # atno 10764 bound_to 10752
  154.1147  135.2924  155.3202 H   0  0  0  0  0  0  0  0  0  0  0  0  # atno 10765 bound_to 10752
  141.1260  133.8420  157.1136 H   0  0  0  0  0  0  0  0  0  0  0  0  # atno 11005 bound_to 11000
  144.9675  140.8336  143.5475 LP  0  0  0  0  0  0  0  0  0  0  0  0  # atno 17320 bound_to 7965
  145.2129  139.2196  143.5133 LP  0  0  0  0  0  0  0  0  0  0  0  0  # atno 17321 bound_to 7965
  140.5184  144.0917  150.6015 LP  0  0  0  0  0  0  0  0  0  0  0  0  # atno 17342 bound_to 10162
  140.3866  143.2774  152.0108 LP  0  0  0  0  0  0  0  0  0  0  0  0  # atno 17343 bound_to 10162
  157.5344  131.0938  150.9912 LP  0  0  0  0  0  0  0  0  0  0  0  0  # atno 17370 bound_to 10713
  157.0211  130.5674  149.5331 LP  0  0  0  0  0  0  0  0  0  0  0  0  # atno 17371 bound_to 10713
  140.0260  134.9924  157.0686 LP  0  0  0  0  0  0  0  0  0  0  0  0  # atno 17394 bound_to 11000
  140.4363  134.1728  155.7171 LP  0  0  0  0  0  0  0  0  0  0  0  0  # atno 17395 bound_to 11000

$$$$
