AV-unprocessed.smi:873|AV-procd|sdf|4016|dock6
  -GOLD-   22720 1503D 1   1.00000     0.00000
 Structure written by MMmdl.
 45 48  0  0  0  0  0  0  0  0  1 V2000
  149.4180  134.8354  156.0547 O   0  0  0  0  0  0  0  0  0  0  0  0
  149.2788  135.1626  154.8768 C   0  0  0  0  0  0  0  0  0  0  0  0
  149.6029  136.3580  154.3547 N   0  0  0  0  0  0  0  0  0  0  0  0
  150.2120  137.4749  154.9887 C   0  0  0  0  0  0  0  0  0  0  0  0
  150.4979  138.7188  154.3721 C   0  0  0  0  0  0  0  0  0  0  0  0
  151.0654  139.7358  155.0564 N   0  0  0  0  0  0  0  0  0  0  0  0
  151.3348  139.5237  156.3473 C   0  0  0  0  0  0  0  0  0  0  0  0
  151.9973  140.6432  157.0889 C   0  0  0  0  0  0  0  0  0  0  0  0
  151.4347  141.1437  158.4040 C   0  0  0  0  0  0  0  0  0  0  0  0
  151.3440  142.0076  157.1771 C   0  0  0  0  0  0  0  0  0  0  0  0
  151.1184  138.3966  157.0305 N   0  0  0  0  0  0  0  0  0  0  0  0
  150.5513  137.3747  156.3544 C   0  0  0  0  0  0  0  0  0  0  0  0
  148.7624  134.3533  153.9412 N   0  0  0  0  0  0  0  0  0  0  0  0
  148.3036  132.9862  154.1689 C   0  0  0  0  0  0  0  0  0  0  0  0
  149.3818  131.9665  153.7604 C   0  0  0  0  0  0  0  0  0  0  0  0
  148.8451  130.5274  153.8546 C   0  0  0  0  0  0  0  0  0  0  0  0
  147.6660  130.3692  153.0027 N   0  0  0  0  0  0  0  0  0  0  0  0
  147.2097  128.9912  153.0835 C   0  0  0  0  0  0  0  0  0  0  0  0
  147.6558  128.0405  151.9960 C   0  0  0  0  0  0  0  0  0  0  0  0
  146.2243  128.5180  152.0391 C   0  0  0  0  0  0  0  0  0  0  0  0
  146.5942  131.2489  153.4689 C   0  0  0  0  0  0  0  0  0  0  0  0
  147.0278  132.7210  153.3542 C   0  0  0  0  0  0  0  0  0  0  0  0
  149.3734  136.4900  153.3806 H   0  0  0  0  0  0  0  0  0  0  0  0
  150.2720  138.9307  153.3393 H   0  0  0  0  0  0  0  0  0  0  0  0
  153.0796  140.6035  156.9815 H   0  0  0  0  0  0  0  0  0  0  0  0
  150.5130  140.6933  158.7672 H   0  0  0  0  0  0  0  0  0  0  0  0
  152.1448  141.4372  159.1742 H   0  0  0  0  0  0  0  0  0  0  0  0
  151.9944  142.8779  157.1238 H   0  0  0  0  0  0  0  0  0  0  0  0
  150.3615  142.1319  156.7260 H   0  0  0  0  0  0  0  0  0  0  0  0
  150.3680  136.4674  156.9111 H   0  0  0  0  0  0  0  0  0  0  0  0
  148.6829  134.7067  152.9991 H   0  0  0  0  0  0  0  0  0  0  0  0
  148.0693  132.8550  155.2272 H   0  0  0  0  0  0  0  0  0  0  0  0
  149.7147  132.1626  152.7398 H   0  0  0  0  0  0  0  0  0  0  0  0
  150.2608  132.0712  154.3973 H   0  0  0  0  0  0  0  0  0  0  0  0
  149.6200  129.8295  153.5352 H   0  0  0  0  0  0  0  0  0  0  0  0
  148.5991  130.2817  154.8892 H   0  0  0  0  0  0  0  0  0  0  0  0
  147.0896  128.5426  154.0685 H   0  0  0  0  0  0  0  0  0  0  0  0
  148.2911  128.4323  151.2037 H   0  0  0  0  0  0  0  0  0  0  0  0
  147.8503  127.0086  152.2812 H   0  0  0  0  0  0  0  0  0  0  0  0
  145.4651  127.8049  152.3538 H   0  0  0  0  0  0  0  0  0  0  0  0
  145.9095  129.2271  151.2755 H   0  0  0  0  0  0  0  0  0  0  0  0
  145.7012  131.0859  152.8644 H   0  0  0  0  0  0  0  0  0  0  0  0
  146.3308  131.0098  154.5006 H   0  0  0  0  0  0  0  0  0  0  0  0
  146.2223  133.3701  153.6988 H   0  0  0  0  0  0  0  0  0  0  0  0
  147.1957  132.9663  152.3041 H   0  0  0  0  0  0  0  0  0  0  0  0
  1  2  2  0  0  0  0
  2  3  1  0  0  0  0
  2 13  1  0  0  0  0
  3  4  1  0  0  0  0
  3 23  1  0  0  0  0
  4 12  1  0  0  0  0
  4  5  2  0  0  0  0
  5  6  1  0  0  0  0
  5 24  1  0  0  0  0
  6  7  2  0  0  0  0
  7  8  1  0  0  0  0
  7 11  1  0  0  0  0
  8 10  1  0  0  0  0
  8  9  1  0  0  0  0
  8 25  1  0  0  0  0
  9 10  1  0  0  0  0
  9 26  1  0  0  0  0
  9 27  1  0  0  0  0
 10 28  1  0  0  0  0
 10 29  1  0  0  0  0
 11 12  2  0  0  0  0
 12 30  1  0  0  0  0
 13 14  1  0  0  0  0
 13 31  1  0  0  0  0
 14 22  1  0  0  0  0
 14 15  1  0  0  0  0
 14 32  1  0  0  0  0
 15 16  1  0  0  0  0
 15 33  1  0  0  0  0
 15 34  1  0  0  0  0
 16 17  1  0  0  0  0
 16 35  1  0  0  0  0
 16 36  1  0  0  0  0
 17 18  1  0  0  0  0
 17 21  1  0  0  0  0
 18 20  1  0  0  0  0
 18 19  1  0  0  0  0
 18 37  1  0  0  0  0
 19 20  1  0  0  0  0
 19 38  1  0  0  0  0
 19 39  1  0  0  0  0
 20 40  1  0  0  0  0
 20 41  1  0  0  0  0
 21 22  1  0  0  0  0
 21 42  1  0  0  0  0
 21 43  1  0  0  0  0
 22 44  1  0  0  0  0
 22 45  1  0  0  0  0
M  END
> <s_m_source_file>
AV-unprocessed.smi

> <i_m_source_file_index>
873

> <i_lp_mmshare_version>
43012

> <i_f3d_flags>
0

> <s_epik_input>
W0NIMl0xW0NIMl1bQ0hdMU4oW0NIMl1bQ0gyXTIpW0NIMl1bQ0gyXVtDSF0yW05IXUMoPU8pW05IXWMzW2NIXW5jKG5bY0hdMylbQ0hdNFtDSDJdW0NIMl00

> <s_epik_cmdline>
J2VwaWtfcHl0aG9uJywgJy1waCcsICc3LjAnLCAnLXRuJywgJzgnLCAnLW1hJywgJzIwMCcsICctbWV0YWxfYmluZGluZycsICctaW1hZScsICc8aW5maWxlLm1hZT4nLCAnLW9tYWUnLCAnPG91dGZpbGUubWFlPic=

> <r_lp_tautomer_probability>
1

> <r_epik_Ionization_Penalty>
0.990889

> <r_epik_Ionization_Penalty_Charging>
0

> <r_epik_Ionization_Penalty_Neutral>
0.990889

> <r_epik_State_Penalty>
1.03856

> <r_epik_Charging_Adjusted_Penalty>
1.03856

> <i_epik_Tot_Q>
0

> <i_epik_Tot_abs_Q>
0

> <r_epik_Metal_State_Penalty>
1.03856

> <b_epik_Metal_Only>
0

> <s_lp_Force_Field>
OPLS_2005

> <r_lp_Energy>
20.0784

> <b_lp_Chiralities_Consistent>
1

> <s_lp_Variant>
AV-unprocessed.smi:873-3

> <Gold.Version>
5.8.1

> <Gold.Id.Protein>
6NUR|6NUR_protein|mol2

> <Gold.PLP.Fitness>
44.4927

> <Gold.PLP.PLP>
-33.5386

> <Gold.PLP.part.hbond>
-3.0929

> <Gold.PLP.part.metal>
0.0000

> <Gold.PLP.part.buried>
-5.3730

> <Gold.PLP.part.nonpolar>
-25.7034

> <Gold.PLP.part.repulsive>
0.7181

> <Gold.PLP.ligand.clash>
0.0000

> <Gold.PLP.ligand.torsion>
0.9822

> <Gold.PLP.Chemscore.Hbond>
2.8780

> <Gold.PLP.Chemscore.CHOScore>
1.0000

> <Gold.PLP.Chemscore.Metal>
0.0000

> <Gold.Chemscore.Hbonds>
donor molecule, donor type, donor heavy atom, donor atom, acceptor molecule, acceptor atom, score
      L1  H     3    23       P1  7948  1.00
      L1  H    13    31       P1  7948  0.88
      P1  H  7989  7998       L1     6  0.95
      L1  C     5    24       P1  7957  1.00

> <Gold.PLP.Chemscore.Internal.Correction>
1.2845

> <Gold.Rescore>
     Score         DG    S(hbond)    S(metal)    S(lipo)     H(rot)  DE(clash)    DE(int)     intcor
     16.37     -18.88       2.10        0.00      83.77       1.33       0.15       2.37       ----

> <Gold.Chemscore.Fitness>
16.3669

> <Gold.Chemscore.DG>
-18.8797

> <Gold.Chemscore.ZeroCoef>
-5.4800

> <Gold.Chemscore.Hbond>
2.0978

> <Gold.Chemscore.Metal>
0.0000

> <Gold.Chemscore.Lipo>
83.7651

> <Gold.Chemscore.Internal_Hbond>
0.0000

> <Gold.Chemscore.DEClash>
0.1461

> <Gold.Chemscore.DEInternal>
2.3667

> <Gold.Chemscore.Rot>
1.3310

> <Gold.Chemscore.Internal.Correction>
   9.000000E+99

> <Gold.Chemscore.Hbonds>
donor molecule, donor type, donor heavy atom, donor atom, acceptor molecule, acceptor atom, score
      L1  H     3    23       P1  7948  0.79
      L1  H    13    31       P1  7948  0.19
      P1  H  7989  7998       L1     6  0.21

> <Gold.Chemscore.Hbond.Weighted>
-7.0067

> <Gold.Chemscore.Metal.Weighted>
-0.0000

> <Gold.Chemscore.Lipo.Weighted>
-9.8005

> <Gold.Chemscore.Internal_Hbond.Weighted>
0.0000

> <Gold.Chemscore.DEClash.Weighted>
0.1461

> <Gold.Chemscore.DEInternal.Weighted>
2.3667

> <Gold.Chemscore.Rot.Weighted>
3.4075

> <Gold.Chemscore.Internal.Correction.Weighted>
   9.000000E+99

> <Gold.Protein.RotatedTorsions>
[ 6907 6896 6895 6894 ] final -117.63 input  -60.11 | X-H torsion
[ 7974 7965 7964 7962 ] final   -1.38 input  175.53 | X-H torsion
[ 8008 7997 7996 7995 ] final   14.82 input   59.86 | X-H torsion
[ 10167 10162 10161 10158 ] final -103.24 input  -65.29 | X-H torsion
[ 10718 10713 10712 10709 ] final -160.45 input   66.30 | X-H torsion
[ 10763 10752 10751 10750 ] final   85.05 input  -60.55 | X-H torsion
[ 11005 11000 10999 10996 ] final  108.04 input  -57.11 | X-H torsion

> <Gold.Protein.ActiveResidues>
 VAL166  LYS551  ARG553  GLY616  TRP617  ASP618  TYR619  PRO620  LYS621  CYS622 
 ASP623  PHE694  ASN695  SER759  ASP760  ASP761  ALA762  ILE779  LEU786  VAL792 
 PHE793  MET794  SER795  GLU796  ALA797  LYS798  CYS799  TRP800  GLU811  SER814 

> <Gold.Protein.RotatedAtoms>
  150.8152  133.8350  159.3163 H   0  0  0  0  0  0  0  0  0  0  0  0  # atno 6907 bound_to 6896
  151.6124  135.1037  160.0093 H   0  0  0  0  0  0  0  0  0  0  0  0  # atno 6908 bound_to 6896
  152.4244  133.7129  159.6546 H   0  0  0  0  0  0  0  0  0  0  0  0  # atno 6909 bound_to 6896
  146.2417  140.1412  142.8335 H   0  0  0  0  0  0  0  0  0  0  0  0  # atno 7974 bound_to 7965
  154.8539  140.2934  155.5581 H   0  0  0  0  0  0  0  0  0  0  0  0  # atno 8008 bound_to 7997
  156.3017  140.2491  156.3435 H   0  0  0  0  0  0  0  0  0  0  0  0  # atno 8009 bound_to 7997
  154.8991  140.0392  157.1872 H   0  0  0  0  0  0  0  0  0  0  0  0  # atno 8010 bound_to 7997
  140.2221  143.3668  152.0960 H   0  0  0  0  0  0  0  0  0  0  0  0  # atno 10167 bound_to 10162
  156.5823  130.8734  151.2868 H   0  0  0  0  0  0  0  0  0  0  0  0  # atno 10718 bound_to 10713
  153.1439  135.4631  154.9536 H   0  0  0  0  0  0  0  0  0  0  0  0  # atno 10763 bound_to 10752
  154.7770  135.3176  154.8074 H   0  0  0  0  0  0  0  0  0  0  0  0  # atno 10764 bound_to 10752
  153.8592  135.6914  153.4838 H   0  0  0  0  0  0  0  0  0  0  0  0  # atno 10765 bound_to 10752
  139.8837  134.9419  156.5912 H   0  0  0  0  0  0  0  0  0  0  0  0  # atno 11005 bound_to 11000
  145.0245  140.8821  143.5146 LP  0  0  0  0  0  0  0  0  0  0  0  0  # atno 17320 bound_to 7965
  145.1466  139.2540  143.5463 LP  0  0  0  0  0  0  0  0  0  0  0  0  # atno 17321 bound_to 7965
  139.5140  144.6942  151.5677 LP  0  0  0  0  0  0  0  0  0  0  0  0  # atno 17342 bound_to 10162
  140.6247  143.9191  150.6555 LP  0  0  0  0  0  0  0  0  0  0  0  0  # atno 17343 bound_to 10162
  157.7324  130.9714  150.1924 LP  0  0  0  0  0  0  0  0  0  0  0  0  # atno 17370 bound_to 10713
  156.2621  130.3712  149.8119 LP  0  0  0  0  0  0  0  0  0  0  0  0  # atno 17371 bound_to 10713
  140.7954  133.8548  155.8681 LP  0  0  0  0  0  0  0  0  0  0  0  0  # atno 17394 bound_to 11000
  140.9640  134.1618  157.4631 LP  0  0  0  0  0  0  0  0  0  0  0  0  # atno 17395 bound_to 11000

$$$$
