AV-unprocessed.smi:1047|AV-procd|sdf|4562|dock2
  -GOLD-   22720 3 03D 1   1.00000     0.00000
 Structure written by MMmdl.
 57 59  0  0  0  0  0  0  0  0  3 V2000
  145.6636  136.1400  150.4971 C   0  0  0  0  0  0  0  0  0  0  0  0
  144.8507  136.0313  151.7945 C   0  0  0  0  0  0  0  0  0  0  0  0
  144.6530  137.3512  152.4500 N   0  3  1  0  0  0  0  0  0  0  0  0
  143.7158  137.3390  153.6018 C   0  0  0  0  0  0  0  0  0  0  0  0
  144.3866  136.7741  154.8682 C   0  0  0  0  0  0  0  0  0  0  0  0
  145.5757  137.5035  155.1487 O   0  0  0  0  0  0  0  0  0  0  0  0
  146.5360  137.4154  154.1003 C   0  0  2  0  0  0  0  0  0  0  0  0
  147.7921  138.1801  154.5455 C   0  0  0  0  0  0  0  0  0  0  0  0
  147.4478  139.4809  155.1546 N   0  3  0  0  0  0  0  0  0  0  0  0
  148.5942  140.1732  155.7778 C   0  0  0  0  0  0  0  0  0  0  0  0
  149.2638  141.1496  154.7969 C   0  0  2  0  0  0  0  0  0  0  0  0
  149.9190  140.4017  153.7901 O   0  0  0  0  0  0  0  0  0  0  0  0
  150.2870  142.0594  155.5048 C   0  0  0  0  0  0  0  0  0  0  0  0
  151.1757  141.3197  156.3830 N   0  0  0  0  0  0  0  0  0  0  0  0
  151.7402  140.1194  156.1467 C   0  0  0  0  0  0  0  0  0  0  0  0
  152.5310  139.6221  157.0928 N   0  0  0  0  0  0  0  0  0  0  0  0
  152.4659  140.6108  158.0594 C   0  0  0  0  0  0  0  0  0  0  0  0
  153.0830  140.6961  159.3264 C   0  0  0  0  0  0  0  0  0  0  0  0
  152.8688  141.8147  160.1628 C   0  0  0  0  0  0  0  0  0  0  0  0
  153.5508  141.8635  161.5189 C   0  0  0  0  0  0  0  0  0  0  0  0
  152.0251  142.8711  159.7347 C   0  0  0  0  0  0  0  0  0  0  0  0
  151.7739  144.0780  160.6211 C   0  0  0  0  0  0  0  0  0  0  0  0
  151.4045  142.8042  158.4696 C   0  0  0  0  0  0  0  0  0  0  0  0
  151.6248  141.6854  157.6471 C   0  0  0  0  0  0  0  0  0  0  0  0
  145.9209  138.0266  152.8222 C   0  0  0  0  0  0  0  0  0  0  0  0
  145.8698  135.1496  150.0906 H   0  0  0  0  0  0  0  0  0  0  0  0
  146.6219  136.6295  150.6725 H   0  0  0  0  0  0  0  0  0  0  0  0
  145.1348  136.7003  149.7268 H   0  0  0  0  0  0  0  0  0  0  0  0
  143.8954  135.5418  151.6052 H   0  0  0  0  0  0  0  0  0  0  0  0
  145.4003  135.3767  152.4720 H   0  0  0  0  0  0  0  0  0  0  0  0
  143.4029  138.3664  153.7932 H   0  0  0  0  0  0  0  0  0  0  0  0
  142.8067  136.7860  153.3682 H   0  0  0  0  0  0  0  0  0  0  0  0
  143.7112  136.8668  155.7190 H   0  0  0  0  0  0  0  0  0  0  0  0
  144.6117  135.7124  154.7624 H   0  0  0  0  0  0  0  0  0  0  0  0
  146.7976  136.3702  153.9247 H   0  0  0  0  0  0  0  0  0  0  0  0
  148.3454  137.5919  155.2788 H   0  0  0  0  0  0  0  0  0  0  0  0
  148.4556  138.3368  153.6937 H   0  0  0  0  0  0  0  0  0  0  0  0
  147.0781  140.0848  154.4334 H   0  0  0  0  0  0  0  0  0  0  0  0
  148.2358  140.7172  156.6529 H   0  0  0  0  0  0  0  0  0  0  0  0
  149.3183  139.4379  156.1329 H   0  0  0  0  0  0  0  0  0  0  0  0
  148.5022  141.7701  154.3224 H   0  0  0  0  0  0  0  0  0  0  0  0
  149.4756  140.5521  152.9682 H   0  0  0  0  0  0  0  0  0  0  0  0
  150.8968  142.5861  154.7697 H   0  0  0  0  0  0  0  0  0  0  0  0
  149.7767  142.8253  156.0911 H   0  0  0  0  0  0  0  0  0  0  0  0
  151.5647  139.5830  155.2255 H   0  0  0  0  0  0  0  0  0  0  0  0
  153.7233  139.8897  159.6528 H   0  0  0  0  0  0  0  0  0  0  0  0
  152.8098  141.8677  162.3187 H   0  0  0  0  0  0  0  0  0  0  0  0
  154.1636  142.7607  161.6084 H   0  0  0  0  0  0  0  0  0  0  0  0
  154.2006  141.0011  161.6688 H   0  0  0  0  0  0  0  0  0  0  0  0
  151.0809  144.7782  160.1537 H   0  0  0  0  0  0  0  0  0  0  0  0
  152.7055  144.6091  160.8175 H   0  0  0  0  0  0  0  0  0  0  0  0
  151.3436  143.7688  161.5741 H   0  0  0  0  0  0  0  0  0  0  0  0
  150.7601  143.6022  158.1312 H   0  0  0  0  0  0  0  0  0  0  0  0
  146.6282  137.9918  151.9927 H   0  0  0  0  0  0  0  0  0  0  0  0
  145.7047  139.0824  152.9922 H   0  0  0  0  0  0  0  0  0  0  0  0
  146.7334  139.3399  155.8546 H   0  0  0  0  0  0  0  0  0  0  0  0
  144.2295  137.9334  151.7410 H   0  0  0  0  0  0  0  0  0  0  0  0
  1  2  1  0  0  0  0
  1 26  1  0  0  0  0
  1 27  1  0  0  0  0
  1 28  1  0  0  0  0
  2  3  1  0  0  0  0
  2 29  1  0  0  0  0
  2 30  1  0  0  0  0
  3 25  1  0  0  0  0
  3  4  1  0  0  0  0
  3 57  1  0  0  0  0
  4  5  1  0  0  0  0
  4 31  1  0  0  0  0
  4 32  1  0  0  0  0
  5  6  1  0  0  0  0
  5 33  1  0  0  0  0
  5 34  1  0  0  0  0
  6  7  1  0  0  0  0
  7  8  1  0  0  0  0
  7 25  1  0  0  0  0
  7 35  1  0  0  0  0
  8  9  1  0  0  0  0
  8 36  1  0  0  0  0
  8 37  1  0  0  0  0
  9 10  1  0  0  0  0
  9 38  1  0  0  0  0
  9 56  1  0  0  0  0
 10 11  1  0  0  0  0
 10 39  1  0  0  0  0
 10 40  1  0  0  0  0
 11 12  1  0  0  0  0
 11 13  1  0  0  0  0
 11 41  1  0  0  0  0
 12 42  1  0  0  0  0
 13 14  1  0  0  0  0
 13 43  1  0  0  0  0
 13 44  1  0  0  0  0
 14 24  1  0  0  0  0
 14 15  1  0  0  0  0
 15 16  2  0  0  0  0
 15 45  1  0  0  0  0
 16 17  1  0  0  0  0
 17 24  2  0  0  0  0
 17 18  1  0  0  0  0
 18 19  2  0  0  0  0
 18 46  1  0  0  0  0
 19 20  1  0  0  0  0
 19 21  1  0  0  0  0
 20 47  1  0  0  0  0
 20 48  1  0  0  0  0
 20 49  1  0  0  0  0
 21 22  1  0  0  0  0
 21 23  2  0  0  0  0
 22 50  1  0  0  0  0
 22 51  1  0  0  0  0
 22 52  1  0  0  0  0
 23 24  1  0  0  0  0
 23 53  1  0  0  0  0
 25 54  1  0  0  0  0
 25 55  1  0  0  0  0
M  CHG  1   3   1
M  CHG  1   9   1
M  END
> <s_m_source_file>
AV-unprocessed.smi

> <i_m_source_file_index>
1047

> <i_lp_mmshare_version>
43012

> <i_f3d_flags>
0

> <s_epik_input>
W0NIM11bQ0gyXU4xW0NIMl1bQ0gyXU9bQ0BIXShbQ0gyXTEpW0NIMl1bTkhdW0NIMl1bQ0BIXShbT0hdKVtDSDJdbihbY0hdbjIpYyhjMjMpW2NIXWMoW0NIM10pYyhbY0hdMylbQ0gzXQ==

> <s_epik_cmdline>
J2VwaWtfcHl0aG9uJywgJy1waCcsICc3LjAnLCAnLXRuJywgJzgnLCAnLW1hJywgJzIwMCcsICctbWV0YWxfYmluZGluZycsICctaW1hZScsICc8aW5maWxlLm1hZT4nLCAnLW9tYWUnLCAnPG91dGZpbGUubWFlPic=

> <r_epik_Ionization_Penalty>
0.528991

> <r_epik_Ionization_Penalty_Charging>
0.438567

> <r_epik_Ionization_Penalty_Neutral>
0.0904237

> <r_epik_State_Penalty>
0.533036

> <r_epik_Charging_Adjusted_Penalty>
0.971603

> <i_epik_Tot_Q>
2

> <i_epik_Tot_abs_Q>
2

> <r_epik_Metal_State_Penalty>
0.448985

> <b_epik_Metal_Only>
0

> <s_lp_Force_Field>
OPLS_2005

> <r_lp_Energy>
30.7538

> <b_lp_Chiralities_Consistent>
1

> <s_lp_Variant>
AV-unprocessed.smi:1047-3

> <Gold.Version>
5.8.1

> <Gold.Id.Protein>
6NUR|6NUR_protein|mol2

> <Gold.PLP.Fitness>
51.6643

> <Gold.PLP.PLP>
-42.4179

> <Gold.PLP.part.hbond>
-4.1759

> <Gold.PLP.part.metal>
0.0000

> <Gold.PLP.part.buried>
-2.6720

> <Gold.PLP.part.nonpolar>
-35.1073

> <Gold.PLP.part.repulsive>
0.0422

> <Gold.PLP.ligand.clash>
0.2757

> <Gold.PLP.ligand.torsion>
0.7701

> <Gold.PLP.Chemscore.Hbond>
3.5270

> <Gold.PLP.Chemscore.CHOScore>
0.0000

> <Gold.PLP.Chemscore.Metal>
0.0000

> <Gold.Chemscore.Hbonds>
donor molecule, donor type, donor heavy atom, donor atom, acceptor molecule, acceptor atom, score
      L1  H     3    57       P1 10171  0.91
      L1  H    12    42       P1  7957  0.78
      P1  H  7989  7998       L1    12  0.66
      P1  H  7997  8009       L1    16  0.75

> <Gold.PLP.Chemscore.Internal.Correction>
0.4813

> <Gold.Rescore>
     Score         DG    S(hbond)    S(metal)    S(lipo)     H(rot)  DE(clash)    DE(int)     intcor
     18.78     -22.67       2.87        0.00     124.11       2.70       1.96       1.93       ----

> <Gold.Chemscore.Fitness>
18.7809

> <Gold.Chemscore.DG>
-22.6730

> <Gold.Chemscore.ZeroCoef>
-5.4800

> <Gold.Chemscore.Hbond>
2.8684

> <Gold.Chemscore.Metal>
0.0000

> <Gold.Chemscore.Lipo>
124.1083

> <Gold.Chemscore.Internal_Hbond>
0.0000

> <Gold.Chemscore.DEClash>
1.9591

> <Gold.Chemscore.DEInternal>
1.9331

> <Gold.Chemscore.Rot>
2.6985

> <Gold.Chemscore.Internal.Correction>
   9.000000E+99

> <Gold.Chemscore.Hbonds>
donor molecule, donor type, donor heavy atom, donor atom, acceptor molecule, acceptor atom, score
      L1  H     3    57       P1 10171  0.87
      L1  H    12    42       P1  7957  0.78
      P1  H  7989  7998       L1    12  0.27
      P1  H  7997  8009       L1    16  0.04

> <Gold.Chemscore.Hbond.Weighted>
-9.5805

> <Gold.Chemscore.Metal.Weighted>
-0.0000

> <Gold.Chemscore.Lipo.Weighted>
-14.5207

> <Gold.Chemscore.Internal_Hbond.Weighted>
0.0000

> <Gold.Chemscore.DEClash.Weighted>
1.9591

> <Gold.Chemscore.DEInternal.Weighted>
1.9331

> <Gold.Chemscore.Rot.Weighted>
6.9081

> <Gold.Chemscore.Internal.Correction.Weighted>
   9.000000E+99

> <Gold.Protein.RotatedTorsions>
[ 6907 6896 6895 6894 ] final  -49.24 input  -60.11 | X-H torsion
[ 7974 7965 7964 7962 ] final   41.89 input  175.53 | X-H torsion
[ 8008 7997 7996 7995 ] final -167.58 input   59.86 | X-H torsion
[ 10167 10162 10161 10158 ] final  156.36 input  -65.29 | X-H torsion
[ 10718 10713 10712 10709 ] final  -30.13 input   66.30 | X-H torsion
[ 10763 10752 10751 10750 ] final   58.63 input  -60.55 | X-H torsion
[ 11005 11000 10999 10996 ] final -127.01 input  -57.11 | X-H torsion

> <Gold.Protein.ActiveResidues>
 VAL166  LYS551  ARG553  GLY616  TRP617  ASP618  TYR619  PRO620  LYS621  CYS622 
 ASP623  PHE694  ASN695  SER759  ASP760  ASP761  ALA762  ILE779  LEU786  VAL792 
 PHE793  MET794  SER795  GLU796  ALA797  LYS798  CYS799  TRP800  GLU811  SER814 

> <Gold.Protein.RotatedAtoms>
  150.8825  134.8218  159.7234 H   0  0  0  0  0  0  0  0  0  0  0  0  # atno 6907 bound_to 6896
  152.4787  134.4774  159.9664 H   0  0  0  0  0  0  0  0  0  0  0  0  # atno 6908 bound_to 6896
  151.4847  133.3499  159.2879 H   0  0  0  0  0  0  0  0  0  0  0  0  # atno 6909 bound_to 6896
  146.0786  139.5364  142.9551 H   0  0  0  0  0  0  0  0  0  0  0  0  # atno 7974 bound_to 7965
  155.8796  140.1007  157.1494 H   0  0  0  0  0  0  0  0  0  0  0  0  # atno 8008 bound_to 7997
  154.4004  140.1331  156.4243 H   0  0  0  0  0  0  0  0  0  0  0  0  # atno 8009 bound_to 7997
  155.7658  140.3462  155.5224 H   0  0  0  0  0  0  0  0  0  0  0  0  # atno 8010 bound_to 7997
  139.4821  144.5016  151.8160 H   0  0  0  0  0  0  0  0  0  0  0  0  # atno 10167 bound_to 10162
  156.4036  130.4395  149.7304 H   0  0  0  0  0  0  0  0  0  0  0  0  # atno 10718 bound_to 10713
  152.9875  135.5600  154.5582 H   0  0  0  0  0  0  0  0  0  0  0  0  # atno 10763 bound_to 10752
  154.5006  135.2797  155.1425 H   0  0  0  0  0  0  0  0  0  0  0  0  # atno 10764 bound_to 10752
  154.2857  135.6336  153.5418 H   0  0  0  0  0  0  0  0  0  0  0  0  # atno 10765 bound_to 10752
  140.9634  134.0904  157.3944 H   0  0  0  0  0  0  0  0  0  0  0  0  # atno 11005 bound_to 11000
  145.6259  141.0313  143.1889 LP  0  0  0  0  0  0  0  0  0  0  0  0  # atno 17320 bound_to 7965
  144.7278  139.7820  143.7358 LP  0  0  0  0  0  0  0  0  0  0  0  0  # atno 17321 bound_to 7965
  140.4510  144.1855  150.5897 LP  0  0  0  0  0  0  0  0  0  0  0  0  # atno 17342 bound_to 10162
  140.4585  143.2458  151.9252 LP  0  0  0  0  0  0  0  0  0  0  0  0  # atno 17343 bound_to 10162
  156.4310  130.7815  151.2835 LP  0  0  0  0  0  0  0  0  0  0  0  0  # atno 17370 bound_to 10713
  157.7505  131.0154  150.3502 LP  0  0  0  0  0  0  0  0  0  0  0  0  # atno 17371 bound_to 10713
  139.8886  135.0099  156.6630 LP  0  0  0  0  0  0  0  0  0  0  0  0  # atno 17394 bound_to 11000
  140.7434  133.8959  155.8294 LP  0  0  0  0  0  0  0  0  0  0  0  0  # atno 17395 bound_to 11000

$$$$
