AV-unprocessed.smi:1285|AV-procd|sdf|5372|dock2
  -GOLD-   22720 4513D 1   1.00000     0.00000
 Structure written by MMmdl.
 47 48  0  0  0  0  0  0  0  0  2 V2000
  146.5922  133.7104  153.3398 C   0  0  0  0  0  0  0  0  0  0  0  0
  148.0958  133.6233  153.6575 C   0  0  0  0  0  0  0  0  0  0  0  0
  148.5996  134.5621  154.7974 C   0  0  2  0  0  0  0  0  0  0  0  0
  150.1128  134.2755  154.9906 C   0  0  0  0  0  0  0  0  0  0  0  0
  147.8306  134.2261  156.1143 C   0  0  0  0  0  0  0  0  0  0  0  0
  147.8861  135.3021  157.1010 N   0  0  0  0  0  0  0  0  0  0  0  0
  148.2443  135.1738  158.3884 C   0  0  0  0  0  0  0  0  0  0  0  0
  148.6587  134.1199  158.8720 O   0  0  0  0  0  0  0  0  0  0  0  0
  148.0637  136.4262  159.2591 C   0  0  2  0  0  0  0  0  0  0  0  0
  149.3163  137.3224  159.2958 C   0  0  0  0  0  0  0  0  0  0  0  0
  147.6526  136.0296  160.5996 N   0  0  0  0  0  0  0  0  0  0  0  0
  146.6878  135.2020  161.0108 C   0  0  0  0  0  0  0  0  0  0  0  0
  146.5646  135.1331  162.3288 N   0  0  0  0  0  0  0  0  0  0  0  0
  147.5495  136.0054  162.6960 C   0  0  0  0  0  0  0  0  0  0  0  0
  148.2236  136.5785  161.6991 N   0  0  0  0  0  0  0  0  0  0  0  0
  148.3931  136.0066  154.4142 N   0  3  0  0  0  0  0  0  0  0  0  0
  146.9899  136.5043  154.4835 C   0  0  0  0  0  0  0  0  0  0  0  0
  146.8876  137.9113  153.8730 C   0  0  0  0  0  0  0  0  0  0  0  0
  147.7608  138.7931  154.5640 O   0  0  0  0  0  0  0  0  0  0  0  0
  149.1174  138.3883  154.4456 C   0  0  0  0  0  0  0  0  0  0  0  0
  149.3021  136.9927  155.0651 C   0  0  0  0  0  0  0  0  0  0  0  0
  146.3333  133.0195  152.5372 H   0  0  0  0  0  0  0  0  0  0  0  0
  146.3047  134.7083  153.0095 H   0  0  0  0  0  0  0  0  0  0  0  0
  145.9777  133.4498  154.2013 H   0  0  0  0  0  0  0  0  0  0  0  0
  148.3508  132.5867  153.8755 H   0  0  0  0  0  0  0  0  0  0  0  0
  148.6359  133.8445  152.7360 H   0  0  0  0  0  0  0  0  0  0  0  0
  150.3215  133.2058  155.0234 H   0  0  0  0  0  0  0  0  0  0  0  0
  150.4919  134.6901  155.9249 H   0  0  0  0  0  0  0  0  0  0  0  0
  150.7112  134.6911  154.1795 H   0  0  0  0  0  0  0  0  0  0  0  0
  146.7924  133.9652  155.9077 H   0  0  0  0  0  0  0  0  0  0  0  0
  148.2655  133.3529  156.5994 H   0  0  0  0  0  0  0  0  0  0  0  0
  147.5633  136.2097  156.7969 H   0  0  0  0  0  0  0  0  0  0  0  0
  147.2556  137.0138  158.8193 H   0  0  0  0  0  0  0  0  0  0  0  0
  149.5956  137.6494  158.2933 H   0  0  0  0  0  0  0  0  0  0  0  0
  150.1750  136.8073  159.7283 H   0  0  0  0  0  0  0  0  0  0  0  0
  149.1357  138.2179  159.8910 H   0  0  0  0  0  0  0  0  0  0  0  0
  146.0545  134.6490  160.3326 H   0  0  0  0  0  0  0  0  0  0  0  0
  147.7706  136.2315  163.7290 H   0  0  0  0  0  0  0  0  0  0  0  0
  146.3059  135.8530  153.9435 H   0  0  0  0  0  0  0  0  0  0  0  0
  146.6510  136.5410  155.5191 H   0  0  0  0  0  0  0  0  0  0  0  0
  147.1292  137.8940  152.8090 H   0  0  0  0  0  0  0  0  0  0  0  0
  145.8677  138.2858  153.9619 H   0  0  0  0  0  0  0  0  0  0  0  0
  149.4215  138.3928  153.3975 H   0  0  0  0  0  0  0  0  0  0  0  0
  149.7472  139.1134  154.9613 H   0  0  0  0  0  0  0  0  0  0  0  0
  149.1027  137.0413  156.1357 H   0  0  0  0  0  0  0  0  0  0  0  0
  150.3483  136.7183  154.9452 H   0  0  0  0  0  0  0  0  0  0  0  0
  148.6354  136.0402  153.4341 H   0  0  0  0  0  0  0  0  0  0  0  0
  1  2  1  0  0  0  0
  1 22  1  0  0  0  0
  1 23  1  0  0  0  0
  1 24  1  0  0  0  0
  2  3  1  0  0  0  0
  2 25  1  0  0  0  0
  2 26  1  0  0  0  0
  3  4  1  0  0  0  0
  3  5  1  0  0  0  0
  3 16  1  0  0  0  0
  4 27  1  0  0  0  0
  4 28  1  0  0  0  0
  4 29  1  0  0  0  0
  5  6  1  0  0  0  0
  5 30  1  0  0  0  0
  5 31  1  0  0  0  0
  6  7  1  0  0  0  0
  6 32  1  0  0  0  0
  7  8  2  0  0  0  0
  7  9  1  0  0  0  0
  9 10  1  0  0  0  0
  9 11  1  0  0  0  0
  9 33  1  0  0  0  0
 10 34  1  0  0  0  0
 10 35  1  0  0  0  0
 10 36  1  0  0  0  0
 11 15  1  0  0  0  0
 11 12  1  0  0  0  0
 12 13  2  0  0  0  0
 12 37  1  0  0  0  0
 13 14  1  0  0  0  0
 14 15  2  0  0  0  0
 14 38  1  0  0  0  0
 16 21  1  0  0  0  0
 16 17  1  0  0  0  0
 16 47  1  0  0  0  0
 17 18  1  0  0  0  0
 17 39  1  0  0  0  0
 17 40  1  0  0  0  0
 18 19  1  0  0  0  0
 18 41  1  0  0  0  0
 18 42  1  0  0  0  0
 19 20  1  0  0  0  0
 20 21  1  0  0  0  0
 20 43  1  0  0  0  0
 20 44  1  0  0  0  0
 21 45  1  0  0  0  0
 21 46  1  0  0  0  0
M  CHG  1  16   1
M  END
> <s_m_source_file>
AV-unprocessed.smi

> <i_m_source_file_index>
1285

> <i_lp_mmshare_version>
43012

> <i_f3d_flags>
0

> <s_epik_input>
W0NIMl0xW0NIMl1PW0NIMl1bQ0gyXU4xW0NAQF0oW0NIM10pKFtDSDJdW0NIM10pW0NIMl1bTkhdQyg9TylbQ0BIXShbQ0gzXSluMltjSF1uW2NIXW4y

> <s_epik_cmdline>
J2VwaWtfcHl0aG9uJywgJy1waCcsICc3LjAnLCAnLXRuJywgJzgnLCAnLW1hJywgJzIwMCcsICctbWV0YWxfYmluZGluZycsICctaW1hZScsICc8aW5maWxlLm1hZT4nLCAnLW9tYWUnLCAnPG91dGZpbGUubWFlPic=

> <r_lp_tautomer_probability>
1

> <r_epik_Ionization_Penalty>
0.569304

> <r_epik_Ionization_Penalty_Charging>
0.569295

> <r_epik_Ionization_Penalty_Neutral>
8.22697e-06

> <r_epik_State_Penalty>
0.581114

> <r_epik_Charging_Adjusted_Penalty>
1.15041

> <i_epik_Tot_Q>
1

> <i_epik_Tot_abs_Q>
1

> <r_epik_Metal_State_Penalty>
0.581117

> <b_epik_Metal_Only>
0

> <s_lp_Force_Field>
OPLS_2005

> <r_lp_Energy>
32.2271

> <b_lp_Chiralities_Consistent>
1

> <s_lp_Variant>
AV-unprocessed.smi:1285-6

> <Gold.Version>
5.8.1

> <Gold.Id.Protein>
6NUR|6NUR_protein|mol2

> <Gold.PLP.Fitness>
35.2978

> <Gold.PLP.PLP>
-26.4820

> <Gold.PLP.part.hbond>
-3.0000

> <Gold.PLP.part.metal>
0.0000

> <Gold.PLP.part.buried>
-3.7563

> <Gold.PLP.part.nonpolar>
-20.0840

> <Gold.PLP.part.repulsive>
0.1281

> <Gold.PLP.ligand.clash>
0.0000

> <Gold.PLP.ligand.torsion>
1.7972

> <Gold.PLP.Chemscore.Hbond>
4.0000

> <Gold.PLP.Chemscore.CHOScore>
0.0000

> <Gold.PLP.Chemscore.Metal>
0.0000

> <Gold.Chemscore.Hbonds>
donor molecule, donor type, donor heavy atom, donor atom, acceptor molecule, acceptor atom, score
      L1  H    16    47       P1  7948  2.00
      P1  H  6896  6908       L1     8  0.93
      P1  H  6931  6943       L1    15  1.00

> <Gold.PLP.Chemscore.Internal.Correction>
0.4101

> <Gold.Rescore>
     Score         DG    S(hbond)    S(metal)    S(lipo)     H(rot)  DE(clash)    DE(int)     intcor
     10.15     -13.37       2.95        0.00      43.69       2.76       0.01       3.20       ----

> <Gold.Chemscore.Fitness>
10.1542

> <Gold.Chemscore.DG>
-13.3661

> <Gold.Chemscore.ZeroCoef>
-5.4800

> <Gold.Chemscore.Hbond>
2.9452

> <Gold.Chemscore.Metal>
0.0000

> <Gold.Chemscore.Lipo>
43.6897

> <Gold.Chemscore.Internal_Hbond>
0.0000

> <Gold.Chemscore.DEClash>
0.0105

> <Gold.Chemscore.DEInternal>
3.2013

> <Gold.Chemscore.Rot>
2.7589

> <Gold.Chemscore.Internal.Correction>
   9.000000E+99

> <Gold.Chemscore.Hbonds>
donor molecule, donor type, donor heavy atom, donor atom, acceptor molecule, acceptor atom, score
      L1  H    16    47       P1  7948  0.99
      P1  H  6896  6908       L1     8  0.69
      P1  H  6931  6943       L1    15  0.98

> <Gold.Chemscore.Hbond.Weighted>
-9.8371

> <Gold.Chemscore.Metal.Weighted>
-0.0000

> <Gold.Chemscore.Lipo.Weighted>
-5.1117

> <Gold.Chemscore.Internal_Hbond.Weighted>
0.0000

> <Gold.Chemscore.DEClash.Weighted>
0.0105

> <Gold.Chemscore.DEInternal.Weighted>
3.2013

> <Gold.Chemscore.Rot.Weighted>
7.0627

> <Gold.Chemscore.Internal.Correction.Weighted>
   9.000000E+99

> <Gold.Protein.RotatedTorsions>
[ 6907 6896 6895 6894 ] final  154.29 input  -60.11 | X-H torsion
[ 7974 7965 7964 7962 ] final  108.34 input  175.53 | X-H torsion
[ 8008 7997 7996 7995 ] final   48.03 input   59.86 | X-H torsion
[ 10167 10162 10161 10158 ] final -145.69 input  -65.29 | X-H torsion
[ 10718 10713 10712 10709 ] final -110.63 input   66.30 | X-H torsion
[ 10763 10752 10751 10750 ] final   63.83 input  -60.55 | X-H torsion
[ 11005 11000 10999 10996 ] final   59.23 input  -57.11 | X-H torsion

> <Gold.Protein.ActiveResidues>
 VAL166  LYS551  ARG553  GLY616  TRP617  ASP618  TYR619  PRO620  LYS621  CYS622 
 ASP623  PHE694  ASN695  SER759  ASP760  ASP761  ALA762  ILE779  LEU786  VAL792 
 PHE793  MET794  SER795  GLU796  ALA797  LYS798  CYS799  TRP800  GLU811  SER814 

> <Gold.Protein.RotatedAtoms>
  152.0605  133.4060  159.4415 H   0  0  0  0  0  0  0  0  0  0  0  0  # atno 6907 bound_to 6896
  150.6866  134.3205  159.4794 H   0  0  0  0  0  0  0  0  0  0  0  0  # atno 6908 bound_to 6896
  152.1026  134.9331  160.0620 H   0  0  0  0  0  0  0  0  0  0  0  0  # atno 6909 bound_to 6896
  145.2820  139.2629  143.3910 H   0  0  0  0  0  0  0  0  0  0  0  0  # atno 7974 bound_to 7965
  155.3789  140.3427  155.4246 H   0  0  0  0  0  0  0  0  0  0  0  0  # atno 8008 bound_to 7997
  156.1621  140.1604  156.8628 H   0  0  0  0  0  0  0  0  0  0  0  0  # atno 8009 bound_to 7997
  154.5150  140.0781  156.8045 H   0  0  0  0  0  0  0  0  0  0  0  0  # atno 8010 bound_to 7997
  139.7782  143.8139  152.2635 H   0  0  0  0  0  0  0  0  0  0  0  0  # atno 10167 bound_to 10162
  156.0601  130.5825  150.8263 H   0  0  0  0  0  0  0  0  0  0  0  0  # atno 10718 bound_to 10713
  153.0032  135.5415  154.6414 H   0  0  0  0  0  0  0  0  0  0  0  0  # atno 10763 bound_to 10752
  154.5668  135.2838  155.0868 H   0  0  0  0  0  0  0  0  0  0  0  0  # atno 10764 bound_to 10752
  154.2049  135.6477  153.5150 H   0  0  0  0  0  0  0  0  0  0  0  0  # atno 10765 bound_to 10752
  140.0319  134.6000  155.9496 H   0  0  0  0  0  0  0  0  0  0  0  0  # atno 11005 bound_to 11000
  146.3213  140.3289  142.8639 LP  0  0  0  0  0  0  0  0  0  0  0  0  # atno 17320 bound_to 7965
  144.9245  140.7906  143.5727 LP  0  0  0  0  0  0  0  0  0  0  0  0  # atno 17321 bound_to 7965
  139.8194  144.7302  150.9593 LP  0  0  0  0  0  0  0  0  0  0  0  0  # atno 17342 bound_to 10162
  140.7817  143.4174  151.0896 LP  0  0  0  0  0  0  0  0  0  0  0  0  # atno 17343 bound_to 10162
  157.5603  131.0946  150.9568 LP  0  0  0  0  0  0  0  0  0  0  0  0  # atno 17370 bound_to 10713
  156.9807  130.5526  149.5296 LP  0  0  0  0  0  0  0  0  0  0  0  0  # atno 17371 bound_to 10713
  141.1836  133.6551  156.5121 LP  0  0  0  0  0  0  0  0  0  0  0  0  # atno 17394 bound_to 11000
  140.4212  134.7186  157.4890 LP  0  0  0  0  0  0  0  0  0  0  0  0  # atno 17395 bound_to 11000

$$$$
