AV-unprocessed.smi:3303|AV-procd|sdf|12658|dock5
  -GOLD-   2272018593D 1   1.00000     0.00000
 Structure written by MMmdl.
 45 46  0  0  0  0  0  0  0  0  3 V2000
  146.0394  142.9580  153.9055 C   0  0  0  0  0  0  0  0  0  0  0  0
  145.9316  142.6849  155.4207 C   0  0  1  0  0  0  0  0  0  0  0  0
  144.4763  142.3933  155.8352 C   0  0  0  0  0  0  0  0  0  0  0  0
  144.0020  141.0762  155.3317 N   0  3  2  0  0  0  0  0  0  0  0  0
  142.5584  140.8913  155.6180 C   0  0  0  0  0  0  0  0  0  0  0  0
  144.8635  139.9480  155.8003 C   0  0  1  0  0  0  0  0  0  0  0  0
  144.4091  138.5845  155.2430 C   0  0  0  0  0  0  0  0  0  0  0  0
  146.3425  140.1916  155.4238 C   0  0  0  0  0  0  0  0  0  0  0  0
  146.8506  141.5546  155.9324 C   0  0  1  0  0  0  0  0  0  0  0  0
  148.2653  141.8117  155.5707 N   0  3  0  0  0  0  0  0  0  0  0  0
  149.2713  141.1084  156.3936 C   0  0  0  0  0  0  0  0  0  0  0  0
  150.6458  141.7808  156.2742 C   0  0  0  0  0  0  0  0  0  0  0  0
  151.2041  142.1846  157.6255 C   0  0  0  0  0  0  0  0  0  0  0  0
  151.4464  143.5409  157.9308 C   0  0  0  0  0  0  0  0  0  0  0  0
  151.9686  143.8591  159.1997 C   0  0  0  0  0  0  0  0  0  0  0  0
  152.2284  142.8145  160.1077 C   0  0  0  0  0  0  0  0  0  0  0  0
  151.9535  141.4924  159.7053 C   0  0  0  0  0  0  0  0  0  0  0  0
  151.4529  141.1764  158.4910 N   0  0  0  0  0  0  0  0  0  0  0  0
  145.7451  142.0946  153.3089 H   0  0  0  0  0  0  0  0  0  0  0  0
  147.0544  143.2304  153.6160 H   0  0  0  0  0  0  0  0  0  0  0  0
  145.3939  143.7874  153.6152 H   0  0  0  0  0  0  0  0  0  0  0  0
  146.2320  143.6053  155.9235 H   0  0  0  0  0  0  0  0  0  0  0  0
  144.3899  142.4094  156.9231 H   0  0  0  0  0  0  0  0  0  0  0  0
  143.8268  143.1873  155.4637 H   0  0  0  0  0  0  0  0  0  0  0  0
  142.3870  140.7345  156.6838 H   0  0  0  0  0  0  0  0  0  0  0  0
  142.1460  140.0440  155.0711 H   0  0  0  0  0  0  0  0  0  0  0  0
  141.9870  141.7672  155.3091 H   0  0  0  0  0  0  0  0  0  0  0  0
  144.7929  139.9058  156.8887 H   0  0  0  0  0  0  0  0  0  0  0  0
  145.1080  137.7965  155.5249 H   0  0  0  0  0  0  0  0  0  0  0  0
  144.3513  138.5976  154.1542 H   0  0  0  0  0  0  0  0  0  0  0  0
  143.4356  138.2854  155.6311 H   0  0  0  0  0  0  0  0  0  0  0  0
  146.9457  139.3882  155.8466 H   0  0  0  0  0  0  0  0  0  0  0  0
  146.4673  140.1239  154.3425 H   0  0  0  0  0  0  0  0  0  0  0  0
  146.7926  141.5555  157.0224 H   0  0  0  0  0  0  0  0  0  0  0  0
  148.4070  141.5722  154.5996 H   0  0  0  0  0  0  0  0  0  0  0  0
  148.9487  141.1093  157.4357 H   0  0  0  0  0  0  0  0  0  0  0  0
  149.3467  140.0679  156.0778 H   0  0  0  0  0  0  0  0  0  0  0  0
  151.3494  141.1079  155.7819 H   0  0  0  0  0  0  0  0  0  0  0  0
  150.5767  142.6681  155.6428 H   0  0  0  0  0  0  0  0  0  0  0  0
  151.2370  144.3213  157.2139 H   0  0  0  0  0  0  0  0  0  0  0  0
  152.1664  144.8853  159.4713 H   0  0  0  0  0  0  0  0  0  0  0  0
  152.6280  143.0213  161.0895 H   0  0  0  0  0  0  0  0  0  0  0  0
  152.1421  140.6669  160.3756 H   0  0  0  0  0  0  0  0  0  0  0  0
  148.4321  142.8020  155.6809 H   0  0  0  0  0  0  0  0  0  0  0  0
  144.0873  141.1085  154.3257 H   0  0  0  0  0  0  0  0  0  0  0  0
  1  2  1  0  0  0  0
  1 19  1  0  0  0  0
  1 20  1  0  0  0  0
  1 21  1  0  0  0  0
  2  9  1  0  0  0  0
  2  3  1  0  0  0  0
  2 22  1  0  0  0  0
  3  4  1  0  0  0  0
  3 23  1  0  0  0  0
  3 24  1  0  0  0  0
  4  5  1  0  0  0  0
  4  6  1  0  0  0  0
  4 45  1  0  0  0  0
  5 25  1  0  0  0  0
  5 26  1  0  0  0  0
  5 27  1  0  0  0  0
  6  7  1  0  0  0  0
  6  8  1  0  0  0  0
  6 28  1  0  0  0  0
  7 29  1  0  0  0  0
  7 30  1  0  0  0  0
  7 31  1  0  0  0  0
  8  9  1  0  0  0  0
  8 32  1  0  0  0  0
  8 33  1  0  0  0  0
  9 10  1  0  0  0  0
  9 34  1  0  0  0  0
 10 11  1  0  0  0  0
 10 35  1  0  0  0  0
 10 44  1  0  0  0  0
 11 12  1  0  0  0  0
 11 36  1  0  0  0  0
 11 37  1  0  0  0  0
 12 13  1  0  0  0  0
 12 38  1  0  0  0  0
 12 39  1  0  0  0  0
 13 18  1  0  0  0  0
 13 14  2  0  0  0  0
 14 15  1  0  0  0  0
 14 40  1  0  0  0  0
 15 16  2  0  0  0  0
 15 41  1  0  0  0  0
 16 17  1  0  0  0  0
 16 42  1  0  0  0  0
 17 18  2  0  0  0  0
 17 43  1  0  0  0  0
M  CHG  1   4   1
M  CHG  1  10   1
M  END
> <s_m_source_file>
AV-unprocessed.smi

> <i_m_source_file_index>
3303

> <i_lp_mmshare_version>
43012

> <i_f3d_flags>
0

> <s_epik_input>
W0NIM11bQ0BASF0xW0NIMl1OKFtDSDNdKVtDQEBIXShbQ0gzXSlbQ0gyXVtDQEhdMVtOSF1bQ0gyXVtDSDJdYzJbY0hdW2NIXVtjSF1bY0hdbjI=

> <s_epik_cmdline>
J2VwaWtfcHl0aG9uJywgJy1waCcsICc3LjAnLCAnLXRuJywgJzgnLCAnLW1hJywgJzIwMCcsICctbWV0YWxfYmluZGluZycsICctaW1hZScsICc8aW5maWxlLm1hZT4nLCAnLW9tYWUnLCAnPG91dGZpbGUubWFlPic=

> <r_epik_Ionization_Penalty>
0.0769462

> <r_epik_Ionization_Penalty_Charging>
0.0759813

> <r_epik_Ionization_Penalty_Neutral>
0.000964829

> <r_epik_State_Penalty>
0.0654373

> <r_epik_Charging_Adjusted_Penalty>
0.141419

> <i_epik_Tot_Q>
2

> <i_epik_Tot_abs_Q>
2

> <r_epik_Metal_State_Penalty>
0.0656439

> <b_epik_Metal_Only>
0

> <s_lp_Force_Field>
OPLS_2005

> <r_lp_Energy>
30.9153

> <b_lp_Chiralities_Consistent>
1

> <s_lp_Variant>
AV-unprocessed.smi:3303-2

> <Gold.Version>
5.8.1

> <Gold.Id.Protein>
6NUR|6NUR_protein|mol2

> <Gold.PLP.Fitness>
45.0368

> <Gold.PLP.PLP>
-34.3227

> <Gold.PLP.part.hbond>
-2.0000

> <Gold.PLP.part.metal>
0.0000

> <Gold.PLP.part.buried>
-5.3691

> <Gold.PLP.part.nonpolar>
-27.0454

> <Gold.PLP.part.repulsive>
0.1205

> <Gold.PLP.ligand.clash>
0.0000

> <Gold.PLP.ligand.torsion>
0.6485

> <Gold.PLP.Chemscore.Hbond>
4.0000

> <Gold.PLP.Chemscore.CHOScore>
0.0000

> <Gold.PLP.Chemscore.Metal>
0.0000

> <Gold.Chemscore.Hbonds>
donor molecule, donor type, donor heavy atom, donor atom, acceptor molecule, acceptor atom, score
      L1  H     4    45       P1 10175  2.00
      L1  H    10    44       P1  8028  2.00

> <Gold.PLP.Chemscore.Internal.Correction>
0.0111

> <Gold.Rescore>
     Score         DG    S(hbond)    S(metal)    S(lipo)     H(rot)  DE(clash)    DE(int)     intcor
     18.30     -19.51       1.93        0.00      95.01       1.37       0.57       0.64       ----

> <Gold.Chemscore.Fitness>
18.3018

> <Gold.Chemscore.DG>
-19.5118

> <Gold.Chemscore.ZeroCoef>
-5.4800

> <Gold.Chemscore.Hbond>
1.9263

> <Gold.Chemscore.Metal>
0.0000

> <Gold.Chemscore.Lipo>
95.0104

> <Gold.Chemscore.Internal_Hbond>
0.0000

> <Gold.Chemscore.DEClash>
0.5686

> <Gold.Chemscore.DEInternal>
0.6413

> <Gold.Chemscore.Rot>
1.3744

> <Gold.Chemscore.Internal.Correction>
   9.000000E+99

> <Gold.Chemscore.Hbonds>
donor molecule, donor type, donor heavy atom, donor atom, acceptor molecule, acceptor atom, score
      L1  H     4    45       P1 10175  0.75
      L1  H    10    44       P1  8028  0.98

> <Gold.Chemscore.Hbond.Weighted>
-6.4340

> <Gold.Chemscore.Metal.Weighted>
-0.0000

> <Gold.Chemscore.Lipo.Weighted>
-11.1162

> <Gold.Chemscore.Internal_Hbond.Weighted>
0.0000

> <Gold.Chemscore.DEClash.Weighted>
0.5686

> <Gold.Chemscore.DEInternal.Weighted>
0.6413

> <Gold.Chemscore.Rot.Weighted>
3.5185

> <Gold.Chemscore.Internal.Correction.Weighted>
   9.000000E+99

> <Gold.Protein.RotatedTorsions>
[ 6907 6896 6895 6894 ] final    5.29 input  -60.11 | X-H torsion
[ 7974 7965 7964 7962 ] final  109.22 input  175.53 | X-H torsion
[ 8008 7997 7996 7995 ] final  175.78 input   59.86 | X-H torsion
[ 10167 10162 10161 10158 ] final -125.54 input  -65.29 | X-H torsion
[ 10718 10713 10712 10709 ] final   -3.63 input   66.30 | X-H torsion
[ 10763 10752 10751 10750 ] final  128.30 input  -60.55 | X-H torsion
[ 11005 11000 10999 10996 ] final -170.22 input  -57.11 | X-H torsion

> <Gold.Protein.ActiveResidues>
 VAL166  LYS551  ARG553  GLY616  TRP617  ASP618  TYR619  PRO620  LYS621  CYS622 
 ASP623  PHE694  ASN695  SER759  ASP760  ASP761  ALA762  ILE779  LEU786  VAL792 
 PHE793  MET794  SER795  GLU796  ALA797  LYS798  CYS799  TRP800  GLU811  SER814 

> <Gold.Protein.RotatedAtoms>
  151.6551  135.0996  160.0168 H   0  0  0  0  0  0  0  0  0  0  0  0  # atno 6907 bound_to 6896
  152.3979  133.6769  159.6300 H   0  0  0  0  0  0  0  0  0  0  0  0  # atno 6908 bound_to 6896
  150.7883  133.8759  159.3313 H   0  0  0  0  0  0  0  0  0  0  0  0  # atno 6909 bound_to 6896
  145.2706  139.2668  143.3968 H   0  0  0  0  0  0  0  0  0  0  0  0  # atno 7974 bound_to 7965
  156.0835  140.1400  156.9683 H   0  0  0  0  0  0  0  0  0  0  0  0  # atno 8008 bound_to 7997
  154.4599  140.0947  156.6911 H   0  0  0  0  0  0  0  0  0  0  0  0  # atno 8009 bound_to 7997
  155.5037  140.3451  155.4378 H   0  0  0  0  0  0  0  0  0  0  0  0  # atno 8010 bound_to 7997
  139.9810  143.5742  152.2378 H   0  0  0  0  0  0  0  0  0  0  0  0  # atno 10167 bound_to 10162
  156.7731  130.5306  149.5764 H   0  0  0  0  0  0  0  0  0  0  0  0  # atno 10718 bound_to 10713
  153.7233  135.3250  155.3271 H   0  0  0  0  0  0  0  0  0  0  0  0  # atno 10763 bound_to 10752
  154.8349  135.4505  154.1195 H   0  0  0  0  0  0  0  0  0  0  0  0  # atno 10764 bound_to 10752
  153.2322  135.6961  153.7958 H   0  0  0  0  0  0  0  0  0  0  0  0  # atno 10765 bound_to 10752
  140.5219  134.5701  157.5050 H   0  0  0  0  0  0  0  0  0  0  0  0  # atno 11005 bound_to 11000
  146.3247  140.3148  142.8629 LP  0  0  0  0  0  0  0  0  0  0  0  0  # atno 17320 bound_to 7965
  144.9338  140.8004  143.5672 LP  0  0  0  0  0  0  0  0  0  0  0  0  # atno 17321 bound_to 7965
  139.6410  144.7654  151.2340 LP  0  0  0  0  0  0  0  0  0  0  0  0  # atno 17342 bound_to 10162
  140.7489  143.6318  150.8416 LP  0  0  0  0  0  0  0  0  0  0  0  0  # atno 17343 bound_to 10162
  156.1265  130.6147  151.0271 LP  0  0  0  0  0  0  0  0  0  0  0  0  # atno 17370 bound_to 10713
  157.6681  131.0867  150.7678 LP  0  0  0  0  0  0  0  0  0  0  0  0  # atno 17371 bound_to 10713
  139.9601  134.7467  156.0255 LP  0  0  0  0  0  0  0  0  0  0  0  0  # atno 17394 bound_to 11000
  141.1329  133.6582  156.3514 LP  0  0  0  0  0  0  0  0  0  0  0  0  # atno 17395 bound_to 11000

$$$$
