AV-unprocessed.smi:870|AV-procd|sdf|4010|dock3
  -GOLD-   22720 1503D 1   1.00000     0.00000
 Structure written by MMmdl.
 47 49  0  0  0  0  0  0  0  0  2 V2000
  149.9001  138.6895  154.3911 C   0  0  0  0  0  0  0  0  0  0  0  0
  150.1577  140.0811  154.3226 O   0  0  0  0  0  0  0  0  0  0  0  0
  149.3718  140.8244  155.2401 C   0  0  0  0  0  0  0  0  0  0  0  0
  150.1690  141.2778  156.4191 C   0  0  0  0  0  0  0  0  0  0  0  0
  150.5746  142.5547  156.6714 N   0  3  0  0  0  0  0  0  0  0  0  0
  151.2959  142.5953  157.8652 C   0  0  0  0  0  0  0  0  0  0  0  0
  151.9024  143.6571  158.5292 C   0  0  0  0  0  0  0  0  0  0  0  0
  152.5624  143.3531  159.7381 C   0  0  0  0  0  0  0  0  0  0  0  0
  152.6025  142.0366  160.2422 C   0  0  0  0  0  0  0  0  0  0  0  0
  151.9844  140.9681  159.5596 C   0  0  0  0  0  0  0  0  0  0  0  0
  151.3336  141.2780  158.3659 C   0  0  0  0  0  0  0  0  0  0  0  0
  150.6261  140.5008  157.4430 N   0  0  0  0  0  0  0  0  0  0  0  0
  150.4773  139.0574  157.6848 C   0  0  0  0  0  0  0  0  0  0  0  0
  149.2700  138.7203  158.5831 C   0  0  1  0  0  0  0  0  0  0  0  0
  148.0894  138.7862  157.8077 O   0  0  0  0  0  0  0  0  0  0  0  0
  149.3807  137.3110  159.1843 C   0  0  0  0  0  0  0  0  0  0  0  0
  148.4615  137.2040  160.2629 O   0  0  0  0  0  0  0  0  0  0  0  0
  148.0522  135.9468  160.6580 C   0  0  0  0  0  0  0  0  0  0  0  0
  148.2039  134.7824  159.8617 C   0  0  0  0  0  0  0  0  0  0  0  0
  147.7609  133.5313  160.3313 C   0  0  0  0  0  0  0  0  0  0  0  0
  147.1626  133.4250  161.5993 C   0  0  0  0  0  0  0  0  0  0  0  0
  147.0082  134.5720  162.3985 C   0  0  0  0  0  0  0  0  0  0  0  0
  147.4500  135.8284  161.9327 C   0  0  0  0  0  0  0  0  0  0  0  0
  147.2744  137.0555  162.8078 C   0  0  0  0  0  0  0  0  0  0  0  0
  150.5191  138.1654  153.6628 H   0  0  0  0  0  0  0  0  0  0  0  0
  148.8559  138.4693  154.1657 H   0  0  0  0  0  0  0  0  0  0  0  0
  150.1356  138.2937  155.3798 H   0  0  0  0  0  0  0  0  0  0  0  0
  148.9514  141.6998  154.7434 H   0  0  0  0  0  0  0  0  0  0  0  0
  148.5389  140.2160  155.5958 H   0  0  0  0  0  0  0  0  0  0  0  0
  151.8729  144.6662  158.1450 H   0  0  0  0  0  0  0  0  0  0  0  0
  153.0471  144.1453  160.2901 H   0  0  0  0  0  0  0  0  0  0  0  0
  153.1173  141.8418  161.1720 H   0  0  0  0  0  0  0  0  0  0  0  0
  152.0190  139.9634  159.9543 H   0  0  0  0  0  0  0  0  0  0  0  0
  150.3774  138.5658  156.7164 H   0  0  0  0  0  0  0  0  0  0  0  0
  151.4054  138.6859  158.1214 H   0  0  0  0  0  0  0  0  0  0  0  0
  149.2031  139.4549  159.3863 H   0  0  0  0  0  0  0  0  0  0  0  0
  147.4169  139.2043  158.3241 H   0  0  0  0  0  0  0  0  0  0  0  0
  149.2025  136.5501  158.4221 H   0  0  0  0  0  0  0  0  0  0  0  0
  150.3889  137.1643  159.5753 H   0  0  0  0  0  0  0  0  0  0  0  0
  148.6591  134.8208  158.8839 H   0  0  0  0  0  0  0  0  0  0  0  0
  147.8812  132.6513  159.7169 H   0  0  0  0  0  0  0  0  0  0  0  0
  146.8230  132.4648  161.9592 H   0  0  0  0  0  0  0  0  0  0  0  0
  146.5479  134.4826  163.3717 H   0  0  0  0  0  0  0  0  0  0  0  0
  146.7808  136.8080  163.7479 H   0  0  0  0  0  0  0  0  0  0  0  0
  146.6694  137.8037  162.2951 H   0  0  0  0  0  0  0  0  0  0  0  0
  148.2441  137.4965  163.0399 H   0  0  0  0  0  0  0  0  0  0  0  0
  150.3666  143.3385  156.0662 H   0  0  0  0  0  0  0  0  0  0  0  0
  1  2  1  0  0  0  0
  1 25  1  0  0  0  0
  1 26  1  0  0  0  0
  1 27  1  0  0  0  0
  2  3  1  0  0  0  0
  3  4  1  0  0  0  0
  3 28  1  0  0  0  0
  3 29  1  0  0  0  0
  4 12  1  0  0  0  0
  4  5  2  0  0  0  0
  5  6  1  0  0  0  0
  5 47  1  0  0  0  0
  6 11  2  0  0  0  0
  6  7  1  0  0  0  0
  7  8  2  0  0  0  0
  7 30  1  0  0  0  0
  8  9  1  0  0  0  0
  8 31  1  0  0  0  0
  9 10  2  0  0  0  0
  9 32  1  0  0  0  0
 10 11  1  0  0  0  0
 10 33  1  0  0  0  0
 11 12  1  0  0  0  0
 12 13  1  0  0  0  0
 13 14  1  0  0  0  0
 13 34  1  0  0  0  0
 13 35  1  0  0  0  0
 14 15  1  0  0  0  0
 14 16  1  0  0  0  0
 14 36  1  0  0  0  0
 15 37  1  0  0  0  0
 16 17  1  0  0  0  0
 16 38  1  0  0  0  0
 16 39  1  0  0  0  0
 17 18  1  0  0  0  0
 18 23  1  0  0  0  0
 18 19  2  0  0  0  0
 19 20  1  0  0  0  0
 19 40  1  0  0  0  0
 20 21  2  0  0  0  0
 20 41  1  0  0  0  0
 21 22  1  0  0  0  0
 21 42  1  0  0  0  0
 22 23  2  0  0  0  0
 22 43  1  0  0  0  0
 23 24  1  0  0  0  0
 24 44  1  0  0  0  0
 24 45  1  0  0  0  0
 24 46  1  0  0  0  0
M  CHG  1   5   1
M  END
> <s_m_source_file>
AV-unprocessed.smi

> <i_m_source_file_index>
870

> <i_lp_mmshare_version>
43012

> <i_f3d_flags>
0

> <s_epik_input>
W2NIXTFbY0hdW2NIXVtjSF1jKGMxMiluKGMobjIpW0NIMl1PW0NIM10pW0NIMl1bQ0BIXShbT0hdKVtDSDJdT2MzW2NIXVtjSF1bY0hdW2NIXWMzW0NIM10=

> <s_epik_cmdline>
J2VwaWtfcHl0aG9uJywgJy1waCcsICc3LjAnLCAnLXRuJywgJzgnLCAnLW1hJywgJzIwMCcsICctbWV0YWxfYmluZGluZycsICctaW1hZScsICc8aW5maWxlLm1hZT4nLCAnLW9tYWUnLCAnPG91dGZpbGUubWFlPic=

> <r_lp_tautomer_probability>
1

> <r_epik_Ionization_Penalty>
1.55338

> <r_epik_Ionization_Penalty_Charging>
1.55338

> <r_epik_Ionization_Penalty_Neutral>
2.3993e-06

> <r_epik_State_Penalty>
1.64778

> <r_epik_Charging_Adjusted_Penalty>
3.20115

> <i_epik_Tot_Q>
1

> <i_epik_Tot_abs_Q>
1

> <r_epik_Metal_State_Penalty>
5.70266

> <b_epik_Metal_Only>
0

> <s_lp_Force_Field>
OPLS_2005

> <r_lp_Energy>
19.1039

> <b_lp_Chiralities_Consistent>
1

> <s_lp_Variant>
AV-unprocessed.smi:870-4

> <Gold.Version>
5.8.1

> <Gold.Id.Protein>
6NUR|6NUR_protein|mol2

> <Gold.PLP.Fitness>
59.6272

> <Gold.PLP.PLP>
-51.8148

> <Gold.PLP.part.hbond>
-3.9953

> <Gold.PLP.part.metal>
0.0000

> <Gold.PLP.part.buried>
-5.4836

> <Gold.PLP.part.nonpolar>
-44.4913

> <Gold.PLP.part.repulsive>
0.1699

> <Gold.PLP.ligand.clash>
0.0000

> <Gold.PLP.ligand.torsion>
1.4313

> <Gold.PLP.Chemscore.Hbond>
3.5373

> <Gold.PLP.Chemscore.CHOScore>
0.0000

> <Gold.PLP.Chemscore.Metal>
0.0000

> <Gold.Chemscore.Hbonds>
donor molecule, donor type, donor heavy atom, donor atom, acceptor molecule, acceptor atom, score
      L1  H     5    47       P1  8028  1.57
      P1  H  6931  6943       L1    17  0.64
      P1  H  6934  6947       L1    17  0.17
      P1  H  7989  7998       L1     2  1.00

> <Gold.PLP.Chemscore.Internal.Correction>
0.0633

> <Gold.Rescore>
     Score         DG    S(hbond)    S(metal)    S(lipo)     H(rot)  DE(clash)    DE(int)     intcor
     21.65     -23.13       2.45        0.00     134.41       2.45       0.19       1.29       ----

> <Gold.Chemscore.Fitness>
21.6520

> <Gold.Chemscore.DG>
-23.1268

> <Gold.Chemscore.ZeroCoef>
-5.4800

> <Gold.Chemscore.Hbond>
2.4526

> <Gold.Chemscore.Metal>
0.0000

> <Gold.Chemscore.Lipo>
134.4067

> <Gold.Chemscore.Internal_Hbond>
0.0000

> <Gold.Chemscore.DEClash>
0.1889

> <Gold.Chemscore.DEInternal>
1.2858

> <Gold.Chemscore.Rot>
2.4494

> <Gold.Chemscore.Internal.Correction>
   9.000000E+99

> <Gold.Chemscore.Hbonds>
donor molecule, donor type, donor heavy atom, donor atom, acceptor molecule, acceptor atom, score
      L1  H     5    47       P1  8028  0.74
      P1  H  6931  6943       L1    17  0.37
      P1  H  6934  6947       L1    17  0.16
      P1  H  7989  7998       L1     2  0.95

> <Gold.Chemscore.Hbond.Weighted>
-8.1916

> <Gold.Chemscore.Metal.Weighted>
-0.0000

> <Gold.Chemscore.Lipo.Weighted>
-15.7256

> <Gold.Chemscore.Internal_Hbond.Weighted>
0.0000

> <Gold.Chemscore.DEClash.Weighted>
0.1889

> <Gold.Chemscore.DEInternal.Weighted>
1.2858

> <Gold.Chemscore.Rot.Weighted>
6.2704

> <Gold.Chemscore.Internal.Correction.Weighted>
   9.000000E+99

> <Gold.Protein.RotatedTorsions>
[ 6907 6896 6895 6894 ] final  -61.88 input  -60.11 | X-H torsion
[ 7974 7965 7964 7962 ] final  163.97 input  175.53 | X-H torsion
[ 8008 7997 7996 7995 ] final  -69.80 input   59.86 | X-H torsion
[ 10167 10162 10161 10158 ] final   86.72 input  -65.29 | X-H torsion
[ 10718 10713 10712 10709 ] final   74.63 input   66.30 | X-H torsion
[ 10763 10752 10751 10750 ] final -143.43 input  -60.55 | X-H torsion
[ 11005 11000 10999 10996 ] final  117.80 input  -57.11 | X-H torsion

> <Gold.Protein.ActiveResidues>
 VAL166  LYS551  ARG553  GLY616  TRP617  ASP618  TYR619  PRO620  LYS621  CYS622 
 ASP623  PHE694  ASN695  SER759  ASP760  ASP761  ALA762  ILE779  LEU786  VAL792 
 PHE793  MET794  SER795  GLU796  ALA797  LYS798  CYS799  TRP800  GLU811  SER814 

> <Gold.Protein.RotatedAtoms>
  150.7754  134.6645  159.6357 H   0  0  0  0  0  0  0  0  0  0  0  0  # atno 6907 bound_to 6896
  152.3821  134.6571  160.0148 H   0  0  0  0  0  0  0  0  0  0  0  0  # atno 6908 bound_to 6896
  151.6897  133.3274  159.3276 H   0  0  0  0  0  0  0  0  0  0  0  0  # atno 6909 bound_to 6896
  144.7566  139.8259  143.6348 H   0  0  0  0  0  0  0  0  0  0  0  0  # atno 7974 bound_to 7965
  154.4965  140.0846  156.7707 H   0  0  0  0  0  0  0  0  0  0  0  0  # atno 8008 bound_to 7997
  155.4105  140.3441  155.4245 H   0  0  0  0  0  0  0  0  0  0  0  0  # atno 8009 bound_to 7997
  156.1400  140.1526  156.8923 H   0  0  0  0  0  0  0  0  0  0  0  0  # atno 8010 bound_to 7997
  139.8847  144.6420  150.8805 H   0  0  0  0  0  0  0  0  0  0  0  0  # atno 10167 bound_to 10162
  157.6600  130.9687  150.1239 H   0  0  0  0  0  0  0  0  0  0  0  0  # atno 10718 bound_to 10713
  154.8470  135.3468  154.6187 H   0  0  0  0  0  0  0  0  0  0  0  0  # atno 10763 bound_to 10752
  153.6796  135.6981  153.5127 H   0  0  0  0  0  0  0  0  0  0  0  0  # atno 10764 bound_to 10752
  153.2679  135.4302  155.0915 H   0  0  0  0  0  0  0  0  0  0  0  0  # atno 10765 bound_to 10752
  139.9087  134.9614  156.7407 H   0  0  0  0  0  0  0  0  0  0  0  0  # atno 11005 bound_to 11000
  146.1582  139.4687  143.0005 LP  0  0  0  0  0  0  0  0  0  0  0  0  # atno 17320 bound_to 7965
  145.6760  141.0204  143.1632 LP  0  0  0  0  0  0  0  0  0  0  0  0  # atno 17321 bound_to 7965
  140.7738  143.3558  151.1925 LP  0  0  0  0  0  0  0  0  0  0  0  0  # atno 17342 bound_to 10162
  139.7164  143.9293  152.2968 LP  0  0  0  0  0  0  0  0  0  0  0  0  # atno 17343 bound_to 10162
  156.2103  130.3666  149.8679 LP  0  0  0  0  0  0  0  0  0  0  0  0  # atno 17370 bound_to 10713
  156.6559  130.8762  151.3539 LP  0  0  0  0  0  0  0  0  0  0  0  0  # atno 17371 bound_to 10713
  140.6852  133.9439  155.7933 LP  0  0  0  0  0  0  0  0  0  0  0  0  # atno 17394 bound_to 11000
  141.0481  134.0524  157.3818 LP  0  0  0  0  0  0  0  0  0  0  0  0  # atno 17395 bound_to 11000

$$$$
