AV-unprocessed.smi:890|AV-procd|sdf|4061|dock1
  -GOLD-   22720 1553D 1   1.00000     0.00000
 Structure written by MMmdl.
 53 56  0  0  0  0  0  0  0  0  3 V2000
  145.6791  138.8973  153.5151 O   0  0  0  0  0  0  0  0  0  0  0  0
  146.5962  138.1180  153.2621 C   0  0  0  0  0  0  0  0  0  0  0  0
  147.8940  138.3070  153.5573 N   0  0  0  0  0  0  0  0  0  0  0  0
  148.5437  139.4067  154.1950 C   0  0  0  0  0  0  0  0  0  0  0  0
  148.1853  140.7659  153.9925 C   0  0  0  0  0  0  0  0  0  0  0  0
  148.8899  141.7837  154.6653 C   0  0  0  0  0  0  0  0  0  0  0  0
  149.9425  141.4345  155.5299 C   0  0  0  0  0  0  0  0  0  0  0  0
  150.2610  140.1354  155.7021 N   0  3  0  0  0  0  0  0  0  0  0  0
  149.6150  139.1185  155.0807 C   0  0  0  0  0  0  0  0  0  0  0  0
  150.0339  137.7993  155.3283 N   0  0  0  0  0  0  0  0  0  0  0  0
  149.7891  137.2996  156.6712 C   0  0  0  0  0  0  0  0  0  0  0  0
  150.6520  136.0416  156.8002 C   0  0  0  0  0  0  0  0  0  0  0  0
  151.7423  136.1995  155.7327 C   0  0  0  0  0  0  0  0  0  0  0  0
  151.4359  137.5358  155.0512 C   0  0  0  0  0  0  0  0  0  0  0  0
  146.4125  136.9446  152.6399 N   0  0  0  0  0  0  0  0  0  0  0  0
  145.1280  136.4289  152.1745 C   0  0  2  0  0  0  0  0  0  0  0  0
  144.4813  135.5746  153.2784 C   0  0  0  0  0  0  0  0  0  0  0  0
  143.1732  134.9233  152.7902 C   0  0  0  0  0  0  0  0  0  0  0  0
  143.3740  134.1259  151.5533 N   0  3  2  0  0  0  0  0  0  0  0  0
  144.0715  132.8399  151.7910 C   0  0  0  0  0  0  0  0  0  0  0  0
  144.7932  132.3067  150.5754 C   0  0  0  0  0  0  0  0  0  0  0  0
  143.4876  131.6825  151.0150 C   0  0  0  0  0  0  0  0  0  0  0  0
  143.9814  134.9325  150.4642 C   0  0  0  0  0  0  0  0  0  0  0  0
  145.3074  135.5862  150.8966 C   0  0  0  0  0  0  0  0  0  0  0  0
  148.5111  137.5557  153.2858 H   0  0  0  0  0  0  0  0  0  0  0  0
  147.3862  141.0647  153.3343 H   0  0  0  0  0  0  0  0  0  0  0  0
  148.6250  142.8206  154.5172 H   0  0  0  0  0  0  0  0  0  0  0  0
  150.5353  142.1483  156.0832 H   0  0  0  0  0  0  0  0  0  0  0  0
  150.0894  138.0364  157.4174 H   0  0  0  0  0  0  0  0  0  0  0  0
  148.7317  137.0788  156.8213 H   0  0  0  0  0  0  0  0  0  0  0  0
  151.0651  135.9397  157.8042 H   0  0  0  0  0  0  0  0  0  0  0  0
  150.0574  135.1506  156.5941 H   0  0  0  0  0  0  0  0  0  0  0  0
  152.7455  136.1881  156.1594 H   0  0  0  0  0  0  0  0  0  0  0  0
  151.6786  135.3821  155.0133 H   0  0  0  0  0  0  0  0  0  0  0  0
  151.6240  137.4922  153.9780 H   0  0  0  0  0  0  0  0  0  0  0  0
  152.0623  138.3238  155.4715 H   0  0  0  0  0  0  0  0  0  0  0  0
  147.2213  136.3632  152.4749 H   0  0  0  0  0  0  0  0  0  0  0  0
  144.4630  137.2675  151.9585 H   0  0  0  0  0  0  0  0  0  0  0  0
  145.1766  134.8015  153.6082 H   0  0  0  0  0  0  0  0  0  0  0  0
  144.2763  136.1919  154.1538 H   0  0  0  0  0  0  0  0  0  0  0  0
  142.7452  134.2957  153.5728 H   0  0  0  0  0  0  0  0  0  0  0  0
  142.4353  135.6995  152.5829 H   0  0  0  0  0  0  0  0  0  0  0  0
  144.4839  132.6797  152.7852 H   0  0  0  0  0  0  0  0  0  0  0  0
  144.7827  132.9029  149.6648 H   0  0  0  0  0  0  0  0  0  0  0  0
  145.7016  131.7317  150.7441 H   0  0  0  0  0  0  0  0  0  0  0  0
  143.5361  130.6958  151.4714 H   0  0  0  0  0  0  0  0  0  0  0  0
  142.6106  131.8659  150.3967 H   0  0  0  0  0  0  0  0  0  0  0  0
  144.1335  134.3111  149.5809 H   0  0  0  0  0  0  0  0  0  0  0  0
  143.2717  135.7085  150.1743 H   0  0  0  0  0  0  0  0  0  0  0  0
  145.6837  136.2101  150.0851 H   0  0  0  0  0  0  0  0  0  0  0  0
  146.0616  134.8157  151.0613 H   0  0  0  0  0  0  0  0  0  0  0  0
  142.4510  133.8715  151.2311 H   0  0  0  0  0  0  0  0  0  0  0  0
  151.0298  139.9072  156.3329 H   0  0  0  0  0  0  0  0  0  0  0  0
  1  2  2  0  0  0  0
  2  3  1  0  0  0  0
  2 15  1  0  0  0  0
  3  4  1  0  0  0  0
  3 25  1  0  0  0  0
  4  9  1  0  0  0  0
  4  5  2  0  0  0  0
  5  6  1  0  0  0  0
  5 26  1  0  0  0  0
  6  7  2  0  0  0  0
  6 27  1  0  0  0  0
  7  8  1  0  0  0  0
  7 28  1  0  0  0  0
  8  9  2  0  0  0  0
  8 53  1  0  0  0  0
  9 10  1  0  0  0  0
 10 14  1  0  0  0  0
 10 11  1  0  0  0  0
 11 12  1  0  0  0  0
 11 29  1  0  0  0  0
 11 30  1  0  0  0  0
 12 13  1  0  0  0  0
 12 31  1  0  0  0  0
 12 32  1  0  0  0  0
 13 14  1  0  0  0  0
 13 33  1  0  0  0  0
 13 34  1  0  0  0  0
 14 35  1  0  0  0  0
 14 36  1  0  0  0  0
 15 16  1  0  0  0  0
 15 37  1  0  0  0  0
 16 24  1  0  0  0  0
 16 17  1  0  0  0  0
 16 38  1  0  0  0  0
 17 18  1  0  0  0  0
 17 39  1  0  0  0  0
 17 40  1  0  0  0  0
 18 19  1  0  0  0  0
 18 41  1  0  0  0  0
 18 42  1  0  0  0  0
 19 20  1  0  0  0  0
 19 23  1  0  0  0  0
 19 52  1  0  0  0  0
 20 22  1  0  0  0  0
 20 21  1  0  0  0  0
 20 43  1  0  0  0  0
 21 22  1  0  0  0  0
 21 44  1  0  0  0  0
 21 45  1  0  0  0  0
 22 46  1  0  0  0  0
 22 47  1  0  0  0  0
 23 24  1  0  0  0  0
 23 48  1  0  0  0  0
 23 49  1  0  0  0  0
 24 50  1  0  0  0  0
 24 51  1  0  0  0  0
M  CHG  1   8   1
M  CHG  1  19   1
M  END
> <s_m_source_file>
AV-unprocessed.smi

> <i_m_source_file_index>
890

> <i_lp_mmshare_version>
43012

> <i_f3d_flags>
0

> <s_epik_input>
W0NIMl0xW0NIMl1bQ0hdMU4oW0NIMl1bQ0gyXTIpW0NIMl1bQ0gyXVtDSF0yW05IXUMoPU8pW05IXWMzW2NIXVtjSF1bY0hdbmMzTjRbQ0gyXVtDSDJdW0NIMl1bQ0gyXTQ=

> <s_epik_cmdline>
J2VwaWtfcHl0aG9uJywgJy1waCcsICc3LjAnLCAnLXRuJywgJzgnLCAnLW1hJywgJzIwMCcsICctbWV0YWxfYmluZGluZycsICctaW1hZScsICc8aW5maWxlLm1hZT4nLCAnLW9tYWUnLCAnPG91dGZpbGUubWFlPic=

> <r_lp_tautomer_probability>
0.999994

> <r_epik_Ionization_Penalty>
1.36901

> <r_epik_Ionization_Penalty_Charging>
1.36899

> <r_epik_Ionization_Penalty_Neutral>
1.88098e-05

> <r_epik_State_Penalty>
1.38441

> <r_epik_Charging_Adjusted_Penalty>
2.7534

> <i_epik_Tot_Q>
2

> <i_epik_Tot_abs_Q>
2

> <r_epik_Metal_State_Penalty>
1.45718

> <b_epik_Metal_Only>
0

> <s_lp_Force_Field>
OPLS_2005

> <r_lp_Energy>
67.0325

> <b_lp_Chiralities_Consistent>
1

> <s_lp_Variant>
AV-unprocessed.smi:890-5

> <Gold.Version>
5.8.1

> <Gold.Id.Protein>
6NUR|6NUR_protein|mol2

> <Gold.PLP.Fitness>
41.5705

> <Gold.PLP.PLP>
-31.6454

> <Gold.PLP.part.hbond>
-3.2207

> <Gold.PLP.part.metal>
0.0000

> <Gold.PLP.part.buried>
2.3139

> <Gold.PLP.part.nonpolar>
-34.6018

> <Gold.PLP.part.repulsive>
3.1536

> <Gold.PLP.ligand.clash>
0.0000

> <Gold.PLP.ligand.torsion>
1.5875

> <Gold.PLP.Chemscore.Hbond>
3.9280

> <Gold.PLP.Chemscore.CHOScore>
0.0000

> <Gold.PLP.Chemscore.Metal>
0.0000

> <Gold.Chemscore.Hbonds>
donor molecule, donor type, donor heavy atom, donor atom, acceptor molecule, acceptor atom, score
      L1  H     3    25       P1  7948  0.91
      L1  H    15    37       P1  7948  0.96
      L1  H    19    52       P1 10186  0.64

> <Gold.PLP.Chemscore.Internal.Correction>
1.3160

> <Gold.Rescore>
     Score         DG    S(hbond)    S(metal)    S(lipo)     H(rot)  DE(clash)    DE(int)     intcor
     17.70     -22.68       2.71        0.00      99.05       1.35       3.40       1.58       ----

> <Gold.Chemscore.Fitness>
17.7032

> <Gold.Chemscore.DG>
-22.6827

> <Gold.Chemscore.ZeroCoef>
-5.4800

> <Gold.Chemscore.Hbond>
2.7148

> <Gold.Chemscore.Metal>
0.0000

> <Gold.Chemscore.Lipo>
99.0457

> <Gold.Chemscore.Internal_Hbond>
0.0000

> <Gold.Chemscore.DEClash>
3.4041

> <Gold.Chemscore.DEInternal>
1.5754

> <Gold.Chemscore.Rot>
1.3489

> <Gold.Chemscore.Internal.Correction>
   9.000000E+99

> <Gold.Chemscore.Hbonds>
donor molecule, donor type, donor heavy atom, donor atom, acceptor molecule, acceptor atom, score
      L1  H     3    25       P1  7948  0.86
      L1  H    15    37       P1  7948  0.92
      L1  H    19    52       P1 10186  0.11

> <Gold.Chemscore.Hbond.Weighted>
-9.0675

> <Gold.Chemscore.Metal.Weighted>
-0.0000

> <Gold.Chemscore.Lipo.Weighted>
-11.5884

> <Gold.Chemscore.Internal_Hbond.Weighted>
0.0000

> <Gold.Chemscore.DEClash.Weighted>
3.4041

> <Gold.Chemscore.DEInternal.Weighted>
1.5754

> <Gold.Chemscore.Rot.Weighted>
3.4532

> <Gold.Chemscore.Internal.Correction.Weighted>
   9.000000E+99

> <Gold.Protein.RotatedTorsions>
[ 6907 6896 6895 6894 ] final   42.75 input  -60.11 | X-H torsion
[ 7974 7965 7964 7962 ] final   98.70 input  175.53 | X-H torsion
[ 8008 7997 7996 7995 ] final   77.65 input   59.86 | X-H torsion
[ 10167 10162 10161 10158 ] final   -5.95 input  -65.29 | X-H torsion
[ 10718 10713 10712 10709 ] final  106.92 input   66.30 | X-H torsion
[ 10763 10752 10751 10750 ] final  -65.16 input  -60.55 | X-H torsion
[ 11005 11000 10999 10996 ] final    2.23 input  -57.11 | X-H torsion

> <Gold.Protein.ActiveResidues>
 VAL166  LYS551  ARG553  GLY616  TRP617  ASP618  TYR619  PRO620  LYS621  CYS622 
 ASP623  PHE694  ASN695  SER759  ASP760  ASP761  ALA762  ILE779  LEU786  VAL792 
 PHE793  MET794  SER795  GLU796  ALA797  LYS798  CYS799  TRP800  GLU811  SER814 

> <Gold.Protein.RotatedAtoms>
  152.2117  134.8495  160.0496 H   0  0  0  0  0  0  0  0  0  0  0  0  # atno 6907 bound_to 6896
  151.9311  133.3606  159.3939 H   0  0  0  0  0  0  0  0  0  0  0  0  # atno 6908 bound_to 6896
  150.6978  134.4461  159.5359 H   0  0  0  0  0  0  0  0  0  0  0  0  # atno 6909 bound_to 6896
  145.4086  139.2337  143.3260 H   0  0  0  0  0  0  0  0  0  0  0  0  # atno 7974 bound_to 7965
  155.8446  140.3461  155.5654 H   0  0  0  0  0  0  0  0  0  0  0  0  # atno 8008 bound_to 7997
  155.8104  140.0898  157.1927 H   0  0  0  0  0  0  0  0  0  0  0  0  # atno 8009 bound_to 7997
  154.4006  140.1449  156.3367 H   0  0  0  0  0  0  0  0  0  0  0  0  # atno 8010 bound_to 7997
  140.6981  143.6249  150.8577 H   0  0  0  0  0  0  0  0  0  0  0  0  # atno 10167 bound_to 10162
  157.6649  131.0861  150.6079 H   0  0  0  0  0  0  0  0  0  0  0  0  # atno 10718 bound_to 10713
  154.3410  135.6157  153.5596 H   0  0  0  0  0  0  0  0  0  0  0  0  # atno 10763 bound_to 10752
  152.9804  135.5769  154.4853 H   0  0  0  0  0  0  0  0  0  0  0  0  # atno 10764 bound_to 10752
  154.4557  135.2854  155.1726 H   0  0  0  0  0  0  0  0  0  0  0  0  # atno 10765 bound_to 10752
  140.6066  133.9786  155.8157 H   0  0  0  0  0  0  0  0  0  0  0  0  # atno 11005 bound_to 11000
  146.2716  140.4794  142.8812 LP  0  0  0  0  0  0  0  0  0  0  0  0  # atno 17320 bound_to 7965
  144.8324  140.6729  143.6282 LP  0  0  0  0  0  0  0  0  0  0  0  0  # atno 17321 bound_to 7965
  139.9969  143.5786  152.2890 LP  0  0  0  0  0  0  0  0  0  0  0  0  # atno 17342 bound_to 10162
  139.6461  144.7658  151.2240 LP  0  0  0  0  0  0  0  0  0  0  0  0  # atno 17343 bound_to 10162
  156.6380  130.4450  149.5762 LP  0  0  0  0  0  0  0  0  0  0  0  0  # atno 17370 bound_to 10713
  156.2231  130.6749  151.1388 LP  0  0  0  0  0  0  0  0  0  0  0  0  # atno 17371 bound_to 10713
  141.0836  134.0025  157.3348 LP  0  0  0  0  0  0  0  0  0  0  0  0  # atno 17394 bound_to 11000
  139.9209  135.0200  156.8062 LP  0  0  0  0  0  0  0  0  0  0  0  0  # atno 17395 bound_to 11000

$$$$
