AV-unprocessed.smi:2718|AV-procd|sdf|10492|dock4
  -GOLD-   2272014543D 1   1.00000     0.00000
 Structure written by MMmdl.
 47 48  0  0  0  0  0  0  0  0  1 V2000
  154.4125  140.4333  161.6539 C   0  0  0  0  0  0  0  0  0  0  0  0
  153.4973  141.6416  161.6576 C   0  0  0  0  0  0  0  0  0  0  0  0
  153.3890  142.3513  162.9956 C   0  0  0  0  0  0  0  0  0  0  0  0
  152.8386  142.0333  160.5498 C   0  0  0  0  0  0  0  0  0  0  0  0
  151.9096  143.1935  160.4240 C   0  0  2  0  0  0  0  0  0  0  0  0
  150.8476  143.3433  159.3387 C   0  0  2  0  0  0  0  0  0  0  0  0
  150.6687  142.2999  158.2710 C   0  0  0  0  0  0  0  0  0  0  0  0
  150.6668  142.5318  157.0620 O   0  0  0  0  0  0  0  0  0  0  0  0
  150.5137  141.0622  158.7640 N   0  0  0  0  0  0  0  0  0  0  0  0
  150.3337  139.8473  157.9732 C   0  0  0  0  0  0  0  0  0  0  0  0
  151.6340  139.0302  157.7964 C   0  0  1  0  0  0  0  0  0  0  0  0
  152.2530  138.6473  159.1485 C   0  0  0  0  0  0  0  0  0  0  0  0
  151.4535  137.8268  156.9097 C   0  0  0  0  0  0  0  0  0  0  0  0
  151.7790  136.5806  157.2794 N   0  0  0  0  0  0  0  0  0  0  0  0
  151.4613  135.7759  156.2041 N   0  0  0  0  0  0  0  0  0  0  0  0
  150.9809  136.6154  155.2884 C   0  0  0  0  0  0  0  0  0  0  0  0
  150.9500  137.9040  155.6593 N   0  0  0  0  0  0  0  0  0  0  0  0
  150.4953  139.0489  154.8957 C   0  0  0  0  0  0  0  0  0  0  0  0
  152.0734  144.2521  159.3449 C   0  0  0  0  0  0  0  0  0  0  0  0
  151.8600  145.7123  159.7057 C   0  0  0  0  0  0  0  0  0  0  0  0
  153.1976  144.1588  158.3160 C   0  0  0  0  0  0  0  0  0  0  0  0
  155.4257  140.7248  161.9314 H   0  0  0  0  0  0  0  0  0  0  0  0
  154.4522  139.9623  160.6713 H   0  0  0  0  0  0  0  0  0  0  0  0
  154.0596  139.6914  162.3707 H   0  0  0  0  0  0  0  0  0  0  0  0
  152.9650  141.6786  163.7414 H   0  0  0  0  0  0  0  0  0  0  0  0
  152.7591  143.2389  162.9475 H   0  0  0  0  0  0  0  0  0  0  0  0
  154.3765  142.6616  163.3372 H   0  0  0  0  0  0  0  0  0  0  0  0
  152.9892  141.4675  159.6421 H   0  0  0  0  0  0  0  0  0  0  0  0
  151.6284  143.5565  161.4109 H   0  0  0  0  0  0  0  0  0  0  0  0
  149.9188  143.8117  159.6617 H   0  0  0  0  0  0  0  0  0  0  0  0
  150.5236  140.9505  159.7678 H   0  0  0  0  0  0  0  0  0  0  0  0
  149.5487  139.2296  158.4124 H   0  0  0  0  0  0  0  0  0  0  0  0
  149.9658  140.1597  156.9953 H   0  0  0  0  0  0  0  0  0  0  0  0
  152.3531  139.6939  157.3175 H   0  0  0  0  0  0  0  0  0  0  0  0
  153.2105  138.1439  159.0120 H   0  0  0  0  0  0  0  0  0  0  0  0
  151.6007  137.9769  159.7089 H   0  0  0  0  0  0  0  0  0  0  0  0
  152.4291  139.5303  159.7635 H   0  0  0  0  0  0  0  0  0  0  0  0
  150.6447  136.2798  154.3182 H   0  0  0  0  0  0  0  0  0  0  0  0
  150.0870  138.7241  153.9383 H   0  0  0  0  0  0  0  0  0  0  0  0
  151.3312  139.7248  154.7150 H   0  0  0  0  0  0  0  0  0  0  0  0
  149.7193  139.5783  155.4478 H   0  0  0  0  0  0  0  0  0  0  0  0
  151.5798  146.2848  158.8209 H   0  0  0  0  0  0  0  0  0  0  0  0
  152.7721  146.1390  160.1240 H   0  0  0  0  0  0  0  0  0  0  0  0
  151.0662  145.8176  160.4458 H   0  0  0  0  0  0  0  0  0  0  0  0
  152.9021  144.6535  157.3908 H   0  0  0  0  0  0  0  0  0  0  0  0
  153.4687  143.1308  158.0843 H   0  0  0  0  0  0  0  0  0  0  0  0
  154.0935  144.6519  158.6947 H   0  0  0  0  0  0  0  0  0  0  0  0
  1  2  1  0  0  0  0
  1 22  1  0  0  0  0
  1 23  1  0  0  0  0
  1 24  1  0  0  0  0
  2  3  1  0  0  0  0
  2  4  2  0  0  0  0
  3 25  1  0  0  0  0
  3 26  1  0  0  0  0
  3 27  1  0  0  0  0
  4  5  1  0  0  0  0
  4 28  1  0  0  0  0
  5 19  1  0  0  0  0
  5  6  1  0  0  0  0
  5 29  1  0  0  0  0
  6  7  1  0  0  0  0
  6 19  1  0  0  0  0
  6 30  1  0  0  0  0
  7  8  2  0  0  0  0
  7  9  1  0  0  0  0
  9 10  1  0  0  0  0
  9 31  1  0  0  0  0
 10 11  1  0  0  0  0
 10 32  1  0  0  0  0
 10 33  1  0  0  0  0
 11 12  1  0  0  0  0
 11 13  1  0  0  0  0
 11 34  1  0  0  0  0
 12 35  1  0  0  0  0
 12 36  1  0  0  0  0
 12 37  1  0  0  0  0
 13 17  1  0  0  0  0
 13 14  2  0  0  0  0
 14 15  1  0  0  0  0
 15 16  2  0  0  0  0
 16 17  1  0  0  0  0
 16 38  1  0  0  0  0
 17 18  1  0  0  0  0
 18 39  1  0  0  0  0
 18 40  1  0  0  0  0
 18 41  1  0  0  0  0
 19 20  1  0  0  0  0
 19 21  1  0  0  0  0
 20 42  1  0  0  0  0
 20 43  1  0  0  0  0
 20 44  1  0  0  0  0
 21 45  1  0  0  0  0
 21 46  1  0  0  0  0
 21 47  1  0  0  0  0
M  END
> <s_m_source_file>
AV-unprocessed.smi

> <i_m_source_file_index>
2718

> <i_lp_mmshare_version>
43012

> <i_f3d_flags>
0

> <s_epik_input>
W0NIM11DKFtDSDNdKT1bQ0hdW0NAQEhdKEMxKFtDSDNdKVtDSDNdKVtDQEhdMUMoPU8pW05IXVtDSDJdW0NASF0oW0NIM10pYzJubltjSF1uMltDSDNd

> <s_epik_cmdline>
J2VwaWtfcHl0aG9uJywgJy1waCcsICc3LjAnLCAnLXRuJywgJzgnLCAnLW1hJywgJzIwMCcsICctbWV0YWxfYmluZGluZycsICctaW1hZScsICc8aW5maWxlLm1hZT4nLCAnLW9tYWUnLCAnPG91dGZpbGUubWFlPic=

> <r_lp_tautomer_probability>
1

> <r_epik_Ionization_Penalty>
0.000449586

> <r_epik_Ionization_Penalty_Charging>
0

> <r_epik_Ionization_Penalty_Neutral>
0.000449586

> <r_epik_State_Penalty>
0.000243372

> <r_epik_Charging_Adjusted_Penalty>
0.000243372

> <i_epik_Tot_Q>
0

> <i_epik_Tot_abs_Q>
0

> <r_epik_Metal_State_Penalty>
-0

> <b_epik_Metal_Only>
0

> <s_lp_Force_Field>
OPLS_2005

> <r_lp_Energy>
15.6704

> <b_lp_Chiralities_Consistent>
1

> <s_lp_Variant>
AV-unprocessed.smi:2718-7

> <Gold.Version>
5.8.1

> <Gold.Id.Protein>
6NUR|6NUR_protein|mol2

> <Gold.PLP.Fitness>
49.7568

> <Gold.PLP.PLP>
-44.0983

> <Gold.PLP.part.hbond>
-1.0000

> <Gold.PLP.part.metal>
0.0000

> <Gold.PLP.part.buried>
-3.7063

> <Gold.PLP.part.nonpolar>
-41.1618

> <Gold.PLP.part.repulsive>
2.1765

> <Gold.PLP.ligand.clash>
0.0000

> <Gold.PLP.ligand.torsion>
0.4365

> <Gold.PLP.Chemscore.Hbond>
1.0000

> <Gold.PLP.Chemscore.CHOScore>
1.0666

> <Gold.PLP.Chemscore.Metal>
0.0000

> <Gold.Chemscore.Hbonds>
donor molecule, donor type, donor heavy atom, donor atom, acceptor molecule, acceptor atom, score
      L1  C    16    38       P1  7949  0.08

> <Gold.PLP.Chemscore.Internal.Correction>
0.3317

> <Gold.Rescore>
     Score         DG    S(hbond)    S(metal)    S(lipo)     H(rot)  DE(clash)    DE(int)     intcor
     12.82     -16.79       0.79        0.00     116.81       1.95       1.83       2.14       ----

> <Gold.Chemscore.Fitness>
12.8212

> <Gold.Chemscore.DG>
-16.7852

> <Gold.Chemscore.ZeroCoef>
-5.4800

> <Gold.Chemscore.Hbond>
0.7901

> <Gold.Chemscore.Metal>
0.0000

> <Gold.Chemscore.Lipo>
116.8106

> <Gold.Chemscore.Internal_Hbond>
0.0000

> <Gold.Chemscore.DEClash>
1.8268

> <Gold.Chemscore.DEInternal>
2.1372

> <Gold.Chemscore.Rot>
1.9533

> <Gold.Chemscore.Internal.Correction>
   9.000000E+99

> <Gold.Chemscore.Hbond.Weighted>
-2.6389

> <Gold.Chemscore.Metal.Weighted>
-0.0000

> <Gold.Chemscore.Lipo.Weighted>
-13.6668

> <Gold.Chemscore.Internal_Hbond.Weighted>
0.0000

> <Gold.Chemscore.DEClash.Weighted>
1.8268

> <Gold.Chemscore.DEInternal.Weighted>
2.1372

> <Gold.Chemscore.Rot.Weighted>
5.0005

> <Gold.Chemscore.Internal.Correction.Weighted>
   9.000000E+99

> <Gold.Protein.RotatedTorsions>
[ 6907 6896 6895 6894 ] final  120.85 input  -60.11 | X-H torsion
[ 7974 7965 7964 7962 ] final  125.30 input  175.53 | X-H torsion
[ 8008 7997 7996 7995 ] final -128.50 input   59.86 | X-H torsion
[ 10167 10162 10161 10158 ] final  -16.01 input  -65.29 | X-H torsion
[ 10718 10713 10712 10709 ] final  176.02 input   66.30 | X-H torsion
[ 10763 10752 10751 10750 ] final  -56.36 input  -60.55 | X-H torsion
[ 11005 11000 10999 10996 ] final   86.80 input  -57.11 | X-H torsion

> <Gold.Protein.ActiveResidues>
 VAL166  LYS551  ARG553  GLY616  TRP617  ASP618  TYR619  PRO620  LYS621  CYS622 
 ASP623  PHE694  ASN695  SER759  ASP760  ASP761  ALA762  ILE779  LEU786  VAL792 
 PHE793  MET794  SER795  GLU796  ALA797  LYS798  CYS799  TRP800  GLU811  SER814 

> <Gold.Protein.RotatedAtoms>
  152.4366  133.7372  159.6620 H   0  0  0  0  0  0  0  0  0  0  0  0  # atno 6907 bound_to 6896
  150.8251  133.8175  159.3128 H   0  0  0  0  0  0  0  0  0  0  0  0  # atno 6908 bound_to 6896
  151.5846  135.1059  160.0077 H   0  0  0  0  0  0  0  0  0  0  0  0  # atno 6909 bound_to 6896
  145.0746  139.3703  143.4940 H   0  0  0  0  0  0  0  0  0  0  0  0  # atno 7974 bound_to 7965
  155.2638  140.0437  157.3000 H   0  0  0  0  0  0  0  0  0  0  0  0  # atno 8008 bound_to 7997
  154.5695  140.2369  155.8183 H   0  0  0  0  0  0  0  0  0  0  0  0  # atno 8009 bound_to 7997
  156.2111  140.2998  155.9742 H   0  0  0  0  0  0  0  0  0  0  0  0  # atno 8010 bound_to 7997
  140.7227  143.5160  150.9691 H   0  0  0  0  0  0  0  0  0  0  0  0  # atno 10167 bound_to 10162
  156.9263  130.9956  151.2995 H   0  0  0  0  0  0  0  0  0  0  0  0  # atno 10718 bound_to 10713
  154.2054  135.6404  153.5099 H   0  0  0  0  0  0  0  0  0  0  0  0  # atno 10763 bound_to 10752
  153.0002  135.5461  154.6271 H   0  0  0  0  0  0  0  0  0  0  0  0  # atno 10764 bound_to 10752
  154.5694  135.2915  155.0815 H   0  0  0  0  0  0  0  0  0  0  0  0  # atno 10765 bound_to 10752
  139.8935  134.8380  156.2771 H   0  0  0  0  0  0  0  0  0  0  0  0  # atno 11005 bound_to 11000
  146.3529  140.0507  142.8636 LP  0  0  0  0  0  0  0  0  0  0  0  0  # atno 17320 bound_to 7965
  145.1251  140.9485  143.4577 LP  0  0  0  0  0  0  0  0  0  0  0  0  # atno 17321 bound_to 7965
  139.8875  143.6994  152.3149 LP  0  0  0  0  0  0  0  0  0  0  0  0  # atno 17342 bound_to 10162
  139.7298  144.7585  151.0820 LP  0  0  0  0  0  0  0  0  0  0  0  0  # atno 17343 bound_to 10162
  157.5876  130.8420  149.8611 LP  0  0  0  0  0  0  0  0  0  0  0  0  # atno 17370 bound_to 10713
  156.0468  130.3726  150.1299 LP  0  0  0  0  0  0  0  0  0  0  0  0  # atno 17371 bound_to 10713
  141.0063  133.7122  156.1039 LP  0  0  0  0  0  0  0  0  0  0  0  0  # atno 17394 bound_to 11000
  140.7429  134.4130  157.5552 LP  0  0  0  0  0  0  0  0  0  0  0  0  # atno 17395 bound_to 11000

$$$$
