AV-unprocessed.smi:95|AV-procd|sdf|857|dock3
  -GOLD-   2262017303D 1   1.00000     0.00000
 Structure written by MMmdl.
 42 45  0  0  0  0  0  0  0  0  2 V2000
  155.4951  140.8706  163.6766 O   0  0  0  0  0  0  0  0  0  0  0  0
  155.1113  139.7174  163.4740 C   0  0  0  0  0  0  0  0  0  0  0  0
  154.9521  138.7271  164.5335 C   0  0  0  0  0  0  0  0  0  0  0  0
  155.2519  139.0562  165.8011 F   0  0  0  0  0  0  0  0  0  0  0  0
  154.5009  137.4834  164.2625 C   0  0  0  0  0  0  0  0  0  0  0  0
  154.1620  137.0634  162.9879 N   0  0  0  0  0  0  0  0  0  0  0  0
  153.6492  135.6623  162.7527 C   0  0  2  0  0  0  0  0  0  0  0  0
  153.4850  134.9199  164.0854 C   0  0  0  0  0  0  0  0  0  0  0  0
  154.7040  134.0208  164.1071 C   0  0  0  0  0  0  0  0  0  0  0  0
  154.9082  133.7396  162.6238 C   0  0  0  0  0  0  0  0  0  0  0  0
  154.5879  134.9687  161.9834 O   0  0  0  0  0  0  0  0  0  0  0  0
  154.2713  137.9584  161.9016 C   0  0  0  0  0  0  0  0  0  0  0  0
  153.9297  137.6269  160.7640 O   0  0  0  0  0  0  0  0  0  0  0  0
  154.7661  139.2543  162.1799 N   0  0  0  0  0  0  0  0  0  0  0  0
  154.8820  140.1826  161.0666 C   0  0  0  0  0  0  0  0  0  0  0  0
  153.9965  141.4215  161.1323 C   0  0  0  0  0  0  0  0  0  0  0  0
  153.2616  141.8082  162.2776 C   0  0  0  0  0  0  0  0  0  0  0  0
  152.4726  142.9756  162.2318 C   0  0  0  0  0  0  0  0  0  0  0  0
  152.4330  143.7357  161.0440 C   0  0  0  0  0  0  0  0  0  0  0  0
  151.6562  144.9093  160.9571 C   0  0  0  0  0  0  0  0  0  0  0  0
  151.6355  145.6511  159.7590 C   0  0  0  0  0  0  0  0  0  0  0  0
  152.3887  145.2241  158.6468 C   0  0  0  0  0  0  0  0  0  0  0  0
  153.1667  144.0520  158.7270 C   0  0  0  0  0  0  0  0  0  0  0  0
  153.1883  143.3086  159.9235 C   0  0  0  0  0  0  0  0  0  0  0  0
  153.9290  142.1822  160.0163 N   0  3  0  0  0  0  0  0  0  0  0  0
  154.3982  136.7928  165.0863 H   0  0  0  0  0  0  0  0  0  0  0  0
  152.7210  135.7490  162.1869 H   0  0  0  0  0  0  0  0  0  0  0  0
  153.4213  135.6002  164.9356 H   0  0  0  0  0  0  0  0  0  0  0  0
  152.5721  134.3248  164.0404 H   0  0  0  0  0  0  0  0  0  0  0  0
  155.5628  134.5565  164.5127 H   0  0  0  0  0  0  0  0  0  0  0  0
  154.5573  133.1151  164.6963 H   0  0  0  0  0  0  0  0  0  0  0  0
  155.9231  133.4178  162.3899 H   0  0  0  0  0  0  0  0  0  0  0  0
  154.2162  132.9686  162.2816 H   0  0  0  0  0  0  0  0  0  0  0  0
  155.9284  140.4758  160.9737 H   0  0  0  0  0  0  0  0  0  0  0  0
  154.6782  139.6168  160.1553 H   0  0  0  0  0  0  0  0  0  0  0  0
  153.2945  141.2253  163.1861 H   0  0  0  0  0  0  0  0  0  0  0  0
  151.9075  143.2803  163.1008 H   0  0  0  0  0  0  0  0  0  0  0  0
  151.0755  145.2453  161.8040 H   0  0  0  0  0  0  0  0  0  0  0  0
  151.0408  146.5506  159.6924 H   0  0  0  0  0  0  0  0  0  0  0  0
  152.3698  145.7972  157.7314 H   0  0  0  0  0  0  0  0  0  0  0  0
  153.7421  143.7314  157.8705 H   0  0  0  0  0  0  0  0  0  0  0  0
  154.4665  141.8898  159.2004 H   0  0  0  0  0  0  0  0  0  0  0  0
  1  2  2  0  0  0  0
  2 14  1  0  0  0  0
  2  3  1  0  0  0  0
  3  4  1  0  0  0  0
  3  5  2  0  0  0  0
  5  6  1  0  0  0  0
  5 26  1  0  0  0  0
  6  7  1  0  0  0  0
  6 12  1  0  0  0  0
  7 11  1  0  0  0  0
  7  8  1  0  0  0  0
  7 27  1  0  0  0  0
  8  9  1  0  0  0  0
  8 28  1  0  0  0  0
  8 29  1  0  0  0  0
  9 10  1  0  0  0  0
  9 30  1  0  0  0  0
  9 31  1  0  0  0  0
 10 11  1  0  0  0  0
 10 32  1  0  0  0  0
 10 33  1  0  0  0  0
 12 13  2  0  0  0  0
 12 14  1  0  0  0  0
 14 15  1  0  0  0  0
 15 16  1  0  0  0  0
 15 34  1  0  0  0  0
 15 35  1  0  0  0  0
 16 25  1  0  0  0  0
 16 17  2  0  0  0  0
 17 18  1  0  0  0  0
 17 36  1  0  0  0  0
 18 19  2  0  0  0  0
 18 37  1  0  0  0  0
 19 24  1  0  0  0  0
 19 20  1  0  0  0  0
 20 21  2  0  0  0  0
 20 38  1  0  0  0  0
 21 22  1  0  0  0  0
 21 39  1  0  0  0  0
 22 23  2  0  0  0  0
 22 40  1  0  0  0  0
 23 24  1  0  0  0  0
 23 41  1  0  0  0  0
 24 25  2  0  0  0  0
 25 42  1  0  0  0  0
M  CHG  1  25   1
M  END
> <s_m_source_file>
AV-unprocessed.smi

> <i_m_source_file_index>
95

> <i_lp_mmshare_version>
43012

> <i_f3d_flags>
0

> <s_epik_input>
TzFbQ0gyXVtDSDJdW0NIMl1bQ0BIXTFuKFtjSF1jKEYpYzI9TyljKD1PKW4yW0NIMl1jKFtjSF1bY0hdMyluYyhjMzQpW2NIXVtjSF1bY0hdW2NIXTQ=

> <s_epik_cmdline>
J2VwaWtfcHl0aG9uJywgJy1waCcsICc3LjAnLCAnLXRuJywgJzgnLCAnLW1hJywgJzIwMCcsICctbWV0YWxfYmluZGluZycsICctaW1hZScsICc8aW5maWxlLm1hZT4nLCAnLW9tYWUnLCAnPG91dGZpbGUubWFlPic=

> <r_lp_tautomer_probability>
1

> <r_epik_Ionization_Penalty>
1.83445

> <r_epik_Ionization_Penalty_Charging>
1.83445

> <r_epik_Ionization_Penalty_Neutral>
6.33322e-12

> <r_epik_State_Penalty>
1.95069

> <r_epik_Charging_Adjusted_Penalty>
3.78513

> <i_epik_Tot_Q>
1

> <i_epik_Tot_abs_Q>
1

> <r_epik_Metal_State_Penalty>
6.02102

> <b_epik_Metal_Only>
0

> <s_epik_Chemistry_Notes>
This compound contains an acetal/aminal-like group ( X-CH(R)-Y where X, Y are N, S, or O) that may be acid/base labile, releasing an aldehyde.

> <s_lp_Force_Field>
OPLS_2005

> <r_lp_Energy>
36.4977

> <b_lp_Chiralities_Consistent>
1

> <s_lp_Variant>
AV-unprocessed.smi:95-3

> <Gold.Version>
5.8.1

> <Gold.Id.Protein>
6NUR|6NUR_protein|mol2

> <Gold.PLP.Fitness>
60.3891

> <Gold.PLP.PLP>
-60.7389

> <Gold.PLP.part.hbond>
-0.8182

> <Gold.PLP.part.metal>
0.0000

> <Gold.PLP.part.buried>
-4.9124

> <Gold.PLP.part.nonpolar>
-55.2618

> <Gold.PLP.part.repulsive>
0.0506

> <Gold.PLP.ligand.clash>
0.0000

> <Gold.PLP.ligand.torsion>
0.1791

> <Gold.PLP.Chemscore.Hbond>
0.0000

> <Gold.PLP.Chemscore.CHOScore>
0.0000

> <Gold.PLP.Chemscore.Metal>
0.0000

> <Gold.PLP.Chemscore.Internal.Correction>
0.0084

> <Gold.Rescore>
     Score         DG    S(hbond)    S(metal)    S(lipo)     H(rot)  DE(clash)    DE(int)     intcor
     15.75     -18.15       0.00        0.00     141.96       1.54       2.03       0.37       ----

> <Gold.Chemscore.Fitness>
15.7468

> <Gold.Chemscore.DG>
-18.1454

> <Gold.Chemscore.ZeroCoef>
-5.4800

> <Gold.Chemscore.Hbond>
0.0000

> <Gold.Chemscore.Metal>
0.0000

> <Gold.Chemscore.Lipo>
141.9630

> <Gold.Chemscore.Internal_Hbond>
0.0000

> <Gold.Chemscore.DEClash>
2.0264

> <Gold.Chemscore.DEInternal>
0.3722

> <Gold.Chemscore.Rot>
1.5407

> <Gold.Chemscore.Internal.Correction>
   9.000000E+99

> <Gold.Chemscore.Hbond.Weighted>
-0.0000

> <Gold.Chemscore.Metal.Weighted>
-0.0000

> <Gold.Chemscore.Lipo.Weighted>
-16.6097

> <Gold.Chemscore.Internal_Hbond.Weighted>
0.0000

> <Gold.Chemscore.DEClash.Weighted>
2.0264

> <Gold.Chemscore.DEInternal.Weighted>
0.3722

> <Gold.Chemscore.Rot.Weighted>
3.9443

> <Gold.Chemscore.Internal.Correction.Weighted>
   9.000000E+99

> <Gold.Protein.RotatedTorsions>
[ 6907 6896 6895 6894 ] final -105.41 input  -60.11 | X-H torsion
[ 7974 7965 7964 7962 ] final  -53.80 input  175.53 | X-H torsion
[ 8008 7997 7996 7995 ] final -136.80 input   59.86 | X-H torsion
[ 10167 10162 10161 10158 ] final -126.77 input  -65.29 | X-H torsion
[ 10718 10713 10712 10709 ] final  120.28 input   66.30 | X-H torsion
[ 10763 10752 10751 10750 ] final  105.40 input  -60.55 | X-H torsion
[ 11005 11000 10999 10996 ] final -150.03 input  -57.11 | X-H torsion

> <Gold.Protein.ActiveResidues>
 VAL166  LYS551  ARG553  GLY616  TRP617  ASP618  TYR619  PRO620  LYS621  CYS622 
 ASP623  PHE694  ASN695  SER759  ASP760  ASP761  ALA762  ILE779  LEU786  VAL792 
 PHE793  MET794  SER795  GLU796  ALA797  LYS798  CYS799  TRP800  GLU811  SER814 

> <Gold.Protein.RotatedAtoms>
  150.7336  134.0130  159.3675 H   0  0  0  0  0  0  0  0  0  0  0  0  # atno 6907 bound_to 6896
  151.8091  135.0684  160.0420 H   0  0  0  0  0  0  0  0  0  0  0  0  # atno 6908 bound_to 6896
  152.3086  133.5692  159.5702 H   0  0  0  0  0  0  0  0  0  0  0  0  # atno 6909 bound_to 6896
  145.8927  140.8057  142.9783 H   0  0  0  0  0  0  0  0  0  0  0  0  # atno 7974 bound_to 7965
  155.4012  140.0506  157.3036 H   0  0  0  0  0  0  0  0  0  0  0  0  # atno 8008 bound_to 7997
  154.4990  140.2149  155.9348 H   0  0  0  0  0  0  0  0  0  0  0  0  # atno 8009 bound_to 7997
  156.1442  140.3148  155.8549 H   0  0  0  0  0  0  0  0  0  0  0  0  # atno 8010 bound_to 7997
  139.9680  143.5877  152.2423 H   0  0  0  0  0  0  0  0  0  0  0  0  # atno 10167 bound_to 10162
  157.5902  131.1065  150.8014 H   0  0  0  0  0  0  0  0  0  0  0  0  # atno 10718 bound_to 10713
  153.3789  135.3911  155.1842 H   0  0  0  0  0  0  0  0  0  0  0  0  # atno 10763 bound_to 10752
  154.8705  135.3720  154.4883 H   0  0  0  0  0  0  0  0  0  0  0  0  # atno 10764 bound_to 10752
  153.5358  135.7085  153.5722 H   0  0  0  0  0  0  0  0  0  0  0  0  # atno 10765 bound_to 10752
  140.7445  134.3476  157.5140 H   0  0  0  0  0  0  0  0  0  0  0  0  # atno 11005 bound_to 11000
  144.6731  140.1555  143.7426 LP  0  0  0  0  0  0  0  0  0  0  0  0  # atno 17320 bound_to 7965
  145.8888  139.2364  143.1562 LP  0  0  0  0  0  0  0  0  0  0  0  0  # atno 17321 bound_to 7965
  139.6503  144.7660  151.2161 LP  0  0  0  0  0  0  0  0  0  0  0  0  # atno 17342 bound_to 10162
  140.7531  143.6172  150.8548 LP  0  0  0  0  0  0  0  0  0  0  0  0  # atno 17343 bound_to 10162
  156.8438  130.5057  149.5318 LP  0  0  0  0  0  0  0  0  0  0  0  0  # atno 17370 bound_to 10713
  156.0956  130.5929  150.9807 LP  0  0  0  0  0  0  0  0  0  0  0  0  # atno 17371 bound_to 10713
  139.8799  134.9102  156.3009 LP  0  0  0  0  0  0  0  0  0  0  0  0  # atno 17394 bound_to 11000
  140.9806  133.7269  156.0667 LP  0  0  0  0  0  0  0  0  0  0  0  0  # atno 17395 bound_to 11000

$$$$
