AV-unprocessed.smi:1047|AV-procd|sdf|4573|dock7
  -GOLD-   22720 3 33D 1   1.00000     0.00000
 Structure written by MMmdl.
 56 58  0  0  0  0  0  0  0  0  2 V2000
  141.5413  137.6732  153.1653 C   0  0  0  0  0  0  0  0  0  0  0  0
  142.7627  137.7584  154.0913 C   0  0  0  0  0  0  0  0  0  0  0  0
  144.0243  138.0229  153.3496 N   0  3  2  0  0  0  0  0  0  0  0  0
  144.3999  136.9332  152.4163 C   0  0  0  0  0  0  0  0  0  0  0  0
  145.0260  135.7467  153.1708 C   0  0  0  0  0  0  0  0  0  0  0  0
  146.1479  136.1996  153.9191 O   0  0  0  0  0  0  0  0  0  0  0  0
  145.7958  137.1631  154.9067 C   0  0  1  0  0  0  0  0  0  0  0  0
  147.0712  137.5124  155.6888 C   0  0  0  0  0  0  0  0  0  0  0  0
  148.0474  138.1897  154.8405 N   0  0  0  0  0  0  0  0  0  0  0  0
  148.8170  139.2119  155.5428 C   0  0  0  0  0  0  0  0  0  0  0  0
  149.2484  140.3429  154.5902 C   0  0  2  0  0  0  0  0  0  0  0  0
  150.1467  139.8072  153.6389 O   0  0  0  0  0  0  0  0  0  0  0  0
  149.9345  141.5223  155.3137 C   0  0  0  0  0  0  0  0  0  0  0  0
  150.9103  141.1101  156.3111 N   0  0  0  0  0  0  0  0  0  0  0  0
  151.6875  140.0100  156.2799 C   0  0  0  0  0  0  0  0  0  0  0  0
  152.5173  139.8199  157.3012 N   0  0  0  0  0  0  0  0  0  0  0  0
  152.2406  140.9206  158.0935 C   0  0  0  0  0  0  0  0  0  0  0  0
  152.7844  141.3155  159.3354 C   0  0  0  0  0  0  0  0  0  0  0  0
  152.3444  142.4950  159.9770 C   0  0  0  0  0  0  0  0  0  0  0  0
  152.9561  142.8816  161.3121 C   0  0  0  0  0  0  0  0  0  0  0  0
  151.3446  143.3004  159.3749 C   0  0  0  0  0  0  0  0  0  0  0  0
  150.8556  144.5718  160.0455 C   0  0  0  0  0  0  0  0  0  0  0  0
  150.7913  142.9208  158.1342 C   0  0  0  0  0  0  0  0  0  0  0  0
  151.2378  141.7454  157.5047 C   0  0  0  0  0  0  0  0  0  0  0  0
  145.1835  138.3953  154.2005 C   0  0  0  0  0  0  0  0  0  0  0  0
  140.6562  137.3757  153.7277 H   0  0  0  0  0  0  0  0  0  0  0  0
  141.6937  136.9350  152.3776 H   0  0  0  0  0  0  0  0  0  0  0  0
  141.3150  138.6290  152.6937 H   0  0  0  0  0  0  0  0  0  0  0  0
  142.5995  138.5069  154.8661 H   0  0  0  0  0  0  0  0  0  0  0  0
  142.8513  136.8014  154.6066 H   0  0  0  0  0  0  0  0  0  0  0  0
  143.5381  136.6106  151.8308 H   0  0  0  0  0  0  0  0  0  0  0  0
  145.1240  137.3271  151.7021 H   0  0  0  0  0  0  0  0  0  0  0  0
  144.3005  135.2661  153.8285 H   0  0  0  0  0  0  0  0  0  0  0  0
  145.3603  134.9888  152.4622 H   0  0  0  0  0  0  0  0  0  0  0  0
  145.0772  136.7128  155.5934 H   0  0  0  0  0  0  0  0  0  0  0  0
  146.8082  138.1633  156.5234 H   0  0  0  0  0  0  0  0  0  0  0  0
  147.5031  136.6100  156.1234 H   0  0  0  0  0  0  0  0  0  0  0  0
  147.5825  138.6029  154.0383 H   0  0  0  0  0  0  0  0  0  0  0  0
  148.1943  139.6364  156.3314 H   0  0  0  0  0  0  0  0  0  0  0  0
  149.6846  138.7727  156.0376 H   0  0  0  0  0  0  0  0  0  0  0  0
  148.3793  140.7321  154.0578 H   0  0  0  0  0  0  0  0  0  0  0  0
  149.7380  139.8434  152.7873 H   0  0  0  0  0  0  0  0  0  0  0  0
  150.4297  142.1729  154.5918 H   0  0  0  0  0  0  0  0  0  0  0  0
  149.1820  142.1370  155.8097 H   0  0  0  0  0  0  0  0  0  0  0  0
  151.6446  139.3107  155.4576 H   0  0  0  0  0  0  0  0  0  0  0  0
  153.5454  140.7012  159.7938 H   0  0  0  0  0  0  0  0  0  0  0  0
  152.1857  142.9514  162.0802 H   0  0  0  0  0  0  0  0  0  0  0  0
  153.4594  143.8457  161.2364 H   0  0  0  0  0  0  0  0  0  0  0  0
  153.6902  142.1460  161.6418 H   0  0  0  0  0  0  0  0  0  0  0  0
  150.1032  145.0770  159.4394 H   0  0  0  0  0  0  0  0  0  0  0  0
  151.6821  145.2659  160.1987 H   0  0  0  0  0  0  0  0  0  0  0  0
  150.4088  144.3449  161.0136 H   0  0  0  0  0  0  0  0  0  0  0  0
  150.0294  143.5255  157.6645 H   0  0  0  0  0  0  0  0  0  0  0  0
  145.9372  138.8522  153.5578 H   0  0  0  0  0  0  0  0  0  0  0  0
  144.9055  139.1604  154.9241 H   0  0  0  0  0  0  0  0  0  0  0  0
  143.8243  138.8256  152.7699 H   0  0  0  0  0  0  0  0  0  0  0  0
  1  2  1  0  0  0  0
  1 26  1  0  0  0  0
  1 27  1  0  0  0  0
  1 28  1  0  0  0  0
  2  3  1  0  0  0  0
  2 29  1  0  0  0  0
  2 30  1  0  0  0  0
  3 25  1  0  0  0  0
  3  4  1  0  0  0  0
  3 56  1  0  0  0  0
  4  5  1  0  0  0  0
  4 31  1  0  0  0  0
  4 32  1  0  0  0  0
  5  6  1  0  0  0  0
  5 33  1  0  0  0  0
  5 34  1  0  0  0  0
  6  7  1  0  0  0  0
  7  8  1  0  0  0  0
  7 25  1  0  0  0  0
  7 35  1  0  0  0  0
  8  9  1  0  0  0  0
  8 36  1  0  0  0  0
  8 37  1  0  0  0  0
  9 10  1  0  0  0  0
  9 38  1  0  0  0  0
 10 11  1  0  0  0  0
 10 39  1  0  0  0  0
 10 40  1  0  0  0  0
 11 12  1  0  0  0  0
 11 13  1  0  0  0  0
 11 41  1  0  0  0  0
 12 42  1  0  0  0  0
 13 14  1  0  0  0  0
 13 43  1  0  0  0  0
 13 44  1  0  0  0  0
 14 24  1  0  0  0  0
 14 15  1  0  0  0  0
 15 16  2  0  0  0  0
 15 45  1  0  0  0  0
 16 17  1  0  0  0  0
 17 24  2  0  0  0  0
 17 18  1  0  0  0  0
 18 19  2  0  0  0  0
 18 46  1  0  0  0  0
 19 20  1  0  0  0  0
 19 21  1  0  0  0  0
 20 47  1  0  0  0  0
 20 48  1  0  0  0  0
 20 49  1  0  0  0  0
 21 22  1  0  0  0  0
 21 23  2  0  0  0  0
 22 50  1  0  0  0  0
 22 51  1  0  0  0  0
 22 52  1  0  0  0  0
 23 24  1  0  0  0  0
 23 53  1  0  0  0  0
 25 54  1  0  0  0  0
 25 55  1  0  0  0  0
M  CHG  1   3   1
M  END
> <s_m_source_file>
AV-unprocessed.smi

> <i_m_source_file_index>
1047

> <i_lp_mmshare_version>
43012

> <i_f3d_flags>
0

> <s_epik_input>
W0NIM11bQ0gyXU4xW0NIMl1bQ0gyXU9bQ0BIXShbQ0gyXTEpW0NIMl1bTkhdW0NIMl1bQ0BIXShbT0hdKVtDSDJdbihbY0hdbjIpYyhjMjMpW2NIXWMoW0NIM10pYyhbY0hdMylbQ0gzXQ==

> <s_epik_cmdline>
J2VwaWtfcHl0aG9uJywgJy1waCcsICc3LjAnLCAnLXRuJywgJzgnLCAnLW1hJywgJzIwMCcsICctbWV0YWxfYmluZGluZycsICctaW1hZScsICc8aW5maWxlLm1hZT4nLCAnLW9tYWUnLCAnPG91dGZpbGUubWFlPic=

> <r_epik_Ionization_Penalty>
1.19246

> <r_epik_Ionization_Penalty_Charging>
0.210041

> <r_epik_Ionization_Penalty_Neutral>
0.982415

> <r_epik_State_Penalty>
1.57595

> <r_epik_Charging_Adjusted_Penalty>
1.78599

> <i_epik_Tot_Q>
1

> <i_epik_Tot_abs_Q>
1

> <r_epik_Metal_State_Penalty>
1.46172

> <b_epik_Metal_Only>
0

> <s_lp_Force_Field>
OPLS_2005

> <r_lp_Energy>
32.195

> <b_lp_Chiralities_Consistent>
1

> <s_lp_Variant>
AV-unprocessed.smi:1047-14

> <Gold.Version>
5.8.1

> <Gold.Id.Protein>
6NUR|6NUR_protein|mol2

> <Gold.PLP.Fitness>
54.1187

> <Gold.PLP.PLP>
-41.3701

> <Gold.PLP.part.hbond>
-4.0000

> <Gold.PLP.part.metal>
0.0000

> <Gold.PLP.part.buried>
-4.8344

> <Gold.PLP.part.nonpolar>
-32.3309

> <Gold.PLP.part.repulsive>
0.0699

> <Gold.PLP.ligand.clash>
0.0000

> <Gold.PLP.ligand.torsion>
0.9981

> <Gold.PLP.Chemscore.Hbond>
4.8640

> <Gold.PLP.Chemscore.CHOScore>
0.0000

> <Gold.PLP.Chemscore.Metal>
0.0000

> <Gold.Chemscore.Hbonds>
donor molecule, donor type, donor heavy atom, donor atom, acceptor molecule, acceptor atom, score
      L1  H     3    56       P1 10175  2.00
      L1  H    12    42       P1  7957  1.00
      P1  H  7989  7998       L1    12  0.82
      P1  H  7997  8010       L1    16  1.00

> <Gold.PLP.Chemscore.Internal.Correction>
0.1528

> <Gold.Rescore>
     Score         DG    S(hbond)    S(metal)    S(lipo)     H(rot)  DE(clash)    DE(int)     intcor
     19.93     -22.22       3.45        0.00     101.83       2.62       0.21       2.08       ----

> <Gold.Chemscore.Fitness>
19.9270

> <Gold.Chemscore.DG>
-22.2156

> <Gold.Chemscore.ZeroCoef>
-5.4800

> <Gold.Chemscore.Hbond>
3.4522

> <Gold.Chemscore.Metal>
0.0000

> <Gold.Chemscore.Lipo>
101.8347

> <Gold.Chemscore.Internal_Hbond>
0.0000

> <Gold.Chemscore.DEClash>
0.2091

> <Gold.Chemscore.DEInternal>
2.0794

> <Gold.Chemscore.Rot>
2.6209

> <Gold.Chemscore.Internal.Correction>
   9.000000E+99

> <Gold.Chemscore.Hbonds>
donor molecule, donor type, donor heavy atom, donor atom, acceptor molecule, acceptor atom, score
      L1  H     3    56       P1 10175  0.98
      L1  H    12    42       P1  7957  0.99
      P1  H  7989  7998       L1    12  0.29
      P1  H  7997  8010       L1    16  0.29

> <Gold.Chemscore.Hbond.Weighted>
-11.5305

> <Gold.Chemscore.Metal.Weighted>
-0.0000

> <Gold.Chemscore.Lipo.Weighted>
-11.9147

> <Gold.Chemscore.Internal_Hbond.Weighted>
0.0000

> <Gold.Chemscore.DEClash.Weighted>
0.2091

> <Gold.Chemscore.DEInternal.Weighted>
2.0794

> <Gold.Chemscore.Rot.Weighted>
6.7096

> <Gold.Chemscore.Internal.Correction.Weighted>
   9.000000E+99

> <Gold.Protein.RotatedTorsions>
[ 6907 6896 6895 6894 ] final   24.19 input  -60.11 | X-H torsion
[ 7974 7965 7964 7962 ] final  172.29 input  175.53 | X-H torsion
[ 8008 7997 7996 7995 ] final   65.41 input   59.86 | X-H torsion
[ 10167 10162 10161 10158 ] final  -26.26 input  -65.29 | X-H torsion
[ 10718 10713 10712 10709 ] final    2.91 input   66.30 | X-H torsion
[ 10763 10752 10751 10750 ] final   20.74 input  -60.55 | X-H torsion
[ 11005 11000 10999 10996 ] final   31.41 input  -57.11 | X-H torsion

> <Gold.Protein.ActiveResidues>
 VAL166  LYS551  ARG553  GLY616  TRP617  ASP618  TYR619  PRO620  LYS621  CYS622 
 ASP623  PHE694  ASN695  SER759  ASP760  ASP761  ALA762  ILE779  LEU786  VAL792 
 PHE793  MET794  SER795  GLU796  ALA797  LYS798  CYS799  TRP800  GLU811  SER814 

> <Gold.Protein.RotatedAtoms>
  151.9537  135.0157  160.0543 H   0  0  0  0  0  0  0  0  0  0  0  0  # atno 6907 bound_to 6896
  152.1930  133.4782  159.5026 H   0  0  0  0  0  0  0  0  0  0  0  0  # atno 6908 bound_to 6896
  150.6939  134.1605  159.4217 H   0  0  0  0  0  0  0  0  0  0  0  0  # atno 6909 bound_to 6896
  144.7272  139.9476  143.6431 H   0  0  0  0  0  0  0  0  0  0  0  0  # atno 7974 bound_to 7965
  155.6613  140.3497  155.4784 H   0  0  0  0  0  0  0  0  0  0  0  0  # atno 8008 bound_to 7997
  155.9766  140.1166  157.0787 H   0  0  0  0  0  0  0  0  0  0  0  0  # atno 8009 bound_to 7997
  154.4180  140.1146  156.5365 H   0  0  0  0  0  0  0  0  0  0  0  0  # atno 8010 bound_to 7997
  140.7283  143.4193  151.0976 H   0  0  0  0  0  0  0  0  0  0  0  0  # atno 10167 bound_to 10162
  156.8700  130.5616  149.5658 H   0  0  0  0  0  0  0  0  0  0  0  0  # atno 10718 bound_to 10713
  153.1052  135.6683  153.9599 H   0  0  0  0  0  0  0  0  0  0  0  0  # atno 10763 bound_to 10752
  153.9158  135.3020  155.3449 H   0  0  0  0  0  0  0  0  0  0  0  0  # atno 10764 bound_to 10752
  154.7473  135.5051  153.9303 H   0  0  0  0  0  0  0  0  0  0  0  0  # atno 10765 bound_to 10752
  140.2842  134.2938  155.7792 H   0  0  0  0  0  0  0  0  0  0  0  0  # atno 11005 bound_to 11000
  146.0736  139.3724  143.0508 LP  0  0  0  0  0  0  0  0  0  0  0  0  # atno 17320 bound_to 7965
  145.7935  140.9803  143.1036 LP  0  0  0  0  0  0  0  0  0  0  0  0  # atno 17321 bound_to 7965
  139.7837  143.8318  152.3141 LP  0  0  0  0  0  0  0  0  0  0  0  0  # atno 17342 bound_to 10162
  139.8278  144.7267  150.9489 LP  0  0  0  0  0  0  0  0  0  0  0  0  # atno 17343 bound_to 10162
  156.0731  130.5760  150.9423 LP  0  0  0  0  0  0  0  0  0  0  0  0  # atno 17370 bound_to 10713
  157.6201  131.0930  150.8637 LP  0  0  0  0  0  0  0  0  0  0  0  0  # atno 17371 bound_to 10713
  141.2157  133.7544  156.9526 LP  0  0  0  0  0  0  0  0  0  0  0  0  # atno 17394 bound_to 11000
  140.1255  134.9389  157.2264 LP  0  0  0  0  0  0  0  0  0  0  0  0  # atno 17395 bound_to 11000

$$$$
