AV-unprocessed.smi:1|AV-procd|sdf|1|dock8
  -GOLD-   2262015 83D 1   1.00000     0.00000
 Structure written by MMmdl.
 57 62  0  0  0  0  0  0  0  0  1 V2000
  153.4508  142.3485  162.4163 O   0  0  0  0  0  0  0  0  0  0  0  0
  153.4523  142.2711  161.1875 C   0  0  0  0  0  0  0  0  0  0  0  0
  154.1988  141.2463  160.4787 N   0  0  0  0  0  0  0  0  0  0  0  0
  154.8999  140.2115  160.9989 C   0  0  0  0  0  0  0  0  0  0  0  0
  154.8880  139.9161  162.3253 N   0  0  0  0  0  0  0  0  0  0  0  0
  155.5943  138.8818  162.7900 C   0  0  0  0  0  0  0  0  0  0  0  0
  156.3638  138.0275  162.1134 N   0  0  0  0  0  0  0  0  0  0  0  0
  156.3815  138.3150  160.7799 C   0  0  0  0  0  0  0  0  0  0  0  0
  155.6805  139.3822  160.1517 C   0  0  0  0  0  0  0  0  0  0  0  0
  155.9321  139.3709  158.7863 N   0  0  0  0  0  0  0  0  0  0  0  0
  156.7409  138.3590  158.6226 C   0  0  0  0  0  0  0  0  0  0  0  0
  157.0679  137.6698  159.7693 N   0  0  0  0  0  0  0  0  0  0  0  0
  157.9727  136.4820  159.8848 C   0  0  2  0  0  0  0  0  0  0  0  0
  158.3504  136.0668  158.6064 O   0  0  0  0  0  0  0  0  0  0  0  0
  157.9696  134.7122  158.3853 C   0  0  1  0  0  0  0  0  0  0  0  0
  158.9944  133.9943  157.4976 C   0  0  0  0  0  0  0  0  0  0  0  0
  158.8456  134.4082  156.1480 O   0  0  0  0  0  0  0  0  0  0  0  0
  159.9227  134.5069  155.3458 C   0  0  0  0  0  0  0  0  0  0  0  0
  161.0788  134.3170  155.7288 O   0  0  0  0  0  0  0  0  0  0  0  0
  159.5690  134.8762  153.9448 C   0  0  0  0  0  0  0  0  0  0  0  0
  158.2467  135.2814  153.6474 C   0  0  0  0  0  0  0  0  0  0  0  0
  157.8833  135.6358  152.3337 C   0  0  0  0  0  0  0  0  0  0  0  0
  158.8382  135.5915  151.3014 C   0  0  0  0  0  0  0  0  0  0  0  0
  160.1570  135.1906  151.5842 C   0  0  0  0  0  0  0  0  0  0  0  0
  160.5221  134.8341  152.8971 C   0  0  0  0  0  0  0  0  0  0  0  0
  157.7615  134.0952  159.7724 C   0  0  2  0  0  0  0  0  0  0  0  0
  156.7267  133.1261  159.7714 O   0  0  0  0  0  0  0  0  0  0  0  0
  155.2828  133.8768  160.1558 S   0  0  0  0  0  0  0  0  0  0  0  0
  154.4903  134.0164  158.9247 O   0  0  0  0  0  0  0  0  0  0  0  0
  154.7497  133.2488  161.3741 O   0  0  0  0  0  0  0  0  0  0  0  0
  155.8863  135.3789  160.5621 O   0  0  0  0  0  0  0  0  0  0  0  0
  157.3018  135.2980  160.6007 C   0  0  2  0  0  0  0  0  0  0  0  0
  152.7542  143.2880  160.3320 C   0  0  0  0  0  0  0  0  0  0  0  0
  152.7509  143.1465  158.9259 C   0  0  0  0  0  0  0  0  0  0  0  0
  152.1131  144.1047  158.1143 C   0  0  0  0  0  0  0  0  0  0  0  0
  151.4793  145.2162  158.7008 C   0  0  0  0  0  0  0  0  0  0  0  0
  151.4877  145.3713  160.0998 C   0  0  0  0  0  0  0  0  0  0  0  0
  152.1251  144.4138  160.9128 C   0  0  0  0  0  0  0  0  0  0  0  0
  154.1806  141.3049  159.4711 H   0  0  0  0  0  0  0  0  0  0  0  0
  155.5341  138.7148  163.8552 H   0  0  0  0  0  0  0  0  0  0  0  0
  157.1291  138.0884  157.6515 H   0  0  0  0  0  0  0  0  0  0  0  0
  158.8534  136.8505  160.4121 H   0  0  0  0  0  0  0  0  0  0  0  0
  157.0152  134.7345  157.8596 H   0  0  0  0  0  0  0  0  0  0  0  0
  160.0018  134.2244  157.8474 H   0  0  0  0  0  0  0  0  0  0  0  0
  158.8629  132.9137  157.5666 H   0  0  0  0  0  0  0  0  0  0  0  0
  157.4961  135.3232  154.4236 H   0  0  0  0  0  0  0  0  0  0  0  0
  156.8701  135.9418  152.1182 H   0  0  0  0  0  0  0  0  0  0  0  0
  158.5594  135.8643  150.2941 H   0  0  0  0  0  0  0  0  0  0  0  0
  160.8906  135.1570  150.7920 H   0  0  0  0  0  0  0  0  0  0  0  0
  161.5430  134.5321  153.0796 H   0  0  0  0  0  0  0  0  0  0  0  0
  158.6859  133.6868  160.1819 H   0  0  0  0  0  0  0  0  0  0  0  0
  157.6318  135.2438  161.6384 H   0  0  0  0  0  0  0  0  0  0  0  0
  153.2341  142.2997  158.4600 H   0  0  0  0  0  0  0  0  0  0  0  0
  152.1113  143.9866  157.0408 H   0  0  0  0  0  0  0  0  0  0  0  0
  150.9912  145.9514  158.0782 H   0  0  0  0  0  0  0  0  0  0  0  0
  151.0079  146.2275  160.5502 H   0  0  0  0  0  0  0  0  0  0  0  0
  152.1279  144.5578  161.9836 H   0  0  0  0  0  0  0  0  0  0  0  0
  1  2  2  0  0  0  0
  2  3  1  0  0  0  0
  2 33  1  0  0  0  0
  3  4  1  0  0  0  0
  3 39  1  0  0  0  0
  4  9  1  0  0  0  0
  4  5  2  0  0  0  0
  5  6  1  0  0  0  0
  6  7  2  0  0  0  0
  6 40  1  0  0  0  0
  7  8  1  0  0  0  0
  8 12  1  0  0  0  0
  8  9  2  0  0  0  0
  9 10  1  0  0  0  0
 10 11  2  0  0  0  0
 11 12  1  0  0  0  0
 11 41  1  0  0  0  0
 12 13  1  0  0  0  0
 13 32  1  0  0  0  0
 13 14  1  0  0  0  0
 13 42  1  0  0  0  0
 14 15  1  0  0  0  0
 15 16  1  0  0  0  0
 15 26  1  0  0  0  0
 15 43  1  0  0  0  0
 16 17  1  0  0  0  0
 16 44  1  0  0  0  0
 16 45  1  0  0  0  0
 17 18  1  0  0  0  0
 18 19  2  0  0  0  0
 18 20  1  0  0  0  0
 20 25  1  0  0  0  0
 20 21  2  0  0  0  0
 21 22  1  0  0  0  0
 21 46  1  0  0  0  0
 22 23  2  0  0  0  0
 22 47  1  0  0  0  0
 23 24  1  0  0  0  0
 23 48  1  0  0  0  0
 24 25  2  0  0  0  0
 24 49  1  0  0  0  0
 25 50  1  0  0  0  0
 26 32  1  0  0  0  0
 26 27  1  0  0  0  0
 26 51  1  0  0  0  0
 27 28  1  0  0  0  0
 28 29  2  0  0  0  0
 28 30  2  0  0  0  0
 28 31  1  0  0  0  0
 31 32  1  0  0  0  0
 32 52  1  0  0  0  0
 33 38  1  0  0  0  0
 33 34  2  0  0  0  0
 34 35  1  0  0  0  0
 34 53  1  0  0  0  0
 35 36  2  0  0  0  0
 35 54  1  0  0  0  0
 36 37  1  0  0  0  0
 36 55  1  0  0  0  0
 37 38  2  0  0  0  0
 37 56  1  0  0  0  0
 38 57  1  0  0  0  0
M  END
> <s_m_source_file>
AV-unprocessed.smi

> <i_m_source_file_index>
1

> <i_lp_mmshare_version>
43012

> <i_f3d_flags>
0

> <s_epik_input>
W2NIXTFbY0hdW2NIXVtjSF1bY0hdYzFDKD1PKVtOSF1jKG5bY0hdbjIpYyhjMjMpbltjSF1uM1tDQEBIXShbQ0BIXShbQ0BIXTQ1KU9TKE81KSg9Tyk9TylPW0NASF00W0NIMl1PQyg9TyljNltjSF1bY0hdW2NIXVtjSF1bY0hdNg==

> <s_epik_cmdline>
J2VwaWtfcHl0aG9uJywgJy1waCcsICc3LjAnLCAnLXRuJywgJzgnLCAnLW1hJywgJzIwMCcsICctbWV0YWxfYmluZGluZycsICctaW1hZScsICc8aW5maWxlLm1hZT4nLCAnLW9tYWUnLCAnPG91dGZpbGUubWFlPic=

> <r_lp_tautomer_probability>
1

> <r_epik_Ionization_Penalty>
0.00195722

> <r_epik_Ionization_Penalty_Charging>
0

> <r_epik_Ionization_Penalty_Neutral>
0.00195722

> <r_epik_State_Penalty>
0.00633741

> <r_epik_Charging_Adjusted_Penalty>
0.00633741

> <i_epik_Tot_Q>
0

> <i_epik_Tot_abs_Q>
0

> <r_epik_Metal_State_Penalty>
0.341185

> <b_epik_Metal_Only>
0

> <s_epik_Chemistry_Notes>
This compound has an ester and may undergo hydrolysis at high or low pH. This compound contains an acetal/aminal-like group ( X-CH(R)-Y where X, Y are N, S, or O) that may be acid/base labile, releasing an aldehyde.

> <s_lp_Force_Field>
OPLS_2005

> <r_lp_Energy>
46.2159

> <b_lp_Chiralities_Consistent>
1

> <s_lp_Variant>
AV-unprocessed.smi:1-1

> <Gold.Version>
5.8.1

> <Gold.Id.Protein>
6NUR|6NUR_protein|mol2

> <Gold.PLP.Fitness>
60.5101

> <Gold.PLP.PLP>
-55.7390

> <Gold.PLP.part.hbond>
-1.9191

> <Gold.PLP.part.metal>
0.0000

> <Gold.PLP.part.buried>
-10.1411

> <Gold.PLP.part.nonpolar>
-45.4788

> <Gold.PLP.part.repulsive>
0.3045

> <Gold.PLP.ligand.clash>
0.0000

> <Gold.PLP.ligand.torsion>
0.5008

> <Gold.PLP.Chemscore.Hbond>
1.8938

> <Gold.PLP.Chemscore.CHOScore>
0.0000

> <Gold.PLP.Chemscore.Metal>
0.0000

> <Gold.Chemscore.Hbonds>
donor molecule, donor type, donor heavy atom, donor atom, acceptor molecule, acceptor atom, score
      P1  H  6896  6909       L1    29  0.88
      P1  H  7997  8009       L1    10  1.00

> <Gold.PLP.Chemscore.Internal.Correction>
0.0915

> <Gold.Rescore>
     Score         DG    S(hbond)    S(metal)    S(lipo)     H(rot)  DE(clash)    DE(int)     intcor
     19.25     -21.94       1.85        0.00     134.51       2.13       0.10       2.60       ----

> <Gold.Chemscore.Fitness>
19.2522

> <Gold.Chemscore.DG>
-21.9438

> <Gold.Chemscore.ZeroCoef>
-5.4800

> <Gold.Chemscore.Hbond>
1.8526

> <Gold.Chemscore.Metal>
0.0000

> <Gold.Chemscore.Lipo>
134.5068

> <Gold.Chemscore.Internal_Hbond>
0.0000

> <Gold.Chemscore.DEClash>
0.0959

> <Gold.Chemscore.DEInternal>
2.5956

> <Gold.Chemscore.Rot>
2.1333

> <Gold.Chemscore.Internal.Correction>
   9.000000E+99

> <Gold.Chemscore.Hbonds>
donor molecule, donor type, donor heavy atom, donor atom, acceptor molecule, acceptor atom, score
      P1  H  6896  6909       L1    29  0.22
      P1  H  7997  8009       L1    10  0.70

> <Gold.Chemscore.Hbond.Weighted>
-6.1878

> <Gold.Chemscore.Metal.Weighted>
-0.0000

> <Gold.Chemscore.Lipo.Weighted>
-15.7373

> <Gold.Chemscore.Internal_Hbond.Weighted>
0.0000

> <Gold.Chemscore.DEClash.Weighted>
0.0959

> <Gold.Chemscore.DEInternal.Weighted>
2.5956

> <Gold.Chemscore.Rot.Weighted>
5.4614

> <Gold.Chemscore.Internal.Correction.Weighted>
   9.000000E+99

> <Gold.Protein.RotatedTorsions>
[ 6907 6896 6895 6894 ] final -131.12 input  -60.11 | X-H torsion
[ 7974 7965 7964 7962 ] final  -96.53 input  175.53 | X-H torsion
[ 8008 7997 7996 7995 ] final   92.29 input   59.86 | X-H torsion
[ 10167 10162 10161 10158 ] final    0.76 input  -65.29 | X-H torsion
[ 10718 10713 10712 10709 ] final  -62.13 input   66.30 | X-H torsion
[ 10763 10752 10751 10750 ] final   59.80 input  -60.55 | X-H torsion
[ 11005 11000 10999 10996 ] final -114.25 input  -57.11 | X-H torsion

> <Gold.Protein.ActiveResidues>
 VAL166  LYS551  ARG553  GLY616  TRP617  ASP618  TYR619  PRO620  LYS621  CYS622 
 ASP623  PHE694  ASN695  SER759  ASP760  ASP761  ALA762  ILE779  LEU786  VAL792 
 PHE793  MET794  SER795  GLU796  ALA797  LYS798  CYS799  TRP800  GLU811  SER814 

> <Gold.Protein.RotatedAtoms>
  150.9474  133.6588  159.2778 H   0  0  0  0  0  0  0  0  0  0  0  0  # atno 6907 bound_to 6896
  151.3955  135.0962  159.9549 H   0  0  0  0  0  0  0  0  0  0  0  0  # atno 6908 bound_to 6896
  152.5095  133.8979  159.7481 H   0  0  0  0  0  0  0  0  0  0  0  0  # atno 6909 bound_to 6896
  145.3457  140.9468  143.2583 H   0  0  0  0  0  0  0  0  0  0  0  0  # atno 7974 bound_to 7965
  156.0337  140.3327  155.7167 H   0  0  0  0  0  0  0  0  0  0  0  0  # atno 8008 bound_to 7997
  155.5847  140.0640  157.2792 H   0  0  0  0  0  0  0  0  0  0  0  0  # atno 8009 bound_to 7997
  154.4364  140.1838  156.1001 H   0  0  0  0  0  0  0  0  0  0  0  0  # atno 8010 bound_to 7997
  140.6714  143.7039  150.7930 H   0  0  0  0  0  0  0  0  0  0  0  0  # atno 10167 bound_to 10162
  156.0876  130.4205  150.1091 H   0  0  0  0  0  0  0  0  0  0  0  0  # atno 10718 bound_to 10713
  152.9904  135.5559  154.5771 H   0  0  0  0  0  0  0  0  0  0  0  0  # atno 10763 bound_to 10752
  154.5159  135.2805  155.1305 H   0  0  0  0  0  0  0  0  0  0  0  0  # atno 10764 bound_to 10752
  154.2678  135.6369  153.5351 H   0  0  0  0  0  0  0  0  0  0  0  0  # atno 10765 bound_to 10752
  141.0564  133.9606  157.2747 H   0  0  0  0  0  0  0  0  0  0  0  0  # atno 11005 bound_to 11000
  144.8756  139.4976  143.6747 LP  0  0  0  0  0  0  0  0  0  0  0  0  # atno 17320 bound_to 7965
  146.2989  139.7364  142.9106 LP  0  0  0  0  0  0  0  0  0  0  0  0  # atno 17321 bound_to 7965
  140.0724  143.5048  152.2573 LP  0  0  0  0  0  0  0  0  0  0  0  0  # atno 17342 bound_to 10162
  139.5984  144.7574  151.3231 LP  0  0  0  0  0  0  0  0  0  0  0  0  # atno 17343 bound_to 10162
  156.9109  130.9651  151.3563 LP  0  0  0  0  0  0  0  0  0  0  0  0  # atno 17370 bound_to 10713
  157.6015  130.8516  149.8809 LP  0  0  0  0  0  0  0  0  0  0  0  0  # atno 17371 bound_to 10713
  139.9393  135.0193  156.8658 LP  0  0  0  0  0  0  0  0  0  0  0  0  # atno 17394 bound_to 11000
  140.5956  134.0220  155.7517 LP  0  0  0  0  0  0  0  0  0  0  0  0  # atno 17395 bound_to 11000

$$$$
