AV-unprocessed.smi:1244|AV-procd|sdf|5238|dock6
  -GOLD-   22720 4343D 1   1.00000     0.00000
 Structure written by MMmdl.
 55 57  0  0  0  0  0  0  0  0  4 V2000
  148.8923  141.3803  154.5119 C   0  0  0  0  0  0  0  0  0  0  0  0
  149.5506  140.1822  155.2050 C   0  0  1  0  0  0  0  0  0  0  0  0
  148.6363  138.9441  155.2057 C   0  0  0  0  0  0  0  0  0  0  0  0
  149.3378  137.7814  155.7987 N   0  3  1  0  0  0  0  0  0  0  0  0
  148.4619  136.5877  155.9396 C   0  0  0  0  0  0  0  0  0  0  0  0
  148.0893  135.9743  154.5744 C   0  0  0  0  0  0  0  0  0  0  0  0
  147.2143  134.8190  154.7704 N   0  5  0  0  0  0  0  0  0  0  0  0
  146.9066  133.9031  153.8137 C   0  0  0  0  0  0  0  0  0  0  0  0
  147.5253  132.8717  153.5284 O   0  0  0  0  0  0  0  0  0  0  0  0
  145.7959  134.2420  153.1370 N   0  0  0  0  0  0  0  0  0  0  0  0
  145.1572  133.5763  152.0524 C   0  0  0  0  0  0  0  0  0  0  0  0
  145.7443  132.4432  151.4330 C   0  0  0  0  0  0  0  0  0  0  0  0
  145.0977  131.8180  150.3507 C   0  0  0  0  0  0  0  0  0  0  0  0
  143.8671  132.3301  149.9071 C   0  0  0  0  0  0  0  0  0  0  0  0
  143.3216  133.3933  150.5325 N   0  3  0  0  0  0  0  0  0  0  0  0
  143.8873  134.0305  151.5887 C   0  0  0  0  0  0  0  0  0  0  0  0
  143.1816  135.1229  152.1459 N   0  0  0  0  0  0  0  0  0  0  0  0
  142.2112  134.9097  153.2131 C   0  0  0  0  0  0  0  0  0  0  0  0
  141.9085  136.3025  153.7591 C   0  0  0  0  0  0  0  0  0  0  0  0
  143.2541  137.0080  153.6228 C   0  0  0  0  0  0  0  0  0  0  0  0
  143.8552  136.4017  152.3505 C   0  0  0  0  0  0  0  0  0  0  0  0
  150.6019  137.5198  155.0613 C   0  0  0  0  0  0  0  0  0  0  0  0
  151.4931  138.7759  155.0295 C   0  0  2  0  0  0  0  0  0  0  0  0
  152.1548  139.0938  156.3825 C   0  0  0  0  0  0  0  0  0  0  0  0
  150.7592  139.8848  154.5100 O   0  0  0  0  0  0  0  0  0  0  0  0
  147.9653  141.6625  155.0112 H   0  0  0  0  0  0  0  0  0  0  0  0
  148.6566  141.1540  153.4716 H   0  0  0  0  0  0  0  0  0  0  0  0
  149.5525  142.2478  154.5225 H   0  0  0  0  0  0  0  0  0  0  0  0
  149.7781  140.4698  156.2317 H   0  0  0  0  0  0  0  0  0  0  0  0
  147.7339  139.1618  155.7789 H   0  0  0  0  0  0  0  0  0  0  0  0
  148.3212  138.6993  154.1899 H   0  0  0  0  0  0  0  0  0  0  0  0
  148.9816  135.8231  156.5195 H   0  0  0  0  0  0  0  0  0  0  0  0
  147.5692  136.8436  156.5127 H   0  0  0  0  0  0  0  0  0  0  0  0
  147.5977  136.7346  153.9674 H   0  0  0  0  0  0  0  0  0  0  0  0
  149.0034  135.7225  154.0346 H   0  0  0  0  0  0  0  0  0  0  0  0
  145.4179  135.1481  153.3705 H   0  0  0  0  0  0  0  0  0  0  0  0
  146.6832  132.0365  151.7763 H   0  0  0  0  0  0  0  0  0  0  0  0
  145.5413  130.9589  149.8691 H   0  0  0  0  0  0  0  0  0  0  0  0
  143.3007  131.9198  149.0840 H   0  0  0  0  0  0  0  0  0  0  0  0
  141.3124  134.4148  152.8442 H   0  0  0  0  0  0  0  0  0  0  0  0
  142.6465  134.2937  154.0009 H   0  0  0  0  0  0  0  0  0  0  0  0
  141.1645  136.7963  153.1326 H   0  0  0  0  0  0  0  0  0  0  0  0
  141.5350  136.2865  154.7833 H   0  0  0  0  0  0  0  0  0  0  0  0
  143.1635  138.0932  153.5725 H   0  0  0  0  0  0  0  0  0  0  0  0
  143.8841  136.7628  154.4788 H   0  0  0  0  0  0  0  0  0  0  0  0
  144.9366  136.2889  152.4389 H   0  0  0  0  0  0  0  0  0  0  0  0
  143.6469  137.0469  151.4968 H   0  0  0  0  0  0  0  0  0  0  0  0
  151.1491  136.6908  155.5111 H   0  0  0  0  0  0  0  0  0  0  0  0
  150.3614  137.2173  154.0408 H   0  0  0  0  0  0  0  0  0  0  0  0
  152.3008  138.5912  154.3205 H   0  0  0  0  0  0  0  0  0  0  0  0
  152.8138  138.2815  156.6902 H   0  0  0  0  0  0  0  0  0  0  0  0
  151.4245  139.2350  157.1789 H   0  0  0  0  0  0  0  0  0  0  0  0
  152.7583  139.9994  156.3167 H   0  0  0  0  0  0  0  0  0  0  0  0
  149.5897  138.0530  156.7385 H   0  0  0  0  0  0  0  0  0  0  0  0
  142.4218  133.7346  150.1952 H   0  0  0  0  0  0  0  0  0  0  0  0
  1  2  1  0  0  0  0
  1 26  1  0  0  0  0
  1 27  1  0  0  0  0
  1 28  1  0  0  0  0
  2 25  1  0  0  0  0
  2  3  1  0  0  0  0
  2 29  1  0  0  0  0
  3  4  1  0  0  0  0
  3 30  1  0  0  0  0
  3 31  1  0  0  0  0
  4  5  1  0  0  0  0
  4 22  1  0  0  0  0
  4 54  1  0  0  0  0
  5  6  1  0  0  0  0
  5 32  1  0  0  0  0
  5 33  1  0  0  0  0
  6  7  1  0  0  0  0
  6 34  1  0  0  0  0
  6 35  1  0  0  0  0
  7  8  1  0  0  0  0
  8  9  2  0  0  0  0
  8 10  1  0  0  0  0
 10 11  1  0  0  0  0
 10 36  1  0  0  0  0
 11 16  1  0  0  0  0
 11 12  2  0  0  0  0
 12 13  1  0  0  0  0
 12 37  1  0  0  0  0
 13 14  2  0  0  0  0
 13 38  1  0  0  0  0
 14 15  1  0  0  0  0
 14 39  1  0  0  0  0
 15 16  2  0  0  0  0
 15 55  1  0  0  0  0
 16 17  1  0  0  0  0
 17 21  1  0  0  0  0
 17 18  1  0  0  0  0
 18 19  1  0  0  0  0
 18 40  1  0  0  0  0
 18 41  1  0  0  0  0
 19 20  1  0  0  0  0
 19 42  1  0  0  0  0
 19 43  1  0  0  0  0
 20 21  1  0  0  0  0
 20 44  1  0  0  0  0
 20 45  1  0  0  0  0
 21 46  1  0  0  0  0
 21 47  1  0  0  0  0
 22 23  1  0  0  0  0
 22 48  1  0  0  0  0
 22 49  1  0  0  0  0
 23 24  1  0  0  0  0
 23 25  1  0  0  0  0
 23 50  1  0  0  0  0
 24 51  1  0  0  0  0
 24 52  1  0  0  0  0
 24 53  1  0  0  0  0
M  CHG  1   4   1
M  CHG  1   7  -1
M  CHG  1  15   1
M  END
> <s_m_source_file>
AV-unprocessed.smi

> <i_m_source_file_index>
1244

> <i_lp_mmshare_version>
43012

> <i_f3d_flags>
0

> <s_epik_input>
W0NIM11bQ0BASF0xW0NIMl1OKFtDSDJdW0NASF0oTzEpW0NIM10pW0NIMl1bQ0gyXVtOSF1DKD1PKVtOSF1jMltjSF1bY0hdW2NIXW5jMk4zW0NIMl1bQ0gyXVtDSDJdW0NIMl0z

> <s_epik_cmdline>
J2VwaWtfcHl0aG9uJywgJy1waCcsICc3LjAnLCAnLXRuJywgJzgnLCAnLW1hJywgJzIwMCcsICctbWV0YWxfYmluZGluZycsICctaW1hZScsICc8aW5maWxlLm1hZT4nLCAnLW9tYWUnLCAnPG91dGZpbGUubWFlPic=

> <r_lp_tautomer_probability>
0.999994

> <r_epik_Ionization_Penalty>
8.60539

> <r_epik_Ionization_Penalty_Charging>
8.60539

> <r_epik_Ionization_Penalty_Neutral>
3.60441e-06

> <r_epik_State_Penalty>
8.59967

> <r_epik_Charging_Adjusted_Penalty>
17.2051

> <i_epik_Tot_Q>
1

> <i_epik_Tot_abs_Q>
3

> <r_epik_Metal_State_Penalty>
4.59489

> <b_epik_Metal_Only>
1

> <s_lp_Force_Field>
OPLS_2005

> <r_lp_Energy>
46.9431

> <b_lp_Chiralities_Consistent>
1

> <s_lp_Variant>
AV-unprocessed.smi:1244-18

> <Gold.Version>
5.8.1

> <Gold.Id.Protein>
6NUR|6NUR_protein|mol2

> <Gold.PLP.Fitness>
44.8132

> <Gold.PLP.PLP>
-38.8734

> <Gold.PLP.part.hbond>
-2.0000

> <Gold.PLP.part.metal>
0.0000

> <Gold.PLP.part.buried>
-5.4840

> <Gold.PLP.part.nonpolar>
-32.4569

> <Gold.PLP.part.repulsive>
0.3119

> <Gold.PLP.ligand.clash>
0.0000

> <Gold.PLP.ligand.torsion>
2.0568

> <Gold.PLP.Chemscore.Hbond>
3.0000

> <Gold.PLP.Chemscore.CHOScore>
0.0000

> <Gold.PLP.Chemscore.Metal>
0.0000

> <Gold.Chemscore.Hbonds>
donor molecule, donor type, donor heavy atom, donor atom, acceptor molecule, acceptor atom, score
      L1  H    15    55       P1 10186  2.00
      P1  H  7989  7998       L1    25  1.00

> <Gold.PLP.Chemscore.Internal.Correction>
1.0533

> <Gold.Rescore>
     Score         DG    S(hbond)    S(metal)    S(lipo)     H(rot)  DE(clash)    DE(int)     intcor
     14.53     -19.46       1.96        0.00      94.56       1.42       1.40       3.53       ----

> <Gold.Chemscore.Fitness>
14.5343

> <Gold.Chemscore.DG>
-19.4626

> <Gold.Chemscore.ZeroCoef>
-5.4800

> <Gold.Chemscore.Hbond>
1.9612

> <Gold.Chemscore.Metal>
0.0000

> <Gold.Chemscore.Lipo>
94.5588

> <Gold.Chemscore.Internal_Hbond>
0.0000

> <Gold.Chemscore.DEClash>
1.4015

> <Gold.Chemscore.DEInternal>
3.5268

> <Gold.Chemscore.Rot>
1.4185

> <Gold.Chemscore.Internal.Correction>
   9.000000E+99

> <Gold.Chemscore.Hbonds>
donor molecule, donor type, donor heavy atom, donor atom, acceptor molecule, acceptor atom, score
      L1  H    15    55       P1 10186  1.00
      P1  H  7989  7998       L1    25  0.88

> <Gold.Chemscore.Hbond.Weighted>
-6.5506

> <Gold.Chemscore.Metal.Weighted>
-0.0000

> <Gold.Chemscore.Lipo.Weighted>
-11.0634

> <Gold.Chemscore.Internal_Hbond.Weighted>
0.0000

> <Gold.Chemscore.DEClash.Weighted>
1.4015

> <Gold.Chemscore.DEInternal.Weighted>
3.5268

> <Gold.Chemscore.Rot.Weighted>
3.6313

> <Gold.Chemscore.Internal.Correction.Weighted>
   9.000000E+99

> <Gold.Protein.RotatedTorsions>
[ 6907 6896 6895 6894 ] final   75.45 input  -60.11 | X-H torsion
[ 7974 7965 7964 7962 ] final -105.63 input  175.53 | X-H torsion
[ 8008 7997 7996 7995 ] final  163.16 input   59.86 | X-H torsion
[ 10167 10162 10161 10158 ] final  -59.42 input  -65.29 | X-H torsion
[ 10718 10713 10712 10709 ] final   62.24 input   66.30 | X-H torsion
[ 10763 10752 10751 10750 ] final   11.84 input  -60.55 | X-H torsion
[ 11005 11000 10999 10996 ] final   34.96 input  -57.11 | X-H torsion

> <Gold.Protein.ActiveResidues>
 VAL166  LYS551  ARG553  GLY616  TRP617  ASP618  TYR619  PRO620  LYS621  CYS622 
 ASP623  PHE694  ASN695  SER759  ASP760  ASP761  ALA762  ILE779  LEU786  VAL792 
 PHE793  MET794  SER795  GLU796  ALA797  LYS798  CYS799  TRP800  GLU811  SER814 

> <Gold.Protein.RotatedAtoms>
  152.5026  134.4118  159.9450 H   0  0  0  0  0  0  0  0  0  0  0  0  # atno 6907 bound_to 6896
  151.4086  133.3728  159.2749 H   0  0  0  0  0  0  0  0  0  0  0  0  # atno 6908 bound_to 6896
  150.9308  134.8745  159.7609 H   0  0  0  0  0  0  0  0  0  0  0  0  # atno 6909 bound_to 6896
  145.2281  140.9160  143.3221 H   0  0  0  0  0  0  0  0  0  0  0  0  # atno 7974 bound_to 7965
  156.1977  140.1731  156.7963 H   0  0  0  0  0  0  0  0  0  0  0  0  # atno 8008 bound_to 7997
  154.5551  140.0710  156.8762 H   0  0  0  0  0  0  0  0  0  0  0  0  # atno 8009 bound_to 7997
  155.2953  140.3358  155.4252 H   0  0  0  0  0  0  0  0  0  0  0  0  # atno 8010 bound_to 7997
  140.6136  143.2395  151.5650 H   0  0  0  0  0  0  0  0  0  0  0  0  # atno 10167 bound_to 10162
  157.5887  130.9039  149.9563 H   0  0  0  0  0  0  0  0  0  0  0  0  # atno 10718 bound_to 10713
  153.1884  135.6838  153.8385 H   0  0  0  0  0  0  0  0  0  0  0  0  # atno 10763 bound_to 10752
  153.7693  135.3198  155.3350 H   0  0  0  0  0  0  0  0  0  0  0  0  # atno 10764 bound_to 10752
  154.8102  135.4722  154.0595 H   0  0  0  0  0  0  0  0  0  0  0  0  # atno 10765 bound_to 10752
  140.2475  134.3342  155.7902 H   0  0  0  0  0  0  0  0  0  0  0  0  # atno 11005 bound_to 11000
  144.9702  139.3888  143.6312 LP  0  0  0  0  0  0  0  0  0  0  0  0  # atno 17320 bound_to 7965
  146.3360  139.8797  142.8826 LP  0  0  0  0  0  0  0  0  0  0  0  0  # atno 17321 bound_to 7965
  139.5381  144.2725  152.1293 LP  0  0  0  0  0  0  0  0  0  0  0  0  # atno 17342 bound_to 10162
  140.1929  144.4734  150.6470 LP  0  0  0  0  0  0  0  0  0  0  0  0  # atno 17343 bound_to 10162
  156.0938  130.3661  150.0344 LP  0  0  0  0  0  0  0  0  0  0  0  0  # atno 17370 bound_to 10713
  156.8471  130.9446  151.3628 LP  0  0  0  0  0  0  0  0  0  0  0  0  # atno 17371 bound_to 10713
  141.2205  133.7334  156.8984 LP  0  0  0  0  0  0  0  0  0  0  0  0  # atno 17394 bound_to 11000
  140.1591  134.9178  157.2692 LP  0  0  0  0  0  0  0  0  0  0  0  0  # atno 17395 bound_to 11000

$$$$
