AV-unprocessed.smi:44|AV-procd|sdf|395|dock4
  -GOLD-   2262016253D 1   1.00000     0.00000
 Structure written by MMmdl.
 29 31  0  0  0  0  0  0  0  0  1 V2000
  151.4431  139.0439  154.2830 O   0  0  0  0  0  0  0  0  0  0  0  0
  151.8108  139.2642  155.4351 C   0  0  0  0  0  0  0  0  0  0  0  0
  152.5245  138.3836  156.1782 N   0  0  0  0  0  0  0  0  0  0  0  0
  152.9515  138.6315  157.5069 C   0  0  0  0  0  0  0  0  0  0  0  0
  152.7124  139.7275  158.1794 N   0  0  0  0  0  0  0  0  0  0  0  0
  151.9852  140.6439  157.4463 C   0  0  0  0  0  0  0  0  0  0  0  0
  151.5213  140.5219  156.1634 C   0  0  0  0  0  0  0  0  0  0  0  0
  150.8319  141.6593  155.7628 N   0  0  0  0  0  0  0  0  0  0  0  0
  150.9122  142.4331  156.8432 C   0  0  0  0  0  0  0  0  0  0  0  0
  151.5767  141.9012  157.8875 N   0  0  0  0  0  0  0  0  0  0  0  0
  151.8128  142.5538  159.2115 C   0  0  1  0  0  0  0  0  0  0  0  0
  152.7622  143.7520  159.0761 C   0  0  0  0  0  0  0  0  0  0  0  0
  151.8708  144.9268  159.4316 C   0  0  0  0  0  0  0  0  0  0  0  0
  150.8065  144.2863  160.3200 C   0  0  1  0  0  0  0  0  0  0  0  0
  149.4988  145.0893  160.3782 C   0  0  0  0  0  0  0  0  0  0  0  0
  148.5003  144.3424  161.0398 O   0  0  0  0  0  0  0  0  0  0  0  0
  150.5914  143.0349  159.6816 O   0  0  0  0  0  0  0  0  0  0  0  0
  152.7624  137.4996  155.7523 H   0  0  0  0  0  0  0  0  0  0  0  0
  152.2020  141.7664  159.8585 H   0  0  0  0  0  0  0  0  0  0  0  0
  151.2186  144.1259  161.3184 H   0  0  0  0  0  0  0  0  0  0  0  0
  153.5150  137.8008  157.9340 H   0  0  0  0  0  0  0  0  0  0  0  0
  150.4705  143.4182  156.8771 H   0  0  0  0  0  0  0  0  0  0  0  0
  153.5682  143.6410  159.8025 H   0  0  0  0  0  0  0  0  0  0  0  0
  153.1953  143.8277  158.0776 H   0  0  0  0  0  0  0  0  0  0  0  0
  152.4102  145.7316  159.9316 H   0  0  0  0  0  0  0  0  0  0  0  0
  151.4178  145.3375  158.5287 H   0  0  0  0  0  0  0  0  0  0  0  0
  149.6486  146.0083  160.9454 H   0  0  0  0  0  0  0  0  0  0  0  0
  149.1643  145.3748  159.3800 H   0  0  0  0  0  0  0  0  0  0  0  0
  148.0434  144.9137  161.6378 H   0  0  0  0  0  0  0  0  0  0  0  0
  1  2  2  0  0  0  0
  2  7  1  0  0  0  0
  2  3  1  0  0  0  0
  3 18  1  0  0  0  0
  3  4  1  0  0  0  0
  4  5  2  0  0  0  0
  4 21  1  0  0  0  0
  5  6  1  0  0  0  0
  6 10  1  0  0  0  0
  6  7  2  0  0  0  0
  7  8  1  0  0  0  0
  8  9  2  0  0  0  0
  9 10  1  0  0  0  0
  9 22  1  0  0  0  0
 10 11  1  0  0  0  0
 11 19  1  0  0  0  0
 11 17  1  0  0  0  0
 11 12  1  0  0  0  0
 12 13  1  0  0  0  0
 12 23  1  0  0  0  0
 12 24  1  0  0  0  0
 13 14  1  0  0  0  0
 13 25  1  0  0  0  0
 13 26  1  0  0  0  0
 14 20  1  0  0  0  0
 14 15  1  0  0  0  0
 14 17  1  0  0  0  0
 15 16  1  0  0  0  0
 15 27  1  0  0  0  0
 15 28  1  0  0  0  0
 16 29  1  0  0  0  0
M  END
> <s_m_source_file>
AV-unprocessed.smi

> <i_m_source_file_index>
44

> <i_lp_mmshare_version>
43012

> <i_f3d_flags>
0

> <s_epik_input>
bjFbY0hdW25IXWMoPU8pYyhjMTIpbltjSF1uMltDQEhdM1tDSDJdW0NIMl1bQ0BIXShPMylbQ0gyXVtPSF0=

> <s_epik_cmdline>
J2VwaWtfcHl0aG9uJywgJy1waCcsICc3LjAnLCAnLXRuJywgJzgnLCAnLW1hJywgJzIwMCcsICctbWV0YWxfYmluZGluZycsICctaW1hZScsICc8aW5maWxlLm1hZT4nLCAnLW9tYWUnLCAnPG91dGZpbGUubWFlPic=

> <r_lp_tautomer_probability>
0.85571

> <r_epik_Ionization_Penalty>
0.00801444

> <r_epik_Ionization_Penalty_Charging>
0.00794574

> <r_epik_Ionization_Penalty_Neutral>
6.87072e-05

> <r_epik_State_Penalty>
0.0826172

> <r_epik_Charging_Adjusted_Penalty>
0.090563

> <i_epik_Tot_Q>
0

> <i_epik_Tot_abs_Q>
0

> <r_epik_Metal_State_Penalty>
0.440697

> <b_epik_Metal_Only>
0

> <s_epik_Chemistry_Notes>
This compound contains an acetal/aminal-like group ( X-CH(R)-Y where X, Y are N, S, or O) that may be acid/base labile, releasing an aldehyde.

> <s_lp_Force_Field>
OPLS_2005

> <r_lp_Energy>
43.2881

> <b_lp_Chiralities_Consistent>
1

> <s_lp_Variant>
AV-unprocessed.smi:44-1

> <Gold.Version>
5.8.1

> <Gold.Id.Protein>
6NUR|6NUR_protein|mol2

> <Gold.PLP.Fitness>
40.0113

> <Gold.PLP.PLP>
-31.6733

> <Gold.PLP.part.hbond>
-3.8498

> <Gold.PLP.part.metal>
0.0000

> <Gold.PLP.part.buried>
-2.5550

> <Gold.PLP.part.nonpolar>
-25.8125

> <Gold.PLP.part.repulsive>
0.4206

> <Gold.PLP.ligand.clash>
0.0000

> <Gold.PLP.ligand.torsion>
0.1820

> <Gold.PLP.Chemscore.Hbond>
1.8960

> <Gold.PLP.Chemscore.CHOScore>
1.0000

> <Gold.PLP.Chemscore.Metal>
0.0000

> <Gold.Chemscore.Hbonds>
donor molecule, donor type, donor heavy atom, donor atom, acceptor molecule, acceptor atom, score
      P1  H  6933  6944       L1    16  0.91
      P1  H  7989  7998       L1     1  1.00
      L1  C     9    22       P1  8028  1.00

> <Gold.PLP.Chemscore.Internal.Correction>
0.0140

> <Gold.Rescore>
     Score         DG    S(hbond)    S(metal)    S(lipo)     H(rot)  DE(clash)    DE(int)     intcor
     11.17     -11.37       1.85        0.00      47.35       2.27       0.00       0.20       ----

> <Gold.Chemscore.Fitness>
11.1658

> <Gold.Chemscore.DG>
-11.3686

> <Gold.Chemscore.ZeroCoef>
-5.4800

> <Gold.Chemscore.Hbond>
1.8460

> <Gold.Chemscore.Metal>
0.0000

> <Gold.Chemscore.Lipo>
47.3461

> <Gold.Chemscore.Internal_Hbond>
0.0000

> <Gold.Chemscore.DEClash>
0.0038

> <Gold.Chemscore.DEInternal>
0.1990

> <Gold.Chemscore.Rot>
2.2720

> <Gold.Chemscore.Internal.Correction>
   9.000000E+99

> <Gold.Chemscore.Hbonds>
donor molecule, donor type, donor heavy atom, donor atom, acceptor molecule, acceptor atom, score
      P1  H  6933  6944       L1    16  0.80
      P1  H  7989  7998       L1     1  0.28

> <Gold.Chemscore.Hbond.Weighted>
-6.1656

> <Gold.Chemscore.Metal.Weighted>
-0.0000

> <Gold.Chemscore.Lipo.Weighted>
-5.5395

> <Gold.Chemscore.Internal_Hbond.Weighted>
0.0000

> <Gold.Chemscore.DEClash.Weighted>
0.0038

> <Gold.Chemscore.DEInternal.Weighted>
0.1990

> <Gold.Chemscore.Rot.Weighted>
5.8164

> <Gold.Chemscore.Internal.Correction.Weighted>
   9.000000E+99

> <Gold.Protein.RotatedTorsions>
[ 6907 6896 6895 6894 ] final -135.21 input  -60.11 | X-H torsion
[ 7974 7965 7964 7962 ] final   67.06 input  175.53 | X-H torsion
[ 8008 7997 7996 7995 ] final  156.08 input   59.86 | X-H torsion
[ 10167 10162 10161 10158 ] final -100.49 input  -65.29 | X-H torsion
[ 10718 10713 10712 10709 ] final  176.51 input   66.30 | X-H torsion
[ 10763 10752 10751 10750 ] final   63.99 input  -60.55 | X-H torsion
[ 11005 11000 10999 10996 ] final  -66.37 input  -57.11 | X-H torsion

> <Gold.Protein.ActiveResidues>
 VAL166  LYS551  ARG553  GLY616  TRP617  ASP618  TYR619  PRO620  LYS621  CYS622 
 ASP623  PHE694  ASN695  SER759  ASP760  ASP761  ALA762  ILE779  LEU786  VAL792 
 PHE793  MET794  SER795  GLU796  ALA797  LYS798  CYS799  TRP800  GLU811  SER814 

> <Gold.Protein.RotatedAtoms>
  150.9951  133.6111  159.2702 H   0  0  0  0  0  0  0  0  0  0  0  0  # atno 6907 bound_to 6896
  151.3317  135.0842  159.9351 H   0  0  0  0  0  0  0  0  0  0  0  0  # atno 6908 bound_to 6896
  152.5257  133.9579  159.7757 H   0  0  0  0  0  0  0  0  0  0  0  0  # atno 6909 bound_to 6896
  145.8192  139.3075  143.1053 H   0  0  0  0  0  0  0  0  0  0  0  0  # atno 7974 bound_to 7965
  156.2442  140.1922  156.6901 H   0  0  0  0  0  0  0  0  0  0  0  0  # atno 8008 bound_to 7997
  154.6258  140.0602  156.9698 H   0  0  0  0  0  0  0  0  0  0  0  0  # atno 8009 bound_to 7997
  155.1789  140.3274  155.4381 H   0  0  0  0  0  0  0  0  0  0  0  0  # atno 8010 bound_to 7997
  140.2514  143.3470  152.0711 H   0  0  0  0  0  0  0  0  0  0  0  0  # atno 10167 bound_to 10162
  156.9190  130.9934  151.3008 H   0  0  0  0  0  0  0  0  0  0  0  0  # atno 10718 bound_to 10713
  153.0038  135.5409  154.6439 H   0  0  0  0  0  0  0  0  0  0  0  0  # atno 10763 bound_to 10752
  154.5687  135.2840  155.0850 H   0  0  0  0  0  0  0  0  0  0  0  0  # atno 10764 bound_to 10752
  154.2025  135.6481  153.5143 H   0  0  0  0  0  0  0  0  0  0  0  0  # atno 10765 bound_to 10752
  141.1480  133.6698  156.6128 H   0  0  0  0  0  0  0  0  0  0  0  0  # atno 11005 bound_to 11000
  145.9693  140.8773  143.0170 LP  0  0  0  0  0  0  0  0  0  0  0  0  # atno 17320 bound_to 7965
  144.6749  140.1923  143.7395 LP  0  0  0  0  0  0  0  0  0  0  0  0  # atno 17321 bound_to 7965
  139.5045  144.6777  151.6088 LP  0  0  0  0  0  0  0  0  0  0  0  0  # atno 17342 bound_to 10162
  140.6038  143.9562  150.6404 LP  0  0  0  0  0  0  0  0  0  0  0  0  # atno 17343 bound_to 10162
  157.5919  130.8450  149.8672 LP  0  0  0  0  0  0  0  0  0  0  0  0  # atno 17370 bound_to 10713
  156.0500  130.3719  150.1225 LP  0  0  0  0  0  0  0  0  0  0  0  0  # atno 17371 bound_to 10713
  140.3601  134.7695  157.4527 LP  0  0  0  0  0  0  0  0  0  0  0  0  # atno 17394 bound_to 11000
  140.0792  134.5755  155.8558 LP  0  0  0  0  0  0  0  0  0  0  0  0  # atno 17395 bound_to 11000

$$$$
