AV-unprocessed.smi:2317|AV-procd|sdf|9273|dock2
  -GOLD-   2272012493D 1   1.00000     0.00000
 Structure written by MMmdl.
 37 38  0  0  0  0  0  0  0  0  1 V2000
  146.0086  138.7417  153.7485 O   0  0  0  0  0  0  0  0  0  0  0  0
  146.8975  138.1448  153.1417 C   0  0  0  0  0  0  0  0  0  0  0  0
  146.6598  137.1299  152.2999 N   0  0  0  0  0  0  0  0  0  0  0  0
  145.3347  136.6062  151.9887 C   0  0  0  0  0  0  0  0  0  0  0  0
  145.4120  135.2747  151.2122 C   0  0  2  0  0  0  0  0  0  0  0  0
  144.0040  134.7075  150.9330 C   0  0  0  0  0  0  0  0  0  0  0  0
  144.0648  133.4128  150.1070 C   0  0  0  0  0  0  0  0  0  0  0  0
  144.9399  132.3545  150.7937 C   0  0  0  0  0  0  0  0  0  0  0  0
  146.3506  132.8984  151.0773 C   0  0  0  0  0  0  0  0  0  0  0  0
  146.3181  134.2103  151.8858 C   0  0  2  0  0  0  0  0  0  0  0  0
  145.8850  133.9335  153.2044 O   0  0  0  0  0  0  0  0  0  0  0  0
  148.2143  138.3980  153.2355 N   0  0  0  0  0  0  0  0  0  0  0  0
  148.8859  139.3725  154.0247 C   0  0  0  0  0  0  0  0  0  0  0  0
  148.4184  140.6932  154.2323 C   0  0  0  0  0  0  0  0  0  0  0  0
  149.1899  141.5653  155.0265 C   0  0  0  0  0  0  0  0  0  0  0  0
  150.3606  141.2124  155.5985 N   0  0  0  0  0  0  0  0  0  0  0  0
  150.8097  139.9570  155.3878 C   0  0  0  0  0  0  0  0  0  0  0  0
  150.1167  139.0075  154.6105 C   0  0  0  0  0  0  0  0  0  0  0  0
  150.6273  137.7644  154.4351 F   0  0  0  0  0  0  0  0  0  0  0  0
  147.4458  136.6905  151.8432 H   0  0  0  0  0  0  0  0  0  0  0  0
  144.7600  136.4710  152.9065 H   0  0  0  0  0  0  0  0  0  0  0  0
  144.8038  137.3519  151.3954 H   0  0  0  0  0  0  0  0  0  0  0  0
  145.8569  135.5018  150.2417 H   0  0  0  0  0  0  0  0  0  0  0  0
  143.4873  134.5155  151.8743 H   0  0  0  0  0  0  0  0  0  0  0  0
  143.4042  135.4465  150.4009 H   0  0  0  0  0  0  0  0  0  0  0  0
  143.0585  133.0211  149.9555 H   0  0  0  0  0  0  0  0  0  0  0  0
  144.4645  133.6297  149.1157 H   0  0  0  0  0  0  0  0  0  0  0  0
  144.4700  132.0413  151.7269 H   0  0  0  0  0  0  0  0  0  0  0  0
  145.0046  131.4636  150.1686 H   0  0  0  0  0  0  0  0  0  0  0  0
  146.9435  132.1467  151.5997 H   0  0  0  0  0  0  0  0  0  0  0  0
  146.8574  133.0776  150.1282 H   0  0  0  0  0  0  0  0  0  0  0  0
  147.3377  134.5902  151.9591 H   0  0  0  0  0  0  0  0  0  0  0  0
  146.6076  134.0805  153.7955 H   0  0  0  0  0  0  0  0  0  0  0  0
  148.8207  137.7766  152.7203 H   0  0  0  0  0  0  0  0  0  0  0  0
  147.5016  141.0581  153.7963 H   0  0  0  0  0  0  0  0  0  0  0  0
  148.8591  142.5783  155.2024 H   0  0  0  0  0  0  0  0  0  0  0  0
  151.7509  139.7013  155.8512 H   0  0  0  0  0  0  0  0  0  0  0  0
  1  2  2  0  0  0  0
  2  3  1  0  0  0  0
  2 12  1  0  0  0  0
  3  4  1  0  0  0  0
  3 20  1  0  0  0  0
  4  5  1  0  0  0  0
  4 21  1  0  0  0  0
  4 22  1  0  0  0  0
  5 10  1  0  0  0  0
  5  6  1  0  0  0  0
  5 23  1  0  0  0  0
  6  7  1  0  0  0  0
  6 24  1  0  0  0  0
  6 25  1  0  0  0  0
  7  8  1  0  0  0  0
  7 26  1  0  0  0  0
  7 27  1  0  0  0  0
  8  9  1  0  0  0  0
  8 28  1  0  0  0  0
  8 29  1  0  0  0  0
  9 10  1  0  0  0  0
  9 30  1  0  0  0  0
  9 31  1  0  0  0  0
 10 11  1  0  0  0  0
 10 32  1  0  0  0  0
 11 33  1  0  0  0  0
 12 13  1  0  0  0  0
 12 34  1  0  0  0  0
 13 18  1  0  0  0  0
 13 14  2  0  0  0  0
 14 15  1  0  0  0  0
 14 35  1  0  0  0  0
 15 16  2  0  0  0  0
 15 36  1  0  0  0  0
 16 17  1  0  0  0  0
 17 18  2  0  0  0  0
 17 37  1  0  0  0  0
 18 19  1  0  0  0  0
M  END
> <s_m_source_file>
AV-unprocessed.smi

> <i_m_source_file_index>
2317

> <i_lp_mmshare_version>
43012

> <i_f3d_flags>
0

> <s_epik_input>
RmMxW2NIXW5bY0hdW2NIXWMxW05IXUMoPU8pW05IXVtDSDJdW0NAQEhdMltDSDJdW0NIMl1bQ0gyXVtDSDJdW0NASF0yW09IXQ==

> <s_epik_cmdline>
J2VwaWtfcHl0aG9uJywgJy1waCcsICc3LjAnLCAnLXRuJywgJzgnLCAnLW1hJywgJzIwMCcsICctbWV0YWxfYmluZGluZycsICctaW1hZScsICc8aW5maWxlLm1hZT4nLCAnLW9tYWUnLCAnPG91dGZpbGUubWFlPic=

> <r_epik_Ionization_Penalty>
0.00317647

> <r_epik_Ionization_Penalty_Charging>
0

> <r_epik_Ionization_Penalty_Neutral>
0.00317647

> <r_epik_State_Penalty>
0.0022093

> <r_epik_Charging_Adjusted_Penalty>
0.0022093

> <i_epik_Tot_Q>
0

> <i_epik_Tot_abs_Q>
0

> <r_epik_Metal_State_Penalty>
-0

> <b_epik_Metal_Only>
0

> <s_lp_Force_Field>
OPLS_2005

> <r_lp_Energy>
20.2731

> <b_lp_Chiralities_Consistent>
1

> <s_lp_Variant>
AV-unprocessed.smi:2317-3

> <Gold.Version>
5.8.1

> <Gold.Id.Protein>
6NUR|6NUR_protein|mol2

> <Gold.PLP.Fitness>
42.9676

> <Gold.PLP.PLP>
-34.8935

> <Gold.PLP.part.hbond>
-3.6081

> <Gold.PLP.part.metal>
0.0000

> <Gold.PLP.part.buried>
-0.0104

> <Gold.PLP.part.nonpolar>
-32.6057

> <Gold.PLP.part.repulsive>
0.3776

> <Gold.PLP.ligand.clash>
0.0000

> <Gold.PLP.ligand.torsion>
0.3724

> <Gold.PLP.Chemscore.Hbond>
1.9353

> <Gold.PLP.Chemscore.CHOScore>
1.0000

> <Gold.PLP.Chemscore.Metal>
0.0000

> <Gold.Chemscore.Hbonds>
donor molecule, donor type, donor heavy atom, donor atom, acceptor molecule, acceptor atom, score
      L1  H     3    20       P1  7948  1.00
      L1  H    12    34       P1  7948  0.94
      L1  C    15    36       P1  8028  1.00

> <Gold.PLP.Chemscore.Internal.Correction>
0.0131

> <Gold.Rescore>
     Score         DG    S(hbond)    S(metal)    S(lipo)     H(rot)  DE(clash)    DE(int)     intcor
     16.06     -16.46       1.89        0.00      78.78       1.79       0.07       0.33       ----

> <Gold.Chemscore.Fitness>
16.0580

> <Gold.Chemscore.DG>
-16.4558

> <Gold.Chemscore.ZeroCoef>
-5.4800

> <Gold.Chemscore.Hbond>
1.8948

> <Gold.Chemscore.Metal>
0.0000

> <Gold.Chemscore.Lipo>
78.7842

> <Gold.Chemscore.Internal_Hbond>
0.0000

> <Gold.Chemscore.DEClash>
0.0727

> <Gold.Chemscore.DEInternal>
0.3250

> <Gold.Chemscore.Rot>
1.7853

> <Gold.Chemscore.Internal.Correction>
   9.000000E+99

> <Gold.Chemscore.Hbonds>
donor molecule, donor type, donor heavy atom, donor atom, acceptor molecule, acceptor atom, score
      L1  H     3    20       P1  7948  0.92
      L1  H    12    34       P1  7948  0.91

> <Gold.Chemscore.Hbond.Weighted>
-6.3285

> <Gold.Chemscore.Metal.Weighted>
-0.0000

> <Gold.Chemscore.Lipo.Weighted>
-9.2177

> <Gold.Chemscore.Internal_Hbond.Weighted>
0.0000

> <Gold.Chemscore.DEClash.Weighted>
0.0727

> <Gold.Chemscore.DEInternal.Weighted>
0.3250

> <Gold.Chemscore.Rot.Weighted>
4.5704

> <Gold.Chemscore.Internal.Correction.Weighted>
   9.000000E+99

> <Gold.Protein.RotatedTorsions>
[ 6907 6896 6895 6894 ] final  -90.22 input  -60.11 | X-H torsion
[ 7974 7965 7964 7962 ] final  167.85 input  175.53 | X-H torsion
[ 8008 7997 7996 7995 ] final -138.96 input   59.86 | X-H torsion
[ 10167 10162 10161 10158 ] final  -93.55 input  -65.29 | X-H torsion
[ 10718 10713 10712 10709 ] final  178.31 input   66.30 | X-H torsion
[ 10763 10752 10751 10750 ] final   -4.04 input  -60.55 | X-H torsion
[ 11005 11000 10999 10996 ] final -154.08 input  -57.11 | X-H torsion

> <Gold.Protein.ActiveResidues>
 VAL166  LYS551  ARG553  GLY616  TRP617  ASP618  TYR619  PRO620  LYS621  CYS622 
 ASP623  PHE694  ASN695  SER759  ASP760  ASP761  ALA762  ILE779  LEU786  VAL792 
 PHE793  MET794  SER795  GLU796  ALA797  LYS798  CYS799  TRP800  GLU811  SER814 

> <Gold.Protein.RotatedAtoms>
  150.6880  134.2466  159.4493 H   0  0  0  0  0  0  0  0  0  0  0  0  # atno 6907 bound_to 6896
  152.0407  134.9711  160.0583 H   0  0  0  0  0  0  0  0  0  0  0  0  # atno 6908 bound_to 6896
  152.1214  133.4320  159.4714 H   0  0  0  0  0  0  0  0  0  0  0  0  # atno 6909 bound_to 6896
  144.7409  139.8821  143.6397 H   0  0  0  0  0  0  0  0  0  0  0  0  # atno 7974 bound_to 7965
  155.4370  140.0529  157.3013 H   0  0  0  0  0  0  0  0  0  0  0  0  # atno 8008 bound_to 7997
  154.4835  140.2091  155.9667 H   0  0  0  0  0  0  0  0  0  0  0  0  # atno 8009 bound_to 7997
  156.1240  140.3183  155.8255 H   0  0  0  0  0  0  0  0  0  0  0  0  # atno 8010 bound_to 7997
  140.3235  143.3035  152.0020 H   0  0  0  0  0  0  0  0  0  0  0  0  # atno 10167 bound_to 10162
  156.8925  130.9852  151.3047 H   0  0  0  0  0  0  0  0  0  0  0  0  # atno 10718 bound_to 10713
  153.3794  135.6998  153.6577 H   0  0  0  0  0  0  0  0  0  0  0  0  # atno 10763 bound_to 10752
  153.5194  135.3615  155.2625 H   0  0  0  0  0  0  0  0  0  0  0  0  # atno 10764 bound_to 10752
  154.8691  135.4154  154.3089 H   0  0  0  0  0  0  0  0  0  0  0  0  # atno 10765 bound_to 10752
  140.7012  134.3935  157.5209 H   0  0  0  0  0  0  0  0  0  0  0  0  # atno 11005 bound_to 11000
  146.1203  139.4220  143.0232 LP  0  0  0  0  0  0  0  0  0  0  0  0  # atno 17320 bound_to 7965
  145.7314  141.0041  143.1350 LP  0  0  0  0  0  0  0  0  0  0  0  0  # atno 17321 bound_to 7965
  139.4869  144.6292  151.7104 LP  0  0  0  0  0  0  0  0  0  0  0  0  # atno 17342 bound_to 10162
  140.5462  144.0500  150.6108 LP  0  0  0  0  0  0  0  0  0  0  0  0  # atno 17343 bound_to 10162
  157.6075  130.8558  149.8898 LP  0  0  0  0  0  0  0  0  0  0  0  0  # atno 17370 bound_to 10713
  156.0622  130.3698  150.0957 LP  0  0  0  0  0  0  0  0  0  0  0  0  # atno 17371 bound_to 10713
  139.8896  134.8825  156.2411 LP  0  0  0  0  0  0  0  0  0  0  0  0  # atno 17394 bound_to 11000
  141.0162  133.7067  156.1192 LP  0  0  0  0  0  0  0  0  0  0  0  0  # atno 17395 bound_to 11000

$$$$
