AV-unprocessed.smi:981|AV-procd|sdf|4313|dock8
  -GOLD-   22720 2223D 1   1.00000     0.00000
 Structure written by MMmdl.
 36 37  0  0  0  0  0  0  0  0  1 V2000
  152.4157  144.8010  158.5389 C   0  0  0  0  0  0  0  0  0  0  0  0
  152.2171  143.2784  158.5484 C   0  0  0  0  0  0  0  0  0  0  0  0
  150.7456  142.8612  158.4110 C   0  0  0  0  0  0  0  0  0  0  0  0
  152.8785  142.6314  159.7248 C   0  0  0  0  0  0  0  0  0  0  0  0
  153.8700  141.7409  159.6228 N   0  0  0  0  0  0  0  0  0  0  0  0
  154.3170  141.2842  160.8664 C   0  0  0  0  0  0  0  0  0  0  0  0
  155.4227  140.2754  160.9396 C   0  0  0  0  0  0  0  0  0  0  0  0
  155.0880  139.1147  161.8865 C   0  0  0  0  0  0  0  0  0  0  0  0
  155.9895  137.9933  161.6619 N   0  0  0  0  0  0  0  0  0  0  0  0
  156.0347  136.8893  162.4242 C   0  0  0  0  0  0  0  0  0  0  0  0
  155.3175  136.7204  163.4087 O   0  0  0  0  0  0  0  0  0  0  0  0
  156.9441  135.9732  162.0452 N   0  0  0  0  0  0  0  0  0  0  0  0
  157.2291  134.7059  162.6498 C   0  0  0  0  0  0  0  0  0  0  0  0
  156.1572  134.1045  163.5331 C   0  0  0  0  0  0  0  0  0  0  0  0
  157.4075  134.6649  164.1522 C   0  0  0  0  0  0  0  0  0  0  0  0
  153.6442  141.8458  161.9225 C   0  0  0  0  0  0  0  0  0  0  0  0
  152.4242  142.9701  161.3917 S   0  0  0  0  0  0  0  0  0  0  0  0
  153.4752  145.0581  158.5548 H   0  0  0  0  0  0  0  0  0  0  0  0
  151.9466  145.2679  159.4056 H   0  0  0  0  0  0  0  0  0  0  0  0
  151.9809  145.2480  157.6447 H   0  0  0  0  0  0  0  0  0  0  0  0
  152.7272  142.8977  157.6627 H   0  0  0  0  0  0  0  0  0  0  0  0
  150.6505  141.7773  158.3386 H   0  0  0  0  0  0  0  0  0  0  0  0
  150.2967  143.2927  157.5160 H   0  0  0  0  0  0  0  0  0  0  0  0
  150.1583  143.1906  159.2688 H   0  0  0  0  0  0  0  0  0  0  0  0
  155.6323  139.8841  159.9431 H   0  0  0  0  0  0  0  0  0  0  0  0
  156.3431  140.7587  161.2701 H   0  0  0  0  0  0  0  0  0  0  0  0
  155.1681  139.4437  162.9239 H   0  0  0  0  0  0  0  0  0  0  0  0
  154.0597  138.7848  161.7300 H   0  0  0  0  0  0  0  0  0  0  0  0
  156.6175  138.0571  160.8739 H   0  0  0  0  0  0  0  0  0  0  0  0
  157.5256  136.2207  161.2576 H   0  0  0  0  0  0  0  0  0  0  0  0
  157.8100  133.9850  162.0768 H   0  0  0  0  0  0  0  0  0  0  0  0
  155.2345  134.6653  163.6710 H   0  0  0  0  0  0  0  0  0  0  0  0
  156.0457  133.0223  163.5197 H   0  0  0  0  0  0  0  0  0  0  0  0
  158.1309  133.9572  164.5520 H   0  0  0  0  0  0  0  0  0  0  0  0
  157.3209  135.6013  164.7005 H   0  0  0  0  0  0  0  0  0  0  0  0
  153.7909  141.6654  162.9771 H   0  0  0  0  0  0  0  0  0  0  0  0
  1  2  1  0  0  0  0
  1 18  1  0  0  0  0
  1 19  1  0  0  0  0
  1 20  1  0  0  0  0
  2  3  1  0  0  0  0
  2  4  1  0  0  0  0
  2 21  1  0  0  0  0
  3 22  1  0  0  0  0
  3 23  1  0  0  0  0
  3 24  1  0  0  0  0
  4 17  1  0  0  0  0
  4  5  2  0  0  0  0
  5  6  1  0  0  0  0
  6  7  1  0  0  0  0
  6 16  2  0  0  0  0
  7  8  1  0  0  0  0
  7 25  1  0  0  0  0
  7 26  1  0  0  0  0
  8  9  1  0  0  0  0
  8 27  1  0  0  0  0
  8 28  1  0  0  0  0
  9 10  1  0  0  0  0
  9 29  1  0  0  0  0
 10 11  2  0  0  0  0
 10 12  1  0  0  0  0
 12 13  1  0  0  0  0
 12 30  1  0  0  0  0
 13 15  1  0  0  0  0
 13 14  1  0  0  0  0
 13 31  1  0  0  0  0
 14 15  1  0  0  0  0
 14 32  1  0  0  0  0
 14 33  1  0  0  0  0
 15 34  1  0  0  0  0
 15 35  1  0  0  0  0
 16 17  1  0  0  0  0
 16 36  1  0  0  0  0
M  END
> <s_m_source_file>
AV-unprocessed.smi

> <i_m_source_file_index>
981

> <i_lp_mmshare_version>
43012

> <i_f3d_flags>
0

> <s_epik_input>
W0NIM11bQ0hdKFtDSDNdKWMxbmMoW2NIXXMxKVtDSDJdW0NIMl1bTkhdQyg9TylbTkhdW0NIXTJbQ0gyXVtDSDJdMg==

> <s_epik_cmdline>
J2VwaWtfcHl0aG9uJywgJy1waCcsICc3LjAnLCAnLXRuJywgJzgnLCAnLW1hJywgJzIwMCcsICctbWV0YWxfYmluZGluZycsICctaW1hZScsICc8aW5maWxlLm1hZT4nLCAnLW9tYWUnLCAnPG91dGZpbGUubWFlPic=

> <r_epik_Ionization_Penalty>
0.00156572

> <r_epik_Ionization_Penalty_Charging>
0

> <r_epik_Ionization_Penalty_Neutral>
0.00156572

> <r_epik_State_Penalty>
0.0010059

> <r_epik_Charging_Adjusted_Penalty>
0.0010059

> <i_epik_Tot_Q>
0

> <i_epik_Tot_abs_Q>
0

> <r_epik_Metal_State_Penalty>
-0

> <b_epik_Metal_Only>
0

> <s_lp_Force_Field>
OPLS_2005

> <r_lp_Energy>
12.4684

> <b_lp_Chiralities_Consistent>
1

> <s_lp_Variant>
AV-unprocessed.smi:981-1

> <Gold.Version>
5.8.1

> <Gold.Id.Protein>
6NUR|6NUR_protein|mol2

> <Gold.PLP.Fitness>
36.9691

> <Gold.PLP.PLP>
-37.7941

> <Gold.PLP.part.hbond>
0.0000

> <Gold.PLP.part.metal>
0.0000

> <Gold.PLP.part.buried>
-5.4114

> <Gold.PLP.part.nonpolar>
-32.2475

> <Gold.PLP.part.repulsive>
0.0814

> <Gold.PLP.ligand.clash>
0.0000

> <Gold.PLP.ligand.torsion>
0.4728

> <Gold.PLP.Chemscore.Hbond>
0.0000

> <Gold.PLP.Chemscore.CHOScore>
0.0000

> <Gold.PLP.Chemscore.Metal>
0.0000

> <Gold.PLP.Chemscore.Internal.Correction>
0.1205

> <Gold.Rescore>
     Score         DG    S(hbond)    S(metal)    S(lipo)     H(rot)  DE(clash)    DE(int)     intcor
     12.23     -14.47       0.00        0.00     114.14       1.70       0.01       2.23       ----

> <Gold.Chemscore.Fitness>
12.2313

> <Gold.Chemscore.DG>
-14.4702

> <Gold.Chemscore.ZeroCoef>
-5.4800

> <Gold.Chemscore.Hbond>
0.0000

> <Gold.Chemscore.Metal>
0.0000

> <Gold.Chemscore.Lipo>
114.1352

> <Gold.Chemscore.Internal_Hbond>
0.0000

> <Gold.Chemscore.DEClash>
0.0110

> <Gold.Chemscore.DEInternal>
2.2279

> <Gold.Chemscore.Rot>
1.7045

> <Gold.Chemscore.Internal.Correction>
   9.000000E+99

> <Gold.Chemscore.Hbond.Weighted>
-0.0000

> <Gold.Chemscore.Metal.Weighted>
-0.0000

> <Gold.Chemscore.Lipo.Weighted>
-13.3538

> <Gold.Chemscore.Internal_Hbond.Weighted>
0.0000

> <Gold.Chemscore.DEClash.Weighted>
0.0110

> <Gold.Chemscore.DEInternal.Weighted>
2.2279

> <Gold.Chemscore.Rot.Weighted>
4.3636

> <Gold.Chemscore.Internal.Correction.Weighted>
   9.000000E+99

> <Gold.Protein.RotatedTorsions>
[ 6907 6896 6895 6894 ] final  137.07 input  -60.11 | X-H torsion
[ 7974 7965 7964 7962 ] final  -53.21 input  175.53 | X-H torsion
[ 8008 7997 7996 7995 ] final   70.53 input   59.86 | X-H torsion
[ 10167 10162 10161 10158 ] final   20.27 input  -65.29 | X-H torsion
[ 10718 10713 10712 10709 ] final -131.31 input   66.30 | X-H torsion
[ 10763 10752 10751 10750 ] final  142.23 input  -60.55 | X-H torsion
[ 11005 11000 10999 10996 ] final   85.57 input  -57.11 | X-H torsion

> <Gold.Protein.ActiveResidues>
 VAL166  LYS551  ARG553  GLY616  TRP617  ASP618  TYR619  PRO620  LYS621  CYS622 
 ASP623  PHE694  ASN695  SER759  ASP760  ASP761  ALA762  ILE779  LEU786  VAL792 
 PHE793  MET794  SER795  GLU796  ALA797  LYS798  CYS799  TRP800  GLU811  SER814 

> <Gold.Protein.RotatedAtoms>
  152.2822  133.5481  159.5504 H   0  0  0  0  0  0  0  0  0  0  0  0  # atno 6907 bound_to 6896
  150.7200  134.0548  159.3819 H   0  0  0  0  0  0  0  0  0  0  0  0  # atno 6908 bound_to 6896
  151.8458  135.0575  160.0504 H   0  0  0  0  0  0  0  0  0  0  0  0  # atno 6909 bound_to 6896
  145.8993  140.8007  142.9751 H   0  0  0  0  0  0  0  0  0  0  0  0  # atno 7974 bound_to 7965
  155.7401  140.3490  155.5100 H   0  0  0  0  0  0  0  0  0  0  0  0  # atno 8008 bound_to 7997
  155.9102  140.1049  157.1307 H   0  0  0  0  0  0  0  0  0  0  0  0  # atno 8009 bound_to 7997
  154.4055  140.1269  156.4534 H   0  0  0  0  0  0  0  0  0  0  0  0  # atno 8010 bound_to 7997
  140.5516  143.9498  150.6582 H   0  0  0  0  0  0  0  0  0  0  0  0  # atno 10167 bound_to 10162
  156.2231  130.6991  151.0778 H   0  0  0  0  0  0  0  0  0  0  0  0  # atno 10718 bound_to 10713
  153.9523  135.2968  155.3438 H   0  0  0  0  0  0  0  0  0  0  0  0  # atno 10763 bound_to 10752
  154.7419  135.5020  153.9141 H   0  0  0  0  0  0  0  0  0  0  0  0  # atno 10764 bound_to 10752
  153.0988  135.6728  153.9821 H   0  0  0  0  0  0  0  0  0  0  0  0  # atno 10765 bound_to 10752
  139.8968  134.8296  156.2601 H   0  0  0  0  0  0  0  0  0  0  0  0  # atno 11005 bound_to 11000
  144.6735  140.1652  143.7419 LP  0  0  0  0  0  0  0  0  0  0  0  0  # atno 17320 bound_to 7965
  145.8810  139.2323  143.1605 LP  0  0  0  0  0  0  0  0  0  0  0  0  # atno 17321 bound_to 7965
  140.2926  143.3314  152.1048 LP  0  0  0  0  0  0  0  0  0  0  0  0  # atno 17342 bound_to 10162
  139.5030  144.6746  151.6159 LP  0  0  0  0  0  0  0  0  0  0  0  0  # atno 17343 bound_to 10162
  157.7097  131.0740  150.6543 LP  0  0  0  0  0  0  0  0  0  0  0  0  # atno 17370 bound_to 10713
  156.6607  130.4511  149.5688 LP  0  0  0  0  0  0  0  0  0  0  0  0  # atno 17371 bound_to 10713
  141.0168  133.7064  156.1202 LP  0  0  0  0  0  0  0  0  0  0  0  0  # atno 17394 bound_to 11000
  140.7290  134.4275  157.5568 LP  0  0  0  0  0  0  0  0  0  0  0  0  # atno 17395 bound_to 11000

$$$$
