AV-unprocessed.smi:2162|AV-procd|sdf|8802|dock10
  -GOLD-   2272011583D 1   1.00000     0.00000
 Structure written by MMmdl.
 41 42  0  0  0  0  0  0  0  0  1 V2000
  151.9169  130.4714  156.4021 C   0  0  0  0  0  0  0  0  0  0  0  0
  150.8836  130.8702  155.4050 C   0  0  0  0  0  0  0  0  0  0  0  0
  150.3671  132.0993  155.3258 N   0  0  0  0  0  0  0  0  0  0  0  0
  149.4178  132.2194  154.3063 C   0  0  0  0  0  0  0  0  0  0  0  0
  148.7396  133.5369  154.0635 C   0  0  0  0  0  0  0  0  0  0  0  0
  149.0663  134.5996  155.1273 C   0  0  0  0  0  0  0  0  0  0  0  0
  149.6993  135.7738  154.5350 N   0  0  0  0  0  0  0  0  0  0  0  0
  150.8163  136.3661  154.9803 C   0  0  0  0  0  0  0  0  0  0  0  0
  151.4466  135.9740  155.9628 O   0  0  0  0  0  0  0  0  0  0  0  0
  151.2939  137.5973  154.1939 C   0  0  2  0  0  0  0  0  0  0  0  0
  152.4798  138.2903  154.8900 C   0  0  0  0  0  0  0  0  0  0  0  0
  151.8929  139.5967  155.3984 C   0  0  0  0  0  0  0  0  0  0  0  0
  152.5202  140.3646  156.1266 O   0  0  0  0  0  0  0  0  0  0  0  0
  150.6349  139.7647  154.9697 N   0  0  0  0  0  0  0  0  0  0  0  0
  149.7543  140.8846  155.3289 C   0  0  0  0  0  0  0  0  0  0  0  0
  149.4949  140.8889  156.8440 C   0  0  0  0  0  0  0  0  0  0  0  0
  148.4422  140.8922  154.5236 C   0  0  0  0  0  0  0  0  0  0  0  0
  150.2050  138.6848  154.0901 C   0  0  0  0  0  0  0  0  0  0  0  0
  149.2199  131.0523  153.6111 C   0  0  0  0  0  0  0  0  0  0  0  0
  150.2235  129.7608  154.2099 S   0  0  0  0  0  0  0  0  0  0  0  0
  152.1574  131.3055  157.0623 H   0  0  0  0  0  0  0  0  0  0  0  0
  152.8264  130.1574  155.8899 H   0  0  0  0  0  0  0  0  0  0  0  0
  151.5504  129.6416  157.0065 H   0  0  0  0  0  0  0  0  0  0  0  0
  149.0270  133.9204  153.0837 H   0  0  0  0  0  0  0  0  0  0  0  0
  147.6590  133.3967  154.0173 H   0  0  0  0  0  0  0  0  0  0  0  0
  148.1546  134.8652  155.6646 H   0  0  0  0  0  0  0  0  0  0  0  0
  149.7551  134.1843  155.8640 H   0  0  0  0  0  0  0  0  0  0  0  0
  149.2523  136.1628  153.7172 H   0  0  0  0  0  0  0  0  0  0  0  0
  151.5898  137.2839  153.1908 H   0  0  0  0  0  0  0  0  0  0  0  0
  152.9043  137.7138  155.7137 H   0  0  0  0  0  0  0  0  0  0  0  0
  153.2804  138.5046  154.1817 H   0  0  0  0  0  0  0  0  0  0  0  0
  150.2747  141.8114  155.0811 H   0  0  0  0  0  0  0  0  0  0  0  0
  148.8741  141.7372  157.1330 H   0  0  0  0  0  0  0  0  0  0  0  0
  150.4272  140.9594  157.4053 H   0  0  0  0  0  0  0  0  0  0  0  0
  148.9842  139.9789  157.1605 H   0  0  0  0  0  0  0  0  0  0  0  0
  147.8550  141.7823  154.7510 H   0  0  0  0  0  0  0  0  0  0  0  0
  147.8192  140.0266  154.7506 H   0  0  0  0  0  0  0  0  0  0  0  0
  148.6374  140.8966  153.4509 H   0  0  0  0  0  0  0  0  0  0  0  0
  150.1358  139.0531  153.0657 H   0  0  0  0  0  0  0  0  0  0  0  0
  149.2169  138.3216  154.3785 H   0  0  0  0  0  0  0  0  0  0  0  0
  148.5495  130.8760  152.7830 H   0  0  0  0  0  0  0  0  0  0  0  0
  1  2  1  0  0  0  0
  1 21  1  0  0  0  0
  1 22  1  0  0  0  0
  1 23  1  0  0  0  0
  2 20  1  0  0  0  0
  2  3  2  0  0  0  0
  3  4  1  0  0  0  0
  4  5  1  0  0  0  0
  4 19  2  0  0  0  0
  5  6  1  0  0  0  0
  5 24  1  0  0  0  0
  5 25  1  0  0  0  0
  6  7  1  0  0  0  0
  6 26  1  0  0  0  0
  6 27  1  0  0  0  0
  7  8  1  0  0  0  0
  7 28  1  0  0  0  0
  8  9  2  0  0  0  0
  8 10  1  0  0  0  0
 10 18  1  0  0  0  0
 10 11  1  0  0  0  0
 10 29  1  0  0  0  0
 11 12  1  0  0  0  0
 11 30  1  0  0  0  0
 11 31  1  0  0  0  0
 12 13  2  0  0  0  0
 12 14  1  0  0  0  0
 14 15  1  0  0  0  0
 14 18  1  0  0  0  0
 15 16  1  0  0  0  0
 15 17  1  0  0  0  0
 15 32  1  0  0  0  0
 16 33  1  0  0  0  0
 16 34  1  0  0  0  0
 16 35  1  0  0  0  0
 17 36  1  0  0  0  0
 17 37  1  0  0  0  0
 17 38  1  0  0  0  0
 18 39  1  0  0  0  0
 18 40  1  0  0  0  0
 19 20  1  0  0  0  0
 19 41  1  0  0  0  0
M  END
> <s_m_source_file>
AV-unprocessed.smi

> <i_m_source_file_index>
2162

> <i_lp_mmshare_version>
43012

> <i_f3d_flags>
0

> <s_epik_input>
W0NIM11jMW5jKFtjSF1zMSlbQ0gyXVtDSDJdW05IXUMoPU8pW0NAQEhdMltDSDJdQyg9TylOKFtDSDJdMilbQ0hdKFtDSDNdKVtDSDNd

> <s_epik_cmdline>
J2VwaWtfcHl0aG9uJywgJy1waCcsICc3LjAnLCAnLXRuJywgJzgnLCAnLW1hJywgJzIwMCcsICctbWV0YWxfYmluZGluZycsICctaW1hZScsICc8aW5maWxlLm1hZT4nLCAnLW9tYWUnLCAnPG91dGZpbGUubWFlPic=

> <r_epik_Ionization_Penalty>
0.000973993

> <r_epik_Ionization_Penalty_Charging>
0

> <r_epik_Ionization_Penalty_Neutral>
0.000973993

> <r_epik_State_Penalty>
0.000633765

> <r_epik_Charging_Adjusted_Penalty>
0.000633765

> <i_epik_Tot_Q>
0

> <i_epik_Tot_abs_Q>
0

> <r_epik_Metal_State_Penalty>
-0

> <b_epik_Metal_Only>
0

> <s_lp_Force_Field>
OPLS_2005

> <r_lp_Energy>
15.0968

> <b_lp_Chiralities_Consistent>
1

> <s_lp_Variant>
AV-unprocessed.smi:2162-1

> <Gold.Version>
5.8.1

> <Gold.Id.Protein>
6NUR|6NUR_protein|mol2

> <Gold.PLP.Fitness>
47.0724

> <Gold.PLP.PLP>
-36.2665

> <Gold.PLP.part.hbond>
-3.0000

> <Gold.PLP.part.metal>
0.0000

> <Gold.PLP.part.buried>
2.0626

> <Gold.PLP.part.nonpolar>
-33.7277

> <Gold.PLP.part.repulsive>
0.0781

> <Gold.PLP.ligand.clash>
0.0000

> <Gold.PLP.ligand.torsion>
0.6172

> <Gold.PLP.Chemscore.Hbond>
3.0000

> <Gold.PLP.Chemscore.CHOScore>
0.9934

> <Gold.PLP.Chemscore.Metal>
0.0000

> <Gold.Chemscore.Hbonds>
donor molecule, donor type, donor heavy atom, donor atom, acceptor molecule, acceptor atom, score
      L1  H     7    28       P1  7948  1.00
      P1  H  7997  8009       L1    13  1.00
      P1  H 10752 10765       L1     9  1.00
      L1  C    19    41       P1 10747  1.00

> <Gold.PLP.Chemscore.Internal.Correction>
0.0600

> <Gold.Rescore>
     Score         DG    S(hbond)    S(metal)    S(lipo)     H(rot)  DE(clash)    DE(int)     intcor
     16.72     -18.60       2.51        0.00      76.78       1.66       1.31       0.56       ----

> <Gold.Chemscore.Fitness>
16.7232

> <Gold.Chemscore.DG>
-18.5953

> <Gold.Chemscore.ZeroCoef>
-5.4800

> <Gold.Chemscore.Hbond>
2.5081

> <Gold.Chemscore.Metal>
0.0000

> <Gold.Chemscore.Lipo>
76.7842

> <Gold.Chemscore.Internal_Hbond>
0.0000

> <Gold.Chemscore.DEClash>
1.3087

> <Gold.Chemscore.DEInternal>
0.5634

> <Gold.Chemscore.Rot>
1.6585

> <Gold.Chemscore.Internal.Correction>
   9.000000E+99

> <Gold.Chemscore.Hbonds>
donor molecule, donor type, donor heavy atom, donor atom, acceptor molecule, acceptor atom, score
      L1  H     7    28       P1  7948  0.84
      P1  H  7997  8009       L1    13  0.92
      P1  H 10752 10765       L1     9  0.25

> <Gold.Chemscore.Hbond.Weighted>
-8.3772

> <Gold.Chemscore.Metal.Weighted>
-0.0000

> <Gold.Chemscore.Lipo.Weighted>
-8.9838

> <Gold.Chemscore.Internal_Hbond.Weighted>
0.0000

> <Gold.Chemscore.DEClash.Weighted>
1.3087

> <Gold.Chemscore.DEInternal.Weighted>
0.5634

> <Gold.Chemscore.Rot.Weighted>
4.2457

> <Gold.Chemscore.Internal.Correction.Weighted>
   9.000000E+99

> <Gold.Protein.RotatedTorsions>
[ 6907 6896 6895 6894 ] final  -73.76 input  -60.11 | X-H torsion
[ 7974 7965 7964 7962 ] final  -98.99 input  175.53 | X-H torsion
[ 8008 7997 7996 7995 ] final -155.61 input   59.86 | X-H torsion
[ 10167 10162 10161 10158 ] final    0.44 input  -65.29 | X-H torsion
[ 10718 10713 10712 10709 ] final  -91.30 input   66.30 | X-H torsion
[ 10763 10752 10751 10750 ] final -146.81 input  -60.55 | X-H torsion
[ 11005 11000 10999 10996 ] final  -35.14 input  -57.11 | X-H torsion

> <Gold.Protein.ActiveResidues>
 VAL166  LYS551  ARG553  GLY616  TRP617  ASP618  TYR619  PRO620  LYS621  CYS622 
 ASP623  PHE694  ASN695  SER759  ASP760  ASP761  ALA762  ILE779  LEU786  VAL792 
 PHE793  MET794  SER795  GLU796  ALA797  LYS798  CYS799  TRP800  GLU811  SER814 

> <Gold.Protein.RotatedAtoms>
  150.7118  134.4968  159.5541 H   0  0  0  0  0  0  0  0  0  0  0  0  # atno 6907 bound_to 6896
  152.2574  134.8067  160.0445 H   0  0  0  0  0  0  0  0  0  0  0  0  # atno 6908 bound_to 6896
  151.8792  133.3456  159.3797 H   0  0  0  0  0  0  0  0  0  0  0  0  # atno 6909 bound_to 6896
  145.3133  140.9405  143.2757 H   0  0  0  0  0  0  0  0  0  0  0  0  # atno 7974 bound_to 7965
  155.7045  140.0771  157.2396 H   0  0  0  0  0  0  0  0  0  0  0  0  # atno 8008 bound_to 7997
  154.4068  140.1641  156.2281 H   0  0  0  0  0  0  0  0  0  0  0  0  # atno 8009 bound_to 7997
  155.9338  140.3389  155.6273 H   0  0  0  0  0  0  0  0  0  0  0  0  # atno 8010 bound_to 7997
  140.6728  143.7000  150.7959 H   0  0  0  0  0  0  0  0  0  0  0  0  # atno 10167 bound_to 10162
  155.9993  130.4943  150.5454 H   0  0  0  0  0  0  0  0  0  0  0  0  # atno 10718 bound_to 10713
  154.8317  135.3376  154.6720 H   0  0  0  0  0  0  0  0  0  0  0  0  # atno 10763 bound_to 10752
  153.7339  135.6950  153.4987 H   0  0  0  0  0  0  0  0  0  0  0  0  # atno 10764 bound_to 10752
  153.2292  135.4422  155.0528 H   0  0  0  0  0  0  0  0  0  0  0  0  # atno 10765 bound_to 10752
  140.9772  133.7076  156.1622 H   0  0  0  0  0  0  0  0  0  0  0  0  # atno 11005 bound_to 11000
  144.8998  139.4665  143.6638 LP  0  0  0  0  0  0  0  0  0  0  0  0  # atno 17320 bound_to 7965
  146.3109  139.7745  142.9020 LP  0  0  0  0  0  0  0  0  0  0  0  0  # atno 17321 bound_to 7965
  140.0688  143.5082  152.2590 LP  0  0  0  0  0  0  0  0  0  0  0  0  # atno 17342 bound_to 10162
  139.6005  144.7581  151.3183 LP  0  0  0  0  0  0  0  0  0  0  0  0  # atno 17343 bound_to 10162
  157.3384  131.0712  151.1807 LP  0  0  0  0  0  0  0  0  0  0  0  0  # atno 17370 bound_to 10713
  157.2663  130.6683  149.5998 LP  0  0  0  0  0  0  0  0  0  0  0  0  # atno 17371 bound_to 10713
  140.7241  134.4326  157.5572 LP  0  0  0  0  0  0  0  0  0  0  0  0  # atno 17394 bound_to 11000
  139.8935  134.8728  156.2219 LP  0  0  0  0  0  0  0  0  0  0  0  0  # atno 17395 bound_to 11000

$$$$
