AV-unprocessed.smi:560|AV-procd|sdf|2926|dock7
  -GOLD-   2262023423D 1   1.00000     0.00000
 Structure written by MMmdl.
 41 42  0  0  0  0  0  0  0  0  1 V2000
  154.3801  141.0769  160.1139 C   0  0  0  0  0  0  0  0  0  0  0  0
  152.8575  141.2486  159.9339 C   0  0  2  0  0  0  0  0  0  0  0  0
  152.3502  140.6164  158.6294 C   0  0  0  0  0  0  0  0  0  0  0  0
  153.1334  140.0736  157.8490 O   0  0  0  0  0  0  0  0  0  0  0  0
  151.0305  140.7076  158.4006 N   0  0  0  0  0  0  0  0  0  0  0  0
  150.3454  140.2220  157.2071 C   0  0  0  0  0  0  0  0  0  0  0  0
  150.6608  141.1207  156.0005 C   0  0  0  0  0  0  0  0  0  0  0  0
  149.8265  140.7241  154.7697 C   0  0  0  0  0  0  0  0  0  0  0  0
  148.3899  140.7790  155.0788 N   0  0  0  0  0  0  0  0  0  0  0  0
  147.5421  140.4809  153.9020 C   0  0  0  0  0  0  0  0  0  0  0  0
  147.6264  139.0307  153.4103 C   0  0  0  0  0  0  0  0  0  0  0  0
  148.2096  138.8198  152.2278 N   0  0  0  0  0  0  0  0  0  0  0  0
  147.1654  138.1144  154.0878 O   0  0  0  0  0  0  0  0  0  0  0  0
  148.0691  139.8399  156.1585 C   0  0  0  0  0  0  0  0  0  0  0  0
  148.8288  140.2146  157.4429 C   0  0  0  0  0  0  0  0  0  0  0  0
  152.4326  142.6426  160.0095 N   0  0  0  0  0  0  0  0  0  0  0  0
  152.6955  143.6564  159.1098 C   0  0  0  0  0  0  0  0  0  0  0  0
  152.1465  144.8028  159.6080 C   0  0  0  0  0  0  0  0  0  0  0  0
  151.5732  144.3930  160.8433 C   0  0  0  0  0  0  0  0  0  0  0  0
  151.7553  143.1058  161.0864 N   0  0  0  0  0  0  0  0  0  0  0  0
  154.6569  140.0222  160.1157 H   0  0  0  0  0  0  0  0  0  0  0  0
  154.7090  141.5018  161.0625 H   0  0  0  0  0  0  0  0  0  0  0  0
  154.9479  141.5638  159.3199 H   0  0  0  0  0  0  0  0  0  0  0  0
  152.3784  140.7267  160.7642 H   0  0  0  0  0  0  0  0  0  0  0  0
  150.4607  141.1685  159.0951 H   0  0  0  0  0  0  0  0  0  0  0  0
  150.6650  139.2011  156.9886 H   0  0  0  0  0  0  0  0  0  0  0  0
  150.4593  142.1636  156.2507 H   0  0  0  0  0  0  0  0  0  0  0  0
  151.7224  141.0625  155.7573 H   0  0  0  0  0  0  0  0  0  0  0  0
  150.0781  141.4085  153.9597 H   0  0  0  0  0  0  0  0  0  0  0  0
  150.1009  139.7228  154.4327 H   0  0  0  0  0  0  0  0  0  0  0  0
  146.5039  140.7380  154.1226 H   0  0  0  0  0  0  0  0  0  0  0  0
  147.8464  141.1145  153.0675 H   0  0  0  0  0  0  0  0  0  0  0  0
  148.2895  137.8815  151.8642 H   0  0  0  0  0  0  0  0  0  0  0  0
  148.5708  139.6025  151.7020 H   0  0  0  0  0  0  0  0  0  0  0  0
  146.9983  139.8649  156.3647 H   0  0  0  0  0  0  0  0  0  0  0  0
  148.3103  138.8179  155.8598 H   0  0  0  0  0  0  0  0  0  0  0  0
  148.5786  139.5112  158.2379 H   0  0  0  0  0  0  0  0  0  0  0  0
  148.4974  141.1969  157.7837 H   0  0  0  0  0  0  0  0  0  0  0  0
  153.2475  143.4790  158.1986 H   0  0  0  0  0  0  0  0  0  0  0  0
  152.1582  145.7860  159.1617 H   0  0  0  0  0  0  0  0  0  0  0  0
  151.0393  144.9892  161.5682 H   0  0  0  0  0  0  0  0  0  0  0  0
  1  2  1  0  0  0  0
  1 21  1  0  0  0  0
  1 22  1  0  0  0  0
  1 23  1  0  0  0  0
  2  3  1  0  0  0  0
  2 16  1  0  0  0  0
  2 24  1  0  0  0  0
  3  4  2  0  0  0  0
  3  5  1  0  0  0  0
  5  6  1  0  0  0  0
  5 25  1  0  0  0  0
  6 15  1  0  0  0  0
  6  7  1  0  0  0  0
  6 26  1  0  0  0  0
  7  8  1  0  0  0  0
  7 27  1  0  0  0  0
  7 28  1  0  0  0  0
  8  9  1  0  0  0  0
  8 29  1  0  0  0  0
  8 30  1  0  0  0  0
  9 10  1  0  0  0  0
  9 14  1  0  0  0  0
 10 11  1  0  0  0  0
 10 31  1  0  0  0  0
 10 32  1  0  0  0  0
 11 12  1  0  0  0  0
 11 13  2  0  0  0  0
 12 33  1  0  0  0  0
 12 34  1  0  0  0  0
 14 15  1  0  0  0  0
 14 35  1  0  0  0  0
 14 36  1  0  0  0  0
 15 37  1  0  0  0  0
 15 38  1  0  0  0  0
 16 20  1  0  0  0  0
 16 17  1  0  0  0  0
 17 18  2  0  0  0  0
 17 39  1  0  0  0  0
 18 19  1  0  0  0  0
 18 40  1  0  0  0  0
 19 20  2  0  0  0  0
 19 41  1  0  0  0  0
M  END
> <s_m_source_file>
AV-unprocessed.smi

> <i_m_source_file_index>
560

> <i_lp_mmshare_version>
43012

> <i_f3d_flags>
0

> <s_epik_input>
bjFbY0hdW2NIXVtjSF1uMVtDQEhdKFtDSDNdKUMoPU8pW05IXVtDSF0yW0NIMl1bQ0gyXU4oW0NIMl1bQ0gyXTIpW0NIMl1DKD1PKVtOSDJd

> <s_epik_cmdline>
J2VwaWtfcHl0aG9uJywgJy1waCcsICc3LjAnLCAnLXRuJywgJzgnLCAnLW1hJywgJzIwMCcsICctbWV0YWxfYmluZGluZycsICctaW1hZScsICc8aW5maWxlLm1hZT4nLCAnLW9tYWUnLCAnPG91dGZpbGUubWFlPic=

> <r_lp_tautomer_probability>
1

> <r_epik_Ionization_Penalty>
0.114724

> <r_epik_Ionization_Penalty_Charging>
0

> <r_epik_Ionization_Penalty_Neutral>
0.114724

> <r_epik_State_Penalty>
0.104339

> <r_epik_Charging_Adjusted_Penalty>
0.104339

> <i_epik_Tot_Q>
0

> <i_epik_Tot_abs_Q>
0

> <r_epik_Metal_State_Penalty>
0.117437

> <b_epik_Metal_Only>
0

> <s_lp_Force_Field>
OPLS_2005

> <r_lp_Energy>
15.4208

> <b_lp_Chiralities_Consistent>
1

> <s_lp_Variant>
AV-unprocessed.smi:560-1

> <Gold.Version>
5.8.1

> <Gold.Id.Protein>
6NUR|6NUR_protein|mol2

> <Gold.PLP.Fitness>
47.3470

> <Gold.PLP.PLP>
-39.1614

> <Gold.PLP.part.hbond>
-2.9481

> <Gold.PLP.part.metal>
0.0000

> <Gold.PLP.part.buried>
-4.9724

> <Gold.PLP.part.nonpolar>
-31.8218

> <Gold.PLP.part.repulsive>
0.5384

> <Gold.PLP.ligand.clash>
0.0000

> <Gold.PLP.ligand.torsion>
0.3889

> <Gold.PLP.Chemscore.Hbond>
2.9513

> <Gold.PLP.Chemscore.CHOScore>
0.0000

> <Gold.PLP.Chemscore.Metal>
0.0000

> <Gold.Chemscore.Hbonds>
donor molecule, donor type, donor heavy atom, donor atom, acceptor molecule, acceptor atom, score
      L1  H    12    33       P1  7948  1.00
      L1  H    12    34       P1  7957  0.20
      P1  H  7997  8010       L1     4  0.93

> <Gold.PLP.Chemscore.Internal.Correction>
0.1095

> <Gold.Rescore>
     Score         DG    S(hbond)    S(metal)    S(lipo)     H(rot)  DE(clash)    DE(int)     intcor
     17.92     -18.43       2.95        0.00      80.57       2.48       0.00       0.50       ----

> <Gold.Chemscore.Fitness>
17.9221

> <Gold.Chemscore.DG>
-18.4256

> <Gold.Chemscore.ZeroCoef>
-5.4800

> <Gold.Chemscore.Hbond>
2.9518

> <Gold.Chemscore.Metal>
0.0000

> <Gold.Chemscore.Lipo>
80.5738

> <Gold.Chemscore.Internal_Hbond>
0.0000

> <Gold.Chemscore.DEClash>
0.0000

> <Gold.Chemscore.DEInternal>
0.5035

> <Gold.Chemscore.Rot>
2.4768

> <Gold.Chemscore.Internal.Correction>
   9.000000E+99

> <Gold.Chemscore.Hbonds>
donor molecule, donor type, donor heavy atom, donor atom, acceptor molecule, acceptor atom, score
      L1  H    12    33       P1  7948  0.98
      L1  H    12    34       P1  7957  0.20
      P1  H  6933  6945       L1    20  0.02
      P1  H  7997  8010       L1     4  0.90

> <Gold.Chemscore.Hbond.Weighted>
-9.8591

> <Gold.Chemscore.Metal.Weighted>
-0.0000

> <Gold.Chemscore.Lipo.Weighted>
-9.4271

> <Gold.Chemscore.Internal_Hbond.Weighted>
0.0000

> <Gold.Chemscore.DEClash.Weighted>
0.0000

> <Gold.Chemscore.DEInternal.Weighted>
0.5035

> <Gold.Chemscore.Rot.Weighted>
6.3406

> <Gold.Chemscore.Internal.Correction.Weighted>
   9.000000E+99

> <Gold.Protein.RotatedTorsions>
[ 6907 6896 6895 6894 ] final  154.50 input  -60.11 | X-H torsion
[ 7974 7965 7964 7962 ] final   -5.45 input  175.53 | X-H torsion
[ 8008 7997 7996 7995 ] final   29.01 input   59.86 | X-H torsion
[ 10167 10162 10161 10158 ] final  -96.55 input  -65.29 | X-H torsion
[ 10718 10713 10712 10709 ] final  128.76 input   66.30 | X-H torsion
[ 10763 10752 10751 10750 ] final -107.08 input  -60.55 | X-H torsion
[ 11005 11000 10999 10996 ] final  -39.30 input  -57.11 | X-H torsion

> <Gold.Protein.ActiveResidues>
 VAL166  LYS551  ARG553  GLY616  TRP617  ASP618  TYR619  PRO620  LYS621  CYS622 
 ASP623  PHE694  ASN695  SER759  ASP760  ASP761  ALA762  ILE779  LEU786  VAL792 
 PHE793  MET794  SER795  GLU796  ALA797  LYS798  CYS799  TRP800  GLU811  SER814 

> <Gold.Protein.RotatedAtoms>
  152.0575  133.4047  159.4403 H   0  0  0  0  0  0  0  0  0  0  0  0  # atno 6907 bound_to 6896
  150.6867  134.3238  159.4807 H   0  0  0  0  0  0  0  0  0  0  0  0  # atno 6908 bound_to 6896
  152.1055  134.9311  160.0619 H   0  0  0  0  0  0  0  0  0  0  0  0  # atno 6909 bound_to 6896
  146.2352  140.2023  142.8334 H   0  0  0  0  0  0  0  0  0  0  0  0  # atno 7974 bound_to 7965
  155.0678  140.3197  155.4640 H   0  0  0  0  0  0  0  0  0  0  0  0  # atno 8008 bound_to 7997
  156.2798  140.2117  156.5750 H   0  0  0  0  0  0  0  0  0  0  0  0  # atno 8009 bound_to 7997
  154.7080  140.0501  157.0510 H   0  0  0  0  0  0  0  0  0  0  0  0  # atno 8010 bound_to 7997
  140.2927  143.3211  152.0329 H   0  0  0  0  0  0  0  0  0  0  0  0  # atno 10167 bound_to 10162
  157.5216  131.1098  150.9145 H   0  0  0  0  0  0  0  0  0  0  0  0  # atno 10718 bound_to 10713
  154.8052  135.4688  154.0376 H   0  0  0  0  0  0  0  0  0  0  0  0  # atno 10763 bound_to 10752
  153.1850  135.6846  153.8435 H   0  0  0  0  0  0  0  0  0  0  0  0  # atno 10764 bound_to 10752
  153.7972  135.3235  155.3363 H   0  0  0  0  0  0  0  0  0  0  0  0  # atno 10765 bound_to 10752
  141.0092  133.6916  156.2168 H   0  0  0  0  0  0  0  0  0  0  0  0  # atno 11005 bound_to 11000
  144.9772  140.8425  143.5419 LP  0  0  0  0  0  0  0  0  0  0  0  0  # atno 17320 bound_to 7965
  145.2012  139.2251  143.5192 LP  0  0  0  0  0  0  0  0  0  0  0  0  # atno 17321 bound_to 7965
  139.4934  144.6513  151.6669 LP  0  0  0  0  0  0  0  0  0  0  0  0  # atno 17342 bound_to 10162
  140.5719  144.0095  150.6221 LP  0  0  0  0  0  0  0  0  0  0  0  0  # atno 17343 bound_to 10162
  156.9754  130.5507  149.5293 LP  0  0  0  0  0  0  0  0  0  0  0  0  # atno 17370 bound_to 10713
  156.0357  130.5445  150.8648 LP  0  0  0  0  0  0  0  0  0  0  0  0  # atno 17371 bound_to 10713
  140.6762  134.4815  157.5588 LP  0  0  0  0  0  0  0  0  0  0  0  0  # atno 17394 bound_to 11000
  139.9080  134.8406  156.1633 LP  0  0  0  0  0  0  0  0  0  0  0  0  # atno 17395 bound_to 11000

$$$$
