AV-unprocessed.smi:1505|AV-procd|sdf|6075|dock9
  -GOLD-   22720 6193D 1   1.00000     0.00000
 Structure written by MMmdl.
 44 45  0  0  0  0  0  0  0  0  1 V2000
  149.0273  141.7153  158.0291 C   0  0  0  0  0  0  0  0  0  0  0  0
  150.4121  141.1776  157.6614 C   0  0  0  0  0  0  0  0  0  0  0  0
  151.2211  140.9934  158.5709 O   0  0  0  0  0  0  0  0  0  0  0  0
  150.7022  140.9290  156.3616 N   0  0  0  0  0  0  0  0  0  0  0  0
  151.9589  140.3540  155.8675 C   0  0  0  0  0  0  0  0  0  0  0  0
  151.6919  138.9139  155.3980 C   0  0  0  0  0  0  0  0  0  0  0  0
  150.5710  138.8668  154.3302 C   0  0  0  0  0  0  0  0  0  0  0  0
  150.1901  137.4860  154.0509 N   0  0  0  0  0  0  0  0  0  0  0  0
  150.0211  136.5370  154.9813 C   0  0  0  0  0  0  0  0  0  0  0  0
  150.2618  136.6963  156.1786 O   0  0  0  0  0  0  0  0  0  0  0  0
  149.4967  135.4177  154.4608 N   0  0  0  0  0  0  0  0  0  0  0  0
  148.9830  134.2912  155.2381 C   0  0  0  0  0  0  0  0  0  0  0  0
  148.8030  133.0267  154.3725 C   0  0  0  0  0  0  0  0  0  0  0  0
  147.6449  133.1303  153.4136 C   0  0  0  0  0  0  0  0  0  0  0  0
  146.2723  133.3507  153.7249 C   0  0  0  0  0  0  0  0  0  0  0  0
  145.4926  133.3361  152.6565 N   0  0  0  0  0  0  0  0  0  0  0  0
  146.3371  133.1133  151.6290 N   0  0  0  0  0  0  0  0  0  0  0  0
  145.8127  133.0197  150.2839 C   0  0  0  0  0  0  0  0  0  0  0  0
  147.6431  132.9952  152.0538 C   0  0  0  0  0  0  0  0  0  0  0  0
  149.3289  139.6654  154.7814 C   0  0  0  0  0  0  0  0  0  0  0  0
  149.7138  141.0681  155.2860 C   0  0  0  0  0  0  0  0  0  0  0  0
  148.8289  142.6576  157.5173 H   0  0  0  0  0  0  0  0  0  0  0  0
  148.9593  141.8995  159.1017 H   0  0  0  0  0  0  0  0  0  0  0  0
  148.2513  140.9967  157.7647 H   0  0  0  0  0  0  0  0  0  0  0  0
  152.3242  140.9544  155.0330 H   0  0  0  0  0  0  0  0  0  0  0  0
  152.7628  140.3616  156.6020 H   0  0  0  0  0  0  0  0  0  0  0  0
  152.6119  138.4800  155.0040 H   0  0  0  0  0  0  0  0  0  0  0  0
  151.4106  138.3043  156.2584 H   0  0  0  0  0  0  0  0  0  0  0  0
  150.9466  139.3245  153.4130 H   0  0  0  0  0  0  0  0  0  0  0  0
  149.9647  137.2606  153.0931 H   0  0  0  0  0  0  0  0  0  0  0  0
  149.3453  135.3854  153.4632 H   0  0  0  0  0  0  0  0  0  0  0  0
  149.6787  134.0848  156.0516 H   0  0  0  0  0  0  0  0  0  0  0  0
  148.0352  134.5540  155.7111 H   0  0  0  0  0  0  0  0  0  0  0  0
  149.7280  132.8452  153.8240 H   0  0  0  0  0  0  0  0  0  0  0  0
  148.6812  132.1638  155.0277 H   0  0  0  0  0  0  0  0  0  0  0  0
  145.8201  133.5007  154.6941 H   0  0  0  0  0  0  0  0  0  0  0  0
  146.6246  132.8464  149.5771 H   0  0  0  0  0  0  0  0  0  0  0  0
  145.3044  133.9474  150.0198 H   0  0  0  0  0  0  0  0  0  0  0  0
  145.1060  132.1916  150.2214 H   0  0  0  0  0  0  0  0  0  0  0  0
  148.4523  132.8046  151.3643 H   0  0  0  0  0  0  0  0  0  0  0  0
  148.6174  139.7477  153.9590 H   0  0  0  0  0  0  0  0  0  0  0  0
  148.8153  139.1298  155.5817 H   0  0  0  0  0  0  0  0  0  0  0  0
  148.8196  141.6077  155.6012 H   0  0  0  0  0  0  0  0  0  0  0  0
  150.1426  141.6555  154.4728 H   0  0  0  0  0  0  0  0  0  0  0  0
  1  2  1  0  0  0  0
  1 22  1  0  0  0  0
  1 23  1  0  0  0  0
  1 24  1  0  0  0  0
  2  3  2  0  0  0  0
  2  4  1  0  0  0  0
  4 21  1  0  0  0  0
  4  5  1  0  0  0  0
  5  6  1  0  0  0  0
  5 25  1  0  0  0  0
  5 26  1  0  0  0  0
  6  7  1  0  0  0  0
  6 27  1  0  0  0  0
  6 28  1  0  0  0  0
  7  8  1  0  0  0  0
  7 20  1  0  0  0  0
  7 29  1  0  0  0  0
  8  9  1  0  0  0  0
  8 30  1  0  0  0  0
  9 10  2  0  0  0  0
  9 11  1  0  0  0  0
 11 12  1  0  0  0  0
 11 31  1  0  0  0  0
 12 13  1  0  0  0  0
 12 32  1  0  0  0  0
 12 33  1  0  0  0  0
 13 14  1  0  0  0  0
 13 34  1  0  0  0  0
 13 35  1  0  0  0  0
 14 19  2  0  0  0  0
 14 15  1  0  0  0  0
 15 16  2  0  0  0  0
 15 36  1  0  0  0  0
 16 17  1  0  0  0  0
 17 18  1  0  0  0  0
 17 19  1  0  0  0  0
 18 37  1  0  0  0  0
 18 38  1  0  0  0  0
 18 39  1  0  0  0  0
 19 40  1  0  0  0  0
 20 21  1  0  0  0  0
 20 41  1  0  0  0  0
 20 42  1  0  0  0  0
 21 43  1  0  0  0  0
 21 44  1  0  0  0  0
M  END
> <s_m_source_file>
AV-unprocessed.smi

> <i_m_source_file_index>
1505

> <i_lp_mmshare_version>
43012

> <i_f3d_flags>
0

> <s_epik_input>
W0NIM11DKD1PKU4xW0NIMl1bQ0gyXVtDSF0oW0NIMl1bQ0gyXTEpW05IXUMoPU8pW05IXVtDSDJdW0NIMl1jMltjSF1ubihbQ0gzXSlbY0hdMg==

> <s_epik_cmdline>
J2VwaWtfcHl0aG9uJywgJy1waCcsICc3LjAnLCAnLXRuJywgJzgnLCAnLW1hJywgJzIwMCcsICctbWV0YWxfYmluZGluZycsICctaW1hZScsICc8aW5maWxlLm1hZT4nLCAnLW9tYWUnLCAnPG91dGZpbGUubWFlPic=

> <r_lp_tautomer_probability>
1

> <r_epik_Ionization_Penalty>
0.000559595

> <r_epik_Ionization_Penalty_Charging>
0

> <r_epik_Ionization_Penalty_Neutral>
0.000559595

> <r_epik_State_Penalty>
-0

> <r_epik_Charging_Adjusted_Penalty>
0

> <i_epik_Tot_Q>
0

> <i_epik_Tot_abs_Q>
0

> <r_epik_Metal_State_Penalty>
-0

> <b_epik_Metal_Only>
0

> <s_lp_Force_Field>
OPLS_2005

> <r_lp_Energy>
17.177

> <b_lp_Chiralities_Consistent>
1

> <s_lp_Variant>
AV-unprocessed.smi:1505-1

> <Gold.Version>
5.8.1

> <Gold.Id.Protein>
6NUR|6NUR_protein|mol2

> <Gold.PLP.Fitness>
42.8005

> <Gold.PLP.PLP>
-34.5804

> <Gold.PLP.part.hbond>
-2.6242

> <Gold.PLP.part.metal>
0.0000

> <Gold.PLP.part.buried>
-3.8390

> <Gold.PLP.part.nonpolar>
-29.5541

> <Gold.PLP.part.repulsive>
0.1954

> <Gold.PLP.ligand.clash>
0.0000

> <Gold.PLP.ligand.torsion>
0.4016

> <Gold.PLP.Chemscore.Hbond>
2.0000

> <Gold.PLP.Chemscore.CHOScore>
1.0000

> <Gold.PLP.Chemscore.Metal>
0.0000

> <Gold.Chemscore.Hbonds>
donor molecule, donor type, donor heavy atom, donor atom, acceptor molecule, acceptor atom, score
      L1  H     8    30       P1  7948  0.95
      L1  H    11    31       P1  7948  0.95
      L1  C    19    40       P1 10747  1.00

> <Gold.PLP.Chemscore.Internal.Correction>
0.0233

> <Gold.Rescore>
     Score         DG    S(hbond)    S(metal)    S(lipo)     H(rot)  DE(clash)    DE(int)     intcor
     13.07     -14.95       1.77        0.00      67.49       1.69       0.01       1.87       ----

> <Gold.Chemscore.Fitness>
13.0718

> <Gold.Chemscore.DG>
-14.9540

> <Gold.Chemscore.ZeroCoef>
-5.4800

> <Gold.Chemscore.Hbond>
1.7674

> <Gold.Chemscore.Metal>
0.0000

> <Gold.Chemscore.Lipo>
67.4892

> <Gold.Chemscore.Internal_Hbond>
0.0000

> <Gold.Chemscore.DEClash>
0.0093

> <Gold.Chemscore.DEInternal>
1.8729

> <Gold.Chemscore.Rot>
1.6896

> <Gold.Chemscore.Internal.Correction>
   9.000000E+99

> <Gold.Chemscore.Hbonds>
donor molecule, donor type, donor heavy atom, donor atom, acceptor molecule, acceptor atom, score
      L1  H     8    30       P1  7948  0.20
      L1  H    11    31       P1  7948  0.21

> <Gold.Chemscore.Hbond.Weighted>
-5.9033

> <Gold.Chemscore.Metal.Weighted>
-0.0000

> <Gold.Chemscore.Lipo.Weighted>
-7.8962

> <Gold.Chemscore.Internal_Hbond.Weighted>
0.0000

> <Gold.Chemscore.DEClash.Weighted>
0.0093

> <Gold.Chemscore.DEInternal.Weighted>
1.8729

> <Gold.Chemscore.Rot.Weighted>
4.3255

> <Gold.Chemscore.Internal.Correction.Weighted>
   9.000000E+99

> <Gold.Protein.RotatedTorsions>
[ 6907 6896 6895 6894 ] final   16.17 input  -60.11 | X-H torsion
[ 7974 7965 7964 7962 ] final -153.47 input  175.53 | X-H torsion
[ 8008 7997 7996 7995 ] final    4.86 input   59.86 | X-H torsion
[ 10167 10162 10161 10158 ] final  -96.68 input  -65.29 | X-H torsion
[ 10718 10713 10712 10709 ] final  179.23 input   66.30 | X-H torsion
[ 10763 10752 10751 10750 ] final   41.60 input  -60.55 | X-H torsion
[ 11005 11000 10999 10996 ] final  162.91 input  -57.11 | X-H torsion

> <Gold.Protein.ActiveResidues>
 VAL166  LYS551  ARG553  GLY616  TRP617  ASP618  TYR619  PRO620  LYS621  CYS622 
 ASP623  PHE694  ASN695  SER759  ASP760  ASP761  ALA762  ILE779  LEU786  VAL792 
 PHE793  MET794  SER795  GLU796  ALA797  LYS798  CYS799  TRP800  GLU811  SER814 

> <Gold.Protein.RotatedAtoms>
  151.8296  135.0625  160.0434 H   0  0  0  0  0  0  0  0  0  0  0  0  # atno 6907 bound_to 6896
  152.2890  133.5538  159.5554 H   0  0  0  0  0  0  0  0  0  0  0  0  # atno 6908 bound_to 6896
  150.7222  134.0372  159.3795 H   0  0  0  0  0  0  0  0  0  0  0  0  # atno 6909 bound_to 6896
  144.7739  140.4521  143.5887 H   0  0  0  0  0  0  0  0  0  0  0  0  # atno 7974 bound_to 7965
  154.7211  140.2712  155.6540 H   0  0  0  0  0  0  0  0  0  0  0  0  # atno 8008 bound_to 7997
  156.2824  140.2734  156.1808 H   0  0  0  0  0  0  0  0  0  0  0  0  # atno 8009 bound_to 7997
  155.0506  140.0371  157.2532 H   0  0  0  0  0  0  0  0  0  0  0  0  # atno 8010 bound_to 7997
  140.2913  143.3220  152.0343 H   0  0  0  0  0  0  0  0  0  0  0  0  # atno 10167 bound_to 10162
  156.8789  130.9809  151.3064 H   0  0  0  0  0  0  0  0  0  0  0  0  # atno 10718 bound_to 10713
  152.9904  135.6157  154.2814 H   0  0  0  0  0  0  0  0  0  0  0  0  # atno 10763 bound_to 10752
  154.2543  135.2784  155.2806 H   0  0  0  0  0  0  0  0  0  0  0  0  # atno 10764 bound_to 10752
  154.5261  135.5801  153.6778 H   0  0  0  0  0  0  0  0  0  0  0  0  # atno 10765 bound_to 10752
  140.2305  134.8128  157.3312 H   0  0  0  0  0  0  0  0  0  0  0  0  # atno 11005 bound_to 11000
  145.6243  139.1528  143.3005 LP  0  0  0  0  0  0  0  0  0  0  0  0  # atno 17320 bound_to 7965
  146.1905  140.6351  142.9148 LP  0  0  0  0  0  0  0  0  0  0  0  0  # atno 17321 bound_to 7965
  139.4937  144.6523  151.6649 LP  0  0  0  0  0  0  0  0  0  0  0  0  # atno 17342 bound_to 10162
  140.5730  144.0076  150.6227 LP  0  0  0  0  0  0  0  0  0  0  0  0  # atno 17343 bound_to 10162
  157.6152  130.8613  149.9016 LP  0  0  0  0  0  0  0  0  0  0  0  0  # atno 17370 bound_to 10713
  156.0687  130.3688  150.0821 LP  0  0  0  0  0  0  0  0  0  0  0  0  # atno 17371 bound_to 10713
  140.1756  134.4554  155.7804 LP  0  0  0  0  0  0  0  0  0  0  0  0  # atno 17394 bound_to 11000
  141.2218  133.6960  156.7781 LP  0  0  0  0  0  0  0  0  0  0  0  0  # atno 17395 bound_to 11000

$$$$
