AV-unprocessed.smi:828|AV-procd|sdf|3858|dock9
  -GOLD-   22720 1313D 1   1.00000     0.00000
 Structure written by MMmdl.
 35 36  0  0  0  0  0  0  0  0  2 V2000
  143.3407  135.3835  151.5489 C   0  0  0  0  0  0  0  0  0  0  0  0
  144.4812  136.3372  151.4452 C   0  0  0  0  0  0  0  0  0  0  0  0
  145.2924  136.3823  150.3812 N   0  0  0  0  0  0  0  0  0  0  0  0
  146.2823  137.3459  150.5146 N   0  0  0  0  0  0  0  0  0  0  0  0
  146.1883  138.0008  151.6800 C   0  0  0  0  0  0  0  0  0  0  0  0
  147.0773  139.0347  152.0774 N   0  0  0  0  0  0  0  0  0  0  0  0
  146.9899  139.8395  153.1509 C   0  0  0  0  0  0  0  0  0  0  0  0
  146.1064  139.7940  154.0074 O   0  0  0  0  0  0  0  0  0  0  0  0
  147.9991  140.7218  153.1837 N   0  0  0  0  0  0  0  0  0  0  0  0
  148.1863  141.7299  154.2224 C   0  0  0  0  0  0  0  0  0  0  0  0
  148.5730  141.1105  155.5818 C   0  0  2  0  0  0  0  0  0  0  0  0
  147.3611  140.6569  156.4213 C   0  0  0  0  0  0  0  0  0  0  0  0
  147.2775  141.6565  157.5702 C   0  0  0  0  0  0  0  0  0  0  0  0
  148.7304  142.0678  157.7704 C   0  0  0  0  0  0  0  0  0  0  0  0
  149.3025  142.1019  156.4107 N   0  3  1  0  0  0  0  0  0  0  0  0
  150.7749  141.9715  156.3729 C   0  0  0  0  0  0  0  0  0  0  0  0
  144.8704  137.4867  152.7193 S   0  0  0  0  0  0  0  0  0  0  0  0
  142.9594  135.1357  150.5578 H   0  0  0  0  0  0  0  0  0  0  0  0
  142.5322  135.8250  152.1317 H   0  0  0  0  0  0  0  0  0  0  0  0
  143.6666  134.4660  152.0391 H   0  0  0  0  0  0  0  0  0  0  0  0
  147.8679  139.1817  151.4677 H   0  0  0  0  0  0  0  0  0  0  0  0
  148.6858  140.6916  152.4441 H   0  0  0  0  0  0  0  0  0  0  0  0
  148.9465  142.4431  153.8994 H   0  0  0  0  0  0  0  0  0  0  0  0
  147.2580  142.2940  154.3194 H   0  0  0  0  0  0  0  0  0  0  0  0
  149.2138  140.2429  155.4154 H   0  0  0  0  0  0  0  0  0  0  0  0
  146.4297  140.6052  155.8565 H   0  0  0  0  0  0  0  0  0  0  0  0
  147.5511  139.6603  156.8218 H   0  0  0  0  0  0  0  0  0  0  0  0
  146.6848  142.5209  157.2678 H   0  0  0  0  0  0  0  0  0  0  0  0
  146.8271  141.2353  158.4696 H   0  0  0  0  0  0  0  0  0  0  0  0
  148.8305  143.0297  158.2737 H   0  0  0  0  0  0  0  0  0  0  0  0
  149.2442  141.3152  158.3706 H   0  0  0  0  0  0  0  0  0  0  0  0
  151.0962  141.0094  156.7741 H   0  0  0  0  0  0  0  0  0  0  0  0
  151.2425  142.7618  156.9608 H   0  0  0  0  0  0  0  0  0  0  0  0
  151.1385  142.0535  155.3482 H   0  0  0  0  0  0  0  0  0  0  0  0
  149.0694  143.0085  156.0311 H   0  0  0  0  0  0  0  0  0  0  0  0
  1  2  1  0  0  0  0
  1 18  1  0  0  0  0
  1 19  1  0  0  0  0
  1 20  1  0  0  0  0
  2 17  1  0  0  0  0
  2  3  2  0  0  0  0
  3  4  1  0  0  0  0
  4  5  2  0  0  0  0
  5  6  1  0  0  0  0
  5 17  1  0  0  0  0
  6  7  1  0  0  0  0
  6 21  1  0  0  0  0
  7  8  2  0  0  0  0
  7  9  1  0  0  0  0
  9 10  1  0  0  0  0
  9 22  1  0  0  0  0
 10 11  1  0  0  0  0
 10 23  1  0  0  0  0
 10 24  1  0  0  0  0
 11 15  1  0  0  0  0
 11 12  1  0  0  0  0
 11 25  1  0  0  0  0
 12 13  1  0  0  0  0
 12 26  1  0  0  0  0
 12 27  1  0  0  0  0
 13 14  1  0  0  0  0
 13 28  1  0  0  0  0
 13 29  1  0  0  0  0
 14 15  1  0  0  0  0
 14 30  1  0  0  0  0
 14 31  1  0  0  0  0
 15 16  1  0  0  0  0
 15 35  1  0  0  0  0
 16 32  1  0  0  0  0
 16 33  1  0  0  0  0
 16 34  1  0  0  0  0
M  CHG  1  15   1
M  END
> <s_m_source_file>
AV-unprocessed.smi

> <i_m_source_file_index>
828

> <i_lp_mmshare_version>
43012

> <i_f3d_flags>
0

> <s_epik_input>
W0NIM11jMW5uYyhzMSlbTkhdQyg9TylbTkhdW0NIMl1bQ0BASF0yW0NIMl1bQ0gyXVtDSDJdTjJbQ0gzXQ==

> <s_epik_cmdline>
J2VwaWtfcHl0aG9uJywgJy1waCcsICc3LjAnLCAnLXRuJywgJzgnLCAnLW1hJywgJzIwMCcsICctbWV0YWxfYmluZGluZycsICctaW1hZScsICc8aW5maWxlLm1hZT4nLCAnLW9tYWUnLCAnPG91dGZpbGUubWFlPic=

> <r_lp_tautomer_probability>
1

> <r_epik_Ionization_Penalty>
0.00466477

> <r_epik_Ionization_Penalty_Charging>
0.00372199

> <r_epik_Ionization_Penalty_Neutral>
0.000942783

> <r_epik_State_Penalty>
-0

> <r_epik_Charging_Adjusted_Penalty>
0.00372199

> <i_epik_Tot_Q>
1

> <i_epik_Tot_abs_Q>
1

> <r_epik_Metal_State_Penalty>
0.28212

> <b_epik_Metal_Only>
0

> <s_lp_Force_Field>
OPLS_2005

> <r_lp_Energy>
24.623

> <b_lp_Chiralities_Consistent>
1

> <s_lp_Variant>
AV-unprocessed.smi:828-1

> <Gold.Version>
5.8.1

> <Gold.Id.Protein>
6NUR|6NUR_protein|mol2

> <Gold.PLP.Fitness>
37.6178

> <Gold.PLP.PLP>
-23.3477

> <Gold.PLP.part.hbond>
-4.5033

> <Gold.PLP.part.metal>
0.0000

> <Gold.PLP.part.buried>
-4.1394

> <Gold.PLP.part.nonpolar>
-18.4589

> <Gold.PLP.part.repulsive>
3.3734

> <Gold.PLP.ligand.clash>
0.0000

> <Gold.PLP.ligand.torsion>
0.3292

> <Gold.PLP.Chemscore.Hbond>
4.9760

> <Gold.PLP.Chemscore.CHOScore>
0.0000

> <Gold.PLP.Chemscore.Metal>
0.0000

> <Gold.Chemscore.Hbonds>
donor molecule, donor type, donor heavy atom, donor atom, acceptor molecule, acceptor atom, score
      L1  H     6    21       P1  7957  1.00
      L1  H     9    22       P1  7957  1.00
      L1  H    15    35       P1  8028  2.00
      P1  H  7954  7966       L1     4  0.87

> <Gold.PLP.Chemscore.Internal.Correction>
0.0005

> <Gold.Rescore>
     Score         DG    S(hbond)    S(metal)    S(lipo)     H(rot)  DE(clash)    DE(int)     intcor
     14.70     -19.26       3.77        0.00      39.26       1.33       2.78       1.78       ----

> <Gold.Chemscore.Fitness>
14.6973

> <Gold.Chemscore.DG>
-19.2600

> <Gold.Chemscore.ZeroCoef>
-5.4800

> <Gold.Chemscore.Hbond>
3.7693

> <Gold.Chemscore.Metal>
0.0000

> <Gold.Chemscore.Lipo>
39.2627

> <Gold.Chemscore.Internal_Hbond>
0.0000

> <Gold.Chemscore.DEClash>
2.7807

> <Gold.Chemscore.DEInternal>
1.7820

> <Gold.Chemscore.Rot>
1.3294

> <Gold.Chemscore.Internal.Correction>
   9.000000E+99

> <Gold.Chemscore.Hbonds>
donor molecule, donor type, donor heavy atom, donor atom, acceptor molecule, acceptor atom, score
      L1  H     6    21       P1  7957  0.85
      L1  H     9    22       P1  7957  0.99
      L1  H    15    35       P1  8028  1.00
      P1  H  7954  7966       L1     4  0.32

> <Gold.Chemscore.Hbond.Weighted>
-12.5896

> <Gold.Chemscore.Metal.Weighted>
-0.0000

> <Gold.Chemscore.Lipo.Weighted>
-4.5937

> <Gold.Chemscore.Internal_Hbond.Weighted>
0.0000

> <Gold.Chemscore.DEClash.Weighted>
2.7807

> <Gold.Chemscore.DEInternal.Weighted>
1.7820

> <Gold.Chemscore.Rot.Weighted>
3.4033

> <Gold.Chemscore.Internal.Correction.Weighted>
   9.000000E+99

> <Gold.Protein.RotatedTorsions>
[ 6907 6896 6895 6894 ] final  -26.41 input  -60.11 | X-H torsion
[ 7974 7965 7964 7962 ] final   20.11 input  175.53 | X-H torsion
[ 8008 7997 7996 7995 ] final   53.47 input   59.86 | X-H torsion
[ 10167 10162 10161 10158 ] final  -25.25 input  -65.29 | X-H torsion
[ 10718 10713 10712 10709 ] final  -57.64 input   66.30 | X-H torsion
[ 10763 10752 10751 10750 ] final  151.21 input  -60.55 | X-H torsion
[ 11005 11000 10999 10996 ] final -171.60 input  -57.11 | X-H torsion

> <Gold.Protein.ActiveResidues>
 VAL166  LYS551  ARG553  GLY616  TRP617  ASP618  TYR619  PRO620  LYS621  CYS622 
 ASP623  PHE694  ASN695  SER759  ASP760  ASP761  ALA762  ILE779  LEU786  VAL792 
 PHE793  MET794  SER795  GLU796  ALA797  LYS798  CYS799  TRP800  GLU811  SER814 

> <Gold.Protein.RotatedAtoms>
  151.1613  135.0275  159.8711 H   0  0  0  0  0  0  0  0  0  0  0  0  # atno 6907 bound_to 6896
  152.5451  134.1276  159.8435 H   0  0  0  0  0  0  0  0  0  0  0  0  # atno 6908 bound_to 6896
  151.1371  133.4950  159.2630 H   0  0  0  0  0  0  0  0  0  0  0  0  # atno 6909 bound_to 6896
  146.2124  139.8216  142.8678 H   0  0  0  0  0  0  0  0  0  0  0  0  # atno 7974 bound_to 7965
  155.4688  140.3464  155.4323 H   0  0  0  0  0  0  0  0  0  0  0  0  # atno 8008 bound_to 7997
  156.1114  140.1462  156.9362 H   0  0  0  0  0  0  0  0  0  0  0  0  # atno 8009 bound_to 7997
  154.4759  140.0885  156.7239 H   0  0  0  0  0  0  0  0  0  0  0  0  # atno 8010 bound_to 7997
  140.7287  143.4281  151.0845 H   0  0  0  0  0  0  0  0  0  0  0  0  # atno 10167 bound_to 10162
  156.1195  130.4167  150.0468 H   0  0  0  0  0  0  0  0  0  0  0  0  # atno 10718 bound_to 10713
  154.1000  135.2846  155.3253 H   0  0  0  0  0  0  0  0  0  0  0  0  # atno 10763 bound_to 10752
  154.6562  135.5351  153.7964 H   0  0  0  0  0  0  0  0  0  0  0  0  # atno 10764 bound_to 10752
  153.0382  135.6522  154.1164 H   0  0  0  0  0  0  0  0  0  0  0  0  # atno 10765 bound_to 10752
  140.5064  134.5844  157.5005 H   0  0  0  0  0  0  0  0  0  0  0  0  # atno 11005 bound_to 11000
  145.3090  141.0215  143.3565 LP  0  0  0  0  0  0  0  0  0  0  0  0  # atno 17320 bound_to 7965
  144.8950  139.4725  143.6660 LP  0  0  0  0  0  0  0  0  0  0  0  0  # atno 17321 bound_to 7965
  139.7935  143.8185  152.3154 LP  0  0  0  0  0  0  0  0  0  0  0  0  # atno 17342 bound_to 10162
  139.8177  144.7309  150.9613 LP  0  0  0  0  0  0  0  0  0  0  0  0  # atno 17343 bound_to 10162
  156.8410  130.9426  151.3632 LP  0  0  0  0  0  0  0  0  0  0  0  0  # atno 17370 bound_to 10713
  157.6379  130.8781  149.9393 LP  0  0  0  0  0  0  0  0  0  0  0  0  # atno 17371 bound_to 10713
  139.9683  134.7335  156.0092 LP  0  0  0  0  0  0  0  0  0  0  0  0  # atno 17394 bound_to 11000
  141.1408  133.6565  156.3725 LP  0  0  0  0  0  0  0  0  0  0  0  0  # atno 17395 bound_to 11000

$$$$
