AV-unprocessed.smi:2779|AV-procd|sdf|10712|dock9
  -GOLD-   2272015153D 1   1.00000     0.00000
 Structure written by MMmdl.
 38 39  0  0  0  0  0  0  0  0  1 V2000
  147.6451  137.4709  161.6729 O   0  0  0  0  0  0  0  0  0  0  0  0
  147.5961  136.2462  161.5621 C   0  0  0  0  0  0  0  0  0  0  0  0
  147.3472  135.3504  162.6889 C   0  0  0  0  0  0  0  0  0  0  0  0
  147.2942  134.0103  162.5331 C   0  0  0  0  0  0  0  0  0  0  0  0
  147.4911  133.4347  161.2131 C   0  0  0  0  0  0  0  0  0  0  0  0
  147.4493  131.9522  160.9355 C   0  0  0  0  0  0  0  0  0  0  0  0
  148.3951  131.3087  161.6204 F   0  0  0  0  0  0  0  0  0  0  0  0
  146.2623  131.4540  161.2827 F   0  0  0  0  0  0  0  0  0  0  0  0
  147.6392  131.7245  159.6355 F   0  0  0  0  0  0  0  0  0  0  0  0
  147.7144  134.2229  160.2113 N   0  0  0  0  0  0  0  0  0  0  0  0
  147.7664  135.5972  160.3738 N   0  0  0  0  0  0  0  0  0  0  0  0
  147.9987  136.3375  159.1283 C   0  0  0  0  0  0  0  0  0  0  0  0
  149.3311  137.1183  159.1675 C   0  0  1  0  0  0  0  0  0  0  0  0
  150.3392  136.3465  158.5459 O   0  0  0  0  0  0  0  0  0  0  0  0
  149.2524  138.4494  158.4041 C   0  0  0  0  0  0  0  0  0  0  0  0
  150.5138  139.0954  158.4634 O   0  0  0  0  0  0  0  0  0  0  0  0
  150.6703  140.0906  157.4668 C   0  0  0  0  0  0  0  0  0  0  0  0
  151.4770  141.2637  157.9844 C   0  0  0  0  0  0  0  0  0  0  0  0
  152.3956  141.0755  159.0380 C   0  0  0  0  0  0  0  0  0  0  0  0
  153.1482  142.1628  159.5232 C   0  0  0  0  0  0  0  0  0  0  0  0
  152.9866  143.4411  158.9544 C   0  0  0  0  0  0  0  0  0  0  0  0
  152.0726  143.6316  157.8999 C   0  0  0  0  0  0  0  0  0  0  0  0
  151.3186  142.5448  157.4153 C   0  0  0  0  0  0  0  0  0  0  0  0
  149.6323  137.3199  160.1965 H   0  0  0  0  0  0  0  0  0  0  0  0
  147.2005  135.7738  163.6718 H   0  0  0  0  0  0  0  0  0  0  0  0
  147.1076  133.3681  163.3809 H   0  0  0  0  0  0  0  0  0  0  0  0
  147.9439  135.6933  158.2486 H   0  0  0  0  0  0  0  0  0  0  0  0
  147.1716  137.0391  159.0052 H   0  0  0  0  0  0  0  0  0  0  0  0
  150.2846  136.4764  157.6115 H   0  0  0  0  0  0  0  0  0  0  0  0
  148.9945  138.2651  157.3596 H   0  0  0  0  0  0  0  0  0  0  0  0
  148.4755  139.0891  158.8266 H   0  0  0  0  0  0  0  0  0  0  0  0
  151.1624  139.6662  156.5901 H   0  0  0  0  0  0  0  0  0  0  0  0
  149.6936  140.4529  157.1418 H   0  0  0  0  0  0  0  0  0  0  0  0
  152.5247  140.0965  159.4760 H   0  0  0  0  0  0  0  0  0  0  0  0
  153.8495  142.0163  160.3315 H   0  0  0  0  0  0  0  0  0  0  0  0
  153.5638  144.2748  159.3264 H   0  0  0  0  0  0  0  0  0  0  0  0
  151.9499  144.6114  157.4625 H   0  0  0  0  0  0  0  0  0  0  0  0
  150.6203  142.6979  156.6055 H   0  0  0  0  0  0  0  0  0  0  0  0
  1  2  2  0  0  0  0
  2 11  1  0  0  0  0
  2  3  1  0  0  0  0
  3  4  2  0  0  0  0
  3 25  1  0  0  0  0
  4  5  1  0  0  0  0
  4 26  1  0  0  0  0
  5  6  1  0  0  0  0
  5 10  2  0  0  0  0
  6  7  1  0  0  0  0
  6  8  1  0  0  0  0
  6  9  1  0  0  0  0
 10 11  1  0  0  0  0
 11 12  1  0  0  0  0
 12 13  1  0  0  0  0
 12 27  1  0  0  0  0
 12 28  1  0  0  0  0
 13 24  1  0  0  0  0
 13 14  1  0  0  0  0
 13 15  1  0  0  0  0
 14 29  1  0  0  0  0
 15 16  1  0  0  0  0
 15 30  1  0  0  0  0
 15 31  1  0  0  0  0
 16 17  1  0  0  0  0
 17 18  1  0  0  0  0
 17 32  1  0  0  0  0
 17 33  1  0  0  0  0
 18 23  1  0  0  0  0
 18 19  2  0  0  0  0
 19 20  1  0  0  0  0
 19 34  1  0  0  0  0
 20 21  2  0  0  0  0
 20 35  1  0  0  0  0
 21 22  1  0  0  0  0
 21 36  1  0  0  0  0
 22 23  2  0  0  0  0
 22 37  1  0  0  0  0
 23 38  1  0  0  0  0
M  END
> <s_m_source_file>
AV-unprocessed.smi

> <i_m_source_file_index>
2779

> <i_lp_mmshare_version>
43012

> <i_f3d_flags>
0

> <s_epik_input>
Tz1jMVtjSF1bY0hdYyhDKEYpKEYpRilubjFbQ0gyXVtDQEhdKFtPSF0pW0NIMl1PW0NIMl1jMltjSF1bY0hdW2NIXVtjSF1bY0hdMg==

> <s_epik_cmdline>
J2VwaWtfcHl0aG9uJywgJy1waCcsICc3LjAnLCAnLXRuJywgJzgnLCAnLW1hJywgJzIwMCcsICctbWV0YWxfYmluZGluZycsICctaW1hZScsICc8aW5maWxlLm1hZT4nLCAnLW9tYWUnLCAnPG91dGZpbGUubWFlPic=

> <r_lp_tautomer_probability>
1

> <r_epik_Ionization_Penalty>
6.7226e-08

> <r_epik_Ionization_Penalty_Charging>
6.11342e-09

> <r_epik_Ionization_Penalty_Neutral>
6.11126e-08

> <r_epik_State_Penalty>
-0

> <r_epik_Charging_Adjusted_Penalty>
6.11342e-09

> <i_epik_Tot_Q>
0

> <i_epik_Tot_abs_Q>
0

> <r_epik_Metal_State_Penalty>
-0

> <b_epik_Metal_Only>
0

> <s_lp_Force_Field>
OPLS_2005

> <r_lp_Energy>
32.3095

> <b_lp_Chiralities_Consistent>
1

> <s_lp_Variant>
AV-unprocessed.smi:2779-2

> <Gold.Version>
5.8.1

> <Gold.Id.Protein>
6NUR|6NUR_protein|mol2

> <Gold.PLP.Fitness>
55.1279

> <Gold.PLP.PLP>
-49.2710

> <Gold.PLP.part.hbond>
-3.0000

> <Gold.PLP.part.metal>
0.0000

> <Gold.PLP.part.buried>
-5.1943

> <Gold.PLP.part.nonpolar>
-41.7978

> <Gold.PLP.part.repulsive>
0.0000

> <Gold.PLP.ligand.clash>
0.0000

> <Gold.PLP.ligand.torsion>
1.1681

> <Gold.PLP.Chemscore.Hbond>
2.6800

> <Gold.PLP.Chemscore.CHOScore>
0.0000

> <Gold.PLP.Chemscore.Metal>
0.0000

> <Gold.Chemscore.Hbonds>
donor molecule, donor type, donor heavy atom, donor atom, acceptor molecule, acceptor atom, score
      P1  H  6896  6908       L1    14  0.99
      P1  H  6931  6943       L1     1  0.85
      P1  H  6934  6947       L1     1  0.67

> <Gold.PLP.Chemscore.Internal.Correction>
0.1532

> <Gold.Rescore>
     Score         DG    S(hbond)    S(metal)    S(lipo)     H(rot)  DE(clash)    DE(int)     intcor
     17.86     -19.46       2.66        0.00     104.72       2.80       0.00       1.59       ----

> <Gold.Chemscore.Fitness>
17.8649

> <Gold.Chemscore.DG>
-19.4562

> <Gold.Chemscore.ZeroCoef>
-5.4800

> <Gold.Chemscore.Hbond>
2.6641

> <Gold.Chemscore.Metal>
0.0000

> <Gold.Chemscore.Lipo>
104.7164

> <Gold.Chemscore.Internal_Hbond>
0.0000

> <Gold.Chemscore.DEClash>
0.0000

> <Gold.Chemscore.DEInternal>
1.5912

> <Gold.Chemscore.Rot>
2.8022

> <Gold.Chemscore.Internal.Correction>
   9.000000E+99

> <Gold.Chemscore.Hbonds>
donor molecule, donor type, donor heavy atom, donor atom, acceptor molecule, acceptor atom, score
      P1  H  6896  6908       L1    14  0.69
      P1  H  6931  6943       L1     1  0.81
      P1  H  6934  6947       L1     1  0.68

> <Gold.Chemscore.Hbond.Weighted>
-8.8979

> <Gold.Chemscore.Metal.Weighted>
-0.0000

> <Gold.Chemscore.Lipo.Weighted>
-12.2518

> <Gold.Chemscore.Internal_Hbond.Weighted>
0.0000

> <Gold.Chemscore.DEClash.Weighted>
0.0000

> <Gold.Chemscore.DEInternal.Weighted>
1.5912

> <Gold.Chemscore.Rot.Weighted>
7.1736

> <Gold.Chemscore.Internal.Correction.Weighted>
   9.000000E+99

> <Gold.Protein.RotatedTorsions>
[ 6907 6896 6895 6894 ] final -156.07 input  -60.11 | X-H torsion
[ 7974 7965 7964 7962 ] final  -60.28 input  175.53 | X-H torsion
[ 8008 7997 7996 7995 ] final  -78.27 input   59.86 | X-H torsion
[ 10167 10162 10161 10158 ] final  174.23 input  -65.29 | X-H torsion
[ 10718 10713 10712 10709 ] final  -60.58 input   66.30 | X-H torsion
[ 10763 10752 10751 10750 ] final  126.42 input  -60.55 | X-H torsion
[ 11005 11000 10999 10996 ] final   91.71 input  -57.11 | X-H torsion

> <Gold.Protein.ActiveResidues>
 VAL166  LYS551  ARG553  GLY616  TRP617  ASP618  TYR619  PRO620  LYS621  CYS622 
 ASP623  PHE694  ASN695  SER759  ASP760  ASP761  ALA762  ILE779  LEU786  VAL792 
 PHE793  MET794  SER795  GLU796  ALA797  LYS798  CYS799  TRP800  GLU811  SER814 

> <Gold.Protein.RotatedAtoms>
  151.2820  133.4205  159.2627 H   0  0  0  0  0  0  0  0  0  0  0  0  # atno 6907 bound_to 6896
  151.0352  134.9568  159.8142 H   0  0  0  0  0  0  0  0  0  0  0  0  # atno 6908 bound_to 6896
  152.5354  134.2780  159.9049 H   0  0  0  0  0  0  0  0  0  0  0  0  # atno 6909 bound_to 6896
  145.8174  140.8561  143.0150 H   0  0  0  0  0  0  0  0  0  0  0  0  # atno 7974 bound_to 7965
  154.5674  140.0697  156.8912 H   0  0  0  0  0  0  0  0  0  0  0  0  # atno 8008 bound_to 7997
  155.2698  140.3364  155.4248 H   0  0  0  0  0  0  0  0  0  0  0  0  # atno 8009 bound_to 7997
  156.2091  140.1752  156.7720 H   0  0  0  0  0  0  0  0  0  0  0  0  # atno 8010 bound_to 7997
  139.5135  144.3170  152.0238 H   0  0  0  0  0  0  0  0  0  0  0  0  # atno 10167 bound_to 10162
  156.0981  130.4190  150.0874 H   0  0  0  0  0  0  0  0  0  0  0  0  # atno 10718 bound_to 10713
  153.6931  135.3295  155.3207 H   0  0  0  0  0  0  0  0  0  0  0  0  # atno 10763 bound_to 10752
  154.8434  135.4436  154.1488 H   0  0  0  0  0  0  0  0  0  0  0  0  # atno 10764 bound_to 10752
  153.2535  135.6984  153.7732 H   0  0  0  0  0  0  0  0  0  0  0  0  # atno 10765 bound_to 10752
  139.8834  134.8690  156.3467 H   0  0  0  0  0  0  0  0  0  0  0  0  # atno 11005 bound_to 11000
  144.6751  140.0483  143.7479 LP  0  0  0  0  0  0  0  0  0  0  0  0  # atno 17320 bound_to 7965
  145.9712  139.2871  143.1097 LP  0  0  0  0  0  0  0  0  0  0  0  0  # atno 17321 bound_to 7965
  140.2613  144.4064  150.6185 LP  0  0  0  0  0  0  0  0  0  0  0  0  # atno 17342 bound_to 10162
  140.6155  143.2172  151.6800 LP  0  0  0  0  0  0  0  0  0  0  0  0  # atno 17343 bound_to 10162
  156.8868  130.9575  151.3593 LP  0  0  0  0  0  0  0  0  0  0  0  0  # atno 17370 bound_to 10713
  157.6145  130.8608  149.9006 LP  0  0  0  0  0  0  0  0  0  0  0  0  # atno 17371 bound_to 10713
  140.9622  133.7381  156.0416 LP  0  0  0  0  0  0  0  0  0  0  0  0  # atno 17394 bound_to 11000
  140.7976  134.3546  157.5448 LP  0  0  0  0  0  0  0  0  0  0  0  0  # atno 17395 bound_to 11000

$$$$
