AV-unprocessed.smi:3237|AV-procd|sdf|12370|dock4
  -GOLD-   2272018233D 1   1.00000     0.00000
 Structure written by MMmdl.
 36 38  0  0  0  0  0  0  0  0  3 V2000
  150.2336  139.8055  155.3322 C   0  0  0  0  0  0  0  0  0  0  0  0
  150.4668  138.3609  155.0485 C   0  0  0  0  0  0  0  0  0  0  0  0
  151.4733  137.6906  154.4130 C   0  0  0  0  0  0  0  0  0  0  0  0
  151.0592  136.3329  154.4911 C   0  0  0  0  0  0  0  0  0  0  0  0
  151.7303  135.2742  154.0116 N   0  5  0  0  0  0  0  0  0  0  0  0
  151.1290  134.0656  153.9344 C   0  0  0  0  0  0  0  0  0  0  0  0
  151.5014  133.0245  154.4803 O   0  0  0  0  0  0  0  0  0  0  0  0
  150.0238  134.0623  153.1766 N   0  0  0  0  0  0  0  0  0  0  0  0
  149.1809  132.9013  152.9153 C   0  0  1  0  0  0  0  0  0  0  0  0
  148.4257  132.3778  154.1403 C   0  0  0  0  0  0  0  0  0  0  0  0
  147.1266  131.7847  153.5692 C   0  0  0  0  0  0  0  0  0  0  0  0
  147.0936  132.1333  152.1296 N   0  3  1  0  0  0  0  0  0  0  0  0
  145.7423  132.4135  151.6005 C   0  0  0  0  0  0  0  0  0  0  0  0
  145.1152  131.2356  150.8939 C   0  0  0  0  0  0  0  0  0  0  0  0
  145.6684  132.3943  150.0924 C   0  0  0  0  0  0  0  0  0  0  0  0
  148.0553  133.2326  151.9423 C   0  0  0  0  0  0  0  0  0  0  0  0
  149.9111  136.1902  155.1319 N   0  0  0  0  0  0  0  0  0  0  0  0
  149.5209  137.4872  155.4866 O   0  0  0  0  0  0  0  0  0  0  0  0
  151.1583  140.2923  155.6418 H   0  0  0  0  0  0  0  0  0  0  0  0
  149.5008  139.9362  156.1288 H   0  0  0  0  0  0  0  0  0  0  0  0
  149.8625  140.3167  154.4438 H   0  0  0  0  0  0  0  0  0  0  0  0
  152.3618  138.1047  153.9606 H   0  0  0  0  0  0  0  0  0  0  0  0
  149.7551  134.9354  152.7467 H   0  0  0  0  0  0  0  0  0  0  0  0
  149.7838  132.0964  152.4893 H   0  0  0  0  0  0  0  0  0  0  0  0
  149.0084  131.6452  154.6996 H   0  0  0  0  0  0  0  0  0  0  0  0
  148.1853  133.1972  154.8195 H   0  0  0  0  0  0  0  0  0  0  0  0
  147.0949  130.7005  153.6807 H   0  0  0  0  0  0  0  0  0  0  0  0
  146.2648  132.1980  154.0956 H   0  0  0  0  0  0  0  0  0  0  0  0
  145.1282  133.1044  152.1757 H   0  0  0  0  0  0  0  0  0  0  0  0
  145.6668  130.2973  150.8680 H   0  0  0  0  0  0  0  0  0  0  0  0
  144.0328  131.1372  150.9451 H   0  0  0  0  0  0  0  0  0  0  0  0
  144.9500  133.0586  149.6163 H   0  0  0  0  0  0  0  0  0  0  0  0
  146.5873  132.2260  149.5333 H   0  0  0  0  0  0  0  0  0  0  0  0
  147.5860  134.1827  152.2060 H   0  0  0  0  0  0  0  0  0  0  0  0
  148.3991  133.2956  150.9094 H   0  0  0  0  0  0  0  0  0  0  0  0
  147.4672  131.3385  151.6307 H   0  0  0  0  0  0  0  0  0  0  0  0
  1  2  1  0  0  0  0
  1 19  1  0  0  0  0
  1 20  1  0  0  0  0
  1 21  1  0  0  0  0
  2 18  1  0  0  0  0
  2  3  2  0  0  0  0
  3  4  1  0  0  0  0
  3 22  1  0  0  0  0
  4  5  1  0  0  0  0
  4 17  2  0  0  0  0
  5  6  1  0  0  0  0
  6  7  2  0  0  0  0
  6  8  1  0  0  0  0
  8  9  1  0  0  0  0
  8 23  1  0  0  0  0
  9 16  1  0  0  0  0
  9 10  1  0  0  0  0
  9 24  1  0  0  0  0
 10 11  1  0  0  0  0
 10 25  1  0  0  0  0
 10 26  1  0  0  0  0
 11 12  1  0  0  0  0
 11 27  1  0  0  0  0
 11 28  1  0  0  0  0
 12 13  1  0  0  0  0
 12 16  1  0  0  0  0
 12 36  1  0  0  0  0
 13 15  1  0  0  0  0
 13 14  1  0  0  0  0
 13 29  1  0  0  0  0
 14 15  1  0  0  0  0
 14 30  1  0  0  0  0
 14 31  1  0  0  0  0
 15 32  1  0  0  0  0
 15 33  1  0  0  0  0
 16 34  1  0  0  0  0
 16 35  1  0  0  0  0
 17 18  1  0  0  0  0
M  CHG  1   5  -1
M  CHG  1  12   1
M  END
> <s_m_source_file>
AV-unprocessed.smi

> <i_m_source_file_index>
3237

> <i_lp_mmshare_version>
43012

> <i_f3d_flags>
0

> <s_epik_input>
W0NIM11jMVtjSF1jKG5vMSlbTkhdQyg9TylbTkhdW0NAQEhdMltDSDJdW0NIMl1OKFtDSDJdMilbQ0hdM1tDSDJdW0NIMl0z

> <s_epik_cmdline>
J2VwaWtfcHl0aG9uJywgJy1waCcsICc3LjAnLCAnLXRuJywgJzgnLCAnLW1hJywgJzIwMCcsICctbWV0YWxfYmluZGluZycsICctaW1hZScsICc8aW5maWxlLm1hZT4nLCAnLW9tYWUnLCAnPG91dGZpbGUubWFlPic=

> <r_epik_Ionization_Penalty>
6.08472

> <r_epik_Ionization_Penalty_Charging>
6.08464

> <r_epik_Ionization_Penalty_Neutral>
8.41751e-05

> <r_epik_State_Penalty>
6.08438

> <r_epik_Charging_Adjusted_Penalty>
12.169

> <i_epik_Tot_Q>
0

> <i_epik_Tot_abs_Q>
2

> <r_epik_Metal_State_Penalty>
2.0369

> <b_epik_Metal_Only>
1

> <s_lp_Force_Field>
OPLS_2005

> <r_lp_Energy>
23.7623

> <b_lp_Chiralities_Consistent>
1

> <s_lp_Variant>
AV-unprocessed.smi:3237-8

> <Gold.Version>
5.8.1

> <Gold.Id.Protein>
6NUR|6NUR_protein|mol2

> <Gold.PLP.Fitness>
34.3210

> <Gold.PLP.PLP>
-27.6872

> <Gold.PLP.part.hbond>
-2.0000

> <Gold.PLP.part.metal>
0.0000

> <Gold.PLP.part.buried>
-2.4699

> <Gold.PLP.part.nonpolar>
-23.3299

> <Gold.PLP.part.repulsive>
0.4043

> <Gold.PLP.ligand.clash>
0.0000

> <Gold.PLP.ligand.torsion>
1.2717

> <Gold.PLP.Chemscore.Hbond>
2.6325

> <Gold.PLP.Chemscore.CHOScore>
0.0000

> <Gold.PLP.Chemscore.Metal>
0.0000

> <Gold.Chemscore.Hbonds>
donor molecule, donor type, donor heavy atom, donor atom, acceptor molecule, acceptor atom, score
      L1  H    12    36       P1 10747  0.70
      P1  H 10752 10763       L1     5  0.56

> <Gold.PLP.Chemscore.Internal.Correction>
1.2797

> <Gold.Rescore>
     Score         DG    S(hbond)    S(metal)    S(lipo)     H(rot)  DE(clash)    DE(int)     intcor
     10.34     -13.09       0.97        0.00      64.79       1.25       0.01       2.75       ----

> <Gold.Chemscore.Fitness>
10.3396

> <Gold.Chemscore.DG>
-13.0927

> <Gold.Chemscore.ZeroCoef>
-5.4800

> <Gold.Chemscore.Hbond>
0.9651

> <Gold.Chemscore.Metal>
0.0000

> <Gold.Chemscore.Lipo>
64.7865

> <Gold.Chemscore.Internal_Hbond>
0.0000

> <Gold.Chemscore.DEClash>
0.0057

> <Gold.Chemscore.DEInternal>
2.7475

> <Gold.Chemscore.Rot>
1.2464

> <Gold.Chemscore.Internal.Correction>
   9.000000E+99

> <Gold.Chemscore.Hbonds>
donor molecule, donor type, donor heavy atom, donor atom, acceptor molecule, acceptor atom, score
      L1  H    12    36       P1 10747  0.68
      P1  H 10752 10763       L1     5  0.06

> <Gold.Chemscore.Hbond.Weighted>
-3.2236

> <Gold.Chemscore.Metal.Weighted>
-0.0000

> <Gold.Chemscore.Lipo.Weighted>
-7.5800

> <Gold.Chemscore.Internal_Hbond.Weighted>
0.0000

> <Gold.Chemscore.DEClash.Weighted>
0.0057

> <Gold.Chemscore.DEInternal.Weighted>
2.7475

> <Gold.Chemscore.Rot.Weighted>
3.1909

> <Gold.Chemscore.Internal.Correction.Weighted>
   9.000000E+99

> <Gold.Protein.RotatedTorsions>
[ 6907 6896 6895 6894 ] final  -32.03 input  -60.11 | X-H torsion
[ 7974 7965 7964 7962 ] final -101.14 input  175.53 | X-H torsion
[ 8008 7997 7996 7995 ] final   65.28 input   59.86 | X-H torsion
[ 10167 10162 10161 10158 ] final  151.22 input  -65.29 | X-H torsion
[ 10718 10713 10712 10709 ] final   85.84 input   66.30 | X-H torsion
[ 10763 10752 10751 10750 ] final   58.09 input  -60.55 | X-H torsion
[ 11005 11000 10999 10996 ] final   10.76 input  -57.11 | X-H torsion

> <Gold.Protein.ActiveResidues>
 VAL166  LYS551  ARG553  GLY616  TRP617  ASP618  TYR619  PRO620  LYS621  CYS622 
 ASP623  PHE694  ASN695  SER759  ASP760  ASP761  ALA762  ILE779  LEU786  VAL792 
 PHE793  MET794  SER795  GLU796  ALA797  LYS798  CYS799  TRP800  GLU811  SER814 

> <Gold.Protein.RotatedAtoms>
  151.0841  134.9876  159.8370 H   0  0  0  0  0  0  0  0  0  0  0  0  # atno 6907 bound_to 6896
  152.5422  134.2145  159.8773 H   0  0  0  0  0  0  0  0  0  0  0  0  # atno 6908 bound_to 6896
  151.2177  133.4476  159.2633 H   0  0  0  0  0  0  0  0  0  0  0  0  # atno 6909 bound_to 6896
  145.2855  140.9338  143.2907 H   0  0  0  0  0  0  0  0  0  0  0  0  # atno 7974 bound_to 7965
  155.6593  140.3497  155.4776 H   0  0  0  0  0  0  0  0  0  0  0  0  # atno 8008 bound_to 7997
  155.9782  140.1169  157.0774 H   0  0  0  0  0  0  0  0  0  0  0  0  # atno 8009 bound_to 7997
  154.4184  140.1143  156.5385 H   0  0  0  0  0  0  0  0  0  0  0  0  # atno 8010 bound_to 7997
  139.4842  144.5458  151.7486 H   0  0  0  0  0  0  0  0  0  0  0  0  # atno 10167 bound_to 10162
  157.6920  131.0191  150.2883 H   0  0  0  0  0  0  0  0  0  0  0  0  # atno 10718 bound_to 10713
  152.9863  135.5619  154.5497 H   0  0  0  0  0  0  0  0  0  0  0  0  # atno 10763 bound_to 10752
  154.4936  135.2794  155.1479 H   0  0  0  0  0  0  0  0  0  0  0  0  # atno 10764 bound_to 10752
  154.2938  135.6321  153.5449 H   0  0  0  0  0  0  0  0  0  0  0  0  # atno 10765 bound_to 10752
  140.5108  134.0654  155.7818 H   0  0  0  0  0  0  0  0  0  0  0  0  # atno 11005 bound_to 11000
  144.9217  139.4404  143.6538 LP  0  0  0  0  0  0  0  0  0  0  0  0  # atno 17320 bound_to 7965
  146.3202  139.8081  142.8951 LP  0  0  0  0  0  0  0  0  0  0  0  0  # atno 17321 bound_to 7965
  140.5004  144.1177  150.5970 LP  0  0  0  0  0  0  0  0  0  0  0  0  # atno 17342 bound_to 10162
  140.4068  143.2676  151.9881 LP  0  0  0  0  0  0  0  0  0  0  0  0  # atno 17343 bound_to 10162
  156.3418  130.3816  149.7402 LP  0  0  0  0  0  0  0  0  0  0  0  0  # atno 17370 bound_to 10713
  156.4909  130.8084  151.3094 LP  0  0  0  0  0  0  0  0  0  0  0  0  # atno 17371 bound_to 10713
  141.1386  133.9177  157.2377 LP  0  0  0  0  0  0  0  0  0  0  0  0  # atno 17394 bound_to 11000
  139.9660  135.0142  156.9387 LP  0  0  0  0  0  0  0  0  0  0  0  0  # atno 17395 bound_to 11000

$$$$
