AV-unprocessed.smi:459|AV-procd|sdf|2624|dock3
  -GOLD-   2262023 23D 1   1.00000     0.00000
 Structure written by MMmdl.
 43 45  0  0  0  0  0  0  0  0  1 V2000
  143.3522  146.3984  154.5031 C   0  0  0  0  0  0  0  0  0  0  0  0
  143.8702  145.4753  155.4502 O   0  0  0  0  0  0  0  0  0  0  0  0
  144.7454  144.5092  155.0020 C   0  0  0  0  0  0  0  0  0  0  0  0
  145.1362  144.3528  153.6496 C   0  0  0  0  0  0  0  0  0  0  0  0
  146.0381  143.3356  153.2824 C   0  0  0  0  0  0  0  0  0  0  0  0
  146.5684  142.4547  154.2452 C   0  0  0  0  0  0  0  0  0  0  0  0
  147.4431  141.4899  153.7961 O   0  0  0  0  0  0  0  0  0  0  0  0
  148.2731  140.8347  154.7463 C   0  0  0  0  0  0  0  0  0  0  0  0
  149.5345  141.6748  154.9915 C   0  0  0  0  0  0  0  0  0  0  0  0
  150.4795  140.9947  155.8661 N   0  0  0  0  0  0  0  0  0  0  0  0
  151.0428  139.7669  155.7221 C   0  0  0  0  0  0  0  0  0  0  0  0
  150.7636  138.8718  154.5490 C   0  0  0  0  0  0  0  0  0  0  0  0
  150.3856  137.4382  154.9540 C   0  0  0  0  0  0  0  0  0  0  0  0
  151.3307  136.5081  154.4678 O   0  0  0  0  0  0  0  0  0  0  0  0
  151.8795  139.3976  156.6934 N   0  0  0  0  0  0  0  0  0  0  0  0
  151.8535  140.4816  157.5483 C   0  0  0  0  0  0  0  0  0  0  0  0
  152.5295  140.7048  158.7692 C   0  0  0  0  0  0  0  0  0  0  0  0
  152.3420  141.9090  159.4791 C   0  0  0  0  0  0  0  0  0  0  0  0
  151.4772  142.9045  158.9797 C   0  0  0  0  0  0  0  0  0  0  0  0
  150.7945  142.7019  157.7650 C   0  0  0  0  0  0  0  0  0  0  0  0
  150.9860  141.4986  157.0597 C   0  0  0  0  0  0  0  0  0  0  0  0
  146.1778  142.6109  155.5975 C   0  0  0  0  0  0  0  0  0  0  0  0
  145.2764  143.6284  155.9648 C   0  0  0  0  0  0  0  0  0  0  0  0
  142.6845  147.0959  155.0088 H   0  0  0  0  0  0  0  0  0  0  0  0
  142.7746  145.8922  153.7283 H   0  0  0  0  0  0  0  0  0  0  0  0
  144.1479  146.9823  154.0383 H   0  0  0  0  0  0  0  0  0  0  0  0
  144.7583  145.0005  152.8735 H   0  0  0  0  0  0  0  0  0  0  0  0
  146.3255  143.2294  152.2466 H   0  0  0  0  0  0  0  0  0  0  0  0
  147.7376  140.7011  155.6873 H   0  0  0  0  0  0  0  0  0  0  0  0
  148.5596  139.8483  154.3780 H   0  0  0  0  0  0  0  0  0  0  0  0
  150.0169  141.9249  154.0480 H   0  0  0  0  0  0  0  0  0  0  0  0
  149.2627  142.6261  155.4500 H   0  0  0  0  0  0  0  0  0  0  0  0
  149.9309  139.3084  153.9963 H   0  0  0  0  0  0  0  0  0  0  0  0
  151.6001  138.8688  153.8512 H   0  0  0  0  0  0  0  0  0  0  0  0
  150.2938  137.3464  156.0365 H   0  0  0  0  0  0  0  0  0  0  0  0
  149.4165  137.1798  154.5268 H   0  0  0  0  0  0  0  0  0  0  0  0
  151.3013  136.5164  153.5231 H   0  0  0  0  0  0  0  0  0  0  0  0
  153.1927  139.9477  159.1603 H   0  0  0  0  0  0  0  0  0  0  0  0
  152.8639  142.0691  160.4111 H   0  0  0  0  0  0  0  0  0  0  0  0
  151.3385  143.8238  159.5297 H   0  0  0  0  0  0  0  0  0  0  0  0
  150.1313  143.4621  157.3798 H   0  0  0  0  0  0  0  0  0  0  0  0
  146.5557  141.9634  156.3738 H   0  0  0  0  0  0  0  0  0  0  0  0
  144.9891  143.7338  157.0007 H   0  0  0  0  0  0  0  0  0  0  0  0
  1  2  1  0  0  0  0
  1 24  1  0  0  0  0
  1 25  1  0  0  0  0
  1 26  1  0  0  0  0
  2  3  1  0  0  0  0
  3 23  1  0  0  0  0
  3  4  2  0  0  0  0
  4  5  1  0  0  0  0
  4 27  1  0  0  0  0
  5  6  2  0  0  0  0
  5 28  1  0  0  0  0
  6  7  1  0  0  0  0
  6 22  1  0  0  0  0
  7  8  1  0  0  0  0
  8  9  1  0  0  0  0
  8 29  1  0  0  0  0
  8 30  1  0  0  0  0
  9 10  1  0  0  0  0
  9 31  1  0  0  0  0
  9 32  1  0  0  0  0
 10 21  1  0  0  0  0
 10 11  1  0  0  0  0
 11 12  1  0  0  0  0
 11 15  2  0  0  0  0
 12 13  1  0  0  0  0
 12 33  1  0  0  0  0
 12 34  1  0  0  0  0
 13 14  1  0  0  0  0
 13 35  1  0  0  0  0
 13 36  1  0  0  0  0
 14 37  1  0  0  0  0
 15 16  1  0  0  0  0
 16 21  2  0  0  0  0
 16 17  1  0  0  0  0
 17 18  2  0  0  0  0
 17 38  1  0  0  0  0
 18 19  1  0  0  0  0
 18 39  1  0  0  0  0
 19 20  2  0  0  0  0
 19 40  1  0  0  0  0
 20 21  1  0  0  0  0
 20 41  1  0  0  0  0
 22 23  2  0  0  0  0
 22 42  1  0  0  0  0
 23 43  1  0  0  0  0
M  END
> <s_m_source_file>
AV-unprocessed.smi

> <i_m_source_file_index>
459

> <i_lp_mmshare_version>
43012

> <i_f3d_flags>
0

> <s_epik_input>
W0NIM11PYzFbY0hdW2NIXWMoW2NIXVtjSF0xKU9bQ0gyXVtDSDJdbihjKG4yKVtDSDJdW0NIMl1bT0hdKWMoYzIzKVtjSF1bY0hdW2NIXVtjSF0z

> <s_epik_cmdline>
J2VwaWtfcHl0aG9uJywgJy1waCcsICc3LjAnLCAnLXRuJywgJzgnLCAnLW1hJywgJzIwMCcsICctbWV0YWxfYmluZGluZycsICctaW1hZScsICc8aW5maWxlLm1hZT4nLCAnLW9tYWUnLCAnPG91dGZpbGUubWFlPic=

> <r_lp_tautomer_probability>
1

> <r_epik_Ionization_Penalty>
0.207087

> <r_epik_Ionization_Penalty_Charging>
0

> <r_epik_Ionization_Penalty_Neutral>
0.207087

> <r_epik_State_Penalty>
0.197081

> <r_epik_Charging_Adjusted_Penalty>
0.197081

> <i_epik_Tot_Q>
0

> <i_epik_Tot_abs_Q>
0

> <r_epik_Metal_State_Penalty>
0.00023377

> <b_epik_Metal_Only>
0

> <s_lp_Force_Field>
OPLS_2005

> <r_lp_Energy>
17.9825

> <b_lp_Chiralities_Consistent>
1

> <s_lp_Variant>
AV-unprocessed.smi:459-1

> <Gold.Version>
5.8.1

> <Gold.Id.Protein>
6NUR|6NUR_protein|mol2

> <Gold.PLP.Fitness>
52.0534

> <Gold.PLP.PLP>
-47.7190

> <Gold.PLP.part.hbond>
-2.0000

> <Gold.PLP.part.metal>
0.0000

> <Gold.PLP.part.buried>
-7.5220

> <Gold.PLP.part.nonpolar>
-38.4545

> <Gold.PLP.part.repulsive>
0.2106

> <Gold.PLP.ligand.clash>
0.0000

> <Gold.PLP.ligand.torsion>
0.8591

> <Gold.PLP.Chemscore.Hbond>
2.0000

> <Gold.PLP.Chemscore.CHOScore>
0.0000

> <Gold.PLP.Chemscore.Metal>
0.0000

> <Gold.Chemscore.Hbonds>
donor molecule, donor type, donor heavy atom, donor atom, acceptor molecule, acceptor atom, score
      L1  H    14    37       P1  7949  0.83
      P1  H 10752 10764       L1    14  0.45

> <Gold.PLP.Chemscore.Internal.Correction>
0.0527

> <Gold.Rescore>
     Score         DG    S(hbond)    S(metal)    S(lipo)     H(rot)  DE(clash)    DE(int)     intcor
     16.34     -17.24       1.62        0.00     111.03       2.59       0.17       0.73       ----

> <Gold.Chemscore.Fitness>
16.3449

> <Gold.Chemscore.DG>
-17.2380

> <Gold.Chemscore.ZeroCoef>
-5.4800

> <Gold.Chemscore.Hbond>
1.6174

> <Gold.Chemscore.Metal>
0.0000

> <Gold.Chemscore.Lipo>
111.0280

> <Gold.Chemscore.Internal_Hbond>
0.0000

> <Gold.Chemscore.DEClash>
0.1657

> <Gold.Chemscore.DEInternal>
0.7273

> <Gold.Chemscore.Rot>
2.5916

> <Gold.Chemscore.Internal.Correction>
   9.000000E+99

> <Gold.Chemscore.Hbonds>
donor molecule, donor type, donor heavy atom, donor atom, acceptor molecule, acceptor atom, score
      L1  H    14    37       P1  7949  0.52
      P1  H 10752 10764       L1    14  0.02

> <Gold.Chemscore.Hbond.Weighted>
-5.4023

> <Gold.Chemscore.Metal.Weighted>
-0.0000

> <Gold.Chemscore.Lipo.Weighted>
-12.9903

> <Gold.Chemscore.Internal_Hbond.Weighted>
0.0000

> <Gold.Chemscore.DEClash.Weighted>
0.1657

> <Gold.Chemscore.DEInternal.Weighted>
0.7273

> <Gold.Chemscore.Rot.Weighted>
6.6346

> <Gold.Chemscore.Internal.Correction.Weighted>
   9.000000E+99

> <Gold.Protein.RotatedTorsions>
[ 6907 6896 6895 6894 ] final  148.05 input  -60.11 | X-H torsion
[ 7974 7965 7964 7962 ] final  161.37 input  175.53 | X-H torsion
[ 8008 7997 7996 7995 ] final  150.81 input   59.86 | X-H torsion
[ 10167 10162 10161 10158 ] final  140.57 input  -65.29 | X-H torsion
[ 10718 10713 10712 10709 ] final  -12.56 input   66.30 | X-H torsion
[ 10763 10752 10751 10750 ] final  -72.65 input  -60.55 | X-H torsion
[ 11005 11000 10999 10996 ] final  -24.21 input  -57.11 | X-H torsion

> <Gold.Protein.ActiveResidues>
 VAL166  LYS551  ARG553  GLY616  TRP617  ASP618  TYR619  PRO620  LYS621  CYS622 
 ASP623  PHE694  ASN695  SER759  ASP760  ASP761  ALA762  ILE779  LEU786  VAL792 
 PHE793  MET794  SER795  GLU796  ALA797  LYS798  CYS799  TRP800  GLU811  SER814 

> <Gold.Protein.RotatedAtoms>
  152.1467  133.4496  159.4792 H   0  0  0  0  0  0  0  0  0  0  0  0  # atno 6907 bound_to 6896
  150.6891  134.2240  159.4417 H   0  0  0  0  0  0  0  0  0  0  0  0  # atno 6908 bound_to 6896
  152.0134  134.9863  160.0619 H   0  0  0  0  0  0  0  0  0  0  0  0  # atno 6909 bound_to 6896
  144.7689  139.7888  143.6304 H   0  0  0  0  0  0  0  0  0  0  0  0  # atno 7974 bound_to 7965
  156.2700  140.2065  156.6076 H   0  0  0  0  0  0  0  0  0  0  0  0  # atno 8008 bound_to 7997
  154.6857  140.0535  157.0335 H   0  0  0  0  0  0  0  0  0  0  0  0  # atno 8009 bound_to 7997
  155.0937  140.3199  155.4569 H   0  0  0  0  0  0  0  0  0  0  0  0  # atno 8010 bound_to 7997
  139.5045  144.6226  151.6015 H   0  0  0  0  0  0  0  0  0  0  0  0  # atno 10167 bound_to 10162
  156.6428  130.4933  149.6089 H   0  0  0  0  0  0  0  0  0  0  0  0  # atno 10718 bound_to 10713
  154.4486  135.5923  153.6176 H   0  0  0  0  0  0  0  0  0  0  0  0  # atno 10763 bound_to 10752
  152.9811  135.6015  154.3633 H   0  0  0  0  0  0  0  0  0  0  0  0  # atno 10764 bound_to 10752
  154.3491  135.2841  155.2360 H   0  0  0  0  0  0  0  0  0  0  0  0  # atno 10765 bound_to 10752
  140.8824  133.7644  156.0319 H   0  0  0  0  0  0  0  0  0  0  0  0  # atno 11005 bound_to 11000
  146.1820  139.5017  142.9860 LP  0  0  0  0  0  0  0  0  0  0  0  0  # atno 17320 bound_to 7965
  145.6384  141.0289  143.1825 LP  0  0  0  0  0  0  0  0  0  0  0  0  # atno 17321 bound_to 7965
  140.5933  143.9742  150.6338 LP  0  0  0  0  0  0  0  0  0  0  0  0  # atno 17342 bound_to 10162
  140.2929  143.3312  152.1045 LP  0  0  0  0  0  0  0  0  0  0  0  0  # atno 17343 bound_to 10162
  156.2145  130.6699  151.1305 LP  0  0  0  0  0  0  0  0  0  0  0  0  # atno 17370 bound_to 10713
  157.7165  131.0706  150.6304 LP  0  0  0  0  0  0  0  0  0  0  0  0  # atno 17371 bound_to 10713
  140.8445  134.3027  157.5300 LP  0  0  0  0  0  0  0  0  0  0  0  0  # atno 17394 bound_to 11000
  139.8721  134.9434  156.3852 LP  0  0  0  0  0  0  0  0  0  0  0  0  # atno 17395 bound_to 11000

$$$$
