AV-unprocessed.smi:1973|AV-procd|sdf|7977|dock1
  -GOLD-   2272010153D 1   1.00000     0.00000
 Structure written by MMmdl.
 48 50  0  0  0  0  0  0  0  0  2 V2000
  151.4623  143.6868  157.8760 C   0  0  0  0  0  0  0  0  0  0  0  0
  151.8954  142.3506  158.0604 O   0  0  0  0  0  0  0  0  0  0  0  0
  150.9233  141.4042  157.6505 C   0  0  0  0  0  0  0  0  0  0  0  0
  150.5442  141.6814  156.1882 C   0  0  0  0  0  0  0  0  0  0  0  0
  150.3731  140.4346  155.4361 N   0  0  0  0  0  0  0  0  0  0  0  0
  149.0576  140.1500  155.1106 N   0  0  0  0  0  0  0  0  0  0  0  0
  148.7675  139.0676  154.4638 C   0  0  0  0  0  0  0  0  0  0  0  0
  147.3638  138.7177  154.1101 C   0  0  0  0  0  0  0  0  0  0  0  0
  146.4009  139.2109  154.6996 O   0  0  0  0  0  0  0  0  0  0  0  0
  147.2258  137.8392  153.1006 N   0  0  0  0  0  0  0  0  0  0  0  0
  145.9534  137.3749  152.5595 C   0  0  0  0  0  0  0  0  0  0  0  0
  146.1333  136.1457  151.6486 C   0  0  1  0  0  0  0  0  0  0  0  0
  146.6031  134.8799  152.3660 C   0  0  0  0  0  0  0  0  0  0  0  0
  146.1569  133.7358  151.4471 C   0  0  0  0  0  0  0  0  0  0  0  0
  145.1250  134.2920  150.5405 N   0  3  1  0  0  0  0  0  0  0  0  0
  143.9190  133.4486  150.4003 C   0  0  0  0  0  0  0  0  0  0  0  0
  144.2231  131.9720  150.3135 C   0  0  0  0  0  0  0  0  0  0  0  0
  143.8292  132.7397  149.0701 C   0  0  0  0  0  0  0  0  0  0  0  0
  144.8448  135.6747  150.9773 C   0  0  0  0  0  0  0  0  0  0  0  0
  149.8101  138.1386  154.0617 C   0  0  0  0  0  0  0  0  0  0  0  0
  151.0881  138.4270  154.3923 C   0  0  0  0  0  0  0  0  0  0  0  0
  151.4424  139.6374  155.1353 C   0  0  0  0  0  0  0  0  0  0  0  0
  152.5957  139.9110  155.4658 O   0  0  0  0  0  0  0  0  0  0  0  0
  152.2406  144.3736  158.2082 H   0  0  0  0  0  0  0  0  0  0  0  0
  150.5612  143.8933  158.4549 H   0  0  0  0  0  0  0  0  0  0  0  0
  151.2581  143.8931  156.8246 H   0  0  0  0  0  0  0  0  0  0  0  0
  151.3202  140.3931  157.7551 H   0  0  0  0  0  0  0  0  0  0  0  0
  150.0401  141.4792  158.2872 H   0  0  0  0  0  0  0  0  0  0  0  0
  149.6196  142.2606  156.1568 H   0  0  0  0  0  0  0  0  0  0  0  0
  151.2988  142.3151  155.7192 H   0  0  0  0  0  0  0  0  0  0  0  0
  148.0660  137.4766  152.6725 H   0  0  0  0  0  0  0  0  0  0  0  0
  145.2991  137.1305  153.3969 H   0  0  0  0  0  0  0  0  0  0  0  0
  145.4647  138.1837  152.0136 H   0  0  0  0  0  0  0  0  0  0  0  0
  146.8534  136.3819  150.8629 H   0  0  0  0  0  0  0  0  0  0  0  0
  147.6780  134.8745  152.5507 H   0  0  0  0  0  0  0  0  0  0  0  0
  146.1004  134.7893  153.3300 H   0  0  0  0  0  0  0  0  0  0  0  0
  146.9894  133.3757  150.8419 H   0  0  0  0  0  0  0  0  0  0  0  0
  145.7842  132.8925  152.0308 H   0  0  0  0  0  0  0  0  0  0  0  0
  143.0189  133.7998  150.9021 H   0  0  0  0  0  0  0  0  0  0  0  0
  145.2604  131.6531  150.4004 H   0  0  0  0  0  0  0  0  0  0  0  0
  143.4891  131.2830  150.7267 H   0  0  0  0  0  0  0  0  0  0  0  0
  142.8361  132.5553  148.6651 H   0  0  0  0  0  0  0  0  0  0  0  0
  144.6046  132.9306  148.3303 H   0  0  0  0  0  0  0  0  0  0  0  0
  144.0263  135.6733  151.6996 H   0  0  0  0  0  0  0  0  0  0  0  0
  144.5531  136.3069  150.1379 H   0  0  0  0  0  0  0  0  0  0  0  0
  149.5778  137.2382  153.5122 H   0  0  0  0  0  0  0  0  0  0  0  0
  151.8735  137.7453  154.1001 H   0  0  0  0  0  0  0  0  0  0  0  0
  145.5568  134.3608  149.6299 H   0  0  0  0  0  0  0  0  0  0  0  0
  1  2  1  0  0  0  0
  1 24  1  0  0  0  0
  1 25  1  0  0  0  0
  1 26  1  0  0  0  0
  2  3  1  0  0  0  0
  3  4  1  0  0  0  0
  3 27  1  0  0  0  0
  3 28  1  0  0  0  0
  4  5  1  0  0  0  0
  4 29  1  0  0  0  0
  4 30  1  0  0  0  0
  5 22  1  0  0  0  0
  5  6  1  0  0  0  0
  6  7  2  0  0  0  0
  7  8  1  0  0  0  0
  7 20  1  0  0  0  0
  8  9  2  0  0  0  0
  8 10  1  0  0  0  0
 10 11  1  0  0  0  0
 10 31  1  0  0  0  0
 11 12  1  0  0  0  0
 11 32  1  0  0  0  0
 11 33  1  0  0  0  0
 12 19  1  0  0  0  0
 12 13  1  0  0  0  0
 12 34  1  0  0  0  0
 13 14  1  0  0  0  0
 13 35  1  0  0  0  0
 13 36  1  0  0  0  0
 14 15  1  0  0  0  0
 14 37  1  0  0  0  0
 14 38  1  0  0  0  0
 15 16  1  0  0  0  0
 15 19  1  0  0  0  0
 15 48  1  0  0  0  0
 16 18  1  0  0  0  0
 16 17  1  0  0  0  0
 16 39  1  0  0  0  0
 17 18  1  0  0  0  0
 17 40  1  0  0  0  0
 17 41  1  0  0  0  0
 18 42  1  0  0  0  0
 18 43  1  0  0  0  0
 19 44  1  0  0  0  0
 19 45  1  0  0  0  0
 20 21  2  0  0  0  0
 20 46  1  0  0  0  0
 21 22  1  0  0  0  0
 21 47  1  0  0  0  0
 22 23  2  0  0  0  0
M  CHG  1  15   1
M  END
> <s_m_source_file>
AV-unprocessed.smi

> <i_m_source_file_index>
1973

> <i_lp_mmshare_version>
43012

> <i_f3d_flags>
0

> <s_epik_input>
W0NIM11PW0NIMl1bQ0gyXW4xbmMoW2NIXVtjSF1jMT1PKUMoPU8pW05IXVtDSDJdW0NAQEhdMltDSDJdW0NIMl1OKFtDSDJdMilbQ0hdM1tDSDJdW0NIMl0z

> <s_epik_cmdline>
J2VwaWtfcHl0aG9uJywgJy1waCcsICc3LjAnLCAnLXRuJywgJzgnLCAnLW1hJywgJzIwMCcsICctbWV0YWxfYmluZGluZycsICctaW1hZScsICc8aW5maWxlLm1hZT4nLCAnLW9tYWUnLCAnPG91dGZpbGUubWFlPic=

> <r_lp_tautomer_probability>
1

> <r_epik_Ionization_Penalty>
0.000225706

> <r_epik_Ionization_Penalty_Charging>
0.000223776

> <r_epik_Ionization_Penalty_Neutral>
1.93004e-06

> <r_epik_State_Penalty>
-0

> <r_epik_Charging_Adjusted_Penalty>
0.000223776

> <i_epik_Tot_Q>
1

> <i_epik_Tot_abs_Q>
1

> <r_epik_Metal_State_Penalty>
-0

> <b_epik_Metal_Only>
0

> <s_lp_Force_Field>
OPLS_2005

> <r_lp_Energy>
57.2407

> <b_lp_Chiralities_Consistent>
1

> <s_lp_Variant>
AV-unprocessed.smi:1973-2

> <Gold.Version>
5.8.1

> <Gold.Id.Protein>
6NUR|6NUR_protein|mol2

> <Gold.PLP.Fitness>
46.2302

> <Gold.PLP.PLP>
-38.7324

> <Gold.PLP.part.hbond>
-2.9287

> <Gold.PLP.part.metal>
0.0000

> <Gold.PLP.part.buried>
5.1536

> <Gold.PLP.part.nonpolar>
-40.8013

> <Gold.PLP.part.repulsive>
0.3227

> <Gold.PLP.ligand.clash>
0.0000

> <Gold.PLP.ligand.torsion>
1.4929

> <Gold.PLP.Chemscore.Hbond>
3.0000

> <Gold.PLP.Chemscore.CHOScore>
0.0000

> <Gold.PLP.Chemscore.Metal>
0.0000

> <Gold.Chemscore.Hbonds>
donor molecule, donor type, donor heavy atom, donor atom, acceptor molecule, acceptor atom, score
      L1  H    10    31       P1  7948  1.00
      L1  H    15    48       P1  7921  0.76
      P1  H  7997  8008       L1    23  1.00

> <Gold.PLP.Chemscore.Internal.Correction>
1.4834

> <Gold.Rescore>
     Score         DG    S(hbond)    S(metal)    S(lipo)     H(rot)  DE(clash)    DE(int)     intcor
     17.14     -22.33       2.84        0.00     106.12       1.97       3.72       1.47       ----

> <Gold.Chemscore.Fitness>
17.1433

> <Gold.Chemscore.DG>
-22.3346

> <Gold.Chemscore.ZeroCoef>
-5.4800

> <Gold.Chemscore.Hbond>
2.8398

> <Gold.Chemscore.Metal>
0.0000

> <Gold.Chemscore.Lipo>
106.1166

> <Gold.Chemscore.Internal_Hbond>
0.0000

> <Gold.Chemscore.DEClash>
3.7171

> <Gold.Chemscore.DEInternal>
1.4742

> <Gold.Chemscore.Rot>
1.9711

> <Gold.Chemscore.Internal.Correction>
   9.000000E+99

> <Gold.Chemscore.Hbonds>
donor molecule, donor type, donor heavy atom, donor atom, acceptor molecule, acceptor atom, score
      L1  H    10    31       P1  7948  0.97
      L1  H    15    48       P1  7921  0.65
      P1  H  7997  8008       L1    23  1.00

> <Gold.Chemscore.Hbond.Weighted>
-9.4849

> <Gold.Chemscore.Metal.Weighted>
-0.0000

> <Gold.Chemscore.Lipo.Weighted>
-12.4156

> <Gold.Chemscore.Internal_Hbond.Weighted>
0.0000

> <Gold.Chemscore.DEClash.Weighted>
3.7171

> <Gold.Chemscore.DEInternal.Weighted>
1.4742

> <Gold.Chemscore.Rot.Weighted>
5.0460

> <Gold.Chemscore.Internal.Correction.Weighted>
   9.000000E+99

> <Gold.Protein.RotatedTorsions>
[ 6907 6896 6895 6894 ] final -137.86 input  -60.11 | X-H torsion
[ 7974 7965 7964 7962 ] final -142.25 input  175.53 | X-H torsion
[ 8008 7997 7996 7995 ] final  -20.34 input   59.86 | X-H torsion
[ 10167 10162 10161 10158 ] final -163.08 input  -65.29 | X-H torsion
[ 10718 10713 10712 10709 ] final -101.47 input   66.30 | X-H torsion
[ 10763 10752 10751 10750 ] final   73.92 input  -60.55 | X-H torsion
[ 11005 11000 10999 10996 ] final  -53.47 input  -57.11 | X-H torsion

> <Gold.Protein.ActiveResidues>
 VAL166  LYS551  ARG553  GLY616  TRP617  ASP618  TYR619  PRO620  LYS621  CYS622 
 ASP623  PHE694  ASN695  SER759  ASP760  ASP761  ALA762  ILE779  LEU786  VAL792 
 PHE793  MET794  SER795  GLU796  ALA797  LYS798  CYS799  TRP800  GLU811  SER814 

> <Gold.Protein.RotatedAtoms>
  151.0278  133.5818  159.2663 H   0  0  0  0  0  0  0  0  0  0  0  0  # atno 6907 bound_to 6896
  151.2911  135.0741  159.9214 H   0  0  0  0  0  0  0  0  0  0  0  0  # atno 6908 bound_to 6896
  152.5338  133.9976  159.7934 H   0  0  0  0  0  0  0  0  0  0  0  0  # atno 6909 bound_to 6896
  144.8458  140.5981  143.5422 H   0  0  0  0  0  0  0  0  0  0  0  0  # atno 7974 bound_to 7965
  154.4776  140.2064  155.9840 H   0  0  0  0  0  0  0  0  0  0  0  0  # atno 8008 bound_to 7997
  156.1115  140.3228  155.8049 H   0  0  0  0  0  0  0  0  0  0  0  0  # atno 8009 bound_to 7997
  155.4627  140.0525  157.2980 H   0  0  0  0  0  0  0  0  0  0  0  0  # atno 8010 bound_to 7997
  139.6346  144.0375  152.2043 H   0  0  0  0  0  0  0  0  0  0  0  0  # atno 10167 bound_to 10162
  156.0196  130.5375  150.6967 H   0  0  0  0  0  0  0  0  0  0  0  0  # atno 10718 bound_to 10713
  153.0552  135.5045  154.7965 H   0  0  0  0  0  0  0  0  0  0  0  0  # atno 10763 bound_to 10752
  154.6796  135.2966  154.9634 H   0  0  0  0  0  0  0  0  0  0  0  0  # atno 10764 bound_to 10752
  154.0424  135.6715  153.4844 H   0  0  0  0  0  0  0  0  0  0  0  0  # atno 10765 bound_to 10752
  141.0978  133.6622  156.4177 H   0  0  0  0  0  0  0  0  0  0  0  0  # atno 11005 bound_to 11000
  145.4600  139.1514  143.3871 LP  0  0  0  0  0  0  0  0  0  0  0  0  # atno 17320 bound_to 7965
  146.2742  140.4730  142.8802 LP  0  0  0  0  0  0  0  0  0  0  0  0  # atno 17321 bound_to 7965
  140.0049  144.6266  150.7698 LP  0  0  0  0  0  0  0  0  0  0  0  0  # atno 17342 bound_to 10162
  140.7458  143.2881  151.3407 LP  0  0  0  0  0  0  0  0  0  0  0  0  # atno 17343 bound_to 10162
  157.4636  131.0886  151.0718 LP  0  0  0  0  0  0  0  0  0  0  0  0  # atno 17370 bound_to 10713
  157.1199  130.6057  149.5502 LP  0  0  0  0  0  0  0  0  0  0  0  0  # atno 17371 bound_to 10713
  140.5098  134.6406  157.5280 LP  0  0  0  0  0  0  0  0  0  0  0  0  # atno 17394 bound_to 11000
  139.9819  134.7123  155.9843 LP  0  0  0  0  0  0  0  0  0  0  0  0  # atno 17395 bound_to 11000

$$$$
