AV-unprocessed.smi:1732|AV-procd|sdf|6977|dock4
  -GOLD-   22720 8193D 1   1.00000     0.00000
 Structure written by MMmdl.
 35 36  0  0  0  0  0  0  0  0  2 V2000
  155.0856  140.7627  161.4487 O   0  0  0  0  0  0  0  0  0  0  0  0
  154.4403  140.5519  160.4224 C   0  0  0  0  0  0  0  0  0  0  0  0
  154.0346  141.7301  159.5412 C   0  0  0  0  0  0  0  0  0  0  0  0
  152.7267  142.1387  159.9119 O   0  0  0  0  0  0  0  0  0  0  0  0
  152.4279  143.4821  159.5624 C   0  0  0  0  0  0  0  0  0  0  0  0
  152.3451  144.3535  160.8147 C   0  0  0  0  0  0  0  0  0  0  0  0
  151.4952  145.5597  160.4002 C   0  0  0  0  0  0  0  0  0  0  0  0
  150.6524  145.1002  159.1997 C   0  0  0  0  0  0  0  0  0  0  0  0
  151.0417  143.6419  158.9321 C   0  0  0  0  0  0  0  0  0  0  0  0
  154.0617  139.3400  159.9715 N   0  0  0  0  0  0  0  0  0  0  0  0
  154.2535  138.0743  160.5510 C   0  0  0  0  0  0  0  0  0  0  0  0
  154.5396  137.8594  161.8650 C   0  0  0  0  0  0  0  0  0  0  0  0
  154.7119  136.5214  162.4171 C   0  0  0  0  0  0  0  0  0  0  0  0
  155.1201  136.2451  163.8533 C   0  0  0  0  0  0  0  0  0  0  0  0
  155.2524  134.9360  164.0680 F   0  0  0  0  0  0  0  0  0  0  0  0
  156.2772  136.8388  164.1464 F   0  0  0  0  0  0  0  0  0  0  0  0
  154.1905  136.7100  164.6867 F   0  0  0  0  0  0  0  0  0  0  0  0
  154.5610  135.5362  161.4608 C   0  0  0  0  0  0  0  0  0  0  0  0
  154.2525  135.6616  160.1513 N   0  5  0  0  0  0  0  0  0  0  0  0
  154.0893  136.9173  159.6465 C   0  0  0  0  0  0  0  0  0  0  0  0
  153.8100  137.1042  158.4616 O   0  0  0  0  0  0  0  0  0  0  0  0
  154.7412  142.5511  159.6738 H   0  0  0  0  0  0  0  0  0  0  0  0
  154.0711  141.4278  158.4937 H   0  0  0  0  0  0  0  0  0  0  0  0
  153.1930  143.8904  158.8990 H   0  0  0  0  0  0  0  0  0  0  0  0
  151.8337  143.8077  161.6091 H   0  0  0  0  0  0  0  0  0  0  0  0
  153.3274  144.6406  161.1913 H   0  0  0  0  0  0  0  0  0  0  0  0
  150.8744  145.9109  161.2251 H   0  0  0  0  0  0  0  0  0  0  0  0
  152.1398  146.3876  160.1022 H   0  0  0  0  0  0  0  0  0  0  0  0
  149.5834  145.1957  159.3919 H   0  0  0  0  0  0  0  0  0  0  0  0
  150.8831  145.7168  158.3302 H   0  0  0  0  0  0  0  0  0  0  0  0
  151.0289  143.3953  157.8701 H   0  0  0  0  0  0  0  0  0  0  0  0
  150.3338  142.9804  159.4337 H   0  0  0  0  0  0  0  0  0  0  0  0
  153.6065  139.3205  159.0703 H   0  0  0  0  0  0  0  0  0  0  0  0
  154.6260  138.6849  162.5522 H   0  0  0  0  0  0  0  0  0  0  0  0
  154.7132  134.4890  161.7997 H   0  0  0  0  0  0  0  0  0  0  0  0
  1  2  2  0  0  0  0
  2  3  1  0  0  0  0
  2 10  1  0  0  0  0
  3  4  1  0  0  0  0
  3 22  1  0  0  0  0
  3 23  1  0  0  0  0
  4  5  1  0  0  0  0
  5  9  1  0  0  0  0
  5  6  1  0  0  0  0
  5 24  1  0  0  0  0
  6  7  1  0  0  0  0
  6 25  1  0  0  0  0
  6 26  1  0  0  0  0
  7  8  1  0  0  0  0
  7 27  1  0  0  0  0
  7 28  1  0  0  0  0
  8  9  1  0  0  0  0
  8 29  1  0  0  0  0
  8 30  1  0  0  0  0
  9 31  1  0  0  0  0
  9 32  1  0  0  0  0
 10 11  1  0  0  0  0
 10 33  1  0  0  0  0
 11 20  1  0  0  0  0
 11 12  2  0  0  0  0
 12 13  1  0  0  0  0
 12 34  1  0  0  0  0
 13 14  1  0  0  0  0
 13 18  2  0  0  0  0
 14 15  1  0  0  0  0
 14 16  1  0  0  0  0
 14 17  1  0  0  0  0
 18 19  1  0  0  0  0
 18 35  1  0  0  0  0
 19 20  1  0  0  0  0
 20 21  2  0  0  0  0
M  CHG  1  19  -1
M  END
> <s_m_source_file>
AV-unprocessed.smi

> <i_m_source_file_index>
1732

> <i_lp_mmshare_version>
43012

> <i_f3d_flags>
0

> <s_epik_input>
W0NIMl0xW0NIMl1bQ0gyXVtDSDJdW0NIXTFPW0NIMl1DKD1PKVtOSF1jMltjSF1jKEMoRikoRilGKVtjSF1bbkhdYzI9Tw==

> <s_epik_cmdline>
J2VwaWtfcHl0aG9uJywgJy1waCcsICc3LjAnLCAnLXRuJywgJzgnLCAnLW1hJywgJzIwMCcsICctbWV0YWxfYmluZGluZycsICctaW1hZScsICc8aW5maWxlLm1hZT4nLCAnLW9tYWUnLCAnPG91dGZpbGUubWFlPic=

> <r_epik_Ionization_Penalty>
2.40879

> <r_epik_Ionization_Penalty_Charging>
0.039975

> <r_epik_Ionization_Penalty_Neutral>
2.36882

> <r_epik_State_Penalty>
2.52443

> <r_epik_Charging_Adjusted_Penalty>
2.5644

> <i_epik_Tot_Q>
-1

> <i_epik_Tot_abs_Q>
1

> <r_epik_Metal_State_Penalty>
0.506326

> <b_epik_Metal_Only>
0

> <s_lp_Force_Field>
OPLS_2005

> <r_lp_Energy>
39.1091

> <b_lp_Chiralities_Consistent>
1

> <s_lp_Variant>
AV-unprocessed.smi:1732-2

> <Gold.Version>
5.8.1

> <Gold.Id.Protein>
6NUR|6NUR_protein|mol2

> <Gold.PLP.Fitness>
46.5792

> <Gold.PLP.PLP>
-42.9882

> <Gold.PLP.part.hbond>
-2.0000

> <Gold.PLP.part.metal>
0.0000

> <Gold.PLP.part.buried>
-5.2997

> <Gold.PLP.part.nonpolar>
-36.5784

> <Gold.PLP.part.repulsive>
0.0595

> <Gold.PLP.ligand.clash>
0.0000

> <Gold.PLP.ligand.torsion>
1.2391

> <Gold.PLP.Chemscore.Hbond>
2.0000

> <Gold.PLP.Chemscore.CHOScore>
0.0000

> <Gold.PLP.Chemscore.Metal>
0.0000

> <Gold.Chemscore.Hbonds>
donor molecule, donor type, donor heavy atom, donor atom, acceptor molecule, acceptor atom, score
      P1  H  6896  6908       L1    19  1.82

> <Gold.PLP.Chemscore.Internal.Correction>
0.0693

> <Gold.Rescore>
     Score         DG    S(hbond)    S(metal)    S(lipo)     H(rot)  DE(clash)    DE(int)     intcor
     11.91     -14.72       0.42        0.00     101.44       1.58       0.45       2.36       ----

> <Gold.Chemscore.Fitness>
11.9102

> <Gold.Chemscore.DG>
-14.7156

> <Gold.Chemscore.ZeroCoef>
-5.4800

> <Gold.Chemscore.Hbond>
0.4213

> <Gold.Chemscore.Metal>
0.0000

> <Gold.Chemscore.Lipo>
101.4386

> <Gold.Chemscore.Internal_Hbond>
0.0000

> <Gold.Chemscore.DEClash>
0.4483

> <Gold.Chemscore.DEInternal>
2.3571

> <Gold.Chemscore.Rot>
1.5781

> <Gold.Chemscore.Internal.Correction>
   9.000000E+99

> <Gold.Chemscore.Hbonds>
donor molecule, donor type, donor heavy atom, donor atom, acceptor molecule, acceptor atom, score
      P1  H  6896  6908       L1    19  0.19

> <Gold.Chemscore.Hbond.Weighted>
-1.4072

> <Gold.Chemscore.Metal.Weighted>
-0.0000

> <Gold.Chemscore.Lipo.Weighted>
-11.8683

> <Gold.Chemscore.Internal_Hbond.Weighted>
0.0000

> <Gold.Chemscore.DEClash.Weighted>
0.4483

> <Gold.Chemscore.DEInternal.Weighted>
2.3571

> <Gold.Chemscore.Rot.Weighted>
4.0399

> <Gold.Chemscore.Internal.Correction.Weighted>
   9.000000E+99

> <Gold.Protein.RotatedTorsions>
[ 6907 6896 6895 6894 ] final  -66.00 input  -60.11 | X-H torsion
[ 7974 7965 7964 7962 ] final -172.00 input  175.53 | X-H torsion
[ 8008 7997 7996 7995 ] final  136.57 input   59.86 | X-H torsion
[ 10167 10162 10161 10158 ] final  -57.17 input  -65.29 | X-H torsion
[ 10718 10713 10712 10709 ] final   -7.83 input   66.30 | X-H torsion
[ 10763 10752 10751 10750 ] final   24.65 input  -60.55 | X-H torsion
[ 11005 11000 10999 10996 ] final -115.59 input  -57.11 | X-H torsion

> <Gold.Protein.ActiveResidues>
 VAL166  LYS551  ARG553  GLY616  TRP617  ASP618  TYR619  PRO620  LYS621  CYS622 
 ASP623  PHE694  ASN695  SER759  ASP760  ASP761  ALA762  ILE779  LEU786  VAL792 
 PHE793  MET794  SER795  GLU796  ALA797  LYS798  CYS799  TRP800  GLU811  SER814 

> <Gold.Protein.RotatedAtoms>
  150.7491  134.6082  159.6071 H   0  0  0  0  0  0  0  0  0  0  0  0  # atno 6907 bound_to 6896
  152.3424  134.7114  160.0269 H   0  0  0  0  0  0  0  0  0  0  0  0  # atno 6908 bound_to 6896
  151.7562  133.3294  159.3441 H   0  0  0  0  0  0  0  0  0  0  0  0  # atno 6909 bound_to 6896
  144.7151  140.1837  143.6355 H   0  0  0  0  0  0  0  0  0  0  0  0  # atno 7974 bound_to 7965
  156.3004  140.2441  156.3768 H   0  0  0  0  0  0  0  0  0  0  0  0  # atno 8008 bound_to 7997
  154.8738  140.0415  157.1760 H   0  0  0  0  0  0  0  0  0  0  0  0  # atno 8009 bound_to 7997
  154.8767  140.2943  155.5453 H   0  0  0  0  0  0  0  0  0  0  0  0  # atno 8010 bound_to 7997
  140.6274  143.2444  151.5329 H   0  0  0  0  0  0  0  0  0  0  0  0  # atno 10167 bound_to 10162
  156.7115  130.5123  149.5891 H   0  0  0  0  0  0  0  0  0  0  0  0  # atno 10718 bound_to 10713
  153.0749  135.6600  154.0168 H   0  0  0  0  0  0  0  0  0  0  0  0  # atno 10763 bound_to 10752
  153.9805  135.2955  155.3422 H   0  0  0  0  0  0  0  0  0  0  0  0  # atno 10764 bound_to 10752
  154.7134  135.5195  153.8771 H   0  0  0  0  0  0  0  0  0  0  0  0  # atno 10765 bound_to 10752
  141.0478  133.9735  157.2888 H   0  0  0  0  0  0  0  0  0  0  0  0  # atno 11005 bound_to 11000
  145.8832  139.2334  143.1593 LP  0  0  0  0  0  0  0  0  0  0  0  0  # atno 17320 bound_to 7965
  145.9974  140.8550  143.0035 LP  0  0  0  0  0  0  0  0  0  0  0  0  # atno 17321 bound_to 7965
  139.5492  144.2440  152.1499 LP  0  0  0  0  0  0  0  0  0  0  0  0  # atno 17342 bound_to 10162
  140.1675  144.4968  150.6598 LP  0  0  0  0  0  0  0  0  0  0  0  0  # atno 17343 bound_to 10162
  156.1658  130.6404  151.0776 LP  0  0  0  0  0  0  0  0  0  0  0  0  # atno 17370 bound_to 10713
  157.6934  131.0802  150.7040 LP  0  0  0  0  0  0  0  0  0  0  0  0  # atno 17371 bound_to 10713
  139.9325  135.0199  156.8449 LP  0  0  0  0  0  0  0  0  0  0  0  0  # atno 17394 bound_to 11000
  140.6114  134.0079  155.7578 LP  0  0  0  0  0  0  0  0  0  0  0  0  # atno 17395 bound_to 11000

$$$$
