AV-unprocessed.smi:83|AV-procd|sdf|807|dock9
  -GOLD-   2262017203D 1   1.00000     0.00000
 Structure written by MMmdl.
 56 59  0  0  0  0  0  0  0  0  1 V2000
  151.7705  145.2938  160.2025 C   0  0  0  0  0  0  0  0  0  0  0  0
  151.4979  144.2965  159.0751 C   0  0  0  0  0  0  0  0  0  0  0  0
  150.8842  144.6754  158.0776 O   0  0  0  0  0  0  0  0  0  0  0  0
  151.9399  143.0307  159.2179 N   0  0  0  0  0  0  0  0  0  0  0  0
  152.6863  142.5098  160.3620 C   0  0  0  0  0  0  0  0  0  0  0  0
  153.1195  141.0987  159.9593 C   0  0  0  0  0  0  0  0  0  0  0  0
  152.0751  140.6677  158.9349 C   0  0  2  0  0  0  0  0  0  0  0  0
  152.5418  139.5303  158.0044 C   0  0  0  0  0  0  0  0  0  0  0  0
  151.8109  138.2811  158.2260 N   0  0  0  0  0  0  0  0  0  0  0  0
  152.0816  137.5326  159.4466 C   0  0  0  0  0  0  0  0  0  0  0  0
  150.6387  138.0819  157.5632 C   0  0  0  0  0  0  0  0  0  0  0  0
  149.7390  137.2213  158.1093 N   0  0  0  0  0  0  0  0  0  0  0  0
  148.5768  136.9706  157.5013 C   0  0  0  0  0  0  0  0  0  0  0  0
  148.1154  137.4623  156.3514 N   0  0  0  0  0  0  0  0  0  0  0  0
  149.0097  138.3254  155.7921 C   0  0  0  0  0  0  0  0  0  0  0  0
  150.2798  138.6949  156.3236 C   0  0  0  0  0  0  0  0  0  0  0  0
  150.9002  139.5888  155.4555 N   0  0  0  0  0  0  0  0  0  0  0  0
  150.0484  139.7424  154.4794 C   0  0  0  0  0  0  0  0  0  0  0  0
  148.8869  139.0172  154.6011 N   0  0  0  0  0  0  0  0  0  0  0  0
  147.7756  138.9868  153.6676 C   0  0  0  0  0  0  0  0  0  0  0  0
  146.4774  139.5422  154.2829 C   0  0  1  0  0  0  0  0  0  0  0  0
  146.0526  138.7321  155.3635 O   0  0  0  0  0  0  0  0  0  0  0  0
  146.6099  141.0135  154.7244 C   0  0  1  0  0  0  0  0  0  0  0  0
  146.9933  142.0246  153.6305 C   0  0  0  0  0  0  0  0  0  0  0  0
  146.0146  143.1715  153.8340 C   0  0  0  0  0  0  0  0  0  0  0  0
  145.4446  142.9146  155.2246 C   0  0  0  0  0  0  0  0  0  0  0  0
  145.4015  141.4996  155.2957 O   0  0  0  0  0  0  0  0  0  0  0  0
  151.7265  141.9815  158.2257 C   0  0  0  0  0  0  0  0  0  0  0  0
  151.3720  144.9271  161.1488 H   0  0  0  0  0  0  0  0  0  0  0  0
  151.2982  146.2534  159.9895 H   0  0  0  0  0  0  0  0  0  0  0  0
  152.8415  145.4639  160.3150 H   0  0  0  0  0  0  0  0  0  0  0  0
  153.5490  143.1295  160.6099 H   0  0  0  0  0  0  0  0  0  0  0  0
  152.0288  142.4730  161.2317 H   0  0  0  0  0  0  0  0  0  0  0  0
  154.1046  141.1398  159.4920 H   0  0  0  0  0  0  0  0  0  0  0  0
  153.1822  140.4194  160.8100 H   0  0  0  0  0  0  0  0  0  0  0  0
  151.1946  140.3379  159.4890 H   0  0  0  0  0  0  0  0  0  0  0  0
  152.4880  139.8479  156.9630 H   0  0  0  0  0  0  0  0  0  0  0  0
  153.5983  139.3336  158.1894 H   0  0  0  0  0  0  0  0  0  0  0  0
  151.8214  136.4805  159.3259 H   0  0  0  0  0  0  0  0  0  0  0  0
  151.5178  137.9416  160.2854 H   0  0  0  0  0  0  0  0  0  0  0  0
  153.1412  137.5830  159.6976 H   0  0  0  0  0  0  0  0  0  0  0  0
  147.9246  136.2747  158.0079 H   0  0  0  0  0  0  0  0  0  0  0  0
  150.2454  140.3916  153.6384 H   0  0  0  0  0  0  0  0  0  0  0  0
  148.0526  139.5537  152.7775 H   0  0  0  0  0  0  0  0  0  0  0  0
  147.6300  137.9545  153.3473 H   0  0  0  0  0  0  0  0  0  0  0  0
  145.6897  139.4926  153.5302 H   0  0  0  0  0  0  0  0  0  0  0  0
  146.4380  137.8751  155.2647 H   0  0  0  0  0  0  0  0  0  0  0  0
  147.3642  141.0681  155.5115 H   0  0  0  0  0  0  0  0  0  0  0  0
  148.0231  142.3567  153.7684 H   0  0  0  0  0  0  0  0  0  0  0  0
  146.9130  141.6224  152.6205 H   0  0  0  0  0  0  0  0  0  0  0  0
  146.4812  144.1529  153.7434 H   0  0  0  0  0  0  0  0  0  0  0  0
  145.2158  143.1080  153.0939 H   0  0  0  0  0  0  0  0  0  0  0  0
  146.1109  143.3004  155.9981 H   0  0  0  0  0  0  0  0  0  0  0  0
  144.4581  143.3565  155.3656 H   0  0  0  0  0  0  0  0  0  0  0  0
  150.7003  141.9699  157.8541 H   0  0  0  0  0  0  0  0  0  0  0  0
  152.3921  142.1618  157.3802 H   0  0  0  0  0  0  0  0  0  0  0  0
  1  2  1  0  0  0  0
  1 29  1  0  0  0  0
  1 30  1  0  0  0  0
  1 31  1  0  0  0  0
  2  3  2  0  0  0  0
  2  4  1  0  0  0  0
  4 28  1  0  0  0  0
  4  5  1  0  0  0  0
  5  6  1  0  0  0  0
  5 32  1  0  0  0  0
  5 33  1  0  0  0  0
  6  7  1  0  0  0  0
  6 34  1  0  0  0  0
  6 35  1  0  0  0  0
  7  8  1  0  0  0  0
  7 28  1  0  0  0  0
  7 36  1  0  0  0  0
  8  9  1  0  0  0  0
  8 37  1  0  0  0  0
  8 38  1  0  0  0  0
  9 10  1  0  0  0  0
  9 11  1  0  0  0  0
 10 39  1  0  0  0  0
 10 40  1  0  0  0  0
 10 41  1  0  0  0  0
 11 16  1  0  0  0  0
 11 12  2  0  0  0  0
 12 13  1  0  0  0  0
 13 14  2  0  0  0  0
 13 42  1  0  0  0  0
 14 15  1  0  0  0  0
 15 19  1  0  0  0  0
 15 16  2  0  0  0  0
 16 17  1  0  0  0  0
 17 18  2  0  0  0  0
 18 19  1  0  0  0  0
 18 43  1  0  0  0  0
 19 20  1  0  0  0  0
 20 21  1  0  0  0  0
 20 44  1  0  0  0  0
 20 45  1  0  0  0  0
 21 22  1  0  0  0  0
 21 23  1  0  0  0  0
 21 46  1  0  0  0  0
 22 47  1  0  0  0  0
 23 27  1  0  0  0  0
 23 24  1  0  0  0  0
 23 48  1  0  0  0  0
 24 25  1  0  0  0  0
 24 49  1  0  0  0  0
 24 50  1  0  0  0  0
 25 26  1  0  0  0  0
 25 51  1  0  0  0  0
 25 52  1  0  0  0  0
 26 27  1  0  0  0  0
 26 53  1  0  0  0  0
 26 54  1  0  0  0  0
 28 55  1  0  0  0  0
 28 56  1  0  0  0  0
M  END
> <s_m_source_file>
AV-unprocessed.smi

> <i_m_source_file_index>
83

> <i_lp_mmshare_version>
43012

> <i_f3d_flags>
0

> <s_epik_input>
W0NIM11DKD1PKU4xW0NIMl1bQ0gyXVtDQEhdKFtDSDJdMSlbQ0gyXU4oW0NIM10pYyhuW2NIXW4yKWMoYzIzKW5bY0hdbjNbQ0gyXVtDQEhdKFtPSF0pW0NAQEhdNFtDSDJdW0NIMl1bQ0gyXU80

> <s_epik_cmdline>
J2VwaWtfcHl0aG9uJywgJy1waCcsICc3LjAnLCAnLXRuJywgJzgnLCAnLW1hJywgJzIwMCcsICctbWV0YWxfYmluZGluZycsICctaW1hZScsICc8aW5maWxlLm1hZT4nLCAnLW9tYWUnLCAnPG91dGZpbGUubWFlPic=

> <r_lp_tautomer_probability>
1

> <r_epik_Ionization_Penalty>
0.00109752

> <r_epik_Ionization_Penalty_Charging>
0

> <r_epik_Ionization_Penalty_Neutral>
0.00109752

> <r_epik_State_Penalty>
0.000634803

> <r_epik_Charging_Adjusted_Penalty>
0.000634803

> <i_epik_Tot_Q>
0

> <i_epik_Tot_abs_Q>
0

> <r_epik_Metal_State_Penalty>
-0

> <b_epik_Metal_Only>
0

> <s_lp_Force_Field>
OPLS_2005

> <r_lp_Energy>
54.4429

> <b_lp_Chiralities_Consistent>
1

> <s_lp_Variant>
AV-unprocessed.smi:83-8

> <Gold.Version>
5.8.1

> <Gold.Id.Protein>
6NUR|6NUR_protein|mol2

> <Gold.PLP.Fitness>
46.3102

> <Gold.PLP.PLP>
-45.6392

> <Gold.PLP.part.hbond>
0.0000

> <Gold.PLP.part.metal>
0.0000

> <Gold.PLP.part.buried>
-6.8284

> <Gold.PLP.part.nonpolar>
-38.6755

> <Gold.PLP.part.repulsive>
0.4800

> <Gold.PLP.ligand.clash>
0.0000

> <Gold.PLP.ligand.torsion>
1.1227

> <Gold.PLP.Chemscore.Hbond>
0.0000

> <Gold.PLP.Chemscore.CHOScore>
0.8050

> <Gold.PLP.Chemscore.Metal>
0.0000

> <Gold.Chemscore.Hbonds>
donor molecule, donor type, donor heavy atom, donor atom, acceptor molecule, acceptor atom, score
      L1  C    18    43       P1  7957  0.87

> <Gold.PLP.Chemscore.Internal.Correction>
0.5013

> <Gold.Rescore>
     Score         DG    S(hbond)    S(metal)    S(lipo)     H(rot)  DE(clash)    DE(int)     intcor
      6.82      -9.88       0.00        0.00      94.82       2.62       0.04       3.03       ----

> <Gold.Chemscore.Fitness>
6.8171

> <Gold.Chemscore.DG>
-9.8793

> <Gold.Chemscore.ZeroCoef>
-5.4800

> <Gold.Chemscore.Hbond>
0.0000

> <Gold.Chemscore.Metal>
0.0000

> <Gold.Chemscore.Lipo>
94.8219

> <Gold.Chemscore.Internal_Hbond>
0.0000

> <Gold.Chemscore.DEClash>
0.0363

> <Gold.Chemscore.DEInternal>
3.0259

> <Gold.Chemscore.Rot>
2.6152

> <Gold.Chemscore.Internal.Correction>
   9.000000E+99

> <Gold.Chemscore.Hbond.Weighted>
-0.0000

> <Gold.Chemscore.Metal.Weighted>
-0.0000

> <Gold.Chemscore.Lipo.Weighted>
-11.0942

> <Gold.Chemscore.Internal_Hbond.Weighted>
0.0000

> <Gold.Chemscore.DEClash.Weighted>
0.0363

> <Gold.Chemscore.DEInternal.Weighted>
3.0259

> <Gold.Chemscore.Rot.Weighted>
6.6949

> <Gold.Chemscore.Internal.Correction.Weighted>
   9.000000E+99

> <Gold.Protein.RotatedTorsions>
[ 6907 6896 6895 6894 ] final  171.86 input  -60.11 | X-H torsion
[ 7974 7965 7964 7962 ] final  131.18 input  175.53 | X-H torsion
[ 8008 7997 7996 7995 ] final   48.75 input   59.86 | X-H torsion
[ 10167 10162 10161 10158 ] final  159.56 input  -65.29 | X-H torsion
[ 10718 10713 10712 10709 ] final -122.73 input   66.30 | X-H torsion
[ 10763 10752 10751 10750 ] final   62.39 input  -60.55 | X-H torsion
[ 11005 11000 10999 10996 ] final -149.29 input  -57.11 | X-H torsion

> <Gold.Protein.ActiveResidues>
 VAL166  LYS551  ARG553  GLY616  TRP617  ASP618  TYR619  PRO620  LYS621  CYS622 
 ASP623  PHE694  ASN695  SER759  ASP760  ASP761  ALA762  ILE779  LEU786  VAL792 
 PHE793  MET794  SER795  GLU796  ALA797  LYS798  CYS799  TRP800  GLU811  SER814 

> <Gold.Protein.RotatedAtoms>
  151.7935  133.3362  159.3505 H   0  0  0  0  0  0  0  0  0  0  0  0  # atno 6907 bound_to 6896
  150.7383  134.5821  159.5953 H   0  0  0  0  0  0  0  0  0  0  0  0  # atno 6908 bound_to 6896
  152.3194  134.7401  160.0369 H   0  0  0  0  0  0  0  0  0  0  0  0  # atno 6909 bound_to 6896
  145.0100  139.4229  143.5249 H   0  0  0  0  0  0  0  0  0  0  0  0  # atno 7974 bound_to 7965
  155.3908  140.3433  155.4251 H   0  0  0  0  0  0  0  0  0  0  0  0  # atno 8008 bound_to 7997
  156.1558  140.1585  156.8727 H   0  0  0  0  0  0  0  0  0  0  0  0  # atno 8009 bound_to 7997
  154.5094  140.0794  156.7941 H   0  0  0  0  0  0  0  0  0  0  0  0  # atno 8010 bound_to 7997
  139.4833  144.4718  151.8566 H   0  0  0  0  0  0  0  0  0  0  0  0  # atno 10167 bound_to 10162
  156.1442  130.6488  150.9818 H   0  0  0  0  0  0  0  0  0  0  0  0  # atno 10718 bound_to 10713
  152.9981  135.5467  154.6185 H   0  0  0  0  0  0  0  0  0  0  0  0  # atno 10763 bound_to 10752
  154.5490  135.2825  155.1028 H   0  0  0  0  0  0  0  0  0  0  0  0  # atno 10764 bound_to 10752
  154.2276  135.6439  153.5217 H   0  0  0  0  0  0  0  0  0  0  0  0  # atno 10765 bound_to 10752
  140.7523  134.3393  157.5123 H   0  0  0  0  0  0  0  0  0  0  0  0  # atno 11005 bound_to 11000
  146.3468  139.9538  142.8725 LP  0  0  0  0  0  0  0  0  0  0  0  0  # atno 17320 bound_to 7965
  145.2036  140.9865  143.4141 LP  0  0  0  0  0  0  0  0  0  0  0  0  # atno 17321 bound_to 7965
  140.4187  144.2272  150.5887 LP  0  0  0  0  0  0  0  0  0  0  0  0  # atno 17342 bound_to 10162
  140.4895  143.2352  151.8839 LP  0  0  0  0  0  0  0  0  0  0  0  0  # atno 17343 bound_to 10162
  157.6602  131.0882  150.7855 LP  0  0  0  0  0  0  0  0  0  0  0  0  # atno 17370 bound_to 10713
  156.7928  130.4895  149.5382 LP  0  0  0  0  0  0  0  0  0  0  0  0  # atno 17371 bound_to 10713
  139.8785  134.9150  156.3120 LP  0  0  0  0  0  0  0  0  0  0  0  0  # atno 17394 bound_to 11000
  140.9739  133.7309  156.0575 LP  0  0  0  0  0  0  0  0  0  0  0  0  # atno 17395 bound_to 11000

$$$$
