AV-unprocessed.smi:3237|AV-procd|sdf|12372|dock7
  -GOLD-   2272018233D 1   1.00000     0.00000
 Structure written by MMmdl.
 36 38  0  0  0  0  0  0  0  0  3 V2000
  151.5110  140.7298  156.7281 C   0  0  0  0  0  0  0  0  0  0  0  0
  151.6769  139.4588  155.9681 C   0  0  0  0  0  0  0  0  0  0  0  0
  150.8188  138.4416  155.6579 C   0  0  0  0  0  0  0  0  0  0  0  0
  151.6362  137.5465  154.9172 C   0  0  0  0  0  0  0  0  0  0  0  0
  151.1026  136.3344  154.4051 N   0  0  0  0  0  0  0  0  0  0  0  0
  150.2293  135.4886  154.9816 C   0  0  0  0  0  0  0  0  0  0  0  0
  149.7882  135.7199  156.1135 O   0  0  0  0  0  0  0  0  0  0  0  0
  149.9399  134.4232  154.1840 N   0  5  0  0  0  0  0  0  0  0  0  0
  148.8958  133.4289  154.4604 C   0  0  1  0  0  0  0  0  0  0  0  0
  147.6678  134.1196  155.0648 C   0  0  0  0  0  0  0  0  0  0  0  0
  146.7868  134.5174  153.8691 C   0  0  0  0  0  0  0  0  0  0  0  0
  147.3765  133.8726  152.6746 N   0  3  2  0  0  0  0  0  0  0  0  0
  146.3883  133.3656  151.6991 C   0  0  0  0  0  0  0  0  0  0  0  0
  145.2313  134.3077  151.4685 C   0  0  0  0  0  0  0  0  0  0  0  0
  145.0406  133.0630  152.3086 C   0  0  0  0  0  0  0  0  0  0  0  0
  148.3353  132.8591  153.1534 C   0  0  0  0  0  0  0  0  0  0  0  0
  152.8803  137.9823  154.7835 N   0  0  0  0  0  0  0  0  0  0  0  0
  152.9128  139.2095  155.4564 O   0  0  0  0  0  0  0  0  0  0  0  0
  150.5321  140.7732  157.2059 H   0  0  0  0  0  0  0  0  0  0  0  0
  151.6030  141.5904  156.0656 H   0  0  0  0  0  0  0  0  0  0  0  0
  152.2700  140.8172  157.5056 H   0  0  0  0  0  0  0  0  0  0  0  0
  149.7754  138.3522  155.9217 H   0  0  0  0  0  0  0  0  0  0  0  0
  151.4106  136.0810  153.4781 H   0  0  0  0  0  0  0  0  0  0  0  0
  149.2492  132.6314  155.1152 H   0  0  0  0  0  0  0  0  0  0  0  0
  147.1252  133.4056  155.6856 H   0  0  0  0  0  0  0  0  0  0  0  0
  147.9190  134.9687  155.7024 H   0  0  0  0  0  0  0  0  0  0  0  0
  145.7579  134.1922  154.0326 H   0  0  0  0  0  0  0  0  0  0  0  0
  146.7720  135.5983  153.7219 H   0  0  0  0  0  0  0  0  0  0  0  0
  146.7775  132.7575  150.8843 H   0  0  0  0  0  0  0  0  0  0  0  0
  145.2381  135.2666  151.9837 H   0  0  0  0  0  0  0  0  0  0  0  0
  144.7796  134.3150  150.4785 H   0  0  0  0  0  0  0  0  0  0  0  0
  144.4631  132.2508  151.8716 H   0  0  0  0  0  0  0  0  0  0  0  0
  144.9196  133.1951  153.3822 H   0  0  0  0  0  0  0  0  0  0  0  0
  149.1005  132.6402  152.4072 H   0  0  0  0  0  0  0  0  0  0  0  0
  147.8036  131.9293  153.3629 H   0  0  0  0  0  0  0  0  0  0  0  0
  147.9344  134.5811  152.2197 H   0  0  0  0  0  0  0  0  0  0  0  0
  1  2  1  0  0  0  0
  1 19  1  0  0  0  0
  1 20  1  0  0  0  0
  1 21  1  0  0  0  0
  2 18  1  0  0  0  0
  2  3  2  0  0  0  0
  3  4  1  0  0  0  0
  3 22  1  0  0  0  0
  4  5  1  0  0  0  0
  4 17  2  0  0  0  0
  5  6  1  0  0  0  0
  5 23  1  0  0  0  0
  6  7  2  0  0  0  0
  6  8  1  0  0  0  0
  8  9  1  0  0  0  0
  9 16  1  0  0  0  0
  9 10  1  0  0  0  0
  9 24  1  0  0  0  0
 10 11  1  0  0  0  0
 10 25  1  0  0  0  0
 10 26  1  0  0  0  0
 11 12  1  0  0  0  0
 11 27  1  0  0  0  0
 11 28  1  0  0  0  0
 12 13  1  0  0  0  0
 12 16  1  0  0  0  0
 12 36  1  0  0  0  0
 13 15  1  0  0  0  0
 13 14  1  0  0  0  0
 13 29  1  0  0  0  0
 14 15  1  0  0  0  0
 14 30  1  0  0  0  0
 14 31  1  0  0  0  0
 15 32  1  0  0  0  0
 15 33  1  0  0  0  0
 16 34  1  0  0  0  0
 16 35  1  0  0  0  0
 17 18  1  0  0  0  0
M  CHG  1   8  -1
M  CHG  1  12   1
M  END
> <s_m_source_file>
AV-unprocessed.smi

> <i_m_source_file_index>
3237

> <i_lp_mmshare_version>
43012

> <i_f3d_flags>
0

> <s_epik_input>
W0NIM11jMVtjSF1jKG5vMSlbTkhdQyg9TylbTkhdW0NAQEhdMltDSDJdW0NIMl1OKFtDSDJdMilbQ0hdM1tDSDJdW0NIMl0z

> <s_epik_cmdline>
J2VwaWtfcHl0aG9uJywgJy1waCcsICc3LjAnLCAnLXRuJywgJzgnLCAnLW1hJywgJzIwMCcsICctbWV0YWxfYmluZGluZycsICctaW1hZScsICc8aW5maWxlLm1hZT4nLCAnLW9tYWUnLCAnPG91dGZpbGUubWFlPic=

> <r_epik_Ionization_Penalty>
6.76456

> <r_epik_Ionization_Penalty_Charging>
6.76456

> <r_epik_Ionization_Penalty_Neutral>
5.76722e-06

> <r_epik_State_Penalty>
6.78919

> <r_epik_Charging_Adjusted_Penalty>
13.5538

> <i_epik_Tot_Q>
0

> <i_epik_Tot_abs_Q>
2

> <r_epik_Metal_State_Penalty>
2.728

> <b_epik_Metal_Only>
1

> <s_lp_Force_Field>
OPLS_2005

> <r_lp_Energy>
30.7434

> <b_lp_Chiralities_Consistent>
1

> <s_lp_Variant>
AV-unprocessed.smi:3237-10

> <Gold.Version>
5.8.1

> <Gold.Id.Protein>
6NUR|6NUR_protein|mol2

> <Gold.PLP.Fitness>
39.5634

> <Gold.PLP.PLP>
-28.8788

> <Gold.PLP.part.hbond>
-4.7144

> <Gold.PLP.part.metal>
0.0000

> <Gold.PLP.part.buried>
-5.4994

> <Gold.PLP.part.nonpolar>
-21.0805

> <Gold.PLP.part.repulsive>
1.4491

> <Gold.PLP.ligand.clash>
0.0000

> <Gold.PLP.ligand.torsion>
1.3049

> <Gold.PLP.Chemscore.Hbond>
3.9920

> <Gold.PLP.Chemscore.CHOScore>
0.0000

> <Gold.PLP.Chemscore.Metal>
0.0000

> <Gold.Chemscore.Hbonds>
donor molecule, donor type, donor heavy atom, donor atom, acceptor molecule, acceptor atom, score
      L1  H     5    23       P1  7949  1.00
      L1  H    12    36       P1  7948  2.00
      P1  H  7997  8010       L1    18  1.00

> <Gold.PLP.Chemscore.Internal.Correction>
1.3184

> <Gold.Rescore>
     Score         DG    S(hbond)    S(metal)    S(lipo)     H(rot)  DE(clash)    DE(int)     intcor
     12.21     -15.98       2.27        0.00      52.13       1.25       0.85       2.92       ----

> <Gold.Chemscore.Fitness>
12.2114

> <Gold.Chemscore.DG>
-15.9753

> <Gold.Chemscore.ZeroCoef>
-5.4800

> <Gold.Chemscore.Hbond>
2.2715

> <Gold.Chemscore.Metal>
0.0000

> <Gold.Chemscore.Lipo>
52.1306

> <Gold.Chemscore.Internal_Hbond>
0.0000

> <Gold.Chemscore.DEClash>
0.8476

> <Gold.Chemscore.DEInternal>
2.9163

> <Gold.Chemscore.Rot>
1.2464

> <Gold.Chemscore.Internal.Correction>
   9.000000E+99

> <Gold.Chemscore.Hbonds>
donor molecule, donor type, donor heavy atom, donor atom, acceptor molecule, acceptor atom, score
      L1  H     5    23       P1  7949  0.70
      L1  H    12    36       P1  7948  0.39
      P1  H  7997  8010       L1    18  0.99

> <Gold.Chemscore.Hbond.Weighted>
-7.5868

> <Gold.Chemscore.Metal.Weighted>
-0.0000

> <Gold.Chemscore.Lipo.Weighted>
-6.0993

> <Gold.Chemscore.Internal_Hbond.Weighted>
0.0000

> <Gold.Chemscore.DEClash.Weighted>
0.8476

> <Gold.Chemscore.DEInternal.Weighted>
2.9163

> <Gold.Chemscore.Rot.Weighted>
3.1909

> <Gold.Chemscore.Internal.Correction.Weighted>
   9.000000E+99

> <Gold.Protein.RotatedTorsions>
[ 6907 6896 6895 6894 ] final  138.94 input  -60.11 | X-H torsion
[ 7974 7965 7964 7962 ] final  -66.92 input  175.53 | X-H torsion
[ 8008 7997 7996 7995 ] final   96.90 input   59.86 | X-H torsion
[ 10167 10162 10161 10158 ] final  -78.09 input  -65.29 | X-H torsion
[ 10718 10713 10712 10709 ] final   -8.41 input   66.30 | X-H torsion
[ 10763 10752 10751 10750 ] final -169.28 input  -60.55 | X-H torsion
[ 11005 11000 10999 10996 ] final  132.77 input  -57.11 | X-H torsion

> <Gold.Protein.ActiveResidues>
 VAL166  LYS551  ARG553  GLY616  TRP617  ASP618  TYR619  PRO620  LYS621  CYS622 
 ASP623  PHE694  ASN695  SER759  ASP760  ASP761  ALA762  ILE779  LEU786  VAL792 
 PHE793  MET794  SER795  GLU796  ALA797  LYS798  CYS799  TRP800  GLU811  SER814 

> <Gold.Protein.RotatedAtoms>
  152.2607  133.5295  159.5379 H   0  0  0  0  0  0  0  0  0  0  0  0  # atno 6907 bound_to 6896
  150.7124  134.0833  159.3915 H   0  0  0  0  0  0  0  0  0  0  0  0  # atno 6908 bound_to 6896
  151.8751  135.0475  160.0534 H   0  0  0  0  0  0  0  0  0  0  0  0  # atno 6909 bound_to 6896
  145.7357  140.8977  143.0556 H   0  0  0  0  0  0  0  0  0  0  0  0  # atno 7974 bound_to 7965
  156.0845  140.3266  155.7736 H   0  0  0  0  0  0  0  0  0  0  0  0  # atno 8008 bound_to 7997
  155.5098  140.0576  157.2942 H   0  0  0  0  0  0  0  0  0  0  0  0  # atno 8009 bound_to 7997
  154.4601  140.1962  156.0285 H   0  0  0  0  0  0  0  0  0  0  0  0  # atno 8010 bound_to 7997
  140.4712  143.2426  151.8201 H   0  0  0  0  0  0  0  0  0  0  0  0  # atno 10167 bound_to 10162
  156.7030  130.5099  149.5912 H   0  0  0  0  0  0  0  0  0  0  0  0  # atno 10718 bound_to 10713
  154.6540  135.2915  154.9951 H   0  0  0  0  0  0  0  0  0  0  0  0  # atno 10763 bound_to 10752
  154.1034  135.6573  153.4876 H   0  0  0  0  0  0  0  0  0  0  0  0  # atno 10764 bound_to 10752
  153.0392  135.5248  154.7461 H   0  0  0  0  0  0  0  0  0  0  0  0  # atno 10765 bound_to 10752
  139.9810  134.9548  156.9629 H   0  0  0  0  0  0  0  0  0  0  0  0  # atno 11005 bound_to 11000
  144.6882  139.9391  143.7474 LP  0  0  0  0  0  0  0  0  0  0  0  0  # atno 17320 bound_to 7965
  146.0496  139.3498  143.0648 LP  0  0  0  0  0  0  0  0  0  0  0  0  # atno 17321 bound_to 7965
  139.4819  144.4889  151.9211 LP  0  0  0  0  0  0  0  0  0  0  0  0  # atno 17342 bound_to 10162
  140.3974  144.2537  150.5895 LP  0  0  0  0  0  0  0  0  0  0  0  0  # atno 17343 bound_to 10162
  156.1715  130.6440  151.0843 LP  0  0  0  0  0  0  0  0  0  0  0  0  # atno 17370 bound_to 10713
  157.6966  131.0792  150.6951 LP  0  0  0  0  0  0  0  0  0  0  0  0  # atno 17371 bound_to 10713
  140.5096  134.1015  155.7267 LP  0  0  0  0  0  0  0  0  0  0  0  0  # atno 17394 bound_to 11000
  141.1482  133.9016  157.2163 LP  0  0  0  0  0  0  0  0  0  0  0  0  # atno 17395 bound_to 11000

$$$$
