AV-unprocessed.smi:2881|AV-procd|sdf|11060|dock10
  -GOLD-   2272015533D 1   1.00000     0.00000
 Structure written by MMmdl.
 40 42  0  0  0  0  0  0  0  0  1 V2000
  146.1521  134.1942  162.5347 C   0  0  0  0  0  0  0  0  0  0  0  0
  146.9614  135.1921  161.7787 C   0  0  0  0  0  0  0  0  0  0  0  0
  147.9562  135.0356  160.8554 C   0  0  0  0  0  0  0  0  0  0  0  0
  148.3221  136.3684  160.4994 C   0  0  0  0  0  0  0  0  0  0  0  0
  149.3683  136.8120  159.5116 C   0  0  0  0  0  0  0  0  0  0  0  0
  148.7095  137.5485  158.3448 C   0  0  0  0  0  0  0  0  0  0  0  0
  147.4886  137.5030  158.1954 O   0  0  0  0  0  0  0  0  0  0  0  0
  149.5298  138.2222  157.5244 N   0  0  0  0  0  0  0  0  0  0  0  0
  149.1065  138.9592  156.3368 C   0  0  1  0  0  0  0  0  0  0  0  0
  148.4069  140.3041  156.6570 C   0  0  1  0  0  0  0  0  0  0  0  0
  149.2531  141.1684  157.6166 C   0  0  0  0  0  0  0  0  0  0  0  0
  150.4420  141.5876  156.7319 C   0  0  0  0  0  0  0  0  0  0  0  0
  150.1078  140.9315  155.3782 C   0  0  2  0  0  0  0  0  0  0  0  0
  148.5887  141.0590  155.3468 C   0  0  0  0  0  0  0  0  0  0  0  0
  150.3233  139.4024  155.4840 C   0  0  2  0  0  0  0  0  0  0  0  0
  150.3851  138.6877  154.1204 C   0  0  0  0  0  0  0  0  0  0  0  0
  149.1150  138.6952  153.5035 O   0  0  0  0  0  0  0  0  0  0  0  0
  147.6162  137.2766  161.1589 N   0  0  0  0  0  0  0  0  0  0  0  0
  146.7901  136.5483  161.9324 N   0  0  0  0  0  0  0  0  0  0  0  0
  146.1223  136.9853  162.5515 H   0  0  0  0  0  0  0  0  0  0  0  0
  146.2353  133.2048  162.0844 H   0  0  0  0  0  0  0  0  0  0  0  0
  145.0978  134.4722  162.5424 H   0  0  0  0  0  0  0  0  0  0  0  0
  146.4923  134.1242  163.5680 H   0  0  0  0  0  0  0  0  0  0  0  0
  148.3604  134.1063  160.4823 H   0  0  0  0  0  0  0  0  0  0  0  0
  150.1011  137.4677  159.9843 H   0  0  0  0  0  0  0  0  0  0  0  0
  149.9232  135.9524  159.1333 H   0  0  0  0  0  0  0  0  0  0  0  0
  150.5191  138.2084  157.7249 H   0  0  0  0  0  0  0  0  0  0  0  0
  148.4373  138.3340  155.7418 H   0  0  0  0  0  0  0  0  0  0  0  0
  147.3703  140.1905  156.9757 H   0  0  0  0  0  0  0  0  0  0  0  0
  148.6904  142.0472  157.9339 H   0  0  0  0  0  0  0  0  0  0  0  0
  149.5649  140.6413  158.5182 H   0  0  0  0  0  0  0  0  0  0  0  0
  150.4840  142.6734  156.6378 H   0  0  0  0  0  0  0  0  0  0  0  0
  151.3988  141.2510  157.1328 H   0  0  0  0  0  0  0  0  0  0  0  0
  150.6247  141.3967  154.5385 H   0  0  0  0  0  0  0  0  0  0  0  0
  148.1228  140.5630  154.4940 H   0  0  0  0  0  0  0  0  0  0  0  0
  148.2397  142.0923  155.3891 H   0  0  0  0  0  0  0  0  0  0  0  0
  151.2580  139.2003  156.0111 H   0  0  0  0  0  0  0  0  0  0  0  0
  151.0873  139.1991  153.4610 H   0  0  0  0  0  0  0  0  0  0  0  0
  150.7308  137.6590  154.2224 H   0  0  0  0  0  0  0  0  0  0  0  0
  149.1921  139.1160  152.6608 H   0  0  0  0  0  0  0  0  0  0  0  0
  1  2  1  0  0  0  0
  1 21  1  0  0  0  0
  1 22  1  0  0  0  0
  1 23  1  0  0  0  0
  2 19  1  0  0  0  0
  2  3  2  0  0  0  0
  3  4  1  0  0  0  0
  3 24  1  0  0  0  0
  4  5  1  0  0  0  0
  4 18  2  0  0  0  0
  5  6  1  0  0  0  0
  5 25  1  0  0  0  0
  5 26  1  0  0  0  0
  6  7  2  0  0  0  0
  6  8  1  0  0  0  0
  8  9  1  0  0  0  0
  8 27  1  0  0  0  0
  9 15  1  0  0  0  0
  9 10  1  0  0  0  0
  9 28  1  0  0  0  0
 10 14  1  0  0  0  0
 10 11  1  0  0  0  0
 10 29  1  0  0  0  0
 11 12  1  0  0  0  0
 11 30  1  0  0  0  0
 11 31  1  0  0  0  0
 12 13  1  0  0  0  0
 12 32  1  0  0  0  0
 12 33  1  0  0  0  0
 13 14  1  0  0  0  0
 13 15  1  0  0  0  0
 13 34  1  0  0  0  0
 14 35  1  0  0  0  0
 14 36  1  0  0  0  0
 15 16  1  0  0  0  0
 15 37  1  0  0  0  0
 16 17  1  0  0  0  0
 16 38  1  0  0  0  0
 16 39  1  0  0  0  0
 17 40  1  0  0  0  0
 18 19  1  0  0  0  0
 19 20  1  0  0  0  0
M  END
> <s_m_source_file>
AV-unprocessed.smi

> <i_m_source_file_index>
2881

> <i_lp_mmshare_version>
43012

> <i_f3d_flags>
0

> <s_epik_input>
W0NIM11jMVtjSF1jKG5bbkhdMSlbQ0gyXUMoPU8pW05IXVtDQEhdKFtDQEBIXTIzKVtDQEhdKFtDSDJdW09IXSlbQ0BASF0oW0NIMl0zKVtDSDJdW0NIMl0y

> <s_epik_cmdline>
J2VwaWtfcHl0aG9uJywgJy1waCcsICc3LjAnLCAnLXRuJywgJzgnLCAnLW1hJywgJzIwMCcsICctbWV0YWxfYmluZGluZycsICctaW1hZScsICc8aW5maWxlLm1hZT4nLCAnLW9tYWUnLCAnPG91dGZpbGUubWFlPic=

> <r_lp_tautomer_probability>
0.5

> <r_epik_Ionization_Penalty>
9.4349e-05

> <r_epik_Ionization_Penalty_Charging>
0

> <r_epik_Ionization_Penalty_Neutral>
9.4349e-05

> <r_epik_State_Penalty>
0.41068

> <r_epik_Charging_Adjusted_Penalty>
0.41068

> <i_epik_Tot_Q>
0

> <i_epik_Tot_abs_Q>
0

> <r_epik_Metal_State_Penalty>
0.4107

> <b_epik_Metal_Only>
0

> <s_lp_Force_Field>
OPLS_2005

> <r_lp_Energy>
47.9612

> <b_lp_Chiralities_Consistent>
1

> <s_lp_Variant>
AV-unprocessed.smi:2881-6

> <Gold.Version>
5.8.1

> <Gold.Id.Protein>
6NUR|6NUR_protein|mol2

> <Gold.PLP.Fitness>
38.4249

> <Gold.PLP.PLP>
-30.6732

> <Gold.PLP.part.hbond>
-4.0000

> <Gold.PLP.part.metal>
0.0000

> <Gold.PLP.part.buried>
-4.8437

> <Gold.PLP.part.nonpolar>
-22.1558

> <Gold.PLP.part.repulsive>
0.1822

> <Gold.PLP.ligand.clash>
0.0000

> <Gold.PLP.ligand.torsion>
0.3701

> <Gold.PLP.Chemscore.Hbond>
2.8240

> <Gold.PLP.Chemscore.CHOScore>
0.0000

> <Gold.PLP.Chemscore.Metal>
0.0000

> <Gold.Chemscore.Hbonds>
donor molecule, donor type, donor heavy atom, donor atom, acceptor molecule, acceptor atom, score
      L1  H    17    40       P1  7957  1.00
      P1  H  6931  6943       L1    18  0.84
      P1  H  6934  6947       L1    18  0.90

> <Gold.PLP.Chemscore.Internal.Correction>
0.0198

> <Gold.Rescore>
     Score         DG    S(hbond)    S(metal)    S(lipo)     H(rot)  DE(clash)    DE(int)     intcor
     15.49     -16.25       2.47        0.00      71.28       2.28       0.06       0.71       ----

> <Gold.Chemscore.Fitness>
15.4873

> <Gold.Chemscore.DG>
-16.2525

> <Gold.Chemscore.ZeroCoef>
-5.4800

> <Gold.Chemscore.Hbond>
2.4723

> <Gold.Chemscore.Metal>
0.0000

> <Gold.Chemscore.Lipo>
71.2849

> <Gold.Chemscore.Internal_Hbond>
0.0000

> <Gold.Chemscore.DEClash>
0.0565

> <Gold.Chemscore.DEInternal>
0.7088

> <Gold.Chemscore.Rot>
2.2755

> <Gold.Chemscore.Internal.Correction>
   9.000000E+99

> <Gold.Chemscore.Hbonds>
donor molecule, donor type, donor heavy atom, donor atom, acceptor molecule, acceptor atom, score
      L1  H    17    40       P1  7957  1.00
      P1  H  6931  6943       L1    18  0.18
      P1  H  6934  6947       L1    18  0.82

> <Gold.Chemscore.Hbond.Weighted>
-8.2574

> <Gold.Chemscore.Metal.Weighted>
-0.0000

> <Gold.Chemscore.Lipo.Weighted>
-8.3403

> <Gold.Chemscore.Internal_Hbond.Weighted>
0.0000

> <Gold.Chemscore.DEClash.Weighted>
0.0565

> <Gold.Chemscore.DEInternal.Weighted>
0.7088

> <Gold.Chemscore.Rot.Weighted>
5.8252

> <Gold.Chemscore.Internal.Correction.Weighted>
   9.000000E+99

> <Gold.Protein.RotatedTorsions>
[ 6907 6896 6895 6894 ] final   82.47 input  -60.11 | X-H torsion
[ 7974 7965 7964 7962 ] final -120.88 input  175.53 | X-H torsion
[ 8008 7997 7996 7995 ] final  -17.28 input   59.86 | X-H torsion
[ 10167 10162 10161 10158 ] final   16.44 input  -65.29 | X-H torsion
[ 10718 10713 10712 10709 ] final   64.20 input   66.30 | X-H torsion
[ 10763 10752 10751 10750 ] final -170.65 input  -60.55 | X-H torsion
[ 11005 11000 10999 10996 ] final   86.95 input  -57.11 | X-H torsion

> <Gold.Protein.ActiveResidues>
 VAL166  LYS551  ARG553  GLY616  TRP617  ASP618  TYR619  PRO620  LYS621  CYS622 
 ASP623  PHE694  ASN695  SER759  ASP760  ASP761  ALA762  ILE779  LEU786  VAL792 
 PHE793  MET794  SER795  GLU796  ALA797  LYS798  CYS799  TRP800  GLU811  SER814 

> <Gold.Protein.RotatedAtoms>
  152.5300  134.3044  159.9090 H   0  0  0  0  0  0  0  0  0  0  0  0  # atno 6907 bound_to 6896
  151.2995  133.4122  159.2646 H   0  0  0  0  0  0  0  0  0  0  0  0  # atno 6908 bound_to 6896
  151.0131  134.9428  159.8075 H   0  0  0  0  0  0  0  0  0  0  0  0  # atno 6909 bound_to 6896
  145.0465  140.8185  143.4235 H   0  0  0  0  0  0  0  0  0  0  0  0  # atno 7974 bound_to 7965
  154.4990  140.2147  155.9387 H   0  0  0  0  0  0  0  0  0  0  0  0  # atno 8008 bound_to 7997
  156.1408  140.3180  155.8460 H   0  0  0  0  0  0  0  0  0  0  0  0  # atno 8009 bound_to 7997
  155.4123  140.0491  157.3021 H   0  0  0  0  0  0  0  0  0  0  0  0  # atno 8010 bound_to 7997
  140.5797  143.9004  150.6779 H   0  0  0  0  0  0  0  0  0  0  0  0  # atno 10167 bound_to 10162
  157.6024  130.9147  149.9815 H   0  0  0  0  0  0  0  0  0  0  0  0  # atno 10718 bound_to 10713
  154.6392  135.2896  155.0124 H   0  0  0  0  0  0  0  0  0  0  0  0  # atno 10763 bound_to 10752
  154.1257  135.6541  153.4916 H   0  0  0  0  0  0  0  0  0  0  0  0  # atno 10764 bound_to 10752
  153.0318  135.5298  154.7251 H   0  0  0  0  0  0  0  0  0  0  0  0  # atno 10765 bound_to 10752
  139.8931  134.8390  156.2792 H   0  0  0  0  0  0  0  0  0  0  0  0  # atno 11005 bound_to 11000
  145.1581  139.2474  143.5405 LP  0  0  0  0  0  0  0  0  0  0  0  0  # atno 17320 bound_to 7965
  146.3514  140.1301  142.8597 LP  0  0  0  0  0  0  0  0  0  0  0  0  # atno 17321 bound_to 7965
  140.2501  143.3600  152.1413 LP  0  0  0  0  0  0  0  0  0  0  0  0  # atno 17342 bound_to 10162
  139.5163  144.6975  151.5589 LP  0  0  0  0  0  0  0  0  0  0  0  0  # atno 17343 bound_to 10162
  156.1100  130.3650  150.0065 LP  0  0  0  0  0  0  0  0  0  0  0  0  # atno 17370 bound_to 10713
  156.8165  130.9343  151.3642 LP  0  0  0  0  0  0  0  0  0  0  0  0  # atno 17371 bound_to 10713
  141.0050  133.7129  156.1020 LP  0  0  0  0  0  0  0  0  0  0  0  0  # atno 17394 bound_to 11000
  140.7446  134.4112  157.5550 LP  0  0  0  0  0  0  0  0  0  0  0  0  # atno 17395 bound_to 11000

$$$$
