AV-unprocessed.smi:1021|AV-procd|sdf|4454|dock8
  -GOLD-   22720 2423D 1   1.00000     0.00000
 Structure written by MMmdl.
 42 44  0  0  0  0  0  0  0  0  1 V2000
  151.9343  136.9321  153.7934 O   0  0  0  0  0  0  0  0  0  0  0  0
  150.8274  136.9489  154.6704 C   0  0  0  0  0  0  0  0  0  0  0  0
  151.1111  137.8521  155.8786 C   0  0  0  0  0  0  0  0  0  0  0  0
  151.8732  139.1364  155.5171 C   0  0  0  0  0  0  0  0  0  0  0  0
  152.0294  140.0641  156.6875 C   0  0  0  0  0  0  0  0  0  0  0  0
  152.7846  139.7122  157.7292 N   0  0  0  0  0  0  0  0  0  0  0  0
  152.6660  140.7934  158.5769 C   0  0  0  0  0  0  0  0  0  0  0  0
  153.2289  141.0249  159.8524 C   0  0  0  0  0  0  0  0  0  0  0  0
  152.9534  142.2200  160.5480 C   0  0  0  0  0  0  0  0  0  0  0  0
  152.1112  143.1971  159.9799 C   0  0  0  0  0  0  0  0  0  0  0  0
  151.5425  142.9865  158.7091 C   0  0  0  0  0  0  0  0  0  0  0  0
  151.8249  141.7937  158.0151 C   0  0  0  0  0  0  0  0  0  0  0  0
  151.4423  141.2901  156.7733 N   0  0  0  0  0  0  0  0  0  0  0  0
  150.5652  141.9766  155.8277 C   0  0  0  0  0  0  0  0  0  0  0  0
  149.4731  141.0586  155.2400 C   0  0  2  0  0  0  0  0  0  0  0  0
  149.8611  140.6973  153.9299 O   0  0  0  0  0  0  0  0  0  0  0  0
  148.0888  141.6894  155.2759 C   0  0  0  0  0  0  0  0  0  0  0  0
  147.4622  141.9380  156.5161 C   0  0  0  0  0  0  0  0  0  0  0  0
  146.1798  142.5191  156.5600 C   0  0  0  0  0  0  0  0  0  0  0  0
  145.5166  142.8552  155.3640 C   0  0  0  0  0  0  0  0  0  0  0  0
  144.2849  143.4158  155.4066 F   0  0  0  0  0  0  0  0  0  0  0  0
  146.1372  142.6115  154.1238 C   0  0  0  0  0  0  0  0  0  0  0  0
  147.4205  142.0324  154.0794 C   0  0  0  0  0  0  0  0  0  0  0  0
  151.6132  136.9057  152.9049 H   0  0  0  0  0  0  0  0  0  0  0  0
  149.9396  137.2843  154.1336 H   0  0  0  0  0  0  0  0  0  0  0  0
  150.6378  135.9282  155.0036 H   0  0  0  0  0  0  0  0  0  0  0  0
  150.1640  138.1235  156.3463 H   0  0  0  0  0  0  0  0  0  0  0  0
  151.6629  137.2903  156.6285 H   0  0  0  0  0  0  0  0  0  0  0  0
  152.8367  138.9009  155.0732 H   0  0  0  0  0  0  0  0  0  0  0  0
  151.3257  139.6674  154.7375 H   0  0  0  0  0  0  0  0  0  0  0  0
  153.8713  140.2794  160.2974 H   0  0  0  0  0  0  0  0  0  0  0  0
  153.3875  142.3862  161.5230 H   0  0  0  0  0  0  0  0  0  0  0  0
  151.9017  144.1084  160.5206 H   0  0  0  0  0  0  0  0  0  0  0  0
  150.8954  143.7340  158.2751 H   0  0  0  0  0  0  0  0  0  0  0  0
  150.1143  142.8596  156.2735 H   0  0  0  0  0  0  0  0  0  0  0  0
  151.1999  142.3465  155.0211 H   0  0  0  0  0  0  0  0  0  0  0  0
  149.4374  140.1274  155.8053 H   0  0  0  0  0  0  0  0  0  0  0  0
  149.3355  141.1883  153.3166 H   0  0  0  0  0  0  0  0  0  0  0  0
  147.9649  141.6872  157.4388 H   0  0  0  0  0  0  0  0  0  0  0  0
  145.7061  142.7083  157.5118 H   0  0  0  0  0  0  0  0  0  0  0  0
  145.6321  142.8738  153.2061 H   0  0  0  0  0  0  0  0  0  0  0  0
  147.8910  141.8568  153.1231 H   0  0  0  0  0  0  0  0  0  0  0  0
  1  2  1  0  0  0  0
  1 24  1  0  0  0  0
  2  3  1  0  0  0  0
  2 25  1  0  0  0  0
  2 26  1  0  0  0  0
  3  4  1  0  0  0  0
  3 27  1  0  0  0  0
  3 28  1  0  0  0  0
  4  5  1  0  0  0  0
  4 29  1  0  0  0  0
  4 30  1  0  0  0  0
  5 13  1  0  0  0  0
  5  6  2  0  0  0  0
  6  7  1  0  0  0  0
  7 12  2  0  0  0  0
  7  8  1  0  0  0  0
  8  9  2  0  0  0  0
  8 31  1  0  0  0  0
  9 10  1  0  0  0  0
  9 32  1  0  0  0  0
 10 11  2  0  0  0  0
 10 33  1  0  0  0  0
 11 12  1  0  0  0  0
 11 34  1  0  0  0  0
 12 13  1  0  0  0  0
 13 14  1  0  0  0  0
 14 15  1  0  0  0  0
 14 35  1  0  0  0  0
 14 36  1  0  0  0  0
 15 16  1  0  0  0  0
 15 17  1  0  0  0  0
 15 37  1  0  0  0  0
 16 38  1  0  0  0  0
 17 23  1  0  0  0  0
 17 18  2  0  0  0  0
 18 19  1  0  0  0  0
 18 39  1  0  0  0  0
 19 20  2  0  0  0  0
 19 40  1  0  0  0  0
 20 21  1  0  0  0  0
 20 22  1  0  0  0  0
 22 23  2  0  0  0  0
 22 41  1  0  0  0  0
 23 42  1  0  0  0  0
M  END
> <s_m_source_file>
AV-unprocessed.smi

> <i_m_source_file_index>
1021

> <i_lp_mmshare_version>
43012

> <i_f3d_flags>
0

> <s_epik_input>
W09IXVtDSDJdW0NIMl1bQ0gyXWMobjEpbihjKGMxMilbY0hdW2NIXVtjSF1bY0hdMilbQ0gyXVtDQEhdKFtPSF0pYzNbY0hdW2NIXWMoRilbY0hdW2NIXTM=

> <s_epik_cmdline>
J2VwaWtfcHl0aG9uJywgJy1waCcsICc3LjAnLCAnLXRuJywgJzgnLCAnLW1hJywgJzIwMCcsICctbWV0YWxfYmluZGluZycsICctaW1hZScsICc8aW5maWxlLm1hZT4nLCAnLW9tYWUnLCAnPG91dGZpbGUubWFlPic=

> <r_epik_Ionization_Penalty>
0.182562

> <r_epik_Ionization_Penalty_Charging>
0

> <r_epik_Ionization_Penalty_Neutral>
0.182562

> <r_epik_State_Penalty>
0.172086

> <r_epik_Charging_Adjusted_Penalty>
0.172086

> <i_epik_Tot_Q>
0

> <i_epik_Tot_abs_Q>
0

> <r_epik_Metal_State_Penalty>
0.000199649

> <b_epik_Metal_Only>
0

> <s_lp_Force_Field>
OPLS_2005

> <r_lp_Energy>
12.4475

> <b_lp_Chiralities_Consistent>
1

> <s_lp_Variant>
AV-unprocessed.smi:1021-1

> <Gold.Version>
5.8.1

> <Gold.Id.Protein>
6NUR|6NUR_protein|mol2

> <Gold.PLP.Fitness>
58.6562

> <Gold.PLP.PLP>
-49.9540

> <Gold.PLP.part.hbond>
-5.2000

> <Gold.PLP.part.metal>
0.0000

> <Gold.PLP.part.buried>
-5.6600

> <Gold.PLP.part.nonpolar>
-38.8178

> <Gold.PLP.part.repulsive>
0.0000

> <Gold.PLP.ligand.clash>
0.0000

> <Gold.PLP.ligand.torsion>
1.0938

> <Gold.PLP.Chemscore.Hbond>
3.5920

> <Gold.PLP.Chemscore.CHOScore>
0.0000

> <Gold.PLP.Chemscore.Metal>
0.0000

> <Gold.Chemscore.Hbonds>
donor molecule, donor type, donor heavy atom, donor atom, acceptor molecule, acceptor atom, score
      L1  H     1    24       P1  7949  0.99
      P1  H  7989  7998       L1    16  0.58
      P1  H  7997  8010       L1     6  0.95
      P1  H 10752 10765       L1     1  1.00

> <Gold.PLP.Chemscore.Internal.Correction>
0.1137

> <Gold.Rescore>
     Score         DG    S(hbond)    S(metal)    S(lipo)     H(rot)  DE(clash)    DE(int)     intcor
     16.94     -17.93       2.17        0.00     111.75       3.07       0.00       0.98       ----

> <Gold.Chemscore.Fitness>
16.9430

> <Gold.Chemscore.DG>
-17.9282

> <Gold.Chemscore.ZeroCoef>
-5.4800

> <Gold.Chemscore.Hbond>
2.1685

> <Gold.Chemscore.Metal>
0.0000

> <Gold.Chemscore.Lipo>
111.7543

> <Gold.Chemscore.Internal_Hbond>
0.0000

> <Gold.Chemscore.DEClash>
0.0029

> <Gold.Chemscore.DEInternal>
0.9823

> <Gold.Chemscore.Rot>
3.0741

> <Gold.Chemscore.Internal.Correction>
   9.000000E+99

> <Gold.Chemscore.Hbonds>
donor molecule, donor type, donor heavy atom, donor atom, acceptor molecule, acceptor atom, score
      L1  H     1    24       P1  7949  0.92
      L1  H    16    38       P1  7957  0.01
      P1  H  7989  7998       L1    16  0.36
      P1  H  7997  8010       L1     6  0.07
      P1  H 10752 10765       L1     1  0.62

> <Gold.Chemscore.Hbond.Weighted>
-7.2428

> <Gold.Chemscore.Metal.Weighted>
-0.0000

> <Gold.Chemscore.Lipo.Weighted>
-13.0753

> <Gold.Chemscore.Internal_Hbond.Weighted>
0.0000

> <Gold.Chemscore.DEClash.Weighted>
0.0029

> <Gold.Chemscore.DEInternal.Weighted>
0.9823

> <Gold.Chemscore.Rot.Weighted>
7.8698

> <Gold.Chemscore.Internal.Correction.Weighted>
   9.000000E+99

> <Gold.Protein.RotatedTorsions>
[ 6907 6896 6895 6894 ] final -168.34 input  -60.11 | X-H torsion
[ 7974 7965 7964 7962 ] final -175.24 input  175.53 | X-H torsion
[ 8008 7997 7996 7995 ] final   32.67 input   59.86 | X-H torsion
[ 10167 10162 10161 10158 ] final  -78.40 input  -65.29 | X-H torsion
[ 10718 10713 10712 10709 ] final  -97.08 input   66.30 | X-H torsion
[ 10763 10752 10751 10750 ] final  142.08 input  -60.55 | X-H torsion
[ 11005 11000 10999 10996 ] final  141.26 input  -57.11 | X-H torsion

> <Gold.Protein.ActiveResidues>
 VAL166  LYS551  ARG553  GLY616  TRP617  ASP618  TYR619  PRO620  LYS621  CYS622 
 ASP623  PHE694  ASN695  SER759  ASP760  ASP761  ALA762  ILE779  LEU786  VAL792 
 PHE793  MET794  SER795  GLU796  ALA797  LYS798  CYS799  TRP800  GLU811  SER814 

> <Gold.Protein.RotatedAtoms>
  151.4740  133.3562  159.2827 H   0  0  0  0  0  0  0  0  0  0  0  0  # atno 6907 bound_to 6896
  150.8941  134.8350  159.7325 H   0  0  0  0  0  0  0  0  0  0  0  0  # atno 6908 bound_to 6896
  152.4841  134.4654  159.9670 H   0  0  0  0  0  0  0  0  0  0  0  0  # atno 6909 bound_to 6896
  144.7129  140.1351  143.6396 H   0  0  0  0  0  0  0  0  0  0  0  0  # atno 7974 bound_to 7965
  155.1262  140.3253  155.4485 H   0  0  0  0  0  0  0  0  0  0  0  0  # atno 8008 bound_to 7997
  156.2648  140.2018  156.6331 H   0  0  0  0  0  0  0  0  0  0  0  0  # atno 8009 bound_to 7997
  154.6647  140.0543  157.0087 H   0  0  0  0  0  0  0  0  0  0  0  0  # atno 8010 bound_to 7997
  140.4686  143.2433  151.8240 H   0  0  0  0  0  0  0  0  0  0  0  0  # atno 10167 bound_to 10162
  156.0075  130.5179  150.6321 H   0  0  0  0  0  0  0  0  0  0  0  0  # atno 10718 bound_to 10713
  153.9499  135.2971  155.3439 H   0  0  0  0  0  0  0  0  0  0  0  0  # atno 10763 bound_to 10752
  154.7432  135.5015  153.9161 H   0  0  0  0  0  0  0  0  0  0  0  0  # atno 10764 bound_to 10752
  153.0999  135.6731  153.9801 H   0  0  0  0  0  0  0  0  0  0  0  0  # atno 10765 bound_to 10752
  140.0388  134.9315  157.0804 H   0  0  0  0  0  0  0  0  0  0  0  0  # atno 11005 bound_to 11000
  145.9252  139.2571  143.1357 LP  0  0  0  0  0  0  0  0  0  0  0  0  # atno 17320 bound_to 7965
  145.9579  140.8858  143.0226 LP  0  0  0  0  0  0  0  0  0  0  0  0  # atno 17321 bound_to 7965
  139.4815  144.4920  151.9172 LP  0  0  0  0  0  0  0  0  0  0  0  0  # atno 17342 bound_to 10162
  140.4005  144.2499  150.5893 LP  0  0  0  0  0  0  0  0  0  0  0  0  # atno 17343 bound_to 10162
  157.4117  131.0824  151.1215 LP  0  0  0  0  0  0  0  0  0  0  0  0  # atno 17370 bound_to 10713
  157.1844  130.6324  149.5683 LP  0  0  0  0  0  0  0  0  0  0  0  0  # atno 17371 bound_to 10713
  140.4103  134.1988  155.7163 LP  0  0  0  0  0  0  0  0  0  0  0  0  # atno 17394 bound_to 11000
  141.1872  133.8287  157.1041 LP  0  0  0  0  0  0  0  0  0  0  0  0  # atno 17395 bound_to 11000

$$$$
