AV-unprocessed.smi:910|AV-procd|sdf|4120|dock7
  -GOLD-   22720 2 23D 1   1.00000     0.00000
 Structure written by MMmdl.
 46 47  0  0  0  0  0  0  0  0  1 V2000
  147.1274  139.3623  152.7130 C   0  0  0  0  0  0  0  0  0  0  0  0
  148.4067  139.4311  153.5181 C   0  0  0  0  0  0  0  0  0  0  0  0
  149.3350  138.4260  153.4912 N   0  0  0  0  0  0  0  0  0  0  0  0
  150.3870  138.7850  154.3198 C   0  0  0  0  0  0  0  0  0  0  0  0
  151.4642  138.1070  154.5702 N   0  0  0  0  0  0  0  0  0  0  0  0
  152.4227  138.6362  155.4219 C   0  0  0  0  0  0  0  0  0  0  0  0
  153.5892  138.9511  155.1654 O   0  0  0  0  0  0  0  0  0  0  0  0
  151.9056  138.8029  156.6483 N   0  0  0  0  0  0  0  0  0  0  0  0
  152.6044  139.3748  157.7948 C   0  0  0  0  0  0  0  0  0  0  0  0
  151.7286  140.3920  158.5403 C   0  0  0  0  0  0  0  0  0  0  0  0
  152.0771  141.6982  158.1057 O   0  0  0  0  0  0  0  0  0  0  0  0
  151.5495  142.7494  158.9048 C   0  0  2  0  0  0  0  0  0  0  0  0
  151.2187  143.9644  158.0128 C   0  0  0  0  0  0  0  0  0  0  0  0
  150.7800  145.1752  158.8493 C   0  0  0  0  0  0  0  0  0  0  0  0
  151.8433  145.5369  159.8958 C   0  0  0  0  0  0  0  0  0  0  0  0
  152.1667  144.3324  160.7925 C   0  0  0  0  0  0  0  0  0  0  0  0
  152.6125  143.1083  159.9675 C   0  0  1  0  0  0  0  0  0  0  0  0
  152.9204  141.9155  160.8882 C   0  0  0  0  0  0  0  0  0  0  0  0
  150.0664  140.0172  154.8419 O   0  0  0  0  0  0  0  0  0  0  0  0
  148.8569  140.3817  154.3336 C   0  0  0  0  0  0  0  0  0  0  0  0
  148.2694  141.7127  154.7452 C   0  0  0  0  0  0  0  0  0  0  0  0
  147.0743  140.2004  152.0177 H   0  0  0  0  0  0  0  0  0  0  0  0
  146.2621  139.4073  153.3744 H   0  0  0  0  0  0  0  0  0  0  0  0
  147.0748  138.4362  152.1400 H   0  0  0  0  0  0  0  0  0  0  0  0
  149.2303  137.5847  152.9429 H   0  0  0  0  0  0  0  0  0  0  0  0
  150.9436  138.5327  156.7936 H   0  0  0  0  0  0  0  0  0  0  0  0
  152.8849  138.5637  158.4670 H   0  0  0  0  0  0  0  0  0  0  0  0
  153.5346  139.8429  157.4688 H   0  0  0  0  0  0  0  0  0  0  0  0
  150.6771  140.1926  158.3336 H   0  0  0  0  0  0  0  0  0  0  0  0
  151.8718  140.2937  159.6174 H   0  0  0  0  0  0  0  0  0  0  0  0
  150.6468  142.4173  159.4216 H   0  0  0  0  0  0  0  0  0  0  0  0
  152.0950  144.2315  157.4206 H   0  0  0  0  0  0  0  0  0  0  0  0
  150.4312  143.7150  157.3022 H   0  0  0  0  0  0  0  0  0  0  0  0
  150.5930  146.0293  158.1978 H   0  0  0  0  0  0  0  0  0  0  0  0
  149.8358  144.9526  159.3479 H   0  0  0  0  0  0  0  0  0  0  0  0
  152.7515  145.8752  159.3950 H   0  0  0  0  0  0  0  0  0  0  0  0
  151.4961  146.3718  160.5052 H   0  0  0  0  0  0  0  0  0  0  0  0
  152.9473  144.6077  161.5025 H   0  0  0  0  0  0  0  0  0  0  0  0
  151.2877  144.0768  161.3859 H   0  0  0  0  0  0  0  0  0  0  0  0
  153.5350  143.3738  159.4484 H   0  0  0  0  0  0  0  0  0  0  0  0
  152.0304  141.5916  161.4287 H   0  0  0  0  0  0  0  0  0  0  0  0
  153.6811  142.1752  161.6249 H   0  0  0  0  0  0  0  0  0  0  0  0
  153.2936  141.0611  160.3226 H   0  0  0  0  0  0  0  0  0  0  0  0
  147.2038  141.7525  154.5184 H   0  0  0  0  0  0  0  0  0  0  0  0
  148.7677  142.5239  154.2145 H   0  0  0  0  0  0  0  0  0  0  0  0
  148.3999  141.8683  155.8163 H   0  0  0  0  0  0  0  0  0  0  0  0
  1 22  1  0  0  0  0
  1 23  1  0  0  0  0
  1 24  1  0  0  0  0
  1  2  1  0  0  0  0
  2  3  1  0  0  0  0
  2 20  2  0  0  0  0
  3 25  1  0  0  0  0
  3  4  1  0  0  0  0
  4 19  1  0  0  0  0
  4  5  2  0  0  0  0
  5  6  1  0  0  0  0
  6  8  1  0  0  0  0
  6  7  2  0  0  0  0
  8  9  1  0  0  0  0
  8 26  1  0  0  0  0
  9 10  1  0  0  0  0
  9 27  1  0  0  0  0
  9 28  1  0  0  0  0
 10 11  1  0  0  0  0
 10 29  1  0  0  0  0
 10 30  1  0  0  0  0
 11 12  1  0  0  0  0
 12 17  1  0  0  0  0
 12 13  1  0  0  0  0
 12 31  1  0  0  0  0
 13 14  1  0  0  0  0
 13 32  1  0  0  0  0
 13 33  1  0  0  0  0
 14 15  1  0  0  0  0
 14 34  1  0  0  0  0
 14 35  1  0  0  0  0
 15 16  1  0  0  0  0
 15 36  1  0  0  0  0
 15 37  1  0  0  0  0
 16 17  1  0  0  0  0
 16 38  1  0  0  0  0
 16 39  1  0  0  0  0
 17 18  1  0  0  0  0
 17 40  1  0  0  0  0
 18 41  1  0  0  0  0
 18 42  1  0  0  0  0
 18 43  1  0  0  0  0
 19 20  1  0  0  0  0
 20 21  1  0  0  0  0
 21 44  1  0  0  0  0
 21 45  1  0  0  0  0
 21 46  1  0  0  0  0
M  END
> <s_m_source_file>
AV-unprocessed.smi

> <i_m_source_file_index>
910

> <i_lp_mmshare_version>
43012

> <i_f3d_flags>
0

> <s_epik_input>
W0NIM11jMW5jKG9jMVtDSDNdKVtOSF1DKD1PKVtOSF1bQ0gyXVtDSDJdT1tDQEBIXTJbQ0gyXVtDSDJdW0NIMl1bQ0gyXVtDQEhdMltDSDNd

> <s_epik_cmdline>
J2VwaWtfcHl0aG9uJywgJy1waCcsICc3LjAnLCAnLXRuJywgJzgnLCAnLW1hJywgJzIwMCcsICctbWV0YWxfYmluZGluZycsICctaW1hZScsICc8aW5maWxlLm1hZT4nLCAnLW9tYWUnLCAnPG91dGZpbGUubWFlPic=

> <r_lp_tautomer_probability>
0.107061

> <r_epik_Ionization_Penalty>
0.727192

> <r_epik_Ionization_Penalty_Charging>
0.726719

> <r_epik_Ionization_Penalty_Neutral>
0.000473387

> <r_epik_State_Penalty>
2.53712

> <r_epik_Charging_Adjusted_Penalty>
3.26383

> <i_epik_Tot_Q>
0

> <i_epik_Tot_abs_Q>
0

> <r_epik_Metal_State_Penalty>
3.71015

> <b_epik_Metal_Only>
0

> <s_lp_Force_Field>
OPLS_2005

> <r_lp_Energy>
30.8071

> <b_lp_Chiralities_Consistent>
1

> <s_lp_Variant>
AV-unprocessed.smi:910-5

> <Gold.Version>
5.8.1

> <Gold.Id.Protein>
6NUR|6NUR_protein|mol2

> <Gold.PLP.Fitness>
49.6196

> <Gold.PLP.PLP>
-45.9372

> <Gold.PLP.part.hbond>
-3.4688

> <Gold.PLP.part.metal>
0.0000

> <Gold.PLP.part.buried>
-1.4222

> <Gold.PLP.part.nonpolar>
-41.2164

> <Gold.PLP.part.repulsive>
0.3806

> <Gold.PLP.ligand.clash>
0.0000

> <Gold.PLP.ligand.torsion>
1.4328

> <Gold.PLP.Chemscore.Hbond>
2.1706

> <Gold.PLP.Chemscore.CHOScore>
0.0000

> <Gold.PLP.Chemscore.Metal>
0.0000

> <Gold.Chemscore.Hbonds>
donor molecule, donor type, donor heavy atom, donor atom, acceptor molecule, acceptor atom, score
      L1  H     3    25       P1  7948  1.00
      P1  H  7989  7998       L1    19  0.18
      P1  H  7997  8008       L1     7  0.99

> <Gold.PLP.Chemscore.Internal.Correction>
0.0362

> <Gold.Rescore>
     Score         DG    S(hbond)    S(metal)    S(lipo)     H(rot)  DE(clash)    DE(int)     intcor
     18.49     -21.47       1.97        0.00     116.64       1.66       0.16       2.81       ----

> <Gold.Chemscore.Fitness>
18.4899

> <Gold.Chemscore.DG>
-21.4686

> <Gold.Chemscore.ZeroCoef>
-5.4800

> <Gold.Chemscore.Hbond>
1.9715

> <Gold.Chemscore.Metal>
0.0000

> <Gold.Chemscore.Lipo>
116.6431

> <Gold.Chemscore.Internal_Hbond>
0.0000

> <Gold.Chemscore.DEClash>
0.1638

> <Gold.Chemscore.DEInternal>
2.8149

> <Gold.Chemscore.Rot>
1.6576

> <Gold.Chemscore.Internal.Correction>
   9.000000E+99

> <Gold.Chemscore.Hbonds>
donor molecule, donor type, donor heavy atom, donor atom, acceptor molecule, acceptor atom, score
      L1  H     3    25       P1  7948  0.98
      P1  H  7997  8008       L1     7  0.93

> <Gold.Chemscore.Hbond.Weighted>
-6.5849

> <Gold.Chemscore.Metal.Weighted>
-0.0000

> <Gold.Chemscore.Lipo.Weighted>
-13.6472

> <Gold.Chemscore.Internal_Hbond.Weighted>
0.0000

> <Gold.Chemscore.DEClash.Weighted>
0.1638

> <Gold.Chemscore.DEInternal.Weighted>
2.8149

> <Gold.Chemscore.Rot.Weighted>
4.2436

> <Gold.Chemscore.Internal.Correction.Weighted>
   9.000000E+99

> <Gold.Protein.RotatedTorsions>
[ 6907 6896 6895 6894 ] final  114.16 input  -60.11 | X-H torsion
[ 7974 7965 7964 7962 ] final  -60.82 input  175.53 | X-H torsion
[ 8008 7997 7996 7995 ] final  -10.03 input   59.86 | X-H torsion
[ 10167 10162 10161 10158 ] final  165.73 input  -65.29 | X-H torsion
[ 10718 10713 10712 10709 ] final -102.27 input   66.30 | X-H torsion
[ 10763 10752 10751 10750 ] final  -28.16 input  -60.55 | X-H torsion
[ 11005 11000 10999 10996 ] final  -68.71 input  -57.11 | X-H torsion

> <Gold.Protein.ActiveResidues>
 VAL166  LYS551  ARG553  GLY616  TRP617  ASP618  TYR619  PRO620  LYS621  CYS622 
 ASP623  PHE694  ASN695  SER759  ASP760  ASP761  ALA762  ILE779  LEU786  VAL792 
 PHE793  MET794  SER795  GLU796  ALA797  LYS798  CYS799  TRP800  GLU811  SER814 

> <Gold.Protein.RotatedAtoms>
  152.4819  133.8274  159.7085 H   0  0  0  0  0  0  0  0  0  0  0  0  # atno 6907 bound_to 6896
  150.8874  133.7279  159.2921 H   0  0  0  0  0  0  0  0  0  0  0  0  # atno 6908 bound_to 6896
  151.4763  135.1053  159.9817 H   0  0  0  0  0  0  0  0  0  0  0  0  # atno 6909 bound_to 6896
  145.8109  140.8599  143.0182 H   0  0  0  0  0  0  0  0  0  0  0  0  # atno 7974 bound_to 7965
  154.5592  140.2339  155.8362 H   0  0  0  0  0  0  0  0  0  0  0  0  # atno 8008 bound_to 7997
  156.2014  140.3051  155.9495 H   0  0  0  0  0  0  0  0  0  0  0  0  # atno 8009 bound_to 7997
  155.2922  140.0427  157.3014 H   0  0  0  0  0  0  0  0  0  0  0  0  # atno 8010 bound_to 7997
  139.4911  144.4101  151.9309 H   0  0  0  0  0  0  0  0  0  0  0  0  # atno 10167 bound_to 10162
  156.0223  130.5412  150.7084 H   0  0  0  0  0  0  0  0  0  0  0  0  # atno 10718 bound_to 10713
  153.7439  135.6930  153.4961 H   0  0  0  0  0  0  0  0  0  0  0  0  # atno 10763 bound_to 10752
  153.2050  135.4423  155.0311 H   0  0  0  0  0  0  0  0  0  0  0  0  # atno 10764 bound_to 10752
  154.8211  135.3422  154.6963 H   0  0  0  0  0  0  0  0  0  0  0  0  # atno 10765 bound_to 10752
  141.1538  133.6747  156.6487 H   0  0  0  0  0  0  0  0  0  0  0  0  # atno 11005 bound_to 11000
  144.6757  140.0394  143.7481 LP  0  0  0  0  0  0  0  0  0  0  0  0  # atno 17320 bound_to 7965
  145.9778  139.2918  143.1060 LP  0  0  0  0  0  0  0  0  0  0  0  0  # atno 17321 bound_to 7965
  140.3543  144.3051  150.5944 LP  0  0  0  0  0  0  0  0  0  0  0  0  # atno 17342 bound_to 10162
  140.5458  143.2215  151.8009 LP  0  0  0  0  0  0  0  0  0  0  0  0  # atno 17343 bound_to 10162
  157.4728  131.0895  151.0624 LP  0  0  0  0  0  0  0  0  0  0  0  0  # atno 17370 bound_to 10713
  157.1079  130.6009  149.5475 LP  0  0  0  0  0  0  0  0  0  0  0  0  # atno 17371 bound_to 10713
  140.3337  134.7907  157.4345 LP  0  0  0  0  0  0  0  0  0  0  0  0  # atno 17394 bound_to 11000
  140.0995  134.5491  155.8366 LP  0  0  0  0  0  0  0  0  0  0  0  0  # atno 17395 bound_to 11000

$$$$
