AV-unprocessed.smi:790|AV-procd|sdf|3747|dock3
  -GOLD-   22720 1183D 1   1.00000     0.00000
 Structure written by MMmdl.
 38 40  0  0  0  0  0  0  0  0  1 V2000
  145.2253  138.2053  152.9956 O   0  0  0  0  0  0  0  0  0  0  0  0
  146.2432  137.6471  152.5876 C   0  0  0  0  0  0  0  0  0  0  0  0
  147.4982  138.1099  152.7245 N   0  0  0  0  0  0  0  0  0  0  0  0
  147.9501  139.3143  153.3320 C   0  0  0  0  0  0  0  0  0  0  0  0
  149.1504  139.4431  154.0730 C   0  0  0  0  0  0  0  0  0  0  0  0
  149.4739  140.6945  154.6326 C   0  0  0  0  0  0  0  0  0  0  0  0
  148.5851  141.7691  154.4378 C   0  0  0  0  0  0  0  0  0  0  0  0
  147.4326  141.6590  153.7447 N   0  0  0  0  0  0  0  0  0  0  0  0
  147.1296  140.4562  153.2111 C   0  0  0  0  0  0  0  0  0  0  0  0
  146.2308  136.4696  151.9477 N   0  0  0  0  0  0  0  0  0  0  0  0
  145.0282  135.6965  151.6435 C   0  0  1  0  0  0  0  0  0  0  0  0
  145.2548  134.5974  150.5742 C   0  0  1  0  0  0  0  0  0  0  0  0
  146.4653  133.7056  150.9259 C   0  0  0  0  0  0  0  0  0  0  0  0
  145.9583  132.9170  152.1474 C   0  0  0  0  0  0  0  0  0  0  0  0
  144.5175  133.4376  152.3151 C   0  0  2  0  0  0  0  0  0  0  0  0
  144.0998  133.6474  150.8639 C   0  0  0  0  0  0  0  0  0  0  0  0
  144.5521  134.8791  152.8739 C   0  0  2  0  0  0  0  0  0  0  0  0
  143.1866  135.3342  153.4248 C   0  0  0  0  0  0  0  0  0  0  0  0
  142.8768  134.6310  154.6092 O   0  0  0  0  0  0  0  0  0  0  0  0
  148.2290  137.5020  152.3848 H   0  0  0  0  0  0  0  0  0  0  0  0
  149.8226  138.6158  154.2356 H   0  0  0  0  0  0  0  0  0  0  0  0
  150.3829  140.8263  155.2007 H   0  0  0  0  0  0  0  0  0  0  0  0
  148.8039  142.7418  154.8529 H   0  0  0  0  0  0  0  0  0  0  0  0
  146.1983  140.4060  152.6657 H   0  0  0  0  0  0  0  0  0  0  0  0
  147.1120  136.0758  151.6521 H   0  0  0  0  0  0  0  0  0  0  0  0
  144.2365  136.3706  151.3100 H   0  0  0  0  0  0  0  0  0  0  0  0
  145.2814  134.9817  149.5541 H   0  0  0  0  0  0  0  0  0  0  0  0
  146.6879  133.0249  150.1033 H   0  0  0  0  0  0  0  0  0  0  0  0
  147.3756  134.2672  151.1356 H   0  0  0  0  0  0  0  0  0  0  0  0
  145.9626  131.8463  151.9391 H   0  0  0  0  0  0  0  0  0  0  0  0
  146.5683  133.0856  153.0355 H   0  0  0  0  0  0  0  0  0  0  0  0
  143.8804  132.7591  152.8834 H   0  0  0  0  0  0  0  0  0  0  0  0
  143.1186  134.1107  150.7504 H   0  0  0  0  0  0  0  0  0  0  0  0
  144.1299  132.7332  150.2683 H   0  0  0  0  0  0  0  0  0  0  0  0
  145.2777  134.9272  153.6883 H   0  0  0  0  0  0  0  0  0  0  0  0
  143.1732  136.4049  153.6288 H   0  0  0  0  0  0  0  0  0  0  0  0
  142.4007  135.1357  152.6955 H   0  0  0  0  0  0  0  0  0  0  0  0
  142.9274  133.7044  154.4300 H   0  0  0  0  0  0  0  0  0  0  0  0
  1  2  2  0  0  0  0
  2  3  1  0  0  0  0
  2 10  1  0  0  0  0
  3  4  1  0  0  0  0
  3 20  1  0  0  0  0
  4  9  1  0  0  0  0
  4  5  2  0  0  0  0
  5  6  1  0  0  0  0
  5 21  1  0  0  0  0
  6  7  2  0  0  0  0
  6 22  1  0  0  0  0
  7  8  1  0  0  0  0
  7 23  1  0  0  0  0
  8  9  2  0  0  0  0
  9 24  1  0  0  0  0
 10 11  1  0  0  0  0
 10 25  1  0  0  0  0
 11 17  1  0  0  0  0
 11 12  1  0  0  0  0
 11 26  1  0  0  0  0
 12 16  1  0  0  0  0
 12 13  1  0  0  0  0
 12 27  1  0  0  0  0
 13 14  1  0  0  0  0
 13 28  1  0  0  0  0
 13 29  1  0  0  0  0
 14 15  1  0  0  0  0
 14 30  1  0  0  0  0
 14 31  1  0  0  0  0
 15 16  1  0  0  0  0
 15 17  1  0  0  0  0
 15 32  1  0  0  0  0
 16 33  1  0  0  0  0
 16 34  1  0  0  0  0
 17 18  1  0  0  0  0
 17 35  1  0  0  0  0
 18 19  1  0  0  0  0
 18 36  1  0  0  0  0
 18 37  1  0  0  0  0
 19 38  1  0  0  0  0
M  END
> <s_m_source_file>
AV-unprocessed.smi

> <i_m_source_file_index>
790

> <i_lp_mmshare_version>
43012

> <i_f3d_flags>
0

> <s_epik_input>
W0NIMl0xW0NIMl1bQ0BASF0oW0NIMl0yKVtDQEBIXShbQ0gyXVtPSF0pW0NAQEhdKFtDQEhdMTIpW05IXUMoPU8pW05IXWMzW2NIXVtjSF1bY0hdbltjSF0z

> <s_epik_cmdline>
J2VwaWtfcHl0aG9uJywgJy1waCcsICc3LjAnLCAnLXRuJywgJzgnLCAnLW1hJywgJzIwMCcsICctbWV0YWxfYmluZGluZycsICctaW1hZScsICc8aW5maWxlLm1hZT4nLCAnLW9tYWUnLCAnPG91dGZpbGUubWFlPic=

> <r_epik_Ionization_Penalty>
0.00497582

> <r_epik_Ionization_Penalty_Charging>
0

> <r_epik_Ionization_Penalty_Neutral>
0.00497582

> <r_epik_State_Penalty>
0.00358602

> <r_epik_Charging_Adjusted_Penalty>
0.00358602

> <i_epik_Tot_Q>
0

> <i_epik_Tot_abs_Q>
0

> <r_epik_Metal_State_Penalty>
-0

> <b_epik_Metal_Only>
0

> <s_lp_Force_Field>
OPLS_2005

> <r_lp_Energy>
55.2793

> <b_lp_Chiralities_Consistent>
1

> <s_lp_Variant>
AV-unprocessed.smi:790-8

> <Gold.Version>
5.8.1

> <Gold.Id.Protein>
6NUR|6NUR_protein|mol2

> <Gold.PLP.Fitness>
44.1249

> <Gold.PLP.PLP>
-30.4789

> <Gold.PLP.part.hbond>
-3.2735

> <Gold.PLP.part.metal>
0.0000

> <Gold.PLP.part.buried>
-0.6323

> <Gold.PLP.part.nonpolar>
-27.0825

> <Gold.PLP.part.repulsive>
2.1969

> <Gold.PLP.ligand.clash>
0.0000

> <Gold.PLP.ligand.torsion>
0.5310

> <Gold.PLP.Chemscore.Hbond>
2.8960

> <Gold.PLP.Chemscore.CHOScore>
2.0000

> <Gold.PLP.Chemscore.Metal>
0.0000

> <Gold.Chemscore.Hbonds>
donor molecule, donor type, donor heavy atom, donor atom, acceptor molecule, acceptor atom, score
      L1  H     3    20       P1  7948  1.00
      L1  H    10    25       P1  7948  0.90
      L1  H    19    38       P1 10957  1.00
      L1  C     7    23       P1  8028  1.00
      L1  C     9    24       P1 10175  1.00

> <Gold.PLP.Chemscore.Internal.Correction>
0.0201

> <Gold.Rescore>
     Score         DG    S(hbond)    S(metal)    S(lipo)     H(rot)  DE(clash)    DE(int)     intcor
     16.74     -19.11       2.90        0.00      72.72       1.78       0.64       1.72       ----

> <Gold.Chemscore.Fitness>
16.7411

> <Gold.Chemscore.DG>
-19.1051

> <Gold.Chemscore.ZeroCoef>
-5.4800

> <Gold.Chemscore.Hbond>
2.8951

> <Gold.Chemscore.Metal>
0.0000

> <Gold.Chemscore.Lipo>
72.7181

> <Gold.Chemscore.Internal_Hbond>
0.0000

> <Gold.Chemscore.DEClash>
0.6421

> <Gold.Chemscore.DEInternal>
1.7219

> <Gold.Chemscore.Rot>
1.7783

> <Gold.Chemscore.Internal.Correction>
   9.000000E+99

> <Gold.Chemscore.Hbonds>
donor molecule, donor type, donor heavy atom, donor atom, acceptor molecule, acceptor atom, score
      L1  H     3    20       P1  7948  0.93
      L1  H    10    25       P1  7948  0.88
      L1  H    19    38       P1 10957  0.96

> <Gold.Chemscore.Hbond.Weighted>
-9.6696

> <Gold.Chemscore.Metal.Weighted>
-0.0000

> <Gold.Chemscore.Lipo.Weighted>
-8.5080

> <Gold.Chemscore.Internal_Hbond.Weighted>
0.0000

> <Gold.Chemscore.DEClash.Weighted>
0.6421

> <Gold.Chemscore.DEInternal.Weighted>
1.7219

> <Gold.Chemscore.Rot.Weighted>
4.5525

> <Gold.Chemscore.Internal.Correction.Weighted>
   9.000000E+99

> <Gold.Protein.RotatedTorsions>
[ 6907 6896 6895 6894 ] final  159.30 input  -60.11 | X-H torsion
[ 7974 7965 7964 7962 ] final  118.87 input  175.53 | X-H torsion
[ 8008 7997 7996 7995 ] final  122.52 input   59.86 | X-H torsion
[ 10167 10162 10161 10158 ] final   62.99 input  -65.29 | X-H torsion
[ 10718 10713 10712 10709 ] final -137.02 input   66.30 | X-H torsion
[ 10763 10752 10751 10750 ] final  162.64 input  -60.55 | X-H torsion
[ 11005 11000 10999 10996 ] final  158.48 input  -57.11 | X-H torsion

> <Gold.Protein.ActiveResidues>
 VAL166  LYS551  ARG553  GLY616  TRP617  ASP618  TYR619  PRO620  LYS621  CYS622 
 ASP623  PHE694  ASN695  SER759  ASP760  ASP761  ALA762  ILE779  LEU786  VAL792 
 PHE793  MET794  SER795  GLU796  ALA797  LYS798  CYS799  TRP800  GLU811  SER814 

> <Gold.Protein.RotatedAtoms>
  151.9876  133.3779  159.4131 H   0  0  0  0  0  0  0  0  0  0  0  0  # atno 6907 bound_to 6896
  150.6926  134.3971  159.5111 H   0  0  0  0  0  0  0  0  0  0  0  0  # atno 6908 bound_to 6896
  152.1700  134.8842  160.0586 H   0  0  0  0  0  0  0  0  0  0  0  0  # atno 6909 bound_to 6896
  145.1500  139.3216  143.4571 H   0  0  0  0  0  0  0  0  0  0  0  0  # atno 7974 bound_to 7965
  156.2731  140.2784  156.1481 H   0  0  0  0  0  0  0  0  0  0  0  0  # atno 8008 bound_to 7997
  155.0883  140.0388  157.2678 H   0  0  0  0  0  0  0  0  0  0  0  0  # atno 8009 bound_to 7997
  154.6910  140.2629  155.6819 H   0  0  0  0  0  0  0  0  0  0  0  0  # atno 8010 bound_to 7997
  140.1379  144.4581  150.6827 H   0  0  0  0  0  0  0  0  0  0  0  0  # atno 10167 bound_to 10162
  156.2834  130.7334  151.1338 H   0  0  0  0  0  0  0  0  0  0  0  0  # atno 10718 bound_to 10713
  154.2815  135.2763  155.2695 H   0  0  0  0  0  0  0  0  0  0  0  0  # atno 10763 bound_to 10752
  154.5214  135.5755  153.6687 H   0  0  0  0  0  0  0  0  0  0  0  0  # atno 10764 bound_to 10752
  152.9928  135.6205  154.2975 H   0  0  0  0  0  0  0  0  0  0  0  0  # atno 10765 bound_to 10752
  140.1869  134.8435  157.2867 H   0  0  0  0  0  0  0  0  0  0  0  0  # atno 11005 bound_to 11000
  146.3495  140.1570  142.8591 LP  0  0  0  0  0  0  0  0  0  0  0  0  # atno 17320 bound_to 7965
  145.0441  140.8968  143.5035 LP  0  0  0  0  0  0  0  0  0  0  0  0  # atno 17321 bound_to 7965
  140.6778  143.2313  151.5462 LP  0  0  0  0  0  0  0  0  0  0  0  0  # atno 17342 bound_to 10162
  139.5487  144.2453  152.1490 LP  0  0  0  0  0  0  0  0  0  0  0  0  # atno 17343 bound_to 10162
  157.7321  131.0602  150.5643 LP  0  0  0  0  0  0  0  0  0  0  0  0  # atno 17370 bound_to 10713
  156.5752  130.4290  149.6002 LP  0  0  0  0  0  0  0  0  0  0  0  0  # atno 17371 bound_to 10713
  140.2204  134.4030  155.7569 LP  0  0  0  0  0  0  0  0  0  0  0  0  # atno 17394 bound_to 11000
  141.2225  133.7163  156.8481 LP  0  0  0  0  0  0  0  0  0  0  0  0  # atno 17395 bound_to 11000

$$$$
