AV-unprocessed.smi:2306|AV-procd|sdf|9249|dock1
  -GOLD-   2272012463D 1   1.00000     0.00000
 Structure written by MMmdl.
 41 42  0  0  0  0  0  0  0  0  1 V2000
  147.2060  132.6274  161.6845 C   0  0  0  0  0  0  0  0  0  0  0  0
  147.6160  133.8603  160.8985 C   0  0  0  0  0  0  0  0  0  0  0  0
  148.0294  133.6287  159.5835 N   0  0  0  0  0  0  0  0  0  0  0  0
  148.4026  134.6191  158.8413 C   0  0  0  0  0  0  0  0  0  0  0  0
  148.4075  135.9403  159.3201 N   0  0  0  0  0  0  0  0  0  0  0  0
  148.8576  136.9781  158.3768 C   0  0  0  0  0  0  0  0  0  0  0  0
  150.1549  137.6732  158.8490 C   0  0  1  0  0  0  0  0  0  0  0  0
  151.2071  136.7373  158.9695 O   0  0  0  0  0  0  0  0  0  0  0  0
  150.6286  138.7783  157.8890 C   0  0  0  0  0  0  0  0  0  0  0  0
  149.7897  139.9169  158.0079 O   0  0  0  0  0  0  0  0  0  0  0  0
  150.0738  140.9191  157.0459 C   0  0  0  0  0  0  0  0  0  0  0  0
  150.9421  142.0216  157.6211 C   0  0  0  0  0  0  0  0  0  0  0  0
  151.1473  143.2144  156.8960 C   0  0  0  0  0  0  0  0  0  0  0  0
  151.9658  144.2323  157.4239 C   0  0  0  0  0  0  0  0  0  0  0  0
  152.5879  144.0588  158.6754 C   0  0  0  0  0  0  0  0  0  0  0  0
  152.3932  142.8660  159.3981 C   0  0  0  0  0  0  0  0  0  0  0  0
  151.5742  141.8482  158.8711 C   0  0  0  0  0  0  0  0  0  0  0  0
  148.0030  136.2556  160.5841 C   0  0  0  0  0  0  0  0  0  0  0  0
  147.9876  137.4199  160.9876 O   0  0  0  0  0  0  0  0  0  0  0  0
  147.5893  135.1171  161.4202 C   0  0  0  0  0  0  0  0  0  0  0  0
  147.1496  135.4298  162.8452 C   0  0  0  0  0  0  0  0  0  0  0  0
  146.1741  132.7163  162.0248 H   0  0  0  0  0  0  0  0  0  0  0  0
  147.8508  132.4972  162.5538 H   0  0  0  0  0  0  0  0  0  0  0  0
  147.2796  131.7254  161.0759 H   0  0  0  0  0  0  0  0  0  0  0  0
  148.7285  134.4928  157.8074 H   0  0  0  0  0  0  0  0  0  0  0  0
  148.9798  136.5786  157.3682 H   0  0  0  0  0  0  0  0  0  0  0  0
  148.0693  137.7266  158.2703 H   0  0  0  0  0  0  0  0  0  0  0  0
  150.0044  138.1241  159.8308 H   0  0  0  0  0  0  0  0  0  0  0  0
  151.8240  136.8854  158.2688 H   0  0  0  0  0  0  0  0  0  0  0  0
  151.6481  139.0655  158.1512 H   0  0  0  0  0  0  0  0  0  0  0  0
  150.6531  138.4154  156.8597 H   0  0  0  0  0  0  0  0  0  0  0  0
  150.5953  140.4819  156.1933 H   0  0  0  0  0  0  0  0  0  0  0  0
  149.1398  141.3444  156.6746 H   0  0  0  0  0  0  0  0  0  0  0  0
  150.6763  143.3542  155.9340 H   0  0  0  0  0  0  0  0  0  0  0  0
  152.1173  145.1456  156.8679 H   0  0  0  0  0  0  0  0  0  0  0  0
  153.2158  144.8388  159.0800 H   0  0  0  0  0  0  0  0  0  0  0  0
  152.8729  142.7308  160.3564 H   0  0  0  0  0  0  0  0  0  0  0  0
  151.4320  140.9346  159.4298 H   0  0  0  0  0  0  0  0  0  0  0  0
  147.9534  135.9312  163.3854 H   0  0  0  0  0  0  0  0  0  0  0  0
  146.8769  134.5432  163.4152 H   0  0  0  0  0  0  0  0  0  0  0  0
  146.2840  136.0930  162.8345 H   0  0  0  0  0  0  0  0  0  0  0  0
  1  2  1  0  0  0  0
  1 22  1  0  0  0  0
  1 23  1  0  0  0  0
  1 24  1  0  0  0  0
  2 20  2  0  0  0  0
  2  3  1  0  0  0  0
  3  4  2  0  0  0  0
  4  5  1  0  0  0  0
  4 25  1  0  0  0  0
  5  6  1  0  0  0  0
  5 18  1  0  0  0  0
  6  7  1  0  0  0  0
  6 26  1  0  0  0  0
  6 27  1  0  0  0  0
  7  8  1  0  0  0  0
  7  9  1  0  0  0  0
  7 28  1  0  0  0  0
  8 29  1  0  0  0  0
  9 10  1  0  0  0  0
  9 30  1  0  0  0  0
  9 31  1  0  0  0  0
 10 11  1  0  0  0  0
 11 12  1  0  0  0  0
 11 32  1  0  0  0  0
 11 33  1  0  0  0  0
 12 17  1  0  0  0  0
 12 13  2  0  0  0  0
 13 14  1  0  0  0  0
 13 34  1  0  0  0  0
 14 15  2  0  0  0  0
 14 35  1  0  0  0  0
 15 16  1  0  0  0  0
 15 36  1  0  0  0  0
 16 17  2  0  0  0  0
 16 37  1  0  0  0  0
 17 38  1  0  0  0  0
 18 19  2  0  0  0  0
 18 20  1  0  0  0  0
 20 21  1  0  0  0  0
 21 39  1  0  0  0  0
 21 40  1  0  0  0  0
 21 41  1  0  0  0  0
M  END
> <s_m_source_file>
AV-unprocessed.smi

> <i_m_source_file_index>
2306

> <i_lp_mmshare_version>
43012

> <i_f3d_flags>
0

> <s_epik_input>
W0NIM11jMW5bY0hdbihjKD1PKWMxW0NIM10pW0NIMl1bQ0BIXShbT0hdKVtDSDJdT1tDSDJdYzJbY0hdW2NIXVtjSF1bY0hdW2NIXTI=

> <s_epik_cmdline>
J2VwaWtfcHl0aG9uJywgJy1waCcsICc3LjAnLCAnLXRuJywgJzgnLCAnLW1hJywgJzIwMCcsICctbWV0YWxfYmluZGluZycsICctaW1hZScsICc8aW5maWxlLm1hZT4nLCAnLW9tYWUnLCAnPG91dGZpbGUubWFlPic=

> <r_lp_tautomer_probability>
1

> <r_epik_Ionization_Penalty>
5.35985e-05

> <r_epik_Ionization_Penalty_Charging>
1.17753e-07

> <r_epik_Ionization_Penalty_Neutral>
5.34808e-05

> <r_epik_State_Penalty>
-0

> <r_epik_Charging_Adjusted_Penalty>
1.17753e-07

> <i_epik_Tot_Q>
0

> <i_epik_Tot_abs_Q>
0

> <r_epik_Metal_State_Penalty>
-0

> <b_epik_Metal_Only>
0

> <s_lp_Force_Field>
OPLS_2005

> <r_lp_Energy>
24.4772

> <b_lp_Chiralities_Consistent>
1

> <s_lp_Variant>
AV-unprocessed.smi:2306-2

> <Gold.Version>
5.8.1

> <Gold.Id.Protein>
6NUR|6NUR_protein|mol2

> <Gold.PLP.Fitness>
50.9664

> <Gold.PLP.PLP>
-43.6553

> <Gold.PLP.part.hbond>
-2.9409

> <Gold.PLP.part.metal>
0.0000

> <Gold.PLP.part.buried>
-4.4866

> <Gold.PLP.part.nonpolar>
-36.5859

> <Gold.PLP.part.repulsive>
0.0000

> <Gold.PLP.ligand.clash>
0.0000

> <Gold.PLP.ligand.torsion>
0.5302

> <Gold.PLP.Chemscore.Hbond>
2.6320

> <Gold.PLP.Chemscore.CHOScore>
0.0000

> <Gold.PLP.Chemscore.Metal>
0.0000

> <Gold.Chemscore.Hbonds>
donor molecule, donor type, donor heavy atom, donor atom, acceptor molecule, acceptor atom, score
      P1  H  6896  6907       L1     8  1.00
      P1  H  6931  6943       L1    19  0.82
      P1  H  6934  6947       L1    19  0.69

> <Gold.PLP.Chemscore.Internal.Correction>
0.4756

> <Gold.Rescore>
     Score         DG    S(hbond)    S(metal)    S(lipo)     H(rot)  DE(clash)    DE(int)     intcor
     20.16     -20.77       2.66        0.00     109.81       2.52       0.01       0.60       ----

> <Gold.Chemscore.Fitness>
20.1617

> <Gold.Chemscore.DG>
-20.7697

> <Gold.Chemscore.ZeroCoef>
-5.4800

> <Gold.Chemscore.Hbond>
2.6596

> <Gold.Chemscore.Metal>
0.0000

> <Gold.Chemscore.Lipo>
109.8119

> <Gold.Chemscore.Internal_Hbond>
0.0000

> <Gold.Chemscore.DEClash>
0.0095

> <Gold.Chemscore.DEInternal>
0.5986

> <Gold.Chemscore.Rot>
2.5162

> <Gold.Chemscore.Internal.Correction>
   9.000000E+99

> <Gold.Chemscore.Hbonds>
donor molecule, donor type, donor heavy atom, donor atom, acceptor molecule, acceptor atom, score
      P1  H  6896  6907       L1     8  0.89
      P1  H  6931  6943       L1    19  0.81
      P1  H  6934  6947       L1    19  0.68

> <Gold.Chemscore.Hbond.Weighted>
-8.8831

> <Gold.Chemscore.Metal.Weighted>
-0.0000

> <Gold.Chemscore.Lipo.Weighted>
-12.8480

> <Gold.Chemscore.Internal_Hbond.Weighted>
0.0000

> <Gold.Chemscore.DEClash.Weighted>
0.0095

> <Gold.Chemscore.DEInternal.Weighted>
0.5986

> <Gold.Chemscore.Rot.Weighted>
6.4414

> <Gold.Chemscore.Internal.Correction.Weighted>
   9.000000E+99

> <Gold.Protein.RotatedTorsions>
[ 6907 6896 6895 6894 ] final  -13.36 input  -60.11 | X-H torsion
[ 7974 7965 7964 7962 ] final  156.70 input  175.53 | X-H torsion
[ 8008 7997 7996 7995 ] final  -19.55 input   59.86 | X-H torsion
[ 10167 10162 10161 10158 ] final -163.30 input  -65.29 | X-H torsion
[ 10718 10713 10712 10709 ] final   81.10 input   66.30 | X-H torsion
[ 10763 10752 10751 10750 ] final  117.52 input  -60.55 | X-H torsion
[ 11005 11000 10999 10996 ] final  -45.37 input  -57.11 | X-H torsion

> <Gold.Protein.ActiveResidues>
 VAL166  LYS551  ARG553  GLY616  TRP617  ASP618  TYR619  PRO620  LYS621  CYS622 
 ASP623  PHE694  ASN695  SER759  ASP760  ASP761  ALA762  ILE779  LEU786  VAL792 
 PHE793  MET794  SER795  GLU796  ALA797  LYS798  CYS799  TRP800  GLU811  SER814 

> <Gold.Protein.RotatedAtoms>
  151.3561  135.0894  159.9418 H   0  0  0  0  0  0  0  0  0  0  0  0  # atno 6907 bound_to 6896
  152.5174  133.9305  159.7588 H   0  0  0  0  0  0  0  0  0  0  0  0  # atno 6908 bound_to 6896
  150.9689  133.6310  159.2770 H   0  0  0  0  0  0  0  0  0  0  0  0  # atno 6909 bound_to 6896
  144.7947  139.7240  143.6207 H   0  0  0  0  0  0  0  0  0  0  0  0  # atno 7974 bound_to 7965
  154.4829  140.2086  155.9722 H   0  0  0  0  0  0  0  0  0  0  0  0  # atno 8008 bound_to 7997
  156.1193  140.3216  155.8153 H   0  0  0  0  0  0  0  0  0  0  0  0  # atno 8009 bound_to 7997
  155.4497  140.0516  157.2993 H   0  0  0  0  0  0  0  0  0  0  0  0  # atno 8010 bound_to 7997
  139.6330  144.0403  152.2031 H   0  0  0  0  0  0  0  0  0  0  0  0  # atno 10167 bound_to 10162
  157.6824  130.9989  150.2177 H   0  0  0  0  0  0  0  0  0  0  0  0  # atno 10718 bound_to 10713
  153.5537  135.3534  155.2770 H   0  0  0  0  0  0  0  0  0  0  0  0  # atno 10763 bound_to 10752
  154.8704  135.4120  154.2909 H   0  0  0  0  0  0  0  0  0  0  0  0  # atno 10764 bound_to 10752
  153.3640  135.7061  153.6758 H   0  0  0  0  0  0  0  0  0  0  0  0  # atno 10765 bound_to 10752
  141.0511  133.6742  156.3004 H   0  0  0  0  0  0  0  0  0  0  0  0  # atno 11005 bound_to 11000
  146.2211  139.5638  142.9617 LP  0  0  0  0  0  0  0  0  0  0  0  0  # atno 17320 bound_to 7965
  145.5703  141.0395  143.2177 LP  0  0  0  0  0  0  0  0  0  0  0  0  # atno 17321 bound_to 7965
  140.0073  144.6250  150.7677 LP  0  0  0  0  0  0  0  0  0  0  0  0  # atno 17342 bound_to 10162
  140.7450  143.2869  151.3439 LP  0  0  0  0  0  0  0  0  0  0  0  0  # atno 17343 bound_to 10162
  156.2835  130.3736  149.7912 LP  0  0  0  0  0  0  0  0  0  0  0  0  # atno 17370 bound_to 10713
  156.5593  130.8376  151.3324 LP  0  0  0  0  0  0  0  0  0  0  0  0  # atno 17371 bound_to 10713
  140.6053  134.5513  157.5524 LP  0  0  0  0  0  0  0  0  0  0  0  0  # atno 17394 bound_to 11000
  139.9351  134.7890  156.0824 LP  0  0  0  0  0  0  0  0  0  0  0  0  # atno 17395 bound_to 11000

$$$$
