AV-unprocessed.smi:1483|AV-procd|sdf|5989|dock3
  -GOLD-   22720 6 83D 1   1.00000     0.00000
 Structure written by MMmdl.
 49 50  0  0  0  0  0  0  0  0  2 V2000
  152.9090  140.0090  158.8197 C   0  0  0  0  0  0  0  0  0  0  0  0
  151.9761  140.3730  157.6836 C   0  0  0  0  0  0  0  0  0  0  0  0
  151.8349  139.5274  156.5632 C   0  0  0  0  0  0  0  0  0  0  0  0
  150.9496  139.9138  155.5387 C   0  0  0  0  0  0  0  0  0  0  0  0
  150.2423  141.1265  155.6720 C   0  0  0  0  0  0  0  0  0  0  0  0
  149.2811  141.5898  154.5928 C   0  0  0  0  0  0  0  0  0  0  0  0
  148.0699  140.6597  154.5395 C   0  0  0  0  0  0  0  0  0  0  0  0
  147.3237  140.5638  155.5135 O   0  0  0  0  0  0  0  0  0  0  0  0
  147.8963  139.9678  153.4027 N   0  0  0  0  0  0  0  0  0  0  0  0
  146.8361  138.9932  153.1685 C   0  0  2  0  0  0  0  0  0  0  0  0
  147.0178  137.7657  154.0788 C   0  0  0  0  0  0  0  0  0  0  0  0
  145.9698  136.6844  153.7693 C   0  0  0  0  0  0  0  0  0  0  0  0
  146.0114  136.2848  152.3387 N   0  3  1  0  0  0  0  0  0  0  0  0
  145.1005  135.1464  152.0507 C   0  0  0  0  0  0  0  0  0  0  0  0
  145.5090  134.3382  150.8000 C   0  0  0  0  0  0  0  0  0  0  0  0
  144.3503  133.4425  150.3380 C   0  0  0  0  0  0  0  0  0  0  0  0
  146.7724  133.4964  151.0457 C   0  0  0  0  0  0  0  0  0  0  0  0
  145.7997  137.4527  151.4421 C   0  0  0  0  0  0  0  0  0  0  0  0
  146.8497  138.5466  151.6987 C   0  0  0  0  0  0  0  0  0  0  0  0
  150.4568  141.8996  156.8328 C   0  0  0  0  0  0  0  0  0  0  0  0
  151.3047  141.5383  157.8193 N   0  0  0  0  0  0  0  0  0  0  0  0
  153.3590  139.0282  158.6634 H   0  0  0  0  0  0  0  0  0  0  0  0
  152.3654  139.9854  159.7646 H   0  0  0  0  0  0  0  0  0  0  0  0
  153.7116  140.7424  158.9021 H   0  0  0  0  0  0  0  0  0  0  0  0
  152.3896  138.6036  156.4880 H   0  0  0  0  0  0  0  0  0  0  0  0
  150.8193  139.2908  154.6659 H   0  0  0  0  0  0  0  0  0  0  0  0
  148.9524  142.6094  154.7998 H   0  0  0  0  0  0  0  0  0  0  0  0
  149.7860  141.6110  153.6259 H   0  0  0  0  0  0  0  0  0  0  0  0
  148.5608  140.1114  152.6559 H   0  0  0  0  0  0  0  0  0  0  0  0
  145.8687  139.4545  153.3774 H   0  0  0  0  0  0  0  0  0  0  0  0
  148.0181  137.3502  153.9461 H   0  0  0  0  0  0  0  0  0  0  0  0
  146.9420  138.0589  155.1266 H   0  0  0  0  0  0  0  0  0  0  0  0
  146.1597  135.8159  154.4012 H   0  0  0  0  0  0  0  0  0  0  0  0
  144.9711  137.0458  154.0187 H   0  0  0  0  0  0  0  0  0  0  0  0
  145.0893  134.4654  152.9033 H   0  0  0  0  0  0  0  0  0  0  0  0
  144.0803  135.5214  151.9514 H   0  0  0  0  0  0  0  0  0  0  0  0
  145.7189  135.0236  149.9797 H   0  0  0  0  0  0  0  0  0  0  0  0
  144.0823  132.7126  151.1026 H   0  0  0  0  0  0  0  0  0  0  0  0
  144.6134  132.8945  149.4328 H   0  0  0  0  0  0  0  0  0  0  0  0
  143.4610  134.0328  150.1158 H   0  0  0  0  0  0  0  0  0  0  0  0
  146.6250  132.7865  151.8602 H   0  0  0  0  0  0  0  0  0  0  0  0
  147.6283  134.1222  151.2996 H   0  0  0  0  0  0  0  0  0  0  0  0
  147.0419  132.9269  150.1554 H   0  0  0  0  0  0  0  0  0  0  0  0
  145.8595  137.1497  150.3978 H   0  0  0  0  0  0  0  0  0  0  0  0
  144.7968  137.8545  151.5954 H   0  0  0  0  0  0  0  0  0  0  0  0
  146.6595  139.4001  151.0468 H   0  0  0  0  0  0  0  0  0  0  0  0
  147.8384  138.1691  151.4325 H   0  0  0  0  0  0  0  0  0  0  0  0
  149.9386  142.8372  156.9717 H   0  0  0  0  0  0  0  0  0  0  0  0
  146.9483  135.9476  152.1694 H   0  0  0  0  0  0  0  0  0  0  0  0
  1  2  1  0  0  0  0
  1 22  1  0  0  0  0
  1 23  1  0  0  0  0
  1 24  1  0  0  0  0
  2 21  1  0  0  0  0
  2  3  2  0  0  0  0
  3  4  1  0  0  0  0
  3 25  1  0  0  0  0
  4  5  2  0  0  0  0
  4 26  1  0  0  0  0
  5  6  1  0  0  0  0
  5 20  1  0  0  0  0
  6  7  1  0  0  0  0
  6 27  1  0  0  0  0
  6 28  1  0  0  0  0
  7  8  2  0  0  0  0
  7  9  1  0  0  0  0
  9 10  1  0  0  0  0
  9 29  1  0  0  0  0
 10 19  1  0  0  0  0
 10 11  1  0  0  0  0
 10 30  1  0  0  0  0
 11 12  1  0  0  0  0
 11 31  1  0  0  0  0
 11 32  1  0  0  0  0
 12 13  1  0  0  0  0
 12 33  1  0  0  0  0
 12 34  1  0  0  0  0
 13 14  1  0  0  0  0
 13 18  1  0  0  0  0
 13 49  1  0  0  0  0
 14 15  1  0  0  0  0
 14 35  1  0  0  0  0
 14 36  1  0  0  0  0
 15 16  1  0  0  0  0
 15 17  1  0  0  0  0
 15 37  1  0  0  0  0
 16 38  1  0  0  0  0
 16 39  1  0  0  0  0
 16 40  1  0  0  0  0
 17 41  1  0  0  0  0
 17 42  1  0  0  0  0
 17 43  1  0  0  0  0
 18 19  1  0  0  0  0
 18 44  1  0  0  0  0
 18 45  1  0  0  0  0
 19 46  1  0  0  0  0
 19 47  1  0  0  0  0
 20 21  2  0  0  0  0
 20 48  1  0  0  0  0
M  CHG  1  13   1
M  END
> <s_m_source_file>
AV-unprocessed.smi

> <i_m_source_file_index>
1483

> <i_lp_mmshare_version>
43012

> <i_f3d_flags>
0

> <s_epik_input>
W0NIM11jMVtjSF1bY0hdYyhbY0hdbjEpW0NIMl1DKD1PKVtOSF1bQ0hdMltDSDJdW0NIMl1OKFtDSDJdW0NIMl0yKVtDSDJdW0NIXShbQ0gzXSlbQ0gzXQ==

> <s_epik_cmdline>
J2VwaWtfcHl0aG9uJywgJy1waCcsICc3LjAnLCAnLXRuJywgJzgnLCAnLW1hJywgJzIwMCcsICctbWV0YWxfYmluZGluZycsICctaW1hZScsICc8aW5maWxlLm1hZT4nLCAnLW9tYWUnLCAnPG91dGZpbGUubWFlPic=

> <r_epik_Ionization_Penalty>
0.0186701

> <r_epik_Ionization_Penalty_Charging>
0.00405837

> <r_epik_Ionization_Penalty_Neutral>
0.0146117

> <r_epik_State_Penalty>
0.0114383

> <r_epik_Charging_Adjusted_Penalty>
0.0154967

> <i_epik_Tot_Q>
1

> <i_epik_Tot_abs_Q>
1

> <r_epik_Metal_State_Penalty>
0.0111573

> <b_epik_Metal_Only>
0

> <s_lp_Force_Field>
OPLS_2005

> <r_lp_Energy>
16.8869

> <b_lp_Chiralities_Consistent>
1

> <s_lp_Variant>
AV-unprocessed.smi:1483-1

> <Gold.Version>
5.8.1

> <Gold.Id.Protein>
6NUR|6NUR_protein|mol2

> <Gold.PLP.Fitness>
47.4478

> <Gold.PLP.PLP>
-36.1655

> <Gold.PLP.part.hbond>
-2.0000

> <Gold.PLP.part.metal>
0.0000

> <Gold.PLP.part.buried>
1.1498

> <Gold.PLP.part.nonpolar>
-35.5514

> <Gold.PLP.part.repulsive>
0.1611

> <Gold.PLP.ligand.clash>
0.0000

> <Gold.PLP.ligand.torsion>
0.4005

> <Gold.PLP.Chemscore.Hbond>
3.0000

> <Gold.PLP.Chemscore.CHOScore>
1.0000

> <Gold.PLP.Chemscore.Metal>
0.0000

> <Gold.Chemscore.Hbonds>
donor molecule, donor type, donor heavy atom, donor atom, acceptor molecule, acceptor atom, score
      L1  H     9    29       P1  7957  1.00
      L1  H    13    49       P1  7948  2.00
      L1  C    20    48       P1  8028  1.00

> <Gold.PLP.Chemscore.Internal.Correction>
0.0833

> <Gold.Rescore>
     Score         DG    S(hbond)    S(metal)    S(lipo)     H(rot)  DE(clash)    DE(int)     intcor
     18.50     -20.26       1.99        0.00     101.79       1.47       1.24       0.52       ----

> <Gold.Chemscore.Fitness>
18.4977

> <Gold.Chemscore.DG>
-20.2625

> <Gold.Chemscore.ZeroCoef>
-5.4800

> <Gold.Chemscore.Hbond>
1.9888

> <Gold.Chemscore.Metal>
0.0000

> <Gold.Chemscore.Lipo>
101.7885

> <Gold.Chemscore.Internal_Hbond>
0.0000

> <Gold.Chemscore.DEClash>
1.2416

> <Gold.Chemscore.DEInternal>
0.5233

> <Gold.Chemscore.Rot>
1.4723

> <Gold.Chemscore.Internal.Correction>
   9.000000E+99

> <Gold.Chemscore.Hbonds>
donor molecule, donor type, donor heavy atom, donor atom, acceptor molecule, acceptor atom, score
      L1  H     9    29       P1  7957  1.00
      L1  H    13    49       P1  7948  0.91

> <Gold.Chemscore.Hbond.Weighted>
-6.6424

> <Gold.Chemscore.Metal.Weighted>
-0.0000

> <Gold.Chemscore.Lipo.Weighted>
-11.9093

> <Gold.Chemscore.Internal_Hbond.Weighted>
0.0000

> <Gold.Chemscore.DEClash.Weighted>
1.2416

> <Gold.Chemscore.DEInternal.Weighted>
0.5233

> <Gold.Chemscore.Rot.Weighted>
3.7691

> <Gold.Chemscore.Internal.Correction.Weighted>
   9.000000E+99

> <Gold.Protein.RotatedTorsions>
[ 6907 6896 6895 6894 ] final   39.55 input  -60.11 | X-H torsion
[ 7974 7965 7964 7962 ] final   86.76 input  175.53 | X-H torsion
[ 8008 7997 7996 7995 ] final  174.42 input   59.86 | X-H torsion
[ 10167 10162 10161 10158 ] final -115.12 input  -65.29 | X-H torsion
[ 10718 10713 10712 10709 ] final -144.32 input   66.30 | X-H torsion
[ 10763 10752 10751 10750 ] final -177.93 input  -60.55 | X-H torsion
[ 11005 11000 10999 10996 ] final  -29.80 input  -57.11 | X-H torsion

> <Gold.Protein.ActiveResidues>
 VAL166  LYS551  ARG553  GLY616  TRP617  ASP618  TYR619  PRO620  LYS621  CYS622 
 ASP623  PHE694  ASN695  SER759  ASP760  ASP761  ALA762  ILE779  LEU786  VAL792 
 PHE793  MET794  SER795  GLU796  ALA797  LYS798  CYS799  TRP800  GLU811  SER814 

> <Gold.Protein.RotatedAtoms>
  152.1710  134.8834  160.0534 H   0  0  0  0  0  0  0  0  0  0  0  0  # atno 6907 bound_to 6896
  151.9793  133.3747  159.4109 H   0  0  0  0  0  0  0  0  0  0  0  0  # atno 6908 bound_to 6896
  150.6902  134.3978  159.5149 H   0  0  0  0  0  0  0  0  0  0  0  0  # atno 6909 bound_to 6896
  145.5680  139.2310  143.2422 H   0  0  0  0  0  0  0  0  0  0  0  0  # atno 7974 bound_to 7965
  156.0975  140.1435  156.9511 H   0  0  0  0  0  0  0  0  0  0  0  0  # atno 8008 bound_to 7997
  154.4681  140.0919  156.7119 H   0  0  0  0  0  0  0  0  0  0  0  0  # atno 8009 bound_to 7997
  155.4815  140.3445  155.4343 H   0  0  0  0  0  0  0  0  0  0  0  0  # atno 8010 bound_to 7997
  140.0936  143.4677  152.1855 H   0  0  0  0  0  0  0  0  0  0  0  0  # atno 10167 bound_to 10162
  156.3686  130.7776  151.1954 H   0  0  0  0  0  0  0  0  0  0  0  0  # atno 10718 bound_to 10713
  154.5540  135.2815  155.0982 H   0  0  0  0  0  0  0  0  0  0  0  0  # atno 10763 bound_to 10752
  154.2417  135.6356  153.5213 H   0  0  0  0  0  0  0  0  0  0  0  0  # atno 10764 bound_to 10752
  153.0010  135.5561  154.6114 H   0  0  0  0  0  0  0  0  0  0  0  0  # atno 10765 bound_to 10752
  140.9327  133.7328  156.0960 H   0  0  0  0  0  0  0  0  0  0  0  0  # atno 11005 bound_to 11000
  146.1804  140.6506  142.9192 LP  0  0  0  0  0  0  0  0  0  0  0  0  # atno 17320 bound_to 7965
  144.7451  140.5046  143.6841 LP  0  0  0  0  0  0  0  0  0  0  0  0  # atno 17321 bound_to 7965
  139.5711  144.7463  151.3889 LP  0  0  0  0  0  0  0  0  0  0  0  0  # atno 17342 bound_to 10162
  140.7015  143.7619  150.7411 LP  0  0  0  0  0  0  0  0  0  0  0  0  # atno 17343 bound_to 10162
  157.7481  131.0379  150.4476 LP  0  0  0  0  0  0  0  0  0  0  0  0  # atno 17370 bound_to 10713
  156.4699  130.4050  149.6524 LP  0  0  0  0  0  0  0  0  0  0  0  0  # atno 17371 bound_to 10713
  140.7840  134.3693  157.5480 LP  0  0  0  0  0  0  0  0  0  0  0  0  # atno 17394 bound_to 11000
  139.8800  134.9099  156.3002 LP  0  0  0  0  0  0  0  0  0  0  0  0  # atno 17395 bound_to 11000

$$$$
