AV-unprocessed.smi:2872|AV-procd|sdf|11035|dock2
  -GOLD-   2272015503D 1   1.00000     0.00000
 Structure written by MMmdl.
 40 42  0  0  0  0  0  0  0  0  2 V2000
  151.9549  135.5760  156.0728 O   0  0  0  0  0  0  0  0  0  0  0  0
  151.1408  135.4120  155.1657 C   0  0  0  0  0  0  0  0  0  0  0  0
  150.7320  136.3807  154.3339 N   0  0  0  0  0  0  0  0  0  0  0  0
  151.2270  137.7543  154.3435 C   0  0  0  0  0  0  0  0  0  0  0  0
  150.1584  138.7996  154.2185 C   0  0  0  0  0  0  0  0  0  0  0  0
  149.0272  138.7342  153.4571 N   0  3  0  0  0  0  0  0  0  0  0  0
  148.2864  139.9073  153.6035 C   0  0  0  0  0  0  0  0  0  0  0  0
  147.0794  140.3016  153.0343 C   0  0  0  0  0  0  0  0  0  0  0  0
  146.5964  141.5770  153.3950 C   0  0  0  0  0  0  0  0  0  0  0  0
  147.3072  142.4057  154.2878 C   0  0  0  0  0  0  0  0  0  0  0  0
  148.5288  141.9937  154.8601 C   0  0  0  0  0  0  0  0  0  0  0  0
  148.9975  140.7309  154.4991 C   0  0  0  0  0  0  0  0  0  0  0  0
  150.1386  140.0050  154.8565 N   0  0  0  0  0  0  0  0  0  0  0  0
  151.0971  140.5949  155.7993 C   0  0  0  0  0  0  0  0  0  0  0  0
  150.4869  140.7868  157.1928 C   0  0  0  0  0  0  0  0  0  0  0  0
  150.8871  142.0571  157.6854 O   0  0  0  0  0  0  0  0  0  0  0  0
  151.8191  142.0989  158.7000 C   0  0  0  0  0  0  0  0  0  0  0  0
  152.0826  143.3598  159.2742 C   0  0  0  0  0  0  0  0  0  0  0  0
  153.0195  143.4962  160.3166 C   0  0  0  0  0  0  0  0  0  0  0  0
  153.7059  142.3659  160.7973 C   0  0  0  0  0  0  0  0  0  0  0  0
  153.4538  141.1015  160.2335 C   0  0  0  0  0  0  0  0  0  0  0  0
  152.5161  140.9653  159.1908 C   0  0  0  0  0  0  0  0  0  0  0  0
  150.6486  134.4561  154.9294 H   0  0  0  0  0  0  0  0  0  0  0  0
  150.0552  136.1430  153.6229 H   0  0  0  0  0  0  0  0  0  0  0  0
  151.8039  137.9416  155.2506 H   0  0  0  0  0  0  0  0  0  0  0  0
  151.9199  137.8649  153.5090 H   0  0  0  0  0  0  0  0  0  0  0  0
  146.5340  139.6686  152.3497 H   0  0  0  0  0  0  0  0  0  0  0  0
  145.6631  141.9269  152.9780 H   0  0  0  0  0  0  0  0  0  0  0  0
  146.9076  143.3775  154.5394 H   0  0  0  0  0  0  0  0  0  0  0  0
  149.0665  142.6359  155.5421 H   0  0  0  0  0  0  0  0  0  0  0  0
  151.9857  139.9642  155.8414 H   0  0  0  0  0  0  0  0  0  0  0  0
  151.4181  141.5549  155.3937 H   0  0  0  0  0  0  0  0  0  0  0  0
  149.3988  140.7320  157.1298 H   0  0  0  0  0  0  0  0  0  0  0  0
  150.8314  139.9971  157.8621 H   0  0  0  0  0  0  0  0  0  0  0  0
  151.5604  144.2328  158.9108 H   0  0  0  0  0  0  0  0  0  0  0  0
  153.2109  144.4681  160.7469 H   0  0  0  0  0  0  0  0  0  0  0  0
  154.4247  142.4685  161.5967 H   0  0  0  0  0  0  0  0  0  0  0  0
  153.9804  140.2334  160.6015 H   0  0  0  0  0  0  0  0  0  0  0  0
  152.3504  139.9792  158.7845 H   0  0  0  0  0  0  0  0  0  0  0  0
  148.7820  137.9379  152.8828 H   0  0  0  0  0  0  0  0  0  0  0  0
  1  2  2  0  0  0  0
  2  3  1  0  0  0  0
  2 23  1  0  0  0  0
  3  4  1  0  0  0  0
  3 24  1  0  0  0  0
  4  5  1  0  0  0  0
  4 25  1  0  0  0  0
  4 26  1  0  0  0  0
  5 13  1  0  0  0  0
  5  6  2  0  0  0  0
  6  7  1  0  0  0  0
  6 40  1  0  0  0  0
  7 12  2  0  0  0  0
  7  8  1  0  0  0  0
  8  9  2  0  0  0  0
  8 27  1  0  0  0  0
  9 10  1  0  0  0  0
  9 28  1  0  0  0  0
 10 11  2  0  0  0  0
 10 29  1  0  0  0  0
 11 12  1  0  0  0  0
 11 30  1  0  0  0  0
 12 13  1  0  0  0  0
 13 14  1  0  0  0  0
 14 15  1  0  0  0  0
 14 31  1  0  0  0  0
 14 32  1  0  0  0  0
 15 16  1  0  0  0  0
 15 33  1  0  0  0  0
 15 34  1  0  0  0  0
 16 17  1  0  0  0  0
 17 22  1  0  0  0  0
 17 18  2  0  0  0  0
 18 19  1  0  0  0  0
 18 35  1  0  0  0  0
 19 20  2  0  0  0  0
 19 36  1  0  0  0  0
 20 21  1  0  0  0  0
 20 37  1  0  0  0  0
 21 22  2  0  0  0  0
 21 38  1  0  0  0  0
 22 39  1  0  0  0  0
M  CHG  1   6   1
M  END
> <s_m_source_file>
AV-unprocessed.smi

> <i_m_source_file_index>
2872

> <i_lp_mmshare_version>
43012

> <i_f3d_flags>
0

> <s_epik_input>
Tz1bQ0hdW05IXVtDSDJdYyhuMSluKGMoYzEyKVtjSF1bY0hdW2NIXVtjSF0yKVtDSDJdW0NIMl1PYzNbY0hdW2NIXVtjSF1bY0hdW2NIXTM=

> <s_epik_cmdline>
J2VwaWtfcHl0aG9uJywgJy1waCcsICc3LjAnLCAnLXRuJywgJzgnLCAnLW1hJywgJzIwMCcsICctbWV0YWxfYmluZGluZycsICctaW1hZScsICc8aW5maWxlLm1hZT4nLCAnLW9tYWUnLCAnPG91dGZpbGUubWFlPic=

> <r_lp_tautomer_probability>
1

> <r_epik_Ionization_Penalty>
1.33318

> <r_epik_Ionization_Penalty_Charging>
1.33318

> <r_epik_Ionization_Penalty_Neutral>
7.38905e-08

> <r_epik_State_Penalty>
1.40978

> <r_epik_Charging_Adjusted_Penalty>
2.74296

> <i_epik_Tot_Q>
1

> <i_epik_Tot_abs_Q>
1

> <r_epik_Metal_State_Penalty>
1.46995

> <b_epik_Metal_Only>
0

> <s_lp_Force_Field>
OPLS_2005

> <r_lp_Energy>
15.6009

> <b_lp_Chiralities_Consistent>
1

> <s_lp_Variant>
AV-unprocessed.smi:2872-2

> <Gold.Version>
5.8.1

> <Gold.Id.Protein>
6NUR|6NUR_protein|mol2

> <Gold.PLP.Fitness>
55.7276

> <Gold.PLP.PLP>
-48.1047

> <Gold.PLP.part.hbond>
-5.0000

> <Gold.PLP.part.metal>
0.0000

> <Gold.PLP.part.buried>
2.7865

> <Gold.PLP.part.nonpolar>
-44.4122

> <Gold.PLP.part.repulsive>
0.2021

> <Gold.PLP.ligand.clash>
0.0000

> <Gold.PLP.ligand.torsion>
1.1413

> <Gold.PLP.Chemscore.Hbond>
3.2544

> <Gold.PLP.Chemscore.CHOScore>
0.0000

> <Gold.PLP.Chemscore.Metal>
0.0000

> <Gold.Chemscore.Hbonds>
donor molecule, donor type, donor heavy atom, donor atom, acceptor molecule, acceptor atom, score
      L1  H     3    24       P1  7948  0.64
      L1  H     6    40       P1  7948  2.00

> <Gold.PLP.Chemscore.Internal.Correction>
0.1422

> <Gold.Rescore>
     Score         DG    S(hbond)    S(metal)    S(lipo)     H(rot)  DE(clash)    DE(int)     intcor
     15.03     -16.98       0.99        0.00     124.41       2.49       0.84       1.10       ----

> <Gold.Chemscore.Fitness>
15.0330

> <Gold.Chemscore.DG>
-16.9754

> <Gold.Chemscore.ZeroCoef>
-5.4800

> <Gold.Chemscore.Hbond>
0.9886

> <Gold.Chemscore.Metal>
0.0000

> <Gold.Chemscore.Lipo>
124.4119

> <Gold.Chemscore.Internal_Hbond>
0.0000

> <Gold.Chemscore.DEClash>
0.8432

> <Gold.Chemscore.DEInternal>
1.0992

> <Gold.Chemscore.Rot>
2.4854

> <Gold.Chemscore.Internal.Correction>
   9.000000E+99

> <Gold.Chemscore.Hbonds>
donor molecule, donor type, donor heavy atom, donor atom, acceptor molecule, acceptor atom, score
      L1  H     3    24       P1  7948  0.05
      L1  H     6    40       P1  7948  0.98

> <Gold.Chemscore.Hbond.Weighted>
-3.3019

> <Gold.Chemscore.Metal.Weighted>
-0.0000

> <Gold.Chemscore.Lipo.Weighted>
-14.5562

> <Gold.Chemscore.Internal_Hbond.Weighted>
0.0000

> <Gold.Chemscore.DEClash.Weighted>
0.8432

> <Gold.Chemscore.DEInternal.Weighted>
1.0992

> <Gold.Chemscore.Rot.Weighted>
6.3627

> <Gold.Chemscore.Internal.Correction.Weighted>
   9.000000E+99

> <Gold.Protein.RotatedTorsions>
[ 6907 6896 6895 6894 ] final  145.02 input  -60.11 | X-H torsion
[ 7974 7965 7964 7962 ] final  122.09 input  175.53 | X-H torsion
[ 8008 7997 7996 7995 ] final   70.57 input   59.86 | X-H torsion
[ 10167 10162 10161 10158 ] final   69.77 input  -65.29 | X-H torsion
[ 10718 10713 10712 10709 ] final -176.44 input   66.30 | X-H torsion
[ 10763 10752 10751 10750 ] final   69.47 input  -60.55 | X-H torsion
[ 11005 11000 10999 10996 ] final   92.99 input  -57.11 | X-H torsion

> <Gold.Protein.ActiveResidues>
 VAL166  LYS551  ARG553  GLY616  TRP617  ASP618  TYR619  PRO620  LYS621  CYS622 
 ASP623  PHE694  ASN695  SER759  ASP760  ASP761  ALA762  ILE779  LEU786  VAL792 
 PHE793  MET794  SER795  GLU796  ALA797  LYS798  CYS799  TRP800  GLU811  SER814 

> <Gold.Protein.RotatedAtoms>
  152.1862  133.4741  159.4983 H   0  0  0  0  0  0  0  0  0  0  0  0  # atno 6907 bound_to 6896
  150.6943  134.1771  159.4243 H   0  0  0  0  0  0  0  0  0  0  0  0  # atno 6908 bound_to 6896
  151.9684  135.0089  160.0602 H   0  0  0  0  0  0  0  0  0  0  0  0  # atno 6909 bound_to 6896
  145.1116  139.3449  143.4760 H   0  0  0  0  0  0  0  0  0  0  0  0  # atno 7974 bound_to 7965
  155.7408  140.3490  155.5103 H   0  0  0  0  0  0  0  0  0  0  0  0  # atno 8008 bound_to 7997
  155.9095  140.1048  157.1311 H   0  0  0  0  0  0  0  0  0  0  0  0  # atno 8009 bound_to 7997
  154.4054  140.1270  156.4526 H   0  0  0  0  0  0  0  0  0  0  0  0  # atno 8010 bound_to 7997
  140.0642  144.5208  150.7273 H   0  0  0  0  0  0  0  0  0  0  0  0  # atno 10167 bound_to 10162
  156.8148  130.9599  151.3114 H   0  0  0  0  0  0  0  0  0  0  0  0  # atno 10718 bound_to 10713
  153.0289  135.5209  154.7293 H   0  0  0  0  0  0  0  0  0  0  0  0  # atno 10763 bound_to 10752
  154.6325  135.2902  155.0201 H   0  0  0  0  0  0  0  0  0  0  0  0  # atno 10764 bound_to 10752
  154.1148  135.6616  153.4944 H   0  0  0  0  0  0  0  0  0  0  0  0  # atno 10765 bound_to 10752
  139.8816  134.8765  156.3653 H   0  0  0  0  0  0  0  0  0  0  0  0  # atno 11005 bound_to 11000
  146.3526  140.1037  142.8607 LP  0  0  0  0  0  0  0  0  0  0  0  0  # atno 17320 bound_to 7965
  145.0841  140.9240  143.4808 LP  0  0  0  0  0  0  0  0  0  0  0  0  # atno 17321 bound_to 7965
  140.7157  143.2543  151.4441 LP  0  0  0  0  0  0  0  0  0  0  0  0  # atno 17342 bound_to 10162
  139.5875  144.1571  152.2047 LP  0  0  0  0  0  0  0  0  0  0  0  0  # atno 17343 bound_to 10162
  157.6487  130.8866  149.9590 LP  0  0  0  0  0  0  0  0  0  0  0  0  # atno 17370 bound_to 10713
  156.1023  130.3655  150.0195 LP  0  0  0  0  0  0  0  0  0  0  0  0  # atno 17371 bound_to 10713
  140.9501  133.7457  156.0260 LP  0  0  0  0  0  0  0  0  0  0  0  0  # atno 17394 bound_to 11000
  140.8116  134.3393  157.5410 LP  0  0  0  0  0  0  0  0  0  0  0  0  # atno 17395 bound_to 11000

$$$$
