AV-unprocessed.smi:177|AV-procd|sdf|1439|dock6
  -GOLD-   2262019223D 1   1.00000     0.00000
 Structure written by MMmdl.
 61 65  0  0  0  0  0  0  0  0  1 V2000
  151.9594  145.1795  159.3410 C   0  0  0  0  0  0  0  0  0  0  0  0
  151.8615  144.3553  158.1895 O   0  0  0  0  0  0  0  0  0  0  0  0
  151.3766  143.0438  158.4478 C   0  0  2  0  0  0  0  0  0  0  0  0
  152.5009  142.2657  159.1491 C   0  0  0  0  0  0  0  0  0  0  0  0
  152.0774  140.8184  159.4428 C   0  0  0  0  0  0  0  0  0  0  0  0
  151.6200  140.0795  158.1734 C   0  0  2  0  0  0  0  0  0  0  0  0
  152.7436  139.8477  157.3273 O   0  0  0  0  0  0  0  0  0  0  0  0
  152.4035  139.0558  156.1942 C   0  0  0  0  0  0  0  0  0  0  0  0
  151.3543  139.7877  155.3427 C   0  0  0  0  0  0  0  0  0  0  0  0
  150.2022  140.1589  156.1648 N   0  0  0  0  0  0  0  0  0  0  0  0
  149.0659  140.5523  155.5294 C   0  0  0  0  0  0  0  0  0  0  0  0
  148.9996  140.4913  154.1719 N   0  0  0  0  0  0  0  0  0  0  0  0
  147.8988  140.8880  153.5279 C   0  0  0  0  0  0  0  0  0  0  0  0
  146.7657  141.3734  154.0362 N   0  0  0  0  0  0  0  0  0  0  0  0
  146.8202  141.4358  155.3971 C   0  0  0  0  0  0  0  0  0  0  0  0
  147.9167  141.0407  156.2158 C   0  0  0  0  0  0  0  0  0  0  0  0
  147.5887  141.2168  157.5550 N   0  0  0  0  0  0  0  0  0  0  0  0
  146.3776  141.7009  157.5280 C   0  0  0  0  0  0  0  0  0  0  0  0
  145.8457  141.8852  156.2719 N   0  0  0  0  0  0  0  0  0  0  0  0
  144.5215  142.4010  155.9555 C   0  0  0  0  0  0  0  0  0  0  0  0
  143.3275  141.4516  156.2794 C   0  0  0  0  0  0  0  0  0  0  0  0
  143.7451  139.9584  156.1218 C   0  0  0  0  0  0  0  0  0  0  0  0
  144.3847  139.6708  154.8946 O   0  0  0  0  0  0  0  0  0  0  0  0
  142.7470  141.7414  157.6878 C   0  0  0  0  0  0  0  0  0  0  0  0
  141.3856  141.0645  157.9187 C   0  0  0  0  0  0  0  0  0  0  0  0
  140.4600  141.4987  156.9310 O   0  0  0  0  0  0  0  0  0  0  0  0
  140.8490  141.1358  155.6129 C   0  0  0  0  0  0  0  0  0  0  0  0
  142.2054  141.7780  155.2608 C   0  0  0  0  0  0  0  0  0  0  0  0
  150.5384  140.8721  157.4008 C   0  0  2  0  0  0  0  0  0  0  0  0
  150.9771  142.3327  157.1404 C   0  0  0  0  0  0  0  0  0  0  0  0
  152.3774  146.1456  159.0589 H   0  0  0  0  0  0  0  0  0  0  0  0
  152.6193  144.7376  160.0883 H   0  0  0  0  0  0  0  0  0  0  0  0
  150.9865  145.3612  159.7969 H   0  0  0  0  0  0  0  0  0  0  0  0
  150.5189  143.0926  159.1218 H   0  0  0  0  0  0  0  0  0  0  0  0
  153.3958  142.2663  158.5250 H   0  0  0  0  0  0  0  0  0  0  0  0
  152.7734  142.7648  160.0795 H   0  0  0  0  0  0  0  0  0  0  0  0
  152.8976  140.2763  159.9143 H   0  0  0  0  0  0  0  0  0  0  0  0
  151.2607  140.8267  160.1655 H   0  0  0  0  0  0  0  0  0  0  0  0
  151.2133  139.1126  158.4762 H   0  0  0  0  0  0  0  0  0  0  0  0
  153.3020  138.8721  155.6055 H   0  0  0  0  0  0  0  0  0  0  0  0
  152.0305  138.0823  156.5166 H   0  0  0  0  0  0  0  0  0  0  0  0
  151.7920  140.6793  154.8929 H   0  0  0  0  0  0  0  0  0  0  0  0
  151.0389  139.1378  154.5254 H   0  0  0  0  0  0  0  0  0  0  0  0
  147.9315  140.8072  152.4514 H   0  0  0  0  0  0  0  0  0  0  0  0
  145.8383  141.9497  158.4304 H   0  0  0  0  0  0  0  0  0  0  0  0
  144.4063  143.3435  156.4926 H   0  0  0  0  0  0  0  0  0  0  0  0
  144.5091  142.6643  154.8969 H   0  0  0  0  0  0  0  0  0  0  0  0
  144.4363  139.6521  156.9045 H   0  0  0  0  0  0  0  0  0  0  0  0
  142.8739  139.3097  156.2194 H   0  0  0  0  0  0  0  0  0  0  0  0
  143.9061  140.0952  154.1988 H   0  0  0  0  0  0  0  0  0  0  0  0
  143.4426  141.4427  158.4721 H   0  0  0  0  0  0  0  0  0  0  0  0
  142.6097  142.8171  157.8053 H   0  0  0  0  0  0  0  0  0  0  0  0
  141.4717  139.9773  157.9083 H   0  0  0  0  0  0  0  0  0  0  0  0
  140.9983  141.3389  158.9000 H   0  0  0  0  0  0  0  0  0  0  0  0
  140.8739  140.0504  155.5144 H   0  0  0  0  0  0  0  0  0  0  0  0
  140.0851  141.4876  154.9193 H   0  0  0  0  0  0  0  0  0  0  0  0
  142.0559  142.8579  155.2177 H   0  0  0  0  0  0  0  0  0  0  0  0
  142.5063  141.4781  154.2562 H   0  0  0  0  0  0  0  0  0  0  0  0
  149.6623  140.9077  158.0457 H   0  0  0  0  0  0  0  0  0  0  0  0
  150.1652  142.8717  156.6529 H   0  0  0  0  0  0  0  0  0  0  0  0
  151.8213  142.3594  156.4511 H   0  0  0  0  0  0  0  0  0  0  0  0
  1  2  1  0  0  0  0
  1 31  1  0  0  0  0
  1 32  1  0  0  0  0
  1 33  1  0  0  0  0
  2  3  1  0  0  0  0
  3 30  1  0  0  0  0
  3  4  1  0  0  0  0
  3 34  1  0  0  0  0
  4  5  1  0  0  0  0
  4 35  1  0  0  0  0
  4 36  1  0  0  0  0
  5  6  1  0  0  0  0
  5 37  1  0  0  0  0
  5 38  1  0  0  0  0
  6 29  1  0  0  0  0
  6  7  1  0  0  0  0
  6 39  1  0  0  0  0
  7  8  1  0  0  0  0
  8  9  1  0  0  0  0
  8 40  1  0  0  0  0
  8 41  1  0  0  0  0
  9 10  1  0  0  0  0
  9 42  1  0  0  0  0
  9 43  1  0  0  0  0
 10 11  1  0  0  0  0
 10 29  1  0  0  0  0
 11 16  1  0  0  0  0
 11 12  2  0  0  0  0
 12 13  1  0  0  0  0
 13 14  2  0  0  0  0
 13 44  1  0  0  0  0
 14 15  1  0  0  0  0
 15 19  1  0  0  0  0
 15 16  2  0  0  0  0
 16 17  1  0  0  0  0
 17 18  2  0  0  0  0
 18 19  1  0  0  0  0
 18 45  1  0  0  0  0
 19 20  1  0  0  0  0
 20 21  1  0  0  0  0
 20 46  1  0  0  0  0
 20 47  1  0  0  0  0
 21 28  1  0  0  0  0
 21 22  1  0  0  0  0
 21 24  1  0  0  0  0
 22 23  1  0  0  0  0
 22 48  1  0  0  0  0
 22 49  1  0  0  0  0
 23 50  1  0  0  0  0
 24 25  1  0  0  0  0
 24 51  1  0  0  0  0
 24 52  1  0  0  0  0
 25 26  1  0  0  0  0
 25 53  1  0  0  0  0
 25 54  1  0  0  0  0
 26 27  1  0  0  0  0
 27 28  1  0  0  0  0
 27 55  1  0  0  0  0
 27 56  1  0  0  0  0
 28 57  1  0  0  0  0
 28 58  1  0  0  0  0
 29 30  1  0  0  0  0
 29 59  1  0  0  0  0
 30 60  1  0  0  0  0
 30 61  1  0  0  0  0
M  END
> <s_m_source_file>
AV-unprocessed.smi

> <i_m_source_file_index>
177

> <i_lp_mmshare_version>
43012

> <i_f3d_flags>
0

> <s_epik_input>
W0NIM11PW0NASF0oW0NIMl1bQ0gyXTEpW0NIMl1bQ0BIXShbQ0BASF0xMilOKFtDSDJdW0NIMl1PMiljKG5bY0hdbjMpYyhjMzQpbltjSF1uNFtDSDJdQzUoW0NIMl1bT0hdKVtDSDJdW0NIMl1PW0NIMl1bQ0gyXTU=

> <s_epik_cmdline>
J2VwaWtfcHl0aG9uJywgJy1waCcsICc3LjAnLCAnLXRuJywgJzgnLCAnLW1hJywgJzIwMCcsICctbWV0YWxfYmluZGluZycsICctaW1hZScsICc8aW5maWxlLm1hZT4nLCAnLW9tYWUnLCAnPG91dGZpbGUubWFlPic=

> <r_lp_tautomer_probability>
1

> <r_epik_Ionization_Penalty>
0.0065899

> <r_epik_Ionization_Penalty_Charging>
0

> <r_epik_Ionization_Penalty_Neutral>
0.0065899

> <r_epik_State_Penalty>
0.00470042

> <r_epik_Charging_Adjusted_Penalty>
0.00470042

> <i_epik_Tot_Q>
0

> <i_epik_Tot_abs_Q>
0

> <r_epik_Metal_State_Penalty>
-0

> <b_epik_Metal_Only>
0

> <s_lp_Force_Field>
OPLS_2005

> <r_lp_Energy>
44.7828

> <b_lp_Chiralities_Consistent>
1

> <s_lp_Variant>
AV-unprocessed.smi:177-3

> <Gold.Version>
5.8.1

> <Gold.Id.Protein>
6NUR|6NUR_protein|mol2

> <Gold.PLP.Fitness>
45.2077

> <Gold.PLP.PLP>
-38.2827

> <Gold.PLP.part.hbond>
-2.0000

> <Gold.PLP.part.metal>
0.0000

> <Gold.PLP.part.buried>
-5.1478

> <Gold.PLP.part.nonpolar>
-30.9832

> <Gold.PLP.part.repulsive>
0.7292

> <Gold.PLP.ligand.clash>
0.0000

> <Gold.PLP.ligand.torsion>
1.2367

> <Gold.PLP.Chemscore.Hbond>
1.9920

> <Gold.PLP.Chemscore.CHOScore>
0.9731

> <Gold.PLP.Chemscore.Metal>
0.0000

> <Gold.Chemscore.Hbonds>
donor molecule, donor type, donor heavy atom, donor atom, acceptor molecule, acceptor atom, score
      L1  H    23    50       P1 10175  1.00
      P1  H  7997  8009       L1     7  0.85
      L1  C    13    44       P1  7957  0.99

> <Gold.PLP.Chemscore.Internal.Correction>
0.5033

> <Gold.Rescore>
     Score         DG    S(hbond)    S(metal)    S(lipo)     H(rot)  DE(clash)    DE(int)     intcor
     10.83     -13.26       1.44        0.00      81.92       2.58       0.02       2.41       ----

> <Gold.Chemscore.Fitness>
10.8343

> <Gold.Chemscore.DG>
-13.2581

> <Gold.Chemscore.ZeroCoef>
-5.4800

> <Gold.Chemscore.Hbond>
1.4371

> <Gold.Chemscore.Metal>
0.0000

> <Gold.Chemscore.Lipo>
81.9196

> <Gold.Chemscore.Internal_Hbond>
0.0000

> <Gold.Chemscore.DEClash>
0.0154

> <Gold.Chemscore.DEInternal>
2.4084

> <Gold.Chemscore.Rot>
2.5806

> <Gold.Chemscore.Internal.Correction>
   9.000000E+99

> <Gold.Chemscore.Hbonds>
donor molecule, donor type, donor heavy atom, donor atom, acceptor molecule, acceptor atom, score
      L1  H    23    50       P1 10175  0.96
      P1  H  7997  8009       L1     7  0.14

> <Gold.Chemscore.Hbond.Weighted>
-4.7998

> <Gold.Chemscore.Metal.Weighted>
-0.0000

> <Gold.Chemscore.Lipo.Weighted>
-9.5846

> <Gold.Chemscore.Internal_Hbond.Weighted>
0.0000

> <Gold.Chemscore.DEClash.Weighted>
0.0154

> <Gold.Chemscore.DEInternal.Weighted>
2.4084

> <Gold.Chemscore.Rot.Weighted>
6.6062

> <Gold.Chemscore.Internal.Correction.Weighted>
   9.000000E+99

> <Gold.Protein.RotatedTorsions>
[ 6907 6896 6895 6894 ] final -117.73 input  -60.11 | X-H torsion
[ 7974 7965 7964 7962 ] final   26.73 input  175.53 | X-H torsion
[ 8008 7997 7996 7995 ] final  160.15 input   59.86 | X-H torsion
[ 10167 10162 10161 10158 ] final -127.23 input  -65.29 | X-H torsion
[ 10718 10713 10712 10709 ] final  117.52 input   66.30 | X-H torsion
[ 10763 10752 10751 10750 ] final  109.36 input  -60.55 | X-H torsion
[ 11005 11000 10999 10996 ] final  161.81 input  -57.11 | X-H torsion

> <Gold.Protein.ActiveResidues>
 VAL166  LYS551  ARG553  GLY616  TRP617  ASP618  TYR619  PRO620  LYS621  CYS622 
 ASP623  PHE694  ASN695  SER759  ASP760  ASP761  ALA762  ILE779  LEU786  VAL792 
 PHE793  MET794  SER795  GLU796  ALA797  LYS798  CYS799  TRP800  GLU811  SER814 

> <Gold.Protein.RotatedAtoms>
  150.8161  133.8335  159.3159 H   0  0  0  0  0  0  0  0  0  0  0  0  # atno 6907 bound_to 6896
  151.6106  135.1039  160.0090 H   0  0  0  0  0  0  0  0  0  0  0  0  # atno 6908 bound_to 6896
  152.4252  133.7143  159.6553 H   0  0  0  0  0  0  0  0  0  0  0  0  # atno 6909 bound_to 6896
  146.1822  139.7289  142.8892 H   0  0  0  0  0  0  0  0  0  0  0  0  # atno 7974 bound_to 7965
  156.2191  140.1812  156.7519 H   0  0  0  0  0  0  0  0  0  0  0  0  # atno 8008 bound_to 7997
  154.5837  140.0662  156.9170 H   0  0  0  0  0  0  0  0  0  0  0  0  # atno 8009 bound_to 7997
  155.2456  140.3325  155.4290 H   0  0  0  0  0  0  0  0  0  0  0  0  # atno 8010 bound_to 7997
  139.9631  143.5928  152.2438 H   0  0  0  0  0  0  0  0  0  0  0  0  # atno 10167 bound_to 10162
  157.6091  131.1038  150.7627 H   0  0  0  0  0  0  0  0  0  0  0  0  # atno 10718 bound_to 10713
  153.4337  135.3782  155.2186 H   0  0  0  0  0  0  0  0  0  0  0  0  # atno 10763 bound_to 10752
  154.8751  135.3846  154.4237 H   0  0  0  0  0  0  0  0  0  0  0  0  # atno 10764 bound_to 10752
  153.4773  135.7088  153.6021 H   0  0  0  0  0  0  0  0  0  0  0  0  # atno 10765 bound_to 10752
  140.2195  134.8207  157.3205 H   0  0  0  0  0  0  0  0  0  0  0  0  # atno 11005 bound_to 11000
  145.4043  141.0389  143.3053 LP  0  0  0  0  0  0  0  0  0  0  0  0  # atno 17320 bound_to 7965
  144.8335  139.5589  143.6933 LP  0  0  0  0  0  0  0  0  0  0  0  0  # atno 17321 bound_to 7965
  139.6539  144.7661  151.2094 LP  0  0  0  0  0  0  0  0  0  0  0  0  # atno 17342 bound_to 10162
  140.7547  143.6117  150.8599 LP  0  0  0  0  0  0  0  0  0  0  0  0  # atno 17343 bound_to 10162
  156.8009  130.4920  149.5370 LP  0  0  0  0  0  0  0  0  0  0  0  0  # atno 17370 bound_to 10713
  156.1187  130.6094  151.0160 LP  0  0  0  0  0  0  0  0  0  0  0  0  # atno 17371 bound_to 10713
  140.1865  134.4425  155.7741 LP  0  0  0  0  0  0  0  0  0  0  0  0  # atno 17394 bound_to 11000
  141.2223  133.7007  156.7956 LP  0  0  0  0  0  0  0  0  0  0  0  0  # atno 17395 bound_to 11000

$$$$
