AV-unprocessed.smi:2740|AV-procd|sdf|10554|dock8
  -GOLD-   2272015 03D 1   1.00000     0.00000
 Structure written by MMmdl.
 31 32  0  0  0  0  0  0  0  0  1 V2000
  152.8779  143.3537  162.1901 C   0  0  0  0  0  0  0  0  0  0  0  0
  152.2191  143.6440  160.8844 C   0  0  0  0  0  0  0  0  0  0  0  0
  151.8836  144.8732  160.3702 C   0  0  0  0  0  0  0  0  0  0  0  0
  151.2738  144.8144  159.1149 N   0  0  0  0  0  0  0  0  0  0  0  0
  151.1472  143.5568  158.6778 C   0  0  0  0  0  0  0  0  0  0  0  0
  150.5605  143.1948  157.4367 N   0  0  0  0  0  0  0  0  0  0  0  0
  150.3598  141.9612  156.9407 C   0  0  0  0  0  0  0  0  0  0  0  0
  150.6494  140.9086  157.5103 O   0  0  0  0  0  0  0  0  0  0  0  0
  149.7935  142.0121  155.7267 N   0  0  0  0  0  0  0  0  0  0  0  0
  149.4408  140.8497  154.9197 C   0  0  0  0  0  0  0  0  0  0  0  0
  150.6900  140.1240  154.3938 C   0  0  2  0  0  0  0  0  0  0  0  0
  150.4831  138.6281  154.1726 C   0  0  0  0  0  0  0  0  0  0  0  0
  151.9040  138.1155  154.2335 C   0  0  0  0  0  0  0  0  0  0  0  0
  152.5121  138.9913  155.3267 C   0  0  0  0  0  0  0  0  0  0  0  0
  151.7526  140.1985  155.3404 O   0  0  0  0  0  0  0  0  0  0  0  0
  151.7786  142.3552  159.7927 S   0  0  0  0  0  0  0  0  0  0  0  0
  152.7386  144.1778  162.8903 H   0  0  0  0  0  0  0  0  0  0  0  0
  153.9489  143.2017  162.0563 H   0  0  0  0  0  0  0  0  0  0  0  0
  152.4624  142.4542  162.6450 H   0  0  0  0  0  0  0  0  0  0  0  0
  152.0415  145.8385  160.8280 H   0  0  0  0  0  0  0  0  0  0  0  0
  150.2659  143.9653  156.8552 H   0  0  0  0  0  0  0  0  0  0  0  0
  149.5833  142.9180  155.3341 H   0  0  0  0  0  0  0  0  0  0  0  0
  148.8436  140.1730  155.5317 H   0  0  0  0  0  0  0  0  0  0  0  0
  148.8051  141.1571  154.0878 H   0  0  0  0  0  0  0  0  0  0  0  0
  151.0333  140.5741  153.4608 H   0  0  0  0  0  0  0  0  0  0  0  0
  149.8940  138.1950  154.9824 H   0  0  0  0  0  0  0  0  0  0  0  0
  149.9866  138.4030  153.2283 H   0  0  0  0  0  0  0  0  0  0  0  0
  151.9689  137.0499  154.4549 H   0  0  0  0  0  0  0  0  0  0  0  0
  152.4066  138.2988  153.2828 H   0  0  0  0  0  0  0  0  0  0  0  0
  152.4153  138.5111  156.3010 H   0  0  0  0  0  0  0  0  0  0  0  0
  153.5694  139.1909  155.1514 H   0  0  0  0  0  0  0  0  0  0  0  0
  1  2  1  0  0  0  0
  1 17  1  0  0  0  0
  1 18  1  0  0  0  0
  1 19  1  0  0  0  0
  2 16  1  0  0  0  0
  2  3  2  0  0  0  0
  3  4  1  0  0  0  0
  3 20  1  0  0  0  0
  4  5  2  0  0  0  0
  5  6  1  0  0  0  0
  5 16  1  0  0  0  0
  6  7  1  0  0  0  0
  6 21  1  0  0  0  0
  7  8  2  0  0  0  0
  7  9  1  0  0  0  0
  9 10  1  0  0  0  0
  9 22  1  0  0  0  0
 10 11  1  0  0  0  0
 10 23  1  0  0  0  0
 10 24  1  0  0  0  0
 11 15  1  0  0  0  0
 11 12  1  0  0  0  0
 11 25  1  0  0  0  0
 12 13  1  0  0  0  0
 12 26  1  0  0  0  0
 12 27  1  0  0  0  0
 13 14  1  0  0  0  0
 13 28  1  0  0  0  0
 13 29  1  0  0  0  0
 14 15  1  0  0  0  0
 14 30  1  0  0  0  0
 14 31  1  0  0  0  0
M  END
> <s_m_source_file>
AV-unprocessed.smi

> <i_m_source_file_index>
2740

> <i_lp_mmshare_version>
43012

> <i_f3d_flags>
0

> <s_epik_input>
W0NIM11jMVtjSF1uYyhzMSlbTkhdQyg9TylbTkhdW0NIMl1bQ0BASF0yW0NIMl1bQ0gyXVtDSDJdTzI=

> <s_epik_cmdline>
J2VwaWtfcHl0aG9uJywgJy1waCcsICc3LjAnLCAnLXRuJywgJzgnLCAnLW1hJywgJzIwMCcsICctbWV0YWxfYmluZGluZycsICctaW1hZScsICc8aW5maWxlLm1hZT4nLCAnLW9tYWUnLCAnPG91dGZpbGUubWFlPic=

> <r_lp_tautomer_probability>
0.999

> <r_epik_Ionization_Penalty>
0.000387528

> <r_epik_Ionization_Penalty_Charging>
0

> <r_epik_Ionization_Penalty_Neutral>
0.000387528

> <r_epik_State_Penalty>
0.000177984

> <r_epik_Charging_Adjusted_Penalty>
0.000177984

> <i_epik_Tot_Q>
0

> <i_epik_Tot_abs_Q>
0

> <r_epik_Metal_State_Penalty>
0.00626158

> <b_epik_Metal_Only>
0

> <s_lp_Force_Field>
OPLS_2005

> <r_lp_Energy>
15.1526

> <b_lp_Chiralities_Consistent>
1

> <s_lp_Variant>
AV-unprocessed.smi:2740-1

> <Gold.Version>
5.8.1

> <Gold.Id.Protein>
6NUR|6NUR_protein|mol2

> <Gold.PLP.Fitness>
40.8546

> <Gold.PLP.PLP>
-35.7859

> <Gold.PLP.part.hbond>
-3.0000

> <Gold.PLP.part.metal>
0.0000

> <Gold.PLP.part.buried>
-2.9180

> <Gold.PLP.part.nonpolar>
-29.6469

> <Gold.PLP.part.repulsive>
0.2941

> <Gold.PLP.ligand.clash>
0.0000

> <Gold.PLP.ligand.torsion>
0.3710

> <Gold.PLP.Chemscore.Hbond>
1.9360

> <Gold.PLP.Chemscore.CHOScore>
0.0000

> <Gold.PLP.Chemscore.Metal>
0.0000

> <Gold.Chemscore.Hbonds>
donor molecule, donor type, donor heavy atom, donor atom, acceptor molecule, acceptor atom, score
      L1  H     6    21       P1  8028  0.98
      L1  H     9    22       P1  8028  0.94

> <Gold.PLP.Chemscore.Internal.Correction>
0.0026

> <Gold.Rescore>
     Score         DG    S(hbond)    S(metal)    S(lipo)     H(rot)  DE(clash)    DE(int)     intcor
     13.10     -17.62       1.78        0.00      80.86       1.27       0.14       4.39       ----

> <Gold.Chemscore.Fitness>
13.0972

> <Gold.Chemscore.DG>
-17.6246

> <Gold.Chemscore.ZeroCoef>
-5.4800

> <Gold.Chemscore.Hbond>
1.7753

> <Gold.Chemscore.Metal>
0.0000

> <Gold.Chemscore.Lipo>
80.8586

> <Gold.Chemscore.Internal_Hbond>
0.0000

> <Gold.Chemscore.DEClash>
0.1414

> <Gold.Chemscore.DEInternal>
4.3859

> <Gold.Chemscore.Rot>
1.2678

> <Gold.Chemscore.Internal.Correction>
   9.000000E+99

> <Gold.Chemscore.Hbonds>
donor molecule, donor type, donor heavy atom, donor atom, acceptor molecule, acceptor atom, score
      L1  H     6    21       P1  8028  0.91
      L1  H     9    22       P1  8028  0.90

> <Gold.Chemscore.Hbond.Weighted>
-5.9296

> <Gold.Chemscore.Metal.Weighted>
-0.0000

> <Gold.Chemscore.Lipo.Weighted>
-9.4605

> <Gold.Chemscore.Internal_Hbond.Weighted>
0.0000

> <Gold.Chemscore.DEClash.Weighted>
0.1414

> <Gold.Chemscore.DEInternal.Weighted>
4.3859

> <Gold.Chemscore.Rot.Weighted>
3.2455

> <Gold.Chemscore.Internal.Correction.Weighted>
   9.000000E+99

> <Gold.Protein.RotatedTorsions>
[ 6907 6896 6895 6894 ] final -106.25 input  -60.11 | X-H torsion
[ 7974 7965 7964 7962 ] final -178.08 input  175.53 | X-H torsion
[ 8008 7997 7996 7995 ] final  -31.17 input   59.86 | X-H torsion
[ 10167 10162 10161 10158 ] final   15.62 input  -65.29 | X-H torsion
[ 10718 10713 10712 10709 ] final -144.99 input   66.30 | X-H torsion
[ 10763 10752 10751 10750 ] final -139.91 input  -60.55 | X-H torsion
[ 11005 11000 10999 10996 ] final  163.17 input  -57.11 | X-H torsion

> <Gold.Protein.ActiveResidues>
 VAL166  LYS551  ARG553  GLY616  TRP617  ASP618  TYR619  PRO620  LYS621  CYS622 
 ASP623  PHE694  ASN695  SER759  ASP760  ASP761  ALA762  ILE779  LEU786  VAL792 
 PHE793  MET794  SER795  GLU796  ALA797  LYS798  CYS799  TRP800  GLU811  SER814 

> <Gold.Protein.RotatedAtoms>
  150.7379  134.0004  159.3636 H   0  0  0  0  0  0  0  0  0  0  0  0  # atno 6907 bound_to 6896
  151.7957  135.0721  160.0403 H   0  0  0  0  0  0  0  0  0  0  0  0  # atno 6908 bound_to 6896
  152.3176  133.5782  159.5759 H   0  0  0  0  0  0  0  0  0  0  0  0  # atno 6909 bound_to 6896
  144.7129  140.0922  143.6421 H   0  0  0  0  0  0  0  0  0  0  0  0  # atno 7974 bound_to 7965
  154.4223  140.1771  156.1523 H   0  0  0  0  0  0  0  0  0  0  0  0  # atno 8008 bound_to 7997
  155.9905  140.3369  155.6724 H   0  0  0  0  0  0  0  0  0  0  0  0  # atno 8009 bound_to 7997
  155.6379  140.0677  157.2619 H   0  0  0  0  0  0  0  0  0  0  0  0  # atno 8010 bound_to 7997
  140.5854  143.8899  150.6826 H   0  0  0  0  0  0  0  0  0  0  0  0  # atno 10167 bound_to 10162
  156.3770  130.7817  151.2005 H   0  0  0  0  0  0  0  0  0  0  0  0  # atno 10718 bound_to 10713
  154.8595  135.3568  154.5622 H   0  0  0  0  0  0  0  0  0  0  0  0  # atno 10763 bound_to 10752
  153.6237  135.7005  153.5306 H   0  0  0  0  0  0  0  0  0  0  0  0  # atno 10764 bound_to 10752
  153.3107  135.4179  155.1293 H   0  0  0  0  0  0  0  0  0  0  0  0  # atno 10765 bound_to 10752
  140.2331  134.8108  157.3337 H   0  0  0  0  0  0  0  0  0  0  0  0  # atno 11005 bound_to 11000
  145.9610  139.2801  143.1155 LP  0  0  0  0  0  0  0  0  0  0  0  0  # atno 17320 bound_to 7965
  145.9220  140.9108  143.0400 LP  0  0  0  0  0  0  0  0  0  0  0  0  # atno 17321 bound_to 7965
  140.2409  143.3664  152.1487 LP  0  0  0  0  0  0  0  0  0  0  0  0  # atno 17342 bound_to 10162
  139.5194  144.7020  151.5467 LP  0  0  0  0  0  0  0  0  0  0  0  0  # atno 17343 bound_to 10162
  157.7489  131.0355  150.4368 LP  0  0  0  0  0  0  0  0  0  0  0  0  # atno 17370 bound_to 10713
  156.4605  130.4031  149.6579 LP  0  0  0  0  0  0  0  0  0  0  0  0  # atno 17371 bound_to 10713
  140.1730  134.4585  155.7819 LP  0  0  0  0  0  0  0  0  0  0  0  0  # atno 17394 bound_to 11000
  141.2216  133.6950  156.7739 LP  0  0  0  0  0  0  0  0  0  0  0  0  # atno 17395 bound_to 11000

$$$$
