AV-unprocessed.smi:1645|AV-procd|sdf|6601|dock2
  -GOLD-   22720 7303D 1   1.00000     0.00000
 Structure written by MMmdl.
 55 58  0  0  0  0  0  0  0  0  2 V2000
  146.6420  137.9791  155.2688 O   0  0  0  0  0  0  0  0  0  0  0  0
  147.4140  137.4778  154.4529 C   0  0  0  0  0  0  0  0  0  0  0  0
  148.7209  137.7659  154.3283 N   0  0  0  0  0  0  0  0  0  0  0  0
  149.5153  138.6889  155.0632 C   0  0  0  0  0  0  0  0  0  0  0  0
  150.8623  139.0127  154.7745 C   0  0  0  0  0  0  0  0  0  0  0  0
  151.5285  139.9498  155.5871 C   0  0  0  0  0  0  0  0  0  0  0  0
  150.8369  140.5507  156.6649 C   0  0  0  0  0  0  0  0  0  0  0  0
  151.4882  141.4910  157.4930 N   0  0  0  0  0  0  0  0  0  0  0  0
  151.8782  141.0604  158.8384 C   0  0  0  0  0  0  0  0  0  0  0  0
  152.9063  142.0238  159.4553 C   0  0  0  0  0  0  0  0  0  0  0  0
  152.3934  143.4706  159.4256 C   0  0  0  0  0  0  0  0  0  0  0  0
  152.0099  143.8615  157.9909 C   0  0  0  0  0  0  0  0  0  0  0  0
  150.9963  142.8675  157.3982 C   0  0  0  0  0  0  0  0  0  0  0  0
  149.5454  140.2416  156.9354 N   0  0  0  0  0  0  0  0  0  0  0  0
  148.9107  139.3427  156.1549 C   0  0  0  0  0  0  0  0  0  0  0  0
  147.0367  136.5527  153.5584 N   0  0  0  0  0  0  0  0  0  0  0  0
  145.6782  136.0339  153.4065 C   0  0  1  0  0  0  0  0  0  0  0  0
  144.7627  136.9660  152.5904 C   0  0  0  0  0  0  0  0  0  0  0  0
  143.9178  136.0193  151.7320 C   0  0  0  0  0  0  0  0  0  0  0  0
  144.8468  134.9189  151.4520 N   0  3  2  0  0  0  0  0  0  0  0  0
  144.3193  133.6842  150.8376 C   0  0  0  0  0  0  0  0  0  0  0  0
  145.5140  132.7796  150.4665 C   0  0  0  0  0  0  0  0  0  0  0  0
  146.4637  132.5437  151.6632 C   0  0  0  0  0  0  0  0  0  0  0  0
  146.8701  133.8676  152.3475 C   0  0  0  0  0  0  0  0  0  0  0  0
  145.5981  134.6628  152.6930 C   0  0  1  0  0  0  0  0  0  0  0  0
  149.2066  137.2885  153.5830 H   0  0  0  0  0  0  0  0  0  0  0  0
  151.4028  138.5724  153.9525 H   0  0  0  0  0  0  0  0  0  0  0  0
  152.5624  140.1848  155.3828 H   0  0  0  0  0  0  0  0  0  0  0  0
  150.9889  141.0104  159.4682 H   0  0  0  0  0  0  0  0  0  0  0  0
  152.3073  140.0581  158.8056 H   0  0  0  0  0  0  0  0  0  0  0  0
  153.1284  141.7252  160.4801 H   0  0  0  0  0  0  0  0  0  0  0  0
  153.8446  141.9579  158.9028 H   0  0  0  0  0  0  0  0  0  0  0  0
  151.5250  143.5670  160.0785 H   0  0  0  0  0  0  0  0  0  0  0  0
  153.1542  144.1491  159.8120 H   0  0  0  0  0  0  0  0  0  0  0  0
  151.5954  144.8698  157.9760 H   0  0  0  0  0  0  0  0  0  0  0  0
  152.9046  143.8848  157.3673 H   0  0  0  0  0  0  0  0  0  0  0  0
  150.7842  143.1537  156.3690 H   0  0  0  0  0  0  0  0  0  0  0  0
  150.0519  142.9350  157.9395 H   0  0  0  0  0  0  0  0  0  0  0  0
  147.8830  139.1364  156.4159 H   0  0  0  0  0  0  0  0  0  0  0  0
  147.7357  136.1950  152.9237 H   0  0  0  0  0  0  0  0  0  0  0  0
  145.2337  135.9257  154.3980 H   0  0  0  0  0  0  0  0  0  0  0  0
  144.1528  137.6146  153.2202 H   0  0  0  0  0  0  0  0  0  0  0  0
  145.3590  137.6059  151.9379 H   0  0  0  0  0  0  0  0  0  0  0  0
  143.0625  135.6461  152.2976 H   0  0  0  0  0  0  0  0  0  0  0  0
  143.5532  136.4895  150.8185 H   0  0  0  0  0  0  0  0  0  0  0  0
  143.6451  133.1769  151.5293 H   0  0  0  0  0  0  0  0  0  0  0  0
  143.7430  133.9321  149.9457 H   0  0  0  0  0  0  0  0  0  0  0  0
  145.1548  131.8253  150.0800 H   0  0  0  0  0  0  0  0  0  0  0  0
  146.0751  133.2459  149.6553 H   0  0  0  0  0  0  0  0  0  0  0  0
  145.9667  131.9015  152.3915 H   0  0  0  0  0  0  0  0  0  0  0  0
  147.3523  132.0034  151.3355 H   0  0  0  0  0  0  0  0  0  0  0  0
  147.4450  133.6522  153.2485 H   0  0  0  0  0  0  0  0  0  0  0  0
  147.5157  134.4486  151.6874 H   0  0  0  0  0  0  0  0  0  0  0  0
  144.9746  134.0289  153.3274 H   0  0  0  0  0  0  0  0  0  0  0  0
  145.5167  135.2971  150.7976 H   0  0  0  0  0  0  0  0  0  0  0  0
  1  2  2  0  0  0  0
  2  3  1  0  0  0  0
  2 16  1  0  0  0  0
  3  4  1  0  0  0  0
  3 26  1  0  0  0  0
  4 15  1  0  0  0  0
  4  5  2  0  0  0  0
  5  6  1  0  0  0  0
  5 27  1  0  0  0  0
  6  7  2  0  0  0  0
  6 28  1  0  0  0  0
  7  8  1  0  0  0  0
  7 14  1  0  0  0  0
  8 13  1  0  0  0  0
  8  9  1  0  0  0  0
  9 10  1  0  0  0  0
  9 29  1  0  0  0  0
  9 30  1  0  0  0  0
 10 11  1  0  0  0  0
 10 31  1  0  0  0  0
 10 32  1  0  0  0  0
 11 12  1  0  0  0  0
 11 33  1  0  0  0  0
 11 34  1  0  0  0  0
 12 13  1  0  0  0  0
 12 35  1  0  0  0  0
 12 36  1  0  0  0  0
 13 37  1  0  0  0  0
 13 38  1  0  0  0  0
 14 15  2  0  0  0  0
 15 39  1  0  0  0  0
 16 17  1  0  0  0  0
 16 40  1  0  0  0  0
 17 25  1  0  0  0  0
 17 18  1  0  0  0  0
 17 41  1  0  0  0  0
 18 19  1  0  0  0  0
 18 42  1  0  0  0  0
 18 43  1  0  0  0  0
 19 20  1  0  0  0  0
 19 44  1  0  0  0  0
 19 45  1  0  0  0  0
 20 25  1  0  0  0  0
 20 21  1  0  0  0  0
 20 55  1  0  0  0  0
 21 22  1  0  0  0  0
 21 46  1  0  0  0  0
 21 47  1  0  0  0  0
 22 23  1  0  0  0  0
 22 48  1  0  0  0  0
 22 49  1  0  0  0  0
 23 24  1  0  0  0  0
 23 50  1  0  0  0  0
 23 51  1  0  0  0  0
 24 25  1  0  0  0  0
 24 52  1  0  0  0  0
 24 53  1  0  0  0  0
 25 54  1  0  0  0  0
M  CHG  1  20   1
M  END
> <s_m_source_file>
AV-unprocessed.smi

> <i_m_source_file_index>
1645

> <i_lp_mmshare_version>
43012

> <i_f3d_flags>
0

> <s_epik_input>
W0NIMl0xW0NIMl1bQ0gyXVtDSDJdW0NASF0oTjEyKVtDQEBIXShbQ0gyXVtDSDJdMilbTkhdQyg9TylbTkhdYzNbY0hdW2NIXWMobltjSF0zKU40W0NIMl1bQ0gyXVtDSDJdW0NIMl1bQ0gyXTQ=

> <s_epik_cmdline>
J2VwaWtfcHl0aG9uJywgJy1waCcsICc3LjAnLCAnLXRuJywgJzgnLCAnLW1hJywgJzIwMCcsICctbWV0YWxfYmluZGluZycsICctaW1hZScsICc8aW5maWxlLm1hZT4nLCAnLW9tYWUnLCAnPG91dGZpbGUubWFlPic=

> <r_lp_tautomer_probability>
1

> <r_epik_Ionization_Penalty>
0.0808019

> <r_epik_Ionization_Penalty_Charging>
0.000974069

> <r_epik_Ionization_Penalty_Neutral>
0.0798278

> <r_epik_State_Penalty>
0.0653665

> <r_epik_Charging_Adjusted_Penalty>
0.0663406

> <i_epik_Tot_Q>
1

> <i_epik_Tot_abs_Q>
1

> <r_epik_Metal_State_Penalty>
0.0585673

> <b_epik_Metal_Only>
0

> <s_lp_Force_Field>
OPLS_2005

> <r_lp_Energy>
56.9849

> <b_lp_Chiralities_Consistent>
1

> <s_lp_Variant>
AV-unprocessed.smi:1645-2

> <Gold.Version>
5.8.1

> <Gold.Id.Protein>
6NUR|6NUR_protein|mol2

> <Gold.PLP.Fitness>
47.2223

> <Gold.PLP.PLP>
-42.0985

> <Gold.PLP.part.hbond>
-2.0000

> <Gold.PLP.part.metal>
0.0000

> <Gold.PLP.part.buried>
-4.1840

> <Gold.PLP.part.nonpolar>
-35.9473

> <Gold.PLP.part.repulsive>
0.0679

> <Gold.PLP.ligand.clash>
0.0000

> <Gold.PLP.ligand.torsion>
0.5252

> <Gold.PLP.Chemscore.Hbond>
1.9120

> <Gold.PLP.Chemscore.CHOScore>
0.0000

> <Gold.PLP.Chemscore.Metal>
0.0000

> <Gold.Chemscore.Hbonds>
donor molecule, donor type, donor heavy atom, donor atom, acceptor molecule, acceptor atom, score
      L1  H     3    26       P1  7948  0.91
      L1  H    16    40       P1  7948  1.00

> <Gold.PLP.Chemscore.Internal.Correction>
0.4382

> <Gold.Rescore>
     Score         DG    S(hbond)    S(metal)    S(lipo)     H(rot)  DE(clash)    DE(int)     intcor
     20.20     -22.29       1.91        0.00     114.81       1.17       0.16       1.93       ----

> <Gold.Chemscore.Fitness>
20.1991

> <Gold.Chemscore.DG>
-22.2900

> <Gold.Chemscore.ZeroCoef>
-5.4800

> <Gold.Chemscore.Hbond>
1.9102

> <Gold.Chemscore.Metal>
0.0000

> <Gold.Chemscore.Lipo>
114.8139

> <Gold.Chemscore.Internal_Hbond>
0.0000

> <Gold.Chemscore.DEClash>
0.1587

> <Gold.Chemscore.DEInternal>
1.9322

> <Gold.Chemscore.Rot>
1.1731

> <Gold.Chemscore.Internal.Correction>
   9.000000E+99

> <Gold.Chemscore.Hbonds>
donor molecule, donor type, donor heavy atom, donor atom, acceptor molecule, acceptor atom, score
      L1  H     3    26       P1  7948  0.83
      L1  H    16    40       P1  7948  0.98

> <Gold.Chemscore.Hbond.Weighted>
-6.3800

> <Gold.Chemscore.Metal.Weighted>
-0.0000

> <Gold.Chemscore.Lipo.Weighted>
-13.4332

> <Gold.Chemscore.Internal_Hbond.Weighted>
0.0000

> <Gold.Chemscore.DEClash.Weighted>
0.1587

> <Gold.Chemscore.DEInternal.Weighted>
1.9322

> <Gold.Chemscore.Rot.Weighted>
3.0032

> <Gold.Chemscore.Internal.Correction.Weighted>
   9.000000E+99

> <Gold.Protein.RotatedTorsions>
[ 6907 6896 6895 6894 ] final  130.00 input  -60.11 | X-H torsion
[ 7974 7965 7964 7962 ] final  148.53 input  175.53 | X-H torsion
[ 8008 7997 7996 7995 ] final   70.61 input   59.86 | X-H torsion
[ 10167 10162 10161 10158 ] final    8.63 input  -65.29 | X-H torsion
[ 10718 10713 10712 10709 ] final -133.91 input   66.30 | X-H torsion
[ 10763 10752 10751 10750 ] final   72.72 input  -60.55 | X-H torsion
[ 11005 11000 10999 10996 ] final  -74.49 input  -57.11 | X-H torsion

> <Gold.Protein.ActiveResidues>
 VAL166  LYS551  ARG553  GLY616  TRP617  ASP618  TYR619  PRO620  LYS621  CYS622 
 ASP623  PHE694  ASN695  SER759  ASP760  ASP761  ALA762  ILE779  LEU786  VAL792 
 PHE793  MET794  SER795  GLU796  ALA797  LYS798  CYS799  TRP800  GLU811  SER814 

> <Gold.Protein.RotatedAtoms>
  152.3569  133.6249  159.5985 H   0  0  0  0  0  0  0  0  0  0  0  0  # atno 6907 bound_to 6896
  150.7575  133.9485  159.3487 H   0  0  0  0  0  0  0  0  0  0  0  0  # atno 6908 bound_to 6896
  151.7329  135.0872  160.0354 H   0  0  0  0  0  0  0  0  0  0  0  0  # atno 6909 bound_to 6896
  144.8507  139.6166  143.5975 H   0  0  0  0  0  0  0  0  0  0  0  0  # atno 7974 bound_to 7965
  155.7414  140.3490  155.5106 H   0  0  0  0  0  0  0  0  0  0  0  0  # atno 8008 bound_to 7997
  155.9090  140.1047  157.1315 H   0  0  0  0  0  0  0  0  0  0  0  0  # atno 8009 bound_to 7997
  154.4053  140.1271  156.4520 H   0  0  0  0  0  0  0  0  0  0  0  0  # atno 8010 bound_to 7997
  140.6303  143.8009  150.7286 H   0  0  0  0  0  0  0  0  0  0  0  0  # atno 10167 bound_to 10162
  156.2498  130.7146  151.1041 H   0  0  0  0  0  0  0  0  0  0  0  0  # atno 10718 bound_to 10713
  153.0476  135.5089  154.7787 H   0  0  0  0  0  0  0  0  0  0  0  0  # atno 10763 bound_to 10752
  154.6674  135.2948  154.9789 H   0  0  0  0  0  0  0  0  0  0  0  0  # atno 10764 bound_to 10752
  154.0619  135.6689  153.4865 H   0  0  0  0  0  0  0  0  0  0  0  0  # atno 10765 bound_to 10752
  141.1635  133.6913  156.7372 H   0  0  0  0  0  0  0  0  0  0  0  0  # atno 11005 bound_to 11000
  146.2782  139.6807  142.9248 LP  0  0  0  0  0  0  0  0  0  0  0  0  # atno 17320 bound_to 7965
  145.4507  141.0428  143.2806 LP  0  0  0  0  0  0  0  0  0  0  0  0  # atno 17321 bound_to 7965
  140.1618  143.4268  152.2061 LP  0  0  0  0  0  0  0  0  0  0  0  0  # atno 17342 bound_to 10162
  139.5518  144.7343  151.4413 LP  0  0  0  0  0  0  0  0  0  0  0  0  # atno 17343 bound_to 10162
  157.7210  131.0681  150.6136 LP  0  0  0  0  0  0  0  0  0  0  0  0  # atno 17370 bound_to 10713
  156.6215  130.4407  149.5820 LP  0  0  0  0  0  0  0  0  0  0  0  0  # atno 17371 bound_to 10713
  140.2701  134.8399  157.3839 LP  0  0  0  0  0  0  0  0  0  0  0  0  # atno 17394 bound_to 11000
  140.1529  134.4826  155.7948 LP  0  0  0  0  0  0  0  0  0  0  0  0  # atno 17395 bound_to 11000

$$$$
