AV-unprocessed.smi:1088|AV-procd|sdf|4732|dock3
  -GOLD-   22720 3263D 1   1.00000     0.00000
 Structure written by MMmdl.
 47 48  0  0  0  0  0  0  0  0  1 V2000
  149.3755  131.2279  154.4760 C   0  0  0  0  0  0  0  0  0  0  0  0
  149.3103  132.4530  153.7683 O   0  0  0  0  0  0  0  0  0  0  0  0
  148.0267  133.0532  153.8361 C   0  0  0  0  0  0  0  0  0  0  0  0
  147.1629  132.5862  152.6544 C   0  0  0  0  0  0  0  0  0  0  0  0
  145.9680  133.3786  152.3353 N   0  0  0  0  0  0  0  0  0  0  0  0
  145.4343  132.9653  151.0485 C   0  0  0  0  0  0  0  0  0  0  0  0
  144.4666  134.0553  150.6043 C   0  0  0  0  0  0  0  0  0  0  0  0
  144.9939  135.3077  151.3075 C   0  0  0  0  0  0  0  0  0  0  0  0
  146.1734  134.8205  152.1745 C   0  0  1  0  0  0  0  0  0  0  0  0
  146.2935  135.6420  153.4790 C   0  0  0  0  0  0  0  0  0  0  0  0
  146.9800  136.9103  153.2506 N   0  0  0  0  0  0  0  0  0  0  0  0
  146.9684  137.9703  154.0726 C   0  0  0  0  0  0  0  0  0  0  0  0
  146.3489  137.9979  155.1369 O   0  0  0  0  0  0  0  0  0  0  0  0
  147.7648  139.1930  153.5966 C   0  0  0  0  0  0  0  0  0  0  0  0
  149.0822  139.3108  154.2345 N   0  0  0  0  0  0  0  0  0  0  0  0
  150.0063  138.2918  154.0933 C   0  0  0  0  0  0  0  0  0  0  0  0
  151.2414  138.3252  154.6394 C   0  0  0  0  0  0  0  0  0  0  0  0
  151.6803  139.4679  155.4313 C   0  0  0  0  0  0  0  0  0  0  0  0
  152.8020  139.5434  155.9336 O   0  0  0  0  0  0  0  0  0  0  0  0
  150.7117  140.4913  155.5688 N   0  0  0  0  0  0  0  0  0  0  0  0
  151.0492  141.6787  156.3259 C   0  0  0  0  0  0  0  0  0  0  0  0
  149.4265  140.4560  154.9841 C   0  0  0  0  0  0  0  0  0  0  0  0
  148.6273  141.3869  155.1129 O   0  0  0  0  0  0  0  0  0  0  0  0
  150.3815  130.8152  154.4010 H   0  0  0  0  0  0  0  0  0  0  0  0
  148.6802  130.4971  154.0609 H   0  0  0  0  0  0  0  0  0  0  0  0
  149.1469  131.3692  155.5331 H   0  0  0  0  0  0  0  0  0  0  0  0
  147.5362  132.8384  154.7840 H   0  0  0  0  0  0  0  0  0  0  0  0
  148.1301  134.1385  153.7950 H   0  0  0  0  0  0  0  0  0  0  0  0
  147.7910  132.4794  151.7688 H   0  0  0  0  0  0  0  0  0  0  0  0
  146.8327  131.5758  152.9001 H   0  0  0  0  0  0  0  0  0  0  0  0
  146.2403  132.8897  150.3163 H   0  0  0  0  0  0  0  0  0  0  0  0
  144.9530  131.9886  151.1096 H   0  0  0  0  0  0  0  0  0  0  0  0
  144.4402  134.1615  149.5196 H   0  0  0  0  0  0  0  0  0  0  0  0
  143.4562  133.8285  150.9471 H   0  0  0  0  0  0  0  0  0  0  0  0
  145.3139  136.0708  150.5972 H   0  0  0  0  0  0  0  0  0  0  0  0
  144.1990  135.7388  151.9177 H   0  0  0  0  0  0  0  0  0  0  0  0
  147.0841  134.9693  151.5913 H   0  0  0  0  0  0  0  0  0  0  0  0
  145.3071  135.7921  153.9209 H   0  0  0  0  0  0  0  0  0  0  0  0
  146.8802  135.1239  154.2295 H   0  0  0  0  0  0  0  0  0  0  0  0
  147.5123  136.9860  152.3961 H   0  0  0  0  0  0  0  0  0  0  0  0
  147.8787  139.1595  152.5114 H   0  0  0  0  0  0  0  0  0  0  0  0
  147.1709  140.0846  153.8026 H   0  0  0  0  0  0  0  0  0  0  0  0
  149.7311  137.4241  153.5115 H   0  0  0  0  0  0  0  0  0  0  0  0
  151.9159  137.4957  154.4858 H   0  0  0  0  0  0  0  0  0  0  0  0
  150.2209  141.8932  157.0036 H   0  0  0  0  0  0  0  0  0  0  0  0
  151.1943  142.4843  155.6045 H   0  0  0  0  0  0  0  0  0  0  0  0
  151.9507  141.5222  156.9177 H   0  0  0  0  0  0  0  0  0  0  0  0
  1  2  1  0  0  0  0
  1 24  1  0  0  0  0
  1 25  1  0  0  0  0
  1 26  1  0  0  0  0
  2  3  1  0  0  0  0
  3  4  1  0  0  0  0
  3 27  1  0  0  0  0
  3 28  1  0  0  0  0
  4  5  1  0  0  0  0
  4 29  1  0  0  0  0
  4 30  1  0  0  0  0
  5  9  1  0  0  0  0
  5  6  1  0  0  0  0
  6  7  1  0  0  0  0
  6 31  1  0  0  0  0
  6 32  1  0  0  0  0
  7  8  1  0  0  0  0
  7 33  1  0  0  0  0
  7 34  1  0  0  0  0
  8  9  1  0  0  0  0
  8 35  1  0  0  0  0
  8 36  1  0  0  0  0
  9 10  1  0  0  0  0
  9 37  1  0  0  0  0
 10 11  1  0  0  0  0
 10 38  1  0  0  0  0
 10 39  1  0  0  0  0
 11 12  1  0  0  0  0
 11 40  1  0  0  0  0
 12 13  2  0  0  0  0
 12 14  1  0  0  0  0
 14 15  1  0  0  0  0
 14 41  1  0  0  0  0
 14 42  1  0  0  0  0
 15 22  1  0  0  0  0
 15 16  1  0  0  0  0
 16 17  2  0  0  0  0
 16 43  1  0  0  0  0
 17 18  1  0  0  0  0
 17 44  1  0  0  0  0
 18 19  2  0  0  0  0
 18 20  1  0  0  0  0
 20 21  1  0  0  0  0
 20 22  1  0  0  0  0
 21 45  1  0  0  0  0
 21 46  1  0  0  0  0
 21 47  1  0  0  0  0
 22 23  2  0  0  0  0
M  END
> <s_m_source_file>
AV-unprocessed.smi

> <i_m_source_file_index>
1088

> <i_lp_mmshare_version>
43012

> <i_f3d_flags>
0

> <s_epik_input>
W0NIM11PW0NIMl1bQ0gyXU4xW0NIMl1bQ0gyXVtDSDJdW0NASF0xW0NIMl1bTkhdQyg9TylbQ0gyXW4yW2NIXVtjSF1jKD1PKW4oW0NIM10pYzI9Tw==

> <s_epik_cmdline>
J2VwaWtfcHl0aG9uJywgJy1waCcsICc3LjAnLCAnLXRuJywgJzgnLCAnLW1hJywgJzIwMCcsICctbWV0YWxfYmluZGluZycsICctaW1hZScsICc8aW5maWxlLm1hZT4nLCAnLW9tYWUnLCAnPG91dGZpbGUubWFlPic=

> <r_lp_tautomer_probability>
1

> <r_epik_Ionization_Penalty>
2.28131

> <r_epik_Ionization_Penalty_Charging>
1.22971e-08

> <r_epik_Ionization_Penalty_Neutral>
2.28131

> <r_epik_State_Penalty>
2.43063

> <r_epik_Charging_Adjusted_Penalty>
2.43063

> <i_epik_Tot_Q>
0

> <i_epik_Tot_abs_Q>
0

> <r_epik_Metal_State_Penalty>
2.43056

> <b_epik_Metal_Only>
0

> <s_lp_Force_Field>
OPLS_2005

> <r_lp_Energy>
52.4092

> <b_lp_Chiralities_Consistent>
1

> <s_lp_Variant>
AV-unprocessed.smi:1088-5

> <Gold.Version>
5.8.1

> <Gold.Id.Protein>
6NUR|6NUR_protein|mol2

> <Gold.PLP.Fitness>
44.2729

> <Gold.PLP.PLP>
-38.0280

> <Gold.PLP.part.hbond>
-1.9540

> <Gold.PLP.part.metal>
0.0000

> <Gold.PLP.part.buried>
-2.0620

> <Gold.PLP.part.nonpolar>
-34.1980

> <Gold.PLP.part.repulsive>
0.4124

> <Gold.PLP.ligand.clash>
0.0000

> <Gold.PLP.ligand.torsion>
0.9252

> <Gold.PLP.Chemscore.Hbond>
1.6720

> <Gold.PLP.Chemscore.CHOScore>
1.0000

> <Gold.PLP.Chemscore.Metal>
0.0000

> <Gold.Chemscore.Hbonds>
donor molecule, donor type, donor heavy atom, donor atom, acceptor molecule, acceptor atom, score
      L1  H    11    40       P1  7948  0.67
      P1  H  7997  8010       L1    19  1.00
      L1  C    16    43       P1  7948  1.00

> <Gold.PLP.Chemscore.Internal.Correction>
0.0793

> <Gold.Rescore>
     Score         DG    S(hbond)    S(metal)    S(lipo)     H(rot)  DE(clash)    DE(int)     intcor
     11.99     -13.15       1.82        0.00      68.15       2.49       0.04       1.12       ----

> <Gold.Chemscore.Fitness>
11.9925

> <Gold.Chemscore.DG>
-13.1512

> <Gold.Chemscore.ZeroCoef>
-5.4800

> <Gold.Chemscore.Hbond>
1.8210

> <Gold.Chemscore.Metal>
0.0000

> <Gold.Chemscore.Lipo>
68.1477

> <Gold.Chemscore.Internal_Hbond>
0.0000

> <Gold.Chemscore.DEClash>
0.0354

> <Gold.Chemscore.DEInternal>
1.1233

> <Gold.Chemscore.Rot>
2.4938

> <Gold.Chemscore.Internal.Correction>
   9.000000E+99

> <Gold.Chemscore.Hbonds>
donor molecule, donor type, donor heavy atom, donor atom, acceptor molecule, acceptor atom, score
      L1  H    11    40       P1  7948  0.68
      P1  H  7997  8010       L1    19  1.00

> <Gold.Chemscore.Hbond.Weighted>
-6.0820

> <Gold.Chemscore.Metal.Weighted>
-0.0000

> <Gold.Chemscore.Lipo.Weighted>
-7.9733

> <Gold.Chemscore.Internal_Hbond.Weighted>
0.0000

> <Gold.Chemscore.DEClash.Weighted>
0.0354

> <Gold.Chemscore.DEInternal.Weighted>
1.1233

> <Gold.Chemscore.Rot.Weighted>
6.3841

> <Gold.Chemscore.Internal.Correction.Weighted>
   9.000000E+99

> <Gold.Protein.RotatedTorsions>
[ 6907 6896 6895 6894 ] final  144.84 input  -60.11 | X-H torsion
[ 7974 7965 7964 7962 ] final  170.13 input  175.53 | X-H torsion
[ 8008 7997 7996 7995 ] final   83.90 input   59.86 | X-H torsion
[ 10167 10162 10161 10158 ] final   73.51 input  -65.29 | X-H torsion
[ 10718 10713 10712 10709 ] final   -9.42 input   66.30 | X-H torsion
[ 10763 10752 10751 10750 ] final  -27.08 input  -60.55 | X-H torsion
[ 11005 11000 10999 10996 ] final   64.70 input  -57.11 | X-H torsion

> <Gold.Protein.ActiveResidues>
 VAL166  LYS551  ARG553  GLY616  TRP617  ASP618  TYR619  PRO620  LYS621  CYS622 
 ASP623  PHE694  ASN695  SER759  ASP760  ASP761  ALA762  ILE779  LEU786  VAL792 
 PHE793  MET794  SER795  GLU796  ALA797  LYS798  CYS799  TRP800  GLU811  SER814 

> <Gold.Protein.RotatedAtoms>
  152.1885  133.4756  159.4995 H   0  0  0  0  0  0  0  0  0  0  0  0  # atno 6907 bound_to 6896
  150.6947  134.1743  159.4233 H   0  0  0  0  0  0  0  0  0  0  0  0  # atno 6908 bound_to 6896
  151.9656  135.0101  160.0601 H   0  0  0  0  0  0  0  0  0  0  0  0  # atno 6909 bound_to 6896
  144.7333  139.9156  143.6417 H   0  0  0  0  0  0  0  0  0  0  0  0  # atno 7974 bound_to 7965
  155.9301  140.3415  155.6242 H   0  0  0  0  0  0  0  0  0  0  0  0  # atno 8008 bound_to 7997
  155.7168  140.0778  157.2366 H   0  0  0  0  0  0  0  0  0  0  0  0  # atno 8009 bound_to 7997
  154.4083  140.1612  156.2345 H   0  0  0  0  0  0  0  0  0  0  0  0  # atno 8010 bound_to 7997
  140.0237  144.5520  150.7561 H   0  0  0  0  0  0  0  0  0  0  0  0  # atno 10167 bound_to 10162
  156.6883  130.5057  149.5951 H   0  0  0  0  0  0  0  0  0  0  0  0  # atno 10718 bound_to 10713
  153.7264  135.6941  153.5000 H   0  0  0  0  0  0  0  0  0  0  0  0  # atno 10763 bound_to 10752
  153.2167  135.4384  155.0441 H   0  0  0  0  0  0  0  0  0  0  0  0  # atno 10764 bound_to 10752
  154.8267  135.3450  154.6795 H   0  0  0  0  0  0  0  0  0  0  0  0  # atno 10765 bound_to 10752
  139.9941  134.6544  156.0040 H   0  0  0  0  0  0  0  0  0  0  0  0  # atno 11005 bound_to 11000
  146.0968  139.3961  143.0371 LP  0  0  0  0  0  0  0  0  0  0  0  0  # atno 17320 bound_to 7965
  145.7634  140.9926  143.1188 LP  0  0  0  0  0  0  0  0  0  0  0  0  # atno 17321 bound_to 7965
  140.7331  143.2714  151.3877 LP  0  0  0  0  0  0  0  0  0  0  0  0  # atno 17342 bound_to 10162
  139.6122  144.1075  152.2310 LP  0  0  0  0  0  0  0  0  0  0  0  0  # atno 17343 bound_to 10162
  156.1816  130.6503  151.0958 LP  0  0  0  0  0  0  0  0  0  0  0  0  # atno 17370 bound_to 10713
  157.7018  131.0773  150.6795 LP  0  0  0  0  0  0  0  0  0  0  0  0  # atno 17371 bound_to 10713
  141.1590  133.6540  156.4257 LP  0  0  0  0  0  0  0  0  0  0  0  0  # atno 17394 bound_to 11000
  140.4851  134.6628  157.5187 LP  0  0  0  0  0  0  0  0  0  0  0  0  # atno 17395 bound_to 11000

$$$$
