AV-unprocessed.smi:2003|AV-procd|sdf|8117|dock1
  -GOLD-   2272010353D 1   1.00000     0.00000
 Structure written by MMmdl.
 43 44  0  0  0  0  0  0  0  0  1 V2000
  153.5647  140.7665  160.4111 C   0  0  0  0  0  0  0  0  0  0  0  0
  152.6901  141.6325  159.5534 C   0  0  0  0  0  0  0  0  0  0  0  0
  151.4063  141.3244  159.0163 C   0  0  0  0  0  0  0  0  0  0  0  0
  151.0874  142.4627  158.3274 C   0  0  0  0  0  0  0  0  0  0  0  0
  149.9689  142.7414  157.6067 N   0  0  0  0  0  0  0  0  0  0  0  0
  148.8323  142.0303  157.5097 C   0  0  0  0  0  0  0  0  0  0  0  0
  148.6032  140.9640  158.0809 O   0  0  0  0  0  0  0  0  0  0  0  0
  147.9534  142.6345  156.7006 N   0  0  0  0  0  0  0  0  0  0  0  0
  146.6189  142.1271  156.4024 C   0  0  0  0  0  0  0  0  0  0  0  0
  146.3123  142.1841  154.8851 C   0  0  2  0  0  0  0  0  0  0  0  0
  147.5417  141.6337  154.1268 C   0  0  0  0  0  0  0  0  0  0  0  0
  145.8749  143.5152  154.4103 N   0  0  0  0  0  0  0  0  0  0  0  0
  144.6021  143.9349  155.0049 C   0  0  0  0  0  0  0  0  0  0  0  0
  144.1407  145.3128  154.5004 C   0  0  0  0  0  0  0  0  0  0  0  0
  144.0376  145.2930  153.0827 O   0  0  0  0  0  0  0  0  0  0  0  0
  145.2692  144.9546  152.4589 C   0  0  0  0  0  0  0  0  0  0  0  0
  145.7387  143.5751  152.9521 C   0  0  0  0  0  0  0  0  0  0  0  0
  152.1187  143.3659  158.4586 N   0  0  0  0  0  0  0  0  0  0  0  0
  152.2457  144.7038  157.9145 C   0  0  0  0  0  0  0  0  0  0  0  0
  153.1081  142.8478  159.2181 N   0  0  0  0  0  0  0  0  0  0  0  0
  153.0905  139.8061  160.6135 H   0  0  0  0  0  0  0  0  0  0  0  0
  153.7703  141.2430  161.3698 H   0  0  0  0  0  0  0  0  0  0  0  0
  154.5196  140.5684  159.9237 H   0  0  0  0  0  0  0  0  0  0  0  0
  150.8351  140.4154  159.1295 H   0  0  0  0  0  0  0  0  0  0  0  0
  150.0009  143.6016  157.0795 H   0  0  0  0  0  0  0  0  0  0  0  0
  148.2134  143.5109  156.2721 H   0  0  0  0  0  0  0  0  0  0  0  0
  146.5445  141.0982  156.7582 H   0  0  0  0  0  0  0  0  0  0  0  0
  145.8761  142.6822  156.9759 H   0  0  0  0  0  0  0  0  0  0  0  0
  145.4975  141.4802  154.7087 H   0  0  0  0  0  0  0  0  0  0  0  0
  147.8992  140.7055  154.5732 H   0  0  0  0  0  0  0  0  0  0  0  0
  148.3694  142.3436  154.1372 H   0  0  0  0  0  0  0  0  0  0  0  0
  147.3117  141.3993  153.0880 H   0  0  0  0  0  0  0  0  0  0  0  0
  143.8308  143.1938  154.7893 H   0  0  0  0  0  0  0  0  0  0  0  0
  144.6870  143.9960  156.0887 H   0  0  0  0  0  0  0  0  0  0  0  0
  143.1688  145.5661  154.9243 H   0  0  0  0  0  0  0  0  0  0  0  0
  144.8386  146.0917  154.8120 H   0  0  0  0  0  0  0  0  0  0  0  0
  145.1290  144.9421  151.3779 H   0  0  0  0  0  0  0  0  0  0  0  0
  146.0180  145.7181  152.6757 H   0  0  0  0  0  0  0  0  0  0  0  0
  146.6914  143.3624  152.4696 H   0  0  0  0  0  0  0  0  0  0  0  0
  145.0359  142.8116  152.6147 H   0  0  0  0  0  0  0  0  0  0  0  0
  152.2455  144.6567  156.8252 H   0  0  0  0  0  0  0  0  0  0  0  0
  153.1741  145.1687  158.2493 H   0  0  0  0  0  0  0  0  0  0  0  0
  151.4057  145.3150  158.2458 H   0  0  0  0  0  0  0  0  0  0  0  0
  1  2  1  0  0  0  0
  1 21  1  0  0  0  0
  1 22  1  0  0  0  0
  1 23  1  0  0  0  0
  2 20  2  0  0  0  0
  2  3  1  0  0  0  0
  3  4  2  0  0  0  0
  3 24  1  0  0  0  0
  4  5  1  0  0  0  0
  4 18  1  0  0  0  0
  5  6  1  0  0  0  0
  5 25  1  0  0  0  0
  6  7  2  0  0  0  0
  6  8  1  0  0  0  0
  8  9  1  0  0  0  0
  8 26  1  0  0  0  0
  9 10  1  0  0  0  0
  9 27  1  0  0  0  0
  9 28  1  0  0  0  0
 10 11  1  0  0  0  0
 10 12  1  0  0  0  0
 10 29  1  0  0  0  0
 11 30  1  0  0  0  0
 11 31  1  0  0  0  0
 11 32  1  0  0  0  0
 12 17  1  0  0  0  0
 12 13  1  0  0  0  0
 13 14  1  0  0  0  0
 13 33  1  0  0  0  0
 13 34  1  0  0  0  0
 14 15  1  0  0  0  0
 14 35  1  0  0  0  0
 14 36  1  0  0  0  0
 15 16  1  0  0  0  0
 16 17  1  0  0  0  0
 16 37  1  0  0  0  0
 16 38  1  0  0  0  0
 17 39  1  0  0  0  0
 17 40  1  0  0  0  0
 18 19  1  0  0  0  0
 18 20  1  0  0  0  0
 19 41  1  0  0  0  0
 19 42  1  0  0  0  0
 19 43  1  0  0  0  0
M  END
> <s_m_source_file>
AV-unprocessed.smi

> <i_m_source_file_index>
2003

> <i_lp_mmshare_version>
43012

> <i_f3d_flags>
0

> <s_epik_input>
W0NIM11jMVtjSF1jKG4objEpW0NIM10pW05IXUMoPU8pW05IXVtDSDJdW0NASF0oW0NIM10pTjJbQ0gyXVtDSDJdT1tDSDJdW0NIMl0y

> <s_epik_cmdline>
J2VwaWtfcHl0aG9uJywgJy1waCcsICc3LjAnLCAnLXRuJywgJzgnLCAnLW1hJywgJzIwMCcsICctbWV0YWxfYmluZGluZycsICctaW1hZScsICc8aW5maWxlLm1hZT4nLCAnLW9tYWUnLCAnPG91dGZpbGUubWFlPic=

> <r_lp_tautomer_probability>
1

> <r_epik_Ionization_Penalty>
0.233974

> <r_epik_Ionization_Penalty_Charging>
0

> <r_epik_Ionization_Penalty_Neutral>
0.233974

> <r_epik_State_Penalty>
0.224627

> <r_epik_Charging_Adjusted_Penalty>
0.224627

> <i_epik_Tot_Q>
0

> <i_epik_Tot_abs_Q>
0

> <r_epik_Metal_State_Penalty>
0.224624

> <b_epik_Metal_Only>
0

> <s_lp_Force_Field>
OPLS_2005

> <r_lp_Energy>
33.8314

> <b_lp_Chiralities_Consistent>
1

> <s_lp_Variant>
AV-unprocessed.smi:2003-1

> <Gold.Version>
5.8.1

> <Gold.Id.Protein>
6NUR|6NUR_protein|mol2

> <Gold.PLP.Fitness>
43.8770

> <Gold.PLP.PLP>
-39.4579

> <Gold.PLP.part.hbond>
-3.0577

> <Gold.PLP.part.metal>
0.0000

> <Gold.PLP.part.buried>
-5.6082

> <Gold.PLP.part.nonpolar>
-30.8857

> <Gold.PLP.part.repulsive>
0.4088

> <Gold.PLP.ligand.clash>
0.0000

> <Gold.PLP.ligand.torsion>
0.3137

> <Gold.PLP.Chemscore.Hbond>
1.6599

> <Gold.PLP.Chemscore.CHOScore>
0.0000

> <Gold.PLP.Chemscore.Metal>
0.0000

> <Gold.Chemscore.Hbonds>
donor molecule, donor type, donor heavy atom, donor atom, acceptor molecule, acceptor atom, score
      L1  H     5    25       P1  8028  0.68
      L1  H     8    26       P1  8028  0.91

> <Gold.PLP.Chemscore.Internal.Correction>
0.0669

> <Gold.Rescore>
     Score         DG    S(hbond)    S(metal)    S(lipo)     H(rot)  DE(clash)    DE(int)     intcor
     12.45     -14.21       0.83        0.00      83.67       1.49       0.41       1.35       ----

> <Gold.Chemscore.Fitness>
12.4498

> <Gold.Chemscore.DG>
-14.2105

> <Gold.Chemscore.ZeroCoef>
-5.4800

> <Gold.Chemscore.Hbond>
0.8280

> <Gold.Chemscore.Metal>
0.0000

> <Gold.Chemscore.Lipo>
83.6671

> <Gold.Chemscore.Internal_Hbond>
0.0000

> <Gold.Chemscore.DEClash>
0.4140

> <Gold.Chemscore.DEInternal>
1.3467

> <Gold.Chemscore.Rot>
1.4938

> <Gold.Chemscore.Internal.Correction>
   9.000000E+99

> <Gold.Chemscore.Hbonds>
donor molecule, donor type, donor heavy atom, donor atom, acceptor molecule, acceptor atom, score
      L1  H     5    25       P1  8028  0.64
      L1  H     8    26       P1  8028  0.22

> <Gold.Chemscore.Hbond.Weighted>
-2.7657

> <Gold.Chemscore.Metal.Weighted>
-0.0000

> <Gold.Chemscore.Lipo.Weighted>
-9.7890

> <Gold.Chemscore.Internal_Hbond.Weighted>
0.0000

> <Gold.Chemscore.DEClash.Weighted>
0.4140

> <Gold.Chemscore.DEInternal.Weighted>
1.3467

> <Gold.Chemscore.Rot.Weighted>
3.8242

> <Gold.Chemscore.Internal.Correction.Weighted>
   9.000000E+99

> <Gold.Protein.RotatedTorsions>
[ 6907 6896 6895 6894 ] final  124.92 input  -60.11 | X-H torsion
[ 7974 7965 7964 7962 ] final  -40.89 input  175.53 | X-H torsion
[ 8008 7997 7996 7995 ] final  158.03 input   59.86 | X-H torsion
[ 10167 10162 10161 10158 ] final -153.67 input  -65.29 | X-H torsion
[ 10718 10713 10712 10709 ] final  -29.67 input   66.30 | X-H torsion
[ 10763 10752 10751 10750 ] final  -75.05 input  -60.55 | X-H torsion
[ 11005 11000 10999 10996 ] final -102.03 input  -57.11 | X-H torsion

> <Gold.Protein.ActiveResidues>
 VAL166  LYS551  ARG553  GLY616  TRP617  ASP618  TYR619  PRO620  LYS621  CYS622 
 ASP623  PHE694  ASN695  SER759  ASP760  ASP761  ALA762  ILE779  LEU786  VAL792 
 PHE793  MET794  SER795  GLU796  ALA797  LYS798  CYS799  TRP800  GLU811  SER814 

> <Gold.Protein.RotatedAtoms>
  152.4037  133.6856  159.6337 H   0  0  0  0  0  0  0  0  0  0  0  0  # atno 6907 bound_to 6896
  150.7924  133.8747  159.3277 H   0  0  0  0  0  0  0  0  0  0  0  0  # atno 6908 bound_to 6896
  151.6506  135.1003  160.0211 H   0  0  0  0  0  0  0  0  0  0  0  0  # atno 6909 bound_to 6896
  146.0262  140.6788  142.9154 H   0  0  0  0  0  0  0  0  0  0  0  0  # atno 7974 bound_to 7965
  156.2328  140.1869  156.7198 H   0  0  0  0  0  0  0  0  0  0  0  0  # atno 8008 bound_to 7997
  154.6053  140.0630  156.9449 H   0  0  0  0  0  0  0  0  0  0  0  0  # atno 8009 bound_to 7997
  155.2107  140.3299  155.4332 H   0  0  0  0  0  0  0  0  0  0  0  0  # atno 8010 bound_to 7997
  139.7077  143.9159  152.2455 H   0  0  0  0  0  0  0  0  0  0  0  0  # atno 10167 bound_to 10162
  156.4095  130.4405  149.7263 H   0  0  0  0  0  0  0  0  0  0  0  0  # atno 10718 bound_to 10713
  154.4814  135.5844  153.6392 H   0  0  0  0  0  0  0  0  0  0  0  0  # atno 10763 bound_to 10752
  152.9848  135.6090  154.3242 H   0  0  0  0  0  0  0  0  0  0  0  0  # atno 10764 bound_to 10752
  154.3133  135.2844  155.2534 H   0  0  0  0  0  0  0  0  0  0  0  0  # atno 10765 bound_to 10752
  141.1206  133.8525  157.1307 H   0  0  0  0  0  0  0  0  0  0  0  0  # atno 11005 bound_to 11000
  144.7011  140.3654  143.7155 LP  0  0  0  0  0  0  0  0  0  0  0  0  # atno 17320 bound_to 7965
  145.7114  139.1685  143.2537 LP  0  0  0  0  0  0  0  0  0  0  0  0  # atno 17321 bound_to 7965
  139.9020  144.6906  150.8655 LP  0  0  0  0  0  0  0  0  0  0  0  0  # atno 17342 bound_to 10162
  140.7725  143.3507  151.2020 LP  0  0  0  0  0  0  0  0  0  0  0  0  # atno 17343 bound_to 10162
  156.4247  130.7786  151.2804 LP  0  0  0  0  0  0  0  0  0  0  0  0  # atno 17370 bound_to 10713
  157.7506  131.0172  150.3576 LP  0  0  0  0  0  0  0  0  0  0  0  0  # atno 17371 bound_to 10713
  140.0161  134.9967  157.0496 LP  0  0  0  0  0  0  0  0  0  0  0  0  # atno 17394 bound_to 11000
  140.4517  134.1575  155.7182 LP  0  0  0  0  0  0  0  0  0  0  0  0  # atno 17395 bound_to 11000

$$$$
