AV-unprocessed.smi:99|AV-procd|sdf|873|dock8
  -GOLD-   2262017333D 1   1.00000     0.00000
 Structure written by MMmdl.
 53 56  0  0  0  0  0  0  0  0  1 V2000
  146.7101  137.3189  158.5767 O   0  0  0  0  0  0  0  0  0  0  0  0
  146.5093  136.2234  159.1050 C   0  0  0  0  0  0  0  0  0  0  0  0
  146.0810  135.1384  158.4334 O   0  0  0  0  0  0  0  0  0  0  0  0
  146.2433  135.0589  157.0265 C   0  0  0  0  0  0  0  0  0  0  0  0
  147.7248  135.2641  156.6799 C   0  0  2  0  0  0  0  0  0  0  0  0
  147.9469  136.5690  156.1607 O   0  0  0  0  0  0  0  0  0  0  0  0
  149.1179  136.5850  155.3976 C   0  0  1  0  0  0  0  0  0  0  0  0
  150.2227  137.2978  156.1571 N   0  0  0  0  0  0  0  0  0  0  0  0
  150.0732  137.7313  157.4693 C   0  0  0  0  0  0  0  0  0  0  0  0
  151.0564  138.3603  158.1560 C   0  0  0  0  0  0  0  0  0  0  0  0
  152.3492  138.6194  157.5311 C   0  0  0  0  0  0  0  0  0  0  0  0
  153.2992  139.1796  158.0737 O   0  0  0  0  0  0  0  0  0  0  0  0
  152.4549  138.1724  156.2115 N   0  0  0  0  0  0  0  0  0  0  0  0
  151.4495  137.5231  155.4938 C   0  0  0  0  0  0  0  0  0  0  0  0
  151.6526  137.1652  154.3341 O   0  0  0  0  0  0  0  0  0  0  0  0
  149.4662  135.1162  155.0450 C   0  0  1  0  0  0  0  0  0  0  0  0
  150.6591  134.6256  155.6310 O   0  0  0  0  0  0  0  0  0  0  0  0
  148.2790  134.3374  155.5956 C   0  0  2  0  0  0  0  0  0  0  0  0
  147.3050  134.1168  154.5809 O   0  0  0  0  0  0  0  0  0  0  0  0
  147.4180  133.0801  153.7248 C   0  0  0  0  0  0  0  0  0  0  0  0
  148.3109  132.2331  153.7905 O   0  0  0  0  0  0  0  0  0  0  0  0
  146.3468  133.0698  152.6885 C   0  0  0  0  0  0  0  0  0  0  0  0
  145.7367  134.2881  152.3099 C   0  0  0  0  0  0  0  0  0  0  0  0
  144.7225  134.3089  151.3328 C   0  0  0  0  0  0  0  0  0  0  0  0
  144.3075  133.1116  150.7213 C   0  0  0  0  0  0  0  0  0  0  0  0
  144.9088  131.8932  151.0873 C   0  0  0  0  0  0  0  0  0  0  0  0
  145.9225  131.8702  152.0649 C   0  0  0  0  0  0  0  0  0  0  0  0
  146.7175  135.9578  160.5572 C   0  0  0  0  0  0  0  0  0  0  0  0
  147.1778  137.0010  161.3939 C   0  0  0  0  0  0  0  0  0  0  0  0
  147.3815  136.7796  162.7699 C   0  0  0  0  0  0  0  0  0  0  0  0
  147.1243  135.5130  163.3263 C   0  0  0  0  0  0  0  0  0  0  0  0
  146.6632  134.4677  162.5049 C   0  0  0  0  0  0  0  0  0  0  0  0
  146.4608  134.6865  161.1282 C   0  0  0  0  0  0  0  0  0  0  0  0
  153.3329  138.3299  155.7387 H   0  0  0  0  0  0  0  0  0  0  0  0
  145.9072  134.0867  156.6626 H   0  0  0  0  0  0  0  0  0  0  0  0
  145.6297  135.8181  156.5405 H   0  0  0  0  0  0  0  0  0  0  0  0
  148.3267  135.1377  157.5802 H   0  0  0  0  0  0  0  0  0  0  0  0
  148.9200  137.2021  154.5191 H   0  0  0  0  0  0  0  0  0  0  0  0
  149.1411  137.5765  157.9890 H   0  0  0  0  0  0  0  0  0  0  0  0
  150.8848  138.6755  159.1751 H   0  0  0  0  0  0  0  0  0  0  0  0
  149.5550  135.0162  153.9626 H   0  0  0  0  0  0  0  0  0  0  0  0
  151.1513  134.1649  154.9686 H   0  0  0  0  0  0  0  0  0  0  0  0
  148.5782  133.3860  156.0390 H   0  0  0  0  0  0  0  0  0  0  0  0
  146.0389  135.2202  152.7654 H   0  0  0  0  0  0  0  0  0  0  0  0
  144.2623  135.2453  151.0531 H   0  0  0  0  0  0  0  0  0  0  0  0
  143.5297  133.1280  149.9722 H   0  0  0  0  0  0  0  0  0  0  0  0
  144.5923  130.9737  150.6178 H   0  0  0  0  0  0  0  0  0  0  0  0
  146.3641  130.9179  152.3206 H   0  0  0  0  0  0  0  0  0  0  0  0
  147.3824  137.9818  160.9893 H   0  0  0  0  0  0  0  0  0  0  0  0
  147.7350  137.5834  163.3989 H   0  0  0  0  0  0  0  0  0  0  0  0
  147.2793  135.3442  164.3818 H   0  0  0  0  0  0  0  0  0  0  0  0
  146.4629  133.4959  162.9314 H   0  0  0  0  0  0  0  0  0  0  0  0
  146.1025  133.8638  160.5267 H   0  0  0  0  0  0  0  0  0  0  0  0
  1  2  2  0  0  0  0
  2  3  1  0  0  0  0
  2 28  1  0  0  0  0
  3  4  1  0  0  0  0
  4  5  1  0  0  0  0
  4 35  1  0  0  0  0
  4 36  1  0  0  0  0
  5 18  1  0  0  0  0
  5  6  1  0  0  0  0
  5 37  1  0  0  0  0
  6  7  1  0  0  0  0
  7  8  1  0  0  0  0
  7 16  1  0  0  0  0
  7 38  1  0  0  0  0
  8 14  1  0  0  0  0
  8  9  1  0  0  0  0
  9 10  2  0  0  0  0
  9 39  1  0  0  0  0
 10 11  1  0  0  0  0
 10 40  1  0  0  0  0
 11 12  2  0  0  0  0
 11 13  1  0  0  0  0
 13 34  1  0  0  0  0
 13 14  1  0  0  0  0
 14 15  2  0  0  0  0
 16 17  1  0  0  0  0
 16 18  1  0  0  0  0
 16 41  1  0  0  0  0
 17 42  1  0  0  0  0
 18 19  1  0  0  0  0
 18 43  1  0  0  0  0
 19 20  1  0  0  0  0
 20 21  2  0  0  0  0
 20 22  1  0  0  0  0
 22 27  1  0  0  0  0
 22 23  2  0  0  0  0
 23 24  1  0  0  0  0
 23 44  1  0  0  0  0
 24 25  2  0  0  0  0
 24 45  1  0  0  0  0
 25 26  1  0  0  0  0
 25 46  1  0  0  0  0
 26 27  2  0  0  0  0
 26 47  1  0  0  0  0
 27 48  1  0  0  0  0
 28 33  1  0  0  0  0
 28 29  2  0  0  0  0
 29 30  1  0  0  0  0
 29 49  1  0  0  0  0
 30 31  2  0  0  0  0
 30 50  1  0  0  0  0
 31 32  1  0  0  0  0
 31 51  1  0  0  0  0
 32 33  2  0  0  0  0
 32 52  1  0  0  0  0
 33 53  1  0  0  0  0
M  END
> <s_m_source_file>
AV-unprocessed.smi

> <i_m_source_file_index>
99

> <i_lp_mmshare_version>
43012

> <i_f3d_flags>
0

> <s_epik_input>
W2NIXTFbY0hdW2NIXVtjSF1bY0hdYzFDKD1PKU9bQ0gyXVtDQEBIXTJPW0NAQEhdKG4zW2NIXVtjSF1jKD1PKVtuSF1jMz1PKVtDQEBIXShbT0hdKVtDQEhdMk9DKD1PKWM0W2NIXVtjSF1bY0hdW2NIXVtjSF00

> <s_epik_cmdline>
J2VwaWtfcHl0aG9uJywgJy1waCcsICc3LjAnLCAnLXRuJywgJzgnLCAnLW1hJywgJzIwMCcsICctbWV0YWxfYmluZGluZycsICctaW1hZScsICc8aW5maWxlLm1hZT4nLCAnLW9tYWUnLCAnPG91dGZpbGUubWFlPic=

> <r_lp_tautomer_probability>
1

> <r_epik_Ionization_Penalty>
0.00454555

> <r_epik_Ionization_Penalty_Charging>
0.0045191

> <r_epik_Ionization_Penalty_Neutral>
2.64449e-05

> <r_epik_State_Penalty>
-0

> <r_epik_Charging_Adjusted_Penalty>
0.0045191

> <i_epik_Tot_Q>
0

> <i_epik_Tot_abs_Q>
0

> <r_epik_Metal_State_Penalty>
1.27877

> <b_epik_Metal_Only>
0

> <s_epik_Chemistry_Notes>
This compound has an ester and may undergo hydrolysis at high or low pH. This compound contains an acetal/aminal-like group ( X-CH(R)-Y where X, Y are N, S, or O) that may be acid/base labile, releasing an aldehyde.

> <s_lp_Force_Field>
OPLS_2005

> <r_lp_Energy>
38.1357

> <b_lp_Chiralities_Consistent>
1

> <s_lp_Variant>
AV-unprocessed.smi:99-9

> <Gold.Version>
5.8.1

> <Gold.Id.Protein>
6NUR|6NUR_protein|mol2

> <Gold.PLP.Fitness>
47.3704

> <Gold.PLP.PLP>
-44.0057

> <Gold.PLP.part.hbond>
-3.0000

> <Gold.PLP.part.metal>
0.0000

> <Gold.PLP.part.buried>
-5.5208

> <Gold.PLP.part.nonpolar>
-36.4966

> <Gold.PLP.part.repulsive>
0.6105

> <Gold.PLP.ligand.clash>
0.0000

> <Gold.PLP.ligand.torsion>
1.4871

> <Gold.PLP.Chemscore.Hbond>
1.9440

> <Gold.PLP.Chemscore.CHOScore>
0.0000

> <Gold.PLP.Chemscore.Metal>
0.0000

> <Gold.Chemscore.Hbonds>
donor molecule, donor type, donor heavy atom, donor atom, acceptor molecule, acceptor atom, score
      P1  H  7997  8010       L1    12  1.00
      P1  H 10752 10765       L1    15  1.00

> <Gold.PLP.Chemscore.Internal.Correction>
0.5068

> <Gold.Rescore>
     Score         DG    S(hbond)    S(metal)    S(lipo)     H(rot)  DE(clash)    DE(int)     intcor
     12.77     -15.50       1.85        0.00     102.61       3.19       0.06       2.67       ----

> <Gold.Chemscore.Fitness>
12.7694

> <Gold.Chemscore.DG>
-15.5034

> <Gold.Chemscore.ZeroCoef>
-5.4800

> <Gold.Chemscore.Hbond>
1.8520

> <Gold.Chemscore.Metal>
0.0000

> <Gold.Chemscore.Lipo>
102.6059

> <Gold.Chemscore.Internal_Hbond>
0.0000

> <Gold.Chemscore.DEClash>
0.0641

> <Gold.Chemscore.DEInternal>
2.6699

> <Gold.Chemscore.Rot>
3.1903

> <Gold.Chemscore.Internal.Correction>
   9.000000E+99

> <Gold.Chemscore.Hbonds>
donor molecule, donor type, donor heavy atom, donor atom, acceptor molecule, acceptor atom, score
      P1  H  7997  8010       L1    12  0.99
      P1  H 10752 10765       L1    15  0.80

> <Gold.Chemscore.Hbond.Weighted>
-6.1856

> <Gold.Chemscore.Metal.Weighted>
-0.0000

> <Gold.Chemscore.Lipo.Weighted>
-12.0049

> <Gold.Chemscore.Internal_Hbond.Weighted>
0.0000

> <Gold.Chemscore.DEClash.Weighted>
0.0641

> <Gold.Chemscore.DEInternal.Weighted>
2.6699

> <Gold.Chemscore.Rot.Weighted>
8.1671

> <Gold.Chemscore.Internal.Correction.Weighted>
   9.000000E+99

> <Gold.Protein.RotatedTorsions>
[ 6907 6896 6895 6894 ] final  -79.06 input  -60.11 | X-H torsion
[ 7974 7965 7964 7962 ] final  -15.76 input  175.53 | X-H torsion
[ 8008 7997 7996 7995 ] final   21.19 input   59.86 | X-H torsion
[ 10167 10162 10161 10158 ] final   -0.59 input  -65.29 | X-H torsion
[ 10718 10713 10712 10709 ] final  116.17 input   66.30 | X-H torsion
[ 10763 10752 10751 10750 ] final  159.61 input  -60.55 | X-H torsion
[ 11005 11000 10999 10996 ] final -107.16 input  -57.11 | X-H torsion

> <Gold.Protein.ActiveResidues>
 VAL166  LYS551  ARG553  GLY616  TRP617  ASP618  TYR619  PRO620  LYS621  CYS622 
 ASP623  PHE694  ASN695  SER759  ASP760  ASP761  ALA762  ILE779  LEU786  VAL792 
 PHE793  MET794  SER795  GLU796  ALA797  LYS798  CYS799  TRP800  GLU811  SER814 

> <Gold.Protein.RotatedAtoms>
  150.6958  134.4179  159.5191 H   0  0  0  0  0  0  0  0  0  0  0  0  # atno 6907 bound_to 6896
  152.1926  134.8655  160.0525 H   0  0  0  0  0  0  0  0  0  0  0  0  # atno 6908 bound_to 6896
  151.9605  133.3659  159.4070 H   0  0  0  0  0  0  0  0  0  0  0  0  # atno 6909 bound_to 6896
  146.2018  140.3540  142.8421 H   0  0  0  0  0  0  0  0  0  0  0  0  # atno 7974 bound_to 7965
  154.9469  140.3060  155.5093 H   0  0  0  0  0  0  0  0  0  0  0  0  # atno 8008 bound_to 7997
  156.2991  140.2326  156.4481 H   0  0  0  0  0  0  0  0  0  0  0  0  # atno 8009 bound_to 7997
  154.8092  140.0429  157.1318 H   0  0  0  0  0  0  0  0  0  0  0  0  # atno 8010 bound_to 7997
  140.6774  143.6877  150.8053 H   0  0  0  0  0  0  0  0  0  0  0  0  # atno 10167 bound_to 10162
  157.6177  131.1022  150.7435 H   0  0  0  0  0  0  0  0  0  0  0  0  # atno 10718 bound_to 10713
  154.2344  135.2777  155.2878 H   0  0  0  0  0  0  0  0  0  0  0  0  # atno 10763 bound_to 10752
  154.5597  135.5650  153.6999 H   0  0  0  0  0  0  0  0  0  0  0  0  # atno 10764 bound_to 10752
  153.0013  135.6295  154.2486 H   0  0  0  0  0  0  0  0  0  0  0  0  # atno 10765 bound_to 10752
  141.0968  133.8956  157.1942 H   0  0  0  0  0  0  0  0  0  0  0  0  # atno 11005 bound_to 11000
  144.8700  140.7259  143.6053 LP  0  0  0  0  0  0  0  0  0  0  0  0  # atno 17320 bound_to 7965
  145.3459  139.1719  143.4460 LP  0  0  0  0  0  0  0  0  0  0  0  0  # atno 17321 bound_to 7965
  140.0572  143.5191  152.2645 LP  0  0  0  0  0  0  0  0  0  0  0  0  # atno 17342 bound_to 10162
  139.6074  144.7600  151.3030 LP  0  0  0  0  0  0  0  0  0  0  0  0  # atno 17343 bound_to 10162
  156.7798  130.4856  149.5403 LP  0  0  0  0  0  0  0  0  0  0  0  0  # atno 17370 bound_to 10713
  156.1307  130.6176  151.0329 LP  0  0  0  0  0  0  0  0  0  0  0  0  # atno 17371 bound_to 10713
  139.9807  135.0099  156.9743 LP  0  0  0  0  0  0  0  0  0  0  0  0  # atno 17394 bound_to 11000
  140.5120  134.0993  155.7272 LP  0  0  0  0  0  0  0  0  0  0  0  0  # atno 17395 bound_to 11000

$$$$
