AV-unprocessed.smi:1950|AV-procd|sdf|7879|dock7
  -GOLD-   2272010 33D 1   1.00000     0.00000
 Structure written by MMmdl.
 33 34  0  0  0  0  0  0  0  0  1 V2000
  145.6562  130.9160  150.9097 C   0  0  0  0  0  0  0  0  0  0  0  0
  145.1483  132.1235  150.1185 C   0  0  0  0  0  0  0  0  0  0  0  0
  145.2411  132.0913  148.8913 O   0  0  0  0  0  0  0  0  0  0  0  0
  144.6121  133.1740  150.7851 N   0  0  0  0  0  0  0  0  0  0  0  0
  144.5814  133.2530  152.2500 C   0  0  0  0  0  0  0  0  0  0  0  0
  145.5867  134.3247  152.7094 C   0  0  0  0  0  0  0  0  0  0  0  0
  145.3008  135.6885  152.0437 C   0  0  0  0  0  0  0  0  0  0  0  0
  146.3937  136.6145  152.3287 N   0  0  0  0  0  0  0  0  0  0  0  0
  146.2901  137.7741  152.9946 C   0  0  0  0  0  0  0  0  0  0  0  0
  145.2329  138.2058  153.4549 O   0  0  0  0  0  0  0  0  0  0  0  0
  147.4836  138.3870  153.0842 N   0  0  0  0  0  0  0  0  0  0  0  0
  147.7957  139.6206  153.7148 C   0  0  0  0  0  0  0  0  0  0  0  0
  146.9109  140.6159  153.8836 N   0  0  0  0  0  0  0  0  0  0  0  0
  147.4744  141.7080  154.5305 N   0  0  0  0  0  0  0  0  0  0  0  0
  148.7604  141.4943  154.8231 C   0  0  0  0  0  0  0  0  0  0  0  0
  149.4087  139.9369  154.3381 S   0  0  0  0  0  0  0  0  0  0  0  0
  145.1217  135.5498  150.5161 C   0  0  0  0  0  0  0  0  0  0  0  0
  144.1377  134.4188  150.1685 C   0  0  0  0  0  0  0  0  0  0  0  0
  144.8572  130.4844  151.5133 H   0  0  0  0  0  0  0  0  0  0  0  0
  146.4811  131.2006  151.5631 H   0  0  0  0  0  0  0  0  0  0  0  0
  146.0182  130.1394  150.2354 H   0  0  0  0  0  0  0  0  0  0  0  0
  143.5748  133.5169  152.5774 H   0  0  0  0  0  0  0  0  0  0  0  0
  144.8083  132.3002  152.7300 H   0  0  0  0  0  0  0  0  0  0  0  0
  145.5550  134.4246  153.7952 H   0  0  0  0  0  0  0  0  0  0  0  0
  146.5963  133.9947  152.4592 H   0  0  0  0  0  0  0  0  0  0  0  0
  144.3613  136.0650  152.4527 H   0  0  0  0  0  0  0  0  0  0  0  0
  147.3065  136.3466  151.9911 H   0  0  0  0  0  0  0  0  0  0  0  0
  148.2628  137.9137  152.6512 H   0  0  0  0  0  0  0  0  0  0  0  0
  149.3315  142.2592  155.3282 H   0  0  0  0  0  0  0  0  0  0  0  0
  144.7702  136.4922  150.0942 H   0  0  0  0  0  0  0  0  0  0  0  0
  146.0843  135.3403  150.0464 H   0  0  0  0  0  0  0  0  0  0  0  0
  144.0139  134.3522  149.0886 H   0  0  0  0  0  0  0  0  0  0  0  0
  143.1470  134.6567  150.5589 H   0  0  0  0  0  0  0  0  0  0  0  0
  1  2  1  0  0  0  0
  1 19  1  0  0  0  0
  1 20  1  0  0  0  0
  1 21  1  0  0  0  0
  2  3  2  0  0  0  0
  2  4  1  0  0  0  0
  4 18  1  0  0  0  0
  4  5  1  0  0  0  0
  5  6  1  0  0  0  0
  5 22  1  0  0  0  0
  5 23  1  0  0  0  0
  6  7  1  0  0  0  0
  6 24  1  0  0  0  0
  6 25  1  0  0  0  0
  7  8  1  0  0  0  0
  7 17  1  0  0  0  0
  7 26  1  0  0  0  0
  8  9  1  0  0  0  0
  8 27  1  0  0  0  0
  9 10  2  0  0  0  0
  9 11  1  0  0  0  0
 11 12  1  0  0  0  0
 11 28  1  0  0  0  0
 12 16  1  0  0  0  0
 12 13  2  0  0  0  0
 13 14  1  0  0  0  0
 14 15  2  0  0  0  0
 15 16  1  0  0  0  0
 15 29  1  0  0  0  0
 17 18  1  0  0  0  0
 17 30  1  0  0  0  0
 17 31  1  0  0  0  0
 18 32  1  0  0  0  0
 18 33  1  0  0  0  0
M  END
> <s_m_source_file>
AV-unprocessed.smi

> <i_m_source_file_index>
1950

> <i_lp_mmshare_version>
43012

> <i_f3d_flags>
0

> <s_epik_input>
W0NIM11DKD1PKU4xW0NIMl1bQ0gyXVtDSF0oW0NIMl1bQ0gyXTEpW05IXUMoPU8pW05IXWMybm5bY0hdczI=

> <s_epik_cmdline>
J2VwaWtfcHl0aG9uJywgJy1waCcsICc3LjAnLCAnLXRuJywgJzgnLCAnLW1hJywgJzIwMCcsICctbWV0YWxfYmluZGluZycsICctaW1hZScsICc8aW5maWxlLm1hZT4nLCAnLW9tYWUnLCAnPG91dGZpbGUubWFlPic=

> <r_lp_tautomer_probability>
1

> <r_epik_Ionization_Penalty>
0.00190949

> <r_epik_Ionization_Penalty_Charging>
0

> <r_epik_Ionization_Penalty_Neutral>
0.00190949

> <r_epik_State_Penalty>
-0

> <r_epik_Charging_Adjusted_Penalty>
0

> <i_epik_Tot_Q>
0

> <i_epik_Tot_abs_Q>
0

> <r_epik_Metal_State_Penalty>
0.336167

> <b_epik_Metal_Only>
0

> <s_lp_Force_Field>
OPLS_2005

> <r_lp_Energy>
22.3171

> <b_lp_Chiralities_Consistent>
1

> <s_lp_Variant>
AV-unprocessed.smi:1950-1

> <Gold.Version>
5.8.1

> <Gold.Id.Protein>
6NUR|6NUR_protein|mol2

> <Gold.PLP.Fitness>
35.4684

> <Gold.PLP.PLP>
-26.8718

> <Gold.PLP.part.hbond>
-2.5693

> <Gold.PLP.part.metal>
0.0000

> <Gold.PLP.part.buried>
-3.7041

> <Gold.PLP.part.nonpolar>
-23.2143

> <Gold.PLP.part.repulsive>
2.2765

> <Gold.PLP.ligand.clash>
0.0000

> <Gold.PLP.ligand.torsion>
0.1599

> <Gold.PLP.Chemscore.Hbond>
1.9760

> <Gold.PLP.Chemscore.CHOScore>
0.9904

> <Gold.PLP.Chemscore.Metal>
0.0000

> <Gold.Chemscore.Hbonds>
donor molecule, donor type, donor heavy atom, donor atom, acceptor molecule, acceptor atom, score
      L1  H     8    27       P1  7948  1.00
      L1  H    11    28       P1  7948  0.96
      L1  C    15    29       P1  8028  1.00

> <Gold.PLP.Chemscore.Internal.Correction>
0.0173

> <Gold.Rescore>
     Score         DG    S(hbond)    S(metal)    S(lipo)     H(rot)  DE(clash)    DE(int)     intcor
     13.96     -15.43       1.95        0.00      51.30       1.00       0.14       1.32       ----

> <Gold.Chemscore.Fitness>
13.9646

> <Gold.Chemscore.DG>
-15.4276

> <Gold.Chemscore.ZeroCoef>
-5.4800

> <Gold.Chemscore.Hbond>
1.9476

> <Gold.Chemscore.Metal>
0.0000

> <Gold.Chemscore.Lipo>
51.3047

> <Gold.Chemscore.Internal_Hbond>
0.0000

> <Gold.Chemscore.DEClash>
0.1442

> <Gold.Chemscore.DEInternal>
1.3188

> <Gold.Chemscore.Rot>
1.0000

> <Gold.Chemscore.Internal.Correction>
   9.000000E+99

> <Gold.Chemscore.Hbonds>
donor molecule, donor type, donor heavy atom, donor atom, acceptor molecule, acceptor atom, score
      L1  H     8    27       P1  7948  0.99
      L1  H    11    28       P1  7948  0.91

> <Gold.Chemscore.Hbond.Weighted>
-6.5049

> <Gold.Chemscore.Metal.Weighted>
-0.0000

> <Gold.Chemscore.Lipo.Weighted>
-6.0026

> <Gold.Chemscore.Internal_Hbond.Weighted>
0.0000

> <Gold.Chemscore.DEClash.Weighted>
0.1442

> <Gold.Chemscore.DEInternal.Weighted>
1.3188

> <Gold.Chemscore.Rot.Weighted>
2.5600

> <Gold.Chemscore.Internal.Correction.Weighted>
   9.000000E+99

> <Gold.Protein.RotatedTorsions>
[ 6907 6896 6895 6894 ] final  -44.82 input  -60.11 | X-H torsion
[ 7974 7965 7964 7962 ] final  -95.33 input  175.53 | X-H torsion
[ 8008 7997 7996 7995 ] final   56.32 input   59.86 | X-H torsion
[ 10167 10162 10161 10158 ] final -127.71 input  -65.29 | X-H torsion
[ 10718 10713 10712 10709 ] final  -75.79 input   66.30 | X-H torsion
[ 10763 10752 10751 10750 ] final  -62.29 input  -60.55 | X-H torsion
[ 11005 11000 10999 10996 ] final  178.34 input  -57.11 | X-H torsion

> <Gold.Protein.ActiveResidues>
 VAL166  LYS551  ARG553  GLY616  TRP617  ASP618  TYR619  PRO620  LYS621  CYS622 
 ASP623  PHE694  ASN695  SER759  ASP760  ASP761  ALA762  ILE779  LEU786  VAL792 
 PHE793  MET794  SER795  GLU796  ALA797  LYS798  CYS799  TRP800  GLU811  SER814 

> <Gold.Protein.RotatedAtoms>
  150.9287  134.8703  159.7536 H   0  0  0  0  0  0  0  0  0  0  0  0  # atno 6907 bound_to 6896
  152.5027  134.4111  159.9459 H   0  0  0  0  0  0  0  0  0  0  0  0  # atno 6908 bound_to 6896
  151.4140  133.3679  159.2782 H   0  0  0  0  0  0  0  0  0  0  0  0  # atno 6909 bound_to 6896
  145.3615  140.9492  143.2498 H   0  0  0  0  0  0  0  0  0  0  0  0  # atno 7974 bound_to 7965
  155.5155  140.3478  155.4396 H   0  0  0  0  0  0  0  0  0  0  0  0  # atno 8008 bound_to 7997
  156.0820  140.1389  156.9727 H   0  0  0  0  0  0  0  0  0  0  0  0  # atno 8009 bound_to 7997
  154.4585  140.0944  156.6803 H   0  0  0  0  0  0  0  0  0  0  0  0  # atno 8010 bound_to 7997
  139.9580  143.5982  152.2454 H   0  0  0  0  0  0  0  0  0  0  0  0  # atno 10167 bound_to 10162
  156.0196  130.4449  150.3096 H   0  0  0  0  0  0  0  0  0  0  0  0  # atno 10718 bound_to 10713
  154.2977  135.6241  153.5411 H   0  0  0  0  0  0  0  0  0  0  0  0  # atno 10763 bound_to 10752
  152.9844  135.5671  154.5319 H   0  0  0  0  0  0  0  0  0  0  0  0  # atno 10764 bound_to 10752
  154.4943  135.2869  155.1448 H   0  0  0  0  0  0  0  0  0  0  0  0  # atno 10765 bound_to 10752
  140.3941  134.6836  157.4524 H   0  0  0  0  0  0  0  0  0  0  0  0  # atno 11005 bound_to 11000
  144.8643  139.5131  143.6798 LP  0  0  0  0  0  0  0  0  0  0  0  0  # atno 17320 bound_to 7965
  146.2925  139.7181  142.9150 LP  0  0  0  0  0  0  0  0  0  0  0  0  # atno 17321 bound_to 7965
  139.6576  144.7662  151.2024 LP  0  0  0  0  0  0  0  0  0  0  0  0  # atno 17342 bound_to 10162
  140.7562  143.6060  150.8652 LP  0  0  0  0  0  0  0  0  0  0  0  0  # atno 17343 bound_to 10162
  157.1198  131.0244  151.3014 LP  0  0  0  0  0  0  0  0  0  0  0  0  # atno 17370 bound_to 10713
  157.4637  130.7668  149.7259 LP  0  0  0  0  0  0  0  0  0  0  0  0  # atno 17371 bound_to 10713
  140.0385  134.6302  155.9012 LP  0  0  0  0  0  0  0  0  0  0  0  0  # atno 17394 bound_to 11000
  141.1880  133.6561  156.5307 LP  0  0  0  0  0  0  0  0  0  0  0  0  # atno 17395 bound_to 11000

$$$$
