AV-unprocessed.smi:2849|AV-procd|sdf|10958|dock3
  -GOLD-   2272015413D 1   1.00000     0.00000
 Structure written by MMmdl.
 55 58  0  0  0  0  0  0  0  0  2 V2000
  146.2166  132.6333  154.3188 C   0  0  0  0  0  0  0  0  0  0  0  0
  147.4555  131.9401  154.7459 N   0  3  2  0  0  0  0  0  0  0  0  0
  147.9766  132.3546  156.0712 C   0  0  1  0  0  0  0  0  0  0  0  0
  148.9708  131.2821  156.5755 C   0  0  0  0  0  0  0  0  0  0  0  0
  150.0929  130.9498  155.5706 C   0  0  0  0  0  0  0  0  0  0  0  0
  149.5748  130.8472  154.1213 C   0  0  0  0  0  0  0  0  0  0  0  0
  148.5492  131.9420  153.7442 C   0  0  2  0  0  0  0  0  0  0  0  0
  149.1488  133.3595  153.5676 C   0  0  0  0  0  0  0  0  0  0  0  0
  149.5553  134.0570  154.8889 C   0  0  1  0  0  0  0  0  0  0  0  0
  149.6801  135.4978  154.6792 N   0  0  0  0  0  0  0  0  0  0  0  0
  150.1191  136.3782  155.5909 C   0  0  0  0  0  0  0  0  0  0  0  0
  150.4892  136.0530  156.7182 O   0  0  0  0  0  0  0  0  0  0  0  0
  150.0933  137.6302  155.1019 N   0  0  0  0  0  0  0  0  0  0  0  0
  150.4200  138.8600  155.7386 C   0  0  0  0  0  0  0  0  0  0  0  0
  150.3076  140.1407  155.1466 C   0  0  0  0  0  0  0  0  0  0  0  0
  150.6725  141.2749  155.8973 C   0  0  0  0  0  0  0  0  0  0  0  0
  151.1358  141.1066  157.2234 C   0  0  0  0  0  0  0  0  0  0  0  0
  151.5197  142.2144  158.0045 N   0  0  0  0  0  0  0  0  0  0  0  0
  151.6033  143.5559  157.4487 C   0  0  0  0  0  0  0  0  0  0  0  0
  152.1580  144.4102  158.5873 C   0  0  0  0  0  0  0  0  0  0  0  0
  153.0696  143.4382  159.3365 C   0  0  0  0  0  0  0  0  0  0  0  0
  152.3836  142.0771  159.1689 C   0  0  0  0  0  0  0  0  0  0  0  0
  151.2424  139.8810  157.7884 N   0  0  0  0  0  0  0  0  0  0  0  0
  150.8919  138.7977  157.0650 C   0  0  0  0  0  0  0  0  0  0  0  0
  148.5423  133.7966  156.0272 C   0  0  0  0  0  0  0  0  0  0  0  0
  146.3687  133.7023  154.1726 H   0  0  0  0  0  0  0  0  0  0  0  0
  145.4333  132.5033  155.0661 H   0  0  0  0  0  0  0  0  0  0  0  0
  145.8501  132.2134  153.3817 H   0  0  0  0  0  0  0  0  0  0  0  0
  147.1409  132.3549  156.7726 H   0  0  0  0  0  0  0  0  0  0  0  0
  149.4015  131.5798  157.5322 H   0  0  0  0  0  0  0  0  0  0  0  0
  148.4114  130.3667  156.7738 H   0  0  0  0  0  0  0  0  0  0  0  0
  150.8916  131.6833  155.6369 H   0  0  0  0  0  0  0  0  0  0  0  0
  150.5660  130.0089  155.8535 H   0  0  0  0  0  0  0  0  0  0  0  0
  150.4128  130.8529  153.4235 H   0  0  0  0  0  0  0  0  0  0  0  0
  149.0946  129.8754  154.0005 H   0  0  0  0  0  0  0  0  0  0  0  0
  148.1230  131.6475  152.7840 H   0  0  0  0  0  0  0  0  0  0  0  0
  150.0039  133.3182  152.8915 H   0  0  0  0  0  0  0  0  0  0  0  0
  148.4098  133.9776  153.0560 H   0  0  0  0  0  0  0  0  0  0  0  0
  150.5289  133.6913  155.2062 H   0  0  0  0  0  0  0  0  0  0  0  0
  149.3978  135.8531  153.7772 H   0  0  0  0  0  0  0  0  0  0  0  0
  149.7594  137.7214  154.1536 H   0  0  0  0  0  0  0  0  0  0  0  0
  149.9529  140.2878  154.1396 H   0  0  0  0  0  0  0  0  0  0  0  0
  150.5986  142.2523  155.4444 H   0  0  0  0  0  0  0  0  0  0  0  0
  152.2869  143.5549  156.5986 H   0  0  0  0  0  0  0  0  0  0  0  0
  150.6307  143.9156  157.1113 H   0  0  0  0  0  0  0  0  0  0  0  0
  152.6782  145.3016  158.2360 H   0  0  0  0  0  0  0  0  0  0  0  0
  151.3441  144.7287  159.2400 H   0  0  0  0  0  0  0  0  0  0  0  0
  154.0483  143.4150  158.8551 H   0  0  0  0  0  0  0  0  0  0  0  0
  153.2172  143.7126  160.3813 H   0  0  0  0  0  0  0  0  0  0  0  0
  151.7683  141.8443  160.0386 H   0  0  0  0  0  0  0  0  0  0  0  0
  153.1202  141.2823  159.0456 H   0  0  0  0  0  0  0  0  0  0  0  0
  150.9966  137.8457  157.5650 H   0  0  0  0  0  0  0  0  0  0  0  0
  147.7026  134.4843  155.9178 H   0  0  0  0  0  0  0  0  0  0  0  0
  148.9943  134.0486  156.9873 H   0  0  0  0  0  0  0  0  0  0  0  0
  147.1843  130.9728  154.8502 H   0  0  0  0  0  0  0  0  0  0  0  0
  1  2  1  0  0  0  0
  1 26  1  0  0  0  0
  1 27  1  0  0  0  0
  1 28  1  0  0  0  0
  2  7  1  0  0  0  0
  2  3  1  0  0  0  0
  2 55  1  0  0  0  0
  3 25  1  0  0  0  0
  3  4  1  0  0  0  0
  3 29  1  0  0  0  0
  4  5  1  0  0  0  0
  4 30  1  0  0  0  0
  4 31  1  0  0  0  0
  5  6  1  0  0  0  0
  5 32  1  0  0  0  0
  5 33  1  0  0  0  0
  6  7  1  0  0  0  0
  6 34  1  0  0  0  0
  6 35  1  0  0  0  0
  7  8  1  0  0  0  0
  7 36  1  0  0  0  0
  8  9  1  0  0  0  0
  8 37  1  0  0  0  0
  8 38  1  0  0  0  0
  9 10  1  0  0  0  0
  9 25  1  0  0  0  0
  9 39  1  0  0  0  0
 10 11  1  0  0  0  0
 10 40  1  0  0  0  0
 11 12  2  0  0  0  0
 11 13  1  0  0  0  0
 13 14  1  0  0  0  0
 13 41  1  0  0  0  0
 14 24  1  0  0  0  0
 14 15  2  0  0  0  0
 15 16  1  0  0  0  0
 15 42  1  0  0  0  0
 16 17  2  0  0  0  0
 16 43  1  0  0  0  0
 17 18  1  0  0  0  0
 17 23  1  0  0  0  0
 18 22  1  0  0  0  0
 18 19  1  0  0  0  0
 19 20  1  0  0  0  0
 19 44  1  0  0  0  0
 19 45  1  0  0  0  0
 20 21  1  0  0  0  0
 20 46  1  0  0  0  0
 20 47  1  0  0  0  0
 21 22  1  0  0  0  0
 21 48  1  0  0  0  0
 21 49  1  0  0  0  0
 22 50  1  0  0  0  0
 22 51  1  0  0  0  0
 23 24  2  0  0  0  0
 24 52  1  0  0  0  0
 25 53  1  0  0  0  0
 25 54  1  0  0  0  0
M  CHG  1   2   1
M  END
> <s_m_source_file>
AV-unprocessed.smi

> <i_m_source_file_index>
2849

> <i_lp_mmshare_version>
43012

> <i_f3d_flags>
0

> <s_epik_input>
W0NIMl0xW0NIMl1bQ0gyXVtDQEhdKE4oW0NIM10pW0NIXTEyKVtDSDJdW0NASF0oW0NIMl0yKVtOSF1DKD1PKVtOSF1jM1tjSF1bY0hdYyhuW2NIXTMpTjRbQ0gyXVtDSDJdW0NIMl1bQ0gyXTQ=

> <s_epik_cmdline>
J2VwaWtfcHl0aG9uJywgJy1waCcsICc3LjAnLCAnLXRuJywgJzgnLCAnLW1hJywgJzIwMCcsICctbWV0YWxfYmluZGluZycsICctaW1hZScsICc8aW5maWxlLm1hZT4nLCAnLW9tYWUnLCAnPG91dGZpbGUubWFlPic=

> <r_lp_tautomer_probability>
1

> <r_epik_Ionization_Penalty>
0.07954

> <r_epik_Ionization_Penalty_Charging>
0.00089841

> <r_epik_Ionization_Penalty_Neutral>
0.0786416

> <r_epik_State_Penalty>
0.0689917

> <r_epik_Charging_Adjusted_Penalty>
0.0698901

> <i_epik_Tot_Q>
1

> <i_epik_Tot_abs_Q>
1

> <r_epik_Metal_State_Penalty>
0.060891

> <b_epik_Metal_Only>
0

> <s_lp_Force_Field>
OPLS_2005

> <r_lp_Energy>
60.9972

> <b_lp_Chiralities_Consistent>
1

> <s_lp_Variant>
AV-unprocessed.smi:2849-2

> <Gold.Version>
5.8.1

> <Gold.Id.Protein>
6NUR|6NUR_protein|mol2

> <Gold.PLP.Fitness>
43.6636

> <Gold.PLP.PLP>
-40.7250

> <Gold.PLP.part.hbond>
-1.0000

> <Gold.PLP.part.metal>
0.0000

> <Gold.PLP.part.buried>
-4.8051

> <Gold.PLP.part.nonpolar>
-35.8219

> <Gold.PLP.part.repulsive>
0.0680

> <Gold.PLP.ligand.clash>
0.0000

> <Gold.PLP.ligand.torsion>
0.1181

> <Gold.PLP.Chemscore.Hbond>
1.0000

> <Gold.PLP.Chemscore.CHOScore>
0.0000

> <Gold.PLP.Chemscore.Metal>
0.0000

> <Gold.Chemscore.Hbonds>
donor molecule, donor type, donor heavy atom, donor atom, acceptor molecule, acceptor atom, score
      L1  H    10    40       P1  7948  1.00

> <Gold.PLP.Chemscore.Internal.Correction>
0.1747

> <Gold.Rescore>
     Score         DG    S(hbond)    S(metal)    S(lipo)     H(rot)  DE(clash)    DE(int)     intcor
     17.30     -18.97       0.90        0.00     111.52       1.00       0.07       1.60       ----

> <Gold.Chemscore.Fitness>
17.2979

> <Gold.Chemscore.DG>
-18.9678

> <Gold.Chemscore.ZeroCoef>
-5.4800

> <Gold.Chemscore.Hbond>
0.8982

> <Gold.Chemscore.Metal>
0.0000

> <Gold.Chemscore.Lipo>
111.5194

> <Gold.Chemscore.Internal_Hbond>
0.0000

> <Gold.Chemscore.DEClash>
0.0737

> <Gold.Chemscore.DEInternal>
1.5962

> <Gold.Chemscore.Rot>
1.0000

> <Gold.Chemscore.Internal.Correction>
   9.000000E+99

> <Gold.Chemscore.Hbonds>
donor molecule, donor type, donor heavy atom, donor atom, acceptor molecule, acceptor atom, score
      L1  H    10    40       P1  7948  0.54

> <Gold.Chemscore.Hbond.Weighted>
-3.0000

> <Gold.Chemscore.Metal.Weighted>
-0.0000

> <Gold.Chemscore.Lipo.Weighted>
-13.0478

> <Gold.Chemscore.Internal_Hbond.Weighted>
0.0000

> <Gold.Chemscore.DEClash.Weighted>
0.0737

> <Gold.Chemscore.DEInternal.Weighted>
1.5962

> <Gold.Chemscore.Rot.Weighted>
2.5600

> <Gold.Chemscore.Internal.Correction.Weighted>
   9.000000E+99

> <Gold.Protein.RotatedTorsions>
[ 6907 6896 6895 6894 ] final  -36.40 input  -60.11 | X-H torsion
[ 7974 7965 7964 7962 ] final  -93.13 input  175.53 | X-H torsion
[ 8008 7997 7996 7995 ] final   -3.58 input   59.86 | X-H torsion
[ 10167 10162 10161 10158 ] final -141.39 input  -65.29 | X-H torsion
[ 10718 10713 10712 10709 ] final   19.63 input   66.30 | X-H torsion
[ 10763 10752 10751 10750 ] final  -42.55 input  -60.55 | X-H torsion
[ 11005 11000 10999 10996 ] final   -7.82 input  -57.11 | X-H torsion

> <Gold.Protein.ActiveResidues>
 VAL166  LYS551  ARG553  GLY616  TRP617  ASP618  TYR619  PRO620  LYS621  CYS622 
 ASP623  PHE694  ASN695  SER759  ASP760  ASP761  ALA762  ILE779  LEU786  VAL792 
 PHE793  MET794  SER795  GLU796  ALA797  LYS798  CYS799  TRP800  GLU811  SER814 

> <Gold.Protein.RotatedAtoms>
  151.0276  134.9516  159.8093 H   0  0  0  0  0  0  0  0  0  0  0  0  # atno 6907 bound_to 6896
  152.5339  134.2821  159.9021 H   0  0  0  0  0  0  0  0  0  0  0  0  # atno 6908 bound_to 6896
  151.2830  133.4158  159.2662 H   0  0  0  0  0  0  0  0  0  0  0  0  # atno 6909 bound_to 6896
  145.3906  140.9527  143.2343 H   0  0  0  0  0  0  0  0  0  0  0  0  # atno 7974 bound_to 7965
  154.6234  140.2505  155.7522 H   0  0  0  0  0  0  0  0  0  0  0  0  # atno 8008 bound_to 7997
  156.2439  140.2922  156.0472 H   0  0  0  0  0  0  0  0  0  0  0  0  # atno 8009 bound_to 7997
  155.1860  140.0390  157.2882 H   0  0  0  0  0  0  0  0  0  0  0  0  # atno 8010 bound_to 7997
  139.8190  143.7600  152.2665 H   0  0  0  0  0  0  0  0  0  0  0  0  # atno 10167 bound_to 10162
  157.1132  130.6517  149.5903 H   0  0  0  0  0  0  0  0  0  0  0  0  # atno 10718 bound_to 10713
  153.9808  135.6717  153.4750 H   0  0  0  0  0  0  0  0  0  0  0  0  # atno 10763 bound_to 10752
  153.0749  135.4954  154.8380 H   0  0  0  0  0  0  0  0  0  0  0  0  # atno 10764 bound_to 10752
  154.7165  135.3108  154.9077 H   0  0  0  0  0  0  0  0  0  0  0  0  # atno 10765 bound_to 10752
  140.7169  133.8861  155.8791 H   0  0  0  0  0  0  0  0  0  0  0  0  # atno 11005 bound_to 11000
  144.8443  139.5422  143.6886 LP  0  0  0  0  0  0  0  0  0  0  0  0  # atno 17320 bound_to 7965
  146.2799  139.6851  142.9236 LP  0  0  0  0  0  0  0  0  0  0  0  0  # atno 17321 bound_to 7965
  139.7772  144.7457  151.0139 LP  0  0  0  0  0  0  0  0  0  0  0  0  # atno 17342 bound_to 10162
  140.7814  143.4581  151.0317 LP  0  0  0  0  0  0  0  0  0  0  0  0  # atno 17343 bound_to 10162
  155.9845  130.4871  150.6989 LP  0  0  0  0  0  0  0  0  0  0  0  0  # atno 17370 bound_to 10713
  157.4541  131.0876  151.0815 LP  0  0  0  0  0  0  0  0  0  0  0  0  # atno 17371 bound_to 10713
  141.0037  134.1115  157.4292 LP  0  0  0  0  0  0  0  0  0  0  0  0  # atno 17394 bound_to 11000
  139.8858  135.0075  156.6456 LP  0  0  0  0  0  0  0  0  0  0  0  0  # atno 17395 bound_to 11000

$$$$
