AV-unprocessed.smi:2822|AV-procd|sdf|10869|dock1
  -GOLD-   2272015313D 1   1.00000     0.00000
 Structure written by MMmdl.
 40 42  0  0  0  0  0  0  0  0  2 V2000
  150.3478  141.6566  155.5999 Cl  0  0  0  0  0  0  0  0  0  0  0  0
  149.0615  140.9141  154.7140 C   0  0  0  0  0  0  0  0  0  0  0  0
  148.0269  141.7114  154.1828 C   0  0  0  0  0  0  0  0  0  0  0  0
  146.9906  141.2115  153.4773 N   0  0  0  0  0  0  0  0  0  0  0  0
  146.9515  139.8778  153.2776 C   0  0  0  0  0  0  0  0  0  0  0  0
  147.9326  138.9909  153.7646 C   0  0  0  0  0  0  0  0  0  0  0  0
  149.0196  139.5168  154.5018 C   0  0  0  0  0  0  0  0  0  0  0  0
  150.0414  138.7077  155.0209 N   0  0  0  0  0  0  0  0  0  0  0  0
  150.1573  137.3082  154.6423 C   0  0  0  0  0  0  0  0  0  0  0  0
  149.3735  136.3982  155.6088 C   0  0  1  0  0  0  0  0  0  0  0  0
  147.9261  136.1341  155.1534 C   0  0  0  0  0  0  0  0  0  0  0  0
  147.8845  135.2304  153.9797 N   0  3  2  0  0  0  0  0  0  0  0  0
  146.4970  134.9949  153.5049 C   0  0  0  0  0  0  0  0  0  0  0  0
  146.4821  134.1261  152.2376 C   0  0  0  0  0  0  0  0  0  0  0  0
  147.2123  132.7994  152.4783 C   0  0  0  0  0  0  0  0  0  0  0  0
  148.6337  133.0691  152.9892 C   0  0  0  0  0  0  0  0  0  0  0  0
  148.6205  133.9645  154.2450 C   0  0  1  0  0  0  0  0  0  0  0  0
  150.0537  134.2764  154.7161 C   0  0  0  0  0  0  0  0  0  0  0  0
  150.0299  135.1511  155.8392 O   0  0  0  0  0  0  0  0  0  0  0  0
  148.0323  142.7817  154.3272 H   0  0  0  0  0  0  0  0  0  0  0  0
  146.1111  139.5038  152.7117 H   0  0  0  0  0  0  0  0  0  0  0  0
  147.8323  137.9341  153.5686 H   0  0  0  0  0  0  0  0  0  0  0  0
  150.8154  139.1444  155.5024 H   0  0  0  0  0  0  0  0  0  0  0  0
  149.7558  137.1943  153.6346 H   0  0  0  0  0  0  0  0  0  0  0  0
  151.2068  137.0192  154.5948 H   0  0  0  0  0  0  0  0  0  0  0  0
  149.3261  136.9087  156.5716 H   0  0  0  0  0  0  0  0  0  0  0  0
  147.3652  135.6797  155.9720 H   0  0  0  0  0  0  0  0  0  0  0  0
  147.4294  137.0758  154.9162 H   0  0  0  0  0  0  0  0  0  0  0  0
  145.9172  134.5136  154.2944 H   0  0  0  0  0  0  0  0  0  0  0  0
  146.0157  135.9511  153.2966 H   0  0  0  0  0  0  0  0  0  0  0  0
  145.4538  133.9344  151.9295 H   0  0  0  0  0  0  0  0  0  0  0  0
  146.9567  134.6643  151.4161 H   0  0  0  0  0  0  0  0  0  0  0  0
  146.6643  132.2021  153.2081 H   0  0  0  0  0  0  0  0  0  0  0  0
  147.2466  132.2154  151.5580 H   0  0  0  0  0  0  0  0  0  0  0  0
  149.1306  132.1231  153.2085 H   0  0  0  0  0  0  0  0  0  0  0  0
  149.2157  133.5469  152.1995 H   0  0  0  0  0  0  0  0  0  0  0  0
  148.1024  133.4347  155.0468 H   0  0  0  0  0  0  0  0  0  0  0  0
  150.5557  133.3552  155.0129 H   0  0  0  0  0  0  0  0  0  0  0  0
  150.6512  134.7024  153.9098 H   0  0  0  0  0  0  0  0  0  0  0  0
  148.3735  135.7001  153.2310 H   0  0  0  0  0  0  0  0  0  0  0  0
  1  2  1  0  0  0  0
  2  7  1  0  0  0  0
  2  3  2  0  0  0  0
  3  4  1  0  0  0  0
  3 20  1  0  0  0  0
  4  5  2  0  0  0  0
  5  6  1  0  0  0  0
  5 21  1  0  0  0  0
  6  7  2  0  0  0  0
  6 22  1  0  0  0  0
  7  8  1  0  0  0  0
  8  9  1  0  0  0  0
  8 23  1  0  0  0  0
  9 10  1  0  0  0  0
  9 24  1  0  0  0  0
  9 25  1  0  0  0  0
 10 19  1  0  0  0  0
 10 11  1  0  0  0  0
 10 26  1  0  0  0  0
 11 12  1  0  0  0  0
 11 27  1  0  0  0  0
 11 28  1  0  0  0  0
 12 17  1  0  0  0  0
 12 13  1  0  0  0  0
 12 40  1  0  0  0  0
 13 14  1  0  0  0  0
 13 29  1  0  0  0  0
 13 30  1  0  0  0  0
 14 15  1  0  0  0  0
 14 31  1  0  0  0  0
 14 32  1  0  0  0  0
 15 16  1  0  0  0  0
 15 33  1  0  0  0  0
 15 34  1  0  0  0  0
 16 17  1  0  0  0  0
 16 35  1  0  0  0  0
 16 36  1  0  0  0  0
 17 18  1  0  0  0  0
 17 37  1  0  0  0  0
 18 19  1  0  0  0  0
 18 38  1  0  0  0  0
 18 39  1  0  0  0  0
M  CHG  1  12   1
M  END
> <s_m_source_file>
AV-unprocessed.smi

> <i_m_source_file_index>
2822

> <i_lp_mmshare_version>
43012

> <i_f3d_flags>
0

> <s_epik_input>
Q2xjMVtjSF1uW2NIXVtjSF1jMVtOSF1bQ0gyXVtDQEhdKFtDSDJdMilPW0NIMl1bQ0BASF0oTjIzKVtDSDJdW0NIMl1bQ0gyXVtDSDJdMw==

> <s_epik_cmdline>
J2VwaWtfcHl0aG9uJywgJy1waCcsICc3LjAnLCAnLXRuJywgJzgnLCAnLW1hJywgJzIwMCcsICctbWV0YWxfYmluZGluZycsICctaW1hZScsICc8aW5maWxlLm1hZT4nLCAnLW9tYWUnLCAnPG91dGZpbGUubWFlPic=

> <r_lp_tautomer_probability>
0.999999

> <r_epik_Ionization_Penalty>
0.88937

> <r_epik_Ionization_Penalty_Charging>
0.0803403

> <r_epik_Ionization_Penalty_Neutral>
0.80903

> <r_epik_State_Penalty>
0.931884

> <r_epik_Charging_Adjusted_Penalty>
1.01222

> <i_epik_Tot_Q>
1

> <i_epik_Tot_abs_Q>
1

> <r_epik_Metal_State_Penalty>
0.0782275

> <b_epik_Metal_Only>
0

> <s_lp_Force_Field>
OPLS_2005

> <r_lp_Energy>
31.9591

> <b_lp_Chiralities_Consistent>
1

> <s_lp_Variant>
AV-unprocessed.smi:2822-10

> <Gold.Version>
5.8.1

> <Gold.Id.Protein>
6NUR|6NUR_protein|mol2

> <Gold.PLP.Fitness>
40.1691

> <Gold.PLP.PLP>
-30.1753

> <Gold.PLP.part.hbond>
-1.0000

> <Gold.PLP.part.metal>
0.0000

> <Gold.PLP.part.buried>
-1.6511

> <Gold.PLP.part.nonpolar>
-26.8411

> <Gold.PLP.part.repulsive>
0.2936

> <Gold.PLP.ligand.clash>
0.0000

> <Gold.PLP.ligand.torsion>
0.6612

> <Gold.PLP.Chemscore.Hbond>
2.0000

> <Gold.PLP.Chemscore.CHOScore>
1.7696

> <Gold.PLP.Chemscore.Metal>
0.0000

> <Gold.Chemscore.Hbonds>
donor molecule, donor type, donor heavy atom, donor atom, acceptor molecule, acceptor atom, score
      L1  H    12    40       P1  7948  2.00
      L1  C     3    20       P1  8028  1.00
      L1  C     5    21       P1 10175  0.77

> <Gold.PLP.Chemscore.Internal.Correction>
0.0073

> <Gold.Rescore>
     Score         DG    S(hbond)    S(metal)    S(lipo)     H(rot)  DE(clash)    DE(int)     intcor
     14.69     -15.33       0.99        0.00      81.62       1.17       0.03       0.61       ----

> <Gold.Chemscore.Fitness>
14.6888

> <Gold.Chemscore.DG>
-15.3318

> <Gold.Chemscore.ZeroCoef>
-5.4800

> <Gold.Chemscore.Hbond>
0.9866

> <Gold.Chemscore.Metal>
0.0000

> <Gold.Chemscore.Lipo>
81.6238

> <Gold.Chemscore.Internal_Hbond>
0.0000

> <Gold.Chemscore.DEClash>
0.0287

> <Gold.Chemscore.DEInternal>
0.6143

> <Gold.Chemscore.Rot>
1.1693

> <Gold.Chemscore.Internal.Correction>
   9.000000E+99

> <Gold.Chemscore.Hbonds>
donor molecule, donor type, donor heavy atom, donor atom, acceptor molecule, acceptor atom, score
      L1  H    12    40       P1  7948  0.97

> <Gold.Chemscore.Hbond.Weighted>
-3.2952

> <Gold.Chemscore.Metal.Weighted>
-0.0000

> <Gold.Chemscore.Lipo.Weighted>
-9.5500

> <Gold.Chemscore.Internal_Hbond.Weighted>
0.0000

> <Gold.Chemscore.DEClash.Weighted>
0.0287

> <Gold.Chemscore.DEInternal.Weighted>
0.6143

> <Gold.Chemscore.Rot.Weighted>
2.9934

> <Gold.Chemscore.Internal.Correction.Weighted>
   9.000000E+99

> <Gold.Protein.RotatedTorsions>
[ 6907 6896 6895 6894 ] final  169.20 input  -60.11 | X-H torsion
[ 7974 7965 7964 7962 ] final  -96.92 input  175.53 | X-H torsion
[ 8008 7997 7996 7995 ] final   96.50 input   59.86 | X-H torsion
[ 10167 10162 10161 10158 ] final  167.83 input  -65.29 | X-H torsion
[ 10718 10713 10712 10709 ] final -114.80 input   66.30 | X-H torsion
[ 10763 10752 10751 10750 ] final -103.39 input  -60.55 | X-H torsion
[ 11005 11000 10999 10996 ] final   70.25 input  -57.11 | X-H torsion

> <Gold.Protein.ActiveResidues>
 VAL166  LYS551  ARG553  GLY616  TRP617  ASP618  TYR619  PRO620  LYS621  CYS622 
 ASP623  PHE694  ASN695  SER759  ASP760  ASP761  ALA762  ILE779  LEU786  VAL792 
 PHE793  MET794  SER795  GLU796  ALA797  LYS798  CYS799  TRP800  GLU811  SER814 

> <Gold.Protein.RotatedAtoms>
  151.8357  133.3415  159.3627 H   0  0  0  0  0  0  0  0  0  0  0  0  # atno 6907 bound_to 6896
  150.7250  134.5440  159.5770 H   0  0  0  0  0  0  0  0  0  0  0  0  # atno 6908 bound_to 6896
  152.2902  134.7730  160.0430 H   0  0  0  0  0  0  0  0  0  0  0  0  # atno 6909 bound_to 6896
  145.3405  140.9459  143.2611 H   0  0  0  0  0  0  0  0  0  0  0  0  # atno 7974 bound_to 7965
  156.0802  140.3272  155.7685 H   0  0  0  0  0  0  0  0  0  0  0  0  # atno 8008 bound_to 7997
  155.5164  140.0581  157.2932 H   0  0  0  0  0  0  0  0  0  0  0  0  # atno 8009 bound_to 7997
  154.4578  140.1951  156.0347 H   0  0  0  0  0  0  0  0  0  0  0  0  # atno 8010 bound_to 7997
  139.4954  144.3880  151.9549 H   0  0  0  0  0  0  0  0  0  0  0  0  # atno 10167 bound_to 10162
  156.0853  130.6046  150.8822 H   0  0  0  0  0  0  0  0  0  0  0  0  # atno 10718 bound_to 10713
  154.7804  135.4825  153.9832 H   0  0  0  0  0  0  0  0  0  0  0  0  # atno 10763 bound_to 10752
  153.1486  135.6787  153.8924 H   0  0  0  0  0  0  0  0  0  0  0  0  # atno 10764 bound_to 10752
  153.8576  135.3159  155.3414 H   0  0  0  0  0  0  0  0  0  0  0  0  # atno 10765 bound_to 10752
  139.9608  134.7064  156.0650 H   0  0  0  0  0  0  0  0  0  0  0  0  # atno 11005 bound_to 11000
  144.8794  139.4925  143.6730 LP  0  0  0  0  0  0  0  0  0  0  0  0  # atno 17320 bound_to 7965
  146.3009  139.7424  142.9092 LP  0  0  0  0  0  0  0  0  0  0  0  0  # atno 17321 bound_to 7965
  140.3317  144.3309  150.5986 LP  0  0  0  0  0  0  0  0  0  0  0  0  # atno 17342 bound_to 10162
  140.5640  143.2188  151.7716 LP  0  0  0  0  0  0  0  0  0  0  0  0  # atno 17343 bound_to 10162
  157.5985  131.0942  150.8999 LP  0  0  0  0  0  0  0  0  0  0  0  0  # atno 17370 bound_to 10713
  156.9161  130.5298  149.5279 LP  0  0  0  0  0  0  0  0  0  0  0  0  # atno 17371 bound_to 10713
  141.1285  133.6593  156.3400 LP  0  0  0  0  0  0  0  0  0  0  0  0  # atno 17394 bound_to 11000
  140.5505  134.6032  157.5406 LP  0  0  0  0  0  0  0  0  0  0  0  0  # atno 17395 bound_to 11000

$$$$
