AV-unprocessed.smi:2630|AV-procd|sdf|10246|dock3
  -GOLD-   2272014253D 1   1.00000     0.00000
 Structure written by MMmdl.
 35 36  0  0  0  0  0  0  0  0  1 V2000
  147.2519  135.6860  161.8153 C   0  0  0  0  0  0  0  0  0  0  0  0
  147.3702  136.7314  160.8673 O   0  0  0  0  0  0  0  0  0  0  0  0
  147.9251  136.2916  159.6382 C   0  0  0  0  0  0  0  0  0  0  0  0
  149.4131  136.6750  159.5786 C   0  0  0  0  0  0  0  0  0  0  0  0
  149.9307  136.7294  158.2257 N   0  0  0  0  0  0  0  0  0  0  0  0
  150.3317  137.9095  157.5938 C   0  0  0  0  0  0  0  0  0  0  0  0
  150.2496  139.1064  158.2851 N   0  0  0  0  0  0  0  0  0  0  0  0
  150.7802  137.8983  156.3116 C   0  0  0  0  0  0  0  0  0  0  0  0
  151.2914  139.3284  155.3887 S   0  0  0  0  0  0  0  0  0  0  0  0
  149.7689  139.8096  154.6403 C   0  0  0  0  0  0  0  0  0  0  0  0
  148.9793  138.8518  153.9729 C   0  0  0  0  0  0  0  0  0  0  0  0
  147.7679  139.2394  153.3678 C   0  0  0  0  0  0  0  0  0  0  0  0
  147.3459  140.5819  153.4324 C   0  0  0  0  0  0  0  0  0  0  0  0
  148.1354  141.5381  154.1016 C   0  0  0  0  0  0  0  0  0  0  0  0
  149.3477  141.1525  154.7064 C   0  0  0  0  0  0  0  0  0  0  0  0
  150.8753  136.6663  155.5255 C   0  0  0  0  0  0  0  0  0  0  0  0
  151.2816  136.5612  154.3684 O   0  0  0  0  0  0  0  0  0  0  0  0
  150.4453  135.5298  156.2098 N   0  0  0  0  0  0  0  0  0  0  0  0
  149.9679  135.5005  157.5191 C   0  0  0  0  0  0  0  0  0  0  0  0
  149.6001  134.4295  158.0030 O   0  0  0  0  0  0  0  0  0  0  0  0
  150.4780  134.6521  155.7118 H   0  0  0  0  0  0  0  0  0  0  0  0
  146.8216  136.0748  162.7381 H   0  0  0  0  0  0  0  0  0  0  0  0
  148.2259  135.2560  162.0527 H   0  0  0  0  0  0  0  0  0  0  0  0
  146.5986  134.8936  161.4474 H   0  0  0  0  0  0  0  0  0  0  0  0
  147.8258  135.2081  159.5625 H   0  0  0  0  0  0  0  0  0  0  0  0
  147.3816  136.7251  158.7974 H   0  0  0  0  0  0  0  0  0  0  0  0
  149.5953  137.6449  160.0396 H   0  0  0  0  0  0  0  0  0  0  0  0
  150.0331  135.9731  160.1387 H   0  0  0  0  0  0  0  0  0  0  0  0
  149.9073  139.1479  159.2343 H   0  0  0  0  0  0  0  0  0  0  0  0
  150.6226  139.9648  157.9059 H   0  0  0  0  0  0  0  0  0  0  0  0
  149.3004  137.8219  153.9196 H   0  0  0  0  0  0  0  0  0  0  0  0
  147.1629  138.5071  152.8538 H   0  0  0  0  0  0  0  0  0  0  0  0
  146.4167  140.8780  152.9683 H   0  0  0  0  0  0  0  0  0  0  0  0
  147.8118  142.5674  154.1500 H   0  0  0  0  0  0  0  0  0  0  0  0
  149.9535  141.8878  155.2158 H   0  0  0  0  0  0  0  0  0  0  0  0
  1  2  1  0  0  0  0
  1 22  1  0  0  0  0
  1 23  1  0  0  0  0
  1 24  1  0  0  0  0
  2  3  1  0  0  0  0
  3  4  1  0  0  0  0
  3 25  1  0  0  0  0
  3 26  1  0  0  0  0
  4  5  1  0  0  0  0
  4 27  1  0  0  0  0
  4 28  1  0  0  0  0
  5 19  1  0  0  0  0
  5  6  1  0  0  0  0
  6  7  1  0  0  0  0
  6  8  2  0  0  0  0
  7 29  1  0  0  0  0
  7 30  1  0  0  0  0
  8  9  1  0  0  0  0
  8 16  1  0  0  0  0
  9 10  1  0  0  0  0
 10 15  1  0  0  0  0
 10 11  2  0  0  0  0
 11 12  1  0  0  0  0
 11 31  1  0  0  0  0
 12 13  2  0  0  0  0
 12 32  1  0  0  0  0
 13 14  1  0  0  0  0
 13 33  1  0  0  0  0
 14 15  2  0  0  0  0
 14 34  1  0  0  0  0
 15 35  1  0  0  0  0
 16 17  2  0  0  0  0
 16 18  1  0  0  0  0
 18 21  1  0  0  0  0
 18 19  1  0  0  0  0
 19 20  2  0  0  0  0
M  END
> <s_m_source_file>
AV-unprocessed.smi

> <i_m_source_file_index>
2630

> <i_lp_mmshare_version>
43012

> <i_f3d_flags>
0

> <s_epik_input>
W0NIM11PW0NIMl1bQ0gyXW4xYyhbTkgyXSljKGMoPU8pW25IXWMxPU8pU2MyW2NIXVtjSF1bY0hdW2NIXVtjSF0y

> <s_epik_cmdline>
J2VwaWtfcHl0aG9uJywgJy1waCcsICc3LjAnLCAnLXRuJywgJzgnLCAnLW1hJywgJzIwMCcsICctbWV0YWxfYmluZGluZycsICctaW1hZScsICc8aW5maWxlLm1hZT4nLCAnLW9tYWUnLCAnPG91dGZpbGUubWFlPic=

> <r_lp_tautomer_probability>
1

> <r_epik_Ionization_Penalty>
1.3786e-05

> <r_epik_Ionization_Penalty_Charging>
1.17844e-05

> <r_epik_Ionization_Penalty_Neutral>
2.00164e-06

> <r_epik_State_Penalty>
-0

> <r_epik_Charging_Adjusted_Penalty>
1.17844e-05

> <i_epik_Tot_Q>
0

> <i_epik_Tot_abs_Q>
0

> <r_epik_Metal_State_Penalty>
0.0115847

> <b_epik_Metal_Only>
0

> <s_epik_Chemistry_Notes>
This compound has an imine and may undergo hydrolysis.

> <s_lp_Force_Field>
OPLS_2005

> <r_lp_Energy>
18.8348

> <b_lp_Chiralities_Consistent>
1

> <s_lp_Variant>
AV-unprocessed.smi:2630-1

> <Gold.Version>
5.8.1

> <Gold.Id.Protein>
6NUR|6NUR_protein|mol2

> <Gold.PLP.Fitness>
41.4748

> <Gold.PLP.PLP>
-31.6158

> <Gold.PLP.part.hbond>
-4.0000

> <Gold.PLP.part.metal>
0.0000

> <Gold.PLP.part.buried>
0.0451

> <Gold.PLP.part.nonpolar>
-28.5791

> <Gold.PLP.part.repulsive>
1.3205

> <Gold.PLP.ligand.clash>
0.0000

> <Gold.PLP.ligand.torsion>
0.9263

> <Gold.PLP.Chemscore.Hbond>
3.8880

> <Gold.PLP.Chemscore.CHOScore>
0.0000

> <Gold.PLP.Chemscore.Metal>
0.0000

> <Gold.Chemscore.Hbonds>
donor molecule, donor type, donor heavy atom, donor atom, acceptor molecule, acceptor atom, score
      P1  H  6896  6908       L1    20  1.00
      P1  H  6934  6947       L1     2  0.32
      P1  H 10752 10765       L1    17  1.00

> <Gold.PLP.Chemscore.Internal.Correction>
0.0477

> <Gold.Rescore>
     Score         DG    S(hbond)    S(metal)    S(lipo)     H(rot)  DE(clash)    DE(int)     intcor
     16.78     -18.01       2.79        0.00      72.55       2.07       0.08       1.14       ----

> <Gold.Chemscore.Fitness>
16.7823

> <Gold.Chemscore.DG>
-18.0092

> <Gold.Chemscore.ZeroCoef>
-5.4800

> <Gold.Chemscore.Hbond>
2.7948

> <Gold.Chemscore.Metal>
0.0000

> <Gold.Chemscore.Lipo>
72.5519

> <Gold.Chemscore.Internal_Hbond>
0.0000

> <Gold.Chemscore.DEClash>
0.0845

> <Gold.Chemscore.DEInternal>
1.1424

> <Gold.Chemscore.Rot>
2.0680

> <Gold.Chemscore.Internal.Correction>
   9.000000E+99

> <Gold.Chemscore.Hbonds>
donor molecule, donor type, donor heavy atom, donor atom, acceptor molecule, acceptor atom, score
      P1  H  6896  6908       L1    20  0.50
      P1  H  6931  6943       L1     2  0.01
      P1  H  6934  6947       L1     2  0.26
      P1  H 10752 10765       L1    17  0.92

> <Gold.Chemscore.Hbond.Weighted>
-9.3348

> <Gold.Chemscore.Metal.Weighted>
-0.0000

> <Gold.Chemscore.Lipo.Weighted>
-8.4886

> <Gold.Chemscore.Internal_Hbond.Weighted>
0.0000

> <Gold.Chemscore.DEClash.Weighted>
0.0845

> <Gold.Chemscore.DEInternal.Weighted>
1.1424

> <Gold.Chemscore.Rot.Weighted>
5.2941

> <Gold.Chemscore.Internal.Correction.Weighted>
   9.000000E+99

> <Gold.Protein.RotatedTorsions>
[ 6907 6896 6895 6894 ] final  142.82 input  -60.11 | X-H torsion
[ 7974 7965 7964 7962 ] final   70.37 input  175.53 | X-H torsion
[ 8008 7997 7996 7995 ] final  -97.28 input   59.86 | X-H torsion
[ 10167 10162 10161 10158 ] final  108.07 input  -65.29 | X-H torsion
[ 10718 10713 10712 10709 ] final -123.76 input   66.30 | X-H torsion
[ 10763 10752 10751 10750 ] final  153.11 input  -60.55 | X-H torsion
[ 11005 11000 10999 10996 ] final -173.77 input  -57.11 | X-H torsion

> <Gold.Protein.ActiveResidues>
 VAL166  LYS551  ARG553  GLY616  TRP617  ASP618  TYR619  PRO620  LYS621  CYS622 
 ASP623  PHE694  ASN695  SER759  ASP760  ASP761  ALA762  ILE779  LEU786  VAL792 
 PHE793  MET794  SER795  GLU796  ALA797  LYS798  CYS799  TRP800  GLU811  SER814 

> <Gold.Protein.RotatedAtoms>
  152.2140  133.4933  159.5125 H   0  0  0  0  0  0  0  0  0  0  0  0  # atno 6907 bound_to 6896
  150.6997  134.1430  159.4121 H   0  0  0  0  0  0  0  0  0  0  0  0  # atno 6908 bound_to 6896
  151.9349  135.0239  160.0582 H   0  0  0  0  0  0  0  0  0  0  0  0  # atno 6909 bound_to 6896
  145.7790  139.2878  143.1277 H   0  0  0  0  0  0  0  0  0  0  0  0  # atno 7974 bound_to 7965
  154.7857  140.0464  157.1162 H   0  0  0  0  0  0  0  0  0  0  0  0  # atno 8008 bound_to 7997
  154.9651  140.3082  155.4993 H   0  0  0  0  0  0  0  0  0  0  0  0  # atno 8009 bound_to 7997
  156.2943  140.2263  156.4740 H   0  0  0  0  0  0  0  0  0  0  0  0  # atno 8010 bound_to 7997
  139.6876  144.7111  151.1405 H   0  0  0  0  0  0  0  0  0  0  0  0  # atno 10167 bound_to 10162
  156.1529  130.6547  150.9940 H   0  0  0  0  0  0  0  0  0  0  0  0  # atno 10718 bound_to 10713
  154.1309  135.2827  155.3185 H   0  0  0  0  0  0  0  0  0  0  0  0  # atno 10763 bound_to 10752
  154.6356  135.5420  153.7734 H   0  0  0  0  0  0  0  0  0  0  0  0  # atno 10764 bound_to 10752
  153.0282  135.6473  154.1459 H   0  0  0  0  0  0  0  0  0  0  0  0  # atno 10765 bound_to 10752
  140.4820  134.6066  157.4923 H   0  0  0  0  0  0  0  0  0  0  0  0  # atno 11005 bound_to 11000
  146.0093  140.8450  142.9979 LP  0  0  0  0  0  0  0  0  0  0  0  0  # atno 17320 bound_to 7965
  144.6799  140.2467  143.7337 LP  0  0  0  0  0  0  0  0  0  0  0  0  # atno 17321 bound_to 7965
  140.7672  143.5607  150.9102 LP  0  0  0  0  0  0  0  0  0  0  0  0  # atno 17342 bound_to 10162
  139.9282  143.6524  152.3082 LP  0  0  0  0  0  0  0  0  0  0  0  0  # atno 17343 bound_to 10162
  157.6671  131.0869  150.7701 LP  0  0  0  0  0  0  0  0  0  0  0  0  # atno 17370 bound_to 10713
  156.7768  130.4846  149.5408 LP  0  0  0  0  0  0  0  0  0  0  0  0  # atno 17371 bound_to 10713
  139.9821  134.7121  155.9841 LP  0  0  0  0  0  0  0  0  0  0  0  0  # atno 17394 bound_to 11000
  141.1526  133.6546  156.4062 LP  0  0  0  0  0  0  0  0  0  0  0  0  # atno 17395 bound_to 11000

$$$$
