AV-unprocessed.smi:1047|AV-procd|sdf|4579|dock9
  -GOLD-   22720 3 43D 1   1.00000     0.00000
 Structure written by MMmdl.
 56 58  0  0  0  0  0  0  0  0  2 V2000
  143.7081  134.3527  163.1808 C   0  0  0  0  0  0  0  0  0  0  0  0
  144.7524  134.0746  162.0902 C   0  0  0  0  0  0  0  0  0  0  0  0
  145.9107  135.0000  162.1608 N   0  3  2  0  0  0  0  0  0  0  0  0
  145.5599  136.3534  162.6573 C   0  0  0  0  0  0  0  0  0  0  0  0
  146.8116  137.2439  162.7218 C   0  0  0  0  0  0  0  0  0  0  0  0
  147.4284  137.2927  161.4414 O   0  0  0  0  0  0  0  0  0  0  0  0
  147.8690  136.0098  161.0075 C   0  0  2  0  0  0  0  0  0  0  0  0
  148.6053  136.1806  159.6702 C   0  0  0  0  0  0  0  0  0  0  0  0
  149.8502  136.9201  159.8503 N   0  0  0  0  0  0  0  0  0  0  0  0
  150.4741  137.3271  158.5943 C   0  0  0  0  0  0  0  0  0  0  0  0
  151.8441  137.9867  158.8458 C   0  0  1  0  0  0  0  0  0  0  0  0
  152.7228  137.0067  159.3581 O   0  0  0  0  0  0  0  0  0  0  0  0
  152.4975  138.5655  157.5755 C   0  0  0  0  0  0  0  0  0  0  0  0
  152.0239  139.9004  157.2576 N   0  0  0  0  0  0  0  0  0  0  0  0
  151.4003  140.2894  156.1291 C   0  0  0  0  0  0  0  0  0  0  0  0
  151.0463  141.5681  156.0387 N   0  0  0  0  0  0  0  0  0  0  0  0
  151.4857  142.0656  157.2537 C   0  0  0  0  0  0  0  0  0  0  0  0
  151.4136  143.3700  157.7895 C   0  0  0  0  0  0  0  0  0  0  0  0
  151.9358  143.6570  159.0708 C   0  0  0  0  0  0  0  0  0  0  0  0
  151.8369  145.0738  159.6085 C   0  0  0  0  0  0  0  0  0  0  0  0
  152.5410  142.6292  159.8378 C   0  0  0  0  0  0  0  0  0  0  0  0
  153.1061  142.9132  161.2183 C   0  0  0  0  0  0  0  0  0  0  0  0
  152.6234  141.3211  159.3166 C   0  0  0  0  0  0  0  0  0  0  0  0
  152.1000  141.0477  158.0404 C   0  0  0  0  0  0  0  0  0  0  0  0
  146.6362  135.0952  160.8712 C   0  0  0  0  0  0  0  0  0  0  0  0
  142.9209  133.5989  163.1569 H   0  0  0  0  0  0  0  0  0  0  0  0
  143.2287  135.3226  163.0514 H   0  0  0  0  0  0  0  0  0  0  0  0
  144.1577  134.3273  164.1738 H   0  0  0  0  0  0  0  0  0  0  0  0
  145.1070  133.0513  162.2217 H   0  0  0  0  0  0  0  0  0  0  0  0
  144.2964  134.1187  161.1000 H   0  0  0  0  0  0  0  0  0  0  0  0
  144.8176  136.8049  161.9973 H   0  0  0  0  0  0  0  0  0  0  0  0
  145.1125  136.2926  163.6490 H   0  0  0  0  0  0  0  0  0  0  0  0
  146.5374  138.2559  163.0200 H   0  0  0  0  0  0  0  0  0  0  0  0
  147.5179  136.8733  163.4667 H   0  0  0  0  0  0  0  0  0  0  0  0
  148.5536  135.5830  161.7434 H   0  0  0  0  0  0  0  0  0  0  0  0
  148.8298  135.1978  159.2539 H   0  0  0  0  0  0  0  0  0  0  0  0
  147.9598  136.6852  158.9501 H   0  0  0  0  0  0  0  0  0  0  0  0
  149.6795  137.7389  160.4260 H   0  0  0  0  0  0  0  0  0  0  0  0
  150.5786  136.4767  157.9191 H   0  0  0  0  0  0  0  0  0  0  0  0
  149.8140  138.0361  158.0946 H   0  0  0  0  0  0  0  0  0  0  0  0
  151.7430  138.7832  159.5848 H   0  0  0  0  0  0  0  0  0  0  0  0
  153.4871  137.4432  159.7023 H   0  0  0  0  0  0  0  0  0  0  0  0
  153.5810  138.6121  157.6965 H   0  0  0  0  0  0  0  0  0  0  0  0
  152.3095  137.9151  156.7205 H   0  0  0  0  0  0  0  0  0  0  0  0
  151.1979  139.5942  155.3272 H   0  0  0  0  0  0  0  0  0  0  0  0
  150.9515  144.1521  157.2054 H   0  0  0  0  0  0  0  0  0  0  0  0
  151.2115  145.0994  160.5011 H   0  0  0  0  0  0  0  0  0  0  0  0
  151.4002  145.7498  158.8727 H   0  0  0  0  0  0  0  0  0  0  0  0
  152.8248  145.4559  159.8663 H   0  0  0  0  0  0  0  0  0  0  0  0
  153.4805  142.0038  161.6894 H   0  0  0  0  0  0  0  0  0  0  0  0
  152.3376  143.3328  161.8678 H   0  0  0  0  0  0  0  0  0  0  0  0
  153.9318  143.6221  161.1540 H   0  0  0  0  0  0  0  0  0  0  0  0
  153.0843  140.5308  159.8903 H   0  0  0  0  0  0  0  0  0  0  0  0
  146.9526  134.1000  160.5559 H   0  0  0  0  0  0  0  0  0  0  0  0
  145.9640  135.4778  160.1010 H   0  0  0  0  0  0  0  0  0  0  0  0
  146.5606  134.6002  162.8228 H   0  0  0  0  0  0  0  0  0  0  0  0
  1  2  1  0  0  0  0
  1 26  1  0  0  0  0
  1 27  1  0  0  0  0
  1 28  1  0  0  0  0
  2  3  1  0  0  0  0
  2 29  1  0  0  0  0
  2 30  1  0  0  0  0
  3 25  1  0  0  0  0
  3  4  1  0  0  0  0
  3 56  1  0  0  0  0
  4  5  1  0  0  0  0
  4 31  1  0  0  0  0
  4 32  1  0  0  0  0
  5  6  1  0  0  0  0
  5 33  1  0  0  0  0
  5 34  1  0  0  0  0
  6  7  1  0  0  0  0
  7  8  1  0  0  0  0
  7 25  1  0  0  0  0
  7 35  1  0  0  0  0
  8  9  1  0  0  0  0
  8 36  1  0  0  0  0
  8 37  1  0  0  0  0
  9 10  1  0  0  0  0
  9 38  1  0  0  0  0
 10 11  1  0  0  0  0
 10 39  1  0  0  0  0
 10 40  1  0  0  0  0
 11 12  1  0  0  0  0
 11 13  1  0  0  0  0
 11 41  1  0  0  0  0
 12 42  1  0  0  0  0
 13 14  1  0  0  0  0
 13 43  1  0  0  0  0
 13 44  1  0  0  0  0
 14 24  1  0  0  0  0
 14 15  1  0  0  0  0
 15 16  2  0  0  0  0
 15 45  1  0  0  0  0
 16 17  1  0  0  0  0
 17 24  2  0  0  0  0
 17 18  1  0  0  0  0
 18 19  2  0  0  0  0
 18 46  1  0  0  0  0
 19 20  1  0  0  0  0
 19 21  1  0  0  0  0
 20 47  1  0  0  0  0
 20 48  1  0  0  0  0
 20 49  1  0  0  0  0
 21 22  1  0  0  0  0
 21 23  2  0  0  0  0
 22 50  1  0  0  0  0
 22 51  1  0  0  0  0
 22 52  1  0  0  0  0
 23 24  1  0  0  0  0
 23 53  1  0  0  0  0
 25 54  1  0  0  0  0
 25 55  1  0  0  0  0
M  CHG  1   3   1
M  END
> <s_m_source_file>
AV-unprocessed.smi

> <i_m_source_file_index>
1047

> <i_lp_mmshare_version>
43012

> <i_f3d_flags>
0

> <s_epik_input>
W0NIM11bQ0gyXU4xW0NIMl1bQ0gyXU9bQ0BIXShbQ0gyXTEpW0NIMl1bTkhdW0NIMl1bQ0BIXShbT0hdKVtDSDJdbihbY0hdbjIpYyhjMjMpW2NIXWMoW0NIM10pYyhbY0hdMylbQ0gzXQ==

> <s_epik_cmdline>
J2VwaWtfcHl0aG9uJywgJy1waCcsICc3LjAnLCAnLXRuJywgJzgnLCAnLW1hJywgJzIwMCcsICctbWV0YWxfYmluZGluZycsICctaW1hZScsICc8aW5maWxlLm1hZT4nLCAnLW9tYWUnLCAnPG91dGZpbGUubWFlPic=

> <r_epik_Ionization_Penalty>
1.19246

> <r_epik_Ionization_Penalty_Charging>
0.210041

> <r_epik_Ionization_Penalty_Neutral>
0.982415

> <r_epik_State_Penalty>
1.57595

> <r_epik_Charging_Adjusted_Penalty>
1.78599

> <i_epik_Tot_Q>
1

> <i_epik_Tot_abs_Q>
1

> <r_epik_Metal_State_Penalty>
1.46172

> <b_epik_Metal_Only>
0

> <s_lp_Force_Field>
OPLS_2005

> <r_lp_Energy>
30.8486

> <b_lp_Chiralities_Consistent>
1

> <s_lp_Variant>
AV-unprocessed.smi:1047-20

> <Gold.Version>
5.8.1

> <Gold.Id.Protein>
6NUR|6NUR_protein|mol2

> <Gold.PLP.Fitness>
59.8444

> <Gold.PLP.PLP>
-53.2389

> <Gold.PLP.part.hbond>
-3.7896

> <Gold.PLP.part.metal>
0.0000

> <Gold.PLP.part.buried>
-8.4532

> <Gold.PLP.part.nonpolar>
-41.6035

> <Gold.PLP.part.repulsive>
0.1137

> <Gold.PLP.ligand.clash>
0.0000

> <Gold.PLP.ligand.torsion>
0.6128

> <Gold.PLP.Chemscore.Hbond>
2.5878

> <Gold.PLP.Chemscore.CHOScore>
0.0000

> <Gold.PLP.Chemscore.Metal>
0.0000

> <Gold.Chemscore.Hbonds>
donor molecule, donor type, donor heavy atom, donor atom, acceptor molecule, acceptor atom, score
      P1  H  6896  6909       L1    12  0.63
      P1  H  6931  6943       L1     6  0.82
      P1  H  6934  6947       L1     6  0.90

> <Gold.PLP.Chemscore.Internal.Correction>
0.0679

> <Gold.Rescore>
     Score         DG    S(hbond)    S(metal)    S(lipo)     H(rot)  DE(clash)    DE(int)     intcor
     20.82     -21.65       1.84        0.00     143.12       2.62       0.43       0.41       ----

> <Gold.Chemscore.Fitness>
20.8154

> <Gold.Chemscore.DG>
-21.6534

> <Gold.Chemscore.ZeroCoef>
-5.4800

> <Gold.Chemscore.Hbond>
1.8378

> <Gold.Chemscore.Metal>
0.0000

> <Gold.Chemscore.Lipo>
143.1163

> <Gold.Chemscore.Internal_Hbond>
0.0000

> <Gold.Chemscore.DEClash>
0.4288

> <Gold.Chemscore.DEInternal>
0.4092

> <Gold.Chemscore.Rot>
2.6209

> <Gold.Chemscore.Internal.Correction>
   9.000000E+99

> <Gold.Chemscore.Hbonds>
donor molecule, donor type, donor heavy atom, donor atom, acceptor molecule, acceptor atom, score
      P1  H  6896  6909       L1    12  0.58
      P1  H  6931  6943       L1     6  0.10
      P1  H  6934  6947       L1     6  0.35

> <Gold.Chemscore.Hbond.Weighted>
-6.1384

> <Gold.Chemscore.Metal.Weighted>
-0.0000

> <Gold.Chemscore.Lipo.Weighted>
-16.7446

> <Gold.Chemscore.Internal_Hbond.Weighted>
0.0000

> <Gold.Chemscore.DEClash.Weighted>
0.4288

> <Gold.Chemscore.DEInternal.Weighted>
0.4092

> <Gold.Chemscore.Rot.Weighted>
6.7096

> <Gold.Chemscore.Internal.Correction.Weighted>
   9.000000E+99

> <Gold.Protein.RotatedTorsions>
[ 6907 6896 6895 6894 ] final  135.33 input  -60.11 | X-H torsion
[ 7974 7965 7964 7962 ] final -125.92 input  175.53 | X-H torsion
[ 8008 7997 7996 7995 ] final  166.40 input   59.86 | X-H torsion
[ 10167 10162 10161 10158 ] final  -39.74 input  -65.29 | X-H torsion
[ 10718 10713 10712 10709 ] final   90.27 input   66.30 | X-H torsion
[ 10763 10752 10751 10750 ] final  -39.78 input  -60.55 | X-H torsion
[ 11005 11000 10999 10996 ] final   -8.92 input  -57.11 | X-H torsion

> <Gold.Protein.ActiveResidues>
 VAL166  LYS551  ARG553  GLY616  TRP617  ASP618  TYR619  PRO620  LYS621  CYS622 
 ASP623  PHE694  ASN695  SER759  ASP760  ASP761  ALA762  ILE779  LEU786  VAL792 
 PHE793  MET794  SER795  GLU796  ALA797  LYS798  CYS799  TRP800  GLU811  SER814 

> <Gold.Protein.RotatedAtoms>
  152.3016  133.5661  159.5621 H   0  0  0  0  0  0  0  0  0  0  0  0  # atno 6907 bound_to 6896
  150.7280  134.0283  159.3734 H   0  0  0  0  0  0  0  0  0  0  0  0  # atno 6908 bound_to 6896
  151.8183  135.0660  160.0472 H   0  0  0  0  0  0  0  0  0  0  0  0  # atno 6909 bound_to 6896
  144.9925  140.7746  143.4545 H   0  0  0  0  0  0  0  0  0  0  0  0  # atno 7974 bound_to 7965
  156.1721  140.1644  156.8429 H   0  0  0  0  0  0  0  0  0  0  0  0  # atno 8008 bound_to 7997
  154.5268  140.0766  156.8307 H   0  0  0  0  0  0  0  0  0  0  0  0  # atno 8009 bound_to 7997
  155.3490  140.3389  155.4241 H   0  0  0  0  0  0  0  0  0  0  0  0  # atno 8010 bound_to 7997
  140.7055  143.3196  151.2825 H   0  0  0  0  0  0  0  0  0  0  0  0  # atno 10167 bound_to 10162
  157.6958  131.0364  150.3552 H   0  0  0  0  0  0  0  0  0  0  0  0  # atno 10718 bound_to 10713
  153.9351  135.6767  153.4745 H   0  0  0  0  0  0  0  0  0  0  0  0  # atno 10763 bound_to 10752
  153.0960  135.4851  154.8776 H   0  0  0  0  0  0  0  0  0  0  0  0  # atno 10764 bound_to 10752
  154.7407  135.3160  154.8691 H   0  0  0  0  0  0  0  0  0  0  0  0  # atno 10765 bound_to 10752
  140.7287  133.8767  155.8876 H   0  0  0  0  0  0  0  0  0  0  0  0  # atno 11005 bound_to 11000
  145.2265  139.2135  143.5065 LP  0  0  0  0  0  0  0  0  0  0  0  0  # atno 17320 bound_to 7965
  146.3434  140.2133  142.8590 LP  0  0  0  0  0  0  0  0  0  0  0  0  # atno 17321 bound_to 7965
  139.6645  144.0129  152.2714 LP  0  0  0  0  0  0  0  0  0  0  0  0  # atno 17342 bound_to 10162
  139.9707  144.6495  150.7992 LP  0  0  0  0  0  0  0  0  0  0  0  0  # atno 17343 bound_to 10162
  156.3995  130.3913  149.6970 LP  0  0  0  0  0  0  0  0  0  0  0  0  # atno 17370 bound_to 10713
  156.4292  130.7807  151.2826 LP  0  0  0  0  0  0  0  0  0  0  0  0  # atno 17371 bound_to 10713
  140.9940  134.1240  157.4381 LP  0  0  0  0  0  0  0  0  0  0  0  0  # atno 17394 bound_to 11000
  139.8831  135.0049  156.6278 LP  0  0  0  0  0  0  0  0  0  0  0  0  # atno 17395 bound_to 11000

$$$$
