AV-unprocessed.smi:870|AV-procd|sdf|4008|dock6
  -GOLD-   22720 1493D 1   1.00000     0.00000
 Structure written by MMmdl.
 46 48  0  0  0  0  0  0  0  0  1 V2000
  147.6188  141.9465  154.3428 C   0  0  0  0  0  0  0  0  0  0  0  0
  148.1024  141.5589  155.6156 O   0  0  0  0  0  0  0  0  0  0  0  0
  149.1995  140.6653  155.5270 C   0  0  0  0  0  0  0  0  0  0  0  0
  150.1705  141.0348  156.6074 C   0  0  0  0  0  0  0  0  0  0  0  0
  150.6462  142.2745  156.7303 N   0  0  0  0  0  0  0  0  0  0  0  0
  151.5016  142.1664  157.8092 C   0  0  0  0  0  0  0  0  0  0  0  0
  152.3154  143.1371  158.4360 C   0  0  0  0  0  0  0  0  0  0  0  0
  153.1242  142.7875  159.5373 C   0  0  0  0  0  0  0  0  0  0  0  0
  153.1315  141.4650  160.0258 C   0  0  0  0  0  0  0  0  0  0  0  0
  152.3279  140.4825  159.4161 C   0  0  0  0  0  0  0  0  0  0  0  0
  151.5204  140.8371  158.3186 C   0  0  0  0  0  0  0  0  0  0  0  0
  150.6315  140.1331  157.5124 N   0  0  0  0  0  0  0  0  0  0  0  0
  150.2969  138.7194  157.6347 C   0  0  0  0  0  0  0  0  0  0  0  0
  149.0865  138.4682  158.5609 C   0  0  1  0  0  0  0  0  0  0  0  0
  147.8708  138.3942  157.8433 O   0  0  0  0  0  0  0  0  0  0  0  0
  149.2304  137.2104  159.4324 C   0  0  0  0  0  0  0  0  0  0  0  0
  148.3470  137.3002  160.5431 O   0  0  0  0  0  0  0  0  0  0  0  0
  147.9038  136.1360  161.1342 C   0  0  0  0  0  0  0  0  0  0  0  0
  148.0134  134.8560  160.5336 C   0  0  0  0  0  0  0  0  0  0  0  0
  147.5369  133.7109  161.1996 C   0  0  0  0  0  0  0  0  0  0  0  0
  146.9466  133.8279  162.4706 C   0  0  0  0  0  0  0  0  0  0  0  0
  146.8333  135.0926  163.0760 C   0  0  0  0  0  0  0  0  0  0  0  0
  147.3087  136.2431  162.4128 C   0  0  0  0  0  0  0  0  0  0  0  0
  147.1846  137.5996  163.0814 C   0  0  0  0  0  0  0  0  0  0  0  0
  146.7691  142.6183  154.4626 H   0  0  0  0  0  0  0  0  0  0  0  0
  147.2853  141.0815  153.7682 H   0  0  0  0  0  0  0  0  0  0  0  0
  148.3868  142.4704  153.7725 H   0  0  0  0  0  0  0  0  0  0  0  0
  148.8833  139.6292  155.6567 H   0  0  0  0  0  0  0  0  0  0  0  0
  149.6810  140.7489  154.5510 H   0  0  0  0  0  0  0  0  0  0  0  0
  152.3175  144.1524  158.0682 H   0  0  0  0  0  0  0  0  0  0  0  0
  153.7423  143.5374  160.0090 H   0  0  0  0  0  0  0  0  0  0  0  0
  153.7544  141.2054  160.8693 H   0  0  0  0  0  0  0  0  0  0  0  0
  152.3321  139.4690  159.7878 H   0  0  0  0  0  0  0  0  0  0  0  0
  150.1144  138.3058  156.6442 H   0  0  0  0  0  0  0  0  0  0  0  0
  151.1721  138.1954  158.0200 H   0  0  0  0  0  0  0  0  0  0  0  0
  148.9800  139.3221  159.2302 H   0  0  0  0  0  0  0  0  0  0  0  0
  147.7357  139.2172  157.3985 H   0  0  0  0  0  0  0  0  0  0  0  0
  148.9685  136.3367  158.8336 H   0  0  0  0  0  0  0  0  0  0  0  0
  150.2642  137.0922  159.7619 H   0  0  0  0  0  0  0  0  0  0  0  0
  148.4599  134.7243  159.5600 H   0  0  0  0  0  0  0  0  0  0  0  0
  147.6252  132.7405  160.7336 H   0  0  0  0  0  0  0  0  0  0  0  0
  146.5813  132.9487  162.9806 H   0  0  0  0  0  0  0  0  0  0  0  0
  146.3799  135.1750  164.0529 H   0  0  0  0  0  0  0  0  0  0  0  0
  146.6107  137.5387  164.0061 H   0  0  0  0  0  0  0  0  0  0  0  0
  146.6849  138.3079  162.4199 H   0  0  0  0  0  0  0  0  0  0  0  0
  148.1736  137.9909  163.3197 H   0  0  0  0  0  0  0  0  0  0  0  0
  1  2  1  0  0  0  0
  1 25  1  0  0  0  0
  1 26  1  0  0  0  0
  1 27  1  0  0  0  0
  2  3  1  0  0  0  0
  3  4  1  0  0  0  0
  3 28  1  0  0  0  0
  3 29  1  0  0  0  0
  4 12  1  0  0  0  0
  4  5  2  0  0  0  0
  5  6  1  0  0  0  0
  6 11  2  0  0  0  0
  6  7  1  0  0  0  0
  7  8  2  0  0  0  0
  7 30  1  0  0  0  0
  8  9  1  0  0  0  0
  8 31  1  0  0  0  0
  9 10  2  0  0  0  0
  9 32  1  0  0  0  0
 10 11  1  0  0  0  0
 10 33  1  0  0  0  0
 11 12  1  0  0  0  0
 12 13  1  0  0  0  0
 13 14  1  0  0  0  0
 13 34  1  0  0  0  0
 13 35  1  0  0  0  0
 14 15  1  0  0  0  0
 14 16  1  0  0  0  0
 14 36  1  0  0  0  0
 15 37  1  0  0  0  0
 16 17  1  0  0  0  0
 16 38  1  0  0  0  0
 16 39  1  0  0  0  0
 17 18  1  0  0  0  0
 18 23  1  0  0  0  0
 18 19  2  0  0  0  0
 19 20  1  0  0  0  0
 19 40  1  0  0  0  0
 20 21  2  0  0  0  0
 20 41  1  0  0  0  0
 21 22  1  0  0  0  0
 21 42  1  0  0  0  0
 22 23  2  0  0  0  0
 22 43  1  0  0  0  0
 23 24  1  0  0  0  0
 24 44  1  0  0  0  0
 24 45  1  0  0  0  0
 24 46  1  0  0  0  0
M  END
> <s_m_source_file>
AV-unprocessed.smi

> <i_m_source_file_index>
870

> <i_lp_mmshare_version>
43012

> <i_f3d_flags>
0

> <s_epik_input>
W2NIXTFbY0hdW2NIXVtjSF1jKGMxMiluKGMobjIpW0NIMl1PW0NIM10pW0NIMl1bQ0BIXShbT0hdKVtDSDJdT2MzW2NIXVtjSF1bY0hdW2NIXWMzW0NIM10=

> <s_epik_cmdline>
J2VwaWtfcHl0aG9uJywgJy1waCcsICc3LjAnLCAnLXRuJywgJzgnLCAnLW1hJywgJzIwMCcsICctbWV0YWxfYmluZGluZycsICctaW1hZScsICc8aW5maWxlLm1hZT4nLCAnLW9tYWUnLCAnPG91dGZpbGUubWFlPic=

> <r_lp_tautomer_probability>
1

> <r_epik_Ionization_Penalty>
0.0447032

> <r_epik_Ionization_Penalty_Charging>
0

> <r_epik_Ionization_Penalty_Neutral>
0.0447032

> <r_epik_State_Penalty>
0.0379025

> <r_epik_Charging_Adjusted_Penalty>
0.0379025

> <i_epik_Tot_Q>
0

> <i_epik_Tot_abs_Q>
0

> <r_epik_Metal_State_Penalty>
3.91398e-05

> <b_epik_Metal_Only>
0

> <s_lp_Force_Field>
OPLS_2005

> <r_lp_Energy>
16.5078

> <b_lp_Chiralities_Consistent>
1

> <s_lp_Variant>
AV-unprocessed.smi:870-2

> <Gold.Version>
5.8.1

> <Gold.Id.Protein>
6NUR|6NUR_protein|mol2

> <Gold.PLP.Fitness>
50.3439

> <Gold.PLP.PLP>
-50.2853

> <Gold.PLP.part.hbond>
-2.0000

> <Gold.PLP.part.metal>
0.0000

> <Gold.PLP.part.buried>
-4.4484

> <Gold.PLP.part.nonpolar>
-44.1467

> <Gold.PLP.part.repulsive>
0.2201

> <Gold.PLP.ligand.clash>
0.0000

> <Gold.PLP.ligand.torsion>
1.6592

> <Gold.PLP.Chemscore.Hbond>
1.0733

> <Gold.PLP.Chemscore.CHOScore>
0.0000

> <Gold.PLP.Chemscore.Metal>
0.0000

> <Gold.Chemscore.Hbonds>
donor molecule, donor type, donor heavy atom, donor atom, acceptor molecule, acceptor atom, score
      P1  H  6931  6943       L1    17  0.72
      P1  H  6934  6947       L1    17  0.47

> <Gold.PLP.Chemscore.Internal.Correction>
0.1570

> <Gold.Rescore>
     Score         DG    S(hbond)    S(metal)    S(lipo)     H(rot)  DE(clash)    DE(int)     intcor
     15.77     -17.72       0.68        0.00     136.77       2.36       0.32       1.63       ----

> <Gold.Chemscore.Fitness>
15.7689

> <Gold.Chemscore.DG>
-17.7248

> <Gold.Chemscore.ZeroCoef>
-5.4800

> <Gold.Chemscore.Hbond>
0.6829

> <Gold.Chemscore.Metal>
0.0000

> <Gold.Chemscore.Lipo>
136.7682

> <Gold.Chemscore.Internal_Hbond>
0.0000

> <Gold.Chemscore.DEClash>
0.3236

> <Gold.Chemscore.DEInternal>
1.6323

> <Gold.Chemscore.Rot>
2.3585

> <Gold.Chemscore.Internal.Correction>
   9.000000E+99

> <Gold.Chemscore.Hbonds>
donor molecule, donor type, donor heavy atom, donor atom, acceptor molecule, acceptor atom, score
      P1  H  6931  6943       L1    17  0.30
      P1  H  6934  6947       L1    17  0.44

> <Gold.Chemscore.Hbond.Weighted>
-2.2808

> <Gold.Chemscore.Metal.Weighted>
-0.0000

> <Gold.Chemscore.Lipo.Weighted>
-16.0019

> <Gold.Chemscore.Internal_Hbond.Weighted>
0.0000

> <Gold.Chemscore.DEClash.Weighted>
0.3236

> <Gold.Chemscore.DEInternal.Weighted>
1.6323

> <Gold.Chemscore.Rot.Weighted>
6.0378

> <Gold.Chemscore.Internal.Correction.Weighted>
   9.000000E+99

> <Gold.Protein.RotatedTorsions>
[ 6907 6896 6895 6894 ] final   76.82 input  -60.11 | X-H torsion
[ 7974 7965 7964 7962 ] final  -98.99 input  175.53 | X-H torsion
[ 8008 7997 7996 7995 ] final  -64.04 input   59.86 | X-H torsion
[ 10167 10162 10161 10158 ] final   67.10 input  -65.29 | X-H torsion
[ 10718 10713 10712 10709 ] final -142.66 input   66.30 | X-H torsion
[ 10763 10752 10751 10750 ] final  105.81 input  -60.55 | X-H torsion
[ 11005 11000 10999 10996 ] final   12.73 input  -57.11 | X-H torsion

> <Gold.Protein.ActiveResidues>
 VAL166  LYS551  ARG553  GLY616  TRP617  ASP618  TYR619  PRO620  LYS621  CYS622 
 ASP623  PHE694  ASN695  SER759  ASP760  ASP761  ALA762  ILE779  LEU786  VAL792 
 PHE793  MET794  SER795  GLU796  ALA797  LYS798  CYS799  TRP800  GLU811  SER814 

> <Gold.Protein.RotatedAtoms>
  152.5090  134.3910  159.9383 H   0  0  0  0  0  0  0  0  0  0  0  0  # atno 6907 bound_to 6896
  151.3870  133.3795  159.2724 H   0  0  0  0  0  0  0  0  0  0  0  0  # atno 6908 bound_to 6896
  150.9461  134.8886  159.7701 H   0  0  0  0  0  0  0  0  0  0  0  0  # atno 6909 bound_to 6896
  145.3133  140.9405  143.2757 H   0  0  0  0  0  0  0  0  0  0  0  0  # atno 7974 bound_to 7965
  154.4588  140.0962  156.6835 H   0  0  0  0  0  0  0  0  0  0  0  0  # atno 8008 bound_to 7997
  155.5056  140.3475  155.4360 H   0  0  0  0  0  0  0  0  0  0  0  0  # atno 8009 bound_to 7997
  156.0831  140.1378  156.9676 H   0  0  0  0  0  0  0  0  0  0  0  0  # atno 8010 bound_to 7997
  140.0932  144.4969  150.7085 H   0  0  0  0  0  0  0  0  0  0  0  0  # atno 10167 bound_to 10162
  156.3486  130.7676  151.1825 H   0  0  0  0  0  0  0  0  0  0  0  0  # atno 10718 bound_to 10713
  153.3844  135.3897  155.1879 H   0  0  0  0  0  0  0  0  0  0  0  0  # atno 10763 bound_to 10752
  154.8712  135.3733  154.4816 H   0  0  0  0  0  0  0  0  0  0  0  0  # atno 10764 bound_to 10752
  153.5296  135.7086  153.5751 H   0  0  0  0  0  0  0  0  0  0  0  0  # atno 10765 bound_to 10752
  140.4887  134.0862  155.7766 H   0  0  0  0  0  0  0  0  0  0  0  0  # atno 11005 bound_to 11000
  144.8998  139.4665  143.6638 LP  0  0  0  0  0  0  0  0  0  0  0  0  # atno 17320 bound_to 7965
  146.3109  139.7745  142.9020 LP  0  0  0  0  0  0  0  0  0  0  0  0  # atno 17321 bound_to 7965
  140.7017  143.2439  151.4844 LP  0  0  0  0  0  0  0  0  0  0  0  0  # atno 17342 bound_to 10162
  139.5713  144.1922  152.1840 LP  0  0  0  0  0  0  0  0  0  0  0  0  # atno 17343 bound_to 10162
  157.7458  131.0434  150.4741 LP  0  0  0  0  0  0  0  0  0  0  0  0  # atno 17370 bound_to 10713
  156.4933  130.4100  149.6394 LP  0  0  0  0  0  0  0  0  0  0  0  0  # atno 17371 bound_to 10713
  141.1495  133.8995  157.2133 LP  0  0  0  0  0  0  0  0  0  0  0  0  # atno 17394 bound_to 11000
  139.9782  135.0107  156.9684 LP  0  0  0  0  0  0  0  0  0  0  0  0  # atno 17395 bound_to 11000

$$$$
