AV-unprocessed.smi:3220|AV-procd|sdf|12300|dock4
  -GOLD-   2272018143D 1   1.00000     0.00000
 Structure written by MMmdl.
 33 34  0  0  0  0  0  0  0  0  1 V2000
  151.9753  140.5476  159.2056 C   0  0  0  0  0  0  0  0  0  0  0  0
  153.3578  141.0123  159.6865 C   0  0  1  0  0  0  0  0  0  0  0  0
  153.2448  142.1162  160.7557 C   0  0  0  0  0  0  0  0  0  0  0  0
  152.3982  143.2154  160.3267 N   0  0  0  0  0  0  0  0  0  0  0  0
  152.4979  143.9796  159.1830 C   0  0  0  0  0  0  0  0  0  0  0  0
  151.4772  144.8861  159.2097 C   0  0  0  0  0  0  0  0  0  0  0  0
  150.7977  144.5936  160.4253 C   0  0  0  0  0  0  0  0  0  0  0  0
  151.3512  143.5930  161.0916 N   0  0  0  0  0  0  0  0  0  0  0  0
  154.0997  139.8728  160.2228 N   0  0  0  0  0  0  0  0  0  0  0  0
  155.3297  139.9192  160.7563 C   0  0  0  0  0  0  0  0  0  0  0  0
  155.9945  140.9522  160.8403 O   0  0  0  0  0  0  0  0  0  0  0  0
  155.8821  138.5923  161.2892 C   0  0  1  0  0  0  0  0  0  0  0  0
  156.1135  138.5698  162.8119 C   0  0  0  0  0  0  0  0  0  0  0  0
  155.0314  137.6402  163.3246 C   0  0  0  0  0  0  0  0  0  0  0  0
  154.8426  136.7021  162.1415 C   0  0  0  0  0  0  0  0  0  0  0  0
  154.9182  137.5745  161.0250 O   0  0  0  0  0  0  0  0  0  0  0  0
  151.4076  141.3780  158.7848 H   0  0  0  0  0  0  0  0  0  0  0  0
  151.3908  140.1259  160.0240 H   0  0  0  0  0  0  0  0  0  0  0  0
  152.0636  139.7852  158.4309 H   0  0  0  0  0  0  0  0  0  0  0  0
  153.8889  141.4285  158.8282 H   0  0  0  0  0  0  0  0  0  0  0  0
  152.8289  141.7065  161.6775 H   0  0  0  0  0  0  0  0  0  0  0  0
  154.2300  142.5110  161.0080 H   0  0  0  0  0  0  0  0  0  0  0  0
  153.2758  143.8138  158.4522 H   0  0  0  0  0  0  0  0  0  0  0  0
  151.2496  145.6418  158.4729 H   0  0  0  0  0  0  0  0  0  0  0  0
  149.9249  145.0753  160.8404 H   0  0  0  0  0  0  0  0  0  0  0  0
  153.6322  138.9782  160.2023 H   0  0  0  0  0  0  0  0  0  0  0  0
  156.8123  138.3421  160.7760 H   0  0  0  0  0  0  0  0  0  0  0  0
  157.0969  138.1493  163.0256 H   0  0  0  0  0  0  0  0  0  0  0  0
  156.0711  139.5506  163.2876 H   0  0  0  0  0  0  0  0  0  0  0  0
  155.3100  137.1221  164.2425 H   0  0  0  0  0  0  0  0  0  0  0  0
  154.1127  138.1985  163.5089 H   0  0  0  0  0  0  0  0  0  0  0  0
  155.6509  135.9710  162.0900 H   0  0  0  0  0  0  0  0  0  0  0  0
  153.8929  136.1679  162.1715 H   0  0  0  0  0  0  0  0  0  0  0  0
  1  2  1  0  0  0  0
  1 17  1  0  0  0  0
  1 18  1  0  0  0  0
  1 19  1  0  0  0  0
  2  3  1  0  0  0  0
  2  9  1  0  0  0  0
  2 20  1  0  0  0  0
  3  4  1  0  0  0  0
  3 21  1  0  0  0  0
  3 22  1  0  0  0  0
  4  8  1  0  0  0  0
  4  5  1  0  0  0  0
  5  6  2  0  0  0  0
  5 23  1  0  0  0  0
  6  7  1  0  0  0  0
  6 24  1  0  0  0  0
  7  8  2  0  0  0  0
  7 25  1  0  0  0  0
  9 10  1  0  0  0  0
  9 26  1  0  0  0  0
 10 11  2  0  0  0  0
 10 12  1  0  0  0  0
 12 16  1  0  0  0  0
 12 13  1  0  0  0  0
 12 27  1  0  0  0  0
 13 14  1  0  0  0  0
 13 28  1  0  0  0  0
 13 29  1  0  0  0  0
 14 15  1  0  0  0  0
 14 30  1  0  0  0  0
 14 31  1  0  0  0  0
 15 16  1  0  0  0  0
 15 32  1  0  0  0  0
 15 33  1  0  0  0  0
M  END
> <s_m_source_file>
AV-unprocessed.smi

> <i_m_source_file_index>
3220

> <i_lp_mmshare_version>
43012

> <i_f3d_flags>
0

> <s_epik_input>
bjFbY0hdW2NIXVtjSF1uMVtDSDJdW0NAQEhdKFtDSDNdKVtOSF1DKD1PKVtDQEBIXTJbQ0gyXVtDSDJdW0NIMl1PMg==

> <s_epik_cmdline>
J2VwaWtfcHl0aG9uJywgJy1waCcsICc3LjAnLCAnLXRuJywgJzgnLCAnLW1hJywgJzIwMCcsICctbWV0YWxfYmluZGluZycsICctaW1hZScsICc8aW5maWxlLm1hZT4nLCAnLW9tYWUnLCAnPG91dGZpbGUubWFlPic=

> <r_lp_tautomer_probability>
1

> <r_epik_Ionization_Penalty>
0.00033363

> <r_epik_Ionization_Penalty_Charging>
0

> <r_epik_Ionization_Penalty_Neutral>
0.00033363

> <r_epik_State_Penalty>
-0

> <r_epik_Charging_Adjusted_Penalty>
0

> <i_epik_Tot_Q>
0

> <i_epik_Tot_abs_Q>
0

> <r_epik_Metal_State_Penalty>
-0

> <b_epik_Metal_Only>
0

> <s_lp_Force_Field>
OPLS_2005

> <r_lp_Energy>
17.8243

> <b_lp_Chiralities_Consistent>
1

> <s_lp_Variant>
AV-unprocessed.smi:3220-4

> <Gold.Version>
5.8.1

> <Gold.Id.Protein>
6NUR|6NUR_protein|mol2

> <Gold.PLP.Fitness>
37.2295

> <Gold.PLP.PLP>
-37.3752

> <Gold.PLP.part.hbond>
-1.3205

> <Gold.PLP.part.metal>
0.0000

> <Gold.PLP.part.buried>
-5.4176

> <Gold.PLP.part.nonpolar>
-30.8292

> <Gold.PLP.part.repulsive>
0.1865

> <Gold.PLP.ligand.clash>
0.0000

> <Gold.PLP.ligand.torsion>
0.0856

> <Gold.PLP.Chemscore.Hbond>
0.0000

> <Gold.PLP.Chemscore.CHOScore>
0.0000

> <Gold.PLP.Chemscore.Metal>
0.0000

> <Gold.PLP.Chemscore.Internal.Correction>
0.0256

> <Gold.Rescore>
     Score         DG    S(hbond)    S(metal)    S(lipo)     H(rot)  DE(clash)    DE(int)     intcor
     12.04     -12.49       0.32        0.00      86.16       1.62       0.19       0.27       ----

> <Gold.Chemscore.Fitness>
12.0388

> <Gold.Chemscore.DG>
-12.4937

> <Gold.Chemscore.ZeroCoef>
-5.4800

> <Gold.Chemscore.Hbond>
0.3249

> <Gold.Chemscore.Metal>
0.0000

> <Gold.Chemscore.Lipo>
86.1593

> <Gold.Chemscore.Internal_Hbond>
0.0000

> <Gold.Chemscore.DEClash>
0.1851

> <Gold.Chemscore.DEInternal>
0.2698

> <Gold.Chemscore.Rot>
1.6219

> <Gold.Chemscore.Internal.Correction>
   9.000000E+99

> <Gold.Chemscore.Hbond.Weighted>
-1.0851

> <Gold.Chemscore.Metal.Weighted>
-0.0000

> <Gold.Chemscore.Lipo.Weighted>
-10.0806

> <Gold.Chemscore.Internal_Hbond.Weighted>
0.0000

> <Gold.Chemscore.DEClash.Weighted>
0.1851

> <Gold.Chemscore.DEInternal.Weighted>
0.2698

> <Gold.Chemscore.Rot.Weighted>
4.1520

> <Gold.Chemscore.Internal.Correction.Weighted>
   9.000000E+99

> <Gold.Protein.RotatedTorsions>
[ 6907 6896 6895 6894 ] final  147.05 input  -60.11 | X-H torsion
[ 7974 7965 7964 7962 ] final -110.83 input  175.53 | X-H torsion
[ 8008 7997 7996 7995 ] final  -64.32 input   59.86 | X-H torsion
[ 10167 10162 10161 10158 ] final  -15.82 input  -65.29 | X-H torsion
[ 10718 10713 10712 10709 ] final -161.73 input   66.30 | X-H torsion
[ 10763 10752 10751 10750 ] final  164.15 input  -60.55 | X-H torsion
[ 11005 11000 10999 10996 ] final  -13.38 input  -57.11 | X-H torsion

> <Gold.Protein.ActiveResidues>
 VAL166  LYS551  ARG553  GLY616  TRP617  ASP618  TYR619  PRO620  LYS621  CYS622 
 ASP623  PHE694  ASN695  SER759  ASP760  ASP761  ALA762  ILE779  LEU786  VAL792 
 PHE793  MET794  SER795  GLU796  ALA797  LYS798  CYS799  TRP800  GLU811  SER814 

> <Gold.Protein.RotatedAtoms>
  152.1599  133.4575  159.4855 H   0  0  0  0  0  0  0  0  0  0  0  0  # atno 6907 bound_to 6896
  150.6905  134.2084  159.4358 H   0  0  0  0  0  0  0  0  0  0  0  0  # atno 6908 bound_to 6896
  151.9986  134.9940  160.0615 H   0  0  0  0  0  0  0  0  0  0  0  0  # atno 6909 bound_to 6896
  145.1634  140.8890  143.3577 H   0  0  0  0  0  0  0  0  0  0  0  0  # atno 7974 bound_to 7965
  154.4605  140.0956  156.6879 H   0  0  0  0  0  0  0  0  0  0  0  0  # atno 8008 bound_to 7997
  155.5009  140.3473  155.4352 H   0  0  0  0  0  0  0  0  0  0  0  0  # atno 8009 bound_to 7997
  156.0861  140.1385  156.9640 H   0  0  0  0  0  0  0  0  0  0  0  0  # atno 8010 bound_to 7997
  140.7224  143.5178  150.9670 H   0  0  0  0  0  0  0  0  0  0  0  0  # atno 10167 bound_to 10162
  156.6003  130.8808  151.2912 H   0  0  0  0  0  0  0  0  0  0  0  0  # atno 10718 bound_to 10713
  154.3046  135.2758  155.2595 H   0  0  0  0  0  0  0  0  0  0  0  0  # atno 10763 bound_to 10752
  154.5017  135.5806  153.6539 H   0  0  0  0  0  0  0  0  0  0  0  0  # atno 10764 bound_to 10752
  152.9896  135.6159  154.3219 H   0  0  0  0  0  0  0  0  0  0  0  0  # atno 10765 bound_to 10752
  140.7755  133.8404  155.9245 H   0  0  0  0  0  0  0  0  0  0  0  0  # atno 11005 bound_to 11000
  145.0307  139.3343  143.6026 LP  0  0  0  0  0  0  0  0  0  0  0  0  # atno 17320 bound_to 7965
  146.3479  139.9643  142.8713 LP  0  0  0  0  0  0  0  0  0  0  0  0  # atno 17321 bound_to 7965
  139.8895  143.6971  152.3147 LP  0  0  0  0  0  0  0  0  0  0  0  0  # atno 17342 bound_to 10162
  139.7282  144.7588  151.0845 LP  0  0  0  0  0  0  0  0  0  0  0  0  # atno 17343 bound_to 10162
  157.7281  130.9652  150.1728 LP  0  0  0  0  0  0  0  0  0  0  0  0  # atno 17370 bound_to 10713
  156.2475  130.3697  149.8269 LP  0  0  0  0  0  0  0  0  0  0  0  0  # atno 17371 bound_to 10713
  140.9533  134.1751  157.4711 LP  0  0  0  0  0  0  0  0  0  0  0  0  # atno 17394 bound_to 11000
  139.8749  134.9917  156.5562 LP  0  0  0  0  0  0  0  0  0  0  0  0  # atno 17395 bound_to 11000

$$$$
