AV-unprocessed.smi:221|AV-procd|sdf|1694|dock5
  -GOLD-   2262020143D 1   1.00000     0.00000
 Structure written by MMmdl.
 50 53  0  0  0  0  0  0  0  0  1 V2000
  151.2274  137.5172  159.5153 N   0  0  0  0  0  0  0  0  0  0  0  0
  152.5499  137.6032  159.6761 C   0  0  0  0  0  0  0  0  0  0  0  0
  153.2353  136.6298  159.9853 O   0  0  0  0  0  0  0  0  0  0  0  0
  153.1881  138.9790  159.4358 C   0  0  2  0  0  0  0  0  0  0  0  0
  153.8642  139.5257  160.7001 C   0  0  0  0  0  0  0  0  0  0  0  0
  153.8818  141.0310  160.4589 C   0  0  1  0  0  0  0  0  0  0  0  0
  154.9208  141.3467  159.6844 F   0  0  0  0  0  0  0  0  0  0  0  0
  152.5792  141.2812  159.6953 C   0  0  0  0  0  0  0  0  0  0  0  0
  152.1955  140.0028  159.1023 N   0  0  0  0  0  0  0  0  0  0  0  0
  151.8082  140.0501  157.8086 C   0  0  0  0  0  0  0  0  0  0  0  0
  152.5688  139.3795  156.9094 N   0  0  0  0  0  0  0  0  0  0  0  0
  152.2402  139.3957  155.6139 C   0  0  0  0  0  0  0  0  0  0  0  0
  151.2130  140.0077  155.0196 N   0  0  0  0  0  0  0  0  0  0  0  0
  150.4476  140.6823  155.9251 C   0  0  0  0  0  0  0  0  0  0  0  0
  150.6687  140.7544  157.3285 C   0  0  0  0  0  0  0  0  0  0  0  0
  149.6813  141.5285  157.9264 N   0  0  0  0  0  0  0  0  0  0  0  0
  148.9212  141.8968  156.9315 C   0  0  0  0  0  0  0  0  0  0  0  0
  149.3135  141.4394  155.6935 N   0  0  0  0  0  0  0  0  0  0  0  0
  148.6641  141.6982  154.4215 C   0  0  0  0  0  0  0  0  0  0  0  0
  147.3353  140.9246  154.2359 C   0  0  2  0  0  0  0  0  0  0  0  0
  147.2384  140.2070  152.8646 C   0  0  0  0  0  0  0  0  0  0  0  0
  148.0632  139.0608  152.8171 O   0  0  0  0  0  0  0  0  0  0  0  0
  146.1344  141.8615  154.5239 C   0  0  1  0  0  0  0  0  0  0  0  0
  146.1404  142.5609  155.8787 C   0  0  0  0  0  0  0  0  0  0  0  0
  145.3243  143.8140  155.5955 C   0  0  0  0  0  0  0  0  0  0  0  0
  145.7701  144.1918  154.3038 O   0  0  0  0  0  0  0  0  0  0  0  0
  145.9371  143.0135  153.5221 C   0  0  0  0  0  0  0  0  0  0  0  0
  153.9296  138.9018  158.6381 H   0  0  0  0  0  0  0  0  0  0  0  0
  153.9648  141.6168  161.3747 H   0  0  0  0  0  0  0  0  0  0  0  0
  150.7619  136.6340  159.6659 H   0  0  0  0  0  0  0  0  0  0  0  0
  150.6973  138.3338  159.2481 H   0  0  0  0  0  0  0  0  0  0  0  0
  153.2664  139.3073  161.5871 H   0  0  0  0  0  0  0  0  0  0  0  0
  154.8613  139.1137  160.8591 H   0  0  0  0  0  0  0  0  0  0  0  0
  151.7897  141.5687  160.3905 H   0  0  0  0  0  0  0  0  0  0  0  0
  152.6825  142.0924  158.9723 H   0  0  0  0  0  0  0  0  0  0  0  0
  152.8951  138.8393  154.9597 H   0  0  0  0  0  0  0  0  0  0  0  0
  148.0530  142.5238  157.0735 H   0  0  0  0  0  0  0  0  0  0  0  0
  148.4888  142.7725  154.3531 H   0  0  0  0  0  0  0  0  0  0  0  0
  149.3619  141.4484  153.6216 H   0  0  0  0  0  0  0  0  0  0  0  0
  147.2969  140.1556  155.0095 H   0  0  0  0  0  0  0  0  0  0  0  0
  146.2213  139.8743  152.6618 H   0  0  0  0  0  0  0  0  0  0  0  0
  147.5139  140.8797  152.0519 H   0  0  0  0  0  0  0  0  0  0  0  0
  148.7506  139.2107  152.1859 H   0  0  0  0  0  0  0  0  0  0  0  0
  145.2238  141.2618  154.4766 H   0  0  0  0  0  0  0  0  0  0  0  0
  145.7135  141.9502  156.6747 H   0  0  0  0  0  0  0  0  0  0  0  0
  147.1475  142.8495  156.1776 H   0  0  0  0  0  0  0  0  0  0  0  0
  144.2570  143.5891  155.5658 H   0  0  0  0  0  0  0  0  0  0  0  0
  145.4930  144.6039  156.3278 H   0  0  0  0  0  0  0  0  0  0  0  0
  146.7731  143.1404  152.8344 H   0  0  0  0  0  0  0  0  0  0  0  0
  145.0431  142.8463  152.9198 H   0  0  0  0  0  0  0  0  0  0  0  0
  1  2  1  0  0  0  0
  1 30  1  0  0  0  0
  1 31  1  0  0  0  0
  2  3  2  0  0  0  0
  2  4  1  0  0  0  0
  4 28  1  0  0  0  0
  4  9  1  0  0  0  0
  4  5  1  0  0  0  0
  5  6  1  0  0  0  0
  5 32  1  0  0  0  0
  5 33  1  0  0  0  0
  6 29  1  0  0  0  0
  6  7  1  0  0  0  0
  6  8  1  0  0  0  0
  8  9  1  0  0  0  0
  8 34  1  0  0  0  0
  8 35  1  0  0  0  0
  9 10  1  0  0  0  0
 10 15  1  0  0  0  0
 10 11  2  0  0  0  0
 11 12  1  0  0  0  0
 12 13  2  0  0  0  0
 12 36  1  0  0  0  0
 13 14  1  0  0  0  0
 14 18  1  0  0  0  0
 14 15  2  0  0  0  0
 15 16  1  0  0  0  0
 16 17  2  0  0  0  0
 17 18  1  0  0  0  0
 17 37  1  0  0  0  0
 18 19  1  0  0  0  0
 19 20  1  0  0  0  0
 19 38  1  0  0  0  0
 19 39  1  0  0  0  0
 20 21  1  0  0  0  0
 20 23  1  0  0  0  0
 20 40  1  0  0  0  0
 21 22  1  0  0  0  0
 21 41  1  0  0  0  0
 21 42  1  0  0  0  0
 22 43  1  0  0  0  0
 23 27  1  0  0  0  0
 23 24  1  0  0  0  0
 23 44  1  0  0  0  0
 24 25  1  0  0  0  0
 24 45  1  0  0  0  0
 24 46  1  0  0  0  0
 25 26  1  0  0  0  0
 25 47  1  0  0  0  0
 25 48  1  0  0  0  0
 26 27  1  0  0  0  0
 27 49  1  0  0  0  0
 27 50  1  0  0  0  0
M  END
> <s_m_source_file>
AV-unprocessed.smi

> <i_m_source_file_index>
221

> <i_lp_mmshare_version>
43012

> <i_f3d_flags>
0

> <s_epik_input>
W05IMl1DKD1PKVtDQEBIXTFbQ0gyXVtDQEBIXShGKVtDSDJdTjFjKG5bY0hdbjIpYyhjMjMpbltjSF1uM1tDSDJdW0NASF0oW0NIMl1bT0hdKVtDQEBIXTRbQ0gyXVtDSDJdT1tDSDJdNA==

> <s_epik_cmdline>
J2VwaWtfcHl0aG9uJywgJy1waCcsICc3LjAnLCAnLXRuJywgJzgnLCAnLW1hJywgJzIwMCcsICctbWV0YWxfYmluZGluZycsICctaW1hZScsICc8aW5maWxlLm1hZT4nLCAnLW9tYWUnLCAnPG91dGZpbGUubWFlPic=

> <r_lp_tautomer_probability>
1

> <r_epik_Ionization_Penalty>
0.000818822

> <r_epik_Ionization_Penalty_Charging>
0

> <r_epik_Ionization_Penalty_Neutral>
0.000818822

> <r_epik_State_Penalty>
0.000440551

> <r_epik_Charging_Adjusted_Penalty>
0.000440551

> <i_epik_Tot_Q>
0

> <i_epik_Tot_abs_Q>
0

> <r_epik_Metal_State_Penalty>
-0

> <b_epik_Metal_Only>
0

> <s_lp_Force_Field>
OPLS_2005

> <r_lp_Energy>
51.8706

> <b_lp_Chiralities_Consistent>
1

> <s_lp_Variant>
AV-unprocessed.smi:221-9

> <Gold.Version>
5.8.1

> <Gold.Id.Protein>
6NUR|6NUR_protein|mol2

> <Gold.PLP.Fitness>
52.3472

> <Gold.PLP.PLP>
-41.9409

> <Gold.PLP.part.hbond>
-4.8222

> <Gold.PLP.part.metal>
0.0000

> <Gold.PLP.part.buried>
-1.8482

> <Gold.PLP.part.nonpolar>
-34.3250

> <Gold.PLP.part.repulsive>
0.4906

> <Gold.PLP.ligand.clash>
0.0000

> <Gold.PLP.ligand.torsion>
1.1343

> <Gold.PLP.Chemscore.Hbond>
4.0000

> <Gold.PLP.Chemscore.CHOScore>
0.1325

> <Gold.PLP.Chemscore.Metal>
0.0000

> <Gold.Chemscore.Hbonds>
donor molecule, donor type, donor heavy atom, donor atom, acceptor molecule, acceptor atom, score
      L1  H    22    43       P1  7957  1.00
      P1  H  6896  6907       L1     3  1.00
      P1  H  7989  7998       L1    13  1.00
      P1  H  7997  8009       L1    11  0.99
      L1  C    17    37       P1  8028  0.20

> <Gold.PLP.Chemscore.Internal.Correction>
0.2774

> <Gold.Rescore>
     Score         DG    S(hbond)    S(metal)    S(lipo)     H(rot)  DE(clash)    DE(int)     intcor
     11.13     -13.93       2.84        0.00      72.44       3.72       1.03       1.77       ----

> <Gold.Chemscore.Fitness>
11.1325

> <Gold.Chemscore.DG>
-13.9339

> <Gold.Chemscore.ZeroCoef>
-5.4800

> <Gold.Chemscore.Hbond>
2.8448

> <Gold.Chemscore.Metal>
0.0000

> <Gold.Chemscore.Lipo>
72.4444

> <Gold.Chemscore.Internal_Hbond>
0.0000

> <Gold.Chemscore.DEClash>
1.0280

> <Gold.Chemscore.DEInternal>
1.7734

> <Gold.Chemscore.Rot>
3.7202

> <Gold.Chemscore.Internal.Correction>
   9.000000E+99

> <Gold.Chemscore.Hbonds>
donor molecule, donor type, donor heavy atom, donor atom, acceptor molecule, acceptor atom, score
      L1  H    22    43       P1  7957  0.95
      P1  H  6896  6907       L1     3  0.58
      P1  H  7989  7998       L1    13  0.83
      P1  H  7997  8009       L1    11  0.25

> <Gold.Chemscore.Hbond.Weighted>
-9.5017

> <Gold.Chemscore.Metal.Weighted>
-0.0000

> <Gold.Chemscore.Lipo.Weighted>
-8.4760

> <Gold.Chemscore.Internal_Hbond.Weighted>
0.0000

> <Gold.Chemscore.DEClash.Weighted>
1.0280

> <Gold.Chemscore.DEInternal.Weighted>
1.7734

> <Gold.Chemscore.Rot.Weighted>
9.5237

> <Gold.Chemscore.Internal.Correction.Weighted>
   9.000000E+99

> <Gold.Protein.RotatedTorsions>
[ 6907 6896 6895 6894 ] final   24.90 input  -60.11 | X-H torsion
[ 7974 7965 7964 7962 ] final  -64.97 input  175.53 | X-H torsion
[ 8008 7997 7996 7995 ] final  163.42 input   59.86 | X-H torsion
[ 10167 10162 10161 10158 ] final -168.23 input  -65.29 | X-H torsion
[ 10718 10713 10712 10709 ] final   18.54 input   66.30 | X-H torsion
[ 10763 10752 10751 10750 ] final  111.43 input  -60.55 | X-H torsion
[ 11005 11000 10999 10996 ] final  164.03 input  -57.11 | X-H torsion

> <Gold.Protein.ActiveResidues>
 VAL166  LYS551  ARG553  GLY616  TRP617  ASP618  TYR619  PRO620  LYS621  CYS622 
 ASP623  PHE694  ASN695  SER759  ASP760  ASP761  ALA762  ILE779  LEU786  VAL792 
 PHE793  MET794  SER795  GLU796  ALA797  LYS798  CYS799  TRP800  GLU811  SER814 

> <Gold.Protein.RotatedAtoms>
  151.9644  135.0107  160.0549 H   0  0  0  0  0  0  0  0  0  0  0  0  # atno 6907 bound_to 6896
  152.1839  133.4722  159.4981 H   0  0  0  0  0  0  0  0  0  0  0  0  # atno 6908 bound_to 6896
  150.6922  134.1715  159.4257 H   0  0  0  0  0  0  0  0  0  0  0  0  # atno 6909 bound_to 6896
  145.7601  140.8866  143.0434 H   0  0  0  0  0  0  0  0  0  0  0  0  # atno 7974 bound_to 7965
  156.1958  140.1724  156.8000 H   0  0  0  0  0  0  0  0  0  0  0  0  # atno 8008 bound_to 7997
  154.5528  140.0714  156.8727 H   0  0  0  0  0  0  0  0  0  0  0  0  # atno 8009 bound_to 7997
  155.2996  140.3360  155.4250 H   0  0  0  0  0  0  0  0  0  0  0  0  # atno 8010 bound_to 7997
  139.5998  144.1035  152.1730 H   0  0  0  0  0  0  0  0  0  0  0  0  # atno 10167 bound_to 10162
  157.0977  130.6455  149.5864 H   0  0  0  0  0  0  0  0  0  0  0  0  # atno 10718 bound_to 10713
  153.4632  135.3717  155.2350 H   0  0  0  0  0  0  0  0  0  0  0  0  # atno 10763 bound_to 10752
  154.8757  135.3913  154.3900 H   0  0  0  0  0  0  0  0  0  0  0  0  # atno 10764 bound_to 10752
  153.4477  135.7085  153.6193 H   0  0  0  0  0  0  0  0  0  0  0  0  # atno 10765 bound_to 10752
  140.2417  134.8045  157.3417 H   0  0  0  0  0  0  0  0  0  0  0  0  # atno 11005 bound_to 11000
  144.6832  139.9710  143.7482 LP  0  0  0  0  0  0  0  0  0  0  0  0  # atno 17320 bound_to 7965
  146.0273  139.3303  143.0777 LP  0  0  0  0  0  0  0  0  0  0  0  0  # atno 17321 bound_to 7965
  140.0628  144.5842  150.7250 LP  0  0  0  0  0  0  0  0  0  0  0  0  # atno 17342 bound_to 10162
  140.7241  143.2618  151.4181 LP  0  0  0  0  0  0  0  0  0  0  0  0  # atno 17343 bound_to 10162
  155.9881  130.4924  150.7157 LP  0  0  0  0  0  0  0  0  0  0  0  0  # atno 17370 bound_to 10713
  157.4667  131.0889  151.0687 LP  0  0  0  0  0  0  0  0  0  0  0  0  # atno 17371 bound_to 10713
  140.1646  134.4685  155.7871 LP  0  0  0  0  0  0  0  0  0  0  0  0  # atno 17394 bound_to 11000
  141.2210  133.6916  156.7603 LP  0  0  0  0  0  0  0  0  0  0  0  0  # atno 17395 bound_to 11000

$$$$
