AV-unprocessed.smi:1644|AV-procd|sdf|6593|dock9
  -GOLD-   22720 7293D 1   1.00000     0.00000
 Structure written by MMmdl.
 48 50  0  0  0  0  0  0  0  0  2 V2000
  146.5538  136.7582  162.5189 C   0  0  0  0  0  0  0  0  0  0  0  0
  147.2368  135.3920  162.3915 C   0  0  0  0  0  0  0  0  0  0  0  0
  148.3010  135.3658  161.2822 C   0  0  0  0  0  0  0  0  0  0  0  0
  147.7589  135.8092  159.9065 C   0  0  1  0  0  0  0  0  0  0  0  0
  147.7204  137.2528  159.7906 N   0  5  0  0  0  0  0  0  0  0  0  0
  148.4893  137.6252  158.7412 C   0  0  0  0  0  0  0  0  0  0  0  0
  148.6911  138.7741  158.3496 O   0  0  0  0  0  0  0  0  0  0  0  0
  149.0483  136.5542  158.1474 N   0  0  0  0  0  0  0  0  0  0  0  0
  149.9732  136.6072  157.0098 C   0  0  0  0  0  0  0  0  0  0  0  0
  151.4434  136.6276  157.4766 C   0  0  2  0  0  0  0  0  0  0  0  0
  151.5012  137.2148  158.7623 O   0  0  0  0  0  0  0  0  0  0  0  0
  152.3372  137.4477  156.5269 C   0  0  0  0  0  0  0  0  0  0  0  0
  151.7592  138.7406  156.2057 N   0  0  0  0  0  0  0  0  0  0  0  0
  151.0362  139.0519  155.1132 C   0  0  0  0  0  0  0  0  0  0  0  0
  150.6016  140.3041  155.0065 N   0  0  0  0  0  0  0  0  0  0  0  0
  151.1047  140.8723  156.1643 C   0  0  0  0  0  0  0  0  0  0  0  0
  151.0026  142.1920  156.6558 C   0  0  0  0  0  0  0  0  0  0  0  0
  151.6049  142.5582  157.8806 C   0  0  0  0  0  0  0  0  0  0  0  0
  151.4715  143.9895  158.3696 C   0  0  0  0  0  0  0  0  0  0  0  0
  152.3214  141.5951  158.6358 C   0  0  0  0  0  0  0  0  0  0  0  0
  152.9743  141.9640  159.9560 C   0  0  0  0  0  0  0  0  0  0  0  0
  152.4346  140.2725  158.1582 C   0  0  0  0  0  0  0  0  0  0  0  0
  151.8318  139.9206  156.9377 C   0  0  0  0  0  0  0  0  0  0  0  0
  148.6915  135.4286  158.7744 C   0  0  0  0  0  0  0  0  0  0  0  0
  149.0444  134.2777  158.5144 O   0  0  0  0  0  0  0  0  0  0  0  0
  145.8013  136.7442  163.3075 H   0  0  0  0  0  0  0  0  0  0  0  0
  146.0565  137.0370  161.5894 H   0  0  0  0  0  0  0  0  0  0  0  0
  147.2758  137.5383  162.7612 H   0  0  0  0  0  0  0  0  0  0  0  0
  147.6963  135.1294  163.3447 H   0  0  0  0  0  0  0  0  0  0  0  0
  146.4795  134.6323  162.1951 H   0  0  0  0  0  0  0  0  0  0  0  0
  149.1491  135.9894  161.5713 H   0  0  0  0  0  0  0  0  0  0  0  0
  148.6892  134.3492  161.2045 H   0  0  0  0  0  0  0  0  0  0  0  0
  146.7879  135.3488  159.7200 H   0  0  0  0  0  0  0  0  0  0  0  0
  149.7980  135.7241  156.3931 H   0  0  0  0  0  0  0  0  0  0  0  0
  149.7551  137.4546  156.3574 H   0  0  0  0  0  0  0  0  0  0  0  0
  151.8343  135.6105  157.5360 H   0  0  0  0  0  0  0  0  0  0  0  0
  152.2567  136.8690  159.2141 H   0  0  0  0  0  0  0  0  0  0  0  0
  153.3118  137.6204  156.9853 H   0  0  0  0  0  0  0  0  0  0  0  0
  152.5214  136.9018  155.6007 H   0  0  0  0  0  0  0  0  0  0  0  0
  150.8188  138.3168  154.3521 H   0  0  0  0  0  0  0  0  0  0  0  0
  150.4555  142.9243  156.0804 H   0  0  0  0  0  0  0  0  0  0  0  0
  150.8966  144.0233  159.2950 H   0  0  0  0  0  0  0  0  0  0  0  0
  150.9637  144.6146  157.6350 H   0  0  0  0  0  0  0  0  0  0  0  0
  152.4533  144.4258  158.5544 H   0  0  0  0  0  0  0  0  0  0  0  0
  153.4277  141.0941  160.4320 H   0  0  0  0  0  0  0  0  0  0  0  0
  152.2376  142.3758  160.6463 H   0  0  0  0  0  0  0  0  0  0  0  0
  153.7565  142.7068  159.7993 H   0  0  0  0  0  0  0  0  0  0  0  0
  152.9833  139.5298  158.7185 H   0  0  0  0  0  0  0  0  0  0  0  0
  1  2  1  0  0  0  0
  1 26  1  0  0  0  0
  1 27  1  0  0  0  0
  1 28  1  0  0  0  0
  2  3  1  0  0  0  0
  2 29  1  0  0  0  0
  2 30  1  0  0  0  0
  3  4  1  0  0  0  0
  3 31  1  0  0  0  0
  3 32  1  0  0  0  0
  4 24  1  0  0  0  0
  4  5  1  0  0  0  0
  4 33  1  0  0  0  0
  5  6  1  0  0  0  0
  6  7  2  0  0  0  0
  6  8  1  0  0  0  0
  8  9  1  0  0  0  0
  8 24  1  0  0  0  0
  9 10  1  0  0  0  0
  9 34  1  0  0  0  0
  9 35  1  0  0  0  0
 10 11  1  0  0  0  0
 10 12  1  0  0  0  0
 10 36  1  0  0  0  0
 11 37  1  0  0  0  0
 12 13  1  0  0  0  0
 12 38  1  0  0  0  0
 12 39  1  0  0  0  0
 13 23  1  0  0  0  0
 13 14  1  0  0  0  0
 14 15  2  0  0  0  0
 14 40  1  0  0  0  0
 15 16  1  0  0  0  0
 16 23  2  0  0  0  0
 16 17  1  0  0  0  0
 17 18  2  0  0  0  0
 17 41  1  0  0  0  0
 18 19  1  0  0  0  0
 18 20  1  0  0  0  0
 19 42  1  0  0  0  0
 19 43  1  0  0  0  0
 19 44  1  0  0  0  0
 20 21  1  0  0  0  0
 20 22  2  0  0  0  0
 21 45  1  0  0  0  0
 21 46  1  0  0  0  0
 21 47  1  0  0  0  0
 22 23  1  0  0  0  0
 22 48  1  0  0  0  0
 24 25  2  0  0  0  0
M  CHG  1   5  -1
M  END
> <s_m_source_file>
AV-unprocessed.smi

> <i_m_source_file_index>
1644

> <i_lp_mmshare_version>
43012

> <i_f3d_flags>
0

> <s_epik_input>
W0NIM11bQ0gyXVtDSDJdW0NAQEhdMVtOSF1DKD1PKU4oQzE9TylbQ0gyXVtDQEhdKFtPSF0pW0NIMl1uKFtjSF1uMiljKGMyMylbY0hdYyhbQ0gzXSljKFtjSF0zKVtDSDNd

> <s_epik_cmdline>
J2VwaWtfcHl0aG9uJywgJy1waCcsICc3LjAnLCAnLXRuJywgJzgnLCAnLW1hJywgJzIwMCcsICctbWV0YWxfYmluZGluZycsICctaW1hZScsICc8aW5maWxlLm1hZT4nLCAnLW9tYWUnLCAnPG91dGZpbGUubWFlPic=

> <r_lp_tautomer_probability>
1

> <r_epik_Ionization_Penalty>
5.95212

> <r_epik_Ionization_Penalty_Charging>
5.84419

> <r_epik_Ionization_Penalty_Neutral>
0.107924

> <r_epik_State_Penalty>
5.94088

> <r_epik_Charging_Adjusted_Penalty>
11.7851

> <i_epik_Tot_Q>
-1

> <i_epik_Tot_abs_Q>
1

> <r_epik_Metal_State_Penalty>
1.99095

> <b_epik_Metal_Only>
1

> <s_lp_Force_Field>
OPLS_2005

> <r_lp_Energy>
18.6255

> <b_lp_Chiralities_Consistent>
1

> <s_lp_Variant>
AV-unprocessed.smi:1644-10

> <Gold.Version>
5.8.1

> <Gold.Id.Protein>
6NUR|6NUR_protein|mol2

> <Gold.PLP.Fitness>
51.8360

> <Gold.PLP.PLP>
-43.7614

> <Gold.PLP.part.hbond>
-3.8194

> <Gold.PLP.part.metal>
0.0000

> <Gold.PLP.part.buried>
-7.1450

> <Gold.PLP.part.nonpolar>
-33.6194

> <Gold.PLP.part.repulsive>
0.0593

> <Gold.PLP.ligand.clash>
0.0000

> <Gold.PLP.ligand.torsion>
1.3586

> <Gold.PLP.Chemscore.Hbond>
3.5680

> <Gold.PLP.Chemscore.CHOScore>
0.0000

> <Gold.PLP.Chemscore.Metal>
0.0000

> <Gold.Chemscore.Hbonds>
donor molecule, donor type, donor heavy atom, donor atom, acceptor molecule, acceptor atom, score
      P1  H  6896  6908       L1    25  1.00
      P1  H  6934  6947       L1     5  1.07
      P1  H  7989  7998       L1    15  1.00

> <Gold.PLP.Chemscore.Internal.Correction>
0.0877

> <Gold.Rescore>
     Score         DG    S(hbond)    S(metal)    S(lipo)     H(rot)  DE(clash)    DE(int)     intcor
     18.38     -19.84       2.57        0.00     107.43       2.65       0.09       1.38       ----

> <Gold.Chemscore.Fitness>
18.3752

> <Gold.Chemscore.DG>
-19.8427

> <Gold.Chemscore.ZeroCoef>
-5.4800

> <Gold.Chemscore.Hbond>
2.5671

> <Gold.Chemscore.Metal>
0.0000

> <Gold.Chemscore.Lipo>
107.4273

> <Gold.Chemscore.Internal_Hbond>
0.0000

> <Gold.Chemscore.DEClash>
0.0920

> <Gold.Chemscore.DEInternal>
1.3754

> <Gold.Chemscore.Rot>
2.6486

> <Gold.Chemscore.Internal.Correction>
   9.000000E+99

> <Gold.Chemscore.Hbonds>
donor molecule, donor type, donor heavy atom, donor atom, acceptor molecule, acceptor atom, score
      P1  H  6896  6908       L1    25  0.50
      P1  H  6934  6947       L1     5  0.35
      P1  H  7989  7998       L1    15  0.19

> <Gold.Chemscore.Hbond.Weighted>
-8.5741

> <Gold.Chemscore.Metal.Weighted>
-0.0000

> <Gold.Chemscore.Lipo.Weighted>
-12.5690

> <Gold.Chemscore.Internal_Hbond.Weighted>
0.0000

> <Gold.Chemscore.DEClash.Weighted>
0.0920

> <Gold.Chemscore.DEInternal.Weighted>
1.3754

> <Gold.Chemscore.Rot.Weighted>
6.7804

> <Gold.Chemscore.Internal.Correction.Weighted>
   9.000000E+99

> <Gold.Protein.RotatedTorsions>
[ 6907 6896 6895 6894 ] final  138.32 input  -60.11 | X-H torsion
[ 7974 7965 7964 7962 ] final   21.16 input  175.53 | X-H torsion
[ 8008 7997 7996 7995 ] final   54.36 input   59.86 | X-H torsion
[ 10167 10162 10161 10158 ] final -117.04 input  -65.29 | X-H torsion
[ 10718 10713 10712 10709 ] final  -78.23 input   66.30 | X-H torsion
[ 10763 10752 10751 10750 ] final  -12.61 input  -60.55 | X-H torsion
[ 11005 11000 10999 10996 ] final -115.59 input  -57.11 | X-H torsion

> <Gold.Protein.ActiveResidues>
 VAL166  LYS551  ARG553  GLY616  TRP617  ASP618  TYR619  PRO620  LYS621  CYS622 
 ASP623  PHE694  ASN695  SER759  ASP760  ASP761  ALA762  ILE779  LEU786  VAL792 
 PHE793  MET794  SER795  GLU796  ALA797  LYS798  CYS799  TRP800  GLU811  SER814 

> <Gold.Protein.RotatedAtoms>
  152.2679  133.5356  159.5420 H   0  0  0  0  0  0  0  0  0  0  0  0  # atno 6907 bound_to 6896
  150.7148  134.0739  159.3883 H   0  0  0  0  0  0  0  0  0  0  0  0  # atno 6908 bound_to 6896
  151.8654  135.0509  160.0524 H   0  0  0  0  0  0  0  0  0  0  0  0  # atno 6909 bound_to 6896
  146.2083  139.8067  142.8709 H   0  0  0  0  0  0  0  0  0  0  0  0  # atno 7974 bound_to 7965
  155.4834  140.3469  155.4343 H   0  0  0  0  0  0  0  0  0  0  0  0  # atno 8008 bound_to 7997
  156.1024  140.1439  156.9478 H   0  0  0  0  0  0  0  0  0  0  0  0  # atno 8009 bound_to 7997
  154.4702  140.0903  156.7104 H   0  0  0  0  0  0  0  0  0  0  0  0  # atno 8010 bound_to 7997
  140.0727  143.4862  152.1970 H   0  0  0  0  0  0  0  0  0  0  0  0  # atno 10167 bound_to 10162
  156.0123  130.4512  150.3465 H   0  0  0  0  0  0  0  0  0  0  0  0  # atno 10718 bound_to 10713
  153.5010  135.7017  153.5832 H   0  0  0  0  0  0  0  0  0  0  0  0  # atno 10763 bound_to 10752
  153.3963  135.3883  155.1958 H   0  0  0  0  0  0  0  0  0  0  0  0  # atno 10764 bound_to 10752
  154.8710  135.3870  154.4480 H   0  0  0  0  0  0  0  0  0  0  0  0  # atno 10765 bound_to 10752
  141.0478  133.9736  157.2889 H   0  0  0  0  0  0  0  0  0  0  0  0  # atno 11005 bound_to 11000
  145.3239  141.0250  143.3485 LP  0  0  0  0  0  0  0  0  0  0  0  0  # atno 17320 bound_to 7965
  144.8847  139.4856  143.6706 LP  0  0  0  0  0  0  0  0  0  0  0  0  # atno 17321 bound_to 7965
  139.5826  144.7517  151.3601 LP  0  0  0  0  0  0  0  0  0  0  0  0  # atno 17342 bound_to 10162
  140.7117  143.7372  150.7580 LP  0  0  0  0  0  0  0  0  0  0  0  0  # atno 17343 bound_to 10162
  157.1559  131.0332  151.2864 LP  0  0  0  0  0  0  0  0  0  0  0  0  # atno 17370 bound_to 10713
  157.4353  130.7513  149.7023 LP  0  0  0  0  0  0  0  0  0  0  0  0  # atno 17371 bound_to 10713
  139.9325  135.0199  156.8449 LP  0  0  0  0  0  0  0  0  0  0  0  0  # atno 17394 bound_to 11000
  140.6114  134.0079  155.7578 LP  0  0  0  0  0  0  0  0  0  0  0  0  # atno 17395 bound_to 11000

$$$$
