AV-unprocessed.smi:1041|AV-procd|sdf|4532|dock7
  -GOLD-   22720 2553D 1   1.00000     0.00000
 Structure written by MMmdl.
 52 53  0  0  0  0  0  0  0  0  1 V2000
  151.9438  144.7537  159.6352 C   0  0  0  0  0  0  0  0  0  0  0  0
  152.6376  143.5952  159.2071 O   0  0  0  0  0  0  0  0  0  0  0  0
  151.7873  142.4669  159.0830 C   0  0  0  0  0  0  0  0  0  0  0  0
  150.9005  142.6290  157.8374 C   0  0  0  0  0  0  0  0  0  0  0  0
  150.6129  141.3952  157.1047 N   0  0  0  0  0  0  0  0  0  0  0  0
  151.8334  140.6115  156.9181 C   0  0  0  0  0  0  0  0  0  0  0  0
  151.5717  139.2657  156.2228 C   0  0  0  0  0  0  0  0  0  0  0  0
  150.8993  139.4771  154.8542 C   0  0  0  0  0  0  0  0  0  0  0  0
  150.5961  138.1301  154.1680 C   0  0  0  0  0  0  0  0  0  0  0  0
  150.2771  137.0864  155.1365 N   0  0  0  0  0  0  0  0  0  0  0  0
  149.2273  137.0845  155.9728 C   0  0  0  0  0  0  0  0  0  0  0  0
  148.3952  137.9894  156.0241 O   0  0  0  0  0  0  0  0  0  0  0  0
  149.0832  135.8604  156.8787 C   0  0  0  0  0  0  0  0  0  0  0  0
  148.5073  136.1273  158.2687 C   0  0  0  0  0  0  0  0  0  0  0  0
  149.1344  136.9115  159.1936 C   0  0  0  0  0  0  0  0  0  0  0  0
  150.4669  137.5907  158.9288 C   0  0  0  0  0  0  0  0  0  0  0  0
  148.5785  137.1420  160.4598 N   0  0  0  0  0  0  0  0  0  0  0  0
  147.4443  136.5945  160.7498 C   0  0  0  0  0  0  0  0  0  0  0  0
  146.7398  136.7637  162.0792 C   0  0  0  0  0  0  0  0  0  0  0  0
  146.7540  135.7816  159.8525 N   0  0  0  0  0  0  0  0  0  0  0  0
  147.2160  135.5009  158.6135 C   0  0  0  0  0  0  0  0  0  0  0  0
  146.5777  134.7625  157.8649 O   0  0  0  0  0  0  0  0  0  0  0  0
  149.6466  140.3576  155.0453 C   0  0  0  0  0  0  0  0  0  0  0  0
  149.9893  141.6513  155.8039 C   0  0  0  0  0  0  0  0  0  0  0  0
  145.8732  135.3776  160.1356 H   0  0  0  0  0  0  0  0  0  0  0  0
  152.6389  145.5898  159.7117 H   0  0  0  0  0  0  0  0  0  0  0  0
  151.4904  144.6020  160.6156 H   0  0  0  0  0  0  0  0  0  0  0  0
  151.1619  145.0299  158.9267 H   0  0  0  0  0  0  0  0  0  0  0  0
  152.3739  141.5491  159.0331 H   0  0  0  0  0  0  0  0  0  0  0  0
  151.1534  142.3874  159.9674 H   0  0  0  0  0  0  0  0  0  0  0  0
  149.9656  143.1143  158.1213 H   0  0  0  0  0  0  0  0  0  0  0  0
  151.4067  143.3265  157.1688 H   0  0  0  0  0  0  0  0  0  0  0  0
  152.5580  141.1862  156.3390 H   0  0  0  0  0  0  0  0  0  0  0  0
  152.2971  140.4188  157.8865 H   0  0  0  0  0  0  0  0  0  0  0  0
  152.5115  138.7264  156.1000 H   0  0  0  0  0  0  0  0  0  0  0  0
  150.9377  138.6450  156.8577 H   0  0  0  0  0  0  0  0  0  0  0  0
  151.6008  140.0248  154.2221 H   0  0  0  0  0  0  0  0  0  0  0  0
  149.7304  138.2395  153.5145 H   0  0  0  0  0  0  0  0  0  0  0  0
  151.4260  137.8353  153.5234 H   0  0  0  0  0  0  0  0  0  0  0  0
  150.8998  136.2918  155.1650 H   0  0  0  0  0  0  0  0  0  0  0  0
  148.4529  135.1290  156.3721 H   0  0  0  0  0  0  0  0  0  0  0  0
  150.0564  135.3741  156.9548 H   0  0  0  0  0  0  0  0  0  0  0  0
  150.3796  138.2992  158.1051 H   0  0  0  0  0  0  0  0  0  0  0  0
  151.2298  136.8543  158.6757 H   0  0  0  0  0  0  0  0  0  0  0  0
  150.8127  138.1398  159.8055 H   0  0  0  0  0  0  0  0  0  0  0  0
  147.3823  136.4206  162.8905 H   0  0  0  0  0  0  0  0  0  0  0  0
  145.8094  136.1952  162.1178 H   0  0  0  0  0  0  0  0  0  0  0  0
  146.5046  137.8148  162.2482 H   0  0  0  0  0  0  0  0  0  0  0  0
  149.2079  140.6136  154.0809 H   0  0  0  0  0  0  0  0  0  0  0  0
  148.8845  139.8034  155.5955 H   0  0  0  0  0  0  0  0  0  0  0  0
  149.0686  142.2186  155.9334 H   0  0  0  0  0  0  0  0  0  0  0  0
  150.6491  142.2681  155.1917 H   0  0  0  0  0  0  0  0  0  0  0  0
  1  2  1  0  0  0  0
  1 26  1  0  0  0  0
  1 27  1  0  0  0  0
  1 28  1  0  0  0  0
  2  3  1  0  0  0  0
  3  4  1  0  0  0  0
  3 29  1  0  0  0  0
  3 30  1  0  0  0  0
  4  5  1  0  0  0  0
  4 31  1  0  0  0  0
  4 32  1  0  0  0  0
  5 24  1  0  0  0  0
  5  6  1  0  0  0  0
  6  7  1  0  0  0  0
  6 33  1  0  0  0  0
  6 34  1  0  0  0  0
  7  8  1  0  0  0  0
  7 35  1  0  0  0  0
  7 36  1  0  0  0  0
  8  9  1  0  0  0  0
  8 23  1  0  0  0  0
  8 37  1  0  0  0  0
  9 10  1  0  0  0  0
  9 38  1  0  0  0  0
  9 39  1  0  0  0  0
 10 11  1  0  0  0  0
 10 40  1  0  0  0  0
 11 12  2  0  0  0  0
 11 13  1  0  0  0  0
 13 14  1  0  0  0  0
 13 41  1  0  0  0  0
 13 42  1  0  0  0  0
 14 21  1  0  0  0  0
 14 15  2  0  0  0  0
 15 16  1  0  0  0  0
 15 17  1  0  0  0  0
 16 43  1  0  0  0  0
 16 44  1  0  0  0  0
 16 45  1  0  0  0  0
 17 18  2  0  0  0  0
 18 19  1  0  0  0  0
 18 20  1  0  0  0  0
 19 46  1  0  0  0  0
 19 47  1  0  0  0  0
 19 48  1  0  0  0  0
 20 25  1  0  0  0  0
 20 21  1  0  0  0  0
 21 22  2  0  0  0  0
 23 24  1  0  0  0  0
 23 49  1  0  0  0  0
 23 50  1  0  0  0  0
 24 51  1  0  0  0  0
 24 52  1  0  0  0  0
M  END
> <s_m_source_file>
AV-unprocessed.smi

> <i_m_source_file_index>
1041

> <i_lp_mmshare_version>
43012

> <i_f3d_flags>
0

> <s_epik_input>
W0NIM11PW0NIMl1bQ0gyXU4xW0NIMl1bQ0gyXVtDSF0oW0NIMl1bQ0gyXTEpW0NIMl1bTkhdQyg9TylbQ0gyXWMyYyhbQ0gzXSluYyhbQ0gzXSlbbkhdYzI9Tw==

> <s_epik_cmdline>
J2VwaWtfcHl0aG9uJywgJy1waCcsICc3LjAnLCAnLXRuJywgJzgnLCAnLW1hJywgJzIwMCcsICctbWV0YWxfYmluZGluZycsICctaW1hZScsICc8aW5maWxlLm1hZT4nLCAnLW9tYWUnLCAnPG91dGZpbGUubWFlPic=

> <r_lp_tautomer_probability>
0.839158

> <r_epik_Ionization_Penalty>
2.47116

> <r_epik_Ionization_Penalty_Charging>
0.00036358

> <r_epik_Ionization_Penalty_Neutral>
2.4708

> <r_epik_State_Penalty>
2.72392

> <r_epik_Charging_Adjusted_Penalty>
2.72428

> <i_epik_Tot_Q>
0

> <i_epik_Tot_abs_Q>
0

> <r_epik_Metal_State_Penalty>
2.89755

> <b_epik_Metal_Only>
0

> <s_lp_Force_Field>
OPLS_2005

> <r_lp_Energy>
27.3294

> <b_lp_Chiralities_Consistent>
1

> <s_lp_Variant>
AV-unprocessed.smi:1041-5

> <Gold.Version>
5.8.1

> <Gold.Id.Protein>
6NUR|6NUR_protein|mol2

> <Gold.PLP.Fitness>
38.0177

> <Gold.PLP.PLP>
-37.7832

> <Gold.PLP.part.hbond>
-1.4445

> <Gold.PLP.part.metal>
0.0000

> <Gold.PLP.part.buried>
-5.3711

> <Gold.PLP.part.nonpolar>
-31.8660

> <Gold.PLP.part.repulsive>
0.1876

> <Gold.PLP.ligand.clash>
0.0000

> <Gold.PLP.ligand.torsion>
1.0843

> <Gold.PLP.Chemscore.Hbond>
0.7520

> <Gold.PLP.Chemscore.CHOScore>
0.0000

> <Gold.PLP.Chemscore.Metal>
0.0000

> <Gold.Chemscore.Hbonds>
donor molecule, donor type, donor heavy atom, donor atom, acceptor molecule, acceptor atom, score
      P1  H  6931  6943       L1    17  0.72

> <Gold.PLP.Chemscore.Internal.Correction>
0.1470

> <Gold.Rescore>
     Score         DG    S(hbond)    S(metal)    S(lipo)     H(rot)  DE(clash)    DE(int)     intcor
     11.46     -13.67       0.88        0.00      96.44       2.36       0.01       2.20       ----

> <Gold.Chemscore.Fitness>
11.4641

> <Gold.Chemscore.DG>
-13.6701

> <Gold.Chemscore.ZeroCoef>
-5.4800

> <Gold.Chemscore.Hbond>
0.8824

> <Gold.Chemscore.Metal>
0.0000

> <Gold.Chemscore.Lipo>
96.4444

> <Gold.Chemscore.Internal_Hbond>
0.0000

> <Gold.Chemscore.DEClash>
0.0093

> <Gold.Chemscore.DEInternal>
2.1967

> <Gold.Chemscore.Rot>
2.3598

> <Gold.Chemscore.Internal.Correction>
   9.000000E+99

> <Gold.Chemscore.Hbonds>
donor molecule, donor type, donor heavy atom, donor atom, acceptor molecule, acceptor atom, score
      P1  H  6931  6943       L1    17  0.47

> <Gold.Chemscore.Hbond.Weighted>
-2.9471

> <Gold.Chemscore.Metal.Weighted>
-0.0000

> <Gold.Chemscore.Lipo.Weighted>
-11.2840

> <Gold.Chemscore.Internal_Hbond.Weighted>
0.0000

> <Gold.Chemscore.DEClash.Weighted>
0.0093

> <Gold.Chemscore.DEInternal.Weighted>
2.1967

> <Gold.Chemscore.Rot.Weighted>
6.0410

> <Gold.Chemscore.Internal.Correction.Weighted>
   9.000000E+99

> <Gold.Protein.RotatedTorsions>
[ 6907 6896 6895 6894 ] final  -28.45 input  -60.11 | X-H torsion
[ 7974 7965 7964 7962 ] final  102.57 input  175.53 | X-H torsion
[ 8008 7997 7996 7995 ] final -139.50 input   59.86 | X-H torsion
[ 10167 10162 10161 10158 ] final   32.91 input  -65.29 | X-H torsion
[ 10718 10713 10712 10709 ] final -142.75 input   66.30 | X-H torsion
[ 10763 10752 10751 10750 ] final  173.06 input  -60.55 | X-H torsion
[ 11005 11000 10999 10996 ] final  -13.40 input  -57.11 | X-H torsion

> <Gold.Protein.ActiveResidues>
 VAL166  LYS551  ARG553  GLY616  TRP617  ASP618  TYR619  PRO620  LYS621  CYS622 
 ASP623  PHE694  ASN695  SER759  ASP760  ASP761  ALA762  ILE779  LEU786  VAL792 
 PHE793  MET794  SER795  GLU796  ALA797  LYS798  CYS799  TRP800  GLU811  SER814 

> <Gold.Protein.RotatedAtoms>
  151.1328  135.0139  159.8589 H   0  0  0  0  0  0  0  0  0  0  0  0  # atno 6907 bound_to 6896
  152.5451  134.1590  159.8560 H   0  0  0  0  0  0  0  0  0  0  0  0  # atno 6908 bound_to 6896
  151.1658  133.4770  159.2627 H   0  0  0  0  0  0  0  0  0  0  0  0  # atno 6909 bound_to 6896
  145.3573  139.2425  143.3525 H   0  0  0  0  0  0  0  0  0  0  0  0  # atno 7974 bound_to 7965
  155.4459  140.0535  157.3006 H   0  0  0  0  0  0  0  0  0  0  0  0  # atno 8008 bound_to 7997
  154.4798  140.2076  155.9748 H   0  0  0  0  0  0  0  0  0  0  0  0  # atno 8009 bound_to 7997
  156.1188  140.3192  155.8182 H   0  0  0  0  0  0  0  0  0  0  0  0  # atno 8010 bound_to 7997
  140.4456  144.1124  150.6182 H   0  0  0  0  0  0  0  0  0  0  0  0  # atno 10167 bound_to 10162
  156.3496  130.7681  151.1831 H   0  0  0  0  0  0  0  0  0  0  0  0  # atno 10718 bound_to 10713
  154.4347  135.2760  155.1888 H   0  0  0  0  0  0  0  0  0  0  0  0  # atno 10763 bound_to 10752
  154.3779  135.6094  153.5779 H   0  0  0  0  0  0  0  0  0  0  0  0  # atno 10764 bound_to 10752
  152.9838  135.5873  154.4665 H   0  0  0  0  0  0  0  0  0  0  0  0  # atno 10765 bound_to 10752
  140.7757  133.8403  155.9246 H   0  0  0  0  0  0  0  0  0  0  0  0  # atno 11005 bound_to 11000
  146.2942  140.4201  142.8728 LP  0  0  0  0  0  0  0  0  0  0  0  0  # atno 17320 bound_to 7965
  144.8672  140.7223  143.6069 LP  0  0  0  0  0  0  0  0  0  0  0  0  # atno 17321 bound_to 7965
  140.4268  143.2586  151.9646 LP  0  0  0  0  0  0  0  0  0  0  0  0  # atno 17342 bound_to 10162
  139.4792  144.5781  151.7978 LP  0  0  0  0  0  0  0  0  0  0  0  0  # atno 17343 bound_to 10162
  157.7459  131.0431  150.4728 LP  0  0  0  0  0  0  0  0  0  0  0  0  # atno 17370 bound_to 10713
  156.4921  130.4097  149.6401 LP  0  0  0  0  0  0  0  0  0  0  0  0  # atno 17371 bound_to 10713
  140.9531  134.1753  157.4712 LP  0  0  0  0  0  0  0  0  0  0  0  0  # atno 17394 bound_to 11000
  139.8749  134.9917  156.5560 LP  0  0  0  0  0  0  0  0  0  0  0  0  # atno 17395 bound_to 11000

$$$$
