AV-unprocessed.smi:1823|AV-procd|sdf|7391|dock3
  -GOLD-   22720 9 63D 1   1.00000     0.00000
 Structure written by MMmdl.
 43 44  0  0  0  0  0  0  0  0  1 V2000
  145.0301  143.6495  161.9369 C   0  0  0  0  0  0  0  0  0  0  0  0
  145.6327  143.3801  160.6010 C   0  0  0  0  0  0  0  0  0  0  0  0
  146.8653  142.9004  160.4908 N   0  0  0  0  0  0  0  0  0  0  0  0
  147.0418  142.7801  159.1051 O   0  0  0  0  0  0  0  0  0  0  0  0
  145.8875  143.2177  158.5455 C   0  0  0  0  0  0  0  0  0  0  0  0
  145.7315  143.1461  157.0600 C   0  0  0  0  0  0  0  0  0  0  0  0
  146.4209  141.9294  156.4114 C   0  0  0  0  0  0  0  0  0  0  0  0
  147.8469  142.1501  156.1805 N   0  0  0  0  0  0  0  0  0  0  0  0
  148.7451  141.1930  155.8972 C   0  0  0  0  0  0  0  0  0  0  0  0
  148.4462  140.0068  155.7534 O   0  0  0  0  0  0  0  0  0  0  0  0
  150.2114  141.6382  155.7914 C   0  0  2  0  0  0  0  0  0  0  0  0
  151.1687  140.4354  155.6773 C   0  0  0  0  0  0  0  0  0  0  0  0
  151.9213  140.4397  156.9974 C   0  0  0  0  0  0  0  0  0  0  0  0
  152.6883  139.5365  157.3283 O   0  0  0  0  0  0  0  0  0  0  0  0
  151.6202  141.5250  157.7200 N   0  0  0  0  0  0  0  0  0  0  0  0
  152.0780  141.8274  159.0764 C   0  0  0  0  0  0  0  0  0  0  0  0
  151.9389  143.3214  159.4445 C   0  0  0  0  0  0  0  0  0  0  0  0
  152.5912  144.2656  158.4197 C   0  0  0  0  0  0  0  0  0  0  0  0
  152.5048  143.5821  160.8483 C   0  0  0  0  0  0  0  0  0  0  0  0
  150.6727  142.4014  157.0516 C   0  0  0  0  0  0  0  0  0  0  0  0
  144.9714  143.6000  159.4315 N   0  0  0  0  0  0  0  0  0  0  0  0
  145.6255  144.3847  162.4787 H   0  0  0  0  0  0  0  0  0  0  0  0
  144.9897  142.7322  162.5248 H   0  0  0  0  0  0  0  0  0  0  0  0
  144.0159  144.0363  161.8323 H   0  0  0  0  0  0  0  0  0  0  0  0
  144.6671  143.1325  156.8244 H   0  0  0  0  0  0  0  0  0  0  0  0
  146.1285  144.0658  156.6287 H   0  0  0  0  0  0  0  0  0  0  0  0
  146.2655  141.0422  157.0277 H   0  0  0  0  0  0  0  0  0  0  0  0
  145.9511  141.7150  155.4514 H   0  0  0  0  0  0  0  0  0  0  0  0
  148.1825  143.0971  156.2809 H   0  0  0  0  0  0  0  0  0  0  0  0
  150.3254  142.2798  154.9159 H   0  0  0  0  0  0  0  0  0  0  0  0
  150.6612  139.4806  155.5288 H   0  0  0  0  0  0  0  0  0  0  0  0
  151.8747  140.5718  154.8577 H   0  0  0  0  0  0  0  0  0  0  0  0
  151.5019  141.2214  159.7772 H   0  0  0  0  0  0  0  0  0  0  0  0
  153.1151  141.5089  159.1961 H   0  0  0  0  0  0  0  0  0  0  0  0
  150.8746  143.5594  159.4778 H   0  0  0  0  0  0  0  0  0  0  0  0
  153.6489  144.0359  158.2871 H   0  0  0  0  0  0  0  0  0  0  0  0
  152.5142  145.3049  158.7404 H   0  0  0  0  0  0  0  0  0  0  0  0
  152.1083  144.1968  157.4451 H   0  0  0  0  0  0  0  0  0  0  0  0
  153.5716  143.3602  160.8923 H   0  0  0  0  0  0  0  0  0  0  0  0
  152.0054  142.9642  161.5952 H   0  0  0  0  0  0  0  0  0  0  0  0
  152.3690  144.6236  161.1412 H   0  0  0  0  0  0  0  0  0  0  0  0
  151.1735  143.3311  156.7784 H   0  0  0  0  0  0  0  0  0  0  0  0
  149.8488  142.6583  157.7198 H   0  0  0  0  0  0  0  0  0  0  0  0
  1  2  1  0  0  0  0
  1 22  1  0  0  0  0
  1 23  1  0  0  0  0
  1 24  1  0  0  0  0
  2 21  1  0  0  0  0
  2  3  2  0  0  0  0
  3  4  1  0  0  0  0
  4  5  1  0  0  0  0
  5  6  1  0  0  0  0
  5 21  2  0  0  0  0
  6  7  1  0  0  0  0
  6 25  1  0  0  0  0
  6 26  1  0  0  0  0
  7  8  1  0  0  0  0
  7 27  1  0  0  0  0
  7 28  1  0  0  0  0
  8  9  1  0  0  0  0
  8 29  1  0  0  0  0
  9 10  2  0  0  0  0
  9 11  1  0  0  0  0
 11 20  1  0  0  0  0
 11 12  1  0  0  0  0
 11 30  1  0  0  0  0
 12 13  1  0  0  0  0
 12 31  1  0  0  0  0
 12 32  1  0  0  0  0
 13 14  2  0  0  0  0
 13 15  1  0  0  0  0
 15 16  1  0  0  0  0
 15 20  1  0  0  0  0
 16 17  1  0  0  0  0
 16 33  1  0  0  0  0
 16 34  1  0  0  0  0
 17 18  1  0  0  0  0
 17 19  1  0  0  0  0
 17 35  1  0  0  0  0
 18 36  1  0  0  0  0
 18 37  1  0  0  0  0
 18 38  1  0  0  0  0
 19 39  1  0  0  0  0
 19 40  1  0  0  0  0
 19 41  1  0  0  0  0
 20 42  1  0  0  0  0
 20 43  1  0  0  0  0
M  END
> <s_m_source_file>
AV-unprocessed.smi

> <i_m_source_file_index>
1823

> <i_lp_mmshare_version>
43012

> <i_f3d_flags>
0

> <s_epik_input>
W0NIM11jMW5vYyhuMSlbQ0gyXVtDSDJdW05IXUMoPU8pW0NAQEhdMltDSDJdQyg9TylOKFtDSDJdMilbQ0gyXVtDSF0oW0NIM10pW0NIM10=

> <s_epik_cmdline>
J2VwaWtfcHl0aG9uJywgJy1waCcsICc3LjAnLCAnLXRuJywgJzgnLCAnLW1hJywgJzIwMCcsICctbWV0YWxfYmluZGluZycsICctaW1hZScsICc8aW5maWxlLm1hZT4nLCAnLW9tYWUnLCAnPG91dGZpbGUubWFlPic=

> <r_lp_tautomer_probability>
1

> <r_epik_Ionization_Penalty>
3.64678e-08

> <r_epik_Ionization_Penalty_Charging>
0

> <r_epik_Ionization_Penalty_Neutral>
3.64678e-08

> <r_epik_State_Penalty>
-0

> <r_epik_Charging_Adjusted_Penalty>
0

> <i_epik_Tot_Q>
0

> <i_epik_Tot_abs_Q>
0

> <r_epik_Metal_State_Penalty>
-0

> <b_epik_Metal_Only>
0

> <s_lp_Force_Field>
OPLS_2005

> <r_lp_Energy>
11.1624

> <b_lp_Chiralities_Consistent>
1

> <s_lp_Variant>
AV-unprocessed.smi:1823-1

> <Gold.Version>
5.8.1

> <Gold.Id.Protein>
6NUR|6NUR_protein|mol2

> <Gold.PLP.Fitness>
48.3511

> <Gold.PLP.PLP>
-39.4351

> <Gold.PLP.part.hbond>
-4.0000

> <Gold.PLP.part.metal>
0.0000

> <Gold.PLP.part.buried>
-4.0994

> <Gold.PLP.part.nonpolar>
-31.4856

> <Gold.PLP.part.repulsive>
0.2125

> <Gold.PLP.ligand.clash>
0.0000

> <Gold.PLP.ligand.torsion>
0.9343

> <Gold.PLP.Chemscore.Hbond>
3.5616

> <Gold.PLP.Chemscore.CHOScore>
0.0000

> <Gold.PLP.Chemscore.Metal>
0.0000

> <Gold.Chemscore.Hbonds>
donor molecule, donor type, donor heavy atom, donor atom, acceptor molecule, acceptor atom, score
      L1  H     8    29       P1  8028  1.00
      P1  H  6933  6944       L1     3  0.94
      P1  H  6934  6946       L1     3  0.51
      P1  H  7997  8008       L1    14  1.00

> <Gold.PLP.Chemscore.Internal.Correction>
0.0999

> <Gold.Rescore>
     Score         DG    S(hbond)    S(metal)    S(lipo)     H(rot)  DE(clash)    DE(int)     intcor
     16.00     -17.41       2.54        0.00      81.74       2.40       0.40       1.01       ----

> <Gold.Chemscore.Fitness>
15.9995

> <Gold.Chemscore.DG>
-17.4054

> <Gold.Chemscore.ZeroCoef>
-5.4800

> <Gold.Chemscore.Hbond>
2.5433

> <Gold.Chemscore.Metal>
0.0000

> <Gold.Chemscore.Lipo>
81.7389

> <Gold.Chemscore.Internal_Hbond>
0.0000

> <Gold.Chemscore.DEClash>
0.3958

> <Gold.Chemscore.DEInternal>
1.0101

> <Gold.Chemscore.Rot>
2.3957

> <Gold.Chemscore.Internal.Correction>
   9.000000E+99

> <Gold.Chemscore.Hbonds>
donor molecule, donor type, donor heavy atom, donor atom, acceptor molecule, acceptor atom, score
      L1  H     8    29       P1  8028  0.54
      P1  H  6933  6944       L1     3  0.70
      P1  H  6934  6946       L1     3  0.03
      P1  H  7997  8008       L1    14  0.34

> <Gold.Chemscore.Hbond.Weighted>
-8.4948

> <Gold.Chemscore.Metal.Weighted>
-0.0000

> <Gold.Chemscore.Lipo.Weighted>
-9.5635

> <Gold.Chemscore.Internal_Hbond.Weighted>
0.0000

> <Gold.Chemscore.DEClash.Weighted>
0.3958

> <Gold.Chemscore.DEInternal.Weighted>
1.0101

> <Gold.Chemscore.Rot.Weighted>
6.1329

> <Gold.Chemscore.Internal.Correction.Weighted>
   9.000000E+99

> <Gold.Protein.RotatedTorsions>
[ 6907 6896 6895 6894 ] final   -8.88 input  -60.11 | X-H torsion
[ 7974 7965 7964 7962 ] final -111.13 input  175.53 | X-H torsion
[ 8008 7997 7996 7995 ] final  -52.99 input   59.86 | X-H torsion
[ 10167 10162 10161 10158 ] final  121.51 input  -65.29 | X-H torsion
[ 10718 10713 10712 10709 ] final  -47.34 input   66.30 | X-H torsion
[ 10763 10752 10751 10750 ] final  -88.16 input  -60.55 | X-H torsion
[ 11005 11000 10999 10996 ] final  167.99 input  -57.11 | X-H torsion

> <Gold.Protein.ActiveResidues>
 VAL166  LYS551  ARG553  GLY616  TRP617  ASP618  TYR619  PRO620  LYS621  CYS622 
 ASP623  PHE694  ASN695  SER759  ASP760  ASP761  ALA762  ILE779  LEU786  VAL792 
 PHE793  MET794  SER795  GLU796  ALA797  LYS798  CYS799  TRP800  GLU811  SER814 

> <Gold.Protein.RotatedAtoms>
  151.4267  135.1004  159.9629 H   0  0  0  0  0  0  0  0  0  0  0  0  # atno 6907 bound_to 6896
  152.4970  133.8656  159.7283 H   0  0  0  0  0  0  0  0  0  0  0  0  # atno 6908 bound_to 6896
  150.9184  133.6852  159.2865 H   0  0  0  0  0  0  0  0  0  0  0  0  # atno 6909 bound_to 6896
  145.1598  140.8872  143.3597 H   0  0  0  0  0  0  0  0  0  0  0  0  # atno 7974 bound_to 7965
  154.4121  140.1211  156.5081 H   0  0  0  0  0  0  0  0  0  0  0  0  # atno 8008 bound_to 7997
  155.6827  140.3496  155.4842 H   0  0  0  0  0  0  0  0  0  0  0  0  # atno 8009 bound_to 7997
  155.9537  140.1110  157.0945 H   0  0  0  0  0  0  0  0  0  0  0  0  # atno 8010 bound_to 7997
  139.5915  144.7027  151.3278 H   0  0  0  0  0  0  0  0  0  0  0  0  # atno 10167 bound_to 10162
  156.2094  130.4160  149.9135 H   0  0  0  0  0  0  0  0  0  0  0  0  # atno 10718 bound_to 10713
  154.6415  135.5387  153.7795 H   0  0  0  0  0  0  0  0  0  0  0  0  # atno 10763 bound_to 10752
  153.0336  135.6460  154.1153 H   0  0  0  0  0  0  0  0  0  0  0  0  # atno 10764 bound_to 10752
  154.1076  135.2929  155.3217 H   0  0  0  0  0  0  0  0  0  0  0  0  # atno 10765 bound_to 10752
  140.2825  134.7738  157.3770 H   0  0  0  0  0  0  0  0  0  0  0  0  # atno 11005 bound_to 11000
  145.0343  139.3314  143.6009 LP  0  0  0  0  0  0  0  0  0  0  0  0  # atno 17320 bound_to 7965
  146.3484  139.9692  142.8708 LP  0  0  0  0  0  0  0  0  0  0  0  0  # atno 17321 bound_to 7965
  140.7177  143.7222  150.7687 LP  0  0  0  0  0  0  0  0  0  0  0  0  # atno 17342 bound_to 10162
  140.0778  143.4998  152.2546 LP  0  0  0  0  0  0  0  0  0  0  0  0  # atno 17343 bound_to 10162
  156.6818  130.8861  151.3577 LP  0  0  0  0  0  0  0  0  0  0  0  0  # atno 17370 bound_to 10713
  157.7030  130.9354  150.0844 LP  0  0  0  0  0  0  0  0  0  0  0  0  # atno 17371 bound_to 10713
  140.1270  134.5145  155.8137 LP  0  0  0  0  0  0  0  0  0  0  0  0  # atno 17394 bound_to 11000
  141.2160  133.6776  156.6970 LP  0  0  0  0  0  0  0  0  0  0  0  0  # atno 17395 bound_to 11000

$$$$
