AV-unprocessed.smi:822|AV-procd|sdf|3843|dock6
  -GOLD-   22720 1293D 1   1.00000     0.00000
 Structure written by MMmdl.
 38 39  0  0  0  0  0  0  0  0  1 V2000
  152.1064  138.9811  158.4003 O   0  0  0  0  0  0  0  0  0  0  0  0
  152.1274  140.1869  158.1532 C   0  0  0  0  0  0  0  0  0  0  0  0
  153.0085  141.1290  158.9809 C   0  0  0  0  0  0  0  0  0  0  0  0
  152.2368  142.3071  159.6175 C   0  0  0  0  0  0  0  0  0  0  0  0
  152.0250  143.4367  158.5881 C   0  0  0  0  0  0  0  0  0  0  0  0
  151.2537  144.6225  159.1897 C   0  0  0  0  0  0  0  0  0  0  0  0
  151.9577  145.1649  160.4422 C   0  0  0  0  0  0  0  0  0  0  0  0
  152.1677  144.0529  161.4805 C   0  0  0  0  0  0  0  0  0  0  0  0
  152.9361  142.8648  160.8794 C   0  0  0  0  0  0  0  0  0  0  0  0
  151.4014  140.7515  157.1761 N   0  0  0  0  0  0  0  0  0  0  0  0
  150.5036  140.0337  156.2796 C   0  0  0  0  0  0  0  0  0  0  0  0
  150.2136  140.8439  155.0061 C   0  0  0  0  0  0  0  0  0  0  0  0
  148.8011  140.8393  154.6847 N   0  0  0  0  0  0  0  0  0  0  0  0
  148.1521  140.0169  153.7734 C   0  0  0  0  0  0  0  0  0  0  0  0
  146.8213  140.3674  153.8066 C   0  0  0  0  0  0  0  0  0  0  0  0
  146.6298  141.3956  154.7265 N   0  0  0  0  0  0  0  0  0  0  0  0
  147.8462  141.6216  155.2064 C   0  0  0  0  0  0  0  0  0  0  0  0
  153.5279  140.5658  159.7577 H   0  0  0  0  0  0  0  0  0  0  0  0
  153.7823  141.5150  158.3162 H   0  0  0  0  0  0  0  0  0  0  0  0
  151.2490  141.9486  159.9123 H   0  0  0  0  0  0  0  0  0  0  0  0
  152.9909  143.7836  158.2182 H   0  0  0  0  0  0  0  0  0  0  0  0
  151.4837  143.0554  157.7215 H   0  0  0  0  0  0  0  0  0  0  0  0
  151.1541  145.4151  158.4475 H   0  0  0  0  0  0  0  0  0  0  0  0
  150.2407  144.3090  159.4455 H   0  0  0  0  0  0  0  0  0  0  0  0
  152.9217  145.5928  160.1639 H   0  0  0  0  0  0  0  0  0  0  0  0
  151.3726  145.9757  160.8772 H   0  0  0  0  0  0  0  0  0  0  0  0
  152.7080  144.4467  162.3420 H   0  0  0  0  0  0  0  0  0  0  0  0
  151.2006  143.7118  161.8521 H   0  0  0  0  0  0  0  0  0  0  0  0
  153.0341  142.0886  161.6387 H   0  0  0  0  0  0  0  0  0  0  0  0
  153.9500  143.1794  160.6286 H   0  0  0  0  0  0  0  0  0  0  0  0
  151.4802  141.7492  157.0413 H   0  0  0  0  0  0  0  0  0  0  0  0
  150.9748  139.0857  156.0181 H   0  0  0  0  0  0  0  0  0  0  0  0
  149.5750  139.7855  156.7970 H   0  0  0  0  0  0  0  0  0  0  0  0
  150.5390  141.8787  155.1231 H   0  0  0  0  0  0  0  0  0  0  0  0
  150.7624  140.4321  154.1581 H   0  0  0  0  0  0  0  0  0  0  0  0
  148.6759  139.2710  153.1937 H   0  0  0  0  0  0  0  0  0  0  0  0
  145.9931  139.9614  153.2443 H   0  0  0  0  0  0  0  0  0  0  0  0
  148.0465  142.3727  155.9566 H   0  0  0  0  0  0  0  0  0  0  0  0
  1  2  2  0  0  0  0
  2  3  1  0  0  0  0
  2 10  1  0  0  0  0
  3  4  1  0  0  0  0
  3 18  1  0  0  0  0
  3 19  1  0  0  0  0
  4  9  1  0  0  0  0
  4  5  1  0  0  0  0
  4 20  1  0  0  0  0
  5  6  1  0  0  0  0
  5 21  1  0  0  0  0
  5 22  1  0  0  0  0
  6  7  1  0  0  0  0
  6 23  1  0  0  0  0
  6 24  1  0  0  0  0
  7  8  1  0  0  0  0
  7 25  1  0  0  0  0
  7 26  1  0  0  0  0
  8  9  1  0  0  0  0
  8 27  1  0  0  0  0
  8 28  1  0  0  0  0
  9 29  1  0  0  0  0
  9 30  1  0  0  0  0
 10 11  1  0  0  0  0
 10 31  1  0  0  0  0
 11 12  1  0  0  0  0
 11 32  1  0  0  0  0
 11 33  1  0  0  0  0
 12 13  1  0  0  0  0
 12 34  1  0  0  0  0
 12 35  1  0  0  0  0
 13 17  1  0  0  0  0
 13 14  1  0  0  0  0
 14 15  2  0  0  0  0
 14 36  1  0  0  0  0
 15 16  1  0  0  0  0
 15 37  1  0  0  0  0
 16 17  2  0  0  0  0
 17 38  1  0  0  0  0
M  END
> <s_m_source_file>
AV-unprocessed.smi

> <i_m_source_file_index>
822

> <i_lp_mmshare_version>
43012

> <i_f3d_flags>
0

> <s_epik_input>
W0NIMl0xW0NIMl1bQ0gyXVtDSDJdW0NIMl1bQ0hdMVtDSDJdQyg9TylbTkhdW0NIMl1bQ0gyXW4yW2NIXVtjSF1uW2NIXTI=

> <s_epik_cmdline>
J2VwaWtfcHl0aG9uJywgJy1waCcsICc3LjAnLCAnLXRuJywgJzgnLCAnLW1hJywgJzIwMCcsICctbWV0YWxfYmluZGluZycsICctaW1hZScsICc8aW5maWxlLm1hZT4nLCAnLW9tYWUnLCAnPG91dGZpbGUubWFlPic=

> <r_lp_tautomer_probability>
1

> <r_epik_Ionization_Penalty>
0.600603

> <r_epik_Ionization_Penalty_Charging>
0.600603

> <r_epik_Ionization_Penalty_Neutral>
2.18922e-08

> <r_epik_State_Penalty>
0.614954

> <r_epik_Charging_Adjusted_Penalty>
1.21556

> <i_epik_Tot_Q>
0

> <i_epik_Tot_abs_Q>
0

> <r_epik_Metal_State_Penalty>
0.301281

> <b_epik_Metal_Only>
0

> <s_lp_Force_Field>
OPLS_2005

> <r_lp_Energy>
10.0857

> <b_lp_Chiralities_Consistent>
1

> <s_lp_Variant>
AV-unprocessed.smi:822-2

> <Gold.Version>
5.8.1

> <Gold.Id.Protein>
6NUR|6NUR_protein|mol2

> <Gold.PLP.Fitness>
43.0961

> <Gold.PLP.PLP>
-37.0192

> <Gold.PLP.part.hbond>
0.0000

> <Gold.PLP.part.metal>
0.0000

> <Gold.PLP.part.buried>
-1.4413

> <Gold.PLP.part.nonpolar>
-35.0210

> <Gold.PLP.part.repulsive>
0.2056

> <Gold.PLP.ligand.clash>
0.0000

> <Gold.PLP.ligand.torsion>
1.0441

> <Gold.PLP.Chemscore.Hbond>
0.0000

> <Gold.PLP.Chemscore.CHOScore>
2.7060

> <Gold.PLP.Chemscore.Metal>
0.0000

> <Gold.Chemscore.Hbonds>
donor molecule, donor type, donor heavy atom, donor atom, acceptor molecule, acceptor atom, score
      L1  C    14    36       P1  7957  0.71
      L1  C    15    37       P1 10175  1.00
      L1  C    17    38       P1  8028  0.98

> <Gold.PLP.Chemscore.Internal.Correction>
0.0471

> <Gold.Rescore>
     Score         DG    S(hbond)    S(metal)    S(lipo)     H(rot)  DE(clash)    DE(int)     intcor
     11.41     -12.50       0.00        0.00     103.09       1.97       0.11       0.98       ----

> <Gold.Chemscore.Fitness>
11.4145

> <Gold.Chemscore.DG>
-12.5004

> <Gold.Chemscore.ZeroCoef>
-5.4800

> <Gold.Chemscore.Hbond>
0.0000

> <Gold.Chemscore.Metal>
0.0000

> <Gold.Chemscore.Lipo>
103.0890

> <Gold.Chemscore.Internal_Hbond>
0.0000

> <Gold.Chemscore.DEClash>
0.1064

> <Gold.Chemscore.DEInternal>
0.9795

> <Gold.Chemscore.Rot>
1.9692

> <Gold.Chemscore.Internal.Correction>
   9.000000E+99

> <Gold.Chemscore.Hbond.Weighted>
-0.0000

> <Gold.Chemscore.Metal.Weighted>
-0.0000

> <Gold.Chemscore.Lipo.Weighted>
-12.0614

> <Gold.Chemscore.Internal_Hbond.Weighted>
0.0000

> <Gold.Chemscore.DEClash.Weighted>
0.1064

> <Gold.Chemscore.DEInternal.Weighted>
0.9795

> <Gold.Chemscore.Rot.Weighted>
5.0410

> <Gold.Chemscore.Internal.Correction.Weighted>
   9.000000E+99

> <Gold.Protein.RotatedTorsions>
[ 6907 6896 6895 6894 ] final  -55.34 input  -60.11 | X-H torsion
[ 7974 7965 7964 7962 ] final -169.70 input  175.53 | X-H torsion
[ 8008 7997 7996 7995 ] final  158.72 input   59.86 | X-H torsion
[ 10167 10162 10161 10158 ] final   54.37 input  -65.29 | X-H torsion
[ 10718 10713 10712 10709 ] final   -8.36 input   66.30 | X-H torsion
[ 10763 10752 10751 10750 ] final -162.11 input  -60.55 | X-H torsion
[ 11005 11000 10999 10996 ] final -178.61 input  -57.11 | X-H torsion

> <Gold.Protein.ActiveResidues>
 VAL166  LYS551  ARG553  GLY616  TRP617  ASP618  TYR619  PRO620  LYS621  CYS622 
 ASP623  PHE694  ASN695  SER759  ASP760  ASP761  ALA762  ILE779  LEU786  VAL792 
 PHE793  MET794  SER795  GLU796  ALA797  LYS798  CYS799  TRP800  GLU811  SER814 

> <Gold.Protein.RotatedAtoms>
  150.8260  134.7491  159.6812 H   0  0  0  0  0  0  0  0  0  0  0  0  # atno 6907 bound_to 6896
  152.4370  134.5662  159.9918 H   0  0  0  0  0  0  0  0  0  0  0  0  # atno 6908 bound_to 6896
  151.5835  133.3337  159.3049 H   0  0  0  0  0  0  0  0  0  0  0  0  # atno 6909 bound_to 6896
  144.7181  140.2182  143.6319 H   0  0  0  0  0  0  0  0  0  0  0  0  # atno 7974 bound_to 7965
  156.2284  140.1850  156.7304 H   0  0  0  0  0  0  0  0  0  0  0  0  # atno 8008 bound_to 7997
  154.5981  140.0640  156.9359 H   0  0  0  0  0  0  0  0  0  0  0  0  # atno 8009 bound_to 7997
  155.2221  140.3308  155.4317 H   0  0  0  0  0  0  0  0  0  0  0  0  # atno 8010 bound_to 7997
  140.2308  144.3689  150.6415 H   0  0  0  0  0  0  0  0  0  0  0  0  # atno 10167 bound_to 10162
  156.7037  130.5101  149.5910 H   0  0  0  0  0  0  0  0  0  0  0  0  # atno 10718 bound_to 10713
  154.7244  135.3032  154.8995 H   0  0  0  0  0  0  0  0  0  0  0  0  # atno 10763 bound_to 10752
  153.9857  135.6725  153.4756 H   0  0  0  0  0  0  0  0  0  0  0  0  # atno 10764 bound_to 10752
  153.0862  135.4983  154.8519 H   0  0  0  0  0  0  0  0  0  0  0  0  # atno 10765 bound_to 10752
  140.4279  134.6546  157.4697 H   0  0  0  0  0  0  0  0  0  0  0  0  # atno 11005 bound_to 11000
  145.8526  139.2183  143.1763 LP  0  0  0  0  0  0  0  0  0  0  0  0  # atno 17320 bound_to 7965
  146.0246  140.8315  142.9906 LP  0  0  0  0  0  0  0  0  0  0  0  0  # atno 17321 bound_to 7965
  140.6186  143.2174  151.6740 LP  0  0  0  0  0  0  0  0  0  0  0  0  # atno 17342 bound_to 10162
  139.5111  144.3522  152.0642 LP  0  0  0  0  0  0  0  0  0  0  0  0  # atno 17343 bound_to 10162
  156.1710  130.6437  151.0838 LP  0  0  0  0  0  0  0  0  0  0  0  0  # atno 17370 bound_to 10713
  157.6963  131.0792  150.6958 LP  0  0  0  0  0  0  0  0  0  0  0  0  # atno 17371 bound_to 10713
  140.0155  134.6626  155.9317 LP  0  0  0  0  0  0  0  0  0  0  0  0  # atno 17394 bound_to 11000
  141.1758  133.6540  156.4822 LP  0  0  0  0  0  0  0  0  0  0  0  0  # atno 17395 bound_to 11000

$$$$
