AV-unprocessed.smi:136|AV-procd|sdf|1172|dock5
  -GOLD-   2262018313D 1   1.00000     0.00000
 Structure written by MMmdl.
 54 58  0  0  0  0  0  0  0  0  1 V2000
  149.6508  138.2664  159.7685 O   0  0  0  0  0  0  0  0  0  0  0  0
  150.3155  137.3353  159.3100 C   0  0  0  0  0  0  0  0  0  0  0  0
  151.8477  137.4752  159.1804 C   0  0  0  0  0  0  0  0  0  0  0  0
  152.3439  138.8372  159.4747 N   0  0  0  0  0  0  0  0  0  0  0  0
  153.2456  139.0142  160.5532 C   0  0  0  0  0  0  0  0  0  0  0  0
  153.6206  138.0599  161.2357 O   0  0  0  0  0  0  0  0  0  0  0  0
  153.6816  140.3856  160.7904 C   0  0  0  0  0  0  0  0  0  0  0  0
  154.5535  140.6448  161.7796 F   0  0  0  0  0  0  0  0  0  0  0  0
  153.2257  141.4019  160.0294 C   0  0  0  0  0  0  0  0  0  0  0  0
  152.3261  141.2180  158.9940 N   0  0  0  0  0  0  0  0  0  0  0  0
  151.8232  142.3700  158.1478 C   0  0  1  0  0  0  0  0  0  0  0  0
  150.2929  142.5119  158.2730 C   0  0  0  0  0  0  0  0  0  0  0  0
  150.1180  143.9670  158.6616 C   0  0  0  0  0  0  0  0  0  0  0  0
  151.4199  144.2590  159.3917 C   0  0  0  0  0  0  0  0  0  0  0  0
  152.3795  143.5717  158.6001 O   0  0  0  0  0  0  0  0  0  0  0  0
  151.8730  139.9159  158.6890 C   0  0  0  0  0  0  0  0  0  0  0  0
  151.0799  139.7291  157.7634 O   0  0  0  0  0  0  0  0  0  0  0  0
  149.7424  136.1805  158.9037 N   0  0  0  0  0  0  0  0  0  0  0  0
  150.4328  135.1812  158.2994 N   0  0  0  0  0  0  0  0  0  0  0  0
  149.6219  134.2700  157.9071 C   0  0  0  0  0  0  0  0  0  0  0  0
  150.0297  133.0305  157.2095 C   0  0  0  0  0  0  0  0  0  0  0  0
  151.4036  132.7676  157.0075 C   0  0  0  0  0  0  0  0  0  0  0  0
  151.7929  131.5883  156.3429 C   0  0  0  0  0  0  0  0  0  0  0  0
  150.8184  130.6797  155.8832 C   0  0  0  0  0  0  0  0  0  0  0  0
  151.3018  129.2374  155.0690 Cl  0  0  0  0  0  0  0  0  0  0  0  0
  149.4498  130.9473  156.0870 C   0  0  0  0  0  0  0  0  0  0  0  0
  149.0482  132.1236  156.7500 C   0  0  0  0  0  0  0  0  0  0  0  0
  148.1931  134.5591  158.2229 C   0  0  0  0  0  0  0  0  0  0  0  0
  148.3036  135.8935  158.9652 C   0  0  1  0  0  0  0  0  0  0  0  0
  147.7719  135.8293  160.3667 C   0  0  0  0  0  0  0  0  0  0  0  0
  147.2761  134.8132  161.1360 C   0  0  0  0  0  0  0  0  0  0  0  0
  146.9472  135.3863  162.3955 C   0  0  0  0  0  0  0  0  0  0  0  0
  147.2727  136.7095  162.3037 C   0  0  0  0  0  0  0  0  0  0  0  0
  147.7812  136.9954  161.0749 O   0  0  0  0  0  0  0  0  0  0  0  0
  152.3206  136.7417  159.8354 H   0  0  0  0  0  0  0  0  0  0  0  0
  152.1476  137.1679  158.1772 H   0  0  0  0  0  0  0  0  0  0  0  0
  153.5924  142.3913  160.2557 H   0  0  0  0  0  0  0  0  0  0  0  0
  152.1729  142.1622  157.1351 H   0  0  0  0  0  0  0  0  0  0  0  0
  149.7996  142.2579  157.3344 H   0  0  0  0  0  0  0  0  0  0  0  0
  149.9136  141.8590  159.0607 H   0  0  0  0  0  0  0  0  0  0  0  0
  150.0440  144.5884  157.7682 H   0  0  0  0  0  0  0  0  0  0  0  0
  149.2345  144.1425  159.2760 H   0  0  0  0  0  0  0  0  0  0  0  0
  151.6399  145.3246  159.4551 H   0  0  0  0  0  0  0  0  0  0  0  0
  151.3996  143.8488  160.4021 H   0  0  0  0  0  0  0  0  0  0  0  0
  152.1659  133.4507  157.3536 H   0  0  0  0  0  0  0  0  0  0  0  0
  152.8414  131.3818  156.1864 H   0  0  0  0  0  0  0  0  0  0  0  0
  148.7047  130.2494  155.7337 H   0  0  0  0  0  0  0  0  0  0  0  0
  147.9935  132.3065  156.8920 H   0  0  0  0  0  0  0  0  0  0  0  0
  147.5987  134.6555  157.3136 H   0  0  0  0  0  0  0  0  0  0  0  0
  147.7604  133.7730  158.8437 H   0  0  0  0  0  0  0  0  0  0  0  0
  147.7685  136.6646  158.4081 H   0  0  0  0  0  0  0  0  0  0  0  0
  147.1617  133.7844  160.8282 H   0  0  0  0  0  0  0  0  0  0  0  0
  146.5272  134.8933  163.2597 H   0  0  0  0  0  0  0  0  0  0  0  0
  147.2126  137.5464  162.9838 H   0  0  0  0  0  0  0  0  0  0  0  0
  1  2  2  0  0  0  0
  2  3  1  0  0  0  0
  2 18  1  0  0  0  0
  3  4  1  0  0  0  0
  3 35  1  0  0  0  0
  3 36  1  0  0  0  0
  4 16  1  0  0  0  0
  4  5  1  0  0  0  0
  5  6  2  0  0  0  0
  5  7  1  0  0  0  0
  7  8  1  0  0  0  0
  7  9  2  0  0  0  0
  9 10  1  0  0  0  0
  9 37  1  0  0  0  0
 10 11  1  0  0  0  0
 10 16  1  0  0  0  0
 11 15  1  0  0  0  0
 11 12  1  0  0  0  0
 11 38  1  0  0  0  0
 12 13  1  0  0  0  0
 12 39  1  0  0  0  0
 12 40  1  0  0  0  0
 13 14  1  0  0  0  0
 13 41  1  0  0  0  0
 13 42  1  0  0  0  0
 14 15  1  0  0  0  0
 14 43  1  0  0  0  0
 14 44  1  0  0  0  0
 16 17  2  0  0  0  0
 18 29  1  0  0  0  0
 18 19  1  0  0  0  0
 19 20  2  0  0  0  0
 20 21  1  0  0  0  0
 20 28  1  0  0  0  0
 21 27  1  0  0  0  0
 21 22  2  0  0  0  0
 22 23  1  0  0  0  0
 22 45  1  0  0  0  0
 23 24  2  0  0  0  0
 23 46  1  0  0  0  0
 24 25  1  0  0  0  0
 24 26  1  0  0  0  0
 26 27  2  0  0  0  0
 26 47  1  0  0  0  0
 27 48  1  0  0  0  0
 28 29  1  0  0  0  0
 28 49  1  0  0  0  0
 28 50  1  0  0  0  0
 29 30  1  0  0  0  0
 29 51  1  0  0  0  0
 30 34  1  0  0  0  0
 30 31  2  0  0  0  0
 31 32  1  0  0  0  0
 31 52  1  0  0  0  0
 32 33  2  0  0  0  0
 32 53  1  0  0  0  0
 33 34  1  0  0  0  0
 33 54  1  0  0  0  0
M  END
> <s_m_source_file>
AV-unprocessed.smi

> <i_m_source_file_index>
136

> <i_lp_mmshare_version>
43012

> <i_f3d_flags>
0

> <s_epik_input>
bzFbY0hdW2NIXVtjSF1jMVtDQEBIXTJbQ0gyXUMoYzNbY0hdW2NIXWMoQ2wpW2NIXVtjSF0zKT1OTjJDKD1PKVtDSDJdbjRjKD1PKWMoRilbY0hdbihjND1PKVtDQEBIXTVbQ0gyXVtDSDJdW0NIMl1PNQ==

> <s_epik_cmdline>
J2VwaWtfcHl0aG9uJywgJy1waCcsICc3LjAnLCAnLXRuJywgJzgnLCAnLW1hJywgJzIwMCcsICctbWV0YWxfYmluZGluZycsICctaW1hZScsICc8aW5maWxlLm1hZT4nLCAnLW9tYWUnLCAnPG91dGZpbGUubWFlPic=

> <r_lp_tautomer_probability>
1

> <r_epik_Ionization_Penalty>
2.55467e-08

> <r_epik_Ionization_Penalty_Charging>
4.85705e-09

> <r_epik_Ionization_Penalty_Neutral>
2.06897e-08

> <r_epik_State_Penalty>
-0

> <r_epik_Charging_Adjusted_Penalty>
4.85705e-09

> <i_epik_Tot_Q>
0

> <i_epik_Tot_abs_Q>
0

> <r_epik_Metal_State_Penalty>
-0

> <b_epik_Metal_Only>
0

> <s_epik_Chemistry_Notes>
This compound has an imine and may undergo hydrolysis. This compound contains an acetal/aminal-like group ( X-CH(R)-Y where X, Y are N, S, or O) that may be acid/base labile, releasing an aldehyde.

> <s_lp_Force_Field>
OPLS_2005

> <r_lp_Energy>
41.711

> <b_lp_Chiralities_Consistent>
1

> <s_lp_Variant>
AV-unprocessed.smi:136-2

> <Gold.Version>
5.8.1

> <Gold.Id.Protein>
6NUR|6NUR_protein|mol2

> <Gold.PLP.Fitness>
56.3168

> <Gold.PLP.PLP>
-50.8538

> <Gold.PLP.part.hbond>
-4.5131

> <Gold.PLP.part.metal>
0.0000

> <Gold.PLP.part.buried>
-4.0013

> <Gold.PLP.part.nonpolar>
-43.9338

> <Gold.PLP.part.repulsive>
0.0048

> <Gold.PLP.ligand.clash>
0.0000

> <Gold.PLP.ligand.torsion>
0.1398

> <Gold.PLP.Chemscore.Hbond>
1.8904

> <Gold.PLP.Chemscore.CHOScore>
0.0000

> <Gold.PLP.Chemscore.Metal>
0.0000

> <Gold.Chemscore.Hbonds>
donor molecule, donor type, donor heavy atom, donor atom, acceptor molecule, acceptor atom, score
      P1  H  6896  6909       L1    19  0.09
      P1  H  6931  6943       L1    34  0.50
      P1  H  6934  6947       L1    34  0.65

> <Gold.PLP.Chemscore.Internal.Correction>
0.0714

> <Gold.Rescore>
     Score         DG    S(hbond)    S(metal)    S(lipo)     H(rot)  DE(clash)    DE(int)     intcor
     12.44     -16.90       0.62        0.00     119.40       1.81       1.32       3.14       ----

> <Gold.Chemscore.Fitness>
12.4409

> <Gold.Chemscore.DG>
-16.8993

> <Gold.Chemscore.ZeroCoef>
-5.4800

> <Gold.Chemscore.Hbond>
0.6202

> <Gold.Chemscore.Metal>
0.0000

> <Gold.Chemscore.Lipo>
119.4034

> <Gold.Chemscore.Internal_Hbond>
0.0000

> <Gold.Chemscore.DEClash>
1.3214

> <Gold.Chemscore.DEInternal>
3.1369

> <Gold.Chemscore.Rot>
1.8056

> <Gold.Chemscore.Internal.Correction>
   9.000000E+99

> <Gold.Chemscore.Hbonds>
donor molecule, donor type, donor heavy atom, donor atom, acceptor molecule, acceptor atom, score
      P1  H  6931  6943       L1    34  0.02
      P1  H  6934  6947       L1    34  0.14

> <Gold.Chemscore.Hbond.Weighted>
-2.0714

> <Gold.Chemscore.Metal.Weighted>
-0.0000

> <Gold.Chemscore.Lipo.Weighted>
-13.9702

> <Gold.Chemscore.Internal_Hbond.Weighted>
0.0000

> <Gold.Chemscore.DEClash.Weighted>
1.3214

> <Gold.Chemscore.DEInternal.Weighted>
3.1369

> <Gold.Chemscore.Rot.Weighted>
4.6223

> <Gold.Chemscore.Internal.Correction.Weighted>
   9.000000E+99

> <Gold.Protein.RotatedTorsions>
[ 6907 6896 6895 6894 ] final   29.25 input  -60.11 | X-H torsion
[ 7974 7965 7964 7962 ] final   -2.44 input  175.53 | X-H torsion
[ 8008 7997 7996 7995 ] final  -64.57 input   59.86 | X-H torsion
[ 10167 10162 10161 10158 ] final  -11.80 input  -65.29 | X-H torsion
[ 10718 10713 10712 10709 ] final  -45.32 input   66.30 | X-H torsion
[ 10763 10752 10751 10750 ] final   48.45 input  -60.55 | X-H torsion
[ 11005 11000 10999 10996 ] final  -43.96 input  -57.11 | X-H torsion

> <Gold.Protein.ActiveResidues>
 VAL166  LYS551  ARG553  GLY616  TRP617  ASP618  TYR619  PRO620  LYS621  CYS622 
 ASP623  PHE694  ASN695  SER759  ASP760  ASP761  ALA762  ILE779  LEU786  VAL792 
 PHE793  MET794  SER795  GLU796  ALA797  LYS798  CYS799  TRP800  GLU811  SER814 

> <Gold.Protein.RotatedAtoms>
  152.0288  134.9780  160.0571 H   0  0  0  0  0  0  0  0  0  0  0  0  # atno 6907 bound_to 6896
  152.1265  133.4378  159.4708 H   0  0  0  0  0  0  0  0  0  0  0  0  # atno 6908 bound_to 6896
  150.6853  134.2391  159.4508 H   0  0  0  0  0  0  0  0  0  0  0  0  # atno 6909 bound_to 6896
  146.2404  140.1571  142.8333 H   0  0  0  0  0  0  0  0  0  0  0  0  # atno 7974 bound_to 7965
  154.4620  140.0951  156.6918 H   0  0  0  0  0  0  0  0  0  0  0  0  # atno 8008 bound_to 7997
  155.4968  140.3472  155.4346 H   0  0  0  0  0  0  0  0  0  0  0  0  # atno 8009 bound_to 7997
  156.0887  140.1391  156.9609 H   0  0  0  0  0  0  0  0  0  0  0  0  # atno 8010 bound_to 7997
  140.7147  143.5601  150.9205 H   0  0  0  0  0  0  0  0  0  0  0  0  # atno 10167 bound_to 10162
  156.2295  130.4171  149.8892 H   0  0  0  0  0  0  0  0  0  0  0  0  # atno 10718 bound_to 10713
  152.9792  135.5944  154.3928 H   0  0  0  0  0  0  0  0  0  0  0  0  # atno 10763 bound_to 10752
  154.3582  135.2767  155.2337 H   0  0  0  0  0  0  0  0  0  0  0  0  # atno 10764 bound_to 10752
  154.4346  135.6028  153.6145 H   0  0  0  0  0  0  0  0  0  0  0  0  # atno 10765 bound_to 10752
  141.0419  133.6777  156.2806 H   0  0  0  0  0  0  0  0  0  0  0  0  # atno 11005 bound_to 11000
  145.0120  140.8722  143.5218 LP  0  0  0  0  0  0  0  0  0  0  0  0  # atno 17320 bound_to 7965
  145.1606  139.2461  143.5393 LP  0  0  0  0  0  0  0  0  0  0  0  0  # atno 17321 bound_to 7965
  139.9326  143.6475  152.3073 LP  0  0  0  0  0  0  0  0  0  0  0  0  # atno 17342 bound_to 10162
  139.6931  144.7644  151.1403 LP  0  0  0  0  0  0  0  0  0  0  0  0  # atno 17343 bound_to 10162
  156.6511  130.8744  151.3531 LP  0  0  0  0  0  0  0  0  0  0  0  0  # atno 17370 bound_to 10713
  157.7126  130.9459  150.1143 LP  0  0  0  0  0  0  0  0  0  0  0  0  # atno 17371 bound_to 10713
  140.6219  134.5352  157.5548 LP  0  0  0  0  0  0  0  0  0  0  0  0  # atno 17394 bound_to 11000
  139.9282  134.8015  156.1007 LP  0  0  0  0  0  0  0  0  0  0  0  0  # atno 17395 bound_to 11000

$$$$
