AV-unprocessed.smi:623|AV-procd|sdf|3097|dock9
  -GOLD-   22720 0 13D 1   1.00000     0.00000
 Structure written by MMmdl.
 44 46  0  0  0  0  0  0  0  0  2 V2000
  145.2615  136.4612  160.1313 C   0  0  0  0  0  0  0  0  0  0  0  0
  145.7288  135.3107  161.0670 C   0  0  0  0  0  0  0  0  0  0  0  0
  144.5737  135.1271  162.0914 C   0  0  0  0  0  0  0  0  0  0  0  0
  146.1345  134.0188  160.3296 C   0  0  2  0  0  0  0  0  0  0  0  0
  146.6502  133.1031  161.4629 C   0  0  0  0  0  0  0  0  0  0  0  0
  147.3396  134.1035  162.4146 C   0  0  0  0  0  0  0  0  0  0  0  0
  147.1483  135.4580  161.6845 C   0  0  2  0  0  0  0  0  0  0  0  0
  147.3560  136.6680  162.6179 C   0  0  0  0  0  0  0  0  0  0  0  0
  148.1143  135.3928  160.4620 C   0  0  2  0  0  0  0  0  0  0  0  0
  148.3815  136.7051  159.8860 N   0  0  0  0  0  0  0  0  0  0  0  0
  149.3594  137.0212  159.0235 C   0  0  0  0  0  0  0  0  0  0  0  0
  150.1887  136.2051  158.6232 O   0  0  0  0  0  0  0  0  0  0  0  0
  149.4100  138.4713  158.5099 C   0  0  0  0  0  0  0  0  0  0  0  0
  150.4736  138.7241  157.5186 N   0  0  0  0  0  0  0  0  0  0  0  0
  150.0743  139.0958  156.2225 C   0  0  0  0  0  0  0  0  0  0  0  0
  150.9682  139.3966  155.2616 C   0  0  0  0  0  0  0  0  0  0  0  0
  152.3858  139.3279  155.5927 C   0  0  0  0  0  0  0  0  0  0  0  0
  153.2167  139.6022  154.7292 O   0  0  0  0  0  0  0  0  0  0  0  0
  152.7237  138.9598  156.8630 N   0  5  0  0  0  0  0  0  0  0  0  0
  151.8035  138.6607  157.8313 C   0  0  0  0  0  0  0  0  0  0  0  0
  152.1299  138.3508  158.9771 O   0  0  0  0  0  0  0  0  0  0  0  0
  147.3696  134.4384  159.5000 C   0  0  0  0  0  0  0  0  0  0  0  0
  144.2851  136.2344  159.7025 H   0  0  0  0  0  0  0  0  0  0  0  0
  145.9132  136.6685  159.2875 H   0  0  0  0  0  0  0  0  0  0  0  0
  145.1577  137.3954  160.6845 H   0  0  0  0  0  0  0  0  0  0  0  0
  144.7363  134.3553  162.8402 H   0  0  0  0  0  0  0  0  0  0  0  0
  143.6459  134.8677  161.5805 H   0  0  0  0  0  0  0  0  0  0  0  0
  144.3902  136.0535  162.6365 H   0  0  0  0  0  0  0  0  0  0  0  0
  145.3458  133.5638  159.7299 H   0  0  0  0  0  0  0  0  0  0  0  0
  145.8327  132.5818  161.9611 H   0  0  0  0  0  0  0  0  0  0  0  0
  147.3400  132.3413  161.0978 H   0  0  0  0  0  0  0  0  0  0  0  0
  146.8666  134.0998  163.3968 H   0  0  0  0  0  0  0  0  0  0  0  0
  148.3894  133.8573  162.5777 H   0  0  0  0  0  0  0  0  0  0  0  0
  148.3826  136.7051  162.9833 H   0  0  0  0  0  0  0  0  0  0  0  0
  146.6992  136.6164  163.4861 H   0  0  0  0  0  0  0  0  0  0  0  0
  147.1520  137.6124  162.1127 H   0  0  0  0  0  0  0  0  0  0  0  0
  149.0754  134.9664  160.7562 H   0  0  0  0  0  0  0  0  0  0  0  0
  147.7563  137.4488  160.1623 H   0  0  0  0  0  0  0  0  0  0  0  0
  148.4326  138.7285  158.0988 H   0  0  0  0  0  0  0  0  0  0  0  0
  149.5389  139.1329  159.3675 H   0  0  0  0  0  0  0  0  0  0  0  0
  149.0063  139.1323  156.0643 H   0  0  0  0  0  0  0  0  0  0  0  0
  150.6445  139.6871  154.2731 H   0  0  0  0  0  0  0  0  0  0  0  0
  147.9872  133.5850  159.2183 H   0  0  0  0  0  0  0  0  0  0  0  0
  147.0766  134.9303  158.5721 H   0  0  0  0  0  0  0  0  0  0  0  0
  1  2  1  0  0  0  0
  1 23  1  0  0  0  0
  1 24  1  0  0  0  0
  1 25  1  0  0  0  0
  2  7  1  0  0  0  0
  2  3  1  0  0  0  0
  2  4  1  0  0  0  0
  3 26  1  0  0  0  0
  3 27  1  0  0  0  0
  3 28  1  0  0  0  0
  4 22  1  0  0  0  0
  4  5  1  0  0  0  0
  4 29  1  0  0  0  0
  5  6  1  0  0  0  0
  5 30  1  0  0  0  0
  5 31  1  0  0  0  0
  6  7  1  0  0  0  0
  6 32  1  0  0  0  0
  6 33  1  0  0  0  0
  7  8  1  0  0  0  0
  7  9  1  0  0  0  0
  8 34  1  0  0  0  0
  8 35  1  0  0  0  0
  8 36  1  0  0  0  0
  9 10  1  0  0  0  0
  9 22  1  0  0  0  0
  9 37  1  0  0  0  0
 10 11  1  0  0  0  0
 10 38  1  0  0  0  0
 11 12  2  0  0  0  0
 11 13  1  0  0  0  0
 13 14  1  0  0  0  0
 13 39  1  0  0  0  0
 13 40  1  0  0  0  0
 14 20  1  0  0  0  0
 14 15  1  0  0  0  0
 15 16  2  0  0  0  0
 15 41  1  0  0  0  0
 16 17  1  0  0  0  0
 16 42  1  0  0  0  0
 17 18  2  0  0  0  0
 17 19  1  0  0  0  0
 19 20  1  0  0  0  0
 20 21  2  0  0  0  0
 22 43  1  0  0  0  0
 22 44  1  0  0  0  0
M  CHG  1  19  -1
M  END
> <s_m_source_file>
AV-unprocessed.smi

> <i_m_source_file_index>
623

> <i_lp_mmshare_version>
43012

> <i_f3d_flags>
0

> <s_epik_input>
W0NIM11bQ0BdMTJDKFtDSDNdKShbQ0gzXSlbQ0BIXShbQ0gyXVtDSDJdMSlbQ0gyXVtDQEBIXTJbTkhdQyg9TylbQ0gyXW4zW2NIXVtjSF1jKD1PKVtuSF1jMz1P

> <s_epik_cmdline>
J2VwaWtfcHl0aG9uJywgJy1waCcsICc3LjAnLCAnLXRuJywgJzgnLCAnLW1hJywgJzIwMCcsICctbWV0YWxfYmluZGluZycsICctaW1hZScsICc8aW5maWxlLm1hZT4nLCAnLW9tYWUnLCAnPG91dGZpbGUubWFlPic=

> <r_lp_tautomer_probability>
0.999537

> <r_epik_Ionization_Penalty>
3.12624

> <r_epik_Ionization_Penalty_Charging>
3.01273e-08

> <r_epik_Ionization_Penalty_Neutral>
3.12624

> <r_epik_State_Penalty>
3.12534

> <r_epik_Charging_Adjusted_Penalty>
3.12534

> <i_epik_Tot_Q>
-1

> <i_epik_Tot_abs_Q>
1

> <r_epik_Metal_State_Penalty>
0.46406

> <b_epik_Metal_Only>
1

> <s_lp_Force_Field>
OPLS_2005

> <r_lp_Energy>
63.0451

> <b_lp_Chiralities_Consistent>
1

> <s_lp_Variant>
AV-unprocessed.smi:623-7

> <Gold.Version>
5.8.1

> <Gold.Id.Protein>
6NUR|6NUR_protein|mol2

> <Gold.PLP.Fitness>
41.3367

> <Gold.PLP.PLP>
-35.4962

> <Gold.PLP.part.hbond>
-3.8292

> <Gold.PLP.part.metal>
0.0000

> <Gold.PLP.part.buried>
-4.3801

> <Gold.PLP.part.nonpolar>
-27.7153

> <Gold.PLP.part.repulsive>
0.2437

> <Gold.PLP.ligand.clash>
0.0000

> <Gold.PLP.ligand.torsion>
0.2538

> <Gold.PLP.Chemscore.Hbond>
2.1115

> <Gold.PLP.Chemscore.CHOScore>
0.0000

> <Gold.PLP.Chemscore.Metal>
0.0000

> <Gold.Chemscore.Hbonds>
donor molecule, donor type, donor heavy atom, donor atom, acceptor molecule, acceptor atom, score
      P1  H  6896  6909       L1    12  1.00
      P1  H  7989  7998       L1    18  0.05
      P1  H  7997  8009       L1    18  1.00

> <Gold.PLP.Chemscore.Internal.Correction>
0.0135

> <Gold.Rescore>
     Score         DG    S(hbond)    S(metal)    S(lipo)     H(rot)  DE(clash)    DE(int)     intcor
     17.42     -17.93       2.18        0.00      79.93       1.63       0.16       0.34       ----

> <Gold.Chemscore.Fitness>
17.4182

> <Gold.Chemscore.DG>
-17.9252

> <Gold.Chemscore.ZeroCoef>
-5.4800

> <Gold.Chemscore.Hbond>
2.1773

> <Gold.Chemscore.Metal>
0.0000

> <Gold.Chemscore.Lipo>
79.9254

> <Gold.Chemscore.Internal_Hbond>
0.0000

> <Gold.Chemscore.DEClash>
0.1631

> <Gold.Chemscore.DEInternal>
0.3439

> <Gold.Chemscore.Rot>
1.6322

> <Gold.Chemscore.Internal.Correction>
   9.000000E+99

> <Gold.Chemscore.Hbonds>
donor molecule, donor type, donor heavy atom, donor atom, acceptor molecule, acceptor atom, score
      P1  H  6896  6909       L1    12  0.96
      P1  H  7997  8009       L1    18  0.45

> <Gold.Chemscore.Hbond.Weighted>
-7.2722

> <Gold.Chemscore.Metal.Weighted>
-0.0000

> <Gold.Chemscore.Lipo.Weighted>
-9.3513

> <Gold.Chemscore.Internal_Hbond.Weighted>
0.0000

> <Gold.Chemscore.DEClash.Weighted>
0.1631

> <Gold.Chemscore.DEInternal.Weighted>
0.3439

> <Gold.Chemscore.Rot.Weighted>
4.1783

> <Gold.Chemscore.Internal.Correction.Weighted>
   9.000000E+99

> <Gold.Protein.RotatedTorsions>
[ 6907 6896 6895 6894 ] final   64.43 input  -60.11 | X-H torsion
[ 7974 7965 7964 7962 ] final -126.70 input  175.53 | X-H torsion
[ 8008 7997 7996 7995 ] final -119.69 input   59.86 | X-H torsion
[ 10167 10162 10161 10158 ] final   42.86 input  -65.29 | X-H torsion
[ 10718 10713 10712 10709 ] final -177.54 input   66.30 | X-H torsion
[ 10763 10752 10751 10750 ] final   78.23 input  -60.55 | X-H torsion
[ 11005 11000 10999 10996 ] final    8.94 input  -57.11 | X-H torsion

> <Gold.Protein.ActiveResidues>
 VAL166  LYS551  ARG553  GLY616  TRP617  ASP618  TYR619  PRO620  LYS621  CYS622 
 ASP623  PHE694  ASN695  SER759  ASP760  ASP761  ALA762  ILE779  LEU786  VAL792 
 PHE793  MET794  SER795  GLU796  ALA797  LYS798  CYS799  TRP800  GLU811  SER814 

> <Gold.Protein.RotatedAtoms>
  152.4330  134.5740  159.9928 H   0  0  0  0  0  0  0  0  0  0  0  0  # atno 6907 bound_to 6896
  151.5858  133.3366  159.3025 H   0  0  0  0  0  0  0  0  0  0  0  0  # atno 6908 bound_to 6896
  150.8225  134.7476  159.6849 H   0  0  0  0  0  0  0  0  0  0  0  0  # atno 6909 bound_to 6896
  144.9845  140.7673  143.4592 H   0  0  0  0  0  0  0  0  0  0  0  0  # atno 7974 bound_to 7965
  155.1197  140.0398  157.2746 H   0  0  0  0  0  0  0  0  0  0  0  0  # atno 8008 bound_to 7997
  154.6623  140.2593  155.7070 H   0  0  0  0  0  0  0  0  0  0  0  0  # atno 8009 bound_to 7997
  156.2624  140.2814  156.1099 H   0  0  0  0  0  0  0  0  0  0  0  0  # atno 8010 bound_to 7997
  140.3502  144.2360  150.6146 H   0  0  0  0  0  0  0  0  0  0  0  0  # atno 10167 bound_to 10162
  156.8310  130.9653  151.3106 H   0  0  0  0  0  0  0  0  0  0  0  0  # atno 10718 bound_to 10713
  153.0859  135.4884  154.8595 H   0  0  0  0  0  0  0  0  0  0  0  0  # atno 10763 bound_to 10752
  154.7209  135.3039  154.9051 H   0  0  0  0  0  0  0  0  0  0  0  0  # atno 10764 bound_to 10752
  153.9715  135.6800  153.4800 H   0  0  0  0  0  0  0  0  0  0  0  0  # atno 10765 bound_to 10752
  140.5314  134.0463  155.7874 H   0  0  0  0  0  0  0  0  0  0  0  0  # atno 11005 bound_to 11000
  145.2373  139.2088  143.5011 LP  0  0  0  0  0  0  0  0  0  0  0  0  # atno 17320 bound_to 7965
  146.3416  140.2261  142.8592 LP  0  0  0  0  0  0  0  0  0  0  0  0  # atno 17321 bound_to 7965
  140.5226  143.2262  151.8364 LP  0  0  0  0  0  0  0  0  0  0  0  0  # atno 17342 bound_to 10162
  139.4827  144.4818  151.9297 LP  0  0  0  0  0  0  0  0  0  0  0  0  # atno 17343 bound_to 10162
  157.6407  130.8803  149.9443 LP  0  0  0  0  0  0  0  0  0  0  0  0  # atno 17370 bound_to 10713
  156.0934  130.3661  150.0351 LP  0  0  0  0  0  0  0  0  0  0  0  0  # atno 17371 bound_to 10713
  141.1279  133.9351  157.2596 LP  0  0  0  0  0  0  0  0  0  0  0  0  # atno 17394 bound_to 11000
  139.9552  135.0167  156.9108 LP  0  0  0  0  0  0  0  0  0  0  0  0  # atno 17395 bound_to 11000

$$$$
