AV-unprocessed.smi:1|AV-procd|sdf|14|dock3
  -GOLD-   2262015103D 1   1.00000     0.00000
 Structure written by MMmdl.
 57 62  0  0  0  0  0  0  0  0  1 V2000
  154.2921  140.5032  159.1030 O   0  0  0  0  0  0  0  0  0  0  0  0
  153.1316  140.6653  159.4899 C   0  0  0  0  0  0  0  0  0  0  0  0
  152.1178  139.7250  159.6198 N   0  0  0  0  0  0  0  0  0  0  0  0
  151.8707  138.8953  158.6516 C   0  0  0  0  0  0  0  0  0  0  0  0
  152.4422  138.7226  157.3845 N   0  0  0  0  0  0  0  0  0  0  0  0
  152.0439  137.7811  156.4239 C   0  0  0  0  0  0  0  0  0  0  0  0
  151.0767  136.9181  156.5814 N   0  0  0  0  0  0  0  0  0  0  0  0
  150.4802  137.0361  157.8301 C   0  0  0  0  0  0  0  0  0  0  0  0
  150.7794  137.9167  158.8481 C   0  0  0  0  0  0  0  0  0  0  0  0
  149.9476  137.7111  159.9435 N   0  0  0  0  0  0  0  0  0  0  0  0
  149.1774  136.7055  159.5384 C   0  0  0  0  0  0  0  0  0  0  0  0
  149.4303  136.2455  158.2993 N   0  0  0  0  0  0  0  0  0  0  0  0
  148.7131  135.1185  157.6218 C   0  0  1  0  0  0  0  0  0  0  0  0
  148.7877  133.9913  158.4381 O   0  0  0  0  0  0  0  0  0  0  0  0
  147.5944  133.2358  158.3067 C   0  0  1  0  0  0  0  0  0  0  0  0
  147.4070  132.3024  159.5094 C   0  0  0  0  0  0  0  0  0  0  0  0
  146.2429  131.5148  159.3159 O   0  0  0  0  0  0  0  0  0  0  0  0
  145.2891  131.4719  160.2672 C   0  0  0  0  0  0  0  0  0  0  0  0
  145.3892  132.0324  161.3605 O   0  0  0  0  0  0  0  0  0  0  0  0
  144.0954  130.6783  159.8556 C   0  0  0  0  0  0  0  0  0  0  0  0
  144.0826  130.0539  158.5864 C   0  0  0  0  0  0  0  0  0  0  0  0
  142.9706  129.2962  158.1706 C   0  0  0  0  0  0  0  0  0  0  0  0
  141.8563  129.1558  159.0180 C   0  0  0  0  0  0  0  0  0  0  0  0
  141.8557  129.7739  160.2822 C   0  0  0  0  0  0  0  0  0  0  0  0
  142.9680  130.5301  160.7006 C   0  0  0  0  0  0  0  0  0  0  0  0
  146.5052  134.2945  158.1264 C   0  0  1  0  0  0  0  0  0  0  0  0
  146.0450  134.7971  159.3689 O   0  0  0  0  0  0  0  0  0  0  0  0
  145.8073  136.4395  159.2016 S   0  0  0  0  0  0  0  0  0  0  0  0
  144.4229  136.6565  158.7543 O   0  0  0  0  0  0  0  0  0  0  0  0
  146.3728  137.1224  160.3747 O   0  0  0  0  0  0  0  0  0  0  0  0
  146.8172  136.6904  157.8947 O   0  0  0  0  0  0  0  0  0  0  0  0
  147.2215  135.4290  157.3768 C   0  0  1  0  0  0  0  0  0  0  0  0
  152.7142  142.0427  159.8903 C   0  0  0  0  0  0  0  0  0  0  0  0
  152.5450  142.3616  161.2545 C   0  0  0  0  0  0  0  0  0  0  0  0
  152.1567  143.6616  161.6330 C   0  0  0  0  0  0  0  0  0  0  0  0
  151.9391  144.6465  160.6499 C   0  0  0  0  0  0  0  0  0  0  0  0
  152.1108  144.3320  159.2878 C   0  0  0  0  0  0  0  0  0  0  0  0
  152.4985  143.0322  158.9076 C   0  0  0  0  0  0  0  0  0  0  0  0
  152.6199  137.8202  155.4982 H   0  0  0  0  0  0  0  0  0  0  0  0
  148.4058  136.2846  160.1661 H   0  0  0  0  0  0  0  0  0  0  0  0
  149.2662  134.9498  156.6968 H   0  0  0  0  0  0  0  0  0  0  0  0
  147.6797  132.6483  157.3908 H   0  0  0  0  0  0  0  0  0  0  0  0
  148.2699  131.6432  159.6105 H   0  0  0  0  0  0  0  0  0  0  0  0
  147.3349  132.8853  160.4289 H   0  0  0  0  0  0  0  0  0  0  0  0
  144.9269  130.1473  157.9184 H   0  0  0  0  0  0  0  0  0  0  0  0
  142.9733  128.8223  157.2000 H   0  0  0  0  0  0  0  0  0  0  0  0
  141.0034  128.5751  158.6986 H   0  0  0  0  0  0  0  0  0  0  0  0
  141.0003  129.6680  160.9329 H   0  0  0  0  0  0  0  0  0  0  0  0
  142.9344  130.9916  161.6767 H   0  0  0  0  0  0  0  0  0  0  0  0
  145.6503  133.9087  157.5699 H   0  0  0  0  0  0  0  0  0  0  0  0
  147.0275  135.3788  156.3049 H   0  0  0  0  0  0  0  0  0  0  0  0
  152.7129  141.6119  162.0144 H   0  0  0  0  0  0  0  0  0  0  0  0
  152.0275  143.9038  162.6776 H   0  0  0  0  0  0  0  0  0  0  0  0
  151.6421  145.6432  160.9415 H   0  0  0  0  0  0  0  0  0  0  0  0
  151.9456  145.0880  158.5342 H   0  0  0  0  0  0  0  0  0  0  0  0
  152.6298  142.7992  157.8608 H   0  0  0  0  0  0  0  0  0  0  0  0
  153.2062  139.3357  157.1393 H   0  0  0  0  0  0  0  0  0  0  0  0
  1  2  2  0  0  0  0
  2  3  1  0  0  0  0
  2 33  1  0  0  0  0
  3  4  2  0  0  0  0
  4  9  1  0  0  0  0
  4  5  1  0  0  0  0
  5  6  1  0  0  0  0
  5 57  1  0  0  0  0
  6  7  2  0  0  0  0
  6 39  1  0  0  0  0
  7  8  1  0  0  0  0
  8 12  1  0  0  0  0
  8  9  2  0  0  0  0
  9 10  1  0  0  0  0
 10 11  2  0  0  0  0
 11 12  1  0  0  0  0
 11 40  1  0  0  0  0
 12 13  1  0  0  0  0
 13 32  1  0  0  0  0
 13 14  1  0  0  0  0
 13 41  1  0  0  0  0
 14 15  1  0  0  0  0
 15 16  1  0  0  0  0
 15 26  1  0  0  0  0
 15 42  1  0  0  0  0
 16 17  1  0  0  0  0
 16 43  1  0  0  0  0
 16 44  1  0  0  0  0
 17 18  1  0  0  0  0
 18 19  2  0  0  0  0
 18 20  1  0  0  0  0
 20 25  1  0  0  0  0
 20 21  2  0  0  0  0
 21 22  1  0  0  0  0
 21 45  1  0  0  0  0
 22 23  2  0  0  0  0
 22 46  1  0  0  0  0
 23 24  1  0  0  0  0
 23 47  1  0  0  0  0
 24 25  2  0  0  0  0
 24 48  1  0  0  0  0
 25 49  1  0  0  0  0
 26 32  1  0  0  0  0
 26 27  1  0  0  0  0
 26 50  1  0  0  0  0
 27 28  1  0  0  0  0
 28 29  2  0  0  0  0
 28 30  2  0  0  0  0
 28 31  1  0  0  0  0
 31 32  1  0  0  0  0
 32 51  1  0  0  0  0
 33 38  1  0  0  0  0
 33 34  2  0  0  0  0
 34 35  1  0  0  0  0
 34 52  1  0  0  0  0
 35 36  2  0  0  0  0
 35 53  1  0  0  0  0
 36 37  1  0  0  0  0
 36 54  1  0  0  0  0
 37 38  2  0  0  0  0
 37 55  1  0  0  0  0
 38 56  1  0  0  0  0
M  END
> <s_m_source_file>
AV-unprocessed.smi

> <i_m_source_file_index>
1

> <i_lp_mmshare_version>
43012

> <i_f3d_flags>
0

> <s_epik_input>
W2NIXTFbY0hdW2NIXVtjSF1bY0hdYzFDKD1PKVtOSF1jKG5bY0hdbjIpYyhjMjMpbltjSF1uM1tDQEBIXShbQ0BIXShbQ0BIXTQ1KU9TKE81KSg9Tyk9TylPW0NASF00W0NIMl1PQyg9TyljNltjSF1bY0hdW2NIXVtjSF1bY0hdNg==

> <s_epik_cmdline>
J2VwaWtfcHl0aG9uJywgJy1waCcsICc3LjAnLCAnLXRuJywgJzgnLCAnLW1hJywgJzIwMCcsICctbWV0YWxfYmluZGluZycsICctaW1hZScsICc8aW5maWxlLm1hZT4nLCAnLW9tYWUnLCAnPG91dGZpbGUubWFlPic=

> <r_epik_Ionization_Penalty>
0.122545

> <r_epik_Ionization_Penalty_Charging>
0.122545

> <r_epik_Ionization_Penalty_Neutral>
7.8935e-16

> <r_epik_State_Penalty>
2.69178

> <r_epik_Charging_Adjusted_Penalty>
2.81433

> <i_epik_Tot_Q>
0

> <i_epik_Tot_abs_Q>
0

> <r_epik_Metal_State_Penalty>
3.02665

> <b_epik_Metal_Only>
0

> <s_epik_Chemistry_Notes>
This compound has an ester and may undergo hydrolysis at high or low pH. This compound contains an acetal/aminal-like group ( X-CH(R)-Y where X, Y are N, S, or O) that may be acid/base labile, releasing an aldehyde.

> <s_lp_Force_Field>
OPLS_2005

> <r_lp_Energy>
60.6373

> <b_lp_Chiralities_Consistent>
1

> <s_lp_Variant>
AV-unprocessed.smi:1-14

> <Gold.Version>
5.8.1

> <Gold.Id.Protein>
6NUR|6NUR_protein|mol2

> <Gold.PLP.Fitness>
51.9061

> <Gold.PLP.PLP>
-47.3861

> <Gold.PLP.part.hbond>
-3.9944

> <Gold.PLP.part.metal>
0.0000

> <Gold.PLP.part.buried>
-4.2282

> <Gold.PLP.part.nonpolar>
-39.3199

> <Gold.PLP.part.repulsive>
0.1630

> <Gold.PLP.ligand.clash>
0.0000

> <Gold.PLP.ligand.torsion>
2.2116

> <Gold.PLP.Chemscore.Hbond>
2.8393

> <Gold.PLP.Chemscore.CHOScore>
0.0000

> <Gold.PLP.Chemscore.Metal>
0.0000

> <Gold.Chemscore.Hbonds>
donor molecule, donor type, donor heavy atom, donor atom, acceptor molecule, acceptor atom, score
      P1  H  6896  6908       L1    14  0.88
      P1  H  6934  6947       L1    30  0.75
      P1  H  7997  8010       L1     1  0.72

> <Gold.PLP.Chemscore.Internal.Correction>
0.4255

> <Gold.Rescore>
     Score         DG    S(hbond)    S(metal)    S(lipo)     H(rot)  DE(clash)    DE(int)     intcor
     15.94     -20.81       2.23        0.00     114.07       2.13       0.48       4.39       ----

> <Gold.Chemscore.Fitness>
15.9353

> <Gold.Chemscore.DG>
-20.8077

> <Gold.Chemscore.ZeroCoef>
-5.4800

> <Gold.Chemscore.Hbond>
2.2283

> <Gold.Chemscore.Metal>
0.0000

> <Gold.Chemscore.Lipo>
114.0742

> <Gold.Chemscore.Internal_Hbond>
0.0000

> <Gold.Chemscore.DEClash>
0.4819

> <Gold.Chemscore.DEInternal>
4.3905

> <Gold.Chemscore.Rot>
2.1333

> <Gold.Chemscore.Internal.Correction>
   9.000000E+99

> <Gold.Chemscore.Hbonds>
donor molecule, donor type, donor heavy atom, donor atom, acceptor molecule, acceptor atom, score
      P1  H  6896  6908       L1    14  0.47
      P1  H  6931  6943       L1    10  0.02
      P1  H  6934  6947       L1    30  0.75
      P1  H  7997  8010       L1     1  0.69

> <Gold.Chemscore.Hbond.Weighted>
-7.4424

> <Gold.Chemscore.Metal.Weighted>
-0.0000

> <Gold.Chemscore.Lipo.Weighted>
-13.3467

> <Gold.Chemscore.Internal_Hbond.Weighted>
0.0000

> <Gold.Chemscore.DEClash.Weighted>
0.4819

> <Gold.Chemscore.DEInternal.Weighted>
4.3905

> <Gold.Chemscore.Rot.Weighted>
5.4614

> <Gold.Chemscore.Internal.Correction.Weighted>
   9.000000E+99

> <Gold.Protein.RotatedTorsions>
[ 6907 6896 6895 6894 ] final  139.83 input  -60.11 | X-H torsion
[ 7974 7965 7964 7962 ] final   96.21 input  175.53 | X-H torsion
[ 8008 7997 7996 7995 ] final   -1.39 input   59.86 | X-H torsion
[ 10167 10162 10161 10158 ] final   44.19 input  -65.29 | X-H torsion
[ 10718 10713 10712 10709 ] final -127.15 input   66.30 | X-H torsion
[ 10763 10752 10751 10750 ] final  -71.96 input  -60.55 | X-H torsion
[ 11005 11000 10999 10996 ] final  112.78 input  -57.11 | X-H torsion

> <Gold.Protein.ActiveResidues>
 VAL166  LYS551  ARG553  GLY616  TRP617  ASP618  TYR619  PRO620  LYS621  CYS622 
 ASP623  PHE694  ASN695  SER759  ASP760  ASP761  ALA762  ILE779  LEU786  VAL792 
 PHE793  MET794  SER795  GLU796  ALA797  LYS798  CYS799  TRP800  GLU811  SER814 

> <Gold.Protein.RotatedAtoms>
  152.2502  133.5209  159.5320 H   0  0  0  0  0  0  0  0  0  0  0  0  # atno 6907 bound_to 6896
  150.7091  134.0970  159.3961 H   0  0  0  0  0  0  0  0  0  0  0  0  # atno 6908 bound_to 6896
  151.8890  135.0424  160.0547 H   0  0  0  0  0  0  0  0  0  0  0  0  # atno 6909 bound_to 6896
  145.4419  139.2300  143.3087 H   0  0  0  0  0  0  0  0  0  0  0  0  # atno 7974 bound_to 7965
  154.6473  140.2560  155.7253 H   0  0  0  0  0  0  0  0  0  0  0  0  # atno 8008 bound_to 7997
  156.2558  140.2875  156.0813 H   0  0  0  0  0  0  0  0  0  0  0  0  # atno 8009 bound_to 7997
  155.1504  140.0382  157.2810 H   0  0  0  0  0  0  0  0  0  0  0  0  # atno 8010 bound_to 7997
  140.3368  144.2520  150.6160 H   0  0  0  0  0  0  0  0  0  0  0  0  # atno 10167 bound_to 10162
  156.1830  130.6745  151.0329 H   0  0  0  0  0  0  0  0  0  0  0  0  # atno 10718 bound_to 10713
  154.4390  135.5945  153.6117 H   0  0  0  0  0  0  0  0  0  0  0  0  # atno 10763 bound_to 10752
  152.9804  135.5993  154.3746 H   0  0  0  0  0  0  0  0  0  0  0  0  # atno 10764 bound_to 10752
  154.3593  135.2841  155.2307 H   0  0  0  0  0  0  0  0  0  0  0  0  # atno 10765 bound_to 10752
  139.8936  134.9537  156.6638 H   0  0  0  0  0  0  0  0  0  0  0  0  # atno 11005 bound_to 11000
  146.2551  140.5168  142.8877 LP  0  0  0  0  0  0  0  0  0  0  0  0  # atno 17320 bound_to 7965
  144.8116  140.6395  143.6411 LP  0  0  0  0  0  0  0  0  0  0  0  0  # atno 17321 bound_to 7965
  140.5346  143.2236  151.8183 LP  0  0  0  0  0  0  0  0  0  0  0  0  # atno 17342 bound_to 10162
  139.4847  144.4677  151.9463 LP  0  0  0  0  0  0  0  0  0  0  0  0  # atno 17343 bound_to 10162
  157.6881  131.0818  150.7186 LP  0  0  0  0  0  0  0  0  0  0  0  0  # atno 17370 bound_to 10713
  156.7243  130.4690  149.5515 LP  0  0  0  0  0  0  0  0  0  0  0  0  # atno 17371 bound_to 10713
  140.7426  133.8965  155.8289 LP  0  0  0  0  0  0  0  0  0  0  0  0  # atno 17394 bound_to 11000
  141.0065  134.1079  157.4265 LP  0  0  0  0  0  0  0  0  0  0  0  0  # atno 17395 bound_to 11000

$$$$
