AV-unprocessed.smi:1022|AV-procd|sdf|4459|dock3
  -GOLD-   22720 2433D 1   1.00000     0.00000
 Structure written by MMmdl.
 33 34  0  0  0  0  0  0  0  0  1 V2000
  146.1936  133.8619  150.9305 C   0  0  0  0  0  0  0  0  0  0  0  0
  145.9604  134.8888  151.8784 O   0  0  0  0  0  0  0  0  0  0  0  0
  145.2957  136.0084  151.3153 C   0  0  0  0  0  0  0  0  0  0  0  0
  145.3985  137.2019  152.2774 C   0  0  1  0  0  0  0  0  0  0  0  0
  144.5969  136.9554  153.5659 C   0  0  0  0  0  0  0  0  0  0  0  0
  146.8022  137.4528  152.5954 N   0  0  0  0  0  0  0  0  0  0  0  0
  147.2530  138.4277  153.3981 C   0  0  0  0  0  0  0  0  0  0  0  0
  146.5155  139.2250  153.9784 O   0  0  0  0  0  0  0  0  0  0  0  0
  148.5953  138.4107  153.4765 N   0  0  0  0  0  0  0  0  0  0  0  0
  149.4435  139.2635  154.2316 C   0  0  0  0  0  0  0  0  0  0  0  0
  150.7722  139.1097  154.3133 N   0  0  0  0  0  0  0  0  0  0  0  0
  151.3584  140.0830  155.1104 N   0  0  0  0  0  0  0  0  0  0  0  0
  150.4595  140.9402  155.6093 C   0  0  0  0  0  0  0  0  0  0  0  0
  150.8489  142.0758  156.4960 C   0  0  0  0  0  0  0  0  0  0  0  0
  151.6122  141.8309  157.7777 C   0  0  0  0  0  0  0  0  0  0  0  0
  150.1805  142.2991  157.8351 C   0  0  0  0  0  0  0  0  0  0  0  0
  148.7944  140.6229  155.1322 S   0  0  0  0  0  0  0  0  0  0  0  0
  146.7035  133.0277  151.4122 H   0  0  0  0  0  0  0  0  0  0  0  0
  146.8234  134.2142  150.1125 H   0  0  0  0  0  0  0  0  0  0  0  0
  145.2564  133.4883  150.5154 H   0  0  0  0  0  0  0  0  0  0  0  0
  145.7593  136.2607  150.3601 H   0  0  0  0  0  0  0  0  0  0  0  0
  144.2496  135.7688  151.1162 H   0  0  0  0  0  0  0  0  0  0  0  0
  144.9816  138.0766  151.7744 H   0  0  0  0  0  0  0  0  0  0  0  0
  143.5450  136.7748  153.3435 H   0  0  0  0  0  0  0  0  0  0  0  0
  144.6454  137.8153  154.2347 H   0  0  0  0  0  0  0  0  0  0  0  0
  144.9755  136.0892  154.1094 H   0  0  0  0  0  0  0  0  0  0  0  0
  147.4796  136.8468  152.1559 H   0  0  0  0  0  0  0  0  0  0  0  0
  149.0662  137.7018  152.9340 H   0  0  0  0  0  0  0  0  0  0  0  0
  151.1101  142.9522  155.9058 H   0  0  0  0  0  0  0  0  0  0  0  0
  151.8145  140.7983  158.0566 H   0  0  0  0  0  0  0  0  0  0  0  0
  152.3870  142.5469  158.0444 H   0  0  0  0  0  0  0  0  0  0  0  0
  150.0000  143.3283  158.1388 H   0  0  0  0  0  0  0  0  0  0  0  0
  149.4360  141.5782  158.1672 H   0  0  0  0  0  0  0  0  0  0  0  0
  1  2  1  0  0  0  0
  1 18  1  0  0  0  0
  1 19  1  0  0  0  0
  1 20  1  0  0  0  0
  2  3  1  0  0  0  0
  3  4  1  0  0  0  0
  3 21  1  0  0  0  0
  3 22  1  0  0  0  0
  4  5  1  0  0  0  0
  4  6  1  0  0  0  0
  4 23  1  0  0  0  0
  5 24  1  0  0  0  0
  5 25  1  0  0  0  0
  5 26  1  0  0  0  0
  6  7  1  0  0  0  0
  6 27  1  0  0  0  0
  7  8  2  0  0  0  0
  7  9  1  0  0  0  0
  9 10  1  0  0  0  0
  9 28  1  0  0  0  0
 10 17  1  0  0  0  0
 10 11  2  0  0  0  0
 11 12  1  0  0  0  0
 12 13  2  0  0  0  0
 13 14  1  0  0  0  0
 13 17  1  0  0  0  0
 14 16  1  0  0  0  0
 14 15  1  0  0  0  0
 14 29  1  0  0  0  0
 15 16  1  0  0  0  0
 15 30  1  0  0  0  0
 15 31  1  0  0  0  0
 16 32  1  0  0  0  0
 16 33  1  0  0  0  0
M  END
> <s_m_source_file>
AV-unprocessed.smi

> <i_m_source_file_index>
1022

> <i_lp_mmshare_version>
43012

> <i_f3d_flags>
0

> <s_epik_input>
W0NIM11PW0NIMl1bQ0BIXShbQ0gzXSlbTkhdQyg9TylbTkhdYzFubmMoczEpW0NIXTJbQ0gyXVtDSDJdMg==

> <s_epik_cmdline>
J2VwaWtfcHl0aG9uJywgJy1waCcsICc3LjAnLCAnLXRuJywgJzgnLCAnLW1hJywgJzIwMCcsICctbWV0YWxfYmluZGluZycsICctaW1hZScsICc8aW5maWxlLm1hZT4nLCAnLW9tYWUnLCAnPG91dGZpbGUubWFlPic=

> <r_lp_tautomer_probability>
1

> <r_epik_Ionization_Penalty>
0.00129266

> <r_epik_Ionization_Penalty_Charging>
0

> <r_epik_Ionization_Penalty_Neutral>
0.00129266

> <r_epik_State_Penalty>
-0

> <r_epik_Charging_Adjusted_Penalty>
0

> <i_epik_Tot_Q>
0

> <i_epik_Tot_abs_Q>
0

> <r_epik_Metal_State_Penalty>
0.30857

> <b_epik_Metal_Only>
0

> <s_lp_Force_Field>
OPLS_2005

> <r_lp_Energy>
1.4297

> <b_lp_Chiralities_Consistent>
1

> <s_lp_Variant>
AV-unprocessed.smi:1022-2

> <Gold.Version>
5.8.1

> <Gold.Id.Protein>
6NUR|6NUR_protein|mol2

> <Gold.PLP.Fitness>
33.1975

> <Gold.PLP.PLP>
-26.9276

> <Gold.PLP.part.hbond>
-4.7692

> <Gold.PLP.part.metal>
0.0000

> <Gold.PLP.part.buried>
-3.6106

> <Gold.PLP.part.nonpolar>
-20.2285

> <Gold.PLP.part.repulsive>
0.5874

> <Gold.PLP.ligand.clash>
0.0000

> <Gold.PLP.ligand.torsion>
0.1517

> <Gold.PLP.Chemscore.Hbond>
2.1425

> <Gold.PLP.Chemscore.CHOScore>
0.0000

> <Gold.PLP.Chemscore.Metal>
0.0000

> <Gold.Chemscore.Hbonds>
donor molecule, donor type, donor heavy atom, donor atom, acceptor molecule, acceptor atom, score
      L1  H     6    27       P1  7948  1.00
      L1  H     9    28       P1  7948  1.00
      P1  H  7989  7998       L1    12  0.10

> <Gold.PLP.Chemscore.Internal.Correction>
0.1459

> <Gold.Rescore>
     Score         DG    S(hbond)    S(metal)    S(lipo)     H(rot)  DE(clash)    DE(int)     intcor
     12.62     -14.16       1.96        0.00      56.09       1.73       0.14       1.40       ----

> <Gold.Chemscore.Fitness>
12.6203

> <Gold.Chemscore.DG>
-14.1579

> <Gold.Chemscore.ZeroCoef>
-5.4800

> <Gold.Chemscore.Hbond>
1.9607

> <Gold.Chemscore.Metal>
0.0000

> <Gold.Chemscore.Lipo>
56.0905

> <Gold.Chemscore.Internal_Hbond>
0.0000

> <Gold.Chemscore.DEClash>
0.1360

> <Gold.Chemscore.DEInternal>
1.4016

> <Gold.Chemscore.Rot>
1.7318

> <Gold.Chemscore.Internal.Correction>
   9.000000E+99

> <Gold.Chemscore.Hbonds>
donor molecule, donor type, donor heavy atom, donor atom, acceptor molecule, acceptor atom, score
      L1  H     6    27       P1  7948  0.98
      L1  H     9    28       P1  7948  0.94

> <Gold.Chemscore.Hbond.Weighted>
-6.5488

> <Gold.Chemscore.Metal.Weighted>
-0.0000

> <Gold.Chemscore.Lipo.Weighted>
-6.5626

> <Gold.Chemscore.Internal_Hbond.Weighted>
0.0000

> <Gold.Chemscore.DEClash.Weighted>
0.1360

> <Gold.Chemscore.DEInternal.Weighted>
1.4016

> <Gold.Chemscore.Rot.Weighted>
4.4335

> <Gold.Chemscore.Internal.Correction.Weighted>
   9.000000E+99

> <Gold.Protein.RotatedTorsions>
[ 6907 6896 6895 6894 ] final   98.44 input  -60.11 | X-H torsion
[ 7974 7965 7964 7962 ] final -174.18 input  175.53 | X-H torsion
[ 8008 7997 7996 7995 ] final   70.12 input   59.86 | X-H torsion
[ 10167 10162 10161 10158 ] final   99.59 input  -65.29 | X-H torsion
[ 10718 10713 10712 10709 ] final   98.77 input   66.30 | X-H torsion
[ 10763 10752 10751 10750 ] final  -81.99 input  -60.55 | X-H torsion
[ 11005 11000 10999 10996 ] final   11.04 input  -57.11 | X-H torsion

> <Gold.Protein.ActiveResidues>
 VAL166  LYS551  ARG553  GLY616  TRP617  ASP618  TYR619  PRO620  LYS621  CYS622 
 ASP623  PHE694  ASN695  SER759  ASP760  ASP761  ALA762  ILE779  LEU786  VAL792 
 PHE793  MET794  SER795  GLU796  ALA797  LYS798  CYS799  TRP800  GLU811  SER814 

> <Gold.Protein.RotatedAtoms>
  152.5409  134.0580  159.8138 H   0  0  0  0  0  0  0  0  0  0  0  0  # atno 6907 bound_to 6896
  151.0711  133.5457  159.2634 H   0  0  0  0  0  0  0  0  0  0  0  0  # atno 6908 bound_to 6896
  151.2320  135.0566  159.9045 H   0  0  0  0  0  0  0  0  0  0  0  0  # atno 6909 bound_to 6896
  144.7133  140.1511  143.6384 H   0  0  0  0  0  0  0  0  0  0  0  0  # atno 7974 bound_to 7965
  155.7340  140.3491  155.5073 H   0  0  0  0  0  0  0  0  0  0  0  0  # atno 8008 bound_to 7997
  155.9156  140.1058  157.1268 H   0  0  0  0  0  0  0  0  0  0  0  0  # atno 8009 bound_to 7997
  154.4062  140.1259  156.4600 H   0  0  0  0  0  0  0  0  0  0  0  0  # atno 8010 bound_to 7997
  139.7604  144.6956  151.0301 H   0  0  0  0  0  0  0  0  0  0  0  0  # atno 10167 bound_to 10162
  157.6889  131.0650  150.4847 H   0  0  0  0  0  0  0  0  0  0  0  0  # atno 10718 bound_to 10713
  154.5703  135.5607  153.7089 H   0  0  0  0  0  0  0  0  0  0  0  0  # atno 10763 bound_to 10752
  153.0046  135.6295  154.2123 H   0  0  0  0  0  0  0  0  0  0  0  0  # atno 10764 bound_to 10752
  154.2062  135.2875  155.2954 H   0  0  0  0  0  0  0  0  0  0  0  0  # atno 10765 bound_to 10752
  140.5077  134.0683  155.7810 H   0  0  0  0  0  0  0  0  0  0  0  0  # atno 11005 bound_to 11000
  145.9116  139.2490  143.1434 LP  0  0  0  0  0  0  0  0  0  0  0  0  # atno 17320 bound_to 7965
  145.9711  140.8759  143.0162 LP  0  0  0  0  0  0  0  0  0  0  0  0  # atno 17321 bound_to 7965
  140.7806  143.4704  151.0154 LP  0  0  0  0  0  0  0  0  0  0  0  0  # atno 17342 bound_to 10162
  139.8390  143.7589  152.3180 LP  0  0  0  0  0  0  0  0  0  0  0  0  # atno 17343 bound_to 10162
  156.5176  130.4154  149.6267 LP  0  0  0  0  0  0  0  0  0  0  0  0  # atno 17370 bound_to 10713
  156.3183  130.7266  151.2173 LP  0  0  0  0  0  0  0  0  0  0  0  0  # atno 17371 bound_to 10713
  141.1402  133.9152  157.2343 LP  0  0  0  0  0  0  0  0  0  0  0  0  # atno 17394 bound_to 11000
  139.9676  135.0137  156.9429 LP  0  0  0  0  0  0  0  0  0  0  0  0  # atno 17395 bound_to 11000

$$$$
