AV-unprocessed.smi:2510|AV-procd|sdf|9883|dock7
  -GOLD-   2272013523D 1   1.00000     0.00000
 Structure written by MMmdl.
 48 49  0  0  0  0  0  0  0  0  1 V2000
  148.7009  138.1872  156.9225 C   0  0  0  0  0  0  0  0  0  0  0  0
  149.5896  137.9197  155.6958 C   0  0  0  0  0  0  0  0  0  0  0  0
  149.4361  138.8836  154.4940 C   0  0  0  0  0  0  0  0  0  0  0  0
  150.4617  138.4279  153.4162 C   0  0  0  0  0  0  0  0  0  0  0  0
  151.9357  138.3586  153.8597 C   0  0  0  0  0  0  0  0  0  0  0  0
  147.9896  139.1456  153.9760 C   0  0  2  0  0  0  0  0  0  0  0  0
  147.6506  138.4229  152.7533 N   0  0  0  0  0  0  0  0  0  0  0  0
  146.4246  137.9810  152.4387 C   0  0  0  0  0  0  0  0  0  0  0  0
  145.4464  138.1343  153.1718 O   0  0  0  0  0  0  0  0  0  0  0  0
  146.3038  137.2663  151.0874 C   0  0  0  0  0  0  0  0  0  0  0  0
  146.0269  135.8009  151.2210 C   0  0  0  0  0  0  0  0  0  0  0  0
  144.9760  135.0371  150.7952 C   0  0  0  0  0  0  0  0  0  0  0  0
  145.2965  133.7190  151.2343 C   0  0  0  0  0  0  0  0  0  0  0  0
  144.5020  132.4604  151.0468 C   0  0  0  0  0  0  0  0  0  0  0  0
  146.4509  133.6684  151.8821 N   0  0  0  0  0  0  0  0  0  0  0  0
  146.8863  134.9417  151.8681 N   0  0  0  0  0  0  0  0  0  0  0  0
  148.3532  140.6156  153.7279 C   0  0  1  0  0  0  0  0  0  0  0  0
  147.2762  141.6793  153.9074 C   0  0  0  0  0  0  0  0  0  0  0  0
  149.4072  140.4030  154.8267 C   0  0  2  0  0  0  0  0  0  0  0  0
  150.6445  141.0584  154.5944 O   0  0  0  0  0  0  0  0  0  0  0  0
  151.5748  140.9073  155.6519 C   0  0  0  0  0  0  0  0  0  0  0  0
  147.7627  135.2065  152.2950 H   0  0  0  0  0  0  0  0  0  0  0  0
  148.9668  137.5104  157.7348 H   0  0  0  0  0  0  0  0  0  0  0  0
  147.6472  138.0163  156.7024 H   0  0  0  0  0  0  0  0  0  0  0  0
  148.8140  139.2027  157.3000 H   0  0  0  0  0  0  0  0  0  0  0  0
  150.6234  137.9407  156.0419 H   0  0  0  0  0  0  0  0  0  0  0  0
  149.4059  136.8924  155.3783 H   0  0  0  0  0  0  0  0  0  0  0  0
  150.1864  137.4424  153.0385 H   0  0  0  0  0  0  0  0  0  0  0  0
  150.4138  139.0861  152.5487 H   0  0  0  0  0  0  0  0  0  0  0  0
  152.5737  138.1127  153.0108 H   0  0  0  0  0  0  0  0  0  0  0  0
  152.0994  137.5858  154.6104 H   0  0  0  0  0  0  0  0  0  0  0  0
  152.2932  139.3023  154.2682 H   0  0  0  0  0  0  0  0  0  0  0  0
  147.2228  139.0715  154.7483 H   0  0  0  0  0  0  0  0  0  0  0  0
  148.4010  138.2536  152.0995 H   0  0  0  0  0  0  0  0  0  0  0  0
  145.5107  137.7417  150.5087 H   0  0  0  0  0  0  0  0  0  0  0  0
  147.2284  137.4135  150.5279 H   0  0  0  0  0  0  0  0  0  0  0  0
  144.1063  135.3708  150.2485 H   0  0  0  0  0  0  0  0  0  0  0  0
  143.5832  132.6530  150.4924 H   0  0  0  0  0  0  0  0  0  0  0  0
  144.2246  132.0244  152.0067 H   0  0  0  0  0  0  0  0  0  0  0  0
  145.0727  131.7144  150.4932 H   0  0  0  0  0  0  0  0  0  0  0  0
  148.8460  140.7272  152.7604 H   0  0  0  0  0  0  0  0  0  0  0  0
  146.8102  141.6120  154.8906 H   0  0  0  0  0  0  0  0  0  0  0  0
  146.4883  141.5697  153.1624 H   0  0  0  0  0  0  0  0  0  0  0  0
  147.6831  142.6842  153.8031 H   0  0  0  0  0  0  0  0  0  0  0  0
  149.0136  140.6049  155.8246 H   0  0  0  0  0  0  0  0  0  0  0  0
  152.5195  141.3730  155.3723 H   0  0  0  0  0  0  0  0  0  0  0  0
  151.7687  139.8553  155.8646 H   0  0  0  0  0  0  0  0  0  0  0  0
  151.2245  141.3927  156.5621 H   0  0  0  0  0  0  0  0  0  0  0  0
  1  2  1  0  0  0  0
  1 23  1  0  0  0  0
  1 24  1  0  0  0  0
  1 25  1  0  0  0  0
  2  3  1  0  0  0  0
  2 26  1  0  0  0  0
  2 27  1  0  0  0  0
  3 19  1  0  0  0  0
  3  4  1  0  0  0  0
  3  6  1  0  0  0  0
  4  5  1  0  0  0  0
  4 28  1  0  0  0  0
  4 29  1  0  0  0  0
  5 30  1  0  0  0  0
  5 31  1  0  0  0  0
  5 32  1  0  0  0  0
  6  7  1  0  0  0  0
  6 17  1  0  0  0  0
  6 33  1  0  0  0  0
  7  8  1  0  0  0  0
  7 34  1  0  0  0  0
  8  9  2  0  0  0  0
  8 10  1  0  0  0  0
 10 35  1  0  0  0  0
 10 36  1  0  0  0  0
 10 11  1  0  0  0  0
 11 16  1  0  0  0  0
 11 12  2  0  0  0  0
 12 13  1  0  0  0  0
 12 37  1  0  0  0  0
 13 14  1  0  0  0  0
 13 15  2  0  0  0  0
 14 38  1  0  0  0  0
 14 39  1  0  0  0  0
 14 40  1  0  0  0  0
 15 16  1  0  0  0  0
 16 22  1  0  0  0  0
 17 18  1  0  0  0  0
 17 19  1  0  0  0  0
 17 41  1  0  0  0  0
 18 42  1  0  0  0  0
 18 43  1  0  0  0  0
 18 44  1  0  0  0  0
 19 20  1  0  0  0  0
 19 45  1  0  0  0  0
 20 21  1  0  0  0  0
 21 46  1  0  0  0  0
 21 47  1  0  0  0  0
 21 48  1  0  0  0  0
M  END
> <s_m_source_file>
AV-unprocessed.smi

> <i_m_source_file_index>
2510

> <i_lp_mmshare_version>
43012

> <i_f3d_flags>
0

> <s_epik_input>
W0NIM11PW0NAQEhdMVtDQEhdKFtDSDNdKVtDQEBIXShDMShbQ0gyXVtDSDNdKVtDSDJdW0NIM10pW05IXUMoPU8pW0NIMl1jMltjSF1jKFtDSDNdKVtuSF1uMg==

> <s_epik_cmdline>
J2VwaWtfcHl0aG9uJywgJy1waCcsICc3LjAnLCAnLXRuJywgJzgnLCAnLW1hJywgJzIwMCcsICctbWV0YWxfYmluZGluZycsICctaW1hZScsICc8aW5maWxlLm1hZT4nLCAnLW9tYWUnLCAnPG91dGZpbGUubWFlPic=

> <r_lp_tautomer_probability>
0.5

> <r_epik_Ionization_Penalty>
0.000134763

> <r_epik_Ionization_Penalty_Charging>
0

> <r_epik_Ionization_Penalty_Neutral>
0.000134763

> <r_epik_State_Penalty>
0.41068

> <r_epik_Charging_Adjusted_Penalty>
0.41068

> <i_epik_Tot_Q>
0

> <i_epik_Tot_abs_Q>
0

> <r_epik_Metal_State_Penalty>
0.410661

> <b_epik_Metal_Only>
0

> <s_lp_Force_Field>
OPLS_2005

> <r_lp_Energy>
25.9976

> <b_lp_Chiralities_Consistent>
1

> <s_lp_Variant>
AV-unprocessed.smi:2510-14

> <Gold.Version>
5.8.1

> <Gold.Id.Protein>
6NUR|6NUR_protein|mol2

> <Gold.PLP.Fitness>
37.6095

> <Gold.PLP.PLP>
-32.1535

> <Gold.PLP.part.hbond>
-3.5829

> <Gold.PLP.part.metal>
0.0000

> <Gold.PLP.part.buried>
1.5943

> <Gold.PLP.part.nonpolar>
-34.5086

> <Gold.PLP.part.repulsive>
3.2765

> <Gold.PLP.ligand.clash>
0.0000

> <Gold.PLP.ligand.torsion>
0.5669

> <Gold.PLP.Chemscore.Hbond>
2.0108

> <Gold.PLP.Chemscore.CHOScore>
0.0000

> <Gold.PLP.Chemscore.Metal>
0.0000

> <Gold.Chemscore.Hbonds>
donor molecule, donor type, donor heavy atom, donor atom, acceptor molecule, acceptor atom, score
      L1  H     7    34       P1  7948  0.30
      L1  H    16    22       P1  7948  0.66
      P1  H  7989  7998       L1    20  0.44

> <Gold.PLP.Chemscore.Internal.Correction>
0.5573

> <Gold.Rescore>
     Score         DG    S(hbond)    S(metal)    S(lipo)     H(rot)  DE(clash)    DE(int)     intcor
     14.14     -18.57       2.52        0.00      79.56       1.81       2.56       1.87       ----

> <Gold.Chemscore.Fitness>
14.1448

> <Gold.Chemscore.DG>
-18.5652

> <Gold.Chemscore.ZeroCoef>
-5.4800

> <Gold.Chemscore.Hbond>
2.5180

> <Gold.Chemscore.Metal>
0.0000

> <Gold.Chemscore.Lipo>
79.5642

> <Gold.Chemscore.Internal_Hbond>
0.0000

> <Gold.Chemscore.DEClash>
2.5552

> <Gold.Chemscore.DEInternal>
1.8652

> <Gold.Chemscore.Rot>
1.8102

> <Gold.Chemscore.Internal.Correction>
   9.000000E+99

> <Gold.Chemscore.Hbonds>
donor molecule, donor type, donor heavy atom, donor atom, acceptor molecule, acceptor atom, score
      L1  H     7    34       P1  7948  0.30
      L1  H    16    22       P1  7948  0.63
      P1  H  7989  7998       L1    20  0.06

> <Gold.Chemscore.Hbond.Weighted>
-8.4103

> <Gold.Chemscore.Metal.Weighted>
-0.0000

> <Gold.Chemscore.Lipo.Weighted>
-9.3090

> <Gold.Chemscore.Internal_Hbond.Weighted>
0.0000

> <Gold.Chemscore.DEClash.Weighted>
2.5552

> <Gold.Chemscore.DEInternal.Weighted>
1.8652

> <Gold.Chemscore.Rot.Weighted>
4.6341

> <Gold.Chemscore.Internal.Correction.Weighted>
   9.000000E+99

> <Gold.Protein.RotatedTorsions>
[ 6907 6896 6895 6894 ] final   86.92 input  -60.11 | X-H torsion
[ 7974 7965 7964 7962 ] final  -39.51 input  175.53 | X-H torsion
[ 8008 7997 7996 7995 ] final -130.73 input   59.86 | X-H torsion
[ 10167 10162 10161 10158 ] final  -95.16 input  -65.29 | X-H torsion
[ 10718 10713 10712 10709 ] final  -69.95 input   66.30 | X-H torsion
[ 10763 10752 10751 10750 ] final  -11.89 input  -60.55 | X-H torsion
[ 11005 11000 10999 10996 ] final  -36.76 input  -57.11 | X-H torsion

> <Gold.Protein.ActiveResidues>
 VAL166  LYS551  ARG553  GLY616  TRP617  ASP618  TYR619  PRO620  LYS621  CYS622 
 ASP623  PHE694  ASN695  SER759  ASP760  ASP761  ALA762  ILE779  LEU786  VAL792 
 PHE793  MET794  SER795  GLU796  ALA797  LYS798  CYS799  TRP800  GLU811  SER814 

> <Gold.Protein.RotatedAtoms>
  152.5402  134.2357  159.8842 H   0  0  0  0  0  0  0  0  0  0  0  0  # atno 6907 bound_to 6896
  151.2327  133.4435  159.2612 H   0  0  0  0  0  0  0  0  0  0  0  0  # atno 6908 bound_to 6896
  151.0701  134.9806  159.8360 H   0  0  0  0  0  0  0  0  0  0  0  0  # atno 6909 bound_to 6896
  146.0390  140.6634  142.9096 H   0  0  0  0  0  0  0  0  0  0  0  0  # atno 7974 bound_to 7965
  155.3005  140.0452  157.3029 H   0  0  0  0  0  0  0  0  0  0  0  0  # atno 8008 bound_to 7997
  154.5489  140.2311  155.8484 H   0  0  0  0  0  0  0  0  0  0  0  0  # atno 8009 bound_to 7997
  156.1949  140.3041  155.9414 H   0  0  0  0  0  0  0  0  0  0  0  0  # atno 8010 bound_to 7997
  140.3070  143.3128  152.0189 H   0  0  0  0  0  0  0  0  0  0  0  0  # atno 10167 bound_to 10162
  156.0431  130.4322  150.2224 H   0  0  0  0  0  0  0  0  0  0  0  0  # atno 10718 bound_to 10713
  153.4905  135.7017  153.5887 H   0  0  0  0  0  0  0  0  0  0  0  0  # atno 10763 bound_to 10752
  153.4062  135.3860  155.2020 H   0  0  0  0  0  0  0  0  0  0  0  0  # atno 10764 bound_to 10752
  154.8717  135.3893  154.4364 H   0  0  0  0  0  0  0  0  0  0  0  0  # atno 10765 bound_to 10752
  140.9900  133.7010  156.1832 H   0  0  0  0  0  0  0  0  0  0  0  0  # atno 11005 bound_to 11000
  144.7065  140.3872  143.7114 LP  0  0  0  0  0  0  0  0  0  0  0  0  # atno 17320 bound_to 7965
  145.6917  139.1640  143.2643 LP  0  0  0  0  0  0  0  0  0  0  0  0  # atno 17321 bound_to 7965
  139.4902  144.6413  151.6870 LP  0  0  0  0  0  0  0  0  0  0  0  0  # atno 17342 bound_to 10162
  140.5602  144.0282  150.6166 LP  0  0  0  0  0  0  0  0  0  0  0  0  # atno 17343 bound_to 10162
  157.0317  131.0009  151.3310 LP  0  0  0  0  0  0  0  0  0  0  0  0  # atno 17370 bound_to 10713
  157.5273  130.8036  149.7876 LP  0  0  0  0  0  0  0  0  0  0  0  0  # atno 17371 bound_to 10713
  140.7055  134.4518  157.5584 LP  0  0  0  0  0  0  0  0  0  0  0  0  # atno 17394 bound_to 11000
  139.8988  134.8606  156.1988 LP  0  0  0  0  0  0  0  0  0  0  0  0  # atno 17395 bound_to 11000

$$$$
