AV-unprocessed.smi:214|AV-procd|sdf|1649|dock9
  -GOLD-   2262020 33D 1   1.00000     0.00000
 Structure written by MMmdl.
 47 50  0  0  0  0  0  0  0  0  1 V2000
  148.1793  140.1968  155.2054 C   0  0  0  0  0  0  0  0  0  0  0  0
  149.5594  140.2708  155.6734 N   0  0  0  0  0  0  0  0  0  0  0  0
  150.2374  141.5717  155.6885 C   0  0  0  0  0  0  0  0  0  0  0  0
  150.8335  141.9144  157.0595 C   0  0  0  0  0  0  0  0  0  0  0  0
  151.5228  141.0979  157.6731 O   0  0  0  0  0  0  0  0  0  0  0  0
  150.5675  143.1457  157.5189 N   0  0  0  0  0  0  0  0  0  0  0  0
  151.0202  143.6827  158.7616 C   0  0  0  0  0  0  0  0  0  0  0  0
  152.0016  144.8339  158.7127 C   0  0  0  0  0  0  0  0  0  0  0  0
  152.4713  143.4691  159.1344 C   0  0  0  0  0  0  0  0  0  0  0  0
  150.2948  139.1764  155.3689 C   0  0  0  0  0  0  0  0  0  0  0  0
  151.3334  139.3448  154.5122 N   0  0  0  0  0  0  0  0  0  0  0  0
  152.0961  138.3031  154.1688 C   0  0  0  0  0  0  0  0  0  0  0  0
  152.0025  137.0334  154.5675 N   0  0  0  0  0  0  0  0  0  0  0  0
  150.9745  136.8627  155.4468 C   0  0  0  0  0  0  0  0  0  0  0  0
  150.0761  137.8715  155.8978 C   0  0  0  0  0  0  0  0  0  0  0  0
  149.1661  137.3248  156.7955 N   0  0  0  0  0  0  0  0  0  0  0  0
  149.4999  136.0650  156.8616 C   0  0  0  0  0  0  0  0  0  0  0  0
  150.5811  135.7020  156.0904 N   0  0  0  0  0  0  0  0  0  0  0  0
  151.1589  134.3706  155.9811 C   0  0  0  0  0  0  0  0  0  0  0  0
  150.2237  133.3197  155.3459 C   0  0  0  0  0  0  0  0  0  0  0  0
  149.8016  133.7428  153.9276 C   0  0  0  0  0  0  0  0  0  0  0  0
  149.0715  134.9530  153.9448 O   0  0  0  0  0  0  0  0  0  0  0  0
  150.6814  131.8598  155.4708 C   0  0  0  0  0  0  0  0  0  0  0  0
  149.3976  131.4435  155.9815 O   0  0  0  0  0  0  0  0  0  0  0  0
  149.0671  132.8262  156.2279 C   0  0  0  0  0  0  0  0  0  0  0  0
  147.6390  139.3962  155.7117 H   0  0  0  0  0  0  0  0  0  0  0  0
  148.1438  140.0109  154.1307 H   0  0  0  0  0  0  0  0  0  0  0  0
  147.6464  141.1276  155.4018 H   0  0  0  0  0  0  0  0  0  0  0  0
  151.0598  141.5929  154.9717 H   0  0  0  0  0  0  0  0  0  0  0  0
  149.5320  142.3493  155.3908 H   0  0  0  0  0  0  0  0  0  0  0  0
  149.9981  143.7503  156.9447 H   0  0  0  0  0  0  0  0  0  0  0  0
  150.3112  143.6979  159.5882 H   0  0  0  0  0  0  0  0  0  0  0  0
  152.3193  145.1933  157.7357 H   0  0  0  0  0  0  0  0  0  0  0  0
  151.9169  145.5968  159.4840 H   0  0  0  0  0  0  0  0  0  0  0  0
  152.7010  143.3199  160.1875 H   0  0  0  0  0  0  0  0  0  0  0  0
  153.1006  142.9175  158.4385 H   0  0  0  0  0  0  0  0  0  0  0  0
  152.8959  138.5180  153.4753 H   0  0  0  0  0  0  0  0  0  0  0  0
  148.9681  135.3619  157.4863 H   0  0  0  0  0  0  0  0  0  0  0  0
  152.0839  134.4489  155.4087 H   0  0  0  0  0  0  0  0  0  0  0  0
  151.4631  134.0582  156.9808 H   0  0  0  0  0  0  0  0  0  0  0  0
  150.6787  133.8934  153.2973 H   0  0  0  0  0  0  0  0  0  0  0  0
  149.2085  132.9718  153.4354 H   0  0  0  0  0  0  0  0  0  0  0  0
  149.2080  135.3973  153.1217 H   0  0  0  0  0  0  0  0  0  0  0  0
  150.9303  131.3860  154.5206 H   0  0  0  0  0  0  0  0  0  0  0  0
  151.4766  131.7062  156.2022 H   0  0  0  0  0  0  0  0  0  0  0  0
  149.1699  133.0759  157.2848 H   0  0  0  0  0  0  0  0  0  0  0  0
  148.0777  133.0975  155.8582 H   0  0  0  0  0  0  0  0  0  0  0  0
  1  2  1  0  0  0  0
  1 26  1  0  0  0  0
  1 27  1  0  0  0  0
  1 28  1  0  0  0  0
  2  3  1  0  0  0  0
  2 10  1  0  0  0  0
  3  4  1  0  0  0  0
  3 29  1  0  0  0  0
  3 30  1  0  0  0  0
  4  5  2  0  0  0  0
  4  6  1  0  0  0  0
  6  7  1  0  0  0  0
  6 31  1  0  0  0  0
  7  9  1  0  0  0  0
  7  8  1  0  0  0  0
  7 32  1  0  0  0  0
  8  9  1  0  0  0  0
  8 33  1  0  0  0  0
  8 34  1  0  0  0  0
  9 35  1  0  0  0  0
  9 36  1  0  0  0  0
 10 15  1  0  0  0  0
 10 11  2  0  0  0  0
 11 12  1  0  0  0  0
 12 13  2  0  0  0  0
 12 37  1  0  0  0  0
 13 14  1  0  0  0  0
 14 18  1  0  0  0  0
 14 15  2  0  0  0  0
 15 16  1  0  0  0  0
 16 17  2  0  0  0  0
 17 18  1  0  0  0  0
 17 38  1  0  0  0  0
 18 19  1  0  0  0  0
 19 20  1  0  0  0  0
 19 39  1  0  0  0  0
 19 40  1  0  0  0  0
 20 25  1  0  0  0  0
 20 21  1  0  0  0  0
 20 23  1  0  0  0  0
 21 22  1  0  0  0  0
 21 41  1  0  0  0  0
 21 42  1  0  0  0  0
 22 43  1  0  0  0  0
 23 24  1  0  0  0  0
 23 44  1  0  0  0  0
 23 45  1  0  0  0  0
 24 25  1  0  0  0  0
 25 46  1  0  0  0  0
 25 47  1  0  0  0  0
M  END
> <s_m_source_file>
AV-unprocessed.smi

> <i_m_source_file_index>
214

> <i_lp_mmshare_version>
43012

> <i_f3d_flags>
0

> <s_epik_input>
W0NIMl0xW0NIMl1bQ0hdMVtOSF1DKD1PKVtDSDJdTihbQ0gzXSljKG5bY0hdbjIpYyhjMjMpbltjSF1uM1tDSDJdQzQoW0NIMl1bT0hdKVtDSDJdT1tDSDJdNA==

> <s_epik_cmdline>
J2VwaWtfcHl0aG9uJywgJy1waCcsICc3LjAnLCAnLXRuJywgJzgnLCAnLW1hJywgJzIwMCcsICctbWV0YWxfYmluZGluZycsICctaW1hZScsICc8aW5maWxlLm1hZT4nLCAnLW9tYWUnLCAnPG91dGZpbGUubWFlPic=

> <r_lp_tautomer_probability>
1

> <r_epik_Ionization_Penalty>
0.000508869

> <r_epik_Ionization_Penalty_Charging>
0

> <r_epik_Ionization_Penalty_Neutral>
0.000508869

> <r_epik_State_Penalty>
0.000243319

> <r_epik_Charging_Adjusted_Penalty>
0.000243319

> <i_epik_Tot_Q>
0

> <i_epik_Tot_abs_Q>
0

> <r_epik_Metal_State_Penalty>
-0

> <b_epik_Metal_Only>
0

> <s_lp_Force_Field>
OPLS_2005

> <r_lp_Energy>
39.3286

> <b_lp_Chiralities_Consistent>
1

> <s_lp_Variant>
AV-unprocessed.smi:214-1

> <Gold.Version>
5.8.1

> <Gold.Id.Protein>
6NUR|6NUR_protein|mol2

> <Gold.PLP.Fitness>
50.3136

> <Gold.PLP.PLP>
-40.1909

> <Gold.PLP.part.hbond>
-4.0000

> <Gold.PLP.part.metal>
0.0000

> <Gold.PLP.part.buried>
-5.9197

> <Gold.PLP.part.nonpolar>
-29.3610

> <Gold.PLP.part.repulsive>
0.2576

> <Gold.PLP.ligand.clash>
0.0000

> <Gold.PLP.ligand.torsion>
1.4750

> <Gold.PLP.Chemscore.Hbond>
4.0000

> <Gold.PLP.Chemscore.CHOScore>
0.0000

> <Gold.PLP.Chemscore.Metal>
0.0000

> <Gold.Chemscore.Hbonds>
donor molecule, donor type, donor heavy atom, donor atom, acceptor molecule, acceptor atom, score
      L1  H     6    31       P1  8028  1.00
      L1  H    22    43       P1  7948  0.82
      P1  H  7989  7998       L1    11  1.00
      P1  H 10752 10764       L1    13  0.94

> <Gold.PLP.Chemscore.Internal.Correction>
1.0727

> <Gold.Rescore>
     Score         DG    S(hbond)    S(metal)    S(lipo)     H(rot)  DE(clash)    DE(int)     intcor
     15.17     -18.76       3.87        0.00      75.45       3.31       0.39       3.20       ----

> <Gold.Chemscore.Fitness>
15.1692

> <Gold.Chemscore.DG>
-18.7596

> <Gold.Chemscore.ZeroCoef>
-5.4800

> <Gold.Chemscore.Hbond>
3.8664

> <Gold.Chemscore.Metal>
0.0000

> <Gold.Chemscore.Lipo>
75.4475

> <Gold.Chemscore.Internal_Hbond>
0.0000

> <Gold.Chemscore.DEClash>
0.3936

> <Gold.Chemscore.DEInternal>
3.1969

> <Gold.Chemscore.Rot>
3.3052

> <Gold.Chemscore.Internal.Correction>
   9.000000E+99

> <Gold.Chemscore.Hbonds>
donor molecule, donor type, donor heavy atom, donor atom, acceptor molecule, acceptor atom, score
      L1  H     6    31       P1  8028  0.98
      L1  H    22    43       P1  7948  0.16
      P1  H  7989  7998       L1    11  0.85
      P1  H 10752 10764       L1    13  0.86

> <Gold.Chemscore.Hbond.Weighted>
-12.9137

> <Gold.Chemscore.Metal.Weighted>
-0.0000

> <Gold.Chemscore.Lipo.Weighted>
-8.8274

> <Gold.Chemscore.Internal_Hbond.Weighted>
0.0000

> <Gold.Chemscore.DEClash.Weighted>
0.3936

> <Gold.Chemscore.DEInternal.Weighted>
3.1969

> <Gold.Chemscore.Rot.Weighted>
8.4614

> <Gold.Chemscore.Internal.Correction.Weighted>
   9.000000E+99

> <Gold.Protein.RotatedTorsions>
[ 6907 6896 6895 6894 ] final -105.40 input  -60.11 | X-H torsion
[ 7974 7965 7964 7962 ] final   88.42 input  175.53 | X-H torsion
[ 8008 7997 7996 7995 ] final  154.63 input   59.86 | X-H torsion
[ 10167 10162 10161 10158 ] final   79.68 input  -65.29 | X-H torsion
[ 10718 10713 10712 10709 ] final  -70.93 input   66.30 | X-H torsion
[ 10763 10752 10751 10750 ] final  -81.60 input  -60.55 | X-H torsion
[ 11005 11000 10999 10996 ] final  111.99 input  -57.11 | X-H torsion

> <Gold.Protein.ActiveResidues>
 VAL166  LYS551  ARG553  GLY616  TRP617  ASP618  TYR619  PRO620  LYS621  CYS622 
 ASP623  PHE694  ASN695  SER759  ASP760  ASP761  ALA762  ILE779  LEU786  VAL792 
 PHE793  MET794  SER795  GLU796  ALA797  LYS798  CYS799  TRP800  GLU811  SER814 

> <Gold.Protein.RotatedAtoms>
  150.7335  134.0131  159.3676 H   0  0  0  0  0  0  0  0  0  0  0  0  # atno 6907 bound_to 6896
  151.8092  135.0684  160.0420 H   0  0  0  0  0  0  0  0  0  0  0  0  # atno 6908 bound_to 6896
  152.3085  133.5691  159.5701 H   0  0  0  0  0  0  0  0  0  0  0  0  # atno 6909 bound_to 6896
  145.5459  139.2292  143.2540 H   0  0  0  0  0  0  0  0  0  0  0  0  # atno 7974 bound_to 7965
  156.2521  140.1961  156.6675 H   0  0  0  0  0  0  0  0  0  0  0  0  # atno 8008 bound_to 7997
  154.6417  140.0582  156.9879 H   0  0  0  0  0  0  0  0  0  0  0  0  # atno 8009 bound_to 7997
  155.1552  140.3255  155.4425 H   0  0  0  0  0  0  0  0  0  0  0  0  # atno 8010 bound_to 7997
  139.9577  144.5982  150.8101 H   0  0  0  0  0  0  0  0  0  0  0  0  # atno 10167 bound_to 10162
  156.0385  130.4341  150.2368 H   0  0  0  0  0  0  0  0  0  0  0  0  # atno 10718 bound_to 10713
  154.5656  135.5620  153.7047 H   0  0  0  0  0  0  0  0  0  0  0  0  # atno 10763 bound_to 10752
  153.0032  135.6284  154.2185 H   0  0  0  0  0  0  0  0  0  0  0  0  # atno 10764 bound_to 10752
  154.2123  135.2873  155.2934 H   0  0  0  0  0  0  0  0  0  0  0  0  # atno 10765 bound_to 10752
  139.8916  134.9520  156.6516 H   0  0  0  0  0  0  0  0  0  0  0  0  # atno 11005 bound_to 11000
  146.1950  140.6280  142.9128 LP  0  0  0  0  0  0  0  0  0  0  0  0  # atno 17320 bound_to 7965
  144.7553  140.5293  143.6773 LP  0  0  0  0  0  0  0  0  0  0  0  0  # atno 17321 bound_to 7965
  140.7563  143.3063  151.2954 LP  0  0  0  0  0  0  0  0  0  0  0  0  # atno 17342 bound_to 10162
  139.6578  144.0244  152.2672 LP  0  0  0  0  0  0  0  0  0  0  0  0  # atno 17343 bound_to 10162
  157.0465  131.0050  151.3267 LP  0  0  0  0  0  0  0  0  0  0  0  0  # atno 17370 bound_to 10713
  157.5171  130.7975  149.7768 LP  0  0  0  0  0  0  0  0  0  0  0  0  # atno 17371 bound_to 10713
  140.7516  133.8893  155.8351 LP  0  0  0  0  0  0  0  0  0  0  0  0  # atno 17394 bound_to 11000
  140.9996  134.1168  157.4330 LP  0  0  0  0  0  0  0  0  0  0  0  0  # atno 17395 bound_to 11000

$$$$
