AV-unprocessed.smi:260|AV-procd|sdf|1977|dock6
  -GOLD-   2262021143D 1   1.00000     0.00000
 Structure written by MMmdl.
 53 56  0  0  0  0  0  0  0  0  1 V2000
  143.3248  136.3060  161.8161 C   0  0  0  0  0  0  0  0  0  0  0  0
  144.6926  135.9078  162.1116 N   0  0  0  0  0  0  0  0  0  0  0  0
  145.7783  136.6400  161.8148 C   0  0  0  0  0  0  0  0  0  0  0  0
  145.6888  137.7347  161.2561 O   0  0  0  0  0  0  0  0  0  0  0  0
  147.1729  136.0684  162.1949 C   0  0  1  0  0  0  0  0  0  0  0  0
  147.8293  136.8514  163.3559 C   0  0  0  0  0  0  0  0  0  0  0  0
  147.0573  134.5650  162.5210 C   0  0  0  0  0  0  0  0  0  0  0  0
  147.1519  133.8532  161.1693 C   0  0  0  0  0  0  0  0  0  0  0  0
  147.9437  134.7403  160.3354 N   0  0  0  0  0  0  0  0  0  0  0  0
  148.1627  134.5262  159.0118 C   0  0  0  0  0  0  0  0  0  0  0  0
  149.0810  135.3040  158.3792 N   0  0  0  0  0  0  0  0  0  0  0  0
  149.3353  135.1378  157.0787 C   0  0  0  0  0  0  0  0  0  0  0  0
  148.7964  134.2624  156.2298 N   0  0  0  0  0  0  0  0  0  0  0  0
  147.8787  133.4713  156.8546 C   0  0  0  0  0  0  0  0  0  0  0  0
  147.5036  133.5311  158.2285 C   0  0  0  0  0  0  0  0  0  0  0  0
  146.5396  132.5611  158.4867 N   0  0  0  0  0  0  0  0  0  0  0  0
  146.3534  131.9709  157.3384 C   0  0  0  0  0  0  0  0  0  0  0  0
  147.1156  132.4574  156.3029 N   0  0  0  0  0  0  0  0  0  0  0  0
  147.1046  131.9914  154.9274 C   0  0  0  0  0  0  0  0  0  0  0  0
  146.5612  133.0540  153.9528 C   0  0  1  0  0  0  0  0  0  0  0  0
  147.4637  134.1424  153.8974 O   0  0  0  0  0  0  0  0  0  0  0  0
  146.3690  132.4948  152.5312 C   0  0  2  0  0  0  0  0  0  0  0  0
  145.5641  133.3983  151.5951 C   0  0  0  0  0  0  0  0  0  0  0  0
  144.9706  132.4318  150.5816 C   0  0  0  0  0  0  0  0  0  0  0  0
  145.1586  131.0553  151.2247 C   0  0  0  0  0  0  0  0  0  0  0  0
  145.5684  131.3229  152.5582 O   0  0  0  0  0  0  0  0  0  0  0  0
  148.1022  136.0505  160.9591 C   0  0  0  0  0  0  0  0  0  0  0  0
  142.6319  135.5372  162.1580 H   0  0  0  0  0  0  0  0  0  0  0  0
  143.1827  136.4406  160.7431 H   0  0  0  0  0  0  0  0  0  0  0  0
  143.0747  137.2398  162.3213 H   0  0  0  0  0  0  0  0  0  0  0  0
  144.8262  135.0180  162.5699 H   0  0  0  0  0  0  0  0  0  0  0  0
  148.8272  136.4695  163.5743 H   0  0  0  0  0  0  0  0  0  0  0  0
  147.2504  136.7696  164.2768 H   0  0  0  0  0  0  0  0  0  0  0  0
  147.9372  137.9100  163.1155 H   0  0  0  0  0  0  0  0  0  0  0  0
  147.8944  134.2536  163.1473 H   0  0  0  0  0  0  0  0  0  0  0  0
  146.1430  134.3052  163.0567 H   0  0  0  0  0  0  0  0  0  0  0  0
  147.6167  132.8720  161.2685 H   0  0  0  0  0  0  0  0  0  0  0  0
  146.1614  133.7255  160.7310 H   0  0  0  0  0  0  0  0  0  0  0  0
  150.0767  135.8012  156.6586 H   0  0  0  0  0  0  0  0  0  0  0  0
  145.6481  131.1621  157.2137 H   0  0  0  0  0  0  0  0  0  0  0  0
  148.1159  131.6938  154.6471 H   0  0  0  0  0  0  0  0  0  0  0  0
  146.4929  131.0896  154.8826 H   0  0  0  0  0  0  0  0  0  0  0  0
  145.6064  133.4284  154.3244 H   0  0  0  0  0  0  0  0  0  0  0  0
  147.6198  134.3567  152.9900 H   0  0  0  0  0  0  0  0  0  0  0  0
  147.3336  132.2539  152.0796 H   0  0  0  0  0  0  0  0  0  0  0  0
  144.7591  133.8892  152.1438 H   0  0  0  0  0  0  0  0  0  0  0  0
  146.1757  134.1736  151.1326 H   0  0  0  0  0  0  0  0  0  0  0  0
  143.9181  132.6549  150.4038 H   0  0  0  0  0  0  0  0  0  0  0  0
  145.4916  132.4839  149.6250 H   0  0  0  0  0  0  0  0  0  0  0  0
  144.2484  130.4555  151.2062 H   0  0  0  0  0  0  0  0  0  0  0  0
  145.9443  130.4973  150.7132 H   0  0  0  0  0  0  0  0  0  0  0  0
  147.8614  136.8615  160.2695 H   0  0  0  0  0  0  0  0  0  0  0  0
  149.1472  136.1694  161.2470 H   0  0  0  0  0  0  0  0  0  0  0  0
  1  2  1  0  0  0  0
  1 28  1  0  0  0  0
  1 29  1  0  0  0  0
  1 30  1  0  0  0  0
  2  3  1  0  0  0  0
  2 31  1  0  0  0  0
  3  4  2  0  0  0  0
  3  5  1  0  0  0  0
  5 27  1  0  0  0  0
  5  6  1  0  0  0  0
  5  7  1  0  0  0  0
  6 32  1  0  0  0  0
  6 33  1  0  0  0  0
  6 34  1  0  0  0  0
  7  8  1  0  0  0  0
  7 35  1  0  0  0  0
  7 36  1  0  0  0  0
  8  9  1  0  0  0  0
  8 37  1  0  0  0  0
  8 38  1  0  0  0  0
  9 10  1  0  0  0  0
  9 27  1  0  0  0  0
 10 15  1  0  0  0  0
 10 11  2  0  0  0  0
 11 12  1  0  0  0  0
 12 13  2  0  0  0  0
 12 39  1  0  0  0  0
 13 14  1  0  0  0  0
 14 18  1  0  0  0  0
 14 15  2  0  0  0  0
 15 16  1  0  0  0  0
 16 17  2  0  0  0  0
 17 18  1  0  0  0  0
 17 40  1  0  0  0  0
 18 19  1  0  0  0  0
 19 20  1  0  0  0  0
 19 41  1  0  0  0  0
 19 42  1  0  0  0  0
 20 21  1  0  0  0  0
 20 22  1  0  0  0  0
 20 43  1  0  0  0  0
 21 44  1  0  0  0  0
 22 26  1  0  0  0  0
 22 23  1  0  0  0  0
 22 45  1  0  0  0  0
 23 24  1  0  0  0  0
 23 46  1  0  0  0  0
 23 47  1  0  0  0  0
 24 25  1  0  0  0  0
 24 48  1  0  0  0  0
 24 49  1  0  0  0  0
 25 26  1  0  0  0  0
 25 50  1  0  0  0  0
 25 51  1  0  0  0  0
 27 52  1  0  0  0  0
 27 53  1  0  0  0  0
M  END
> <s_m_source_file>
AV-unprocessed.smi

> <i_m_source_file_index>
260

> <i_lp_mmshare_version>
43012

> <i_f3d_flags>
0

> <s_epik_input>
W0NIM11bTkhdQyg9TylbQ0BAXTEoW0NIM10pW0NIMl1bQ0gyXU4oW0NIMl0xKWMobltjSF1uMiljKGMyMyluW2NIXW4zW0NIMl1bQ0BIXShbT0hdKVtDQEBIXTRbQ0gyXVtDSDJdW0NIMl1PNA==

> <s_epik_cmdline>
J2VwaWtfcHl0aG9uJywgJy1waCcsICc3LjAnLCAnLXRuJywgJzgnLCAnLW1hJywgJzIwMCcsICctbWV0YWxfYmluZGluZycsICctaW1hZScsICc8aW5maWxlLm1hZT4nLCAnLW9tYWUnLCAnPG91dGZpbGUubWFlPic=

> <r_lp_tautomer_probability>
1

> <r_epik_Ionization_Penalty>
0.00115068

> <r_epik_Ionization_Penalty_Charging>
0

> <r_epik_Ionization_Penalty_Neutral>
0.00115068

> <r_epik_State_Penalty>
0.000668876

> <r_epik_Charging_Adjusted_Penalty>
0.000668876

> <i_epik_Tot_Q>
0

> <i_epik_Tot_abs_Q>
0

> <r_epik_Metal_State_Penalty>
-0

> <b_epik_Metal_Only>
0

> <s_lp_Force_Field>
OPLS_2005

> <r_lp_Energy>
48.4888

> <b_lp_Chiralities_Consistent>
1

> <s_lp_Variant>
AV-unprocessed.smi:260-3

> <Gold.Version>
5.8.1

> <Gold.Id.Protein>
6NUR|6NUR_protein|mol2

> <Gold.PLP.Fitness>
43.8965

> <Gold.PLP.PLP>
-36.6115

> <Gold.PLP.part.hbond>
-3.0000

> <Gold.PLP.part.metal>
0.0000

> <Gold.PLP.part.buried>
-5.5436

> <Gold.PLP.part.nonpolar>
-28.7256

> <Gold.PLP.part.repulsive>
0.1679

> <Gold.PLP.ligand.clash>
0.0003

> <Gold.PLP.ligand.torsion>
0.6936

> <Gold.PLP.Chemscore.Hbond>
2.8240

> <Gold.PLP.Chemscore.CHOScore>
0.0000

> <Gold.PLP.Chemscore.Metal>
0.0000

> <Gold.Chemscore.Hbonds>
donor molecule, donor type, donor heavy atom, donor atom, acceptor molecule, acceptor atom, score
      P1  H  6896  6909       L1    11  0.53
      P1  H  6934  6947       L1     4  0.93

> <Gold.PLP.Chemscore.Internal.Correction>
0.2005

> <Gold.Rescore>
     Score         DG    S(hbond)    S(metal)    S(lipo)     H(rot)  DE(clash)    DE(int)     intcor
     14.42     -16.18       2.37        0.00      79.17       2.53       0.13       1.63       ----

> <Gold.Chemscore.Fitness>
14.4240

> <Gold.Chemscore.DG>
-16.1849

> <Gold.Chemscore.ZeroCoef>
-5.4800

> <Gold.Chemscore.Hbond>
2.3678

> <Gold.Chemscore.Metal>
0.0000

> <Gold.Chemscore.Lipo>
79.1704

> <Gold.Chemscore.Internal_Hbond>
0.0000

> <Gold.Chemscore.DEClash>
0.1279

> <Gold.Chemscore.DEInternal>
1.6330

> <Gold.Chemscore.Rot>
2.5259

> <Gold.Chemscore.Internal.Correction>
   9.000000E+99

> <Gold.Chemscore.Hbonds>
donor molecule, donor type, donor heavy atom, donor atom, acceptor molecule, acceptor atom, score
      P1  H  6896  6909       L1    11  0.05
      P1  H  6934  6947       L1     4  0.89

> <Gold.Chemscore.Hbond.Weighted>
-7.9083

> <Gold.Chemscore.Metal.Weighted>
-0.0000

> <Gold.Chemscore.Lipo.Weighted>
-9.2629

> <Gold.Chemscore.Internal_Hbond.Weighted>
0.0000

> <Gold.Chemscore.DEClash.Weighted>
0.1279

> <Gold.Chemscore.DEInternal.Weighted>
1.6330

> <Gold.Chemscore.Rot.Weighted>
6.4663

> <Gold.Chemscore.Internal.Correction.Weighted>
   9.000000E+99

> <Gold.Protein.RotatedTorsions>
[ 6907 6896 6895 6894 ] final   55.65 input  -60.11 | X-H torsion
[ 7974 7965 7964 7962 ] final   26.39 input  175.53 | X-H torsion
[ 8008 7997 7996 7995 ] final   70.13 input   59.86 | X-H torsion
[ 10167 10162 10161 10158 ] final  -19.87 input  -65.29 | X-H torsion
[ 10718 10713 10712 10709 ] final  -17.53 input   66.30 | X-H torsion
[ 10763 10752 10751 10750 ] final  -65.53 input  -60.55 | X-H torsion
[ 11005 11000 10999 10996 ] final   98.18 input  -57.11 | X-H torsion

> <Gold.Protein.ActiveResidues>
 VAL166  LYS551  ARG553  GLY616  TRP617  ASP618  TYR619  PRO620  LYS621  CYS622 
 ASP623  PHE694  ASN695  SER759  ASP760  ASP761  ALA762  ILE779  LEU786  VAL792 
 PHE793  MET794  SER795  GLU796  ALA797  LYS798  CYS799  TRP800  GLU811  SER814 

> <Gold.Protein.RotatedAtoms>
  152.3559  134.6940  160.0221 H   0  0  0  0  0  0  0  0  0  0  0  0  # atno 6907 bound_to 6896
  151.7279  133.3311  159.3340 H   0  0  0  0  0  0  0  0  0  0  0  0  # atno 6908 bound_to 6896
  150.7571  134.6323  159.6237 H   0  0  0  0  0  0  0  0  0  0  0  0  # atno 6909 bound_to 6896
  146.1840  139.7335  142.8880 H   0  0  0  0  0  0  0  0  0  0  0  0  # atno 7974 bound_to 7965
  155.7341  140.3491  155.5073 H   0  0  0  0  0  0  0  0  0  0  0  0  # atno 8008 bound_to 7997
  155.9155  140.1058  157.1268 H   0  0  0  0  0  0  0  0  0  0  0  0  # atno 8009 bound_to 7997
  154.4062  140.1259  156.4599 H   0  0  0  0  0  0  0  0  0  0  0  0  # atno 8010 bound_to 7997
  140.7272  143.4777  151.0160 H   0  0  0  0  0  0  0  0  0  0  0  0  # atno 10167 bound_to 10162
  156.5723  130.4752  149.6357 H   0  0  0  0  0  0  0  0  0  0  0  0  # atno 10718 bound_to 10713
  154.3464  135.6146  153.5621 H   0  0  0  0  0  0  0  0  0  0  0  0  # atno 10763 bound_to 10752
  152.9801  135.5782  154.4794 H   0  0  0  0  0  0  0  0  0  0  0  0  # atno 10764 bound_to 10752
  154.4507  135.2853  155.1760 H   0  0  0  0  0  0  0  0  0  0  0  0  # atno 10765 bound_to 10752
  139.8773  134.9036  156.4417 H   0  0  0  0  0  0  0  0  0  0  0  0  # atno 11005 bound_to 11000
  145.3993  141.0383  143.3079 LP  0  0  0  0  0  0  0  0  0  0  0  0  # atno 17320 bound_to 7965
  144.8364  139.5543  143.6920 LP  0  0  0  0  0  0  0  0  0  0  0  0  # atno 17321 bound_to 7965
  139.8473  143.7485  152.3179 LP  0  0  0  0  0  0  0  0  0  0  0  0  # atno 17342 bound_to 10162
  139.7654  144.7493  151.0302 LP  0  0  0  0  0  0  0  0  0  0  0  0  # atno 17343 bound_to 10162
  156.2704  130.7014  151.1809 LP  0  0  0  0  0  0  0  0  0  0  0  0  # atno 17370 bound_to 10713
  157.7345  131.0581  150.5518 LP  0  0  0  0  0  0  0  0  0  0  0  0  # atno 17371 bound_to 10713
  140.8994  133.7790  155.9663 LP  0  0  0  0  0  0  0  0  0  0  0  0  # atno 17394 bound_to 11000
  140.8667  134.2776  157.5210 LP  0  0  0  0  0  0  0  0  0  0  0  0  # atno 17395 bound_to 11000

$$$$
