AV-unprocessed.smi:1579|AV-procd|sdf|6355|dock10
  -GOLD-   22720 6573D 1   1.00000     0.00000
 Structure written by MMmdl.
 47 48  0  0  0  0  0  0  0  0  2 V2000
  146.8232  138.2872  157.7711 C   0  0  0  0  0  0  0  0  0  0  0  0
  147.7875  138.7961  156.7338 C   0  0  0  0  0  0  0  0  0  0  0  0
  147.2806  139.1811  155.6085 N   0  0  0  0  0  0  0  0  0  0  0  0
  148.0764  139.6673  154.5907 N   0  0  0  0  0  0  0  0  0  0  0  0
  147.3332  140.0577  153.3864 C   0  0  0  0  0  0  0  0  0  0  0  0
  146.8827  138.8332  152.5596 C   0  0  1  0  0  0  0  0  0  0  0  0
  147.9856  138.3871  151.7946 O   0  0  0  0  0  0  0  0  0  0  0  0
  146.4469  137.6648  153.4672 C   0  0  0  0  0  0  0  0  0  0  0  0
  146.4495  136.3607  152.7556 N   0  3  2  0  0  0  0  0  0  0  0  0
  145.4970  136.3098  151.6146 C   0  0  0  0  0  0  0  0  0  0  0  0
  145.6445  134.9956  150.8298 C   0  0  0  0  0  0  0  0  0  0  0  0
  145.4511  133.7735  151.7435 C   0  0  1  0  0  0  0  0  0  0  0  0
  145.6317  132.4565  150.9760 C   0  0  0  0  0  0  0  0  0  0  0  0
  146.4174  133.8741  152.9358 C   0  0  0  0  0  0  0  0  0  0  0  0
  146.2547  135.2120  153.6768 C   0  0  0  0  0  0  0  0  0  0  0  0
  149.4336  139.7870  154.6547 C   0  0  0  0  0  0  0  0  0  0  0  0
  150.1043  140.2159  153.7143 O   0  0  0  0  0  0  0  0  0  0  0  0
  150.0016  139.3501  155.9318 C   0  0  0  0  0  0  0  0  0  0  0  0
  151.4202  139.4629  156.0435 C   0  0  0  0  0  0  0  0  0  0  0  0
  152.5684  139.5650  156.1501 N   0  0  0  0  0  0  0  0  0  0  0  0
  149.2307  138.8693  156.9391 C   0  0  0  0  0  0  0  0  0  0  0  0
  149.7724  138.4018  158.2832 C   0  0  0  0  0  0  0  0  0  0  0  0
  146.9493  138.8203  158.7136 H   0  0  0  0  0  0  0  0  0  0  0  0
  146.9838  137.2253  157.9586 H   0  0  0  0  0  0  0  0  0  0  0  0
  145.7855  138.4144  157.4593 H   0  0  0  0  0  0  0  0  0  0  0  0
  146.4774  140.6877  153.6382 H   0  0  0  0  0  0  0  0  0  0  0  0
  147.9776  140.6972  152.7803 H   0  0  0  0  0  0  0  0  0  0  0  0
  146.0723  139.1111  151.8869 H   0  0  0  0  0  0  0  0  0  0  0  0
  148.4163  137.6898  152.2665 H   0  0  0  0  0  0  0  0  0  0  0  0
  147.1208  137.6236  154.3247 H   0  0  0  0  0  0  0  0  0  0  0  0
  145.4508  137.8443  153.8747 H   0  0  0  0  0  0  0  0  0  0  0  0
  144.4761  136.4111  151.9860 H   0  0  0  0  0  0  0  0  0  0  0  0
  145.6677  137.1450  150.9365 H   0  0  0  0  0  0  0  0  0  0  0  0
  144.9188  134.9721  150.0159 H   0  0  0  0  0  0  0  0  0  0  0  0
  146.6311  134.9591  150.3652 H   0  0  0  0  0  0  0  0  0  0  0  0
  144.4309  133.7956  152.1299 H   0  0  0  0  0  0  0  0  0  0  0  0
  146.6359  132.3742  150.5586 H   0  0  0  0  0  0  0  0  0  0  0  0
  144.9217  132.3818  150.1520 H   0  0  0  0  0  0  0  0  0  0  0  0
  145.4709  131.5973  151.6277 H   0  0  0  0  0  0  0  0  0  0  0  0
  146.2452  133.0487  153.6276 H   0  0  0  0  0  0  0  0  0  0  0  0
  147.4468  133.7746  152.5879 H   0  0  0  0  0  0  0  0  0  0  0  0
  146.9844  135.2605  154.4861 H   0  0  0  0  0  0  0  0  0  0  0  0
  145.2666  135.2732  154.1355 H   0  0  0  0  0  0  0  0  0  0  0  0
  150.8616  138.3762  158.3019 H   0  0  0  0  0  0  0  0  0  0  0  0
  149.4218  137.3953  158.5138 H   0  0  0  0  0  0  0  0  0  0  0  0
  149.4435  139.0717  159.0782 H   0  0  0  0  0  0  0  0  0  0  0  0
  147.3782  136.2557  152.3721 H   0  0  0  0  0  0  0  0  0  0  0  0
  1  2  1  0  0  0  0
  1 23  1  0  0  0  0
  1 24  1  0  0  0  0
  1 25  1  0  0  0  0
  2 21  1  0  0  0  0
  2  3  2  0  0  0  0
  3  4  1  0  0  0  0
  4  5  1  0  0  0  0
  4 16  1  0  0  0  0
  5  6  1  0  0  0  0
  5 26  1  0  0  0  0
  5 27  1  0  0  0  0
  6  7  1  0  0  0  0
  6  8  1  0  0  0  0
  6 28  1  0  0  0  0
  7 29  1  0  0  0  0
  8  9  1  0  0  0  0
  8 30  1  0  0  0  0
  8 31  1  0  0  0  0
  9 15  1  0  0  0  0
  9 10  1  0  0  0  0
  9 47  1  0  0  0  0
 10 11  1  0  0  0  0
 10 32  1  0  0  0  0
 10 33  1  0  0  0  0
 11 12  1  0  0  0  0
 11 34  1  0  0  0  0
 11 35  1  0  0  0  0
 12 13  1  0  0  0  0
 12 14  1  0  0  0  0
 12 36  1  0  0  0  0
 13 37  1  0  0  0  0
 13 38  1  0  0  0  0
 13 39  1  0  0  0  0
 14 15  1  0  0  0  0
 14 40  1  0  0  0  0
 14 41  1  0  0  0  0
 15 42  1  0  0  0  0
 15 43  1  0  0  0  0
 16 17  2  0  0  0  0
 16 18  1  0  0  0  0
 18 19  1  0  0  0  0
 18 21  2  0  0  0  0
 19 20  3  0  0  0  0
 21 22  1  0  0  0  0
 22 44  1  0  0  0  0
 22 45  1  0  0  0  0
 22 46  1  0  0  0  0
M  CHG  1   9   1
M  END
> <s_m_source_file>
AV-unprocessed.smi

> <i_m_source_file_index>
1579

> <i_lp_mmshare_version>
43012

> <i_f3d_flags>
0

> <s_epik_input>
TiNDYyhjMVtDSDNdKWMoPU8pbihuYzFbQ0gzXSlbQ0gyXVtDQEhdKFtPSF0pW0NIMl1OMltDSDJdW0NIMl1bQ0hdKFtDSDNdKVtDSDJdW0NIMl0y

> <s_epik_cmdline>
J2VwaWtfcHl0aG9uJywgJy1waCcsICc3LjAnLCAnLXRuJywgJzgnLCAnLW1hJywgJzIwMCcsICctbWV0YWxfYmluZGluZycsICctaW1hZScsICc8aW5maWxlLm1hZT4nLCAnLW9tYWUnLCAnPG91dGZpbGUubWFlPic=

> <r_epik_Ionization_Penalty>
0.00136816

> <r_epik_Ionization_Penalty_Charging>
0.00136813

> <r_epik_Ionization_Penalty_Neutral>
3.19884e-08

> <r_epik_State_Penalty>
0.000910892

> <r_epik_Charging_Adjusted_Penalty>
0.00227902

> <i_epik_Tot_Q>
1

> <i_epik_Tot_abs_Q>
1

> <r_epik_Metal_State_Penalty>
-0

> <b_epik_Metal_Only>
0

> <s_lp_Force_Field>
OPLS_2005

> <r_lp_Energy>
37.5904

> <b_lp_Chiralities_Consistent>
1

> <s_lp_Variant>
AV-unprocessed.smi:1579-2

> <Gold.Version>
5.8.1

> <Gold.Id.Protein>
6NUR|6NUR_protein|mol2

> <Gold.PLP.Fitness>
43.3423

> <Gold.PLP.PLP>
-28.3630

> <Gold.PLP.part.hbond>
-5.1717

> <Gold.PLP.part.metal>
0.0000

> <Gold.PLP.part.buried>
-5.2481

> <Gold.PLP.part.nonpolar>
-21.6464

> <Gold.PLP.part.repulsive>
3.2437

> <Gold.PLP.ligand.clash>
0.0000

> <Gold.PLP.ligand.torsion>
0.5984

> <Gold.PLP.Chemscore.Hbond>
5.3840

> <Gold.PLP.Chemscore.CHOScore>
0.0000

> <Gold.PLP.Chemscore.Metal>
0.0000

> <Gold.Chemscore.Hbonds>
donor molecule, donor type, donor heavy atom, donor atom, acceptor molecule, acceptor atom, score
      L1  H     7    29       P1  7948  0.66
      L1  H     9    47       P1  7948  2.00
      P1  H  7954  7966       L1     7  0.90
      P1  H  7989  7998       L1    17  0.74
      P1  H  7997  8010       L1    20  1.00

> <Gold.PLP.Chemscore.Internal.Correction>
0.0242

> <Gold.Rescore>
     Score         DG    S(hbond)    S(metal)    S(lipo)     H(rot)  DE(clash)    DE(int)     intcor
     17.29     -19.58       3.94        0.00      55.68       2.17       0.18       2.11       ----

> <Gold.Chemscore.Fitness>
17.2924

> <Gold.Chemscore.DG>
-19.5846

> <Gold.Chemscore.ZeroCoef>
-5.4800

> <Gold.Chemscore.Hbond>
3.9370

> <Gold.Chemscore.Metal>
0.0000

> <Gold.Chemscore.Lipo>
55.6767

> <Gold.Chemscore.Internal_Hbond>
0.0000

> <Gold.Chemscore.DEClash>
0.1828

> <Gold.Chemscore.DEInternal>
2.1094

> <Gold.Chemscore.Rot>
2.1715

> <Gold.Chemscore.Internal.Correction>
   9.000000E+99

> <Gold.Chemscore.Hbonds>
donor molecule, donor type, donor heavy atom, donor atom, acceptor molecule, acceptor atom, score
      L1  H     7    29       P1  7948  0.64
      L1  H     9    47       P1  7948  1.00
      P1  H  7954  7966       L1     7  0.38
      P1  H  7989  7998       L1    17  0.74
      P1  H  7997  8010       L1    20  1.00

> <Gold.Chemscore.Hbond.Weighted>
-13.1495

> <Gold.Chemscore.Metal.Weighted>
-0.0000

> <Gold.Chemscore.Lipo.Weighted>
-6.5142

> <Gold.Chemscore.Internal_Hbond.Weighted>
0.0000

> <Gold.Chemscore.DEClash.Weighted>
0.1828

> <Gold.Chemscore.DEInternal.Weighted>
2.1094

> <Gold.Chemscore.Rot.Weighted>
5.5591

> <Gold.Chemscore.Internal.Correction.Weighted>
   9.000000E+99

> <Gold.Protein.RotatedTorsions>
[ 6907 6896 6895 6894 ] final -106.75 input  -60.11 | X-H torsion
[ 7974 7965 7964 7962 ] final -158.23 input  175.53 | X-H torsion
[ 8008 7997 7996 7995 ] final   79.78 input   59.86 | X-H torsion
[ 10167 10162 10161 10158 ] final -146.13 input  -65.29 | X-H torsion
[ 10718 10713 10712 10709 ] final   73.90 input   66.30 | X-H torsion
[ 10763 10752 10751 10750 ] final -105.45 input  -60.55 | X-H torsion
[ 11005 11000 10999 10996 ] final  163.19 input  -57.11 | X-H torsion

> <Gold.Protein.ActiveResidues>
 VAL166  LYS551  ARG553  GLY616  TRP617  ASP618  TYR619  PRO620  LYS621  CYS622 
 ASP623  PHE694  ASN695  SER759  ASP760  ASP761  ALA762  ILE779  LEU786  VAL792 
 PHE793  MET794  SER795  GLU796  ALA797  LYS798  CYS799  TRP800  GLU811  SER814 

> <Gold.Protein.RotatedAtoms>
  150.7406  133.9929  159.3612 H   0  0  0  0  0  0  0  0  0  0  0  0  # atno 6907 bound_to 6896
  151.7878  135.0742  160.0392 H   0  0  0  0  0  0  0  0  0  0  0  0  # atno 6908 bound_to 6896
  152.3229  133.5837  159.5793 H   0  0  0  0  0  0  0  0  0  0  0  0  # atno 6909 bound_to 6896
  144.7514  140.3857  143.6045 H   0  0  0  0  0  0  0  0  0  0  0  0  # atno 7974 bound_to 7965
  155.8744  140.3447  155.5843 H   0  0  0  0  0  0  0  0  0  0  0  0  # atno 8008 bound_to 7997
  155.7791  140.0856  157.2087 H   0  0  0  0  0  0  0  0  0  0  0  0  # atno 8009 bound_to 7997
  154.4019  140.1504  156.3018 H   0  0  0  0  0  0  0  0  0  0  0  0  # atno 8010 bound_to 7997
  139.7742  143.8194  152.2629 H   0  0  0  0  0  0  0  0  0  0  0  0  # atno 10167 bound_to 10162
  157.6568  130.9651  150.1135 H   0  0  0  0  0  0  0  0  0  0  0  0  # atno 10718 bound_to 10713
  154.7947  135.4748  154.0134 H   0  0  0  0  0  0  0  0  0  0  0  0  # atno 10763 bound_to 10752
  153.1685  135.6821  153.8648 H   0  0  0  0  0  0  0  0  0  0  0  0  # atno 10764 bound_to 10752
  153.8238  135.3200  155.3390 H   0  0  0  0  0  0  0  0  0  0  0  0  # atno 10765 bound_to 10752
  140.2333  134.8107  157.3339 H   0  0  0  0  0  0  0  0  0  0  0  0  # atno 11005 bound_to 11000
  145.6930  139.1643  143.2636 LP  0  0  0  0  0  0  0  0  0  0  0  0  # atno 17320 bound_to 7965
  146.1470  140.6979  142.9340 LP  0  0  0  0  0  0  0  0  0  0  0  0  # atno 17321 bound_to 7965
  139.8237  144.7284  150.9539 LP  0  0  0  0  0  0  0  0  0  0  0  0  # atno 17342 bound_to 10162
  140.7815  143.4134  151.0956 LP  0  0  0  0  0  0  0  0  0  0  0  0  # atno 17343 bound_to 10162
  156.2025  130.3661  149.8770 LP  0  0  0  0  0  0  0  0  0  0  0  0  # atno 17370 bound_to 10713
  156.6670  130.8805  151.3556 LP  0  0  0  0  0  0  0  0  0  0  0  0  # atno 17371 bound_to 10713
  140.1728  134.4587  155.7821 LP  0  0  0  0  0  0  0  0  0  0  0  0  # atno 17394 bound_to 11000
  141.2216  133.6949  156.7736 LP  0  0  0  0  0  0  0  0  0  0  0  0  # atno 17395 bound_to 11000

$$$$
