AV-unprocessed.smi:37|AV-procd|sdf|313|dock10
  -GOLD-   2262016133D 1   1.00000     0.00000
 Structure written by MMmdl.
 44 45  0  0  0  0  0  0  0  0  1 V2000
  151.9306  145.2408  159.5557 C   0  0  0  0  0  0  0  0  0  0  0  0
  152.7692  144.1185  158.9264 C   0  0  0  0  0  0  0  0  0  0  0  0
  152.5313  142.7478  159.5630 C   0  0  0  0  0  0  0  0  0  0  0  0
  152.6669  142.5499  160.7716 O   0  0  0  0  0  0  0  0  0  0  0  0
  152.1726  141.8286  158.6523 O   0  0  0  0  0  0  0  0  0  0  0  0
  151.6149  140.5900  159.0669 C   0  0  0  0  0  0  0  0  0  0  0  0
  152.3221  139.4470  158.3232 C   0  0  2  0  0  0  0  0  0  0  0  0
  152.5717  139.7836  156.9583 O   0  0  0  0  0  0  0  0  0  0  0  0
  152.4016  138.6655  156.1330 C   0  0  2  0  0  0  0  0  0  0  0  0
  151.2113  138.8844  155.2180 N   0  0  0  0  0  0  0  0  0  0  0  0
  150.5201  140.0902  155.1640 C   0  0  0  0  0  0  0  0  0  0  0  0
  149.4389  140.2859  154.3730 C   0  0  0  0  0  0  0  0  0  0  0  0
  148.8174  141.4772  154.3821 F   0  0  0  0  0  0  0  0  0  0  0  0
  148.9409  139.2165  153.5135 C   0  0  0  0  0  0  0  0  0  0  0  0
  147.9689  139.2973  152.7655 O   0  0  0  0  0  0  0  0  0  0  0  0
  149.6704  138.0271  153.5917 N   0  0  0  0  0  0  0  0  0  0  0  0
  150.7842  137.8112  154.4046 C   0  0  0  0  0  0  0  0  0  0  0  0
  151.3479  136.7176  154.3995 O   0  0  0  0  0  0  0  0  0  0  0  0
  152.1501  137.4591  157.0506 C   0  0  1  0  0  0  0  0  0  0  0  0
  153.8870  136.5967  157.5068 Br  0  0  0  0  0  0  0  0  0  0  0  0
  151.5701  138.1111  158.2925 C   0  0  2  0  0  0  0  0  0  0  0  0
  150.1734  138.3359  158.1337 O   0  0  0  0  0  0  0  0  0  0  0  0
  149.2870  137.3499  158.3457 C   0  0  0  0  0  0  0  0  0  0  0  0
  149.5575  136.1860  158.6402 O   0  0  0  0  0  0  0  0  0  0  0  0
  147.8438  137.8105  158.1530 C   0  0  0  0  0  0  0  0  0  0  0  0
  146.8283  136.7061  158.4781 C   0  0  0  0  0  0  0  0  0  0  0  0
  149.3638  137.2586  153.0128 H   0  0  0  0  0  0  0  0  0  0  0  0
  152.1483  146.1959  159.0778 H   0  0  0  0  0  0  0  0  0  0  0  0
  152.1447  145.3489  160.6197 H   0  0  0  0  0  0  0  0  0  0  0  0
  150.8626  145.0517  159.4422 H   0  0  0  0  0  0  0  0  0  0  0  0
  152.5498  144.0485  157.8608 H   0  0  0  0  0  0  0  0  0  0  0  0
  153.8285  144.3611  159.0152 H   0  0  0  0  0  0  0  0  0  0  0  0
  151.7172  140.4483  160.1434 H   0  0  0  0  0  0  0  0  0  0  0  0
  150.5479  140.5856  158.8434 H   0  0  0  0  0  0  0  0  0  0  0  0
  153.2966  139.2791  158.7839 H   0  0  0  0  0  0  0  0  0  0  0  0
  153.2594  138.5522  155.4674 H   0  0  0  0  0  0  0  0  0  0  0  0
  150.8321  140.9220  155.7760 H   0  0  0  0  0  0  0  0  0  0  0  0
  151.5088  136.7022  156.5981 H   0  0  0  0  0  0  0  0  0  0  0  0
  151.7606  137.5295  159.1958 H   0  0  0  0  0  0  0  0  0  0  0  0
  147.6648  138.6802  158.7855 H   0  0  0  0  0  0  0  0  0  0  0  0
  147.7145  138.1376  157.1210 H   0  0  0  0  0  0  0  0  0  0  0  0
  145.8137  137.0434  158.2669 H   0  0  0  0  0  0  0  0  0  0  0  0
  146.8668  136.4255  159.5313 H   0  0  0  0  0  0  0  0  0  0  0  0
  147.0099  135.8107  157.8825 H   0  0  0  0  0  0  0  0  0  0  0  0
  1  2  1  0  0  0  0
  1 28  1  0  0  0  0
  1 29  1  0  0  0  0
  1 30  1  0  0  0  0
  2  3  1  0  0  0  0
  2 31  1  0  0  0  0
  2 32  1  0  0  0  0
  3  4  2  0  0  0  0
  3  5  1  0  0  0  0
  5  6  1  0  0  0  0
  6  7  1  0  0  0  0
  6 33  1  0  0  0  0
  6 34  1  0  0  0  0
  7 21  1  0  0  0  0
  7  8  1  0  0  0  0
  7 35  1  0  0  0  0
  8  9  1  0  0  0  0
  9 10  1  0  0  0  0
  9 19  1  0  0  0  0
  9 36  1  0  0  0  0
 10 17  1  0  0  0  0
 10 11  1  0  0  0  0
 11 12  2  0  0  0  0
 11 37  1  0  0  0  0
 12 13  1  0  0  0  0
 12 14  1  0  0  0  0
 14 15  2  0  0  0  0
 14 16  1  0  0  0  0
 16 27  1  0  0  0  0
 16 17  1  0  0  0  0
 17 18  2  0  0  0  0
 19 20  1  0  0  0  0
 19 21  1  0  0  0  0
 19 38  1  0  0  0  0
 21 22  1  0  0  0  0
 21 39  1  0  0  0  0
 22 23  1  0  0  0  0
 23 24  2  0  0  0  0
 23 25  1  0  0  0  0
 25 26  1  0  0  0  0
 25 40  1  0  0  0  0
 25 41  1  0  0  0  0
 26 42  1  0  0  0  0
 26 43  1  0  0  0  0
 26 44  1  0  0  0  0
M  END
> <s_m_source_file>
AV-unprocessed.smi

> <i_m_source_file_index>
37

> <i_lp_mmshare_version>
43012

> <i_f3d_flags>
0

> <s_epik_input>
W0NIM11bQ0gyXUMoPU8pT1tDSDJdW0NAQEhdMU9bQ0BASF0objJbY0hdYyhGKWMoPU8pW25IXWMyPU8pW0NAQEhdKEJyKVtDQEhdMU9DKD1PKVtDSDJdW0NIM10=

> <s_epik_cmdline>
J2VwaWtfcHl0aG9uJywgJy1waCcsICc3LjAnLCAnLXRuJywgJzgnLCAnLW1hJywgJzIwMCcsICctbWV0YWxfYmluZGluZycsICctaW1hZScsICc8aW5maWxlLm1hZT4nLCAnLW9tYWUnLCAnPG91dGZpbGUubWFlPic=

> <r_lp_tautomer_probability>
0.999537

> <r_epik_Ionization_Penalty>
0.104106

> <r_epik_Ionization_Penalty_Charging>
0.104106

> <r_epik_Ionization_Penalty_Neutral>
3.94675e-16

> <r_epik_State_Penalty>
0.0940182

> <r_epik_Charging_Adjusted_Penalty>
0.198124

> <i_epik_Tot_Q>
0

> <i_epik_Tot_abs_Q>
0

> <r_epik_Metal_State_Penalty>
3.05314

> <b_epik_Metal_Only>
0

> <s_epik_Chemistry_Notes>
This compound has an ester and may undergo hydrolysis at high or low pH. This compound contains an acetal/aminal-like group ( X-CH(R)-Y where X, Y are N, S, or O) that may be acid/base labile, releasing an aldehyde.

> <s_lp_Force_Field>
OPLS_2005

> <r_lp_Energy>
21.1206

> <b_lp_Chiralities_Consistent>
1

> <s_lp_Variant>
AV-unprocessed.smi:37-11

> <Gold.Version>
5.8.1

> <Gold.Id.Protein>
6NUR|6NUR_protein|mol2

> <Gold.PLP.Fitness>
53.5387

> <Gold.PLP.PLP>
-44.0030

> <Gold.PLP.part.hbond>
-4.0000

> <Gold.PLP.part.metal>
0.0000

> <Gold.PLP.part.buried>
-4.2999

> <Gold.PLP.part.nonpolar>
-36.2055

> <Gold.PLP.part.repulsive>
1.7770

> <Gold.PLP.ligand.clash>
0.0000

> <Gold.PLP.ligand.torsion>
0.9478

> <Gold.PLP.Chemscore.Hbond>
3.7500

> <Gold.PLP.Chemscore.CHOScore>
0.0000

> <Gold.PLP.Chemscore.Metal>
0.0000

> <Gold.Chemscore.Hbonds>
donor molecule, donor type, donor heavy atom, donor atom, acceptor molecule, acceptor atom, score
      L1  H    16    27       P1  7948  1.00
      P1  H  6896  6907       L1    24  0.71
      P1  H  7997  8009       L1     8  0.90
      P1  H 10752 10764       L1    18  1.00

> <Gold.PLP.Chemscore.Internal.Correction>
0.1813

> <Gold.Rescore>
     Score         DG    S(hbond)    S(metal)    S(lipo)     H(rot)  DE(clash)    DE(int)     intcor
     12.42     -14.69       2.82        0.00      70.96       3.33       0.09       2.17       ----

> <Gold.Chemscore.Fitness>
12.4198

> <Gold.Chemscore.DG>
-14.6852

> <Gold.Chemscore.ZeroCoef>
-5.4800

> <Gold.Chemscore.Hbond>
2.8229

> <Gold.Chemscore.Metal>
0.0000

> <Gold.Chemscore.Lipo>
70.9587

> <Gold.Chemscore.Internal_Hbond>
0.0000

> <Gold.Chemscore.DEClash>
0.0918

> <Gold.Chemscore.DEInternal>
2.1736

> <Gold.Chemscore.Rot>
3.3303

> <Gold.Chemscore.Internal.Correction>
   9.000000E+99

> <Gold.Chemscore.Hbonds>
donor molecule, donor type, donor heavy atom, donor atom, acceptor molecule, acceptor atom, score
      L1  H    16    27       P1  7948  0.90
      P1  H  6896  6907       L1    24  0.70
      P1  H  7997  8009       L1     8  0.15
      P1  H 10752 10764       L1    18  0.94

> <Gold.Chemscore.Hbond.Weighted>
-9.4286

> <Gold.Chemscore.Metal.Weighted>
-0.0000

> <Gold.Chemscore.Lipo.Weighted>
-8.3022

> <Gold.Chemscore.Internal_Hbond.Weighted>
0.0000

> <Gold.Chemscore.DEClash.Weighted>
0.0918

> <Gold.Chemscore.DEInternal.Weighted>
2.1736

> <Gold.Chemscore.Rot.Weighted>
8.5256

> <Gold.Chemscore.Internal.Correction.Weighted>
   9.000000E+99

> <Gold.Protein.RotatedTorsions>
[ 6907 6896 6895 6894 ] final  -42.59 input  -60.11 | X-H torsion
[ 7974 7965 7964 7962 ] final   28.05 input  175.53 | X-H torsion
[ 8008 7997 7996 7995 ] final -178.36 input   59.86 | X-H torsion
[ 10167 10162 10161 10158 ] final   96.52 input  -65.29 | X-H torsion
[ 10718 10713 10712 10709 ] final   31.41 input   66.30 | X-H torsion
[ 10763 10752 10751 10750 ] final  -93.20 input  -60.55 | X-H torsion
[ 11005 11000 10999 10996 ] final   -3.17 input  -57.11 | X-H torsion

> <Gold.Protein.ActiveResidues>
 VAL166  LYS551  ARG553  GLY616  TRP617  ASP618  TYR619  PRO620  LYS621  CYS622 
 ASP623  PHE694  ASN695  SER759  ASP760  ASP761  ALA762  ILE779  LEU786  VAL792 
 PHE793  MET794  SER795  GLU796  ALA797  LYS798  CYS799  TRP800  GLU811  SER814 

> <Gold.Protein.RotatedAtoms>
  150.9535  134.8932  159.7686 H   0  0  0  0  0  0  0  0  0  0  0  0  # atno 6907 bound_to 6896
  152.5129  134.3773  159.9349 H   0  0  0  0  0  0  0  0  0  0  0  0  # atno 6908 bound_to 6896
  151.3788  133.3788  159.2742 H   0  0  0  0  0  0  0  0  0  0  0  0  # atno 6909 bound_to 6896
  146.1750  139.7108  142.8941 H   0  0  0  0  0  0  0  0  0  0  0  0  # atno 7974 bound_to 7965
  156.0179  140.1254  157.0387 H   0  0  0  0  0  0  0  0  0  0  0  0  # atno 8008 bound_to 7997
  154.4300  140.1074  156.5992 H   0  0  0  0  0  0  0  0  0  0  0  0  # atno 8009 bound_to 7997
  155.5987  140.3470  155.4589 H   0  0  0  0  0  0  0  0  0  0  0  0  # atno 8010 bound_to 7997
  139.7887  144.6860  150.9922 H   0  0  0  0  0  0  0  0  0  0  0  0  # atno 10167 bound_to 10162
  157.2721  130.7213  149.6510 H   0  0  0  0  0  0  0  0  0  0  0  0  # atno 10718 bound_to 10713
  154.6936  135.5203  153.8426 H   0  0  0  0  0  0  0  0  0  0  0  0  # atno 10763 bound_to 10752
  153.0650  135.6582  154.0384 H   0  0  0  0  0  0  0  0  0  0  0  0  # atno 10764 bound_to 10752
  154.0254  135.2990  155.3355 H   0  0  0  0  0  0  0  0  0  0  0  0  # atno 10765 bound_to 10752
  140.6664  133.9275  155.8467 H   0  0  0  0  0  0  0  0  0  0  0  0  # atno 11005 bound_to 11000
  145.4236  141.0409  143.2950 LP  0  0  0  0  0  0  0  0  0  0  0  0  # atno 17320 bound_to 7965
  144.8222  139.5772  143.6981 LP  0  0  0  0  0  0  0  0  0  0  0  0  # atno 17321 bound_to 7965
  140.7820  143.4404  151.0560 LP  0  0  0  0  0  0  0  0  0  0  0  0  # atno 17342 bound_to 10162
  139.8082  143.7988  152.3169 LP  0  0  0  0  0  0  0  0  0  0  0  0  # atno 17343 bound_to 10162
  155.9663  130.4364  150.5133 LP  0  0  0  0  0  0  0  0  0  0  0  0  # atno 17370 bound_to 10713
  157.3060  131.0654  151.2035 LP  0  0  0  0  0  0  0  0  0  0  0  0  # atno 17371 bound_to 10713
  141.0426  134.0600  157.3883 LP  0  0  0  0  0  0  0  0  0  0  0  0  # atno 17394 bound_to 11000
  139.8996  135.0159  156.7202 LP  0  0  0  0  0  0  0  0  0  0  0  0  # atno 17395 bound_to 11000

$$$$
