AV-unprocessed.smi:1584|AV-procd|sdf|6367|dock9
  -GOLD-   22720 6593D 1   1.00000     0.00000
 Structure written by MMmdl.
 39 40  0  0  0  0  0  0  0  0  1 V2000
  150.3819  141.6096  157.9143 C   0  0  0  0  0  0  0  0  0  0  0  0
  150.8053  142.1992  156.5590 C   0  0  2  0  0  0  0  0  0  0  0  0
  151.2448  143.6773  156.6481 C   0  0  0  0  0  0  0  0  0  0  0  0
  151.5259  144.0976  158.0091 N   0  0  0  0  0  0  0  0  0  0  0  0
  150.9315  145.1127  158.7285 C   0  0  0  0  0  0  0  0  0  0  0  0
  151.5198  145.1361  159.9605 C   0  0  0  0  0  0  0  0  0  0  0  0
  152.4731  144.0814  159.8996 C   0  0  0  0  0  0  0  0  0  0  0  0
  152.4732  143.4603  158.7311 N   0  0  0  0  0  0  0  0  0  0  0  0
  149.7034  142.0573  155.6115 N   0  0  0  0  0  0  0  0  0  0  0  0
  149.5864  141.0836  154.6946 C   0  0  0  0  0  0  0  0  0  0  0  0
  150.4174  140.1850  154.5591 O   0  0  0  0  0  0  0  0  0  0  0  0
  148.3341  141.1292  153.8016 C   0  0  1  0  0  0  0  0  0  0  0  0
  147.5465  139.8114  153.8104 C   0  0  0  0  0  0  0  0  0  0  0  0
  146.7784  139.6099  155.1237 C   0  0  0  0  0  0  0  0  0  0  0  0
  146.0104  140.7929  155.5309 N   0  0  0  0  0  0  0  0  0  0  0  0
  144.9257  140.5291  156.4784 C   0  0  0  0  0  0  0  0  0  0  0  0
  146.2810  142.0604  155.1352 C   0  0  0  0  0  0  0  0  0  0  0  0
  145.6301  143.0259  155.5355 O   0  0  0  0  0  0  0  0  0  0  0  0
  147.4221  142.3318  154.1360 C   0  0  0  0  0  0  0  0  0  0  0  0
  151.2078  141.6097  158.6259 H   0  0  0  0  0  0  0  0  0  0  0  0
  150.0502  140.5762  157.8064 H   0  0  0  0  0  0  0  0  0  0  0  0
  149.5628  142.1785  158.3552 H   0  0  0  0  0  0  0  0  0  0  0  0
  151.6486  141.6074  156.1976 H   0  0  0  0  0  0  0  0  0  0  0  0
  152.1462  143.8426  156.0568 H   0  0  0  0  0  0  0  0  0  0  0  0
  150.4757  144.3275  156.2276 H   0  0  0  0  0  0  0  0  0  0  0  0
  150.1497  145.7272  158.3068 H   0  0  0  0  0  0  0  0  0  0  0  0
  151.3019  145.8042  160.7805 H   0  0  0  0  0  0  0  0  0  0  0  0
  153.1597  143.7508  160.6650 H   0  0  0  0  0  0  0  0  0  0  0  0
  148.9736  142.7537  155.6569 H   0  0  0  0  0  0  0  0  0  0  0  0
  148.6890  141.2782  152.7802 H   0  0  0  0  0  0  0  0  0  0  0  0
  146.8383  139.8177  152.9807 H   0  0  0  0  0  0  0  0  0  0  0  0
  148.2098  138.9638  153.6329 H   0  0  0  0  0  0  0  0  0  0  0  0
  146.1124  138.7535  155.0095 H   0  0  0  0  0  0  0  0  0  0  0  0
  147.4680  139.3557  155.9294 H   0  0  0  0  0  0  0  0  0  0  0  0
  145.0319  141.1446  157.3731 H   0  0  0  0  0  0  0  0  0  0  0  0
  144.9066  139.4886  156.8048 H   0  0  0  0  0  0  0  0  0  0  0  0
  143.9600  140.7518  156.0227 H   0  0  0  0  0  0  0  0  0  0  0  0
  148.0103  143.1775  154.4967 H   0  0  0  0  0  0  0  0  0  0  0  0
  146.9525  142.6767  153.2140 H   0  0  0  0  0  0  0  0  0  0  0  0
  1  2  1  0  0  0  0
  1 20  1  0  0  0  0
  1 21  1  0  0  0  0
  1 22  1  0  0  0  0
  2  3  1  0  0  0  0
  2  9  1  0  0  0  0
  2 23  1  0  0  0  0
  3  4  1  0  0  0  0
  3 24  1  0  0  0  0
  3 25  1  0  0  0  0
  4  8  1  0  0  0  0
  4  5  1  0  0  0  0
  5  6  2  0  0  0  0
  5 26  1  0  0  0  0
  6  7  1  0  0  0  0
  6 27  1  0  0  0  0
  7  8  2  0  0  0  0
  7 28  1  0  0  0  0
  9 10  1  0  0  0  0
  9 29  1  0  0  0  0
 10 11  2  0  0  0  0
 10 12  1  0  0  0  0
 12 19  1  0  0  0  0
 12 13  1  0  0  0  0
 12 30  1  0  0  0  0
 13 14  1  0  0  0  0
 13 31  1  0  0  0  0
 13 32  1  0  0  0  0
 14 15  1  0  0  0  0
 14 33  1  0  0  0  0
 14 34  1  0  0  0  0
 15 16  1  0  0  0  0
 15 17  1  0  0  0  0
 16 35  1  0  0  0  0
 16 36  1  0  0  0  0
 16 37  1  0  0  0  0
 17 18  2  0  0  0  0
 17 19  1  0  0  0  0
 19 38  1  0  0  0  0
 19 39  1  0  0  0  0
M  END
> <s_m_source_file>
AV-unprocessed.smi

> <i_m_source_file_index>
1584

> <i_lp_mmshare_version>
43012

> <i_f3d_flags>
0

> <s_epik_input>
bjFbY0hdW2NIXVtjSF1uMVtDSDJdW0NAQEhdKFtDSDNdKVtOSF1DKD1PKVtDQEBIXTJbQ0gyXVtDSDJdTihbQ0gzXSlDKD1PKVtDSDJdMg==

> <s_epik_cmdline>
J2VwaWtfcHl0aG9uJywgJy1waCcsICc3LjAnLCAnLXRuJywgJzgnLCAnLW1hJywgJzIwMCcsICctbWV0YWxfYmluZGluZycsICctaW1hZScsICc8aW5maWxlLm1hZT4nLCAnLW9tYWUnLCAnPG91dGZpbGUubWFlPic=

> <r_lp_tautomer_probability>
1

> <r_epik_Ionization_Penalty>
0.000299422

> <r_epik_Ionization_Penalty_Charging>
0

> <r_epik_Ionization_Penalty_Neutral>
0.000299422

> <r_epik_State_Penalty>
-0

> <r_epik_Charging_Adjusted_Penalty>
0

> <i_epik_Tot_Q>
0

> <i_epik_Tot_abs_Q>
0

> <r_epik_Metal_State_Penalty>
-0

> <b_epik_Metal_Only>
0

> <s_lp_Force_Field>
OPLS_2005

> <r_lp_Energy>
12.5002

> <b_lp_Chiralities_Consistent>
1

> <s_lp_Variant>
AV-unprocessed.smi:1584-3

> <Gold.Version>
5.8.1

> <Gold.Id.Protein>
6NUR|6NUR_protein|mol2

> <Gold.PLP.Fitness>
43.3401

> <Gold.PLP.PLP>
-37.4133

> <Gold.PLP.part.hbond>
-2.0000

> <Gold.PLP.part.metal>
0.0000

> <Gold.PLP.part.buried>
-0.9041

> <Gold.PLP.part.nonpolar>
-33.8787

> <Gold.PLP.part.repulsive>
0.4335

> <Gold.PLP.ligand.clash>
0.6996

> <Gold.PLP.ligand.torsion>
0.9193

> <Gold.PLP.Chemscore.Hbond>
1.8000

> <Gold.PLP.Chemscore.CHOScore>
1.0000

> <Gold.PLP.Chemscore.Metal>
0.0000

> <Gold.Chemscore.Hbonds>
donor molecule, donor type, donor heavy atom, donor atom, acceptor molecule, acceptor atom, score
      L1  H     9    29       P1  8028  0.74
      P1  H  7989  7998       L1    11  1.00
      L1  C     5    26       P1  8029  1.00

> <Gold.PLP.Chemscore.Internal.Correction>
0.0650

> <Gold.Rescore>
     Score         DG    S(hbond)    S(metal)    S(lipo)     H(rot)  DE(clash)    DE(int)     intcor
     13.34     -15.84       1.38        0.00      85.66       1.67       1.58       0.93       ----

> <Gold.Chemscore.Fitness>
13.3390

> <Gold.Chemscore.DG>
-15.8412

> <Gold.Chemscore.ZeroCoef>
-5.4800

> <Gold.Chemscore.Hbond>
1.3840

> <Gold.Chemscore.Metal>
0.0000

> <Gold.Chemscore.Lipo>
85.6622

> <Gold.Chemscore.Internal_Hbond>
0.0000

> <Gold.Chemscore.DEClash>
1.5760

> <Gold.Chemscore.DEInternal>
0.9261

> <Gold.Chemscore.Rot>
1.6734

> <Gold.Chemscore.Internal.Correction>
   9.000000E+99

> <Gold.Chemscore.Hbonds>
donor molecule, donor type, donor heavy atom, donor atom, acceptor molecule, acceptor atom, score
      L1  H     9    29       P1  8028  0.73
      P1  H  7989  7998       L1    11  0.44

> <Gold.Chemscore.Hbond.Weighted>
-4.6227

> <Gold.Chemscore.Metal.Weighted>
-0.0000

> <Gold.Chemscore.Lipo.Weighted>
-10.0225

> <Gold.Chemscore.Internal_Hbond.Weighted>
0.0000

> <Gold.Chemscore.DEClash.Weighted>
1.5760

> <Gold.Chemscore.DEInternal.Weighted>
0.9261

> <Gold.Chemscore.Rot.Weighted>
4.2840

> <Gold.Chemscore.Internal.Correction.Weighted>
   9.000000E+99

> <Gold.Protein.RotatedTorsions>
[ 6907 6896 6895 6894 ] final -129.39 input  -60.11 | X-H torsion
[ 7974 7965 7964 7962 ] final  104.17 input  175.53 | X-H torsion
[ 8008 7997 7996 7995 ] final -132.02 input   59.86 | X-H torsion
[ 10167 10162 10161 10158 ] final  116.45 input  -65.29 | X-H torsion
[ 10718 10713 10712 10709 ] final -137.49 input   66.30 | X-H torsion
[ 10763 10752 10751 10750 ] final  153.35 input  -60.55 | X-H torsion
[ 11005 11000 10999 10996 ] final -140.59 input  -57.11 | X-H torsion

> <Gold.Protein.ActiveResidues>
 VAL166  LYS551  ARG553  GLY616  TRP617  ASP618  TYR619  PRO620  LYS621  CYS622 
 ASP623  PHE694  ASN695  SER759  ASP760  ASP761  ALA762  ILE779  LEU786  VAL792 
 PHE793  MET794  SER795  GLU796  ALA797  LYS798  CYS799  TRP800  GLU811  SER814 

> <Gold.Protein.RotatedAtoms>
  150.9281  133.6799  159.2816 H   0  0  0  0  0  0  0  0  0  0  0  0  # atno 6907 bound_to 6896
  151.4230  135.0999  159.9629 H   0  0  0  0  0  0  0  0  0  0  0  0  # atno 6908 bound_to 6896
  152.5013  133.8729  159.7362 H   0  0  0  0  0  0  0  0  0  0  0  0  # atno 6909 bound_to 6896
  145.3363  139.2473  143.3634 H   0  0  0  0  0  0  0  0  0  0  0  0  # atno 7974 bound_to 7965
  155.3220  140.0462  157.3039 H   0  0  0  0  0  0  0  0  0  0  0  0  # atno 8008 bound_to 7997
  154.5375  140.2277  155.8664 H   0  0  0  0  0  0  0  0  0  0  0  0  # atno 8009 bound_to 7997
  156.1849  140.3065  155.9225 H   0  0  0  0  0  0  0  0  0  0  0  0  # atno 8010 bound_to 7997
  139.6246  144.7106  151.2560 H   0  0  0  0  0  0  0  0  0  0  0  0  # atno 10167 bound_to 10162
  156.2887  130.7362  151.1381 H   0  0  0  0  0  0  0  0  0  0  0  0  # atno 10718 bound_to 10713
  154.1347  135.2824  155.3176 H   0  0  0  0  0  0  0  0  0  0  0  0  # atno 10763 bound_to 10752
  154.6330  135.5428  153.7705 H   0  0  0  0  0  0  0  0  0  0  0  0  # atno 10764 bound_to 10752
  153.0270  135.6467  154.1496 H   0  0  0  0  0  0  0  0  0  0  0  0  # atno 10765 bound_to 10752
  140.8407  134.2405  157.4811 H   0  0  0  0  0  0  0  0  0  0  0  0  # atno 11005 bound_to 11000
  146.3025  140.3951  142.8699 LP  0  0  0  0  0  0  0  0  0  0  0  0  # atno 17320 bound_to 7965
  144.8825  140.7419  143.5978 LP  0  0  0  0  0  0  0  0  0  0  0  0  # atno 17321 bound_to 7965
  140.7403  143.6591  150.8180 LP  0  0  0  0  0  0  0  0  0  0  0  0  # atno 17342 bound_to 10162
  140.0207  143.5545  152.2801 LP  0  0  0  0  0  0  0  0  0  0  0  0  # atno 17343 bound_to 10162
  157.7336  131.0589  150.5568 LP  0  0  0  0  0  0  0  0  0  0  0  0  # atno 17370 bound_to 10713
  156.5682  130.4273  149.6031 LP  0  0  0  0  0  0  0  0  0  0  0  0  # atno 17371 bound_to 10713
  139.8703  134.9634  156.4460 LP  0  0  0  0  0  0  0  0  0  0  0  0  # atno 17394 bound_to 11000
  140.8898  133.7856  155.9559 LP  0  0  0  0  0  0  0  0  0  0  0  0  # atno 17395 bound_to 11000

$$$$
