AV-unprocessed.smi:3154|AV-procd|sdf|12023|dock2
  -GOLD-   2272017433D 1   1.00000     0.00000
 Structure written by MMmdl.
 34 35  0  0  0  0  0  0  0  0  1 V2000
  147.9492  142.1338  154.1194 C   0  0  0  0  0  0  0  0  0  0  0  0
  149.1917  141.3747  154.6137 C   0  0  2  0  0  0  0  0  0  0  0  0
  149.0026  139.8360  154.5870 C   0  0  0  0  0  0  0  0  0  0  0  0
  150.2433  139.0842  154.6881 N   0  0  0  0  0  0  0  0  0  0  0  0
  150.4168  137.7163  154.7335 C   0  0  0  0  0  0  0  0  0  0  0  0
  151.7585  137.4785  154.8220 C   0  0  0  0  0  0  0  0  0  0  0  0
  152.3328  138.7804  154.8183 C   0  0  0  0  0  0  0  0  0  0  0  0
  151.4244  139.7384  154.7326 N   0  0  0  0  0  0  0  0  0  0  0  0
  149.5116  141.8847  155.9450 N   0  0  0  0  0  0  0  0  0  0  0  0
  150.9553  142.0295  156.1799 C   0  0  0  0  0  0  0  0  0  0  0  0
  151.2656  142.7644  157.4868 C   0  0  0  0  0  0  0  0  0  0  0  0
  151.7795  142.1723  158.4370 O   0  0  0  0  0  0  0  0  0  0  0  0
  150.9444  144.0663  157.5154 N   0  0  0  0  0  0  0  0  0  0  0  0
  151.1417  144.9462  158.6218 C   0  0  0  0  0  0  0  0  0  0  0  0
  152.2679  144.6279  159.5814 C   0  0  0  0  0  0  0  0  0  0  0  0
  150.8414  144.4120  160.0057 C   0  0  0  0  0  0  0  0  0  0  0  0
  147.6530  141.7933  153.1268 H   0  0  0  0  0  0  0  0  0  0  0  0
  148.1440  143.2046  154.0523 H   0  0  0  0  0  0  0  0  0  0  0  0
  147.0969  141.9968  154.7858 H   0  0  0  0  0  0  0  0  0  0  0  0
  150.0134  141.6314  153.9433 H   0  0  0  0  0  0  0  0  0  0  0  0
  148.3709  139.5422  155.4263 H   0  0  0  0  0  0  0  0  0  0  0  0
  148.4648  139.5109  153.6965 H   0  0  0  0  0  0  0  0  0  0  0  0
  149.5795  137.0346  154.7032 H   0  0  0  0  0  0  0  0  0  0  0  0
  152.2540  136.5207  154.8802 H   0  0  0  0  0  0  0  0  0  0  0  0
  153.3757  139.0559  154.8728 H   0  0  0  0  0  0  0  0  0  0  0  0
  149.0392  142.7682  156.0723 H   0  0  0  0  0  0  0  0  0  0  0  0
  151.4306  141.0509  156.2331 H   0  0  0  0  0  0  0  0  0  0  0  0
  151.4083  142.5709  155.3479 H   0  0  0  0  0  0  0  0  0  0  0  0
  150.5307  144.4667  156.6860 H   0  0  0  0  0  0  0  0  0  0  0  0
  150.9290  146.0028  158.4645 H   0  0  0  0  0  0  0  0  0  0  0  0
  152.8718  143.7444  159.3829 H   0  0  0  0  0  0  0  0  0  0  0  0
  152.8021  145.4667  160.0231 H   0  0  0  0  0  0  0  0  0  0  0  0
  150.4226  145.1064  160.7311 H   0  0  0  0  0  0  0  0  0  0  0  0
  150.4939  143.3841  160.0916 H   0  0  0  0  0  0  0  0  0  0  0  0
  1  2  1  0  0  0  0
  1 17  1  0  0  0  0
  1 18  1  0  0  0  0
  1 19  1  0  0  0  0
  2  3  1  0  0  0  0
  2  9  1  0  0  0  0
  2 20  1  0  0  0  0
  3  4  1  0  0  0  0
  3 21  1  0  0  0  0
  3 22  1  0  0  0  0
  4  8  1  0  0  0  0
  4  5  1  0  0  0  0
  5  6  2  0  0  0  0
  5 23  1  0  0  0  0
  6  7  1  0  0  0  0
  6 24  1  0  0  0  0
  7  8  2  0  0  0  0
  7 25  1  0  0  0  0
  9 10  1  0  0  0  0
  9 26  1  0  0  0  0
 10 11  1  0  0  0  0
 10 27  1  0  0  0  0
 10 28  1  0  0  0  0
 11 12  2  0  0  0  0
 11 13  1  0  0  0  0
 13 14  1  0  0  0  0
 13 29  1  0  0  0  0
 14 16  1  0  0  0  0
 14 15  1  0  0  0  0
 14 30  1  0  0  0  0
 15 16  1  0  0  0  0
 15 31  1  0  0  0  0
 15 32  1  0  0  0  0
 16 33  1  0  0  0  0
 16 34  1  0  0  0  0
M  END
> <s_m_source_file>
AV-unprocessed.smi

> <i_m_source_file_index>
3154

> <i_lp_mmshare_version>
43012

> <i_f3d_flags>
0

> <s_epik_input>
bjFbY0hdW2NIXVtjSF1uMVtDSDJdW0NAQEhdKFtDSDNdKVtOSF1bQ0gyXUMoPU8pW05IXVtDSF0yW0NIMl1bQ0gyXTI=

> <s_epik_cmdline>
J2VwaWtfcHl0aG9uJywgJy1waCcsICc3LjAnLCAnLXRuJywgJzgnLCAnLW1hJywgJzIwMCcsICctbWV0YWxfYmluZGluZycsICctaW1hZScsICc8aW5maWxlLm1hZT4nLCAnLW9tYWUnLCAnPG91dGZpbGUubWFlPic=

> <r_lp_tautomer_probability>
1

> <r_epik_Ionization_Penalty>
1.00229

> <r_epik_Ionization_Penalty_Charging>
0

> <r_epik_Ionization_Penalty_Neutral>
1.00229

> <r_epik_State_Penalty>
1.0509

> <r_epik_Charging_Adjusted_Penalty>
1.0509

> <i_epik_Tot_Q>
0

> <i_epik_Tot_abs_Q>
0

> <r_epik_Metal_State_Penalty>
1.05084

> <b_epik_Metal_Only>
0

> <s_lp_Force_Field>
OPLS_2005

> <r_lp_Energy>
19.1763

> <b_lp_Chiralities_Consistent>
1

> <s_lp_Variant>
AV-unprocessed.smi:3154-3

> <Gold.Version>
5.8.1

> <Gold.Id.Protein>
6NUR|6NUR_protein|mol2

> <Gold.PLP.Fitness>
46.0446

> <Gold.PLP.PLP>
-39.1484

> <Gold.PLP.part.hbond>
-3.0000

> <Gold.PLP.part.metal>
0.0000

> <Gold.PLP.part.buried>
-4.6442

> <Gold.PLP.part.nonpolar>
-31.4731

> <Gold.PLP.part.repulsive>
0.1098

> <Gold.PLP.ligand.clash>
0.0000

> <Gold.PLP.ligand.torsion>
1.0365

> <Gold.PLP.Chemscore.Hbond>
2.9280

> <Gold.PLP.Chemscore.CHOScore>
0.0000

> <Gold.PLP.Chemscore.Metal>
0.0000

> <Gold.Chemscore.Hbonds>
donor molecule, donor type, donor heavy atom, donor atom, acceptor molecule, acceptor atom, score
      L1  H     9    26       P1  8028  1.00
      L1  H    13    29       P1  8028  0.93
      P1  H  7989  7998       L1     8  1.00

> <Gold.PLP.Chemscore.Internal.Correction>
0.1852

> <Gold.Rescore>
     Score         DG    S(hbond)    S(metal)    S(lipo)     H(rot)  DE(clash)    DE(int)     intcor
     14.39     -19.57       2.83        0.00      85.99       2.12       0.08       5.11       ----

> <Gold.Chemscore.Fitness>
14.3892

> <Gold.Chemscore.DG>
-19.5746

> <Gold.Chemscore.ZeroCoef>
-5.4800

> <Gold.Chemscore.Hbond>
2.8344

> <Gold.Chemscore.Metal>
0.0000

> <Gold.Chemscore.Lipo>
85.9949

> <Gold.Chemscore.Internal_Hbond>
0.0000

> <Gold.Chemscore.DEClash>
0.0772

> <Gold.Chemscore.DEInternal>
5.1083

> <Gold.Chemscore.Rot>
2.1225

> <Gold.Chemscore.Internal.Correction>
   9.000000E+99

> <Gold.Chemscore.Hbonds>
donor molecule, donor type, donor heavy atom, donor atom, acceptor molecule, acceptor atom, score
      L1  H     9    26       P1  8028  0.91
      L1  H    13    29       P1  8028  0.88
      P1  H  7989  7998       L1     8  0.84

> <Gold.Chemscore.Hbond.Weighted>
-9.4669

> <Gold.Chemscore.Metal.Weighted>
-0.0000

> <Gold.Chemscore.Lipo.Weighted>
-10.0614

> <Gold.Chemscore.Internal_Hbond.Weighted>
0.0000

> <Gold.Chemscore.DEClash.Weighted>
0.0772

> <Gold.Chemscore.DEInternal.Weighted>
5.1083

> <Gold.Chemscore.Rot.Weighted>
5.4337

> <Gold.Chemscore.Internal.Correction.Weighted>
   9.000000E+99

> <Gold.Protein.RotatedTorsions>
[ 6907 6896 6895 6894 ] final   80.73 input  -60.11 | X-H torsion
[ 7974 7965 7964 7962 ] final  103.14 input  175.53 | X-H torsion
[ 8008 7997 7996 7995 ] final  -56.69 input   59.86 | X-H torsion
[ 10167 10162 10161 10158 ] final   69.17 input  -65.29 | X-H torsion
[ 10718 10713 10712 10709 ] final  -60.98 input   66.30 | X-H torsion
[ 10763 10752 10751 10750 ] final -153.76 input  -60.55 | X-H torsion
[ 11005 11000 10999 10996 ] final   11.99 input  -57.11 | X-H torsion

> <Gold.Protein.ActiveResidues>
 VAL166  LYS551  ARG553  GLY616  TRP617  ASP618  TYR619  PRO620  LYS621  CYS622 
 ASP623  PHE694  ASN695  SER759  ASP760  ASP761  ALA762  ILE779  LEU786  VAL792 
 PHE793  MET794  SER795  GLU796  ALA797  LYS798  CYS799  TRP800  GLU811  SER814 

> <Gold.Protein.RotatedAtoms>
  152.5245  134.3312  159.9183 H   0  0  0  0  0  0  0  0  0  0  0  0  # atno 6907 bound_to 6896
  151.3262  133.4013  159.2666 H   0  0  0  0  0  0  0  0  0  0  0  0  # atno 6908 bound_to 6896
  150.9918  134.9269  159.7961 H   0  0  0  0  0  0  0  0  0  0  0  0  # atno 6909 bound_to 6896
  145.3499  139.2442  143.3564 H   0  0  0  0  0  0  0  0  0  0  0  0  # atno 7974 bound_to 7965
  154.4240  140.1124  156.5678 H   0  0  0  0  0  0  0  0  0  0  0  0  # atno 8008 bound_to 7997
  155.6243  140.3495  155.4643 H   0  0  0  0  0  0  0  0  0  0  0  0  # atno 8009 bound_to 7997
  155.9999  140.1197  157.0547 H   0  0  0  0  0  0  0  0  0  0  0  0  # atno 8010 bound_to 7997
  140.0707  144.5155  150.7229 H   0  0  0  0  0  0  0  0  0  0  0  0  # atno 10167 bound_to 10162
  156.0953  130.4194  150.0930 H   0  0  0  0  0  0  0  0  0  0  0  0  # atno 10718 bound_to 10713
  154.7905  135.3205  154.7787 H   0  0  0  0  0  0  0  0  0  0  0  0  # atno 10763 bound_to 10752
  153.8477  135.6865  153.4800 H   0  0  0  0  0  0  0  0  0  0  0  0  # atno 10764 bound_to 10752
  153.1574  135.4674  154.9664 H   0  0  0  0  0  0  0  0  0  0  0  0  # atno 10765 bound_to 10752
  140.4970  134.0783  155.7784 H   0  0  0  0  0  0  0  0  0  0  0  0  # atno 11005 bound_to 11000
  146.2972  140.4112  142.8717 LP  0  0  0  0  0  0  0  0  0  0  0  0  # atno 17320 bound_to 7965
  144.8726  140.7293  143.6037 LP  0  0  0  0  0  0  0  0  0  0  0  0  # atno 17321 bound_to 7965
  140.7127  143.2518  151.4531 LP  0  0  0  0  0  0  0  0  0  0  0  0  # atno 17342 bound_to 10162
  139.5838  144.1650  152.2002 LP  0  0  0  0  0  0  0  0  0  0  0  0  # atno 17343 bound_to 10162
  156.8931  130.9595  151.3586 LP  0  0  0  0  0  0  0  0  0  0  0  0  # atno 17370 bound_to 10713
  157.6112  130.8584  149.8955 LP  0  0  0  0  0  0  0  0  0  0  0  0  # atno 17371 bound_to 10713
  141.1455  133.9063  157.2226 LP  0  0  0  0  0  0  0  0  0  0  0  0  # atno 17394 bound_to 11000
  139.9735  135.0121  156.9573 LP  0  0  0  0  0  0  0  0  0  0  0  0  # atno 17395 bound_to 11000

$$$$
