AV-unprocessed.smi:2159|AV-procd|sdf|8791|dock1
  -GOLD-   2272011573D 1   1.00000     0.00000
 Structure written by MMmdl.
 47 49  0  0  0  0  0  0  0  0  1 V2000
  150.7204  134.2771  155.9949 O   0  0  0  0  0  0  0  0  0  0  0  0
  150.1238  135.0525  155.2476 C   0  0  0  0  0  0  0  0  0  0  0  0
  150.0619  136.5435  155.5817 C   0  0  0  0  0  0  0  0  0  0  0  0
  151.4406  137.2188  155.4438 C   0  0  0  0  0  0  0  0  0  0  0  0
  151.4806  138.5027  156.1464 N   0  0  0  0  0  0  0  0  0  0  0  0
  151.2489  139.6941  155.5637 C   0  0  0  0  0  0  0  0  0  0  0  0
  150.8849  139.8996  154.4064 O   0  0  0  0  0  0  0  0  0  0  0  0
  151.5880  140.7985  156.5537 C   0  0  1  0  0  0  0  0  0  0  0  0
  150.8215  142.1209  156.6076 C   0  0  0  0  0  0  0  0  0  0  0  0
  151.4768  142.9720  157.7277 C   0  0  0  0  0  0  0  0  0  0  0  0
  151.6328  142.2221  159.0837 C   0  0  0  0  0  0  0  0  0  0  0  0
  152.2375  140.7987  158.9537 C   0  0  0  0  0  0  0  0  0  0  0  0
  151.4330  140.0717  157.8752 C   0  0  2  0  0  0  0  0  0  0  0  0
  151.7241  138.6359  157.4644 C   0  0  0  0  0  0  0  0  0  0  0  0
  152.0524  137.7510  158.2542 O   0  0  0  0  0  0  0  0  0  0  0  0
  149.4774  134.6615  154.1375 N   0  0  0  0  0  0  0  0  0  0  0  0
  149.2922  133.2766  153.7098 C   0  0  0  0  0  0  0  0  0  0  0  0
  147.8568  132.7692  153.9588 C   0  0  0  0  0  0  0  0  0  0  0  0
  147.0391  132.5810  152.6908 C   0  0  0  0  0  0  0  0  0  0  0  0
  146.3631  131.3666  152.4479 C   0  0  0  0  0  0  0  0  0  0  0  0
  145.5775  131.2576  151.2842 C   0  0  0  0  0  0  0  0  0  0  0  0
  145.4993  132.3606  150.4120 C   0  0  0  0  0  0  0  0  0  0  0  0
  146.2144  133.5286  150.7429 C   0  0  0  0  0  0  0  0  0  0  0  0
  146.9690  133.6440  151.8566 N   0  0  0  0  0  0  0  0  0  0  0  0
  149.3377  137.0253  154.9239 H   0  0  0  0  0  0  0  0  0  0  0  0
  149.6894  136.6662  156.6000 H   0  0  0  0  0  0  0  0  0  0  0  0
  152.2228  136.5668  155.8374 H   0  0  0  0  0  0  0  0  0  0  0  0
  151.6840  137.3632  154.3895 H   0  0  0  0  0  0  0  0  0  0  0  0
  152.6410  141.0277  156.3738 H   0  0  0  0  0  0  0  0  0  0  0  0
  150.8770  142.6421  155.6514 H   0  0  0  0  0  0  0  0  0  0  0  0
  149.7652  141.9501  156.8198 H   0  0  0  0  0  0  0  0  0  0  0  0
  152.4653  143.2873  157.3916 H   0  0  0  0  0  0  0  0  0  0  0  0
  150.9063  143.8892  157.8766 H   0  0  0  0  0  0  0  0  0  0  0  0
  152.2367  142.8183  159.7683 H   0  0  0  0  0  0  0  0  0  0  0  0
  150.6487  142.1410  159.5471 H   0  0  0  0  0  0  0  0  0  0  0  0
  153.2928  140.8501  158.6829 H   0  0  0  0  0  0  0  0  0  0  0  0
  152.1755  140.2708  159.9060 H   0  0  0  0  0  0  0  0  0  0  0  0
  150.3844  140.0721  158.1816 H   0  0  0  0  0  0  0  0  0  0  0  0
  149.0171  135.3714  153.5862 H   0  0  0  0  0  0  0  0  0  0  0  0
  149.5239  133.2108  152.6466 H   0  0  0  0  0  0  0  0  0  0  0  0
  150.0049  132.6219  154.2141 H   0  0  0  0  0  0  0  0  0  0  0  0
  147.8966  131.8197  154.4951 H   0  0  0  0  0  0  0  0  0  0  0  0
  147.3328  133.4624  154.6176 H   0  0  0  0  0  0  0  0  0  0  0  0
  146.4327  130.5435  153.1436 H   0  0  0  0  0  0  0  0  0  0  0  0
  145.0406  130.3459  151.0675 H   0  0  0  0  0  0  0  0  0  0  0  0
  144.9044  132.3132  149.5121 H   0  0  0  0  0  0  0  0  0  0  0  0
  146.1751  134.3950  150.0991 H   0  0  0  0  0  0  0  0  0  0  0  0
  1  2  2  0  0  0  0
  2  3  1  0  0  0  0
  2 16  1  0  0  0  0
  3  4  1  0  0  0  0
  3 25  1  0  0  0  0
  3 26  1  0  0  0  0
  4  5  1  0  0  0  0
  4 27  1  0  0  0  0
  4 28  1  0  0  0  0
  5 14  1  0  0  0  0
  5  6  1  0  0  0  0
  6  7  2  0  0  0  0
  6  8  1  0  0  0  0
  8 13  1  0  0  0  0
  8  9  1  0  0  0  0
  8 29  1  0  0  0  0
  9 10  1  0  0  0  0
  9 30  1  0  0  0  0
  9 31  1  0  0  0  0
 10 11  1  0  0  0  0
 10 32  1  0  0  0  0
 10 33  1  0  0  0  0
 11 12  1  0  0  0  0
 11 34  1  0  0  0  0
 11 35  1  0  0  0  0
 12 13  1  0  0  0  0
 12 36  1  0  0  0  0
 12 37  1  0  0  0  0
 13 14  1  0  0  0  0
 13 38  1  0  0  0  0
 14 15  2  0  0  0  0
 16 17  1  0  0  0  0
 16 39  1  0  0  0  0
 17 18  1  0  0  0  0
 17 40  1  0  0  0  0
 17 41  1  0  0  0  0
 18 19  1  0  0  0  0
 18 42  1  0  0  0  0
 18 43  1  0  0  0  0
 19 24  1  0  0  0  0
 19 20  2  0  0  0  0
 20 21  1  0  0  0  0
 20 44  1  0  0  0  0
 21 22  2  0  0  0  0
 21 45  1  0  0  0  0
 22 23  1  0  0  0  0
 22 46  1  0  0  0  0
 23 24  2  0  0  0  0
 23 47  1  0  0  0  0
M  END
> <s_m_source_file>
AV-unprocessed.smi

> <i_m_source_file_index>
2159

> <i_lp_mmshare_version>
43012

> <i_f3d_flags>
0

> <s_epik_input>
bjFbY0hdW2NIXVtjSF1bY0hdYzFbQ0gyXVtDSDJdW05IXUMoPU8pW0NIMl1bQ0gyXU4oQzI9TylDKD1PKVtDQEhdKFtDQEBIXTIzKVtDSDJdW0NIMl1bQ0gyXVtDSDJdMw==

> <s_epik_cmdline>
J2VwaWtfcHl0aG9uJywgJy1waCcsICc3LjAnLCAnLXRuJywgJzgnLCAnLW1hJywgJzIwMCcsICctbWV0YWxfYmluZGluZycsICctaW1hZScsICc8aW5maWxlLm1hZT4nLCAnLW9tYWUnLCAnPG91dGZpbGUubWFlPic=

> <r_lp_tautomer_probability>
1

> <r_epik_Ionization_Penalty>
0.026624

> <r_epik_Ionization_Penalty_Charging>
0

> <r_epik_Ionization_Penalty_Neutral>
0.026624

> <r_epik_State_Penalty>
0.0217444

> <r_epik_Charging_Adjusted_Penalty>
0.0217444

> <i_epik_Tot_Q>
0

> <i_epik_Tot_abs_Q>
0

> <r_epik_Metal_State_Penalty>
0.0208054

> <b_epik_Metal_Only>
0

> <s_lp_Force_Field>
OPLS_2005

> <r_lp_Energy>
31.6251

> <b_lp_Chiralities_Consistent>
1

> <s_lp_Variant>
AV-unprocessed.smi:2159-1

> <Gold.Version>
5.8.1

> <Gold.Id.Protein>
6NUR|6NUR_protein|mol2

> <Gold.PLP.Fitness>
48.8428

> <Gold.PLP.PLP>
-41.8808

> <Gold.PLP.part.hbond>
-2.0811

> <Gold.PLP.part.metal>
0.0000

> <Gold.PLP.part.buried>
-6.1233

> <Gold.PLP.part.nonpolar>
-34.2936

> <Gold.PLP.part.repulsive>
0.3632

> <Gold.PLP.ligand.clash>
0.0000

> <Gold.PLP.ligand.torsion>
0.9850

> <Gold.PLP.Chemscore.Hbond>
1.8640

> <Gold.PLP.Chemscore.CHOScore>
1.0000

> <Gold.PLP.Chemscore.Metal>
0.0000

> <Gold.Chemscore.Hbonds>
donor molecule, donor type, donor heavy atom, donor atom, acceptor molecule, acceptor atom, score
      L1  H    16    39       P1  7948  0.86
      P1  H  7989  7998       L1     7  0.98
      L1  C    23    47       P1  7921  1.00

> <Gold.PLP.Chemscore.Internal.Correction>
0.3400

> <Gold.Rescore>
     Score         DG    S(hbond)    S(metal)    S(lipo)     H(rot)  DE(clash)    DE(int)     intcor
     16.86     -17.84       1.55        0.00     104.40       1.97       0.01       0.96       ----

> <Gold.Chemscore.Fitness>
16.8645

> <Gold.Chemscore.DG>
-17.8390

> <Gold.Chemscore.ZeroCoef>
-5.4800

> <Gold.Chemscore.Hbond>
1.5535

> <Gold.Chemscore.Metal>
0.0000

> <Gold.Chemscore.Lipo>
104.3982

> <Gold.Chemscore.Internal_Hbond>
0.0000

> <Gold.Chemscore.DEClash>
0.0106

> <Gold.Chemscore.DEInternal>
0.9638

> <Gold.Chemscore.Rot>
1.9704

> <Gold.Chemscore.Internal.Correction>
   9.000000E+99

> <Gold.Chemscore.Hbonds>
donor molecule, donor type, donor heavy atom, donor atom, acceptor molecule, acceptor atom, score
      L1  H    16    39       P1  7948  0.55
      P1  H  7989  7998       L1     7  0.91

> <Gold.Chemscore.Hbond.Weighted>
-5.1886

> <Gold.Chemscore.Metal.Weighted>
-0.0000

> <Gold.Chemscore.Lipo.Weighted>
-12.2146

> <Gold.Chemscore.Internal_Hbond.Weighted>
0.0000

> <Gold.Chemscore.DEClash.Weighted>
0.0106

> <Gold.Chemscore.DEInternal.Weighted>
0.9638

> <Gold.Chemscore.Rot.Weighted>
5.0443

> <Gold.Chemscore.Internal.Correction.Weighted>
   9.000000E+99

> <Gold.Protein.RotatedTorsions>
[ 6907 6896 6895 6894 ] final  -93.72 input  -60.11 | X-H torsion
[ 7974 7965 7964 7962 ] final  -91.78 input  175.53 | X-H torsion
[ 8008 7997 7996 7995 ] final  110.85 input   59.86 | X-H torsion
[ 10167 10162 10161 10158 ] final  -58.02 input  -65.29 | X-H torsion
[ 10718 10713 10712 10709 ] final -175.37 input   66.30 | X-H torsion
[ 10763 10752 10751 10750 ] final   94.58 input  -60.55 | X-H torsion
[ 11005 11000 10999 10996 ] final  -74.16 input  -57.11 | X-H torsion

> <Gold.Protein.ActiveResidues>
 VAL166  LYS551  ARG553  GLY616  TRP617  ASP618  TYR619  PRO620  LYS621  CYS622 
 ASP623  PHE694  ASN695  SER759  ASP760  ASP761  ALA762  ILE779  LEU786  VAL792 
 PHE793  MET794  SER795  GLU796  ALA797  LYS798  CYS799  TRP800  GLU811  SER814 

> <Gold.Protein.RotatedAtoms>
  150.6928  134.1924  159.4289 H   0  0  0  0  0  0  0  0  0  0  0  0  # atno 6907 bound_to 6896
  151.9894  134.9985  160.0570 H   0  0  0  0  0  0  0  0  0  0  0  0  # atno 6908 bound_to 6896
  152.1682  133.4591  159.4932 H   0  0  0  0  0  0  0  0  0  0  0  0  # atno 6909 bound_to 6896
  145.4086  140.9543  143.2247 H   0  0  0  0  0  0  0  0  0  0  0  0  # atno 7974 bound_to 7965
  156.2082  140.3030  155.9674 H   0  0  0  0  0  0  0  0  0  0  0  0  # atno 8008 bound_to 7997
  155.2788  140.0437  157.3031 H   0  0  0  0  0  0  0  0  0  0  0  0  # atno 8009 bound_to 7997
  154.5663  140.2335  155.8267 H   0  0  0  0  0  0  0  0  0  0  0  0  # atno 8010 bound_to 7997
  140.6223  143.2424  151.5450 H   0  0  0  0  0  0  0  0  0  0  0  0  # atno 10167 bound_to 10162
  156.7988  130.9545  151.3119 H   0  0  0  0  0  0  0  0  0  0  0  0  # atno 10718 bound_to 10713
  153.2432  135.4285  155.0720 H   0  0  0  0  0  0  0  0  0  0  0  0  # atno 10763 bound_to 10752
  154.8350  135.3408  154.6619 H   0  0  0  0  0  0  0  0  0  0  0  0  # atno 10764 bound_to 10752
  153.7042  135.7026  153.5111 H   0  0  0  0  0  0  0  0  0  0  0  0  # atno 10765 bound_to 10752
  141.1632  133.6902  156.7322 H   0  0  0  0  0  0  0  0  0  0  0  0  # atno 11005 bound_to 11000
  144.8325  139.5605  143.6937 LP  0  0  0  0  0  0  0  0  0  0  0  0  # atno 17320 bound_to 7965
  146.2716  139.6650  142.9292 LP  0  0  0  0  0  0  0  0  0  0  0  0  # atno 17321 bound_to 7965
  139.5449  144.2548  152.1423 LP  0  0  0  0  0  0  0  0  0  0  0  0  # atno 17342 bound_to 10162
  140.1771  144.4880  150.6548 LP  0  0  0  0  0  0  0  0  0  0  0  0  # atno 17343 bound_to 10162
  157.6564  130.8928  149.9737 LP  0  0  0  0  0  0  0  0  0  0  0  0  # atno 17370 bound_to 10713
  156.1114  130.3650  150.0043 LP  0  0  0  0  0  0  0  0  0  0  0  0  # atno 17371 bound_to 10713
  140.2736  134.8372  157.3870 LP  0  0  0  0  0  0  0  0  0  0  0  0  # atno 17394 bound_to 11000
  140.1498  134.4864  155.7969 LP  0  0  0  0  0  0  0  0  0  0  0  0  # atno 17395 bound_to 11000

$$$$
