AV-unprocessed.smi:1911|AV-procd|sdf|7743|dock2
  -GOLD-   22720 9483D 1   1.00000     0.00000
 Structure written by MMmdl.
 53 55  0  0  0  0  0  0  0  0  3 V2000
  146.2410  131.4607  149.6307 N   0  0  0  0  0  0  0  0  0  0  0  0
  145.1624  131.8443  150.3173 C   0  0  0  0  0  0  0  0  0  0  0  0
  144.0234  131.7241  149.8694 O   0  0  0  0  0  0  0  0  0  0  0  0
  145.4034  132.4294  151.7128 C   0  0  0  0  0  0  0  0  0  0  0  0
  144.9030  133.8212  151.8558 N   0  3  2  0  0  0  0  0  0  0  0  0
  145.4192  134.7376  150.8040 C   0  0  0  0  0  0  0  0  0  0  0  0
  144.7660  136.1265  150.9090 C   0  0  0  0  0  0  0  0  0  0  0  0
  144.9519  136.7481  152.3077 C   0  0  2  0  0  0  0  0  0  0  0  0
  146.3390  137.1453  152.5491 N   0  0  0  0  0  0  0  0  0  0  0  0
  146.7313  138.1300  153.3707 C   0  0  0  0  0  0  0  0  0  0  0  0
  145.9483  138.8327  154.0087 O   0  0  0  0  0  0  0  0  0  0  0  0
  148.0698  138.2519  153.3809 N   0  0  0  0  0  0  0  0  0  0  0  0
  148.8672  139.1676  154.1192 C   0  0  0  0  0  0  0  0  0  0  0  0
  148.4623  140.4851  154.4492 C   0  0  0  0  0  0  0  0  0  0  0  0
  149.3238  141.3077  155.2040 C   0  0  0  0  0  0  0  0  0  0  0  0
  150.5796  140.8065  155.6199 C   0  0  0  0  0  0  0  0  0  0  0  0
  151.4990  141.5345  156.3906 N   0  0  0  0  0  0  0  0  0  0  0  0
  151.1564  142.9230  156.6934 C   0  0  0  0  0  0  0  0  0  0  0  0
  151.5656  143.1607  158.1480 C   0  0  0  0  0  0  0  0  0  0  0  0
  151.4513  141.7742  158.7684 C   0  0  0  0  0  0  0  0  0  0  0  0
  151.8829  140.8579  157.6242 C   0  0  0  0  0  0  0  0  0  0  0  0
  150.9147  139.5365  155.3040 N   0  3  0  0  0  0  0  0  0  0  0  0
  150.1193  138.7154  154.5854 C   0  0  0  0  0  0  0  0  0  0  0  0
  144.4812  135.7529  153.3825 C   0  0  0  0  0  0  0  0  0  0  0  0
  145.1338  134.3678  153.2175 C   0  0  0  0  0  0  0  0  0  0  0  0
  146.1323  131.0656  148.7073 H   0  0  0  0  0  0  0  0  0  0  0  0
  147.1623  131.5610  150.0322 H   0  0  0  0  0  0  0  0  0  0  0  0
  144.8827  131.7783  152.4162 H   0  0  0  0  0  0  0  0  0  0  0  0
  146.4631  132.3843  151.9704 H   0  0  0  0  0  0  0  0  0  0  0  0
  146.5034  134.8227  150.8915 H   0  0  0  0  0  0  0  0  0  0  0  0
  145.2176  134.3252  149.8149 H   0  0  0  0  0  0  0  0  0  0  0  0
  145.1636  136.7863  150.1371 H   0  0  0  0  0  0  0  0  0  0  0  0
  143.6994  136.0326  150.7006 H   0  0  0  0  0  0  0  0  0  0  0  0
  144.3299  137.6422  152.3807 H   0  0  0  0  0  0  0  0  0  0  0  0
  147.0534  136.6195  152.0669 H   0  0  0  0  0  0  0  0  0  0  0  0
  148.5753  137.6557  152.7422 H   0  0  0  0  0  0  0  0  0  0  0  0
  147.5009  140.8771  154.1556 H   0  0  0  0  0  0  0  0  0  0  0  0
  149.0080  142.3063  155.4685 H   0  0  0  0  0  0  0  0  0  0  0  0
  151.6877  143.5988  156.0228 H   0  0  0  0  0  0  0  0  0  0  0  0
  150.0918  143.1183  156.5682 H   0  0  0  0  0  0  0  0  0  0  0  0
  152.6018  143.4995  158.1920 H   0  0  0  0  0  0  0  0  0  0  0  0
  150.9452  143.9054  158.6474 H   0  0  0  0  0  0  0  0  0  0  0  0
  152.0624  141.6530  159.6632 H   0  0  0  0  0  0  0  0  0  0  0  0
  150.4132  141.5722  159.0359 H   0  0  0  0  0  0  0  0  0  0  0  0
  151.4427  139.8640  157.7215 H   0  0  0  0  0  0  0  0  0  0  0  0
  152.9666  140.7380  157.6226 H   0  0  0  0  0  0  0  0  0  0  0  0
  150.5119  137.7254  154.4032 H   0  0  0  0  0  0  0  0  0  0  0  0
  144.6842  136.1469  154.3793 H   0  0  0  0  0  0  0  0  0  0  0  0
  143.3978  135.6433  153.3165 H   0  0  0  0  0  0  0  0  0  0  0  0
  144.7153  133.6889  153.9616 H   0  0  0  0  0  0  0  0  0  0  0  0
  146.2060  134.4254  153.4108 H   0  0  0  0  0  0  0  0  0  0  0  0
  143.9009  133.7702  151.7361 H   0  0  0  0  0  0  0  0  0  0  0  0
  151.8159  139.1801  155.6234 H   0  0  0  0  0  0  0  0  0  0  0  0
  1  2  1  0  0  0  0
  1 26  1  0  0  0  0
  1 27  1  0  0  0  0
  2  3  2  0  0  0  0
  2  4  1  0  0  0  0
  4  5  1  0  0  0  0
  4 28  1  0  0  0  0
  4 29  1  0  0  0  0
  5 25  1  0  0  0  0
  5  6  1  0  0  0  0
  5 52  1  0  0  0  0
  6  7  1  0  0  0  0
  6 30  1  0  0  0  0
  6 31  1  0  0  0  0
  7  8  1  0  0  0  0
  7 32  1  0  0  0  0
  7 33  1  0  0  0  0
  8  9  1  0  0  0  0
  8 24  1  0  0  0  0
  8 34  1  0  0  0  0
  9 10  1  0  0  0  0
  9 35  1  0  0  0  0
 10 11  2  0  0  0  0
 10 12  1  0  0  0  0
 12 13  1  0  0  0  0
 12 36  1  0  0  0  0
 13 23  1  0  0  0  0
 13 14  2  0  0  0  0
 14 15  1  0  0  0  0
 14 37  1  0  0  0  0
 15 16  2  0  0  0  0
 15 38  1  0  0  0  0
 16 17  1  0  0  0  0
 16 22  1  0  0  0  0
 17 21  1  0  0  0  0
 17 18  1  0  0  0  0
 18 19  1  0  0  0  0
 18 39  1  0  0  0  0
 18 40  1  0  0  0  0
 19 20  1  0  0  0  0
 19 41  1  0  0  0  0
 19 42  1  0  0  0  0
 20 21  1  0  0  0  0
 20 43  1  0  0  0  0
 20 44  1  0  0  0  0
 21 45  1  0  0  0  0
 21 46  1  0  0  0  0
 22 23  2  0  0  0  0
 22 53  1  0  0  0  0
 23 47  1  0  0  0  0
 24 25  1  0  0  0  0
 24 48  1  0  0  0  0
 24 49  1  0  0  0  0
 25 50  1  0  0  0  0
 25 51  1  0  0  0  0
M  CHG  1   5   1
M  CHG  1  22   1
M  END
> <s_m_source_file>
AV-unprocessed.smi

> <i_m_source_file_index>
1911

> <i_lp_mmshare_version>
43012

> <i_f3d_flags>
0

> <s_epik_input>
W05IMl1DKD1PKVtDSDJdTjFbQ0gyXVtDSDJdW0NIXShbQ0gyXVtDSDJdMSlbTkhdQyg9TylbTkhdYzJbY0hdW2NIXWMobltjSF0yKU4zW0NIMl1bQ0gyXVtDSDJdW0NIMl0z

> <s_epik_cmdline>
J2VwaWtfcHl0aG9uJywgJy1waCcsICc3LjAnLCAnLXRuJywgJzgnLCAnLW1hJywgJzIwMCcsICctbWV0YWxfYmluZGluZycsICctaW1hZScsICc8aW5maWxlLm1hZT4nLCAnLW9tYWUnLCAnPG91dGZpbGUubWFlPic=

> <r_lp_tautomer_probability>
0.999994

> <r_epik_Ionization_Penalty>
2.11361

> <r_epik_Ionization_Penalty_Charging>
2.11355

> <r_epik_Ionization_Penalty_Neutral>
5.99226e-05

> <r_epik_State_Penalty>
2.13444

> <r_epik_Charging_Adjusted_Penalty>
4.24799

> <i_epik_Tot_Q>
2

> <i_epik_Tot_abs_Q>
2

> <r_epik_Metal_State_Penalty>
2.23538

> <b_epik_Metal_Only>
0

> <s_lp_Force_Field>
OPLS_2005

> <r_lp_Energy>
50.1523

> <b_lp_Chiralities_Consistent>
1

> <s_lp_Variant>
AV-unprocessed.smi:1911-6

> <Gold.Version>
5.8.1

> <Gold.Id.Protein>
6NUR|6NUR_protein|mol2

> <Gold.PLP.Fitness>
45.5149

> <Gold.PLP.PLP>
-35.8808

> <Gold.PLP.part.hbond>
-4.4226

> <Gold.PLP.part.metal>
0.0000

> <Gold.PLP.part.buried>
-1.0629

> <Gold.PLP.part.nonpolar>
-31.5416

> <Gold.PLP.part.repulsive>
0.7745

> <Gold.PLP.ligand.clash>
0.0000

> <Gold.PLP.ligand.torsion>
0.6426

> <Gold.PLP.Chemscore.Hbond>
3.5978

> <Gold.PLP.Chemscore.CHOScore>
0.0000

> <Gold.PLP.Chemscore.Metal>
0.0000

> <Gold.Chemscore.Hbonds>
donor molecule, donor type, donor heavy atom, donor atom, acceptor molecule, acceptor atom, score
      L1  H     1    27       P1 10747  0.96
      L1  H     9    35       P1  7948  0.98
      L1  H    12    36       P1  7948  1.00
      P1  H 10785 10796       L1     3  0.60

> <Gold.PLP.Chemscore.Internal.Correction>
0.1257

> <Gold.Rescore>
     Score         DG    S(hbond)    S(metal)    S(lipo)     H(rot)  DE(clash)    DE(int)     intcor
     19.26     -21.60       3.58        0.00      84.14       2.22       0.81       1.53       ----

> <Gold.Chemscore.Fitness>
19.2616

> <Gold.Chemscore.DG>
-21.6006

> <Gold.Chemscore.ZeroCoef>
-5.4800

> <Gold.Chemscore.Hbond>
3.5812

> <Gold.Chemscore.Metal>
0.0000

> <Gold.Chemscore.Lipo>
84.1382

> <Gold.Chemscore.Internal_Hbond>
0.0000

> <Gold.Chemscore.DEClash>
0.8130

> <Gold.Chemscore.DEInternal>
1.5260

> <Gold.Chemscore.Rot>
2.2207

> <Gold.Chemscore.Internal.Correction>
   9.000000E+99

> <Gold.Chemscore.Hbonds>
donor molecule, donor type, donor heavy atom, donor atom, acceptor molecule, acceptor atom, score
      L1  H     1    27       P1 10747  0.91
      L1  H     9    35       P1  7948  0.93
      L1  H    12    36       P1  7948  0.99
      P1  H 10785 10796       L1     3  0.59

> <Gold.Chemscore.Hbond.Weighted>
-11.9613

> <Gold.Chemscore.Metal.Weighted>
-0.0000

> <Gold.Chemscore.Lipo.Weighted>
-9.8442

> <Gold.Chemscore.Internal_Hbond.Weighted>
0.0000

> <Gold.Chemscore.DEClash.Weighted>
0.8130

> <Gold.Chemscore.DEInternal.Weighted>
1.5260

> <Gold.Chemscore.Rot.Weighted>
5.6849

> <Gold.Chemscore.Internal.Correction.Weighted>
   9.000000E+99

> <Gold.Protein.RotatedTorsions>
[ 6907 6896 6895 6894 ] final -139.55 input  -60.11 | X-H torsion
[ 7974 7965 7964 7962 ] final -149.11 input  175.53 | X-H torsion
[ 8008 7997 7996 7995 ] final  -79.25 input   59.86 | X-H torsion
[ 10167 10162 10161 10158 ] final   76.90 input  -65.29 | X-H torsion
[ 10718 10713 10712 10709 ] final  -35.10 input   66.30 | X-H torsion
[ 10763 10752 10751 10750 ] final -121.18 input  -60.55 | X-H torsion
[ 11005 11000 10999 10996 ] final   56.50 input  -57.11 | X-H torsion

> <Gold.Protein.ActiveResidues>
 VAL166  LYS551  ARG553  GLY616  TRP617  ASP618  TYR619  PRO620  LYS621  CYS622 
 ASP623  PHE694  ASN695  SER759  ASP760  ASP761  ALA762  ILE779  LEU786  VAL792 
 PHE793  MET794  SER795  GLU796  ALA797  LYS798  CYS799  TRP800  GLU811  SER814 

> <Gold.Protein.RotatedAtoms>
  151.0493  133.5638  159.2643 H   0  0  0  0  0  0  0  0  0  0  0  0  # atno 6907 bound_to 6896
  151.2655  135.0667  159.9124 H   0  0  0  0  0  0  0  0  0  0  0  0  # atno 6908 bound_to 6896
  152.5379  134.0231  159.8045 H   0  0  0  0  0  0  0  0  0  0  0  0  # atno 6909 bound_to 6896
  144.7988  140.5108  143.5722 H   0  0  0  0  0  0  0  0  0  0  0  0  # atno 7974 bound_to 7965
  154.5767  140.0681  156.9044 H   0  0  0  0  0  0  0  0  0  0  0  0  # atno 8008 bound_to 7997
  155.2536  140.3353  155.4261 H   0  0  0  0  0  0  0  0  0  0  0  0  # atno 8009 bound_to 7997
  156.2159  140.1778  156.7575 H   0  0  0  0  0  0  0  0  0  0  0  0  # atno 8010 bound_to 7997
  139.9873  144.5782  150.7848 H   0  0  0  0  0  0  0  0  0  0  0  0  # atno 10167 bound_to 10162
  156.3426  130.4296  149.7774 H   0  0  0  0  0  0  0  0  0  0  0  0  # atno 10718 bound_to 10713
  154.8662  135.4177  154.2579 H   0  0  0  0  0  0  0  0  0  0  0  0  # atno 10763 bound_to 10752
  153.3513  135.6999  153.6792 H   0  0  0  0  0  0  0  0  0  0  0  0  # atno 10764 bound_to 10752
  153.5731  135.3587  155.2818 H   0  0  0  0  0  0  0  0  0  0  0  0  # atno 10765 bound_to 10752
  140.0525  134.5717  155.9247 H   0  0  0  0  0  0  0  0  0  0  0  0  # atno 11005 bound_to 11000
  145.5606  139.1479  143.3343 LP  0  0  0  0  0  0  0  0  0  0  0  0  # atno 17320 bound_to 7965
  146.2263  140.5742  142.8995 LP  0  0  0  0  0  0  0  0  0  0  0  0  # atno 17321 bound_to 7965
  140.7467  143.2895  151.3369 LP  0  0  0  0  0  0  0  0  0  0  0  0  # atno 17342 bound_to 10162
  139.6365  144.0620  152.2520 LP  0  0  0  0  0  0  0  0  0  0  0  0  # atno 17343 bound_to 10162
  156.5005  130.8126  151.3130 LP  0  0  0  0  0  0  0  0  0  0  0  0  # atno 17370 bound_to 10713
  157.7449  130.9946  150.2714 LP  0  0  0  0  0  0  0  0  0  0  0  0  # atno 17371 bound_to 10713
  141.1937  133.6580  156.5559 LP  0  0  0  0  0  0  0  0  0  0  0  0  # atno 17394 bound_to 11000
  140.3896  134.7452  157.4713 LP  0  0  0  0  0  0  0  0  0  0  0  0  # atno 17395 bound_to 11000

$$$$
