AV-unprocessed.smi:2027|AV-procd|sdf|8217|dock4
  -GOLD-   2272010483D 1   1.00000     0.00000
 Structure written by MMmdl.
 51 53  0  0  0  0  0  0  0  0  3 V2000
  153.1187  142.8513  160.8307 C   0  0  0  0  0  0  0  0  0  0  0  0
  152.3261  142.4671  159.5930 C   0  0  0  0  0  0  0  0  0  0  0  0
  152.7048  141.3047  158.8837 C   0  0  0  0  0  0  0  0  0  0  0  0
  151.9592  140.9781  157.7572 C   0  0  0  0  0  0  0  0  0  0  0  0
  152.0716  139.9123  156.8617 N   0  3  0  0  0  0  0  0  0  0  0  0
  151.1032  140.0140  155.9094 C   0  0  0  0  0  0  0  0  0  0  0  0
  150.3812  141.1365  156.1775 N   0  0  0  0  0  0  0  0  0  0  0  0
  149.2239  141.7071  155.4773 C   0  0  0  0  0  0  0  0  0  0  0  0
  148.6791  140.7991  154.3557 C   0  0  2  0  0  0  0  0  0  0  0  0
  149.6277  140.7992  153.3084 O   0  0  0  0  0  0  0  0  0  0  0  0
  147.3177  141.2558  153.7920 C   0  0  0  0  0  0  0  0  0  0  0  0
  146.5859  140.1319  153.1486 N   0  3  1  0  0  0  0  0  0  0  0  0
  147.0399  139.8772  151.7616 C   0  0  0  0  0  0  0  0  0  0  0  0
  146.5617  138.8911  153.9626 C   0  0  0  0  0  0  0  0  0  0  0  0
  145.7081  137.8320  153.3170 C   0  0  0  0  0  0  0  0  0  0  0  0
  144.4378  137.3497  153.7442 C   0  0  0  0  0  0  0  0  0  0  0  0
  143.9413  136.4258  152.9391 N   0  0  0  0  0  0  0  0  0  0  0  0
  144.8775  136.2763  151.9805 N   0  0  0  0  0  0  0  0  0  0  0  0
  144.6584  135.3255  150.9118 C   0  0  0  0  0  0  0  0  0  0  0  0
  145.9570  137.1079  152.1850 C   0  0  0  0  0  0  0  0  0  0  0  0
  150.8722  141.7637  157.3276 C   0  0  0  0  0  0  0  0  0  0  0  0
  150.4830  142.9096  158.0167 C   0  0  0  0  0  0  0  0  0  0  0  0
  151.2287  143.2585  159.1652 C   0  0  0  0  0  0  0  0  0  0  0  0
  150.8274  144.5032  159.9386 C   0  0  0  0  0  0  0  0  0  0  0  0
  153.9397  142.1568  161.0108 H   0  0  0  0  0  0  0  0  0  0  0  0
  152.4772  142.8448  161.7121 H   0  0  0  0  0  0  0  0  0  0  0  0
  153.5453  143.8482  160.7193 H   0  0  0  0  0  0  0  0  0  0  0  0
  153.5362  140.6951  159.2065 H   0  0  0  0  0  0  0  0  0  0  0  0
  150.9392  139.3283  155.0905 H   0  0  0  0  0  0  0  0  0  0  0  0
  148.4506  141.8896  156.2251 H   0  0  0  0  0  0  0  0  0  0  0  0
  149.5123  142.6836  155.0850 H   0  0  0  0  0  0  0  0  0  0  0  0
  148.6020  139.7792  154.7304 H   0  0  0  0  0  0  0  0  0  0  0  0
  149.3299  140.2154  152.6267 H   0  0  0  0  0  0  0  0  0  0  0  0
  146.6896  141.6820  154.5750 H   0  0  0  0  0  0  0  0  0  0  0  0
  147.4947  142.0666  153.0853 H   0  0  0  0  0  0  0  0  0  0  0  0
  148.0661  139.5080  151.7483 H   0  0  0  0  0  0  0  0  0  0  0  0
  146.9964  140.7832  151.1573 H   0  0  0  0  0  0  0  0  0  0  0  0
  146.4048  139.1338  151.2787 H   0  0  0  0  0  0  0  0  0  0  0  0
  147.5802  138.5173  154.0754 H   0  0  0  0  0  0  0  0  0  0  0  0
  146.2158  139.1280  154.9698 H   0  0  0  0  0  0  0  0  0  0  0  0
  143.8607  137.6498  154.6064 H   0  0  0  0  0  0  0  0  0  0  0  0
  145.5385  135.2732  150.2703 H   0  0  0  0  0  0  0  0  0  0  0  0
  143.8012  135.6354  150.3132 H   0  0  0  0  0  0  0  0  0  0  0  0
  144.4657  134.3366  151.3291 H   0  0  0  0  0  0  0  0  0  0  0  0
  146.8002  137.1220  151.5102 H   0  0  0  0  0  0  0  0  0  0  0  0
  149.6446  143.5095  157.6942 H   0  0  0  0  0  0  0  0  0  0  0  0
  149.9749  145.0026  159.4775 H   0  0  0  0  0  0  0  0  0  0  0  0
  151.6510  145.2168  159.9733 H   0  0  0  0  0  0  0  0  0  0  0  0
  150.5490  144.2452  160.9605 H   0  0  0  0  0  0  0  0  0  0  0  0
  145.6222  140.4288  153.0821 H   0  0  0  0  0  0  0  0  0  0  0  0
  152.7529  139.1646  156.9004 H   0  0  0  0  0  0  0  0  0  0  0  0
  1  2  1  0  0  0  0
  1 25  1  0  0  0  0
  1 26  1  0  0  0  0
  1 27  1  0  0  0  0
  2 23  1  0  0  0  0
  2  3  2  0  0  0  0
  3  4  1  0  0  0  0
  3 28  1  0  0  0  0
  4 21  2  0  0  0  0
  4  5  1  0  0  0  0
  5  6  2  0  0  0  0
  5 51  1  0  0  0  0
  6  7  1  0  0  0  0
  6 29  1  0  0  0  0
  7  8  1  0  0  0  0
  7 21  1  0  0  0  0
  8  9  1  0  0  0  0
  8 30  1  0  0  0  0
  8 31  1  0  0  0  0
  9 10  1  0  0  0  0
  9 11  1  0  0  0  0
  9 32  1  0  0  0  0
 10 33  1  0  0  0  0
 11 12  1  0  0  0  0
 11 34  1  0  0  0  0
 11 35  1  0  0  0  0
 12 13  1  0  0  0  0
 12 14  1  0  0  0  0
 12 50  1  0  0  0  0
 13 36  1  0  0  0  0
 13 37  1  0  0  0  0
 13 38  1  0  0  0  0
 14 15  1  0  0  0  0
 14 39  1  0  0  0  0
 14 40  1  0  0  0  0
 15 20  2  0  0  0  0
 15 16  1  0  0  0  0
 16 17  2  0  0  0  0
 16 41  1  0  0  0  0
 17 18  1  0  0  0  0
 18 19  1  0  0  0  0
 18 20  1  0  0  0  0
 19 42  1  0  0  0  0
 19 43  1  0  0  0  0
 19 44  1  0  0  0  0
 20 45  1  0  0  0  0
 21 22  1  0  0  0  0
 22 23  2  0  0  0  0
 22 46  1  0  0  0  0
 23 24  1  0  0  0  0
 24 47  1  0  0  0  0
 24 48  1  0  0  0  0
 24 49  1  0  0  0  0
M  CHG  1   5   1
M  CHG  1  12   1
M  END
> <s_m_source_file>
AV-unprocessed.smi

> <i_m_source_file_index>
2027

> <i_lp_mmshare_version>
43012

> <i_f3d_flags>
0

> <s_epik_input>
W0NIM11jKFtjSF0xKWMoW0NIM10pW2NIXWMoYzEyKW4oW2NIXW4yKVtDSDJdW0NASF0oW09IXSlbQ0gyXU4oW0NIM10pW0NIMl1jM1tjSF1ubihbQ0gzXSlbY0hdMw==

> <s_epik_cmdline>
J2VwaWtfcHl0aG9uJywgJy1waCcsICc3LjAnLCAnLXRuJywgJzgnLCAnLW1hJywgJzIwMCcsICctbWV0YWxfYmluZGluZycsICctaW1hZScsICc8aW5maWxlLm1hZT4nLCAnLW9tYWUnLCAnPG91dGZpbGUubWFlPic=

> <r_lp_tautomer_probability>
1

> <r_epik_Ionization_Penalty>
1.77469

> <r_epik_Ionization_Penalty_Charging>
1.77463

> <r_epik_Ionization_Penalty_Neutral>
6.41153e-05

> <r_epik_State_Penalty>
1.85225

> <r_epik_Charging_Adjusted_Penalty>
3.62688

> <i_epik_Tot_Q>
2

> <i_epik_Tot_abs_Q>
2

> <r_epik_Metal_State_Penalty>
1.92669

> <b_epik_Metal_Only>
0

> <s_lp_Force_Field>
OPLS_2005

> <r_lp_Energy>
21.1473

> <b_lp_Chiralities_Consistent>
1

> <s_lp_Variant>
AV-unprocessed.smi:2027-9

> <Gold.Version>
5.8.1

> <Gold.Id.Protein>
6NUR|6NUR_protein|mol2

> <Gold.PLP.Fitness>
60.0435

> <Gold.PLP.PLP>
-46.2246

> <Gold.PLP.part.hbond>
-3.1367

> <Gold.PLP.part.metal>
0.0000

> <Gold.PLP.part.buried>
-1.5504

> <Gold.PLP.part.nonpolar>
-42.7097

> <Gold.PLP.part.repulsive>
0.2532

> <Gold.PLP.ligand.clash>
0.0000

> <Gold.PLP.ligand.torsion>
0.6201

> <Gold.PLP.Chemscore.Hbond>
3.9355

> <Gold.PLP.Chemscore.CHOScore>
1.0000

> <Gold.PLP.Chemscore.Metal>
0.0000

> <Gold.Chemscore.Hbonds>
donor molecule, donor type, donor heavy atom, donor atom, acceptor molecule, acceptor atom, score
      L1  H    10    33       P1  7957  0.65
      L1  H    12    50       P1 10175  2.00
      P1  H  7989  7998       L1    10  0.27
      P1  H  8011  8017       L1    10  1.00
      L1  C    20    45       P1  7948  0.99

> <Gold.PLP.Chemscore.Internal.Correction>
0.2525

> <Gold.Rescore>
     Score         DG    S(hbond)    S(metal)    S(lipo)     H(rot)  DE(clash)    DE(int)     intcor
     19.11     -21.30       2.22        0.00     128.42       2.58       1.48       0.71       ----

> <Gold.Chemscore.Fitness>
19.1114

> <Gold.Chemscore.DG>
-21.2985

> <Gold.Chemscore.ZeroCoef>
-5.4800

> <Gold.Chemscore.Hbond>
2.2178

> <Gold.Chemscore.Metal>
0.0000

> <Gold.Chemscore.Lipo>
128.4168

> <Gold.Chemscore.Internal_Hbond>
0.0000

> <Gold.Chemscore.DEClash>
1.4772

> <Gold.Chemscore.DEInternal>
0.7100

> <Gold.Chemscore.Rot>
2.5836

> <Gold.Chemscore.Internal.Correction>
   9.000000E+99

> <Gold.Chemscore.Hbonds>
donor molecule, donor type, donor heavy atom, donor atom, acceptor molecule, acceptor atom, score
      L1  H    10    33       P1  7957  0.64
      L1  H    12    50       P1 10175  0.86
      P1  H  7989  7998       L1    10  0.22
      P1  H  8011  8017       L1    10  0.24

> <Gold.Chemscore.Hbond.Weighted>
-7.4076

> <Gold.Chemscore.Metal.Weighted>
-0.0000

> <Gold.Chemscore.Lipo.Weighted>
-15.0248

> <Gold.Chemscore.Internal_Hbond.Weighted>
0.0000

> <Gold.Chemscore.DEClash.Weighted>
1.4772

> <Gold.Chemscore.DEInternal.Weighted>
0.7100

> <Gold.Chemscore.Rot.Weighted>
6.6139

> <Gold.Chemscore.Internal.Correction.Weighted>
   9.000000E+99

> <Gold.Protein.RotatedTorsions>
[ 6907 6896 6895 6894 ] final  -68.59 input  -60.11 | X-H torsion
[ 7974 7965 7964 7962 ] final  -43.15 input  175.53 | X-H torsion
[ 8008 7997 7996 7995 ] final -179.27 input   59.86 | X-H torsion
[ 10167 10162 10161 10158 ] final  -62.70 input  -65.29 | X-H torsion
[ 10718 10713 10712 10709 ] final   47.94 input   66.30 | X-H torsion
[ 10763 10752 10751 10750 ] final  140.27 input  -60.55 | X-H torsion
[ 11005 11000 10999 10996 ] final   71.11 input  -57.11 | X-H torsion

> <Gold.Protein.ActiveResidues>
 VAL166  LYS551  ARG553  GLY616  TRP617  ASP618  TYR619  PRO620  LYS621  CYS622 
 ASP623  PHE694  ASN695  SER759  ASP760  ASP761  ALA762  ILE779  LEU786  VAL792 
 PHE793  MET794  SER795  GLU796  ALA797  LYS798  CYS799  TRP800  GLU811  SER814 

> <Gold.Protein.RotatedAtoms>
  150.7348  134.5717  159.5893 H   0  0  0  0  0  0  0  0  0  0  0  0  # atno 6907 bound_to 6896
  152.3154  134.7443  160.0335 H   0  0  0  0  0  0  0  0  0  0  0  0  # atno 6908 bound_to 6896
  151.7977  133.3330  159.3554 H   0  0  0  0  0  0  0  0  0  0  0  0  # atno 6909 bound_to 6896
  146.0047  140.7034  142.9253 H   0  0  0  0  0  0  0  0  0  0  0  0  # atno 7974 bound_to 7965
  156.0285  140.1277  157.0283 H   0  0  0  0  0  0  0  0  0  0  0  0  # atno 8008 bound_to 7997
  154.4340  140.1054  156.6136 H   0  0  0  0  0  0  0  0  0  0  0  0  # atno 8009 bound_to 7997
  155.5841  140.3468  155.4550 H   0  0  0  0  0  0  0  0  0  0  0  0  # atno 8010 bound_to 7997
  140.5921  143.2344  151.6116 H   0  0  0  0  0  0  0  0  0  0  0  0  # atno 10167 bound_to 10162
  157.4636  130.8211  149.7912 H   0  0  0  0  0  0  0  0  0  0  0  0  # atno 10718 bound_to 10713
  153.9200  135.3001  155.3448 H   0  0  0  0  0  0  0  0  0  0  0  0  # atno 10763 bound_to 10752
  154.7580  135.4948  153.9414 H   0  0  0  0  0  0  0  0  0  0  0  0  # atno 10764 bound_to 10752
  153.1147  135.6768  153.9542 H   0  0  0  0  0  0  0  0  0  0  0  0  # atno 10765 bound_to 10752
  139.9561  134.7142  156.0750 H   0  0  0  0  0  0  0  0  0  0  0  0  # atno 11005 bound_to 11000
  144.6931  140.3294  143.7218 LP  0  0  0  0  0  0  0  0  0  0  0  0  # atno 17320 bound_to 7965
  145.7434  139.1771  143.2363 LP  0  0  0  0  0  0  0  0  0  0  0  0  # atno 17321 bound_to 7965
  139.5234  144.3133  152.0974 LP  0  0  0  0  0  0  0  0  0  0  0  0  # atno 17342 bound_to 10162
  140.2300  144.4379  150.6304 LP  0  0  0  0  0  0  0  0  0  0  0  0  # atno 17343 bound_to 10162
  156.0040  130.3865  150.2500 LP  0  0  0  0  0  0  0  0  0  0  0  0  # atno 17370 bound_to 10713
  157.0679  131.0108  151.3200 LP  0  0  0  0  0  0  0  0  0  0  0  0  # atno 17371 bound_to 10713
  141.1232  133.6606  156.3269 LP  0  0  0  0  0  0  0  0  0  0  0  0  # atno 17394 bound_to 11000
  140.5606  134.5938  157.5432 LP  0  0  0  0  0  0  0  0  0  0  0  0  # atno 17395 bound_to 11000

$$$$
