AV-unprocessed.smi:1875|AV-procd|sdf|7612|dock8
  -GOLD-   22720 9333D 1   1.00000     0.00000
 Structure written by MMmdl.
 48 50  0  0  0  0  0  0  0  0  2 V2000
  146.0382  132.9153  155.8887 C   0  0  0  0  0  0  0  0  0  0  0  0
  147.3260  133.0955  155.1120 C   0  0  0  0  0  0  0  0  0  0  0  0
  147.6055  132.1739  154.1853 N   0  0  0  0  0  0  0  0  0  0  0  0
  148.7497  132.3354  153.4859 C   0  0  0  0  0  0  0  0  0  0  0  0
  149.6135  133.4251  153.7189 C   0  0  0  0  0  0  0  0  0  0  0  0
  149.2105  134.3357  154.7181 C   0  0  0  0  0  0  0  0  0  0  0  0
  150.0570  135.5379  155.0793 C   0  0  0  0  0  0  0  0  0  0  0  0
  149.4443  136.7691  154.5478 N   0  3  0  0  0  0  0  0  0  0  0  0
  150.3238  137.9536  154.5973 C   0  0  0  0  0  0  0  0  0  0  0  0
  149.5279  139.2204  154.9507 C   0  0  2  0  0  0  0  0  0  0  0  0
  148.5804  139.4645  153.9283 O   0  0  0  0  0  0  0  0  0  0  0  0
  150.4400  140.4517  155.1127 C   0  0  0  0  0  0  0  0  0  0  0  0
  151.3199  140.3419  156.2626 N   0  0  0  0  0  0  0  0  0  0  0  0
  152.1941  139.3501  156.5201 C   0  0  0  0  0  0  0  0  0  0  0  0
  152.9072  139.4417  157.6383 N   0  0  0  0  0  0  0  0  0  0  0  0
  152.4423  140.6327  158.1689 C   0  0  0  0  0  0  0  0  0  0  0  0
  152.7960  141.3057  159.3586 C   0  0  0  0  0  0  0  0  0  0  0  0
  152.1812  142.5286  159.7098 C   0  0  0  0  0  0  0  0  0  0  0  0
  152.5905  143.2166  161.0002 C   0  0  0  0  0  0  0  0  0  0  0  0
  151.1958  143.0974  158.8632 C   0  0  0  0  0  0  0  0  0  0  0  0
  150.5230  144.4110  159.2199 C   0  0  0  0  0  0  0  0  0  0  0  0
  150.8305  142.4382  157.6707 C   0  0  0  0  0  0  0  0  0  0  0  0
  151.4491  141.2216  157.3324 C   0  0  0  0  0  0  0  0  0  0  0  0
  148.0666  134.1660  155.4175 N   0  0  0  0  0  0  0  0  0  0  0  0
  145.7157  131.8733  155.8815 H   0  0  0  0  0  0  0  0  0  0  0  0
  145.2470  133.5217  155.4475 H   0  0  0  0  0  0  0  0  0  0  0  0
  146.1656  133.2202  156.9280 H   0  0  0  0  0  0  0  0  0  0  0  0
  148.9791  131.5903  152.7386 H   0  0  0  0  0  0  0  0  0  0  0  0
  150.5287  133.5504  153.1593 H   0  0  0  0  0  0  0  0  0  0  0  0
  150.1531  135.6098  156.1635 H   0  0  0  0  0  0  0  0  0  0  0  0
  151.0615  135.4162  154.6710 H   0  0  0  0  0  0  0  0  0  0  0  0
  149.1842  136.6029  153.5856 H   0  0  0  0  0  0  0  0  0  0  0  0
  151.0905  137.7778  155.3531 H   0  0  0  0  0  0  0  0  0  0  0  0
  150.8383  138.0763  153.6428 H   0  0  0  0  0  0  0  0  0  0  0  0
  148.9872  139.0568  155.8843 H   0  0  0  0  0  0  0  0  0  0  0  0
  149.0325  139.5165  153.0997 H   0  0  0  0  0  0  0  0  0  0  0  0
  151.0597  140.5797  154.2241 H   0  0  0  0  0  0  0  0  0  0  0  0
  149.8463  141.3614  155.2102 H   0  0  0  0  0  0  0  0  0  0  0  0
  152.3121  138.5117  155.8491 H   0  0  0  0  0  0  0  0  0  0  0  0
  153.5470  140.8725  160.0028 H   0  0  0  0  0  0  0  0  0  0  0  0
  151.7289  143.3435  161.6559 H   0  0  0  0  0  0  0  0  0  0  0  0
  153.0157  144.1988  160.7913 H   0  0  0  0  0  0  0  0  0  0  0  0
  153.3387  142.6360  161.5408 H   0  0  0  0  0  0  0  0  0  0  0  0
  149.8037  144.7105  158.4570 H   0  0  0  0  0  0  0  0  0  0  0  0
  151.2629  145.2065  159.3121 H   0  0  0  0  0  0  0  0  0  0  0  0
  149.9895  144.3221  160.1664 H   0  0  0  0  0  0  0  0  0  0  0  0
  150.0803  142.8605  157.0190 H   0  0  0  0  0  0  0  0  0  0  0  0
  148.6062  136.9641  155.0763 H   0  0  0  0  0  0  0  0  0  0  0  0
  1  2  1  0  0  0  0
  1 25  1  0  0  0  0
  1 26  1  0  0  0  0
  1 27  1  0  0  0  0
  2 24  1  0  0  0  0
  2  3  2  0  0  0  0
  3  4  1  0  0  0  0
  4  5  2  0  0  0  0
  4 28  1  0  0  0  0
  5  6  1  0  0  0  0
  5 29  1  0  0  0  0
  6  7  1  0  0  0  0
  6 24  2  0  0  0  0
  7  8  1  0  0  0  0
  7 30  1  0  0  0  0
  7 31  1  0  0  0  0
  8  9  1  0  0  0  0
  8 32  1  0  0  0  0
  8 48  1  0  0  0  0
  9 10  1  0  0  0  0
  9 33  1  0  0  0  0
  9 34  1  0  0  0  0
 10 11  1  0  0  0  0
 10 12  1  0  0  0  0
 10 35  1  0  0  0  0
 11 36  1  0  0  0  0
 12 13  1  0  0  0  0
 12 37  1  0  0  0  0
 12 38  1  0  0  0  0
 13 23  1  0  0  0  0
 13 14  1  0  0  0  0
 14 15  2  0  0  0  0
 14 39  1  0  0  0  0
 15 16  1  0  0  0  0
 16 23  2  0  0  0  0
 16 17  1  0  0  0  0
 17 18  2  0  0  0  0
 17 40  1  0  0  0  0
 18 19  1  0  0  0  0
 18 20  1  0  0  0  0
 19 41  1  0  0  0  0
 19 42  1  0  0  0  0
 19 43  1  0  0  0  0
 20 21  1  0  0  0  0
 20 22  2  0  0  0  0
 21 44  1  0  0  0  0
 21 45  1  0  0  0  0
 21 46  1  0  0  0  0
 22 23  1  0  0  0  0
 22 47  1  0  0  0  0
M  CHG  1   8   1
M  END
> <s_m_source_file>
AV-unprocessed.smi

> <i_m_source_file_index>
1875

> <i_lp_mmshare_version>
43012

> <i_f3d_flags>
0

> <s_epik_input>
W0NIM11jMW5bY0hdW2NIXWMobjEpW0NIMl1bTkhdW0NIMl1bQ0BIXShbT0hdKVtDSDJdbihbY0hdbjIpYyhjMjMpW2NIXWMoW0NIM10pYyhbY0hdMylbQ0gzXQ==

> <s_epik_cmdline>
J2VwaWtfcHl0aG9uJywgJy1waCcsICc3LjAnLCAnLXRuJywgJzgnLCAnLW1hJywgJzIwMCcsICctbWV0YWxfYmluZGluZycsICctaW1hZScsICc8aW5maWxlLm1hZT4nLCAnLW9tYWUnLCAnPG91dGZpbGUubWFlPic=

> <r_lp_tautomer_probability>
1

> <r_epik_Ionization_Penalty>
0.192455

> <r_epik_Ionization_Penalty_Charging>
0.102343

> <r_epik_Ionization_Penalty_Neutral>
0.0901122

> <r_epik_State_Penalty>
0.175389

> <r_epik_Charging_Adjusted_Penalty>
0.277732

> <i_epik_Tot_Q>
1

> <i_epik_Tot_abs_Q>
1

> <r_epik_Metal_State_Penalty>
0.167659

> <b_epik_Metal_Only>
0

> <s_epik_Chemistry_Notes>
This compound contains an electron-poor aromatic ring that is susceptible to covalent hydrolysis at low pH, typically resulting in measured values for nitrogen ring protonation that are around two units higher than predicted values.

> <s_lp_Force_Field>
OPLS_2005

> <r_lp_Energy>
2.18652

> <b_lp_Chiralities_Consistent>
1

> <s_lp_Variant>
AV-unprocessed.smi:1875-1

> <Gold.Version>
5.8.1

> <Gold.Id.Protein>
6NUR|6NUR_protein|mol2

> <Gold.PLP.Fitness>
57.1162

> <Gold.PLP.PLP>
-43.2181

> <Gold.PLP.part.hbond>
-3.0000

> <Gold.PLP.part.metal>
0.0000

> <Gold.PLP.part.buried>
-2.7647

> <Gold.PLP.part.nonpolar>
-36.6321

> <Gold.PLP.part.repulsive>
0.0964

> <Gold.PLP.ligand.clash>
0.0000

> <Gold.PLP.ligand.torsion>
0.5243

> <Gold.PLP.Chemscore.Hbond>
3.9500

> <Gold.PLP.Chemscore.CHOScore>
0.9979

> <Gold.PLP.Chemscore.Metal>
0.0000

> <Gold.Chemscore.Hbonds>
donor molecule, donor type, donor heavy atom, donor atom, acceptor molecule, acceptor atom, score
      L1  H     8    32       P1  7948  2.00
      L1  H    11    36       P1  7957  0.86
      P1  H  7997  8009       L1    15  0.67
      L1  C     4    28       P1 10747  0.97

> <Gold.PLP.Chemscore.Internal.Correction>
0.1031

> <Gold.Rescore>
     Score         DG    S(hbond)    S(metal)    S(lipo)     H(rot)  DE(clash)    DE(int)     intcor
     16.96     -18.93       1.99        0.00     119.49       2.80       1.50       0.47       ----

> <Gold.Chemscore.Fitness>
16.9550

> <Gold.Chemscore.DG>
-18.9251

> <Gold.Chemscore.ZeroCoef>
-5.4800

> <Gold.Chemscore.Hbond>
1.9895

> <Gold.Chemscore.Metal>
0.0000

> <Gold.Chemscore.Lipo>
119.4901

> <Gold.Chemscore.Internal_Hbond>
0.0000

> <Gold.Chemscore.DEClash>
1.5034

> <Gold.Chemscore.DEInternal>
0.4666

> <Gold.Chemscore.Rot>
2.8047

> <Gold.Chemscore.Internal.Correction>
   9.000000E+99

> <Gold.Chemscore.Hbonds>
donor molecule, donor type, donor heavy atom, donor atom, acceptor molecule, acceptor atom, score
      L1  H     8    32       P1  7948  0.98
      L1  H    11    36       P1  7957  0.84
      P1  H  7997  8009       L1    15  0.02

> <Gold.Chemscore.Hbond.Weighted>
-6.6448

> <Gold.Chemscore.Metal.Weighted>
-0.0000

> <Gold.Chemscore.Lipo.Weighted>
-13.9803

> <Gold.Chemscore.Internal_Hbond.Weighted>
0.0000

> <Gold.Chemscore.DEClash.Weighted>
1.5034

> <Gold.Chemscore.DEInternal.Weighted>
0.4666

> <Gold.Chemscore.Rot.Weighted>
7.1801

> <Gold.Chemscore.Internal.Correction.Weighted>
   9.000000E+99

> <Gold.Protein.RotatedTorsions>
[ 6907 6896 6895 6894 ] final  179.53 input  -60.11 | X-H torsion
[ 7974 7965 7964 7962 ] final  -54.32 input  175.53 | X-H torsion
[ 8008 7997 7996 7995 ] final  171.64 input   59.86 | X-H torsion
[ 10167 10162 10161 10158 ] final -166.70 input  -65.29 | X-H torsion
[ 10718 10713 10712 10709 ] final -118.28 input   66.30 | X-H torsion
[ 10763 10752 10751 10750 ] final -111.80 input  -60.55 | X-H torsion
[ 11005 11000 10999 10996 ] final -121.19 input  -57.11 | X-H torsion

> <Gold.Protein.ActiveResidues>
 VAL166  LYS551  ARG553  GLY616  TRP617  ASP618  TYR619  PRO620  LYS621  CYS622 
 ASP623  PHE694  ASN695  SER759  ASP760  ASP761  ALA762  ILE779  LEU786  VAL792 
 PHE793  MET794  SER795  GLU796  ALA797  LYS798  CYS799  TRP800  GLU811  SER814 

> <Gold.Protein.RotatedAtoms>
  151.6702  133.3314  159.3194 H   0  0  0  0  0  0  0  0  0  0  0  0  # atno 6907 bound_to 6896
  150.7871  134.6869  159.6484 H   0  0  0  0  0  0  0  0  0  0  0  0  # atno 6908 bound_to 6896
  152.3943  134.6394  160.0147 H   0  0  0  0  0  0  0  0  0  0  0  0  # atno 6909 bound_to 6896
  145.8869  140.8101  142.9811 H   0  0  0  0  0  0  0  0  0  0  0  0  # atno 7974 bound_to 7965
  156.1251  140.1506  156.9148 H   0  0  0  0  0  0  0  0  0  0  0  0  # atno 8008 bound_to 7997
  154.4865  140.0863  156.7540 H   0  0  0  0  0  0  0  0  0  0  0  0  # atno 8009 bound_to 7997
  155.4358  140.3429  155.4287 H   0  0  0  0  0  0  0  0  0  0  0  0  # atno 8010 bound_to 7997
  139.6098  144.0839  152.1830 H   0  0  0  0  0  0  0  0  0  0  0  0  # atno 10167 bound_to 10162
  156.1095  130.6237  150.9271 H   0  0  0  0  0  0  0  0  0  0  0  0  # atno 10718 bound_to 10713
  154.8318  135.4514  154.1095 H   0  0  0  0  0  0  0  0  0  0  0  0  # atno 10763 bound_to 10752
  153.2361  135.6911  153.7841 H   0  0  0  0  0  0  0  0  0  0  0  0  # atno 10764 bound_to 10752
  153.7206  135.3342  155.3242 H   0  0  0  0  0  0  0  0  0  0  0  0  # atno 10765 bound_to 10752
  141.0088  134.0294  157.3441 H   0  0  0  0  0  0  0  0  0  0  0  0  # atno 11005 bound_to 11000
  144.6729  140.1469  143.7433 LP  0  0  0  0  0  0  0  0  0  0  0  0  # atno 17320 bound_to 7965
  145.8956  139.2401  143.1524 LP  0  0  0  0  0  0  0  0  0  0  0  0  # atno 17321 bound_to 7965
  140.0455  144.5974  150.7377 LP  0  0  0  0  0  0  0  0  0  0  0  0  # atno 17342 bound_to 10162
  140.7310  143.2690  151.3950 LP  0  0  0  0  0  0  0  0  0  0  0  0  # atno 17343 bound_to 10162
  157.6274  131.0924  150.8506 LP  0  0  0  0  0  0  0  0  0  0  0  0  # atno 17370 bound_to 10713
  156.8620  130.5116  149.5303 LP  0  0  0  0  0  0  0  0  0  0  0  0  # atno 17371 bound_to 10713
  139.9078  135.0184  156.7563 LP  0  0  0  0  0  0  0  0  0  0  0  0  # atno 17394 bound_to 11000
  140.6767  133.9511  155.7887 LP  0  0  0  0  0  0  0  0  0  0  0  0  # atno 17395 bound_to 11000

$$$$
