AV-unprocessed.smi:911|AV-procd|sdf|4137|dock1
  -GOLD-   22720 2 43D 1   1.00000     0.00000
 Structure written by MMmdl.
 47 49  0  0  0  0  0  0  0  0  3 V2000
  144.6050  134.7612  162.2649 C   0  0  0  0  0  0  0  0  0  0  0  0
  145.8358  135.5529  161.7397 C   0  0  0  0  0  0  0  0  0  0  0  0
  145.2489  136.8633  161.1426 C   0  0  0  0  0  0  0  0  0  0  0  0
  146.9423  135.7729  162.7906 C   0  0  1  0  0  0  0  0  0  0  0  0
  147.4129  134.3394  163.1267 C   0  0  0  0  0  0  0  0  0  0  0  0
  147.2969  133.6209  161.7662 C   0  0  0  0  0  0  0  0  0  0  0  0
  146.8025  134.7493  160.8242 C   0  0  1  0  0  0  0  0  0  0  0  0
  146.1915  134.2010  159.5191 C   0  0  0  0  0  0  0  0  0  0  0  0
  148.0383  135.6859  160.6416 C   0  0  1  0  0  0  0  0  0  0  0  0
  147.9078  136.5925  159.5045 N   0  0  0  0  0  0  0  0  0  0  0  0
  148.7151  136.6795  158.4346 C   0  0  0  0  0  0  0  0  0  0  0  0
  149.7433  136.0159  158.3108 O   0  0  0  0  0  0  0  0  0  0  0  0
  148.2969  137.6377  157.3054 C   0  0  0  0  0  0  0  0  0  0  0  0
  149.2619  138.7225  157.0440 N   0  0  0  0  0  0  0  0  0  0  0  0
  150.3571  138.4060  156.2160 C   0  0  0  0  0  0  0  0  0  0  0  0
  151.2769  139.3240  155.8622 C   0  0  0  0  0  0  0  0  0  0  0  0
  152.3748  138.9872  154.9838 N   0  3  0  0  0  0  0  0  0  0  0  0
  153.2493  139.8248  154.7875 O   0  0  0  0  0  0  0  0  0  0  0  0
  152.3978  137.8782  154.4584 O   0  5  0  0  0  0  0  0  0  0  0  0
  151.1168  140.6705  156.3756 C   0  0  0  0  0  0  0  0  0  0  0  0
  150.0691  140.9814  157.1641 C   0  0  0  0  0  0  0  0  0  0  0  0
  149.0585  139.9843  157.5324 C   0  0  0  0  0  0  0  0  0  0  0  0
  148.0833  140.2695  158.2268 O   0  0  0  0  0  0  0  0  0  0  0  0
  148.0847  136.4390  161.9897 C   0  0  0  0  0  0  0  0  0  0  0  0
  144.0722  135.3383  163.0213 H   0  0  0  0  0  0  0  0  0  0  0  0
  144.8309  133.7990  162.7185 H   0  0  0  0  0  0  0  0  0  0  0  0
  143.8988  134.5647  161.4577 H   0  0  0  0  0  0  0  0  0  0  0  0
  145.9805  137.5948  160.8117 H   0  0  0  0  0  0  0  0  0  0  0  0
  144.6313  137.3773  161.8797 H   0  0  0  0  0  0  0  0  0  0  0  0
  144.6088  136.6479  160.2865 H   0  0  0  0  0  0  0  0  0  0  0  0
  146.6382  136.3458  163.6673 H   0  0  0  0  0  0  0  0  0  0  0  0
  148.4317  134.3189  163.5159 H   0  0  0  0  0  0  0  0  0  0  0  0
  146.7753  133.8715  163.8772 H   0  0  0  0  0  0  0  0  0  0  0  0
  148.2471  133.1912  161.4469 H   0  0  0  0  0  0  0  0  0  0  0  0
  146.5884  132.7937  161.8184 H   0  0  0  0  0  0  0  0  0  0  0  0
  146.9415  133.6709  158.9316 H   0  0  0  0  0  0  0  0  0  0  0  0
  145.7839  134.9963  158.8952 H   0  0  0  0  0  0  0  0  0  0  0  0
  145.3812  133.5015  159.7245 H   0  0  0  0  0  0  0  0  0  0  0  0
  148.9514  135.1001  160.5226 H   0  0  0  0  0  0  0  0  0  0  0  0
  147.0903  137.1849  159.5098 H   0  0  0  0  0  0  0  0  0  0  0  0
  148.1082  137.0498  156.4058 H   0  0  0  0  0  0  0  0  0  0  0  0
  147.3293  138.0687  157.5669 H   0  0  0  0  0  0  0  0  0  0  0  0
  150.3772  137.3798  155.8775 H   0  0  0  0  0  0  0  0  0  0  0  0
  151.8356  141.4391  156.1319 H   0  0  0  0  0  0  0  0  0  0  0  0
  149.9690  141.9911  157.5348 H   0  0  0  0  0  0  0  0  0  0  0  0
  147.9165  137.5099  161.8726 H   0  0  0  0  0  0  0  0  0  0  0  0
  149.0509  136.3290  162.4835 H   0  0  0  0  0  0  0  0  0  0  0  0
  1  2  1  0  0  0  0
  1 25  1  0  0  0  0
  1 26  1  0  0  0  0
  1 27  1  0  0  0  0
  2  7  1  0  0  0  0
  2  3  1  0  0  0  0
  2  4  1  0  0  0  0
  3 28  1  0  0  0  0
  3 29  1  0  0  0  0
  3 30  1  0  0  0  0
  4 24  1  0  0  0  0
  4  5  1  0  0  0  0
  4 31  1  0  0  0  0
  5  6  1  0  0  0  0
  5 32  1  0  0  0  0
  5 33  1  0  0  0  0
  6  7  1  0  0  0  0
  6 34  1  0  0  0  0
  6 35  1  0  0  0  0
  7  8  1  0  0  0  0
  7  9  1  0  0  0  0
  8 36  1  0  0  0  0
  8 37  1  0  0  0  0
  8 38  1  0  0  0  0
  9 10  1  0  0  0  0
  9 24  1  0  0  0  0
  9 39  1  0  0  0  0
 10 11  1  0  0  0  0
 10 40  1  0  0  0  0
 11 12  2  0  0  0  0
 11 13  1  0  0  0  0
 13 14  1  0  0  0  0
 13 41  1  0  0  0  0
 13 42  1  0  0  0  0
 14 22  1  0  0  0  0
 14 15  1  0  0  0  0
 15 16  2  0  0  0  0
 15 43  1  0  0  0  0
 16 17  1  0  0  0  0
 16 20  1  0  0  0  0
 17 18  2  0  0  0  0
 17 19  1  0  0  0  0
 20 21  2  0  0  0  0
 20 44  1  0  0  0  0
 21 22  1  0  0  0  0
 21 45  1  0  0  0  0
 22 23  2  0  0  0  0
 24 46  1  0  0  0  0
 24 47  1  0  0  0  0
M  CHG  1  17   1
M  CHG  1  19  -1
M  END
> <s_m_source_file>
AV-unprocessed.smi

> <i_m_source_file_index>
911

> <i_lp_mmshare_version>
43012

> <i_f3d_flags>
0

> <s_epik_input>
W0NIM11bQ0BdMTJDKFtDSDNdKShbQ0gzXSlbQ0BIXShbQ0gyXVtDSDJdMSlbQ0gyXVtDQEBIXTJbTkhdQyg9TylbQ0gyXW4zW2NIXWMoW04rXSg9TylbTy1dKVtjSF1bY0hdYzM9Tw==

> <s_epik_cmdline>
J2VwaWtfcHl0aG9uJywgJy1waCcsICc3LjAnLCAnLXRuJywgJzgnLCAnLW1hJywgJzIwMCcsICctbWV0YWxfYmluZGluZycsICctaW1hZScsICc8aW5maWxlLm1hZT4nLCAnLW9tYWUnLCAnPG91dGZpbGUubWFlPic=

> <r_lp_tautomer_probability>
1

> <r_epik_Ionization_Penalty>
2.04092e-08

> <r_epik_Ionization_Penalty_Charging>
8.54191e-11

> <r_epik_Ionization_Penalty_Neutral>
2.03238e-08

> <r_epik_State_Penalty>
-0

> <r_epik_Charging_Adjusted_Penalty>
8.54191e-11

> <i_epik_Tot_Q>
0

> <i_epik_Tot_abs_Q>
2

> <r_epik_Metal_State_Penalty>
-0

> <b_epik_Metal_Only>
0

> <s_lp_Force_Field>
OPLS_2005

> <r_lp_Energy>
66.6043

> <b_lp_Chiralities_Consistent>
1

> <s_lp_Variant>
AV-unprocessed.smi:911-2

> <Gold.Version>
5.8.1

> <Gold.Id.Protein>
6NUR|6NUR_protein|mol2

> <Gold.PLP.Fitness>
43.5586

> <Gold.PLP.PLP>
-37.0138

> <Gold.PLP.part.hbond>
-4.9302

> <Gold.PLP.part.metal>
0.0000

> <Gold.PLP.part.buried>
-2.8945

> <Gold.PLP.part.nonpolar>
-30.3029

> <Gold.PLP.part.repulsive>
0.2839

> <Gold.PLP.ligand.clash>
0.0000

> <Gold.PLP.ligand.torsion>
0.3338

> <Gold.PLP.Chemscore.Hbond>
2.3750

> <Gold.PLP.Chemscore.CHOScore>
0.0000

> <Gold.PLP.Chemscore.Metal>
0.0000

> <Gold.Chemscore.Hbonds>
donor molecule, donor type, donor heavy atom, donor atom, acceptor molecule, acceptor atom, score
      P1  H  6896  6909       L1    12  0.69
      P1  H  7989  7998       L1    18  0.03
      P1  H  7997  8009       L1    18  0.94
      P1  H 10752 10764       L1    19  0.24

> <Gold.PLP.Chemscore.Internal.Correction>
0.0873

> <Gold.Rescore>
     Score         DG    S(hbond)    S(metal)    S(lipo)     H(rot)  DE(clash)    DE(int)     intcor
     19.34     -21.08       2.57        0.00      93.32       1.53       1.36       0.38       ----

> <Gold.Chemscore.Fitness>
19.3385

> <Gold.Chemscore.DG>
-21.0780

> <Gold.Chemscore.ZeroCoef>
-5.4800

> <Gold.Chemscore.Hbond>
2.5721

> <Gold.Chemscore.Metal>
0.0000

> <Gold.Chemscore.Lipo>
93.3170

> <Gold.Chemscore.Internal_Hbond>
0.0000

> <Gold.Chemscore.DEClash>
1.3589

> <Gold.Chemscore.DEInternal>
0.3806

> <Gold.Chemscore.Rot>
1.5277

> <Gold.Chemscore.Internal.Correction>
   9.000000E+99

> <Gold.Chemscore.Hbonds>
donor molecule, donor type, donor heavy atom, donor atom, acceptor molecule, acceptor atom, score
      P1  H  6896  6909       L1    12  0.66
      P1  H  7997  8009       L1    18  0.92
      P1  H 10752 10764       L1    19  0.24

> <Gold.Chemscore.Hbond.Weighted>
-8.5909

> <Gold.Chemscore.Metal.Weighted>
-0.0000

> <Gold.Chemscore.Lipo.Weighted>
-10.9181

> <Gold.Chemscore.Internal_Hbond.Weighted>
0.0000

> <Gold.Chemscore.DEClash.Weighted>
1.3589

> <Gold.Chemscore.DEInternal.Weighted>
0.3806

> <Gold.Chemscore.Rot.Weighted>
3.9110

> <Gold.Chemscore.Internal.Correction.Weighted>
   9.000000E+99

> <Gold.Protein.RotatedTorsions>
[ 6907 6896 6895 6894 ] final   42.62 input  -60.11 | X-H torsion
[ 7974 7965 7964 7962 ] final  131.43 input  175.53 | X-H torsion
[ 8008 7997 7996 7995 ] final -106.17 input   59.86 | X-H torsion
[ 10167 10162 10161 10158 ] final  -16.97 input  -65.29 | X-H torsion
[ 10718 10713 10712 10709 ] final   95.80 input   66.30 | X-H torsion
[ 10763 10752 10751 10750 ] final  -87.94 input  -60.55 | X-H torsion
[ 11005 11000 10999 10996 ] final  138.22 input  -57.11 | X-H torsion

> <Gold.Protein.ActiveResidues>
 VAL166  LYS551  ARG553  GLY616  TRP617  ASP618  TYR619  PRO620  LYS621  CYS622 
 ASP623  PHE694  ASN695  SER759  ASP760  ASP761  ALA762  ILE779  LEU786  VAL792 
 PHE793  MET794  SER795  GLU796  ALA797  LYS798  CYS799  TRP800  GLU811  SER814 

> <Gold.Protein.RotatedAtoms>
  152.2101  134.8509  160.0498 H   0  0  0  0  0  0  0  0  0  0  0  0  # atno 6907 bound_to 6896
  151.9331  133.3611  159.3946 H   0  0  0  0  0  0  0  0  0  0  0  0  # atno 6908 bound_to 6896
  150.6974  134.4442  159.5350 H   0  0  0  0  0  0  0  0  0  0  0  0  # atno 6909 bound_to 6896
  145.0074  139.4253  143.5262 H   0  0  0  0  0  0  0  0  0  0  0  0  # atno 7974 bound_to 7965
  154.9106  140.0410  157.1944 H   0  0  0  0  0  0  0  0  0  0  0  0  # atno 8008 bound_to 7997
  154.8352  140.2905  155.5674 H   0  0  0  0  0  0  0  0  0  0  0  0  # atno 8009 bound_to 7997
  156.2989  140.2493  156.3285 H   0  0  0  0  0  0  0  0  0  0  0  0  # atno 8010 bound_to 7997
  140.7241  143.5063  150.9806 H   0  0  0  0  0  0  0  0  0  0  0  0  # atno 10167 bound_to 10162
  157.6934  131.0557  150.4395 H   0  0  0  0  0  0  0  0  0  0  0  0  # atno 10718 bound_to 10713
  154.6392  135.5395  153.7769 H   0  0  0  0  0  0  0  0  0  0  0  0  # atno 10763 bound_to 10752
  153.0324  135.6455  154.1186 H   0  0  0  0  0  0  0  0  0  0  0  0  # atno 10764 bound_to 10752
  154.1111  135.2926  155.3210 H   0  0  0  0  0  0  0  0  0  0  0  0  # atno 10765 bound_to 10752
  140.0169  134.9414  157.0393 H   0  0  0  0  0  0  0  0  0  0  0  0  # atno 11005 bound_to 11000
  146.3464  139.9499  142.8730 LP  0  0  0  0  0  0  0  0  0  0  0  0  # atno 17320 bound_to 7965
  145.2069  140.9879  143.4123 LP  0  0  0  0  0  0  0  0  0  0  0  0  # atno 17321 bound_to 7965
  139.8775  143.7114  152.3160 LP  0  0  0  0  0  0  0  0  0  0  0  0  # atno 17342 bound_to 10162
  139.7385  144.7565  151.0690 LP  0  0  0  0  0  0  0  0  0  0  0  0  # atno 17343 bound_to 10162
  156.4755  130.4062  149.6493 LP  0  0  0  0  0  0  0  0  0  0  0  0  # atno 17370 bound_to 10713
  156.3558  130.7455  151.2421 LP  0  0  0  0  0  0  0  0  0  0  0  0  # atno 17371 bound_to 10713
  140.4456  134.1636  155.7177 LP  0  0  0  0  0  0  0  0  0  0  0  0  # atno 17394 bound_to 11000
  141.1748  133.8535  157.1455 LP  0  0  0  0  0  0  0  0  0  0  0  0  # atno 17395 bound_to 11000

$$$$
