AV-unprocessed.smi:787|AV-procd|sdf|3729|dock10
  -GOLD-   22720 1163D 1   1.00000     0.00000
 Structure written by MMmdl.
 46 48  0  0  0  0  0  0  0  0  1 V2000
  146.2392  142.7799  157.0765 C   0  0  0  0  0  0  0  0  0  0  0  0
  146.8200  141.7363  156.2465 N   0  0  0  0  0  0  0  0  0  0  0  0
  148.1964  141.4740  156.2965 C   0  0  0  0  0  0  0  0  0  0  0  0
  148.9532  142.0146  157.2798 N   0  0  0  0  0  0  0  0  0  0  0  0
  150.2654  141.7456  157.2791 C   0  0  0  0  0  0  0  0  0  0  0  0
  150.9751  140.9960  156.4214 N   0  0  0  0  0  0  0  0  0  0  0  0
  150.2333  140.4511  155.4475 C   0  0  0  0  0  0  0  0  0  0  0  0
  150.6982  139.6339  154.4313 N   0  0  0  0  0  0  0  0  0  0  0  0
  149.5794  139.3753  153.7587 C   0  0  0  0  0  0  0  0  0  0  0  0
  148.4394  139.9342  154.2102 N   0  0  0  0  0  0  0  0  0  0  0  0
  147.1128  139.7969  153.6364 C   0  0  0  0  0  0  0  0  0  0  0  0
  146.9368  138.4559  152.9003 C   0  0  2  0  0  0  0  0  0  0  0  0
  147.3933  138.6318  151.5749 O   0  0  0  0  0  0  0  0  0  0  0  0
  145.4640  137.9925  152.8468 C   0  0  0  0  0  0  0  0  0  0  0  0
  145.2551  136.5520  152.6549 N   0  0  0  0  0  0  0  0  0  0  0  0
  145.9828  135.8054  153.6739 C   0  0  0  0  0  0  0  0  0  0  0  0
  145.6799  136.0804  151.3312 C   0  0  0  0  0  0  0  0  0  0  0  0
  145.4117  134.6176  151.0291 C   0  0  0  0  0  0  0  0  0  0  0  0
  146.4847  133.7304  150.7986 C   0  0  0  0  0  0  0  0  0  0  0  0
  146.2319  132.3769  150.5022 C   0  0  0  0  0  0  0  0  0  0  0  0
  144.9061  131.9093  150.4207 C   0  0  0  0  0  0  0  0  0  0  0  0
  143.8334  132.7949  150.6388 C   0  0  0  0  0  0  0  0  0  0  0  0
  144.0849  134.1452  150.9484 C   0  0  0  0  0  0  0  0  0  0  0  0
  148.8256  140.6571  155.3362 C   0  0  0  0  0  0  0  0  0  0  0  0
  145.1669  142.8463  156.8931 H   0  0  0  0  0  0  0  0  0  0  0  0
  146.6848  143.7484  156.8483 H   0  0  0  0  0  0  0  0  0  0  0  0
  146.3911  142.5640  158.1345 H   0  0  0  0  0  0  0  0  0  0  0  0
  146.2573  141.3229  155.5166 H   0  0  0  0  0  0  0  0  0  0  0  0
  150.8327  142.1999  158.0777 H   0  0  0  0  0  0  0  0  0  0  0  0
  149.5896  138.7459  152.8807 H   0  0  0  0  0  0  0  0  0  0  0  0
  146.3696  139.9038  154.4280 H   0  0  0  0  0  0  0  0  0  0  0  0
  146.9545  140.6335  152.9549 H   0  0  0  0  0  0  0  0  0  0  0  0
  147.5791  137.7159  153.3708 H   0  0  0  0  0  0  0  0  0  0  0  0
  147.9638  139.3846  151.5500 H   0  0  0  0  0  0  0  0  0  0  0  0
  144.9407  138.3047  153.7507 H   0  0  0  0  0  0  0  0  0  0  0  0
  144.9825  138.5496  152.0414 H   0  0  0  0  0  0  0  0  0  0  0  0
  145.8113  134.7338  153.5678 H   0  0  0  0  0  0  0  0  0  0  0  0
  145.6520  136.0891  154.6736 H   0  0  0  0  0  0  0  0  0  0  0  0
  147.0564  135.9876  153.6059 H   0  0  0  0  0  0  0  0  0  0  0  0
  145.2294  136.6993  150.5536 H   0  0  0  0  0  0  0  0  0  0  0  0
  146.7575  136.2162  151.2301 H   0  0  0  0  0  0  0  0  0  0  0  0
  147.5031  134.0863  150.8550 H   0  0  0  0  0  0  0  0  0  0  0  0
  147.0551  131.6982  150.3336 H   0  0  0  0  0  0  0  0  0  0  0  0
  144.7117  130.8716  150.1927 H   0  0  0  0  0  0  0  0  0  0  0  0
  142.8165  132.4362  150.5774 H   0  0  0  0  0  0  0  0  0  0  0  0
  143.2557  134.8157  151.1206 H   0  0  0  0  0  0  0  0  0  0  0  0
  1  2  1  0  0  0  0
  1 25  1  0  0  0  0
  1 26  1  0  0  0  0
  1 27  1  0  0  0  0
  2  3  1  0  0  0  0
  2 28  1  0  0  0  0
  3 24  1  0  0  0  0
  3  4  2  0  0  0  0
  4  5  1  0  0  0  0
  5  6  2  0  0  0  0
  5 29  1  0  0  0  0
  6  7  1  0  0  0  0
  7 24  2  0  0  0  0
  7  8  1  0  0  0  0
  8  9  2  0  0  0  0
  9 10  1  0  0  0  0
  9 30  1  0  0  0  0
 10 11  1  0  0  0  0
 10 24  1  0  0  0  0
 11 12  1  0  0  0  0
 11 31  1  0  0  0  0
 11 32  1  0  0  0  0
 12 13  1  0  0  0  0
 12 14  1  0  0  0  0
 12 33  1  0  0  0  0
 13 34  1  0  0  0  0
 14 15  1  0  0  0  0
 14 35  1  0  0  0  0
 14 36  1  0  0  0  0
 15 16  1  0  0  0  0
 15 17  1  0  0  0  0
 16 37  1  0  0  0  0
 16 38  1  0  0  0  0
 16 39  1  0  0  0  0
 17 18  1  0  0  0  0
 17 40  1  0  0  0  0
 17 41  1  0  0  0  0
 18 23  1  0  0  0  0
 18 19  2  0  0  0  0
 19 20  1  0  0  0  0
 19 42  1  0  0  0  0
 20 21  2  0  0  0  0
 20 43  1  0  0  0  0
 21 22  1  0  0  0  0
 21 44  1  0  0  0  0
 22 23  2  0  0  0  0
 22 45  1  0  0  0  0
 23 46  1  0  0  0  0
M  END
> <s_m_source_file>
AV-unprocessed.smi

> <i_m_source_file_index>
787

> <i_lp_mmshare_version>
43012

> <i_f3d_flags>
0

> <s_epik_input>
bjFbY0hdbmMoW05IXVtDSDNdKWMoYzEyKW4oW2NIXW4yKVtDSDJdW0NASF0oW09IXSlbQ0gyXU4oW0NIM10pW0NIMl1jM1tjSF1bY0hdW2NIXVtjSF1bY0hdMw==

> <s_epik_cmdline>
J2VwaWtfcHl0aG9uJywgJy1waCcsICc3LjAnLCAnLXRuJywgJzgnLCAnLW1hJywgJzIwMCcsICctbWV0YWxfYmluZGluZycsICctaW1hZScsICc8aW5maWxlLm1hZT4nLCAnLW9tYWUnLCAnPG91dGZpbGUubWFlPic=

> <r_lp_tautomer_probability>
0.999987

> <r_epik_Ionization_Penalty>
1.52367

> <r_epik_Ionization_Penalty_Charging>
0

> <r_epik_Ionization_Penalty_Neutral>
1.52367

> <r_epik_State_Penalty>
1.60995

> <r_epik_Charging_Adjusted_Penalty>
1.60995

> <i_epik_Tot_Q>
0

> <i_epik_Tot_abs_Q>
0

> <r_epik_Metal_State_Penalty>
1.60969

> <b_epik_Metal_Only>
0

> <s_lp_Force_Field>
OPLS_2005

> <r_lp_Energy>
20.724

> <b_lp_Chiralities_Consistent>
1

> <s_lp_Variant>
AV-unprocessed.smi:787-5

> <Gold.Version>
5.8.1

> <Gold.Id.Protein>
6NUR|6NUR_protein|mol2

> <Gold.PLP.Fitness>
46.5599

> <Gold.PLP.PLP>
-37.5552

> <Gold.PLP.part.hbond>
-4.0000

> <Gold.PLP.part.metal>
0.0000

> <Gold.PLP.part.buried>
-1.6758

> <Gold.PLP.part.nonpolar>
-33.3311

> <Gold.PLP.part.repulsive>
0.4753

> <Gold.PLP.ligand.clash>
0.0000

> <Gold.PLP.ligand.torsion>
0.9998

> <Gold.PLP.Chemscore.Hbond>
2.4940

> <Gold.PLP.Chemscore.CHOScore>
1.0620

> <Gold.PLP.Chemscore.Metal>
0.0000

> <Gold.Chemscore.Hbonds>
donor molecule, donor type, donor heavy atom, donor atom, acceptor molecule, acceptor atom, score
      L1  H    13    34       P1  7957  0.93
      P1  H  7954  7966       L1    13  0.60
      P1  H  7989  7998       L1     8  0.95
      L1  C     9    30       P1  7948  0.47
      L1  C     9    30       P1  7957  0.57

> <Gold.PLP.Chemscore.Internal.Correction>
0.3364

> <Gold.Rescore>
     Score         DG    S(hbond)    S(metal)    S(lipo)     H(rot)  DE(clash)    DE(int)     intcor
      8.65     -10.03       1.00        0.00      78.47       3.11       0.24       1.14       ----

> <Gold.Chemscore.Fitness>
8.6455

> <Gold.Chemscore.DG>
-10.0292

> <Gold.Chemscore.ZeroCoef>
-5.4800

> <Gold.Chemscore.Hbond>
0.9952

> <Gold.Chemscore.Metal>
0.0000

> <Gold.Chemscore.Lipo>
78.4660

> <Gold.Chemscore.Internal_Hbond>
0.0000

> <Gold.Chemscore.DEClash>
0.2398

> <Gold.Chemscore.DEInternal>
1.1440

> <Gold.Chemscore.Rot>
3.1075

> <Gold.Chemscore.Internal.Correction>
   9.000000E+99

> <Gold.Chemscore.Hbonds>
donor molecule, donor type, donor heavy atom, donor atom, acceptor molecule, acceptor atom, score
      L1  H    13    34       P1  7957  0.89
      P1  H  7954  7966       L1    13  0.04
      P1  H  7989  7998       L1     8  0.13

> <Gold.Chemscore.Hbond.Weighted>
-3.3238

> <Gold.Chemscore.Metal.Weighted>
-0.0000

> <Gold.Chemscore.Lipo.Weighted>
-9.1805

> <Gold.Chemscore.Internal_Hbond.Weighted>
0.0000

> <Gold.Chemscore.DEClash.Weighted>
0.2398

> <Gold.Chemscore.DEInternal.Weighted>
1.1440

> <Gold.Chemscore.Rot.Weighted>
7.9551

> <Gold.Chemscore.Internal.Correction.Weighted>
   9.000000E+99

> <Gold.Protein.RotatedTorsions>
[ 6907 6896 6895 6894 ] final   69.29 input  -60.11 | X-H torsion
[ 7974 7965 7964 7962 ] final  173.33 input  175.53 | X-H torsion
[ 8008 7997 7996 7995 ] final  -95.81 input   59.86 | X-H torsion
[ 10167 10162 10161 10158 ] final  -20.11 input  -65.29 | X-H torsion
[ 10718 10713 10712 10709 ] final   36.39 input   66.30 | X-H torsion
[ 10763 10752 10751 10750 ] final  139.04 input  -60.55 | X-H torsion
[ 11005 11000 10999 10996 ] final -168.51 input  -57.11 | X-H torsion

> <Gold.Protein.ActiveResidues>
 VAL166  LYS551  ARG553  GLY616  TRP617  ASP618  TYR619  PRO620  LYS621  CYS622 
 ASP623  PHE694  ASN695  SER759  ASP760  ASP761  ALA762  ILE779  LEU786  VAL792 
 PHE793  MET794  SER795  GLU796  ALA797  LYS798  CYS799  TRP800  GLU811  SER814 

> <Gold.Protein.RotatedAtoms>
  152.4676  134.5037  159.9732 H   0  0  0  0  0  0  0  0  0  0  0  0  # atno 6907 bound_to 6896
  151.5071  133.3486  159.2886 H   0  0  0  0  0  0  0  0  0  0  0  0  # atno 6908 bound_to 6896
  150.8669  134.8062  159.7187 H   0  0  0  0  0  0  0  0  0  0  0  0  # atno 6909 bound_to 6896
  144.7246  139.9632  143.6435 H   0  0  0  0  0  0  0  0  0  0  0  0  # atno 7974 bound_to 7965
  154.7662  140.0477  157.1014 H   0  0  0  0  0  0  0  0  0  0  0  0  # atno 8008 bound_to 7997
  154.9877  140.3109  155.4900 H   0  0  0  0  0  0  0  0  0  0  0  0  # atno 8009 bound_to 7997
  156.2913  140.2224  156.4980 H   0  0  0  0  0  0  0  0  0  0  0  0  # atno 8010 bound_to 7997
  140.7274  143.4753  151.0190 H   0  0  0  0  0  0  0  0  0  0  0  0  # atno 10167 bound_to 10162
  157.3343  130.7514  149.6868 H   0  0  0  0  0  0  0  0  0  0  0  0  # atno 10718 bound_to 10713
  153.8996  135.3023  155.3448 H   0  0  0  0  0  0  0  0  0  0  0  0  # atno 10763 bound_to 10752
  154.7677  135.4902  153.9589 H   0  0  0  0  0  0  0  0  0  0  0  0  # atno 10764 bound_to 10752
  153.1252  135.6791  153.9369 H   0  0  0  0  0  0  0  0  0  0  0  0  # atno 10765 bound_to 10752
  140.5412  134.5521  157.5100 H   0  0  0  0  0  0  0  0  0  0  0  0  # atno 11005 bound_to 11000
  146.0621  139.3614  143.0575 LP  0  0  0  0  0  0  0  0  0  0  0  0  # atno 17320 bound_to 7965
  145.8079  140.9740  143.0964 LP  0  0  0  0  0  0  0  0  0  0  0  0  # atno 17321 bound_to 7965
  139.8448  143.7516  152.3179 LP  0  0  0  0  0  0  0  0  0  0  0  0  # atno 17342 bound_to 10162
  139.7677  144.7486  151.0270 LP  0  0  0  0  0  0  0  0  0  0  0  0  # atno 17343 bound_to 10162
  155.9699  130.4186  150.4335 LP  0  0  0  0  0  0  0  0  0  0  0  0  # atno 17370 bound_to 10713
  157.2372  131.0517  151.2458 LP  0  0  0  0  0  0  0  0  0  0  0  0  # atno 17371 bound_to 10713
  139.9503  134.7629  156.0464 LP  0  0  0  0  0  0  0  0  0  0  0  0  # atno 17394 bound_to 11000
  141.1226  133.6608  156.3254 LP  0  0  0  0  0  0  0  0  0  0  0  0  # atno 17395 bound_to 11000

$$$$
