AV-unprocessed.smi:2442|AV-procd|sdf|9623|dock6
  -GOLD-   2272013253D 1   1.00000     0.00000
 Structure written by MMmdl.
 46 47  0  0  0  0  0  0  0  0  1 V2000
  152.0752  138.8220  154.9202 C   0  0  0  0  0  0  0  0  0  0  0  0
  151.3283  140.0263  154.8550 O   0  0  0  0  0  0  0  0  0  0  0  0
  149.9195  139.8393  154.9221 C   0  0  2  0  0  0  0  0  0  0  0  0
  149.4736  138.8094  153.8626 C   0  0  0  0  0  0  0  0  0  0  0  0
  147.9422  138.6824  153.8091 C   0  0  0  0  0  0  0  0  0  0  0  0
  147.2759  140.0434  153.5536 C   0  0  0  0  0  0  0  0  0  0  0  0
  147.7053  141.0763  154.6065 C   0  0  0  0  0  0  0  0  0  0  0  0
  149.2432  141.2063  154.6598 C   0  0  1  0  0  0  0  0  0  0  0  0
  149.6691  142.2441  155.6022 N   0  0  0  0  0  0  0  0  0  0  0  0
  150.0330  142.0799  156.8832 C   0  0  0  0  0  0  0  0  0  0  0  0
  150.1021  140.9917  157.4546 O   0  0  0  0  0  0  0  0  0  0  0  0
  150.2832  143.2549  157.4794 N   0  0  0  0  0  0  0  0  0  0  0  0
  150.6208  143.4292  158.8904 C   0  0  0  0  0  0  0  0  0  0  0  0
  152.1132  143.7584  159.1106 C   0  0  0  0  0  0  0  0  0  0  0  0
  152.6483  143.3703  160.4849 C   0  0  0  0  0  0  0  0  0  0  0  0
  152.3113  144.1586  161.6063 C   0  0  0  0  0  0  0  0  0  0  0  0
  152.7797  143.7703  162.8760 C   0  0  0  0  0  0  0  0  0  0  0  0
  153.5445  142.6788  163.0809 N   0  0  0  0  0  0  0  0  0  0  0  0
  153.8731  141.9304  162.0071 C   0  0  0  0  0  0  0  0  0  0  0  0
  153.4599  142.2261  160.6897 C   0  0  0  0  0  0  0  0  0  0  0  0
  153.8786  141.3139  159.5509 C   0  0  0  0  0  0  0  0  0  0  0  0
  153.1394  139.0519  154.8704 H   0  0  0  0  0  0  0  0  0  0  0  0
  151.8405  138.1532  154.0926 H   0  0  0  0  0  0  0  0  0  0  0  0
  151.8919  138.2970  155.8587 H   0  0  0  0  0  0  0  0  0  0  0  0
  149.6324  139.4764  155.9102 H   0  0  0  0  0  0  0  0  0  0  0  0
  149.8469  139.1080  152.8821 H   0  0  0  0  0  0  0  0  0  0  0  0
  149.9072  137.8319  154.0720 H   0  0  0  0  0  0  0  0  0  0  0  0
  147.6556  137.9771  153.0285 H   0  0  0  0  0  0  0  0  0  0  0  0
  147.5774  138.2678  154.7497 H   0  0  0  0  0  0  0  0  0  0  0  0
  147.5439  140.4010  152.5587 H   0  0  0  0  0  0  0  0  0  0  0  0
  146.1910  139.9338  153.5616 H   0  0  0  0  0  0  0  0  0  0  0  0
  147.2549  142.0428  154.3770 H   0  0  0  0  0  0  0  0  0  0  0  0
  147.3126  140.7772  155.5788 H   0  0  0  0  0  0  0  0  0  0  0  0
  149.5749  141.5554  153.6810 H   0  0  0  0  0  0  0  0  0  0  0  0
  149.6583  143.1883  155.2457 H   0  0  0  0  0  0  0  0  0  0  0  0
  150.2009  144.0944  156.9249 H   0  0  0  0  0  0  0  0  0  0  0  0
  149.9902  144.1992  159.3356 H   0  0  0  0  0  0  0  0  0  0  0  0
  150.3739  142.5055  159.4138 H   0  0  0  0  0  0  0  0  0  0  0  0
  152.7152  143.2843  158.3359 H   0  0  0  0  0  0  0  0  0  0  0  0
  152.2621  144.8301  158.9732 H   0  0  0  0  0  0  0  0  0  0  0  0
  151.6923  145.0374  161.5016 H   0  0  0  0  0  0  0  0  0  0  0  0
  152.5298  144.3509  163.7517 H   0  0  0  0  0  0  0  0  0  0  0  0
  154.4859  141.0642  162.2091 H   0  0  0  0  0  0  0  0  0  0  0  0
  154.6072  140.5759  159.8879 H   0  0  0  0  0  0  0  0  0  0  0  0
  154.3368  141.8833  158.7426 H   0  0  0  0  0  0  0  0  0  0  0  0
  153.0181  140.7739  159.1571 H   0  0  0  0  0  0  0  0  0  0  0  0
  1  2  1  0  0  0  0
  1 22  1  0  0  0  0
  1 23  1  0  0  0  0
  1 24  1  0  0  0  0
  2  3  1  0  0  0  0
  3  8  1  0  0  0  0
  3  4  1  0  0  0  0
  3 25  1  0  0  0  0
  4  5  1  0  0  0  0
  4 26  1  0  0  0  0
  4 27  1  0  0  0  0
  5  6  1  0  0  0  0
  5 28  1  0  0  0  0
  5 29  1  0  0  0  0
  6  7  1  0  0  0  0
  6 30  1  0  0  0  0
  6 31  1  0  0  0  0
  7  8  1  0  0  0  0
  7 32  1  0  0  0  0
  7 33  1  0  0  0  0
  8  9  1  0  0  0  0
  8 34  1  0  0  0  0
  9 10  1  0  0  0  0
  9 35  1  0  0  0  0
 10 11  2  0  0  0  0
 10 12  1  0  0  0  0
 12 13  1  0  0  0  0
 12 36  1  0  0  0  0
 13 14  1  0  0  0  0
 13 37  1  0  0  0  0
 13 38  1  0  0  0  0
 14 15  1  0  0  0  0
 14 39  1  0  0  0  0
 14 40  1  0  0  0  0
 15 20  1  0  0  0  0
 15 16  2  0  0  0  0
 16 17  1  0  0  0  0
 16 41  1  0  0  0  0
 17 18  2  0  0  0  0
 17 42  1  0  0  0  0
 18 19  1  0  0  0  0
 19 20  2  0  0  0  0
 19 43  1  0  0  0  0
 20 21  1  0  0  0  0
 21 44  1  0  0  0  0
 21 45  1  0  0  0  0
 21 46  1  0  0  0  0
M  END
> <s_m_source_file>
AV-unprocessed.smi

> <i_m_source_file_index>
2442

> <i_lp_mmshare_version>
43012

> <i_f3d_flags>
0

> <s_epik_input>
W0NIM11PW0NAQEhdMVtDSDJdW0NIMl1bQ0gyXVtDSDJdW0NASF0xW05IXUMoPU8pW05IXVtDSDJdW0NIMl1jMltjSF1bY0hdbltjSF1jMltDSDNd

> <s_epik_cmdline>
J2VwaWtfcHl0aG9uJywgJy1waCcsICc3LjAnLCAnLXRuJywgJzgnLCAnLW1hJywgJzIwMCcsICctbWV0YWxfYmluZGluZycsICctaW1hZScsICc8aW5maWxlLm1hZT4nLCAnLW9tYWUnLCAnPG91dGZpbGUubWFlPic=

> <r_epik_Ionization_Penalty>
0.106136

> <r_epik_Ionization_Penalty_Charging>
0

> <r_epik_Ionization_Penalty_Neutral>
0.106136

> <r_epik_State_Penalty>
0.0959393

> <r_epik_Charging_Adjusted_Penalty>
0.0959393

> <i_epik_Tot_Q>
0

> <i_epik_Tot_abs_Q>
0

> <r_epik_Metal_State_Penalty>
0.0812517

> <b_epik_Metal_Only>
0

> <s_lp_Force_Field>
OPLS_2005

> <r_lp_Energy>
10.1716

> <b_lp_Chiralities_Consistent>
1

> <s_lp_Variant>
AV-unprocessed.smi:2442-1

> <Gold.Version>
5.8.1

> <Gold.Id.Protein>
6NUR|6NUR_protein|mol2

> <Gold.PLP.Fitness>
53.0585

> <Gold.PLP.PLP>
-47.4109

> <Gold.PLP.part.hbond>
-3.0000

> <Gold.PLP.part.metal>
0.0000

> <Gold.PLP.part.buried>
-2.9094

> <Gold.PLP.part.nonpolar>
-43.0747

> <Gold.PLP.part.repulsive>
0.3534

> <Gold.PLP.ligand.clash>
0.0000

> <Gold.PLP.ligand.torsion>
0.8151

> <Gold.PLP.Chemscore.Hbond>
2.4080

> <Gold.PLP.Chemscore.CHOScore>
0.0000

> <Gold.PLP.Chemscore.Metal>
0.0000

> <Gold.Chemscore.Hbonds>
donor molecule, donor type, donor heavy atom, donor atom, acceptor molecule, acceptor atom, score
      L1  H     9    35       P1  8028  0.77
      L1  H    12    36       P1  8028  0.69
      P1  H  7989  7998       L1     2  1.00

> <Gold.PLP.Chemscore.Internal.Correction>
0.0537

> <Gold.Rescore>
     Score         DG    S(hbond)    S(metal)    S(lipo)     H(rot)  DE(clash)    DE(int)     intcor
     22.96     -25.25       2.65        0.00     129.25       1.64       0.14       2.14       ----

> <Gold.Chemscore.Fitness>
22.9644

> <Gold.Chemscore.DG>
-25.2483

> <Gold.Chemscore.ZeroCoef>
-5.4800

> <Gold.Chemscore.Hbond>
2.6466

> <Gold.Chemscore.Metal>
0.0000

> <Gold.Chemscore.Lipo>
129.2483

> <Gold.Chemscore.Internal_Hbond>
0.0000

> <Gold.Chemscore.DEClash>
0.1430

> <Gold.Chemscore.DEInternal>
2.1409

> <Gold.Chemscore.Rot>
1.6380

> <Gold.Chemscore.Internal.Correction>
   9.000000E+99

> <Gold.Chemscore.Hbonds>
donor molecule, donor type, donor heavy atom, donor atom, acceptor molecule, acceptor atom, score
      L1  H     9    35       P1  8028  0.76
      L1  H    12    36       P1  8028  0.68
      P1  H  7989  7998       L1     2  0.53

> <Gold.Chemscore.Hbond.Weighted>
-8.8396

> <Gold.Chemscore.Metal.Weighted>
-0.0000

> <Gold.Chemscore.Lipo.Weighted>
-15.1221

> <Gold.Chemscore.Internal_Hbond.Weighted>
0.0000

> <Gold.Chemscore.DEClash.Weighted>
0.1430

> <Gold.Chemscore.DEInternal.Weighted>
2.1409

> <Gold.Chemscore.Rot.Weighted>
4.1934

> <Gold.Chemscore.Internal.Correction.Weighted>
   9.000000E+99

> <Gold.Protein.RotatedTorsions>
[ 6907 6896 6895 6894 ] final   61.81 input  -60.11 | X-H torsion
[ 7974 7965 7964 7962 ] final  -64.85 input  175.53 | X-H torsion
[ 8008 7997 7996 7995 ] final  128.88 input   59.86 | X-H torsion
[ 10167 10162 10161 10158 ] final -143.35 input  -65.29 | X-H torsion
[ 10718 10713 10712 10709 ] final  -36.35 input   66.30 | X-H torsion
[ 10763 10752 10751 10750 ] final   42.51 input  -60.55 | X-H torsion
[ 11005 11000 10999 10996 ] final -109.58 input  -57.11 | X-H torsion

> <Gold.Protein.ActiveResidues>
 VAL166  LYS551  ARG553  GLY616  TRP617  ASP618  TYR619  PRO620  LYS621  CYS622 
 ASP623  PHE694  ASN695  SER759  ASP760  ASP761  ALA762  ILE779  LEU786  VAL792 
 PHE793  MET794  SER795  GLU796  ALA797  LYS798  CYS799  TRP800  GLU811  SER814 

> <Gold.Protein.RotatedAtoms>
  152.4120  134.6108  160.0024 H   0  0  0  0  0  0  0  0  0  0  0  0  # atno 6907 bound_to 6896
  151.6282  133.3328  159.3111 H   0  0  0  0  0  0  0  0  0  0  0  0  # atno 6908 bound_to 6896
  150.8010  134.7144  159.6667 H   0  0  0  0  0  0  0  0  0  0  0  0  # atno 6909 bound_to 6896
  145.7615  140.8859  143.0427 H   0  0  0  0  0  0  0  0  0  0  0  0  # atno 7974 bound_to 7965
  156.2924  140.2634  156.2507 H   0  0  0  0  0  0  0  0  0  0  0  0  # atno 8008 bound_to 7997
  154.9885  140.0389  157.2327 H   0  0  0  0  0  0  0  0  0  0  0  0  # atno 8009 bound_to 7997
  154.7707  140.2777  155.6145 H   0  0  0  0  0  0  0  0  0  0  0  0  # atno 8010 bound_to 7997
  139.8001  143.7845  152.2657 H   0  0  0  0  0  0  0  0  0  0  0  0  # atno 10167 bound_to 10162
  156.3279  130.4275  149.7899 H   0  0  0  0  0  0  0  0  0  0  0  0  # atno 10718 bound_to 10713
  152.9881  135.6129  154.2961 H   0  0  0  0  0  0  0  0  0  0  0  0  # atno 10763 bound_to 10752
  154.2684  135.2780  155.2750 H   0  0  0  0  0  0  0  0  0  0  0  0  # atno 10764 bound_to 10752
  154.5144  135.5832  153.6687 H   0  0  0  0  0  0  0  0  0  0  0  0  # atno 10765 bound_to 10752
  141.0840  133.9171  157.2227 H   0  0  0  0  0  0  0  0  0  0  0  0  # atno 11005 bound_to 11000
  144.6829  139.9730  143.7482 LP  0  0  0  0  0  0  0  0  0  0  0  0  # atno 17320 bound_to 7965
  146.0259  139.3292  143.0784 LP  0  0  0  0  0  0  0  0  0  0  0  0  # atno 17321 bound_to 7965
  139.7962  144.7391  150.9887 LP  0  0  0  0  0  0  0  0  0  0  0  0  # atno 17342 bound_to 10162
  140.7820  143.4391  151.0579 LP  0  0  0  0  0  0  0  0  0  0  0  0  # atno 17343 bound_to 10162
  156.5183  130.8203  151.3194 LP  0  0  0  0  0  0  0  0  0  0  0  0  # atno 17370 bound_to 10713
  157.7425  130.9891  150.2519 LP  0  0  0  0  0  0  0  0  0  0  0  0  # atno 17371 bound_to 10713
  139.9656  135.0143  156.9378 LP  0  0  0  0  0  0  0  0  0  0  0  0  # atno 17394 bound_to 11000
  140.5405  134.0724  155.7340 LP  0  0  0  0  0  0  0  0  0  0  0  0  # atno 17395 bound_to 11000

$$$$
