AV-unprocessed.smi:1912|AV-procd|sdf|7748|dock3
  -GOLD-   22720 9483D 1   1.00000     0.00000
 Structure written by MMmdl.
 43 45  0  0  0  0  0  0  0  0  1 V2000
  145.9948  143.2474  154.4131 C   0  0  0  0  0  0  0  0  0  0  0  0
  146.2315  141.9750  153.8283 O   0  0  0  0  0  0  0  0  0  0  0  0
  147.3436  141.2692  154.2351 C   0  0  0  0  0  0  0  0  0  0  0  0
  147.9135  140.3811  153.3046 C   0  0  0  0  0  0  0  0  0  0  0  0
  149.0567  139.6292  153.6306 C   0  0  0  0  0  0  0  0  0  0  0  0
  149.6569  139.7452  154.9085 C   0  0  0  0  0  0  0  0  0  0  0  0
  150.7885  139.0481  155.2815 O   0  0  0  0  0  0  0  0  0  0  0  0
  151.4444  138.2491  154.3086 C   0  0  0  0  0  0  0  0  0  0  0  0
  149.0796  140.6242  155.8576 C   0  0  0  0  0  0  0  0  0  0  0  0
  149.7098  140.7699  157.2402 C   0  0  2  0  0  0  0  0  0  0  0  0
  149.0369  141.7061  158.0618 O   0  0  0  0  0  0  0  0  0  0  0  0
  151.2007  141.1457  157.1316 C   0  0  0  0  0  0  0  0  0  0  0  0
  151.7506  141.6323  158.3889 N   0  0  0  0  0  0  0  0  0  0  0  0
  152.4337  140.9273  159.3239 C   0  0  0  0  0  0  0  0  0  0  0  0
  152.7255  139.4690  159.1563 C   0  0  0  0  0  0  0  0  0  0  0  0
  152.8307  141.6141  160.3952 N   0  0  0  0  0  0  0  0  0  0  0  0
  152.3637  142.8870  160.1286 C   0  0  0  0  0  0  0  0  0  0  0  0
  152.4648  144.0785  160.8818 C   0  0  0  0  0  0  0  0  0  0  0  0
  151.9021  145.2784  160.3988 C   0  0  0  0  0  0  0  0  0  0  0  0
  151.2304  145.3037  159.1594 C   0  0  0  0  0  0  0  0  0  0  0  0
  151.1175  144.1276  158.3934 C   0  0  0  0  0  0  0  0  0  0  0  0
  151.6825  142.9330  158.8788 C   0  0  0  0  0  0  0  0  0  0  0  0
  147.9388  141.3856  155.5145 C   0  0  0  0  0  0  0  0  0  0  0  0
  145.0892  143.6773  153.9851 H   0  0  0  0  0  0  0  0  0  0  0  0
  146.8142  143.9384  154.2104 H   0  0  0  0  0  0  0  0  0  0  0  0
  145.8453  143.1694  155.4908 H   0  0  0  0  0  0  0  0  0  0  0  0
  147.4723  140.2791  152.3238 H   0  0  0  0  0  0  0  0  0  0  0  0
  149.4565  138.9698  152.8757 H   0  0  0  0  0  0  0  0  0  0  0  0
  152.3180  137.7796  154.7608 H   0  0  0  0  0  0  0  0  0  0  0  0
  151.7922  138.8498  153.4671 H   0  0  0  0  0  0  0  0  0  0  0  0
  150.7948  137.4530  153.9426 H   0  0  0  0  0  0  0  0  0  0  0  0
  149.6181  139.8164  157.7600 H   0  0  0  0  0  0  0  0  0  0  0  0
  149.6825  142.1923  158.5515 H   0  0  0  0  0  0  0  0  0  0  0  0
  151.7849  140.2827  156.8113 H   0  0  0  0  0  0  0  0  0  0  0  0
  151.3459  141.9072  156.3642 H   0  0  0  0  0  0  0  0  0  0  0  0
  153.2624  139.0841  160.0240 H   0  0  0  0  0  0  0  0  0  0  0  0
  153.3426  139.3060  158.2727 H   0  0  0  0  0  0  0  0  0  0  0  0
  151.7997  138.9042  159.0497 H   0  0  0  0  0  0  0  0  0  0  0  0
  152.9767  144.0693  161.8327 H   0  0  0  0  0  0  0  0  0  0  0  0
  151.9858  146.1835  160.9824 H   0  0  0  0  0  0  0  0  0  0  0  0
  150.8014  146.2264  158.7969 H   0  0  0  0  0  0  0  0  0  0  0  0
  150.6008  144.1428  157.4453 H   0  0  0  0  0  0  0  0  0  0  0  0
  147.5312  142.0635  156.2485 H   0  0  0  0  0  0  0  0  0  0  0  0
  1  2  1  0  0  0  0
  1 24  1  0  0  0  0
  1 25  1  0  0  0  0
  1 26  1  0  0  0  0
  2  3  1  0  0  0  0
  3 23  1  0  0  0  0
  3  4  2  0  0  0  0
  4  5  1  0  0  0  0
  4 27  1  0  0  0  0
  5  6  2  0  0  0  0
  5 28  1  0  0  0  0
  6  7  1  0  0  0  0
  6  9  1  0  0  0  0
  7  8  1  0  0  0  0
  8 29  1  0  0  0  0
  8 30  1  0  0  0  0
  8 31  1  0  0  0  0
  9 10  1  0  0  0  0
  9 23  2  0  0  0  0
 10 11  1  0  0  0  0
 10 12  1  0  0  0  0
 10 32  1  0  0  0  0
 11 33  1  0  0  0  0
 12 13  1  0  0  0  0
 12 34  1  0  0  0  0
 12 35  1  0  0  0  0
 13 22  1  0  0  0  0
 13 14  1  0  0  0  0
 14 15  1  0  0  0  0
 14 16  2  0  0  0  0
 15 36  1  0  0  0  0
 15 37  1  0  0  0  0
 15 38  1  0  0  0  0
 16 17  1  0  0  0  0
 17 22  2  0  0  0  0
 17 18  1  0  0  0  0
 18 19  2  0  0  0  0
 18 39  1  0  0  0  0
 19 20  1  0  0  0  0
 19 40  1  0  0  0  0
 20 21  2  0  0  0  0
 20 41  1  0  0  0  0
 21 22  1  0  0  0  0
 21 42  1  0  0  0  0
 23 43  1  0  0  0  0
M  END
> <s_m_source_file>
AV-unprocessed.smi

> <i_m_source_file_index>
1912

> <i_lp_mmshare_version>
43012

> <i_f3d_flags>
0

> <s_epik_input>
W0NIM11PYzFbY0hdW2NIXWMoT1tDSDNdKWMoW2NIXTEpW0NASF0oW09IXSlbQ0gyXW4oYyhuMilbQ0gzXSljKGMyMylbY0hdW2NIXVtjSF1bY0hdMw==

> <s_epik_cmdline>
J2VwaWtfcHl0aG9uJywgJy1waCcsICc3LjAnLCAnLXRuJywgJzgnLCAnLW1hJywgJzIwMCcsICctbWV0YWxfYmluZGluZycsICctaW1hZScsICc8aW5maWxlLm1hZT4nLCAnLW9tYWUnLCAnPG91dGZpbGUubWFlPic=

> <r_lp_tautomer_probability>
1

> <r_epik_Ionization_Penalty>
0.129663

> <r_epik_Ionization_Penalty_Charging>
0

> <r_epik_Ionization_Penalty_Neutral>
0.129663

> <r_epik_State_Penalty>
0.119073

> <r_epik_Charging_Adjusted_Penalty>
0.119073

> <i_epik_Tot_Q>
0

> <i_epik_Tot_abs_Q>
0

> <r_epik_Metal_State_Penalty>
0.000131867

> <b_epik_Metal_Only>
0

> <s_lp_Force_Field>
OPLS_2005

> <r_lp_Energy>
18.8247

> <b_lp_Chiralities_Consistent>
1

> <s_lp_Variant>
AV-unprocessed.smi:1912-1

> <Gold.Version>
5.8.1

> <Gold.Id.Protein>
6NUR|6NUR_protein|mol2

> <Gold.PLP.Fitness>
42.8637

> <Gold.PLP.PLP>
-44.5945

> <Gold.PLP.part.hbond>
0.0000

> <Gold.PLP.part.metal>
0.0000

> <Gold.PLP.part.buried>
-2.0750

> <Gold.PLP.part.nonpolar>
-42.9025

> <Gold.PLP.part.repulsive>
0.2448

> <Gold.PLP.ligand.clash>
0.0000

> <Gold.PLP.ligand.torsion>
0.9184

> <Gold.PLP.Chemscore.Hbond>
0.0000

> <Gold.PLP.Chemscore.CHOScore>
0.0000

> <Gold.PLP.Chemscore.Metal>
0.0000

> <Gold.PLP.Chemscore.Internal.Correction>
0.1059

> <Gold.Rescore>
     Score         DG    S(hbond)    S(metal)    S(lipo)     H(rot)  DE(clash)    DE(int)     intcor
     11.43     -14.67       0.00        0.00     125.98       2.17       0.24       2.99       ----

> <Gold.Chemscore.Fitness>
11.4337

> <Gold.Chemscore.DG>
-14.6669

> <Gold.Chemscore.ZeroCoef>
-5.4800

> <Gold.Chemscore.Hbond>
0.0000

> <Gold.Chemscore.Metal>
0.0000

> <Gold.Chemscore.Lipo>
125.9791

> <Gold.Chemscore.Internal_Hbond>
0.0000

> <Gold.Chemscore.DEClash>
0.2442

> <Gold.Chemscore.DEInternal>
2.9891

> <Gold.Chemscore.Rot>
2.1690

> <Gold.Chemscore.Internal.Correction>
   9.000000E+99

> <Gold.Chemscore.Hbond.Weighted>
-0.0000

> <Gold.Chemscore.Metal.Weighted>
-0.0000

> <Gold.Chemscore.Lipo.Weighted>
-14.7396

> <Gold.Chemscore.Internal_Hbond.Weighted>
0.0000

> <Gold.Chemscore.DEClash.Weighted>
0.2442

> <Gold.Chemscore.DEInternal.Weighted>
2.9891

> <Gold.Chemscore.Rot.Weighted>
5.5526

> <Gold.Chemscore.Internal.Correction.Weighted>
   9.000000E+99

> <Gold.Protein.RotatedTorsions>
[ 6907 6896 6895 6894 ] final  -44.20 input  -60.11 | X-H torsion
[ 7974 7965 7964 7962 ] final -159.76 input  175.53 | X-H torsion
[ 8008 7997 7996 7995 ] final  -33.09 input   59.86 | X-H torsion
[ 10167 10162 10161 10158 ] final -135.23 input  -65.29 | X-H torsion
[ 10718 10713 10712 10709 ] final   56.53 input   66.30 | X-H torsion
[ 10763 10752 10751 10750 ] final  -96.49 input  -60.55 | X-H torsion
[ 11005 11000 10999 10996 ] final  -19.50 input  -57.11 | X-H torsion

> <Gold.Protein.ActiveResidues>
 VAL166  LYS551  ARG553  GLY616  TRP617  ASP618  TYR619  PRO620  LYS621  CYS622 
 ASP623  PHE694  ASN695  SER759  ASP760  ASP761  ALA762  ILE779  LEU786  VAL792 
 PHE793  MET794  SER795  GLU796  ALA797  LYS798  CYS799  TRP800  GLU811  SER814 

> <Gold.Protein.RotatedAtoms>
  150.9355  134.8767  159.7578 H   0  0  0  0  0  0  0  0  0  0  0  0  # atno 6907 bound_to 6896
  152.5057  134.4018  159.9429 H   0  0  0  0  0  0  0  0  0  0  0  0  # atno 6908 bound_to 6896
  151.4042  133.3708  159.2771 H   0  0  0  0  0  0  0  0  0  0  0  0  # atno 6909 bound_to 6896
  144.7453  140.3639  143.6090 H   0  0  0  0  0  0  0  0  0  0  0  0  # atno 7974 bound_to 7965
  154.4159  140.1720  156.1832 H   0  0  0  0  0  0  0  0  0  0  0  0  # atno 8008 bound_to 7997
  155.9665  140.3389  155.6513 H   0  0  0  0  0  0  0  0  0  0  0  0  # atno 8009 bound_to 7997
  155.6681  140.0708  157.2520 H   0  0  0  0  0  0  0  0  0  0  0  0  # atno 8010 bound_to 7997
  139.8800  143.6850  152.2628 H   0  0  0  0  0  0  0  0  0  0  0  0  # atno 10167 bound_to 10162
  157.5439  130.8716  149.8862 H   0  0  0  0  0  0  0  0  0  0  0  0  # atno 10718 bound_to 10713
  154.7244  135.5081  153.8863 H   0  0  0  0  0  0  0  0  0  0  0  0  # atno 10763 bound_to 10752
  153.0891  135.6654  153.9897 H   0  0  0  0  0  0  0  0  0  0  0  0  # atno 10764 bound_to 10752
  153.9713  135.3038  155.3406 H   0  0  0  0  0  0  0  0  0  0  0  0  # atno 10765 bound_to 10752
  140.8373  133.7952  155.9822 H   0  0  0  0  0  0  0  0  0  0  0  0  # atno 11005 bound_to 11000
  145.7148  139.1694  143.2518 LP  0  0  0  0  0  0  0  0  0  0  0  0  # atno 17320 bound_to 7965
  146.1320  140.7173  142.9407 LP  0  0  0  0  0  0  0  0  0  0  0  0  # atno 17321 bound_to 7965
  139.7204  144.7603  151.0964 LP  0  0  0  0  0  0  0  0  0  0  0  0  # atno 17342 bound_to 10162
  140.7746  143.5215  150.9531 LP  0  0  0  0  0  0  0  0  0  0  0  0  # atno 17343 bound_to 10162
  156.0519  130.3716  150.1181 LP  0  0  0  0  0  0  0  0  0  0  0  0  # atno 17370 bound_to 10713
  156.9359  130.9729  151.3525 LP  0  0  0  0  0  0  0  0  0  0  0  0  # atno 17371 bound_to 10713
  140.8933  134.2468  157.5082 LP  0  0  0  0  0  0  0  0  0  0  0  0  # atno 17394 bound_to 11000
  139.8704  134.9672  156.4589 LP  0  0  0  0  0  0  0  0  0  0  0  0  # atno 17395 bound_to 11000

$$$$
