AV-unprocessed.smi:470|AV-procd|sdf|2654|dock2
  -GOLD-   2262023 63D 1   1.00000     0.00000
 Structure written by MMmdl.
 33 34  0  0  0  0  0  0  0  0  1 V2000
  149.1400  138.8625  153.0648 N   0  0  0  0  0  0  0  0  0  0  0  0
  147.8948  139.3420  153.1299 C   0  0  0  0  0  0  0  0  0  0  0  0
  146.9163  138.6787  152.7926 O   0  0  0  0  0  0  0  0  0  0  0  0
  147.7215  140.7699  153.6505 C   0  0  0  0  0  0  0  0  0  0  0  0
  148.3251  140.9013  155.0185 C   0  0  0  0  0  0  0  0  0  0  0  0
  147.8434  140.3658  156.1885 C   0  0  0  0  0  0  0  0  0  0  0  0
  148.8434  140.7756  157.5563 S   0  0  0  0  0  0  0  0  0  0  0  0
  149.9158  141.6389  156.4651 C   0  0  0  0  0  0  0  0  0  0  0  0
  151.0540  142.3443  156.9352 N   0  0  0  0  0  0  0  0  0  0  0  0
  151.2971  142.9212  158.1300 C   0  0  0  0  0  0  0  0  0  0  0  0
  150.4507  142.8394  159.0191 O   0  0  0  0  0  0  0  0  0  0  0  0
  152.6331  143.6482  158.4224 C   0  0  2  0  0  0  0  0  0  0  0  0
  153.4867  142.9150  159.4906 C   0  0  0  0  0  0  0  0  0  0  0  0
  153.0860  143.2412  160.9206 C   0  0  0  0  0  0  0  0  0  0  0  0
  152.3088  144.2856  161.2528 C   0  0  0  0  0  0  0  0  0  0  0  0
  151.7363  145.2565  160.2367 C   0  0  0  0  0  0  0  0  0  0  0  0
  152.4029  145.1168  158.8521 C   0  0  0  0  0  0  0  0  0  0  0  0
  149.5043  141.6331  155.1935 N   0  0  0  0  0  0  0  0  0  0  0  0
  149.2993  137.9270  152.7202 H   0  0  0  0  0  0  0  0  0  0  0  0
  149.9176  139.4386  153.3533 H   0  0  0  0  0  0  0  0  0  0  0  0
  148.1959  141.4643  152.9557 H   0  0  0  0  0  0  0  0  0  0  0  0
  146.6610  141.0261  153.6637 H   0  0  0  0  0  0  0  0  0  0  0  0
  146.9561  139.7662  156.3283 H   0  0  0  0  0  0  0  0  0  0  0  0
  151.8000  142.4352  156.2610 H   0  0  0  0  0  0  0  0  0  0  0  0
  153.2361  143.6303  157.5165 H   0  0  0  0  0  0  0  0  0  0  0  0
  153.4289  141.8347  159.3489 H   0  0  0  0  0  0  0  0  0  0  0  0
  154.5376  143.1803  159.3717 H   0  0  0  0  0  0  0  0  0  0  0  0
  153.4726  142.5931  161.6934 H   0  0  0  0  0  0  0  0  0  0  0  0
  152.0521  144.4561  162.2880 H   0  0  0  0  0  0  0  0  0  0  0  0
  150.6634  145.0763  160.1632 H   0  0  0  0  0  0  0  0  0  0  0  0
  151.8595  146.2752  160.6047 H   0  0  0  0  0  0  0  0  0  0  0  0
  153.3696  145.6214  158.8764 H   0  0  0  0  0  0  0  0  0  0  0  0
  151.8107  145.6528  158.1103 H   0  0  0  0  0  0  0  0  0  0  0  0
  1  2  1  0  0  0  0
  1 19  1  0  0  0  0
  1 20  1  0  0  0  0
  2  3  2  0  0  0  0
  2  4  1  0  0  0  0
  4  5  1  0  0  0  0
  4 21  1  0  0  0  0
  4 22  1  0  0  0  0
  5 18  1  0  0  0  0
  5  6  2  0  0  0  0
  6  7  1  0  0  0  0
  6 23  1  0  0  0  0
  7  8  1  0  0  0  0
  8  9  1  0  0  0  0
  8 18  2  0  0  0  0
  9 10  1  0  0  0  0
  9 24  1  0  0  0  0
 10 11  2  0  0  0  0
 10 12  1  0  0  0  0
 12 17  1  0  0  0  0
 12 13  1  0  0  0  0
 12 25  1  0  0  0  0
 13 14  1  0  0  0  0
 13 26  1  0  0  0  0
 13 27  1  0  0  0  0
 14 15  2  0  0  0  0
 14 28  1  0  0  0  0
 15 16  1  0  0  0  0
 15 29  1  0  0  0  0
 16 17  1  0  0  0  0
 16 30  1  0  0  0  0
 16 31  1  0  0  0  0
 17 32  1  0  0  0  0
 17 33  1  0  0  0  0
M  END
> <s_m_source_file>
AV-unprocessed.smi

> <i_m_source_file_index>
470

> <i_lp_mmshare_version>
43012

> <i_f3d_flags>
0

> <s_epik_input>
W05IMl1DKD1PKVtDSDJdYzFbY0hdc2MobjEpW05IXUMoPU8pW0NAQEhdMltDSDJdW0NIXT1bQ0hdW0NIMl1bQ0gyXTI=

> <s_epik_cmdline>
J2VwaWtfcHl0aG9uJywgJy1waCcsICc3LjAnLCAnLXRuJywgJzgnLCAnLW1hJywgJzIwMCcsICctbWV0YWxfYmluZGluZycsICctaW1hZScsICc8aW5maWxlLm1hZT4nLCAnLW9tYWUnLCAnPG91dGZpbGUubWFlPic=

> <r_lp_tautomer_probability>
1

> <r_epik_Ionization_Penalty>
0.00025496

> <r_epik_Ionization_Penalty_Charging>
0

> <r_epik_Ionization_Penalty_Neutral>
0.00025496

> <r_epik_State_Penalty>
-0

> <r_epik_Charging_Adjusted_Penalty>
0

> <i_epik_Tot_Q>
0

> <i_epik_Tot_abs_Q>
0

> <r_epik_Metal_State_Penalty>
0.149391

> <b_epik_Metal_Only>
0

> <s_lp_Force_Field>
OPLS_2005

> <r_lp_Energy>
11.789

> <b_lp_Chiralities_Consistent>
1

> <s_lp_Variant>
AV-unprocessed.smi:470-1

> <Gold.Version>
5.8.1

> <Gold.Id.Protein>
6NUR|6NUR_protein|mol2

> <Gold.PLP.Fitness>
42.2677

> <Gold.PLP.PLP>
-39.9231

> <Gold.PLP.part.hbond>
-2.5329

> <Gold.PLP.part.metal>
0.0000

> <Gold.PLP.part.buried>
-5.3902

> <Gold.PLP.part.nonpolar>
-32.8997

> <Gold.PLP.part.repulsive>
0.6181

> <Gold.PLP.ligand.clash>
0.0000

> <Gold.PLP.ligand.torsion>
0.3472

> <Gold.PLP.Chemscore.Hbond>
1.0000

> <Gold.PLP.Chemscore.CHOScore>
0.0000

> <Gold.PLP.Chemscore.Metal>
0.0000

> <Gold.Chemscore.Hbonds>
donor molecule, donor type, donor heavy atom, donor atom, acceptor molecule, acceptor atom, score
      L1  H     1    19       P1  7948  1.00

> <Gold.PLP.Chemscore.Internal.Correction>
0.0390

> <Gold.Rescore>
     Score         DG    S(hbond)    S(metal)    S(lipo)     H(rot)  DE(clash)    DE(int)     intcor
     12.67     -14.37       1.00        0.00      88.98       1.90       0.00       1.70       ----

> <Gold.Chemscore.Fitness>
12.6678

> <Gold.Chemscore.DG>
-14.3745

> <Gold.Chemscore.ZeroCoef>
-5.4800

> <Gold.Chemscore.Hbond>
0.9998

> <Gold.Chemscore.Metal>
0.0000

> <Gold.Chemscore.Lipo>
88.9822

> <Gold.Chemscore.Internal_Hbond>
0.0000

> <Gold.Chemscore.DEClash>
0.0021

> <Gold.Chemscore.DEInternal>
1.7045

> <Gold.Chemscore.Rot>
1.8968

> <Gold.Chemscore.Internal.Correction>
   9.000000E+99

> <Gold.Chemscore.Hbonds>
donor molecule, donor type, donor heavy atom, donor atom, acceptor molecule, acceptor atom, score
      L1  H     1    19       P1  7948  0.92

> <Gold.Chemscore.Hbond.Weighted>
-3.3394

> <Gold.Chemscore.Metal.Weighted>
-0.0000

> <Gold.Chemscore.Lipo.Weighted>
-10.4109

> <Gold.Chemscore.Internal_Hbond.Weighted>
0.0000

> <Gold.Chemscore.DEClash.Weighted>
0.0021

> <Gold.Chemscore.DEInternal.Weighted>
1.7045

> <Gold.Chemscore.Rot.Weighted>
4.8558

> <Gold.Chemscore.Internal.Correction.Weighted>
   9.000000E+99

> <Gold.Protein.RotatedTorsions>
[ 6907 6896 6895 6894 ] final -124.34 input  -60.11 | X-H torsion
[ 7974 7965 7964 7962 ] final  -43.52 input  175.53 | X-H torsion
[ 8008 7997 7996 7995 ] final -109.80 input   59.86 | X-H torsion
[ 10167 10162 10161 10158 ] final -122.02 input  -65.29 | X-H torsion
[ 10718 10713 10712 10709 ] final  -63.33 input   66.30 | X-H torsion
[ 10763 10752 10751 10750 ] final  131.94 input  -60.55 | X-H torsion
[ 11005 11000 10999 10996 ] final   71.82 input  -57.11 | X-H torsion

> <Gold.Protein.ActiveResidues>
 VAL166  LYS551  ARG553  GLY616  TRP617  ASP618  TYR619  PRO620  LYS621  CYS622 
 ASP623  PHE694  ASN695  SER759  ASP760  ASP761  ALA762  ILE779  LEU786  VAL792 
 PHE793  MET794  SER795  GLU796  ALA797  LYS798  CYS799  TRP800  GLU811  SER814 

> <Gold.Protein.RotatedAtoms>
  150.8759  133.7440  159.2946 H   0  0  0  0  0  0  0  0  0  0  0  0  # atno 6907 bound_to 6896
  151.5037  135.1061  159.9845 H   0  0  0  0  0  0  0  0  0  0  0  0  # atno 6908 bound_to 6896
  152.4727  133.8021  159.7014 H   0  0  0  0  0  0  0  0  0  0  0  0  # atno 6909 bound_to 6896
  146.0011  140.7073  142.9270 H   0  0  0  0  0  0  0  0  0  0  0  0  # atno 7974 bound_to 7965
  154.9648  140.0398  157.2207 H   0  0  0  0  0  0  0  0  0  0  0  0  # atno 8008 bound_to 7997
  154.7855  140.2826  155.6008 H   0  0  0  0  0  0  0  0  0  0  0  0  # atno 8009 bound_to 7997
  156.2942  140.2583  156.2691 H   0  0  0  0  0  0  0  0  0  0  0  0  # atno 8010 bound_to 7997
  140.0187  143.5366  152.2230 H   0  0  0  0  0  0  0  0  0  0  0  0  # atno 10167 bound_to 10162
  156.0798  130.4219  150.1262 H   0  0  0  0  0  0  0  0  0  0  0  0  # atno 10718 bound_to 10713
  153.7825  135.3166  155.3367 H   0  0  0  0  0  0  0  0  0  0  0  0  # atno 10763 bound_to 10752
  154.8156  135.4638  154.0637 H   0  0  0  0  0  0  0  0  0  0  0  0  # atno 10764 bound_to 10752
  153.1930  135.6911  153.8413 H   0  0  0  0  0  0  0  0  0  0  0  0  # atno 10765 bound_to 10752
  139.9523  134.7205  156.0833 H   0  0  0  0  0  0  0  0  0  0  0  0  # atno 11005 bound_to 11000
  144.6919  140.3234  143.7228 LP  0  0  0  0  0  0  0  0  0  0  0  0  # atno 17320 bound_to 7965
  145.7486  139.1786  143.2334 LP  0  0  0  0  0  0  0  0  0  0  0  0  # atno 17321 bound_to 7965
  139.6155  144.7618  151.2857 LP  0  0  0  0  0  0  0  0  0  0  0  0  # atno 17342 bound_to 10162
  140.7351  143.6745  150.8053 LP  0  0  0  0  0  0  0  0  0  0  0  0  # atno 17343 bound_to 10162
  156.9295  130.9709  151.3535 LP  0  0  0  0  0  0  0  0  0  0  0  0  # atno 17370 bound_to 10713
  157.5910  130.8443  149.8658 LP  0  0  0  0  0  0  0  0  0  0  0  0  # atno 17371 bound_to 10713
  141.1189  133.6619  156.3163 LP  0  0  0  0  0  0  0  0  0  0  0  0  # atno 17394 bound_to 11000
  140.5689  134.5860  157.5453 LP  0  0  0  0  0  0  0  0  0  0  0  0  # atno 17395 bound_to 11000

$$$$
