AV-unprocessed.smi:3145|AV-procd|sdf|11983|dock3
  -GOLD-   2272017383D 1   1.00000     0.00000
 Structure written by MMmdl.
 34 34  0  0  0  0  0  0  0  0  3 V2000
  151.6587  144.0764  158.0878 C   0  0  0  0  0  0  0  0  0  0  0  0
  150.7754  142.8389  158.3203 C   0  0  2  0  0  0  0  0  0  0  0  0
  151.5785  141.6199  158.8304 C   0  0  0  0  0  0  0  0  0  0  0  0
  152.2296  141.8586  160.1059 N   0  0  0  0  0  0  0  0  0  0  0  0
  153.5008  141.4978  160.5009 C   0  0  0  0  0  0  0  0  0  0  0  0
  153.6642  141.9285  161.7862 C   0  0  0  0  0  0  0  0  0  0  0  0
  152.4195  142.5438  162.0974 C   0  0  0  0  0  0  0  0  0  0  0  0
  151.5616  142.4973  161.0907 N   0  0  0  0  0  0  0  0  0  0  0  0
  150.0555  142.5144  157.0702 N   0  3  0  0  0  0  0  0  0  0  0  0
  150.8389  141.7837  156.0516 C   0  0  0  0  0  0  0  0  0  0  0  0
  149.8792  141.0433  155.1180 C   0  0  0  0  0  0  0  0  0  0  0  0
  149.9636  139.8136  155.0438 O   0  0  0  0  0  0  0  0  0  0  0  0
  149.0494  141.9163  154.4832 N   0  5  0  0  0  0  0  0  0  0  0  0
  147.9145  141.5043  153.6612 C   0  0  0  0  0  0  0  0  0  0  0  0
  146.6038  141.9914  154.2975 C   0  0  0  0  0  0  0  0  0  0  0  0
  146.0377  143.1939  153.6607 C   0  0  0  0  0  0  0  0  0  0  0  0
  145.5924  144.1378  153.1573 N   0  0  0  0  0  0  0  0  0  0  0  0
  152.1224  144.4195  159.0131 H   0  0  0  0  0  0  0  0  0  0  0  0
  151.0714  144.9080  157.6964 H   0  0  0  0  0  0  0  0  0  0  0  0
  152.4551  143.8669  157.3732 H   0  0  0  0  0  0  0  0  0  0  0  0
  150.0305  143.1105  159.0700 H   0  0  0  0  0  0  0  0  0  0  0  0
  150.9331  140.7486  158.9443 H   0  0  0  0  0  0  0  0  0  0  0  0
  152.3444  141.3462  158.1032 H   0  0  0  0  0  0  0  0  0  0  0  0
  154.1762  140.9729  159.8414 H   0  0  0  0  0  0  0  0  0  0  0  0
  154.5391  141.8188  162.4098 H   0  0  0  0  0  0  0  0  0  0  0  0
  152.1156  143.0177  163.0192 H   0  0  0  0  0  0  0  0  0  0  0  0
  149.2767  141.9146  157.3052 H   0  0  0  0  0  0  0  0  0  0  0  0
  151.4506  142.4769  155.4736 H   0  0  0  0  0  0  0  0  0  0  0  0
  151.5137  141.0710  156.5288 H   0  0  0  0  0  0  0  0  0  0  0  0
  147.9789  141.8947  152.6446 H   0  0  0  0  0  0  0  0  0  0  0  0
  147.8723  140.4193  153.5615 H   0  0  0  0  0  0  0  0  0  0  0  0
  145.8496  141.2069  154.2329 H   0  0  0  0  0  0  0  0  0  0  0  0
  146.7480  142.2057  155.3571 H   0  0  0  0  0  0  0  0  0  0  0  0
  149.6887  143.3606  156.6596 H   0  0  0  0  0  0  0  0  0  0  0  0
  1  2  1  0  0  0  0
  1 18  1  0  0  0  0
  1 19  1  0  0  0  0
  1 20  1  0  0  0  0
  2  3  1  0  0  0  0
  2  9  1  0  0  0  0
  2 21  1  0  0  0  0
  3  4  1  0  0  0  0
  3 22  1  0  0  0  0
  3 23  1  0  0  0  0
  4  8  1  0  0  0  0
  4  5  1  0  0  0  0
  5  6  2  0  0  0  0
  5 24  1  0  0  0  0
  6  7  1  0  0  0  0
  6 25  1  0  0  0  0
  7  8  2  0  0  0  0
  7 26  1  0  0  0  0
  9 10  1  0  0  0  0
  9 27  1  0  0  0  0
  9 34  1  0  0  0  0
 10 11  1  0  0  0  0
 10 28  1  0  0  0  0
 10 29  1  0  0  0  0
 11 12  2  0  0  0  0
 11 13  1  0  0  0  0
 13 14  1  0  0  0  0
 14 15  1  0  0  0  0
 14 30  1  0  0  0  0
 14 31  1  0  0  0  0
 15 16  1  0  0  0  0
 15 32  1  0  0  0  0
 15 33  1  0  0  0  0
 16 17  3  0  0  0  0
M  CHG  1   9   1
M  CHG  1  13  -1
M  END
> <s_m_source_file>
AV-unprocessed.smi

> <i_m_source_file_index>
3145

> <i_lp_mmshare_version>
43012

> <i_f3d_flags>
0

> <s_epik_input>
bjFbY0hdW2NIXVtjSF1uMVtDSDJdW0NAQEhdKFtDSDNdKVtOSF1bQ0gyXUMoPU8pW05IXVtDSDJdW0NIMl1DI04=

> <s_epik_cmdline>
J2VwaWtfcHl0aG9uJywgJy1waCcsICc3LjAnLCAnLXRuJywgJzgnLCAnLW1hJywgJzIwMCcsICctbWV0YWxfYmluZGluZycsICctaW1hZScsICc8aW5maWxlLm1hZT4nLCAnLW9tYWUnLCAnPG91dGZpbGUubWFlPic=

> <r_lp_tautomer_probability>
1

> <r_epik_Ionization_Penalty>
6.20835

> <r_epik_Ionization_Penalty_Charging>
6.20835

> <r_epik_Ionization_Penalty_Neutral>
3.57231e-06

> <r_epik_State_Penalty>
6.38139

> <r_epik_Charging_Adjusted_Penalty>
12.5897

> <i_epik_Tot_Q>
0

> <i_epik_Tot_abs_Q>
2

> <r_epik_Metal_State_Penalty>
2.31725

> <b_epik_Metal_Only>
1

> <s_lp_Force_Field>
OPLS_2005

> <r_lp_Energy>
-0.295423

> <b_lp_Chiralities_Consistent>
1

> <s_lp_Variant>
AV-unprocessed.smi:3145-5

> <Gold.Version>
5.8.1

> <Gold.Id.Protein>
6NUR|6NUR_protein|mol2

> <Gold.PLP.Fitness>
47.8096

> <Gold.PLP.PLP>
-42.4456

> <Gold.PLP.part.hbond>
-3.4490

> <Gold.PLP.part.metal>
0.0000

> <Gold.PLP.part.buried>
-6.9851

> <Gold.PLP.part.nonpolar>
-34.5566

> <Gold.PLP.part.repulsive>
1.0285

> <Gold.PLP.ligand.clash>
0.0000

> <Gold.PLP.ligand.torsion>
0.8241

> <Gold.PLP.Chemscore.Hbond>
2.2553

> <Gold.PLP.Chemscore.CHOScore>
0.0000

> <Gold.PLP.Chemscore.Metal>
0.0000

> <Gold.Chemscore.Hbonds>
donor molecule, donor type, donor heavy atom, donor atom, acceptor molecule, acceptor atom, score
      L1  H     9    34       P1  8028  2.00
      P1  H  6933  6945       L1     8  0.28

> <Gold.PLP.Chemscore.Internal.Correction>
0.2465

> <Gold.Rescore>
     Score         DG    S(hbond)    S(metal)    S(lipo)     H(rot)  DE(clash)    DE(int)     intcor
     12.02     -12.49       1.35        0.00      82.40       2.79       0.10       0.36       ----

> <Gold.Chemscore.Fitness>
12.0245

> <Gold.Chemscore.DG>
-12.4866

> <Gold.Chemscore.ZeroCoef>
-5.4800

> <Gold.Chemscore.Hbond>
1.3534

> <Gold.Chemscore.Metal>
0.0000

> <Gold.Chemscore.Lipo>
82.4028

> <Gold.Chemscore.Internal_Hbond>
0.0000

> <Gold.Chemscore.DEClash>
0.0975

> <Gold.Chemscore.DEInternal>
0.3646

> <Gold.Chemscore.Rot>
2.7949

> <Gold.Chemscore.Internal.Correction>
   9.000000E+99

> <Gold.Chemscore.Hbonds>
donor molecule, donor type, donor heavy atom, donor atom, acceptor molecule, acceptor atom, score
      L1  H     9    34       P1  8028  1.00
      P1  H  6933  6945       L1     8  0.03

> <Gold.Chemscore.Hbond.Weighted>
-4.5205

> <Gold.Chemscore.Metal.Weighted>
-0.0000

> <Gold.Chemscore.Lipo.Weighted>
-9.6411

> <Gold.Chemscore.Internal_Hbond.Weighted>
0.0000

> <Gold.Chemscore.DEClash.Weighted>
0.0975

> <Gold.Chemscore.DEInternal.Weighted>
0.3646

> <Gold.Chemscore.Rot.Weighted>
7.1551

> <Gold.Chemscore.Internal.Correction.Weighted>
   9.000000E+99

> <Gold.Protein.RotatedTorsions>
[ 6907 6896 6895 6894 ] final   18.35 input  -60.11 | X-H torsion
[ 7974 7965 7964 7962 ] final  -68.64 input  175.53 | X-H torsion
[ 8008 7997 7996 7995 ] final  -26.71 input   59.86 | X-H torsion
[ 10167 10162 10161 10158 ] final -106.53 input  -65.29 | X-H torsion
[ 10718 10713 10712 10709 ] final   17.61 input   66.30 | X-H torsion
[ 10763 10752 10751 10750 ] final  -53.76 input  -60.55 | X-H torsion
[ 11005 11000 10999 10996 ] final  -59.72 input  -57.11 | X-H torsion

> <Gold.Protein.ActiveResidues>
 VAL166  LYS551  ARG553  GLY616  TRP617  ASP618  TYR619  PRO620  LYS621  CYS622 
 ASP623  PHE694  ASN695  SER759  ASP760  ASP761  ALA762  ILE779  LEU786  VAL792 
 PHE793  MET794  SER795  GLU796  ALA797  LYS798  CYS799  TRP800  GLU811  SER814 

> <Gold.Protein.RotatedAtoms>
  151.8639  135.0514  160.0471 H   0  0  0  0  0  0  0  0  0  0  0  0  # atno 6907 bound_to 6896
  152.2641  133.5319  159.5408 H   0  0  0  0  0  0  0  0  0  0  0  0  # atno 6908 bound_to 6896
  150.7127  134.0705  159.3905 H   0  0  0  0  0  0  0  0  0  0  0  0  # atno 6909 bound_to 6896
  145.7139  140.9067  143.0666 H   0  0  0  0  0  0  0  0  0  0  0  0  # atno 7974 bound_to 7965
  154.4412  140.1892  156.0818 H   0  0  0  0  0  0  0  0  0  0  0  0  # atno 8008 bound_to 7997
  156.0433  140.3317  155.7241 H   0  0  0  0  0  0  0  0  0  0  0  0  # atno 8009 bound_to 7997
  155.5667  140.0609  157.2807 H   0  0  0  0  0  0  0  0  0  0  0  0  # atno 8010 bound_to 7997
  140.1867  143.3924  152.1238 H   0  0  0  0  0  0  0  0  0  0  0  0  # atno 10167 bound_to 10162
  157.0846  130.6402  149.5834 H   0  0  0  0  0  0  0  0  0  0  0  0  # atno 10718 bound_to 10713
  154.1640  135.6470  153.4993 H   0  0  0  0  0  0  0  0  0  0  0  0  # atno 10763 bound_to 10752
  153.0102  135.5367  154.6681 H   0  0  0  0  0  0  0  0  0  0  0  0  # atno 10764 bound_to 10752
  154.6002  135.2943  155.0515 H   0  0  0  0  0  0  0  0  0  0  0  0  # atno 10765 bound_to 10752
  141.1259  133.6618  156.5114 H   0  0  0  0  0  0  0  0  0  0  0  0  # atno 11005 bound_to 11000
  144.6934  139.9111  143.7463 LP  0  0  0  0  0  0  0  0  0  0  0  0  # atno 17320 bound_to 7965
  146.0687  139.3677  143.0536 LP  0  0  0  0  0  0  0  0  0  0  0  0  # atno 17321 bound_to 7965
  139.5273  144.7117  151.5183 LP  0  0  0  0  0  0  0  0  0  0  0  0  # atno 17342 bound_to 10162
  140.6483  143.8749  150.6760 LP  0  0  0  0  0  0  0  0  0  0  0  0  # atno 17343 bound_to 10162
  155.9914  130.4969  150.7299 LP  0  0  0  0  0  0  0  0  0  0  0  0  # atno 17370 bound_to 10713
  157.4772  131.0899  151.0577 LP  0  0  0  0  0  0  0  0  0  0  0  0  # atno 17371 bound_to 10713
  140.4366  134.7053  157.4970 LP  0  0  0  0  0  0  0  0  0  0  0  0  # atno 17394 bound_to 11000
  140.0257  134.6480  155.9176 LP  0  0  0  0  0  0  0  0  0  0  0  0  # atno 17395 bound_to 11000

$$$$
