AV-unprocessed.smi:1868|AV-procd|sdf|7585|dock7
  -GOLD-   22720 9293D 1   1.00000     0.00000
 Structure written by MMmdl.
 47 49  0  0  0  0  0  0  0  0  2 V2000
  151.7372  138.0987  154.3317 C   0  0  0  0  0  0  0  0  0  0  0  0
  151.6452  139.1894  155.3512 C   0  0  0  0  0  0  0  0  0  0  0  0
  152.7053  139.6080  156.0420 N   0  0  0  0  0  0  0  0  0  0  0  0
  152.1744  140.6045  156.8383 C   0  0  0  0  0  0  0  0  0  0  0  0
  152.7892  141.4372  157.8004 C   0  0  0  0  0  0  0  0  0  0  0  0
  152.0312  142.3976  158.5017 C   0  0  0  0  0  0  0  0  0  0  0  0
  150.6509  142.5396  158.2514 C   0  0  0  0  0  0  0  0  0  0  0  0
  150.0184  141.7200  157.2971 C   0  0  0  0  0  0  0  0  0  0  0  0
  150.7792  140.7617  156.6007 C   0  0  0  0  0  0  0  0  0  0  0  0
  150.4744  139.8148  155.6272 N   0  0  0  0  0  0  0  0  0  0  0  0
  149.1650  139.5635  155.0402 C   0  0  0  0  0  0  0  0  0  0  0  0
  148.6349  140.7682  154.2379 C   0  0  1  0  0  0  0  0  0  0  0  0
  149.5335  141.0661  153.1865 O   0  0  0  0  0  0  0  0  0  0  0  0
  147.2471  140.4840  153.6305 C   0  0  0  0  0  0  0  0  0  0  0  0
  146.2206  141.4613  154.0754 N   0  3  2  0  0  0  0  0  0  0  0  0
  146.5943  142.8748  153.8032 C   0  0  0  0  0  0  0  0  0  0  0  0
  145.4414  143.8300  154.1545 C   0  0  0  0  0  0  0  0  0  0  0  0
  145.0035  143.6643  155.6193 C   0  0  1  0  0  0  0  0  0  0  0  0
  143.8300  144.5900  155.9698 C   0  0  0  0  0  0  0  0  0  0  0  0
  144.6621  142.1881  155.8815 C   0  0  0  0  0  0  0  0  0  0  0  0
  145.8308  141.2660  155.4954 C   0  0  0  0  0  0  0  0  0  0  0  0
  152.7509  137.6989  154.2902 H   0  0  0  0  0  0  0  0  0  0  0  0
  151.4814  138.4835  153.3443 H   0  0  0  0  0  0  0  0  0  0  0  0
  151.0579  137.2840  154.5817 H   0  0  0  0  0  0  0  0  0  0  0  0
  153.8459  141.3365  157.9996 H   0  0  0  0  0  0  0  0  0  0  0  0
  152.5113  143.0283  159.2357 H   0  0  0  0  0  0  0  0  0  0  0  0
  150.0778  143.2779  158.7932 H   0  0  0  0  0  0  0  0  0  0  0  0
  148.9611  141.8261  157.1053 H   0  0  0  0  0  0  0  0  0  0  0  0
  149.2339  138.6821  154.4012 H   0  0  0  0  0  0  0  0  0  0  0  0
  148.4677  139.3023  155.8364 H   0  0  0  0  0  0  0  0  0  0  0  0
  148.5911  141.6331  154.8982 H   0  0  0  0  0  0  0  0  0  0  0  0
  149.5881  140.3141  152.6153 H   0  0  0  0  0  0  0  0  0  0  0  0
  147.3371  140.5097  152.5433 H   0  0  0  0  0  0  0  0  0  0  0  0
  146.9158  139.4752  153.8823 H   0  0  0  0  0  0  0  0  0  0  0  0
  147.4841  143.1350  154.3789 H   0  0  0  0  0  0  0  0  0  0  0  0
  146.8511  143.0062  152.7530 H   0  0  0  0  0  0  0  0  0  0  0  0
  145.7503  144.8598  153.9710 H   0  0  0  0  0  0  0  0  0  0  0  0
  144.5965  143.6390  153.4910 H   0  0  0  0  0  0  0  0  0  0  0  0
  145.8442  143.9380  156.2590 H   0  0  0  0  0  0  0  0  0  0  0  0
  142.9550  144.3723  155.3565 H   0  0  0  0  0  0  0  0  0  0  0  0
  144.0946  145.6362  155.8129 H   0  0  0  0  0  0  0  0  0  0  0  0
  143.5402  144.4775  157.0149 H   0  0  0  0  0  0  0  0  0  0  0  0
  144.4134  142.0430  156.9334 H   0  0  0  0  0  0  0  0  0  0  0  0
  143.7741  141.9067  155.3133 H   0  0  0  0  0  0  0  0  0  0  0  0
  145.5331  140.2291  155.6570 H   0  0  0  0  0  0  0  0  0  0  0  0
  146.6907  141.4540  156.1404 H   0  0  0  0  0  0  0  0  0  0  0  0
  145.3937  141.2627  153.5296 H   0  0  0  0  0  0  0  0  0  0  0  0
  1  2  1  0  0  0  0
  1 22  1  0  0  0  0
  1 23  1  0  0  0  0
  1 24  1  0  0  0  0
  2 10  1  0  0  0  0
  2  3  2  0  0  0  0
  3  4  1  0  0  0  0
  4  9  2  0  0  0  0
  4  5  1  0  0  0  0
  5  6  2  0  0  0  0
  5 25  1  0  0  0  0
  6  7  1  0  0  0  0
  6 26  1  0  0  0  0
  7  8  2  0  0  0  0
  7 27  1  0  0  0  0
  8  9  1  0  0  0  0
  8 28  1  0  0  0  0
  9 10  1  0  0  0  0
 10 11  1  0  0  0  0
 11 12  1  0  0  0  0
 11 29  1  0  0  0  0
 11 30  1  0  0  0  0
 12 13  1  0  0  0  0
 12 14  1  0  0  0  0
 12 31  1  0  0  0  0
 13 32  1  0  0  0  0
 14 15  1  0  0  0  0
 14 33  1  0  0  0  0
 14 34  1  0  0  0  0
 15 21  1  0  0  0  0
 15 16  1  0  0  0  0
 15 47  1  0  0  0  0
 16 17  1  0  0  0  0
 16 35  1  0  0  0  0
 16 36  1  0  0  0  0
 17 18  1  0  0  0  0
 17 37  1  0  0  0  0
 17 38  1  0  0  0  0
 18 19  1  0  0  0  0
 18 20  1  0  0  0  0
 18 39  1  0  0  0  0
 19 40  1  0  0  0  0
 19 41  1  0  0  0  0
 19 42  1  0  0  0  0
 20 21  1  0  0  0  0
 20 43  1  0  0  0  0
 20 44  1  0  0  0  0
 21 45  1  0  0  0  0
 21 46  1  0  0  0  0
M  CHG  1  15   1
M  END
> <s_m_source_file>
AV-unprocessed.smi

> <i_m_source_file_index>
1868

> <i_lp_mmshare_version>
43012

> <i_f3d_flags>
0

> <s_epik_input>
W2NIXTFbY0hdW2NIXVtjSF1jKGMxMiluKGMobjIpW0NIM10pW0NIMl1bQ0BIXShbT0hdKVtDSDJdTjNbQ0gyXVtDSDJdW0NIXShbQ0gzXSlbQ0gyXVtDSDJdMw==

> <s_epik_cmdline>
J2VwaWtfcHl0aG9uJywgJy1waCcsICc3LjAnLCAnLXRuJywgJzgnLCAnLW1hJywgJzIwMCcsICctbWV0YWxfYmluZGluZycsICctaW1hZScsICc8aW5maWxlLm1hZT4nLCAnLW9tYWUnLCAnPG91dGZpbGUubWFlPic=

> <r_epik_Ionization_Penalty>
0.101157

> <r_epik_Ionization_Penalty_Charging>
0.00181365

> <r_epik_Ionization_Penalty_Neutral>
0.0993436

> <r_epik_State_Penalty>
0.0871902

> <r_epik_Charging_Adjusted_Penalty>
0.0890039

> <i_epik_Tot_Q>
1

> <i_epik_Tot_abs_Q>
1

> <r_epik_Metal_State_Penalty>
9.24346e-05

> <b_epik_Metal_Only>
0

> <s_lp_Force_Field>
OPLS_2005

> <r_lp_Energy>
21.7142

> <b_lp_Chiralities_Consistent>
1

> <s_lp_Variant>
AV-unprocessed.smi:1868-2

> <Gold.Version>
5.8.1

> <Gold.Id.Protein>
6NUR|6NUR_protein|mol2

> <Gold.PLP.Fitness>
51.3101

> <Gold.PLP.PLP>
-38.3833

> <Gold.PLP.part.hbond>
-4.8330

> <Gold.PLP.part.metal>
0.0000

> <Gold.PLP.part.buried>
-5.9535

> <Gold.PLP.part.nonpolar>
-27.4496

> <Gold.PLP.part.repulsive>
0.0225

> <Gold.PLP.ligand.clash>
0.0000

> <Gold.PLP.ligand.torsion>
0.8095

> <Gold.PLP.Chemscore.Hbond>
4.8320

> <Gold.PLP.Chemscore.CHOScore>
0.0000

> <Gold.PLP.Chemscore.Metal>
0.0000

> <Gold.Chemscore.Hbonds>
donor molecule, donor type, donor heavy atom, donor atom, acceptor molecule, acceptor atom, score
      L1  H    13    32       P1  7957  0.66
      L1  H    15    47       P1 10175  1.43
      P1  H  7989  7998       L1    13  0.04
      P1  H  7997  8009       L1     3  0.80
      P1  H  8011  8017       L1    13  1.00

> <Gold.PLP.Chemscore.Internal.Correction>
0.0496

> <Gold.Rescore>
     Score         DG    S(hbond)    S(metal)    S(lipo)     H(rot)  DE(clash)    DE(int)     intcor
     19.27     -20.33       2.80        0.00      89.08       1.92       0.17       0.89       ----

> <Gold.Chemscore.Fitness>
19.2746

> <Gold.Chemscore.DG>
-20.3326

> <Gold.Chemscore.ZeroCoef>
-5.4800

> <Gold.Chemscore.Hbond>
2.7978

> <Gold.Chemscore.Metal>
0.0000

> <Gold.Chemscore.Lipo>
89.0823

> <Gold.Chemscore.Internal_Hbond>
0.0000

> <Gold.Chemscore.DEClash>
0.1658

> <Gold.Chemscore.DEInternal>
0.8922

> <Gold.Chemscore.Rot>
1.9198

> <Gold.Chemscore.Internal.Correction>
   9.000000E+99

> <Gold.Chemscore.Hbonds>
donor molecule, donor type, donor heavy atom, donor atom, acceptor molecule, acceptor atom, score
      L1  H    13    32       P1  7957  0.62
      L1  H    15    47       P1 10175  0.25
      P1  H  7997  8009       L1     3  0.12
      P1  H  8011  8017       L1    13  0.69

> <Gold.Chemscore.Hbond.Weighted>
-9.3447

> <Gold.Chemscore.Metal.Weighted>
-0.0000

> <Gold.Chemscore.Lipo.Weighted>
-10.4226

> <Gold.Chemscore.Internal_Hbond.Weighted>
0.0000

> <Gold.Chemscore.DEClash.Weighted>
0.1658

> <Gold.Chemscore.DEInternal.Weighted>
0.8922

> <Gold.Chemscore.Rot.Weighted>
4.9147

> <Gold.Chemscore.Internal.Correction.Weighted>
   9.000000E+99

> <Gold.Protein.RotatedTorsions>
[ 6907 6896 6895 6894 ] final -157.85 input  -60.11 | X-H torsion
[ 7974 7965 7964 7962 ] final  119.48 input  175.53 | X-H torsion
[ 8008 7997 7996 7995 ] final -151.26 input   59.86 | X-H torsion
[ 10167 10162 10161 10158 ] final -120.31 input  -65.29 | X-H torsion
[ 10718 10713 10712 10709 ] final  -26.06 input   66.30 | X-H torsion
[ 10763 10752 10751 10750 ] final -138.98 input  -60.55 | X-H torsion
[ 11005 11000 10999 10996 ] final   81.29 input  -57.11 | X-H torsion

> <Gold.Protein.ActiveResidues>
 VAL166  LYS551  ARG553  GLY616  TRP617  ASP618  TYR619  PRO620  LYS621  CYS622 
 ASP623  PHE694  ASN695  SER759  ASP760  ASP761  ALA762  ILE779  LEU786  VAL792 
 PHE793  MET794  SER795  GLU796  ALA797  LYS798  CYS799  TRP800  GLU811  SER814 

> <Gold.Protein.RotatedAtoms>
  151.3091  133.4088  159.2645 H   0  0  0  0  0  0  0  0  0  0  0  0  # atno 6907 bound_to 6896
  151.0129  134.9411  159.8027 H   0  0  0  0  0  0  0  0  0  0  0  0  # atno 6908 bound_to 6896
  152.5305  134.3056  159.9147 H   0  0  0  0  0  0  0  0  0  0  0  0  # atno 6909 bound_to 6896
  145.1426  139.3259  143.4608 H   0  0  0  0  0  0  0  0  0  0  0  0  # atno 7974 bound_to 7965
  155.6366  140.0697  157.2632 H   0  0  0  0  0  0  0  0  0  0  0  0  # atno 8008 bound_to 7997
  154.4193  140.1758  156.1578 H   0  0  0  0  0  0  0  0  0  0  0  0  # atno 8009 bound_to 7997
  155.9889  140.3347  155.6737 H   0  0  0  0  0  0  0  0  0  0  0  0  # atno 8010 bound_to 7997
  140.0373  143.5189  152.2147 H   0  0  0  0  0  0  0  0  0  0  0  0  # atno 10167 bound_to 10162
  156.4561  130.4494  149.6958 H   0  0  0  0  0  0  0  0  0  0  0  0  # atno 10718 bound_to 10713
  154.8622  135.3596  154.5473 H   0  0  0  0  0  0  0  0  0  0  0  0  # atno 10763 bound_to 10752
  153.6092  135.7010  153.5358 H   0  0  0  0  0  0  0  0  0  0  0  0  # atno 10764 bound_to 10752
  153.3224  135.4147  155.1388 H   0  0  0  0  0  0  0  0  0  0  0  0  # atno 10765 bound_to 10752
  139.9103  134.7985  156.2021 H   0  0  0  0  0  0  0  0  0  0  0  0  # atno 11005 bound_to 11000
  146.3503  140.1469  142.8593 LP  0  0  0  0  0  0  0  0  0  0  0  0  # atno 17320 bound_to 7965
  145.0516  140.9022  143.4992 LP  0  0  0  0  0  0  0  0  0  0  0  0  # atno 17321 bound_to 7965
  139.6037  144.7590  151.3112 LP  0  0  0  0  0  0  0  0  0  0  0  0  # atno 17342 bound_to 10162
  140.7276  143.6959  150.7884 LP  0  0  0  0  0  0  0  0  0  0  0  0  # atno 17343 bound_to 10162
  156.3765  130.7557  151.2546 LP  0  0  0  0  0  0  0  0  0  0  0  0  # atno 17370 bound_to 10713
  157.7500  131.0308  150.4153 LP  0  0  0  0  0  0  0  0  0  0  0  0  # atno 17371 bound_to 10713
  141.0518  133.6885  156.1786 LP  0  0  0  0  0  0  0  0  0  0  0  0  # atno 17394 bound_to 11000
  140.6798  134.4779  157.5589 LP  0  0  0  0  0  0  0  0  0  0  0  0  # atno 17395 bound_to 11000

$$$$
