AV-unprocessed.smi:1055|AV-procd|sdf|4626|dock5
  -GOLD-   22720 3133D 1   1.00000     0.00000
 Structure written by MMmdl.
 51 52  0  0  0  0  0  0  0  0  2 V2000
  146.4537  133.9077  151.3398 C   0  0  0  0  0  0  0  0  0  0  0  0
  145.3651  134.5895  151.7334 C   0  0  0  0  0  0  0  0  0  0  0  0
  144.3055  133.9670  152.6231 C   0  0  0  0  0  0  0  0  0  0  0  0
  145.1166  136.0286  151.3094 C   0  0  0  0  0  0  0  0  0  0  0  0
  146.1430  136.9520  151.8549 N   0  3  2  0  0  0  0  0  0  0  0  0
  146.0379  137.0955  153.3295 C   0  0  0  0  0  0  0  0  0  0  0  0
  147.1894  137.9453  153.8917 C   0  0  0  0  0  0  0  0  0  0  0  0
  147.2388  139.3279  153.2161 C   0  0  1  0  0  0  0  0  0  0  0  0
  148.3831  140.1033  153.6866 N   0  0  0  0  0  0  0  0  0  0  0  0
  148.7509  140.2333  154.9696 C   0  0  0  0  0  0  0  0  0  0  0  0
  148.1595  139.6893  155.9017 O   0  0  0  0  0  0  0  0  0  0  0  0
  149.8194  141.0398  155.0903 N   0  0  0  0  0  0  0  0  0  0  0  0
  150.5058  141.4220  156.2744 C   0  0  0  0  0  0  0  0  0  0  0  0
  150.6700  140.4582  157.2871 C   0  0  0  0  0  0  0  0  0  0  0  0
  151.3305  140.8136  158.4783 C   0  0  0  0  0  0  0  0  0  0  0  0
  151.8076  142.1387  158.6362 C   0  0  0  0  0  0  0  0  0  0  0  0
  152.4798  142.5463  159.8113 N   0  0  0  0  0  0  0  0  0  0  0  0
  153.1450  141.5619  160.6556 C   0  0  0  0  0  0  0  0  0  0  0  0
  152.4829  143.9547  160.1948 C   0  0  0  0  0  0  0  0  0  0  0  0
  151.6333  143.0681  157.6651 N   0  0  0  0  0  0  0  0  0  0  0  0
  151.0014  142.7231  156.5237 C   0  0  0  0  0  0  0  0  0  0  0  0
  147.3187  139.1484  151.6919 C   0  0  0  0  0  0  0  0  0  0  0  0
  146.1642  138.2742  151.1739 C   0  0  0  0  0  0  0  0  0  0  0  0
  146.6161  132.8846  151.6465 H   0  0  0  0  0  0  0  0  0  0  0  0
  147.2007  134.3612  150.7045 H   0  0  0  0  0  0  0  0  0  0  0  0
  143.3361  133.9837  152.1245 H   0  0  0  0  0  0  0  0  0  0  0  0
  144.2196  134.5159  153.5611 H   0  0  0  0  0  0  0  0  0  0  0  0
  144.5456  132.9301  152.8604 H   0  0  0  0  0  0  0  0  0  0  0  0
  145.0880  136.1111  150.2215 H   0  0  0  0  0  0  0  0  0  0  0  0
  144.1276  136.3134  151.6712 H   0  0  0  0  0  0  0  0  0  0  0  0
  145.0780  137.5467  153.5850 H   0  0  0  0  0  0  0  0  0  0  0  0
  146.0593  136.1104  153.7970 H   0  0  0  0  0  0  0  0  0  0  0  0
  147.0678  138.0549  154.9701 H   0  0  0  0  0  0  0  0  0  0  0  0
  148.1348  137.4226  153.7392 H   0  0  0  0  0  0  0  0  0  0  0  0
  146.3213  139.8723  153.4492 H   0  0  0  0  0  0  0  0  0  0  0  0
  148.9249  140.5893  152.9869 H   0  0  0  0  0  0  0  0  0  0  0  0
  150.1433  141.4803  154.2418 H   0  0  0  0  0  0  0  0  0  0  0  0
  150.2993  139.4522  157.1545 H   0  0  0  0  0  0  0  0  0  0  0  0
  151.4570  140.0640  159.2445 H   0  0  0  0  0  0  0  0  0  0  0  0
  152.4294  140.8255  161.0228 H   0  0  0  0  0  0  0  0  0  0  0  0
  153.6118  142.0316  161.5217 H   0  0  0  0  0  0  0  0  0  0  0  0
  153.9264  141.0448  160.0979 H   0  0  0  0  0  0  0  0  0  0  0  0
  151.4646  144.3096  160.3575 H   0  0  0  0  0  0  0  0  0  0  0  0
  152.9414  144.5632  159.4145 H   0  0  0  0  0  0  0  0  0  0  0  0
  153.0438  144.1164  161.1154 H   0  0  0  0  0  0  0  0  0  0  0  0
  150.8809  143.5271  155.8145 H   0  0  0  0  0  0  0  0  0  0  0  0
  147.2928  140.1209  151.1986 H   0  0  0  0  0  0  0  0  0  0  0  0
  148.2703  138.6892  151.4201 H   0  0  0  0  0  0  0  0  0  0  0  0
  146.2776  138.1432  150.0976 H   0  0  0  0  0  0  0  0  0  0  0  0
  145.2106  138.7809  151.3311 H   0  0  0  0  0  0  0  0  0  0  0  0
  147.0370  136.5171  151.6765 H   0  0  0  0  0  0  0  0  0  0  0  0
  1  2  2  0  0  0  0
  1 24  1  0  0  0  0
  1 25  1  0  0  0  0
  2  3  1  0  0  0  0
  2  4  1  0  0  0  0
  3 26  1  0  0  0  0
  3 27  1  0  0  0  0
  3 28  1  0  0  0  0
  4  5  1  0  0  0  0
  4 29  1  0  0  0  0
  4 30  1  0  0  0  0
  5 23  1  0  0  0  0
  5  6  1  0  0  0  0
  5 51  1  0  0  0  0
  6  7  1  0  0  0  0
  6 31  1  0  0  0  0
  6 32  1  0  0  0  0
  7  8  1  0  0  0  0
  7 33  1  0  0  0  0
  7 34  1  0  0  0  0
  8  9  1  0  0  0  0
  8 22  1  0  0  0  0
  8 35  1  0  0  0  0
  9 10  1  0  0  0  0
  9 36  1  0  0  0  0
 10 11  2  0  0  0  0
 10 12  1  0  0  0  0
 12 13  1  0  0  0  0
 12 37  1  0  0  0  0
 13 21  1  0  0  0  0
 13 14  2  0  0  0  0
 14 15  1  0  0  0  0
 14 38  1  0  0  0  0
 15 16  2  0  0  0  0
 15 39  1  0  0  0  0
 16 17  1  0  0  0  0
 16 20  1  0  0  0  0
 17 18  1  0  0  0  0
 17 19  1  0  0  0  0
 18 40  1  0  0  0  0
 18 41  1  0  0  0  0
 18 42  1  0  0  0  0
 19 43  1  0  0  0  0
 19 44  1  0  0  0  0
 19 45  1  0  0  0  0
 20 21  2  0  0  0  0
 21 46  1  0  0  0  0
 22 23  1  0  0  0  0
 22 47  1  0  0  0  0
 22 48  1  0  0  0  0
 23 49  1  0  0  0  0
 23 50  1  0  0  0  0
M  CHG  1   5   1
M  END
> <s_m_source_file>
AV-unprocessed.smi

> <i_m_source_file_index>
1055

> <i_lp_mmshare_version>
43012

> <i_f3d_flags>
0

> <s_epik_input>
W0NIMl09QyhbQ0gzXSlbQ0gyXU4xW0NIMl1bQ0gyXVtDSF0oW0NIMl1bQ0gyXTEpW05IXUMoPU8pW05IXWMyW2NIXVtjSF1jKE4oW0NIM10pW0NIM10pbltjSF0y

> <s_epik_cmdline>
J2VwaWtfcHl0aG9uJywgJy1waCcsICc3LjAnLCAnLXRuJywgJzgnLCAnLW1hJywgJzIwMCcsICctbWV0YWxfYmluZGluZycsICctaW1hZScsICc8aW5maWxlLm1hZT4nLCAnLW9tYWUnLCAnPG91dGZpbGUubWFlPic=

> <r_lp_tautomer_probability>
1

> <r_epik_Ionization_Penalty>
0.534133

> <r_epik_Ionization_Penalty_Charging>
0.0193505

> <r_epik_Ionization_Penalty_Neutral>
0.514782

> <r_epik_State_Penalty>
0.557749

> <r_epik_Charging_Adjusted_Penalty>
0.5771

> <i_epik_Tot_Q>
1

> <i_epik_Tot_abs_Q>
1

> <r_epik_Metal_State_Penalty>
0.306227

> <b_epik_Metal_Only>
0

> <s_lp_Force_Field>
OPLS_2005

> <r_lp_Energy>
20.3338

> <b_lp_Chiralities_Consistent>
1

> <s_lp_Variant>
AV-unprocessed.smi:1055-3

> <Gold.Version>
5.8.1

> <Gold.Id.Protein>
6NUR|6NUR_protein|mol2

> <Gold.PLP.Fitness>
46.6834

> <Gold.PLP.PLP>
-37.6930

> <Gold.PLP.part.hbond>
-2.0000

> <Gold.PLP.part.metal>
0.0000

> <Gold.PLP.part.buried>
5.2890

> <Gold.PLP.part.nonpolar>
-40.0625

> <Gold.PLP.part.repulsive>
0.3908

> <Gold.PLP.ligand.clash>
0.0000

> <Gold.PLP.ligand.torsion>
0.7981

> <Gold.PLP.Chemscore.Hbond>
2.6032

> <Gold.PLP.Chemscore.CHOScore>
0.9169

> <Gold.PLP.Chemscore.Metal>
0.0000

> <Gold.Chemscore.Hbonds>
donor molecule, donor type, donor heavy atom, donor atom, acceptor molecule, acceptor atom, score
      L1  H     5    51       P1  7948  2.00
      L1  H     9    36       P1  7957  0.66
      L1  C    21    46       P1  8028  0.85

> <Gold.PLP.Chemscore.Internal.Correction>
0.0263

> <Gold.Rescore>
     Score         DG    S(hbond)    S(metal)    S(lipo)     H(rot)  DE(clash)    DE(int)     intcor
     13.35     -19.84       1.62        0.00     105.61       1.33       3.26       3.23       ----

> <Gold.Chemscore.Fitness>
13.3500

> <Gold.Chemscore.DG>
-19.8368

> <Gold.Chemscore.ZeroCoef>
-5.4800

> <Gold.Chemscore.Hbond>
1.6156

> <Gold.Chemscore.Metal>
0.0000

> <Gold.Chemscore.Lipo>
105.6141

> <Gold.Chemscore.Internal_Hbond>
0.0000

> <Gold.Chemscore.DEClash>
3.2560

> <Gold.Chemscore.DEInternal>
3.2308

> <Gold.Chemscore.Rot>
1.3266

> <Gold.Chemscore.Internal.Correction>
   9.000000E+99

> <Gold.Chemscore.Hbonds>
donor molecule, donor type, donor heavy atom, donor atom, acceptor molecule, acceptor atom, score
      L1  H     5    51       P1  7948  0.99
      L1  H     9    36       P1  7957  0.62

> <Gold.Chemscore.Hbond.Weighted>
-5.3962

> <Gold.Chemscore.Metal.Weighted>
-0.0000

> <Gold.Chemscore.Lipo.Weighted>
-12.3569

> <Gold.Chemscore.Internal_Hbond.Weighted>
0.0000

> <Gold.Chemscore.DEClash.Weighted>
3.2560

> <Gold.Chemscore.DEInternal.Weighted>
3.2308

> <Gold.Chemscore.Rot.Weighted>
3.3962

> <Gold.Chemscore.Internal.Correction.Weighted>
   9.000000E+99

> <Gold.Protein.RotatedTorsions>
[ 6907 6896 6895 6894 ] final  148.55 input  -60.11 | X-H torsion
[ 7974 7965 7964 7962 ] final -140.17 input  175.53 | X-H torsion
[ 8008 7997 7996 7995 ] final  -66.22 input   59.86 | X-H torsion
[ 10167 10162 10161 10158 ] final -133.17 input  -65.29 | X-H torsion
[ 10718 10713 10712 10709 ] final  -96.08 input   66.30 | X-H torsion
[ 10763 10752 10751 10750 ] final    1.23 input  -60.55 | X-H torsion
[ 11005 11000 10999 10996 ] final -153.56 input  -57.11 | X-H torsion

> <Gold.Protein.ActiveResidues>
 VAL166  LYS551  ARG553  GLY616  TRP617  ASP618  TYR619  PRO620  LYS621  CYS622 
 ASP623  PHE694  ASN695  SER759  ASP760  ASP761  ALA762  ILE779  LEU786  VAL792 
 PHE793  MET794  SER795  GLU796  ALA797  LYS798  CYS799  TRP800  GLU811  SER814 

> <Gold.Protein.RotatedAtoms>
  152.1399  133.4458  159.4761 H   0  0  0  0  0  0  0  0  0  0  0  0  # atno 6907 bound_to 6896
  150.6885  134.2318  159.4446 H   0  0  0  0  0  0  0  0  0  0  0  0  # atno 6908 bound_to 6896
  152.0208  134.9823  160.0621 H   0  0  0  0  0  0  0  0  0  0  0  0  # atno 6909 bound_to 6896
  144.8618  140.6232  143.5323 H   0  0  0  0  0  0  0  0  0  0  0  0  # atno 7974 bound_to 7965
  154.4720  140.0917  156.7169 H   0  0  0  0  0  0  0  0  0  0  0  0  # atno 8008 bound_to 7997
  155.4697  140.3464  155.4306 H   0  0  0  0  0  0  0  0  0  0  0  0  # atno 8009 bound_to 7997
  156.1055  140.1433  156.9398 H   0  0  0  0  0  0  0  0  0  0  0  0  # atno 8010 bound_to 7997
  139.9010  143.6608  152.2595 H   0  0  0  0  0  0  0  0  0  0  0  0  # atno 10167 bound_to 10162
  156.0055  130.5136  150.6172 H   0  0  0  0  0  0  0  0  0  0  0  0  # atno 10718 bound_to 10713
  153.3106  135.6962  153.7119 H   0  0  0  0  0  0  0  0  0  0  0  0  # atno 10763 bound_to 10752
  153.5998  135.3464  155.2942 H   0  0  0  0  0  0  0  0  0  0  0  0  # atno 10764 bound_to 10752
  154.8574  135.4338  154.2243 H   0  0  0  0  0  0  0  0  0  0  0  0  # atno 10765 bound_to 10752
  140.7068  134.3877  157.5203 H   0  0  0  0  0  0  0  0  0  0  0  0  # atno 11005 bound_to 11000
  145.4297  139.1551  143.4029 LP  0  0  0  0  0  0  0  0  0  0  0  0  # atno 17320 bound_to 7965
  146.2866  140.4412  142.8755 LP  0  0  0  0  0  0  0  0  0  0  0  0  # atno 17321 bound_to 7965
  139.7025  144.7633  151.1248 LP  0  0  0  0  0  0  0  0  0  0  0  0  # atno 17342 bound_to 10162
  140.7707  143.5438  150.9282 LP  0  0  0  0  0  0  0  0  0  0  0  0  # atno 17343 bound_to 10162
  157.3994  131.0807  151.1322 LP  0  0  0  0  0  0  0  0  0  0  0  0  # atno 17370 bound_to 10713
  157.1988  130.6385  149.5731 LP  0  0  0  0  0  0  0  0  0  0  0  0  # atno 17371 bound_to 10713
  139.8882  134.8862  156.2487 LP  0  0  0  0  0  0  0  0  0  0  0  0  # atno 17394 bound_to 11000
  141.0118  133.7091  156.1124 LP  0  0  0  0  0  0  0  0  0  0  0  0  # atno 17395 bound_to 11000

$$$$
