AV-unprocessed.smi:2062|AV-procd|sdf|8400|dock5
  -GOLD-   2272011 83D 1   1.00000     0.00000
 Structure written by MMmdl.
 42 43  0  0  0  0  0  0  0  0  1 V2000
  150.3404  142.8098  158.4641 C   0  0  0  0  0  0  0  0  0  0  0  0
  150.7727  141.5478  157.6974 C   0  0  0  0  0  0  0  0  0  0  0  0
  151.8971  140.7765  158.4089 C   0  0  0  0  0  0  0  0  0  0  0  0
  151.0386  141.7928  156.1913 C   0  0  0  0  0  0  0  0  0  0  0  0
  150.7887  140.6830  155.2658 N   0  0  0  0  0  0  0  0  0  0  0  0
  151.4842  139.4793  155.7100 C   0  0  0  0  0  0  0  0  0  0  0  0
  151.2483  138.2909  154.7643 C   0  0  0  0  0  0  0  0  0  0  0  0
  149.8507  138.0518  154.6484 O   0  0  0  0  0  0  0  0  0  0  0  0
  149.1362  139.1820  154.1542 C   0  0  1  0  0  0  0  0  0  0  0  0
  147.6463  138.8131  154.0528 C   0  0  0  0  0  0  0  0  0  0  0  0
  147.4413  137.6045  153.2615 N   0  0  0  0  0  0  0  0  0  0  0  0
  146.2536  137.0222  153.0421 C   0  0  0  0  0  0  0  0  0  0  0  0
  145.1940  137.4479  153.5033 O   0  0  0  0  0  0  0  0  0  0  0  0
  146.3812  135.9332  152.2640 N   0  0  0  0  0  0  0  0  0  0  0  0
  145.3637  135.0508  151.8150 C   0  0  0  0  0  0  0  0  0  0  0  0
  145.5608  134.0473  150.9517 N   0  0  0  0  0  0  0  0  0  0  0  0
  144.3830  133.3438  150.6869 C   0  0  0  0  0  0  0  0  0  0  0  0
  143.2907  133.8280  151.3627 C   0  0  0  0  0  0  0  0  0  0  0  0
  143.7003  135.1950  152.3645 S   0  0  0  0  0  0  0  0  0  0  0  0
  149.3700  140.3747  155.1029 C   0  0  0  0  0  0  0  0  0  0  0  0
  151.1465  143.5313  158.5782 H   0  0  0  0  0  0  0  0  0  0  0  0
  149.9973  142.5521  159.4664 H   0  0  0  0  0  0  0  0  0  0  0  0
  149.5150  143.3116  157.9588 H   0  0  0  0  0  0  0  0  0  0  0  0
  149.8988  140.8955  157.7276 H   0  0  0  0  0  0  0  0  0  0  0  0
  152.8106  141.3668  158.4821 H   0  0  0  0  0  0  0  0  0  0  0  0
  152.1374  139.8555  157.8768 H   0  0  0  0  0  0  0  0  0  0  0  0
  151.6018  140.5031  159.4223 H   0  0  0  0  0  0  0  0  0  0  0  0
  150.3836  142.6152  155.8998 H   0  0  0  0  0  0  0  0  0  0  0  0
  152.0510  142.1745  156.0508 H   0  0  0  0  0  0  0  0  0  0  0  0
  152.5550  139.6743  155.7782 H   0  0  0  0  0  0  0  0  0  0  0  0
  151.1523  139.2098  156.7141 H   0  0  0  0  0  0  0  0  0  0  0  0
  151.6763  138.4864  153.7798 H   0  0  0  0  0  0  0  0  0  0  0  0
  151.7325  137.3951  155.1529 H   0  0  0  0  0  0  0  0  0  0  0  0
  149.5144  139.4385  153.1627 H   0  0  0  0  0  0  0  0  0  0  0  0
  147.2327  138.6482  155.0482 H   0  0  0  0  0  0  0  0  0  0  0  0
  147.0802  139.6381  153.6164 H   0  0  0  0  0  0  0  0  0  0  0  0
  148.2615  137.1923  152.8414 H   0  0  0  0  0  0  0  0  0  0  0  0
  147.3165  135.7072  151.9593 H   0  0  0  0  0  0  0  0  0  0  0  0
  144.4128  132.5090  150.0021 H   0  0  0  0  0  0  0  0  0  0  0  0
  142.2742  133.4647  151.3318 H   0  0  0  0  0  0  0  0  0  0  0  0
  148.9213  140.1656  156.0753 H   0  0  0  0  0  0  0  0  0  0  0  0
  148.8475  141.2339  154.6892 H   0  0  0  0  0  0  0  0  0  0  0  0
  1  2  1  0  0  0  0
  1 21  1  0  0  0  0
  1 22  1  0  0  0  0
  1 23  1  0  0  0  0
  2  3  1  0  0  0  0
  2  4  1  0  0  0  0
  2 24  1  0  0  0  0
  3 25  1  0  0  0  0
  3 26  1  0  0  0  0
  3 27  1  0  0  0  0
  4  5  1  0  0  0  0
  4 28  1  0  0  0  0
  4 29  1  0  0  0  0
  5 20  1  0  0  0  0
  5  6  1  0  0  0  0
  6  7  1  0  0  0  0
  6 30  1  0  0  0  0
  6 31  1  0  0  0  0
  7  8  1  0  0  0  0
  7 32  1  0  0  0  0
  7 33  1  0  0  0  0
  8  9  1  0  0  0  0
  9 10  1  0  0  0  0
  9 20  1  0  0  0  0
  9 34  1  0  0  0  0
 10 11  1  0  0  0  0
 10 35  1  0  0  0  0
 10 36  1  0  0  0  0
 11 12  1  0  0  0  0
 11 37  1  0  0  0  0
 12 13  2  0  0  0  0
 12 14  1  0  0  0  0
 14 15  1  0  0  0  0
 14 38  1  0  0  0  0
 15 19  1  0  0  0  0
 15 16  2  0  0  0  0
 16 17  1  0  0  0  0
 17 18  2  0  0  0  0
 17 39  1  0  0  0  0
 18 19  1  0  0  0  0
 18 40  1  0  0  0  0
 20 41  1  0  0  0  0
 20 42  1  0  0  0  0
M  END
> <s_m_source_file>
AV-unprocessed.smi

> <i_m_source_file_index>
2062

> <i_lp_mmshare_version>
43012

> <i_f3d_flags>
0

> <s_epik_input>
W0NIM11bQ0hdKFtDSDNdKVtDSDJdTjFbQ0gyXVtDSDJdT1tDQEhdKFtDSDJdMSlbQ0gyXVtOSF1DKD1PKVtOSF1jMm5bY0hdW2NIXXMy

> <s_epik_cmdline>
J2VwaWtfcHl0aG9uJywgJy1waCcsICc3LjAnLCAnLXRuJywgJzgnLCAnLW1hJywgJzIwMCcsICctbWV0YWxfYmluZGluZycsICctaW1hZScsICc8aW5maWxlLm1hZT4nLCAnLW9tYWUnLCAnPG91dGZpbGUubWFlPic=

> <r_lp_tautomer_probability>
0.999

> <r_epik_Ionization_Penalty>
1.11227

> <r_epik_Ionization_Penalty_Charging>
0

> <r_epik_Ionization_Penalty_Neutral>
1.11227

> <r_epik_State_Penalty>
1.17021

> <r_epik_Charging_Adjusted_Penalty>
1.17021

> <i_epik_Tot_Q>
0

> <i_epik_Tot_abs_Q>
0

> <r_epik_Metal_State_Penalty>
1.22349

> <b_epik_Metal_Only>
0

> <s_lp_Force_Field>
OPLS_2005

> <r_lp_Energy>
27.0187

> <b_lp_Chiralities_Consistent>
1

> <s_lp_Variant>
AV-unprocessed.smi:2062-5

> <Gold.Version>
5.8.1

> <Gold.Id.Protein>
6NUR|6NUR_protein|mol2

> <Gold.PLP.Fitness>
39.2850

> <Gold.PLP.PLP>
-29.6850

> <Gold.PLP.part.hbond>
-2.8151

> <Gold.PLP.part.metal>
0.0000

> <Gold.PLP.part.buried>
-3.5876

> <Gold.PLP.part.nonpolar>
-23.1160

> <Gold.PLP.part.repulsive>
0.5878

> <Gold.PLP.ligand.clash>
0.0000

> <Gold.PLP.ligand.torsion>
0.3483

> <Gold.PLP.Chemscore.Hbond>
2.7952

> <Gold.PLP.Chemscore.CHOScore>
0.6156

> <Gold.PLP.Chemscore.Metal>
0.0000

> <Gold.Chemscore.Hbonds>
donor molecule, donor type, donor heavy atom, donor atom, acceptor molecule, acceptor atom, score
      L1  H    11    37       P1  7948  0.99
      L1  H    14    38       P1  7948  0.96
      P1  H  7989  7998       L1     5  0.85
      L1  C    18    40       P1 10186  0.67

> <Gold.PLP.Chemscore.Internal.Correction>
0.0643

> <Gold.Rescore>
     Score         DG    S(hbond)    S(metal)    S(lipo)     H(rot)  DE(clash)    DE(int)     intcor
     14.81     -16.49       1.98        0.00      75.13       1.72       0.16       1.51       ----

> <Gold.Chemscore.Fitness>
14.8104

> <Gold.Chemscore.DG>
-16.4864

> <Gold.Chemscore.ZeroCoef>
-5.4800

> <Gold.Chemscore.Hbond>
1.9814

> <Gold.Chemscore.Metal>
0.0000

> <Gold.Chemscore.Lipo>
75.1314

> <Gold.Chemscore.Internal_Hbond>
0.0000

> <Gold.Chemscore.DEClash>
0.1650

> <Gold.Chemscore.DEInternal>
1.5110

> <Gold.Chemscore.Rot>
1.7195

> <Gold.Chemscore.Internal.Correction>
   9.000000E+99

> <Gold.Chemscore.Hbonds>
donor molecule, donor type, donor heavy atom, donor atom, acceptor molecule, acceptor atom, score
      L1  H    11    37       P1  7948  0.91
      L1  H    14    38       P1  7948  0.92
      P1  H  7989  7998       L1     5  0.12

> <Gold.Chemscore.Hbond.Weighted>
-6.6179

> <Gold.Chemscore.Metal.Weighted>
-0.0000

> <Gold.Chemscore.Lipo.Weighted>
-8.7904

> <Gold.Chemscore.Internal_Hbond.Weighted>
0.0000

> <Gold.Chemscore.DEClash.Weighted>
0.1650

> <Gold.Chemscore.DEInternal.Weighted>
1.5110

> <Gold.Chemscore.Rot.Weighted>
4.4019

> <Gold.Chemscore.Internal.Correction.Weighted>
   9.000000E+99

> <Gold.Protein.RotatedTorsions>
[ 6907 6896 6895 6894 ] final    6.06 input  -60.11 | X-H torsion
[ 7974 7965 7964 7962 ] final   91.60 input  175.53 | X-H torsion
[ 8008 7997 7996 7995 ] final -175.06 input   59.86 | X-H torsion
[ 10167 10162 10161 10158 ] final  136.82 input  -65.29 | X-H torsion
[ 10718 10713 10712 10709 ] final   47.82 input   66.30 | X-H torsion
[ 10763 10752 10751 10750 ] final   63.91 input  -60.55 | X-H torsion
[ 11005 11000 10999 10996 ] final   -0.92 input  -57.11 | X-H torsion

> <Gold.Protein.ActiveResidues>
 VAL166  LYS551  ARG553  GLY616  TRP617  ASP618  TYR619  PRO620  LYS621  CYS622 
 ASP623  PHE694  ASN695  SER759  ASP760  ASP761  ALA762  ILE779  LEU786  VAL792 
 PHE793  MET794  SER795  GLU796  ALA797  LYS798  CYS799  TRP800  GLU811  SER814 

> <Gold.Protein.RotatedAtoms>
  151.6675  135.0981  160.0191 H   0  0  0  0  0  0  0  0  0  0  0  0  # atno 6907 bound_to 6896
  152.3911  133.6675  159.6246 H   0  0  0  0  0  0  0  0  0  0  0  0  # atno 6908 bound_to 6896
  150.7826  133.8870  159.3343 H   0  0  0  0  0  0  0  0  0  0  0  0  # atno 6909 bound_to 6896
  145.5034  139.2276  143.2764 H   0  0  0  0  0  0  0  0  0  0  0  0  # atno 7974 bound_to 7965
  155.9779  140.1176  157.0753 H   0  0  0  0  0  0  0  0  0  0  0  0  # atno 8008 bound_to 7997
  154.4174  140.1150  156.5463 H   0  0  0  0  0  0  0  0  0  0  0  0  # atno 8009 bound_to 7997
  155.6510  140.3473  155.4750 H   0  0  0  0  0  0  0  0  0  0  0  0  # atno 8010 bound_to 7997
  139.5166  144.6444  151.5481 H   0  0  0  0  0  0  0  0  0  0  0  0  # atno 10167 bound_to 10162
  157.4624  130.8204  149.7900 H   0  0  0  0  0  0  0  0  0  0  0  0  # atno 10718 bound_to 10713
  153.0035  135.5412  154.6426 H   0  0  0  0  0  0  0  0  0  0  0  0  # atno 10763 bound_to 10752
  154.5677  135.2839  155.0860 H   0  0  0  0  0  0  0  0  0  0  0  0  # atno 10764 bound_to 10752
  154.2037  135.6479  153.5147 H   0  0  0  0  0  0  0  0  0  0  0  0  # atno 10765 bound_to 10752
  140.6417  133.9484  155.8329 H   0  0  0  0  0  0  0  0  0  0  0  0  # atno 11005 bound_to 11000
  146.2211  140.5837  142.9016 LP  0  0  0  0  0  0  0  0  0  0  0  0  # atno 17320 bound_to 7965
  144.7767  140.5754  143.6633 LP  0  0  0  0  0  0  0  0  0  0  0  0  # atno 17321 bound_to 7965
  140.6223  143.9235  150.6536 LP  0  0  0  0  0  0  0  0  0  0  0  0  # atno 17342 bound_to 10162
  140.2513  143.3591  152.1403 LP  0  0  0  0  0  0  0  0  0  0  0  0  # atno 17343 bound_to 10162
  156.0034  130.3868  150.2519 LP  0  0  0  0  0  0  0  0  0  0  0  0  # atno 17370 bound_to 10713
  157.0697  131.0113  151.3194 LP  0  0  0  0  0  0  0  0  0  0  0  0  # atno 17371 bound_to 10713
  141.0602  134.0357  157.3668 LP  0  0  0  0  0  0  0  0  0  0  0  0  # atno 17394 bound_to 11000
  139.9078  135.0183  156.7561 LP  0  0  0  0  0  0  0  0  0  0  0  0  # atno 17395 bound_to 11000

$$$$
