AV-unprocessed.smi:1534|AV-procd|sdf|6166|dock2
  -GOLD-   22720 6313D 1   1.00000     0.00000
 Structure written by MMmdl.
 36 37  0  0  0  0  0  0  0  0  1 V2000
  146.3885  137.7280  155.1002 O   0  0  0  0  0  0  0  0  0  0  0  0
  147.1517  137.3596  154.2096 C   0  0  0  0  0  0  0  0  0  0  0  0
  146.7901  136.5198  153.2260 N   0  0  0  0  0  0  0  0  0  0  0  0
  145.4928  135.8609  153.1163 C   0  0  0  0  0  0  0  0  0  0  0  0
  145.0599  135.6381  151.6525 C   0  0  0  0  0  0  0  0  0  0  0  0
  144.8444  134.1757  151.2976 C   0  0  0  0  0  0  0  0  0  0  0  0
  145.9060  133.2488  151.3818 C   0  0  0  0  0  0  0  0  0  0  0  0
  145.6585  131.9099  151.0229 C   0  0  0  0  0  0  0  0  0  0  0  0
  144.3657  131.5507  150.5960 C   0  0  0  0  0  0  0  0  0  0  0  0
  143.3732  132.5501  150.5500 C   0  0  0  0  0  0  0  0  0  0  0  0
  143.6002  133.8369  150.8916 N   0  0  0  0  0  0  0  0  0  0  0  0
  148.4317  137.7688  154.1557 N   0  0  0  0  0  0  0  0  0  0  0  0
  149.1296  138.6755  155.0692 C   0  0  2  0  0  0  0  0  0  0  0  0
  149.1767  140.1245  154.5371 C   0  0  0  0  0  0  0  0  0  0  0  0
  150.2334  140.9079  155.3240 C   0  0  0  0  0  0  0  0  0  0  0  0
  151.5146  139.6905  155.8078 S   0  0  0  0  0  0  0  0  0  0  0  0
  152.6926  139.8431  154.9409 O   0  0  0  0  0  0  0  0  0  0  0  0
  151.6464  139.6948  157.2726 O   0  0  0  0  0  0  0  0  0  0  0  0
  150.5755  138.2068  155.2842 C   0  0  0  0  0  0  0  0  0  0  0  0
  147.4797  136.2808  152.5288 H   0  0  0  0  0  0  0  0  0  0  0  0
  145.4960  134.9167  153.6628 H   0  0  0  0  0  0  0  0  0  0  0  0
  144.7647  136.5020  153.6137 H   0  0  0  0  0  0  0  0  0  0  0  0
  144.1376  136.1868  151.4579 H   0  0  0  0  0  0  0  0  0  0  0  0
  145.8065  136.0620  150.9797 H   0  0  0  0  0  0  0  0  0  0  0  0
  146.8896  133.5569  151.7053 H   0  0  0  0  0  0  0  0  0  0  0  0
  146.4465  131.1731  151.0703 H   0  0  0  0  0  0  0  0  0  0  0  0
  144.1393  130.5336  150.3125 H   0  0  0  0  0  0  0  0  0  0  0  0
  142.3707  132.3100  150.2281 H   0  0  0  0  0  0  0  0  0  0  0  0
  148.9724  137.4385  153.3695 H   0  0  0  0  0  0  0  0  0  0  0  0
  148.6342  138.6756  156.0419 H   0  0  0  0  0  0  0  0  0  0  0  0
  149.4636  140.1113  153.4846 H   0  0  0  0  0  0  0  0  0  0  0  0
  148.2048  140.6147  154.5941 H   0  0  0  0  0  0  0  0  0  0  0  0
  150.6795  141.7181  154.7472 H   0  0  0  0  0  0  0  0  0  0  0  0
  149.8053  141.3248  156.2360 H   0  0  0  0  0  0  0  0  0  0  0  0
  150.6625  137.4220  156.0360 H   0  0  0  0  0  0  0  0  0  0  0  0
  151.0190  137.8481  154.3547 H   0  0  0  0  0  0  0  0  0  0  0  0
  1  2  2  0  0  0  0
  2  3  1  0  0  0  0
  2 12  1  0  0  0  0
  3  4  1  0  0  0  0
  3 20  1  0  0  0  0
  4  5  1  0  0  0  0
  4 21  1  0  0  0  0
  4 22  1  0  0  0  0
  5  6  1  0  0  0  0
  5 23  1  0  0  0  0
  5 24  1  0  0  0  0
  6 11  1  0  0  0  0
  6  7  2  0  0  0  0
  7  8  1  0  0  0  0
  7 25  1  0  0  0  0
  8  9  2  0  0  0  0
  8 26  1  0  0  0  0
  9 10  1  0  0  0  0
  9 27  1  0  0  0  0
 10 11  2  0  0  0  0
 10 28  1  0  0  0  0
 12 13  1  0  0  0  0
 12 29  1  0  0  0  0
 13 19  1  0  0  0  0
 13 14  1  0  0  0  0
 13 30  1  0  0  0  0
 14 15  1  0  0  0  0
 14 31  1  0  0  0  0
 14 32  1  0  0  0  0
 15 16  1  0  0  0  0
 15 33  1  0  0  0  0
 15 34  1  0  0  0  0
 16 17  2  0  0  0  0
 16 18  2  0  0  0  0
 16 19  1  0  0  0  0
 19 35  1  0  0  0  0
 19 36  1  0  0  0  0
M  END
> <s_m_source_file>
AV-unprocessed.smi

> <i_m_source_file_index>
1534

> <i_lp_mmshare_version>
43012

> <i_f3d_flags>
0

> <s_epik_input>
Tz1TMSg9TylbQ0gyXVtDSDJdW0NASF0oW0NIMl0xKVtOSF1DKD1PKVtOSF1bQ0gyXVtDSDJdYzJbY0hdW2NIXVtjSF1bY0hdbjI=

> <s_epik_cmdline>
J2VwaWtfcHl0aG9uJywgJy1waCcsICc3LjAnLCAnLXRuJywgJzgnLCAnLW1hJywgJzIwMCcsICctbWV0YWxfYmluZGluZycsICctaW1hZScsICc8aW5maWxlLm1hZT4nLCAnLW9tYWUnLCAnPG91dGZpbGUubWFlPic=

> <r_epik_Ionization_Penalty>
0.0423605

> <r_epik_Ionization_Penalty_Charging>
0

> <r_epik_Ionization_Penalty_Neutral>
0.0423605

> <r_epik_State_Penalty>
0.0357408

> <r_epik_Charging_Adjusted_Penalty>
0.0357408

> <i_epik_Tot_Q>
0

> <i_epik_Tot_abs_Q>
0

> <r_epik_Metal_State_Penalty>
0.033344

> <b_epik_Metal_Only>
0

> <s_lp_Force_Field>
OPLS_2005

> <r_lp_Energy>
11.0291

> <b_lp_Chiralities_Consistent>
1

> <s_lp_Variant>
AV-unprocessed.smi:1534-1

> <Gold.Version>
5.8.1

> <Gold.Id.Protein>
6NUR|6NUR_protein|mol2

> <Gold.PLP.Fitness>
41.3940

> <Gold.PLP.PLP>
-29.3876

> <Gold.PLP.part.hbond>
-4.0000

> <Gold.PLP.part.metal>
0.0000

> <Gold.PLP.part.buried>
-3.4549

> <Gold.PLP.part.nonpolar>
-24.0619

> <Gold.PLP.part.repulsive>
0.8687

> <Gold.PLP.ligand.clash>
0.0000

> <Gold.PLP.ligand.torsion>
0.8803

> <Gold.PLP.Chemscore.Hbond>
3.2800

> <Gold.PLP.Chemscore.CHOScore>
1.2987

> <Gold.PLP.Chemscore.Metal>
0.0000

> <Gold.Chemscore.Hbonds>
donor molecule, donor type, donor heavy atom, donor atom, acceptor molecule, acceptor atom, score
      L1  H     3    20       P1  7948  1.00
      L1  H    12    29       P1  7948  0.90
      P1  H  7989  7998       L1    17  0.38
      P1  H  7997  8010       L1    17  0.99
      L1  C    10    28       P1 10186  0.56
      L1  C    10    28       P1 10952  0.89

> <Gold.PLP.Chemscore.Internal.Correction>
0.0309

> <Gold.Rescore>
     Score         DG    S(hbond)    S(metal)    S(lipo)     H(rot)  DE(clash)    DE(int)     intcor
     17.84     -18.81       2.84        0.00      70.75       1.73       0.11       0.86       ----

> <Gold.Chemscore.Fitness>
17.8355

> <Gold.Chemscore.DG>
-18.8098

> <Gold.Chemscore.ZeroCoef>
-5.4800

> <Gold.Chemscore.Hbond>
2.8423

> <Gold.Chemscore.Metal>
0.0000

> <Gold.Chemscore.Lipo>
70.7469

> <Gold.Chemscore.Internal_Hbond>
0.0000

> <Gold.Chemscore.DEClash>
0.1101

> <Gold.Chemscore.DEInternal>
0.8642

> <Gold.Chemscore.Rot>
1.7348

> <Gold.Chemscore.Internal.Correction>
   9.000000E+99

> <Gold.Chemscore.Hbonds>
donor molecule, donor type, donor heavy atom, donor atom, acceptor molecule, acceptor atom, score
      L1  H     3    20       P1  7948  0.98
      L1  H    12    29       P1  7948  0.88
      P1  H  7989  7998       L1    17  0.05
      P1  H  7997  8010       L1    17  0.79

> <Gold.Chemscore.Hbond.Weighted>
-9.4934

> <Gold.Chemscore.Metal.Weighted>
-0.0000

> <Gold.Chemscore.Lipo.Weighted>
-8.2774

> <Gold.Chemscore.Internal_Hbond.Weighted>
0.0000

> <Gold.Chemscore.DEClash.Weighted>
0.1101

> <Gold.Chemscore.DEInternal.Weighted>
0.8642

> <Gold.Chemscore.Rot.Weighted>
4.4410

> <Gold.Chemscore.Internal.Correction.Weighted>
   9.000000E+99

> <Gold.Protein.RotatedTorsions>
[ 6907 6896 6895 6894 ] final  145.24 input  -60.11 | X-H torsion
[ 7974 7965 7964 7962 ] final   36.36 input  175.53 | X-H torsion
[ 8008 7997 7996 7995 ] final   96.89 input   59.86 | X-H torsion
[ 10167 10162 10161 10158 ] final -144.42 input  -65.29 | X-H torsion
[ 10718 10713 10712 10709 ] final  -86.84 input   66.30 | X-H torsion
[ 10763 10752 10751 10750 ] final  -33.00 input  -60.55 | X-H torsion
[ 11005 11000 10999 10996 ] final  -39.57 input  -57.11 | X-H torsion

> <Gold.Protein.ActiveResidues>
 VAL166  LYS551  ARG553  GLY616  TRP617  ASP618  TYR619  PRO620  LYS621  CYS622 
 ASP623  PHE694  ASN695  SER759  ASP760  ASP761  ALA762  ILE779  LEU786  VAL792 
 PHE793  MET794  SER795  GLU796  ALA797  LYS798  CYS799  TRP800  GLU811  SER814 

> <Gold.Protein.RotatedAtoms>
  152.1834  133.4723  159.4969 H   0  0  0  0  0  0  0  0  0  0  0  0  # atno 6907 bound_to 6896
  150.6938  134.1804  159.4255 H   0  0  0  0  0  0  0  0  0  0  0  0  # atno 6908 bound_to 6896
  151.9716  135.0073  160.0603 H   0  0  0  0  0  0  0  0  0  0  0  0  # atno 6909 bound_to 6896
  146.1217  139.6028  142.9285 H   0  0  0  0  0  0  0  0  0  0  0  0  # atno 7974 bound_to 7965
  156.0843  140.3266  155.7734 H   0  0  0  0  0  0  0  0  0  0  0  0  # atno 8008 bound_to 7997
  155.5101  140.0576  157.2942 H   0  0  0  0  0  0  0  0  0  0  0  0  # atno 8009 bound_to 7997
  154.4600  140.1962  156.0287 H   0  0  0  0  0  0  0  0  0  0  0  0  # atno 8010 bound_to 7997
  139.7901  143.7978  152.2649 H   0  0  0  0  0  0  0  0  0  0  0  0  # atno 10167 bound_to 10162
  155.9988  130.4779  150.4775 H   0  0  0  0  0  0  0  0  0  0  0  0  # atno 10718 bound_to 10713
  153.8230  135.6872  153.4824 H   0  0  0  0  0  0  0  0  0  0  0  0  # atno 10763 bound_to 10752
  153.1557  135.4600  154.9699 H   0  0  0  0  0  0  0  0  0  0  0  0  # atno 10764 bound_to 10752
  154.7919  135.3305  154.7700 H   0  0  0  0  0  0  0  0  0  0  0  0  # atno 10765 bound_to 10752
  141.0111  133.6907  156.2204 H   0  0  0  0  0  0  0  0  0  0  0  0  # atno 11005 bound_to 11000
  145.5452  141.0418  143.2309 LP  0  0  0  0  0  0  0  0  0  0  0  0  # atno 17320 bound_to 7965
  144.7603  139.6972  143.7237 LP  0  0  0  0  0  0  0  0  0  0  0  0  # atno 17321 bound_to 7965
  139.8067  144.7352  150.9752 LP  0  0  0  0  0  0  0  0  0  0  0  0  # atno 17342 bound_to 10162
  140.7820  143.4291  151.0722 LP  0  0  0  0  0  0  0  0  0  0  0  0  # atno 17343 bound_to 10162
  157.2784  131.0602  151.2214 LP  0  0  0  0  0  0  0  0  0  0  0  0  # atno 17370 bound_to 10713
  157.3269  130.6965  149.6301 LP  0  0  0  0  0  0  0  0  0  0  0  0  # atno 17371 bound_to 10713
  140.6732  134.4846  157.5587 LP  0  0  0  0  0  0  0  0  0  0  0  0  # atno 17394 bound_to 11000
  139.9090  134.8385  156.1596 LP  0  0  0  0  0  0  0  0  0  0  0  0  # atno 17395 bound_to 11000

$$$$
