AV-unprocessed.smi:1570|AV-procd|sdf|6323|dock1
  -GOLD-   22720 6533D 1   1.00000     0.00000
 Structure written by MMmdl.
 52 54  0  0  0  0  0  0  0  0  2 V2000
  153.1729  139.2005  160.1748 C   0  0  0  0  0  0  0  0  0  0  0  0
  153.7104  140.6252  159.9902 C   0  0  0  0  0  0  0  0  0  0  0  0
  152.8218  141.4193  159.1454 N   0  0  0  0  0  0  0  0  0  0  0  0
  152.2843  141.0433  157.9618 C   0  0  0  0  0  0  0  0  0  0  0  0
  152.4677  139.9680  157.3909 O   0  0  0  0  0  0  0  0  0  0  0  0
  151.4929  142.0495  157.5194 N   0  0  0  0  0  0  0  0  0  0  0  0
  150.7197  142.0620  156.2780 C   0  0  0  0  0  0  0  0  0  0  0  0
  149.4647  141.1705  156.3743 C   0  0  1  0  0  0  0  0  0  0  0  0
  148.3421  142.0084  156.5698 O   0  0  0  0  0  0  0  0  0  0  0  0
  149.2306  140.3701  155.0767 C   0  0  0  0  0  0  0  0  0  0  0  0
  150.0384  139.1248  155.0291 N   0  3  1  0  0  0  0  0  0  0  0  0
  151.4783  139.3847  154.8006 C   0  0  0  0  0  0  0  0  0  0  0  0
  152.2456  138.0589  154.6450 C   0  0  1  0  0  0  0  0  0  0  0  0
  153.7549  138.2815  154.4982 C   0  0  0  0  0  0  0  0  0  0  0  0
  152.0329  137.2480  155.7978 O   0  0  0  0  0  0  0  0  0  0  0  0
  150.6652  136.9510  156.0798 C   0  0  2  0  0  0  0  0  0  0  0  0
  150.0626  135.9566  155.0713 C   0  0  0  0  0  0  0  0  0  0  0  0
  149.8560  138.2552  156.2175 C   0  0  0  0  0  0  0  0  0  0  0  0
  151.5127  143.0938  158.4557 C   0  0  0  0  0  0  0  0  0  0  0  0
  150.8538  144.3359  158.4747 C   0  0  0  0  0  0  0  0  0  0  0  0
  151.0854  145.1742  159.5904 C   0  0  0  0  0  0  0  0  0  0  0  0
  151.9477  144.7660  160.6406 C   0  0  0  0  0  0  0  0  0  0  0  0
  152.5958  143.5096  160.5982 C   0  0  0  0  0  0  0  0  0  0  0  0
  152.3494  142.6967  159.4781 C   0  0  0  0  0  0  0  0  0  0  0  0
  153.8383  138.6146  160.8088 H   0  0  0  0  0  0  0  0  0  0  0  0
  153.0847  138.6845  159.2181 H   0  0  0  0  0  0  0  0  0  0  0  0
  152.1886  139.2075  160.6443 H   0  0  0  0  0  0  0  0  0  0  0  0
  153.8241  141.1112  160.9595 H   0  0  0  0  0  0  0  0  0  0  0  0
  154.7087  140.5904  159.5515 H   0  0  0  0  0  0  0  0  0  0  0  0
  150.4625  143.0791  155.9807 H   0  0  0  0  0  0  0  0  0  0  0  0
  151.3744  141.6873  155.4895 H   0  0  0  0  0  0  0  0  0  0  0  0
  149.5544  140.4927  157.2222 H   0  0  0  0  0  0  0  0  0  0  0  0
  148.5668  142.8846  156.2957 H   0  0  0  0  0  0  0  0  0  0  0  0
  148.1685  140.1315  154.9984 H   0  0  0  0  0  0  0  0  0  0  0  0
  149.4680  140.9772  154.2015 H   0  0  0  0  0  0  0  0  0  0  0  0
  151.6060  139.9862  153.8997 H   0  0  0  0  0  0  0  0  0  0  0  0
  151.8811  139.9640  155.6333 H   0  0  0  0  0  0  0  0  0  0  0  0
  151.8946  137.5347  153.7559 H   0  0  0  0  0  0  0  0  0  0  0  0
  153.9793  138.8865  153.6193 H   0  0  0  0  0  0  0  0  0  0  0  0
  154.2802  137.3322  154.3902 H   0  0  0  0  0  0  0  0  0  0  0  0
  154.1662  138.7913  155.3700 H   0  0  0  0  0  0  0  0  0  0  0  0
  150.6594  136.4546  157.0507 H   0  0  0  0  0  0  0  0  0  0  0  0
  149.0645  135.6479  155.3832 H   0  0  0  0  0  0  0  0  0  0  0  0
  150.6759  135.0582  154.9985 H   0  0  0  0  0  0  0  0  0  0  0  0
  149.9705  136.3822  154.0725 H   0  0  0  0  0  0  0  0  0  0  0  0
  150.1861  138.7952  157.1066 H   0  0  0  0  0  0  0  0  0  0  0  0
  148.8039  138.0177  156.3712 H   0  0  0  0  0  0  0  0  0  0  0  0
  150.1945  144.6427  157.6767 H   0  0  0  0  0  0  0  0  0  0  0  0
  150.5980  146.1366  159.6448 H   0  0  0  0  0  0  0  0  0  0  0  0
  152.1101  145.4215  161.4836 H   0  0  0  0  0  0  0  0  0  0  0  0
  153.2496  143.1913  161.3968 H   0  0  0  0  0  0  0  0  0  0  0  0
  149.7128  138.6057  154.2256 H   0  0  0  0  0  0  0  0  0  0  0  0
  1  2  1  0  0  0  0
  1 25  1  0  0  0  0
  1 26  1  0  0  0  0
  1 27  1  0  0  0  0
  2  3  1  0  0  0  0
  2 28  1  0  0  0  0
  2 29  1  0  0  0  0
  3 24  1  0  0  0  0
  3  4  1  0  0  0  0
  4  5  2  0  0  0  0
  4  6  1  0  0  0  0
  6  7  1  0  0  0  0
  6 19  1  0  0  0  0
  7  8  1  0  0  0  0
  7 30  1  0  0  0  0
  7 31  1  0  0  0  0
  8  9  1  0  0  0  0
  8 10  1  0  0  0  0
  8 32  1  0  0  0  0
  9 33  1  0  0  0  0
 10 11  1  0  0  0  0
 10 34  1  0  0  0  0
 10 35  1  0  0  0  0
 11 18  1  0  0  0  0
 11 12  1  0  0  0  0
 11 52  1  0  0  0  0
 12 13  1  0  0  0  0
 12 36  1  0  0  0  0
 12 37  1  0  0  0  0
 13 14  1  0  0  0  0
 13 15  1  0  0  0  0
 13 38  1  0  0  0  0
 14 39  1  0  0  0  0
 14 40  1  0  0  0  0
 14 41  1  0  0  0  0
 15 16  1  0  0  0  0
 16 17  1  0  0  0  0
 16 18  1  0  0  0  0
 16 42  1  0  0  0  0
 17 43  1  0  0  0  0
 17 44  1  0  0  0  0
 17 45  1  0  0  0  0
 18 46  1  0  0  0  0
 18 47  1  0  0  0  0
 19 24  2  0  0  0  0
 19 20  1  0  0  0  0
 20 21  2  0  0  0  0
 20 48  1  0  0  0  0
 21 22  1  0  0  0  0
 21 49  1  0  0  0  0
 22 23  2  0  0  0  0
 22 50  1  0  0  0  0
 23 24  1  0  0  0  0
 23 51  1  0  0  0  0
M  CHG  1  11   1
M  END
> <s_m_source_file>
AV-unprocessed.smi

> <i_m_source_file_index>
1570

> <i_lp_mmshare_version>
43012

> <i_f3d_flags>
0

> <s_epik_input>
W2NIXTFbY0hdW2NIXVtjSF1jKGMxMiluKFtDSDJdW0NIM10pYyg9TyluMltDSDJdW0NASF0oW09IXSlbQ0gyXU4zW0NIMl1bQ0BASF0oW0NIM10pT1tDQEBIXShbQ0gzXSlbQ0gyXTM=

> <s_epik_cmdline>
J2VwaWtfcHl0aG9uJywgJy1waCcsICc3LjAnLCAnLXRuJywgJzgnLCAnLW1hJywgJzIwMCcsICctbWV0YWxfYmluZGluZycsICctaW1hZScsICc8aW5maWxlLm1hZT4nLCAnLW9tYWUnLCAnPG91dGZpbGUubWFlPic=

> <r_epik_Ionization_Penalty>
0.706332

> <r_epik_Ionization_Penalty_Charging>
0.706318

> <r_epik_Ionization_Penalty_Neutral>
1.42224e-05

> <r_epik_State_Penalty>
0.729493

> <r_epik_Charging_Adjusted_Penalty>
1.43581

> <i_epik_Tot_Q>
1

> <i_epik_Tot_abs_Q>
1

> <r_epik_Metal_State_Penalty>
0.729493

> <b_epik_Metal_Only>
0

> <s_lp_Force_Field>
OPLS_2005

> <r_lp_Energy>
55.371

> <b_lp_Chiralities_Consistent>
1

> <s_lp_Variant>
AV-unprocessed.smi:1570-12

> <Gold.Version>
5.8.1

> <Gold.Id.Protein>
6NUR|6NUR_protein|mol2

> <Gold.PLP.Fitness>
52.3460

> <Gold.PLP.PLP>
-46.8107

> <Gold.PLP.part.hbond>
-3.0000

> <Gold.PLP.part.metal>
0.0000

> <Gold.PLP.part.buried>
-3.4596

> <Gold.PLP.part.nonpolar>
-40.9252

> <Gold.PLP.part.repulsive>
0.0893

> <Gold.PLP.ligand.clash>
0.0000

> <Gold.PLP.ligand.torsion>
1.1874

> <Gold.PLP.Chemscore.Hbond>
2.5242

> <Gold.PLP.Chemscore.CHOScore>
0.0000

> <Gold.PLP.Chemscore.Metal>
0.0000

> <Gold.Chemscore.Hbonds>
donor molecule, donor type, donor heavy atom, donor atom, acceptor molecule, acceptor atom, score
      L1  H     9    33       P1  8028  1.00
      P1  H  7997  8010       L1     5  0.94
      P1  H 10752 10765       L1    15  0.32

> <Gold.PLP.Chemscore.Internal.Correction>
0.3377

> <Gold.Rescore>
     Score         DG    S(hbond)    S(metal)    S(lipo)     H(rot)  DE(clash)    DE(int)     intcor
     19.39     -22.58       1.89        0.00     138.75       2.13       1.21       1.98       ----

> <Gold.Chemscore.Fitness>
19.3941

> <Gold.Chemscore.DG>
-22.5843

> <Gold.Chemscore.ZeroCoef>
-5.4800

> <Gold.Chemscore.Hbond>
1.8933

> <Gold.Chemscore.Metal>
0.0000

> <Gold.Chemscore.Lipo>
138.7549

> <Gold.Chemscore.Internal_Hbond>
0.0000

> <Gold.Chemscore.DEClash>
1.2134

> <Gold.Chemscore.DEInternal>
1.9767

> <Gold.Chemscore.Rot>
2.1303

> <Gold.Chemscore.Internal.Correction>
   9.000000E+99

> <Gold.Chemscore.Hbonds>
donor molecule, donor type, donor heavy atom, donor atom, acceptor molecule, acceptor atom, score
      L1  H     9    33       P1  8028  0.94
      P1  H  7997  8010       L1     5  0.44
      P1  H 10752 10765       L1    15  0.01

> <Gold.Chemscore.Hbond.Weighted>
-6.3235

> <Gold.Chemscore.Metal.Weighted>
-0.0000

> <Gold.Chemscore.Lipo.Weighted>
-16.2343

> <Gold.Chemscore.Internal_Hbond.Weighted>
0.0000

> <Gold.Chemscore.DEClash.Weighted>
1.2134

> <Gold.Chemscore.DEInternal.Weighted>
1.9767

> <Gold.Chemscore.Rot.Weighted>
5.4535

> <Gold.Chemscore.Internal.Correction.Weighted>
   9.000000E+99

> <Gold.Protein.RotatedTorsions>
[ 6907 6896 6895 6894 ] final  -52.70 input  -60.11 | X-H torsion
[ 7974 7965 7964 7962 ] final -121.45 input  175.53 | X-H torsion
[ 8008 7997 7996 7995 ] final   60.98 input   59.86 | X-H torsion
[ 10167 10162 10161 10158 ] final   13.85 input  -65.29 | X-H torsion
[ 10718 10713 10712 10709 ] final   -9.85 input   66.30 | X-H torsion
[ 10763 10752 10751 10750 ] final -165.69 input  -60.55 | X-H torsion
[ 11005 11000 10999 10996 ] final -118.37 input  -57.11 | X-H torsion

> <Gold.Protein.ActiveResidues>
 VAL166  LYS551  ARG553  GLY616  TRP617  ASP618  TYR619  PRO620  LYS621  CYS622 
 ASP623  PHE694  ASN695  SER759  ASP760  ASP761  ALA762  ILE779  LEU786  VAL792 
 PHE793  MET794  SER795  GLU796  ALA797  LYS798  CYS799  TRP800  GLU811  SER814 

> <Gold.Protein.RotatedAtoms>
  150.8494  134.7814  159.6996 H   0  0  0  0  0  0  0  0  0  0  0  0  # atno 6907 bound_to 6896
  152.4562  134.5282  159.9813 H   0  0  0  0  0  0  0  0  0  0  0  0  # atno 6908 bound_to 6896
  151.5406  133.3395  159.2970 H   0  0  0  0  0  0  0  0  0  0  0  0  # atno 6909 bound_to 6896
  145.0402  140.8138  143.4271 H   0  0  0  0  0  0  0  0  0  0  0  0  # atno 7974 bound_to 7965
  155.5910  140.3493  155.4566 H   0  0  0  0  0  0  0  0  0  0  0  0  # atno 8008 bound_to 7997
  156.0301  140.1272  157.0292 H   0  0  0  0  0  0  0  0  0  0  0  0  # atno 8009 bound_to 7997
  154.4349  140.1045  156.6073 H   0  0  0  0  0  0  0  0  0  0  0  0  # atno 8010 bound_to 7997
  140.5975  143.8672  150.6932 H   0  0  0  0  0  0  0  0  0  0  0  0  # atno 10167 bound_to 10162
  156.6820  130.5040  149.5968 H   0  0  0  0  0  0  0  0  0  0  0  0  # atno 10718 bound_to 10713
  154.6907  135.2970  154.9484 H   0  0  0  0  0  0  0  0  0  0  0  0  # atno 10763 bound_to 10752
  154.0448  135.6652  153.4798 H   0  0  0  0  0  0  0  0  0  0  0  0  # atno 10764 bound_to 10752
  153.0610  135.5116  154.7997 H   0  0  0  0  0  0  0  0  0  0  0  0  # atno 10765 bound_to 10752
  141.0291  134.0009  157.3170 H   0  0  0  0  0  0  0  0  0  0  0  0  # atno 11005 bound_to 11000
  145.1657  139.2433  143.5368 LP  0  0  0  0  0  0  0  0  0  0  0  0  # atno 17320 bound_to 7965
  146.3508  140.1395  142.8595 LP  0  0  0  0  0  0  0  0  0  0  0  0  # atno 17321 bound_to 7965
  140.2210  143.3809  152.1643 LP  0  0  0  0  0  0  0  0  0  0  0  0  # atno 17342 bound_to 10162
  139.5268  144.7112  151.5200 LP  0  0  0  0  0  0  0  0  0  0  0  0  # atno 17343 bound_to 10162
  156.1861  130.6530  151.1007 LP  0  0  0  0  0  0  0  0  0  0  0  0  # atno 17370 bound_to 10713
  157.7040  131.0764  150.6727 LP  0  0  0  0  0  0  0  0  0  0  0  0  # atno 17371 bound_to 10713
  139.9195  135.0199  156.8011 LP  0  0  0  0  0  0  0  0  0  0  0  0  # atno 17394 bound_to 11000
  140.6439  133.9793  155.7721 LP  0  0  0  0  0  0  0  0  0  0  0  0  # atno 17395 bound_to 11000

$$$$
