AV-unprocessed.smi:249|AV-procd|sdf|1918|dock10
  -GOLD-   2262021 23D 1   1.00000     0.00000
 Structure written by MMmdl.
 64 67  0  0  0  0  0  0  0  0  2 V2000
  145.1655  135.1109  151.9979 C   0  0  0  0  0  0  0  0  0  0  0  0
  146.1663  133.9483  152.0539 C   0  0  0  0  0  0  0  0  0  0  0  0
  147.3961  134.2990  152.8104 N   0  3  2  0  0  0  0  0  0  0  0  0
  148.4369  133.2358  152.7838 C   0  0  0  0  0  0  0  0  0  0  0  0
  149.7531  133.7405  153.3949 C   0  0  0  0  0  0  0  0  0  0  0  0
  149.5405  134.2471  154.8359 C   0  0  1  0  0  0  0  0  0  0  0  0
  150.7759  134.6833  155.5003 N   0  0  0  0  0  0  0  0  0  0  0  0
  151.8237  133.6883  155.6945 C   0  0  0  0  0  0  0  0  0  0  0  0
  150.6671  135.5768  156.5123 C   0  0  0  0  0  0  0  0  0  0  0  0
  150.0792  135.1526  157.6591 N   0  0  0  0  0  0  0  0  0  0  0  0
  149.9397  135.9899  158.6913 C   0  0  0  0  0  0  0  0  0  0  0  0
  150.3106  137.2685  158.7845 N   0  0  0  0  0  0  0  0  0  0  0  0
  150.8961  137.6995  157.6308 C   0  0  0  0  0  0  0  0  0  0  0  0
  151.1107  136.9291  156.4537 C   0  0  0  0  0  0  0  0  0  0  0  0
  151.7383  137.7078  155.4877 N   0  0  0  0  0  0  0  0  0  0  0  0
  151.8820  138.8724  156.0596 C   0  0  0  0  0  0  0  0  0  0  0  0
  151.4112  138.9516  157.3504 N   0  0  0  0  0  0  0  0  0  0  0  0
  151.4472  140.1108  158.2239 C   0  0  0  0  0  0  0  0  0  0  0  0
  151.7767  141.4253  157.4738 C   0  0  1  0  0  0  0  0  0  0  0  0
  150.8174  141.6911  156.2883 C   0  0  0  0  0  0  0  0  0  0  0  0
  149.5027  141.9513  156.7360 O   0  0  0  0  0  0  0  0  0  0  0  0
  151.8646  142.6296  158.4447 C   0  0  2  0  0  0  0  0  0  0  0  0
  152.0451  143.9801  157.7738 C   0  0  0  0  0  0  0  0  0  0  0  0
  152.5640  144.8439  158.9179 C   0  0  0  0  0  0  0  0  0  0  0  0
  153.3146  143.9686  159.7519 O   0  0  0  0  0  0  0  0  0  0  0  0
  153.0872  142.6163  159.3683 C   0  0  0  0  0  0  0  0  0  0  0  0
  148.4355  135.3260  154.8314 C   0  0  0  0  0  0  0  0  0  0  0  0
  147.1297  134.8179  154.1851 C   0  0  2  0  0  0  0  0  0  0  0  0
  146.3786  133.8138  155.0867 C   0  0  0  0  0  0  0  0  0  0  0  0
  144.2424  134.7977  151.5096 H   0  0  0  0  0  0  0  0  0  0  0  0
  145.5542  135.9608  151.4378 H   0  0  0  0  0  0  0  0  0  0  0  0
  144.9070  135.4569  152.9992 H   0  0  0  0  0  0  0  0  0  0  0  0
  145.6701  133.1078  152.5408 H   0  0  0  0  0  0  0  0  0  0  0  0
  146.4241  133.6165  151.0472 H   0  0  0  0  0  0  0  0  0  0  0  0
  148.0859  132.3488  153.3118 H   0  0  0  0  0  0  0  0  0  0  0  0
  148.6292  132.9256  151.7573 H   0  0  0  0  0  0  0  0  0  0  0  0
  150.4935  132.9398  153.3848 H   0  0  0  0  0  0  0  0  0  0  0  0
  150.1444  134.5377  152.7618 H   0  0  0  0  0  0  0  0  0  0  0  0
  149.1812  133.4015  155.4230 H   0  0  0  0  0  0  0  0  0  0  0  0
  152.7176  134.1405  156.1266 H   0  0  0  0  0  0  0  0  0  0  0  0
  152.1049  133.2495  154.7370 H   0  0  0  0  0  0  0  0  0  0  0  0
  151.4962  132.8830  156.3514 H   0  0  0  0  0  0  0  0  0  0  0  0
  149.4625  135.5769  159.5679 H   0  0  0  0  0  0  0  0  0  0  0  0
  152.3468  139.7084  155.5568 H   0  0  0  0  0  0  0  0  0  0  0  0
  150.4849  140.1940  158.7305 H   0  0  0  0  0  0  0  0  0  0  0  0
  152.1870  139.9134  158.9998 H   0  0  0  0  0  0  0  0  0  0  0  0
  152.7689  141.2984  157.0380 H   0  0  0  0  0  0  0  0  0  0  0  0
  151.1590  142.5384  155.6944 H   0  0  0  0  0  0  0  0  0  0  0  0
  150.7924  140.8412  155.6061 H   0  0  0  0  0  0  0  0  0  0  0  0
  149.3415  142.8805  156.6747 H   0  0  0  0  0  0  0  0  0  0  0  0
  150.9665  142.6681  159.0635 H   0  0  0  0  0  0  0  0  0  0  0  0
  152.7952  143.9169  156.9840 H   0  0  0  0  0  0  0  0  0  0  0  0
  151.1250  144.3740  157.3409 H   0  0  0  0  0  0  0  0  0  0  0  0
  153.1709  145.6793  158.5676 H   0  0  0  0  0  0  0  0  0  0  0  0
  151.7329  145.2475  159.4977 H   0  0  0  0  0  0  0  0  0  0  0  0
  152.9423  141.9825  160.2436 H   0  0  0  0  0  0  0  0  0  0  0  0
  153.9708  142.2595  158.8370 H   0  0  0  0  0  0  0  0  0  0  0  0
  148.2299  135.6734  155.8442 H   0  0  0  0  0  0  0  0  0  0  0  0
  148.7802  136.1988  154.2759 H   0  0  0  0  0  0  0  0  0  0  0  0
  146.4808  135.6880  154.0749 H   0  0  0  0  0  0  0  0  0  0  0  0
  146.1969  134.2441  156.0718 H   0  0  0  0  0  0  0  0  0  0  0  0
  146.9354  132.8897  155.2369 H   0  0  0  0  0  0  0  0  0  0  0  0
  145.4053  133.5496  154.6734 H   0  0  0  0  0  0  0  0  0  0  0  0
  147.7957  135.0828  152.3142 H   0  0  0  0  0  0  0  0  0  0  0  0
  1  2  1  0  0  0  0
  1 30  1  0  0  0  0
  1 31  1  0  0  0  0
  1 32  1  0  0  0  0
  2  3  1  0  0  0  0
  2 33  1  0  0  0  0
  2 34  1  0  0  0  0
  3 28  1  0  0  0  0
  3  4  1  0  0  0  0
  3 64  1  0  0  0  0
  4  5  1  0  0  0  0
  4 35  1  0  0  0  0
  4 36  1  0  0  0  0
  5  6  1  0  0  0  0
  5 37  1  0  0  0  0
  5 38  1  0  0  0  0
  6  7  1  0  0  0  0
  6 27  1  0  0  0  0
  6 39  1  0  0  0  0
  7  8  1  0  0  0  0
  7  9  1  0  0  0  0
  8 40  1  0  0  0  0
  8 41  1  0  0  0  0
  8 42  1  0  0  0  0
  9 14  1  0  0  0  0
  9 10  2  0  0  0  0
 10 11  1  0  0  0  0
 11 12  2  0  0  0  0
 11 43  1  0  0  0  0
 12 13  1  0  0  0  0
 13 17  1  0  0  0  0
 13 14  2  0  0  0  0
 14 15  1  0  0  0  0
 15 16  2  0  0  0  0
 16 17  1  0  0  0  0
 16 44  1  0  0  0  0
 17 18  1  0  0  0  0
 18 19  1  0  0  0  0
 18 45  1  0  0  0  0
 18 46  1  0  0  0  0
 19 20  1  0  0  0  0
 19 22  1  0  0  0  0
 19 47  1  0  0  0  0
 20 21  1  0  0  0  0
 20 48  1  0  0  0  0
 20 49  1  0  0  0  0
 21 50  1  0  0  0  0
 22 26  1  0  0  0  0
 22 23  1  0  0  0  0
 22 51  1  0  0  0  0
 23 24  1  0  0  0  0
 23 52  1  0  0  0  0
 23 53  1  0  0  0  0
 24 25  1  0  0  0  0
 24 54  1  0  0  0  0
 24 55  1  0  0  0  0
 25 26  1  0  0  0  0
 26 56  1  0  0  0  0
 26 57  1  0  0  0  0
 27 28  1  0  0  0  0
 27 58  1  0  0  0  0
 27 59  1  0  0  0  0
 28 29  1  0  0  0  0
 28 60  1  0  0  0  0
 29 61  1  0  0  0  0
 29 62  1  0  0  0  0
 29 63  1  0  0  0  0
M  CHG  1   3   1
M  END
> <s_m_source_file>
AV-unprocessed.smi

> <i_m_source_file_index>
249

> <i_lp_mmshare_version>
43012

> <i_f3d_flags>
0

> <s_epik_input>
W0NIM11bQ0gyXU4xW0NIMl1bQ0gyXVtDQEhdKFtDSDJdW0NASF0xW0NIM10pTihbQ0gzXSljKG5bY0hdbjIpYyhjMjMpbltjSF1uM1tDSDJdW0NASF0oW0NIMl1bT0hdKVtDQEBIXTRbQ0gyXVtDSDJdT1tDSDJdNA==

> <s_epik_cmdline>
J2VwaWtfcHl0aG9uJywgJy1waCcsICc3LjAnLCAnLXRuJywgJzgnLCAnLW1hJywgJzIwMCcsICctbWV0YWxfYmluZGluZycsICctaW1hZScsICc8aW5maWxlLm1hZT4nLCAnLW9tYWUnLCAnPG91dGZpbGUubWFlPic=

> <r_lp_tautomer_probability>
1

> <r_epik_Ionization_Penalty>
0.00294688

> <r_epik_Ionization_Penalty_Charging>
0.00169971

> <r_epik_Ionization_Penalty_Neutral>
0.00124717

> <r_epik_State_Penalty>
-0

> <r_epik_Charging_Adjusted_Penalty>
0.00169971

> <i_epik_Tot_Q>
1

> <i_epik_Tot_abs_Q>
1

> <r_epik_Metal_State_Penalty>
-0

> <b_epik_Metal_Only>
0

> <s_lp_Force_Field>
OPLS_2005

> <r_lp_Energy>
53.4352

> <b_lp_Chiralities_Consistent>
1

> <s_lp_Variant>
AV-unprocessed.smi:249-21

> <Gold.Version>
5.8.1

> <Gold.Id.Protein>
6NUR|6NUR_protein|mol2

> <Gold.PLP.Fitness>
54.0550

> <Gold.PLP.PLP>
-45.9314

> <Gold.PLP.part.hbond>
-2.3780

> <Gold.PLP.part.metal>
0.0000

> <Gold.PLP.part.buried>
-6.9609

> <Gold.PLP.part.nonpolar>
-37.0145

> <Gold.PLP.part.repulsive>
0.0490

> <Gold.PLP.ligand.clash>
0.0000

> <Gold.PLP.ligand.torsion>
0.9536

> <Gold.PLP.Chemscore.Hbond>
3.0000

> <Gold.PLP.Chemscore.CHOScore>
0.0000

> <Gold.PLP.Chemscore.Metal>
0.0000

> <Gold.Chemscore.Hbonds>
donor molecule, donor type, donor heavy atom, donor atom, acceptor molecule, acceptor atom, score
      L1  H     3    64       P1  7948  2.00
      L1  H    21    50       P1  8028  0.70

> <Gold.PLP.Chemscore.Internal.Correction>
1.0309

> <Gold.Rescore>
     Score         DG    S(hbond)    S(metal)    S(lipo)     H(rot)  DE(clash)    DE(int)     intcor
     15.21     -16.57       1.95        0.00     102.53       2.90       0.09       1.28       ----

> <Gold.Chemscore.Fitness>
15.2080

> <Gold.Chemscore.DG>
-16.5730

> <Gold.Chemscore.ZeroCoef>
-5.4800

> <Gold.Chemscore.Hbond>
1.9530

> <Gold.Chemscore.Metal>
0.0000

> <Gold.Chemscore.Lipo>
102.5274

> <Gold.Chemscore.Internal_Hbond>
0.0000

> <Gold.Chemscore.DEClash>
0.0880

> <Gold.Chemscore.DEInternal>
1.2770

> <Gold.Chemscore.Rot>
2.9006

> <Gold.Chemscore.Internal.Correction>
   9.000000E+99

> <Gold.Chemscore.Hbonds>
donor molecule, donor type, donor heavy atom, donor atom, acceptor molecule, acceptor atom, score
      L1  H     3    64       P1  7948  0.93
      L1  H    21    50       P1  8028  0.70

> <Gold.Chemscore.Hbond.Weighted>
-6.5230

> <Gold.Chemscore.Metal.Weighted>
-0.0000

> <Gold.Chemscore.Lipo.Weighted>
-11.9957

> <Gold.Chemscore.Internal_Hbond.Weighted>
0.0000

> <Gold.Chemscore.DEClash.Weighted>
0.0880

> <Gold.Chemscore.DEInternal.Weighted>
1.2770

> <Gold.Chemscore.Rot.Weighted>
7.4256

> <Gold.Chemscore.Internal.Correction.Weighted>
   9.000000E+99

> <Gold.Protein.RotatedTorsions>
[ 6907 6896 6895 6894 ] final  -56.97 input  -60.11 | X-H torsion
[ 7974 7965 7964 7962 ] final  161.10 input  175.53 | X-H torsion
[ 8008 7997 7996 7995 ] final  163.29 input   59.86 | X-H torsion
[ 10167 10162 10161 10158 ] final  -90.35 input  -65.29 | X-H torsion
[ 10718 10713 10712 10709 ] final  168.03 input   66.30 | X-H torsion
[ 10763 10752 10751 10750 ] final  -11.90 input  -60.55 | X-H torsion
[ 11005 11000 10999 10996 ] final   31.66 input  -57.11 | X-H torsion

> <Gold.Protein.ActiveResidues>
 VAL166  LYS551  ARG553  GLY616  TRP617  ASP618  TYR619  PRO620  LYS621  CYS622 
 ASP623  PHE694  ASN695  SER759  ASP760  ASP761  ALA762  ILE779  LEU786  VAL792 
 PHE793  MET794  SER795  GLU796  ALA797  LYS798  CYS799  TRP800  GLU811  SER814 

> <Gold.Protein.RotatedAtoms>
  150.8124  134.7286  159.6699 H   0  0  0  0  0  0  0  0  0  0  0  0  # atno 6907 bound_to 6896
  152.4243  134.5893  159.9979 H   0  0  0  0  0  0  0  0  0  0  0  0  # atno 6908 bound_to 6896
  151.6099  133.3311  159.3101 H   0  0  0  0  0  0  0  0  0  0  0  0  # atno 6909 bound_to 6896
  144.7703  139.7850  143.6299 H   0  0  0  0  0  0  0  0  0  0  0  0  # atno 7974 bound_to 7965
  156.1968  140.1727  156.7982 H   0  0  0  0  0  0  0  0  0  0  0  0  # atno 8008 bound_to 7997
  154.5539  140.0712  156.8744 H   0  0  0  0  0  0  0  0  0  0  0  0  # atno 8009 bound_to 7997
  155.2975  140.3359  155.4251 H   0  0  0  0  0  0  0  0  0  0  0  0  # atno 8010 bound_to 7997
  140.3558  143.2867  151.9673 H   0  0  0  0  0  0  0  0  0  0  0  0  # atno 10167 bound_to 10162
  157.0429  131.0292  151.2707 H   0  0  0  0  0  0  0  0  0  0  0  0  # atno 10718 bound_to 10713
  153.4905  135.7017  153.5887 H   0  0  0  0  0  0  0  0  0  0  0  0  # atno 10763 bound_to 10752
  153.4061  135.3860  155.2020 H   0  0  0  0  0  0  0  0  0  0  0  0  # atno 10764 bound_to 10752
  154.8717  135.3893  154.4365 H   0  0  0  0  0  0  0  0  0  0  0  0  # atno 10765 bound_to 10752
  140.2816  134.2967  155.7799 H   0  0  0  0  0  0  0  0  0  0  0  0  # atno 11005 bound_to 11000
  146.1844  139.5052  142.9846 LP  0  0  0  0  0  0  0  0  0  0  0  0  # atno 17320 bound_to 7965
  145.6344  141.0297  143.1845 LP  0  0  0  0  0  0  0  0  0  0  0  0  # atno 17321 bound_to 7965
  139.4820  144.6036  151.7561 LP  0  0  0  0  0  0  0  0  0  0  0  0  # atno 17342 bound_to 10162
  140.5175  144.0930  150.6013 LP  0  0  0  0  0  0  0  0  0  0  0  0  # atno 17343 bound_to 10162
  157.5090  130.7927  149.7685 LP  0  0  0  0  0  0  0  0  0  0  0  0  # atno 17370 bound_to 10713
  156.0032  130.3869  150.2527 LP  0  0  0  0  0  0  0  0  0  0  0  0  # atno 17371 bound_to 10713
  141.2162  133.7529  156.9489 LP  0  0  0  0  0  0  0  0  0  0  0  0  # atno 17394 bound_to 11000
  140.1278  134.9375  157.2295 LP  0  0  0  0  0  0  0  0  0  0  0  0  # atno 17395 bound_to 11000

$$$$
