AV-unprocessed.smi:2311|AV-procd|sdf|9261|dock1
  -GOLD-   2272012483D 1   1.00000     0.00000
 Structure written by MMmdl.
 40 41  0  0  0  0  0  0  0  0  1 V2000
  153.2290  141.9411  161.0249 C   0  0  0  0  0  0  0  0  0  0  0  0
  152.4975  143.0338  160.2740 C   0  0  0  0  0  0  0  0  0  0  0  0
  152.6747  144.3897  160.6126 C   0  0  0  0  0  0  0  0  0  0  0  0
  151.9633  145.3548  159.8774 C   0  0  0  0  0  0  0  0  0  0  0  0
  151.1096  144.9273  158.8422 C   0  0  0  0  0  0  0  0  0  0  0  0
  150.9877  143.5466  158.5667 C   0  0  0  0  0  0  0  0  0  0  0  0
  150.1025  143.2199  157.5051 N   0  0  0  0  0  0  0  0  0  0  0  0
  149.5981  142.0150  157.1840 C   0  0  0  0  0  0  0  0  0  0  0  0
  149.8316  140.9627  157.7794 O   0  0  0  0  0  0  0  0  0  0  0  0
  148.7906  142.0960  156.1162 N   0  0  0  0  0  0  0  0  0  0  0  0
  148.0807  140.9721  155.5116 C   0  0  2  0  0  0  0  0  0  0  0  0
  147.1596  141.4800  154.3961 C   0  0  0  0  0  0  0  0  0  0  0  0
  146.3162  140.3310  153.8271 C   0  0  0  0  0  0  0  0  0  0  0  0
  145.5723  139.6962  154.8655 O   0  0  0  0  0  0  0  0  0  0  0  0
  146.3353  139.1351  155.9392 C   0  0  0  0  0  0  0  0  0  0  0  0
  145.2959  138.6690  156.9719 C   0  0  0  0  0  0  0  0  0  0  0  0
  147.1436  137.9110  155.4573 C   0  0  0  0  0  0  0  0  0  0  0  0
  147.2365  140.2282  156.5627 C   0  0  0  0  0  0  0  0  0  0  0  0
  151.6788  142.6237  159.2815 N   0  0  0  0  0  0  0  0  0  0  0  0
  153.9764  142.3581  161.7004 H   0  0  0  0  0  0  0  0  0  0  0  0
  153.7365  141.2730  160.3286 H   0  0  0  0  0  0  0  0  0  0  0  0
  152.5256  141.3531  161.6148 H   0  0  0  0  0  0  0  0  0  0  0  0
  153.3362  144.6854  161.4139 H   0  0  0  0  0  0  0  0  0  0  0  0
  152.0695  146.4056  160.1031 H   0  0  0  0  0  0  0  0  0  0  0  0
  150.5558  145.6563  158.2683 H   0  0  0  0  0  0  0  0  0  0  0  0
  149.8184  143.9944  156.9241 H   0  0  0  0  0  0  0  0  0  0  0  0
  148.6550  143.0007  155.6896 H   0  0  0  0  0  0  0  0  0  0  0  0
  148.8096  140.2883  155.0738 H   0  0  0  0  0  0  0  0  0  0  0  0
  146.4950  142.2531  154.7849 H   0  0  0  0  0  0  0  0  0  0  0  0
  147.7455  141.9417  153.6005 H   0  0  0  0  0  0  0  0  0  0  0  0
  145.6133  140.7202  153.0905 H   0  0  0  0  0  0  0  0  0  0  0  0
  146.9419  139.6107  153.3005 H   0  0  0  0  0  0  0  0  0  0  0  0
  145.7757  138.2361  157.8505 H   0  0  0  0  0  0  0  0  0  0  0  0
  144.6320  137.9132  156.5508 H   0  0  0  0  0  0  0  0  0  0  0  0
  144.6733  139.4979  157.3102 H   0  0  0  0  0  0  0  0  0  0  0  0
  147.6443  137.4217  156.2934 H   0  0  0  0  0  0  0  0  0  0  0  0
  147.9157  138.1720  154.7350 H   0  0  0  0  0  0  0  0  0  0  0  0
  146.4930  137.1729  154.9875 H   0  0  0  0  0  0  0  0  0  0  0  0
  147.8802  139.7898  157.3267 H   0  0  0  0  0  0  0  0  0  0  0  0
  146.6080  140.9558  157.0791 H   0  0  0  0  0  0  0  0  0  0  0  0
  1  2  1  0  0  0  0
  1 20  1  0  0  0  0
  1 21  1  0  0  0  0
  1 22  1  0  0  0  0
  2 19  1  0  0  0  0
  2  3  2  0  0  0  0
  3  4  1  0  0  0  0
  3 23  1  0  0  0  0
  4  5  2  0  0  0  0
  4 24  1  0  0  0  0
  5  6  1  0  0  0  0
  5 25  1  0  0  0  0
  6  7  1  0  0  0  0
  6 19  2  0  0  0  0
  7  8  1  0  0  0  0
  7 26  1  0  0  0  0
  8  9  2  0  0  0  0
  8 10  1  0  0  0  0
 10 11  1  0  0  0  0
 10 27  1  0  0  0  0
 11 18  1  0  0  0  0
 11 12  1  0  0  0  0
 11 28  1  0  0  0  0
 12 13  1  0  0  0  0
 12 29  1  0  0  0  0
 12 30  1  0  0  0  0
 13 14  1  0  0  0  0
 13 31  1  0  0  0  0
 13 32  1  0  0  0  0
 14 15  1  0  0  0  0
 15 16  1  0  0  0  0
 15 17  1  0  0  0  0
 15 18  1  0  0  0  0
 16 33  1  0  0  0  0
 16 34  1  0  0  0  0
 16 35  1  0  0  0  0
 17 36  1  0  0  0  0
 17 37  1  0  0  0  0
 17 38  1  0  0  0  0
 18 39  1  0  0  0  0
 18 40  1  0  0  0  0
M  END
> <s_m_source_file>
AV-unprocessed.smi

> <i_m_source_file_index>
2311

> <i_lp_mmshare_version>
43012

> <i_f3d_flags>
0

> <s_epik_input>
W0NIM11jMVtjSF1bY0hdW2NIXWMobjEpW05IXUMoPU8pW05IXVtDQEBIXShbQ0gyXTIpW0NIMl1bQ0gyXU9DMihbQ0gzXSlbQ0gzXQ==

> <s_epik_cmdline>
J2VwaWtfcHl0aG9uJywgJy1waCcsICc3LjAnLCAnLXRuJywgJzgnLCAnLW1hJywgJzIwMCcsICctbWV0YWxfYmluZGluZycsICctaW1hZScsICc8aW5maWxlLm1hZT4nLCAnLW9tYWUnLCAnPG91dGZpbGUubWFlPic=

> <r_lp_tautomer_probability>
1

> <r_epik_Ionization_Penalty>
8.54628e-05

> <r_epik_Ionization_Penalty_Charging>
0

> <r_epik_Ionization_Penalty_Neutral>
8.54628e-05

> <r_epik_State_Penalty>
-0

> <r_epik_Charging_Adjusted_Penalty>
0

> <i_epik_Tot_Q>
0

> <i_epik_Tot_abs_Q>
0

> <r_epik_Metal_State_Penalty>
-0

> <b_epik_Metal_Only>
0

> <s_lp_Force_Field>
OPLS_2005

> <r_lp_Energy>
12.4956

> <b_lp_Chiralities_Consistent>
1

> <s_lp_Variant>
AV-unprocessed.smi:2311-1

> <Gold.Version>
5.8.1

> <Gold.Id.Protein>
6NUR|6NUR_protein|mol2

> <Gold.PLP.Fitness>
39.6574

> <Gold.PLP.PLP>
-33.8012

> <Gold.PLP.part.hbond>
-2.0000

> <Gold.PLP.part.metal>
0.0000

> <Gold.PLP.part.buried>
-5.5859

> <Gold.PLP.part.nonpolar>
-27.0873

> <Gold.PLP.part.repulsive>
0.2929

> <Gold.PLP.ligand.clash>
0.0000

> <Gold.PLP.ligand.torsion>
0.0720

> <Gold.PLP.Chemscore.Hbond>
2.0000

> <Gold.PLP.Chemscore.CHOScore>
0.0000

> <Gold.PLP.Chemscore.Metal>
0.0000

> <Gold.Chemscore.Hbonds>
donor molecule, donor type, donor heavy atom, donor atom, acceptor molecule, acceptor atom, score
      L1  H     7    26       P1  8028  1.00
      L1  H    10    27       P1  8028  1.00

> <Gold.PLP.Chemscore.Internal.Correction>
0.0002

> <Gold.Rescore>
     Score         DG    S(hbond)    S(metal)    S(lipo)     H(rot)  DE(clash)    DE(int)     intcor
     17.69     -19.28       1.93        0.00      84.76       1.00       0.29       1.30       ----

> <Gold.Chemscore.Fitness>
17.6900

> <Gold.Chemscore.DG>
-19.2794

> <Gold.Chemscore.ZeroCoef>
-5.4800

> <Gold.Chemscore.Hbond>
1.9290

> <Gold.Chemscore.Metal>
0.0000

> <Gold.Chemscore.Lipo>
84.7577

> <Gold.Chemscore.Internal_Hbond>
0.0000

> <Gold.Chemscore.DEClash>
0.2886

> <Gold.Chemscore.DEInternal>
1.3008

> <Gold.Chemscore.Rot>
1.0000

> <Gold.Chemscore.Internal.Correction>
   9.000000E+99

> <Gold.Chemscore.Hbonds>
donor molecule, donor type, donor heavy atom, donor atom, acceptor molecule, acceptor atom, score
      L1  H     7    26       P1  8028  0.91
      L1  H    10    27       P1  8028  0.96

> <Gold.Chemscore.Hbond.Weighted>
-6.4427

> <Gold.Chemscore.Metal.Weighted>
-0.0000

> <Gold.Chemscore.Lipo.Weighted>
-9.9167

> <Gold.Chemscore.Internal_Hbond.Weighted>
0.0000

> <Gold.Chemscore.DEClash.Weighted>
0.2886

> <Gold.Chemscore.DEInternal.Weighted>
1.3008

> <Gold.Chemscore.Rot.Weighted>
2.5600

> <Gold.Chemscore.Internal.Correction.Weighted>
   9.000000E+99

> <Gold.Protein.RotatedTorsions>
[ 6907 6896 6895 6894 ] final  -60.48 input  -60.11 | X-H torsion
[ 7974 7965 7964 7962 ] final  133.46 input  175.53 | X-H torsion
[ 8008 7997 7996 7995 ] final  153.00 input   59.86 | X-H torsion
[ 10167 10162 10161 10158 ] final   -0.75 input  -65.29 | X-H torsion
[ 10718 10713 10712 10709 ] final  145.90 input   66.30 | X-H torsion
[ 10763 10752 10751 10750 ] final   22.07 input  -60.55 | X-H torsion
[ 11005 11000 10999 10996 ] final  -62.03 input  -57.11 | X-H torsion

> <Gold.Protein.ActiveResidues>
 VAL166  LYS551  ARG553  GLY616  TRP617  ASP618  TYR619  PRO620  LYS621  CYS622 
 ASP623  PHE694  ASN695  SER759  ASP760  ASP761  ALA762  ILE779  LEU786  VAL792 
 PHE793  MET794  SER795  GLU796  ALA797  LYS798  CYS799  TRP800  GLU811  SER814 

> <Gold.Protein.RotatedAtoms>
  150.7853  134.6831  159.6454 H   0  0  0  0  0  0  0  0  0  0  0  0  # atno 6907 bound_to 6896
  152.3948  134.6380  160.0102 H   0  0  0  0  0  0  0  0  0  0  0  0  # atno 6908 bound_to 6896
  151.6670  133.3278  159.3223 H   0  0  0  0  0  0  0  0  0  0  0  0  # atno 6909 bound_to 6896
  144.9863  139.4452  143.5361 H   0  0  0  0  0  0  0  0  0  0  0  0  # atno 7974 bound_to 7965
  156.2602  140.2005  156.6422 H   0  0  0  0  0  0  0  0  0  0  0  0  # atno 8008 bound_to 7997
  154.6601  140.0562  157.0077 H   0  0  0  0  0  0  0  0  0  0  0  0  # atno 8009 bound_to 7997
  155.1289  140.3232  155.4482 H   0  0  0  0  0  0  0  0  0  0  0  0  # atno 8010 bound_to 7997
  140.6781  143.6857  150.8068 H   0  0  0  0  0  0  0  0  0  0  0  0  # atno 10167 bound_to 10162
  157.3397  131.0934  151.1092 H   0  0  0  0  0  0  0  0  0  0  0  0  # atno 10718 bound_to 10713
  153.0944  135.6656  153.9791 H   0  0  0  0  0  0  0  0  0  0  0  0  # atno 10763 bound_to 10752
  153.9378  135.2997  155.3445 H   0  0  0  0  0  0  0  0  0  0  0  0  # atno 10764 bound_to 10752
  154.7362  135.5100  153.9119 H   0  0  0  0  0  0  0  0  0  0  0  0  # atno 10765 bound_to 10752
  141.1345  133.6636  156.5465 H   0  0  0  0  0  0  0  0  0  0  0  0  # atno 11005 bound_to 11000
  146.3421  139.9168  142.8772 LP  0  0  0  0  0  0  0  0  0  0  0  0  # atno 17320 bound_to 7965
  145.2348  140.9987  143.3969 LP  0  0  0  0  0  0  0  0  0  0  0  0  # atno 17321 bound_to 7965
  140.0553  143.5208  152.2654 LP  0  0  0  0  0  0  0  0  0  0  0  0  # atno 17342 bound_to 10162
  139.6085  144.7602  151.3006 LP  0  0  0  0  0  0  0  0  0  0  0  0  # atno 17343 bound_to 10162
  157.2309  130.6525  149.5849 LP  0  0  0  0  0  0  0  0  0  0  0  0  # atno 17370 bound_to 10713
  155.9706  130.4599  150.6053 LP  0  0  0  0  0  0  0  0  0  0  0  0  # atno 17371 bound_to 10713
  140.4097  134.7283  157.4829 LP  0  0  0  0  0  0  0  0  0  0  0  0  # atno 17394 bound_to 11000
  140.0436  134.6232  155.8950 LP  0  0  0  0  0  0  0  0  0  0  0  0  # atno 17395 bound_to 11000

$$$$
