AV-unprocessed.smi:3043|AV-procd|sdf|11604|dock2
  -GOLD-   2272016583D 1   1.00000     0.00000
 Structure written by MMmdl.
 44 45  0  0  0  0  0  0  0  0  2 V2000
  154.0805  140.6365  161.8514 C   0  0  0  0  0  0  0  0  0  0  0  0
  153.3853  141.9875  162.0342 C   0  0  0  0  0  0  0  0  0  0  0  0
  153.0518  142.3164  163.1725 O   0  0  0  0  0  0  0  0  0  0  0  0
  153.1643  142.7718  160.9516 N   0  0  0  0  0  0  0  0  0  0  0  0
  153.5071  142.3545  159.5871 C   0  0  0  0  0  0  0  0  0  0  0  0
  152.2068  142.0992  158.8040 C   0  0  0  0  0  0  0  0  0  0  0  0
  151.2968  143.3476  158.7999 C   0  0  0  0  0  0  0  0  0  0  0  0
  149.9580  143.0547  158.0987 C   0  0  0  0  0  0  0  0  0  0  0  0
  150.1188  142.9933  156.6299 N   0  3  0  0  0  0  0  0  0  0  0  0
  149.9098  141.6612  156.0193 C   0  0  1  0  0  0  0  0  0  0  0  0
  149.4406  141.8438  154.5657 C   0  0  0  0  0  0  0  0  0  0  0  0
  151.1811  140.7881  156.1357 C   0  0  0  0  0  0  0  0  0  0  0  0
  151.1066  139.5699  155.3490 N   0  0  0  0  0  0  0  0  0  0  0  0
  151.0806  138.2644  155.7925 C   0  0  0  0  0  0  0  0  0  0  0  0
  151.0065  137.4624  154.6899 C   0  0  0  0  0  0  0  0  0  0  0  0
  150.9964  138.3812  153.6034 C   0  0  0  0  0  0  0  0  0  0  0  0
  151.0575  139.6418  154.0012 N   0  0  0  0  0  0  0  0  0  0  0  0
  151.1009  143.8776  160.2405 C   0  0  0  0  0  0  0  0  0  0  0  0
  152.4496  144.0543  160.9617 C   0  0  0  0  0  0  0  0  0  0  0  0
  155.0711  140.7662  161.4144 H   0  0  0  0  0  0  0  0  0  0  0  0
  153.4912  139.9814  161.2094 H   0  0  0  0  0  0  0  0  0  0  0  0
  154.2044  140.1357  162.8122 H   0  0  0  0  0  0  0  0  0  0  0  0
  154.0898  143.1403  159.1042 H   0  0  0  0  0  0  0  0  0  0  0  0
  154.1351  141.4628  159.5622 H   0  0  0  0  0  0  0  0  0  0  0  0
  152.4464  141.8064  157.7813 H   0  0  0  0  0  0  0  0  0  0  0  0
  151.6770  141.2559  159.2500 H   0  0  0  0  0  0  0  0  0  0  0  0
  151.8154  144.1192  158.2283 H   0  0  0  0  0  0  0  0  0  0  0  0
  149.5661  142.1012  158.4519 H   0  0  0  0  0  0  0  0  0  0  0  0
  149.2239  143.8186  158.3593 H   0  0  0  0  0  0  0  0  0  0  0  0
  149.4339  143.6187  156.2303 H   0  0  0  0  0  0  0  0  0  0  0  0
  149.0983  141.1705  156.5591 H   0  0  0  0  0  0  0  0  0  0  0  0
  149.1633  140.8935  154.1090 H   0  0  0  0  0  0  0  0  0  0  0  0
  150.2211  142.2936  153.9508 H   0  0  0  0  0  0  0  0  0  0  0  0
  148.5637  142.4900  154.5150 H   0  0  0  0  0  0  0  0  0  0  0  0
  152.0580  141.3562  155.8199 H   0  0  0  0  0  0  0  0  0  0  0  0
  151.3578  140.4969  157.1711 H   0  0  0  0  0  0  0  0  0  0  0  0
  151.1147  138.0171  156.8434 H   0  0  0  0  0  0  0  0  0  0  0  0
  150.9671  136.3835  154.6629 H   0  0  0  0  0  0  0  0  0  0  0  0
  150.9471  138.1710  152.5451 H   0  0  0  0  0  0  0  0  0  0  0  0
  150.5710  144.8304  160.2256 H   0  0  0  0  0  0  0  0  0  0  0  0
  150.4770  143.1863  160.8092 H   0  0  0  0  0  0  0  0  0  0  0  0
  152.2839  144.4545  161.9607 H   0  0  0  0  0  0  0  0  0  0  0  0
  153.0523  144.8033  160.4460 H   0  0  0  0  0  0  0  0  0  0  0  0
  151.0387  143.3280  156.3810 H   0  0  0  0  0  0  0  0  0  0  0  0
  1  2  1  0  0  0  0
  1 20  1  0  0  0  0
  1 21  1  0  0  0  0
  1 22  1  0  0  0  0
  2  3  2  0  0  0  0
  2  4  1  0  0  0  0
  4 19  1  0  0  0  0
  4  5  1  0  0  0  0
  5  6  1  0  0  0  0
  5 23  1  0  0  0  0
  5 24  1  0  0  0  0
  6  7  1  0  0  0  0
  6 25  1  0  0  0  0
  6 26  1  0  0  0  0
  7  8  1  0  0  0  0
  7 18  1  0  0  0  0
  7 27  1  0  0  0  0
  8  9  1  0  0  0  0
  8 28  1  0  0  0  0
  8 29  1  0  0  0  0
  9 10  1  0  0  0  0
  9 30  1  0  0  0  0
  9 44  1  0  0  0  0
 10 11  1  0  0  0  0
 10 12  1  0  0  0  0
 10 31  1  0  0  0  0
 11 32  1  0  0  0  0
 11 33  1  0  0  0  0
 11 34  1  0  0  0  0
 12 13  1  0  0  0  0
 12 35  1  0  0  0  0
 12 36  1  0  0  0  0
 13 17  1  0  0  0  0
 13 14  1  0  0  0  0
 14 15  2  0  0  0  0
 14 37  1  0  0  0  0
 15 16  1  0  0  0  0
 15 38  1  0  0  0  0
 16 17  2  0  0  0  0
 16 39  1  0  0  0  0
 18 19  1  0  0  0  0
 18 40  1  0  0  0  0
 18 41  1  0  0  0  0
 19 42  1  0  0  0  0
 19 43  1  0  0  0  0
M  CHG  1   9   1
M  END
> <s_m_source_file>
AV-unprocessed.smi

> <i_m_source_file_index>
3043

> <i_lp_mmshare_version>
43012

> <i_f3d_flags>
0

> <s_epik_input>
W0NIM11DKD1PKU4xW0NIMl1bQ0gyXVtDSF0oW0NIMl1bQ0gyXTEpW0NIMl1bTkhdW0NASF0oW0NIM10pW0NIMl1uMltjSF1bY0hdW2NIXW4y

> <s_epik_cmdline>
J2VwaWtfcHl0aG9uJywgJy1waCcsICc3LjAnLCAnLXRuJywgJzgnLCAnLW1hJywgJzIwMCcsICctbWV0YWxfYmluZGluZycsICctaW1hZScsICc8aW5maWxlLm1hZT4nLCAnLW9tYWUnLCAnPG91dGZpbGUubWFlPic=

> <r_lp_tautomer_probability>
1

> <r_epik_Ionization_Penalty>
0.00300549

> <r_epik_Ionization_Penalty_Charging>
0.00299781

> <r_epik_Ionization_Penalty_Neutral>
7.6831e-06

> <r_epik_State_Penalty>
0.00210473

> <r_epik_Charging_Adjusted_Penalty>
0.00510254

> <i_epik_Tot_Q>
1

> <i_epik_Tot_abs_Q>
1

> <r_epik_Metal_State_Penalty>
-0

> <b_epik_Metal_Only>
0

> <s_lp_Force_Field>
OPLS_2005

> <r_lp_Energy>
28.9571

> <b_lp_Chiralities_Consistent>
1

> <s_lp_Variant>
AV-unprocessed.smi:3043-2

> <Gold.Version>
5.8.1

> <Gold.Id.Protein>
6NUR|6NUR_protein|mol2

> <Gold.PLP.Fitness>
51.4364

> <Gold.PLP.PLP>
-41.1255

> <Gold.PLP.part.hbond>
-1.7621

> <Gold.PLP.part.metal>
0.0000

> <Gold.PLP.part.buried>
-4.4055

> <Gold.PLP.part.nonpolar>
-33.3691

> <Gold.PLP.part.repulsive>
0.3213

> <Gold.PLP.ligand.clash>
0.0000

> <Gold.PLP.ligand.torsion>
0.8735

> <Gold.PLP.Chemscore.Hbond>
3.0000

> <Gold.PLP.Chemscore.CHOScore>
1.0000

> <Gold.PLP.Chemscore.Metal>
0.0000

> <Gold.Chemscore.Hbonds>
donor molecule, donor type, donor heavy atom, donor atom, acceptor molecule, acceptor atom, score
      L1  H     9    30       P1  8028  1.14
      P1  H  7989  7998       L1    17  0.76
      L1  C    16    39       P1  7948  0.02
      L1  C    16    39       P1  7949  0.88
      L1  C    16    39       P1  7957  0.11

> <Gold.PLP.Chemscore.Internal.Correction>
0.0577

> <Gold.Rescore>
     Score         DG    S(hbond)    S(metal)    S(lipo)     H(rot)  DE(clash)    DE(int)     intcor
     17.90     -20.45       1.98        0.00     109.51       1.74       0.20       2.34       ----

> <Gold.Chemscore.Fitness>
17.8979

> <Gold.Chemscore.DG>
-20.4465

> <Gold.Chemscore.ZeroCoef>
-5.4800

> <Gold.Chemscore.Hbond>
1.9802

> <Gold.Chemscore.Metal>
0.0000

> <Gold.Chemscore.Lipo>
109.5099

> <Gold.Chemscore.Internal_Hbond>
0.0000

> <Gold.Chemscore.DEClash>
0.2046

> <Gold.Chemscore.DEInternal>
2.3439

> <Gold.Chemscore.Rot>
1.7422

> <Gold.Chemscore.Internal.Correction>
   9.000000E+99

> <Gold.Chemscore.Hbonds>
donor molecule, donor type, donor heavy atom, donor atom, acceptor molecule, acceptor atom, score
      L1  H     9    30       P1  8028  0.56
      P1  H  7989  7998       L1    17  0.65

> <Gold.Chemscore.Hbond.Weighted>
-6.6138

> <Gold.Chemscore.Metal.Weighted>
-0.0000

> <Gold.Chemscore.Lipo.Weighted>
-12.8127

> <Gold.Chemscore.Internal_Hbond.Weighted>
0.0000

> <Gold.Chemscore.DEClash.Weighted>
0.2046

> <Gold.Chemscore.DEInternal.Weighted>
2.3439

> <Gold.Chemscore.Rot.Weighted>
4.4600

> <Gold.Chemscore.Internal.Correction.Weighted>
   9.000000E+99

> <Gold.Protein.RotatedTorsions>
[ 6907 6896 6895 6894 ] final  -57.46 input  -60.11 | X-H torsion
[ 7974 7965 7964 7962 ] final -128.65 input  175.53 | X-H torsion
[ 8008 7997 7996 7995 ] final  -69.97 input   59.86 | X-H torsion
[ 10167 10162 10161 10158 ] final  108.44 input  -65.29 | X-H torsion
[ 10718 10713 10712 10709 ] final  164.07 input   66.30 | X-H torsion
[ 10763 10752 10751 10750 ] final -110.45 input  -60.55 | X-H torsion
[ 11005 11000 10999 10996 ] final  -93.88 input  -57.11 | X-H torsion

> <Gold.Protein.ActiveResidues>
 VAL166  LYS551  ARG553  GLY616  TRP617  ASP618  TYR619  PRO620  LYS621  CYS622 
 ASP623  PHE694  ASN695  SER759  ASP760  ASP761  ALA762  ILE779  LEU786  VAL792 
 PHE793  MET794  SER795  GLU796  ALA797  LYS798  CYS799  TRP800  GLU811  SER814 

> <Gold.Protein.RotatedAtoms>
  150.8084  134.7223  159.6665 H   0  0  0  0  0  0  0  0  0  0  0  0  # atno 6907 bound_to 6896
  152.4204  134.5963  159.9997 H   0  0  0  0  0  0  0  0  0  0  0  0  # atno 6908 bound_to 6896
  151.6180  133.3304  159.3118 H   0  0  0  0  0  0  0  0  0  0  0  0  # atno 6909 bound_to 6896
  144.9650  140.7486  143.4706 H   0  0  0  0  0  0  0  0  0  0  0  0  # atno 7974 bound_to 7965
  154.4978  140.0843  156.7733 H   0  0  0  0  0  0  0  0  0  0  0  0  # atno 8008 bound_to 7997
  155.4075  140.3440  155.4243 H   0  0  0  0  0  0  0  0  0  0  0  0  # atno 8009 bound_to 7997
  156.1416  140.1531  156.8899 H   0  0  0  0  0  0  0  0  0  0  0  0  # atno 8010 bound_to 7997
  139.6846  144.7115  151.1454 H   0  0  0  0  0  0  0  0  0  0  0  0  # atno 10167 bound_to 10162
  157.0996  131.0439  151.2503 H   0  0  0  0  0  0  0  0  0  0  0  0  # atno 10718 bound_to 10713
  154.8248  135.4564  154.0887 H   0  0  0  0  0  0  0  0  0  0  0  0  # atno 10763 bound_to 10752
  153.2210  135.6894  153.8007 H   0  0  0  0  0  0  0  0  0  0  0  0  # atno 10764 bound_to 10752
  153.7424  135.3310  155.3283 H   0  0  0  0  0  0  0  0  0  0  0  0  # atno 10765 bound_to 10752
  141.1485  133.7918  157.0221 H   0  0  0  0  0  0  0  0  0  0  0  0  # atno 11005 bound_to 11000
  145.2644  139.1979  143.4875 LP  0  0  0  0  0  0  0  0  0  0  0  0  # atno 17320 bound_to 7965
  146.3365  140.2579  142.8601 LP  0  0  0  0  0  0  0  0  0  0  0  0  # atno 17321 bound_to 7965
  140.7663  143.5648  150.9059 LP  0  0  0  0  0  0  0  0  0  0  0  0  # atno 17342 bound_to 10162
  139.9322  143.6480  152.3073 LP  0  0  0  0  0  0  0  0  0  0  0  0  # atno 17343 bound_to 10162
  157.4652  130.7676  149.7272 LP  0  0  0  0  0  0  0  0  0  0  0  0  # atno 17370 bound_to 10713
  155.9877  130.3965  150.3153 LP  0  0  0  0  0  0  0  0  0  0  0  0  # atno 17371 bound_to 10713
  140.0809  134.9649  157.1622 LP  0  0  0  0  0  0  0  0  0  0  0  0  # atno 17394 bound_to 11000
  140.3578  134.2527  155.7190 LP  0  0  0  0  0  0  0  0  0  0  0  0  # atno 17395 bound_to 11000

$$$$
