AV-unprocessed.smi:573|AV-procd|sdf|2973|dock5
  -GOLD-   2262023483D 1   1.00000     0.00000
 Structure written by MMmdl.
 44 46  0  0  0  0  0  0  0  0  1 V2000
  150.6252  135.2820  155.1444 C   0  0  0  0  0  0  0  0  0  0  0  0
  150.6425  136.8075  154.9865 C   0  0  2  0  0  0  0  0  0  0  0  0
  151.5923  137.1233  153.9895 O   0  0  0  0  0  0  0  0  0  0  0  0
  151.0421  137.5131  156.2939 C   0  0  0  0  0  0  0  0  0  0  0  0
  150.9420  138.9583  156.1925 N   0  0  0  0  0  0  0  0  0  0  0  0
  151.2907  139.9804  157.0678 C   0  0  0  0  0  0  0  0  0  0  0  0
  151.8312  139.7784  158.2682 N   0  0  0  0  0  0  0  0  0  0  0  0
  151.9965  141.0686  158.7362 C   0  0  0  0  0  0  0  0  0  0  0  0
  152.5252  141.5401  159.9591 C   0  0  0  0  0  0  0  0  0  0  0  0
  152.5991  142.9242  160.2190 C   0  0  0  0  0  0  0  0  0  0  0  0
  152.1480  143.8558  159.2615 C   0  0  0  0  0  0  0  0  0  0  0  0
  151.6157  143.4082  158.0370 C   0  0  0  0  0  0  0  0  0  0  0  0
  151.5409  142.0254  157.7830 C   0  0  0  0  0  0  0  0  0  0  0  0
  151.0822  141.2690  156.7081 N   0  0  0  0  0  0  0  0  0  0  0  0
  150.5111  141.7788  155.4693 C   0  0  0  0  0  0  0  0  0  0  0  0
  149.1146  141.1965  155.1948 C   0  0  1  0  0  0  0  0  0  0  0  0
  148.0848  141.6479  156.2482 C   0  0  0  0  0  0  0  0  0  0  0  0
  146.6896  141.1134  155.9040 C   0  0  0  0  0  0  0  0  0  0  0  0
  146.3301  141.4954  154.4640 C   0  0  0  0  0  0  0  0  0  0  0  0
  147.4433  141.0545  153.5005 C   0  0  0  0  0  0  0  0  0  0  0  0
  148.6851  141.6233  153.9028 O   0  0  0  0  0  0  0  0  0  0  0  0
  149.8995  134.9765  155.8987 H   0  0  0  0  0  0  0  0  0  0  0  0
  151.6010  134.9017  155.4488 H   0  0  0  0  0  0  0  0  0  0  0  0
  150.3525  134.7922  154.2090 H   0  0  0  0  0  0  0  0  0  0  0  0
  149.6559  137.1369  154.6580 H   0  0  0  0  0  0  0  0  0  0  0  0
  151.2151  136.9246  153.1460 H   0  0  0  0  0  0  0  0  0  0  0  0
  150.3752  137.1992  157.0976 H   0  0  0  0  0  0  0  0  0  0  0  0
  152.0511  137.2331  156.5985 H   0  0  0  0  0  0  0  0  0  0  0  0
  150.5365  139.2729  155.3233 H   0  0  0  0  0  0  0  0  0  0  0  0
  152.8752  140.8349  160.6982 H   0  0  0  0  0  0  0  0  0  0  0  0
  153.0054  143.2729  161.1572 H   0  0  0  0  0  0  0  0  0  0  0  0
  152.2111  144.9144  159.4675 H   0  0  0  0  0  0  0  0  0  0  0  0
  151.2718  144.1191  157.3004 H   0  0  0  0  0  0  0  0  0  0  0  0
  150.4715  142.8676  155.5152 H   0  0  0  0  0  0  0  0  0  0  0  0
  151.1878  141.5327  154.6505 H   0  0  0  0  0  0  0  0  0  0  0  0
  149.1835  140.1070  155.2008 H   0  0  0  0  0  0  0  0  0  0  0  0
  148.3810  141.3044  157.2397 H   0  0  0  0  0  0  0  0  0  0  0  0
  148.0560  142.7375  156.2902 H   0  0  0  0  0  0  0  0  0  0  0  0
  146.6752  140.0280  156.0110 H   0  0  0  0  0  0  0  0  0  0  0  0
  145.9482  141.5082  156.5991 H   0  0  0  0  0  0  0  0  0  0  0  0
  145.3807  141.0415  154.1784 H   0  0  0  0  0  0  0  0  0  0  0  0
  146.1951  142.5754  154.3936 H   0  0  0  0  0  0  0  0  0  0  0  0
  147.5232  139.9670  153.4672 H   0  0  0  0  0  0  0  0  0  0  0  0
  147.2160  141.3876  152.4880 H   0  0  0  0  0  0  0  0  0  0  0  0
  1  2  1  0  0  0  0
  1 22  1  0  0  0  0
  1 23  1  0  0  0  0
  1 24  1  0  0  0  0
  2  3  1  0  0  0  0
  2  4  1  0  0  0  0
  2 25  1  0  0  0  0
  3 26  1  0  0  0  0
  4  5  1  0  0  0  0
  4 27  1  0  0  0  0
  4 28  1  0  0  0  0
  5  6  1  0  0  0  0
  5 29  1  0  0  0  0
  6 14  1  0  0  0  0
  6  7  2  0  0  0  0
  7  8  1  0  0  0  0
  8 13  2  0  0  0  0
  8  9  1  0  0  0  0
  9 10  2  0  0  0  0
  9 30  1  0  0  0  0
 10 11  1  0  0  0  0
 10 31  1  0  0  0  0
 11 12  2  0  0  0  0
 11 32  1  0  0  0  0
 12 13  1  0  0  0  0
 12 33  1  0  0  0  0
 13 14  1  0  0  0  0
 14 15  1  0  0  0  0
 15 16  1  0  0  0  0
 15 34  1  0  0  0  0
 15 35  1  0  0  0  0
 16 21  1  0  0  0  0
 16 17  1  0  0  0  0
 16 36  1  0  0  0  0
 17 18  1  0  0  0  0
 17 37  1  0  0  0  0
 17 38  1  0  0  0  0
 18 19  1  0  0  0  0
 18 39  1  0  0  0  0
 18 40  1  0  0  0  0
 19 20  1  0  0  0  0
 19 41  1  0  0  0  0
 19 42  1  0  0  0  0
 20 21  1  0  0  0  0
 20 43  1  0  0  0  0
 20 44  1  0  0  0  0
M  END
> <s_m_source_file>
AV-unprocessed.smi

> <i_m_source_file_index>
573

> <i_lp_mmshare_version>
43012

> <i_f3d_flags>
0

> <s_epik_input>
W0NIM11bQ0BIXShbT0hdKVtDSDJdW05IXWMobjEpbihjKGMxMilbY0hdW2NIXVtjSF1bY0hdMilbQ0gyXVtDQEBIXTNbQ0gyXVtDSDJdW0NIMl1bQ0gyXU8z

> <s_epik_cmdline>
J2VwaWtfcHl0aG9uJywgJy1waCcsICc3LjAnLCAnLXRuJywgJzgnLCAnLW1hJywgJzIwMCcsICctbWV0YWxfYmluZGluZycsICctaW1hZScsICc8aW5maWxlLm1hZT4nLCAnLW9tYWUnLCAnPG91dGZpbGUubWFlPic=

> <r_epik_Ionization_Penalty>
1.30635

> <r_epik_Ionization_Penalty_Charging>
0

> <r_epik_Ionization_Penalty_Neutral>
1.30635

> <r_epik_State_Penalty>
1.38073

> <r_epik_Charging_Adjusted_Penalty>
1.38073

> <i_epik_Tot_Q>
0

> <i_epik_Tot_abs_Q>
0

> <r_epik_Metal_State_Penalty>
0.00547412

> <b_epik_Metal_Only>
0

> <s_lp_Force_Field>
OPLS_2005

> <r_lp_Energy>
9.89465

> <b_lp_Chiralities_Consistent>
1

> <s_lp_Variant>
AV-unprocessed.smi:573-7

> <Gold.Version>
5.8.1

> <Gold.Id.Protein>
6NUR|6NUR_protein|mol2

> <Gold.PLP.Fitness>
47.0283

> <Gold.PLP.PLP>
-39.3045

> <Gold.PLP.part.hbond>
-3.0000

> <Gold.PLP.part.metal>
0.0000

> <Gold.PLP.part.buried>
-5.0468

> <Gold.PLP.part.nonpolar>
-31.1735

> <Gold.PLP.part.repulsive>
0.2357

> <Gold.PLP.ligand.clash>
0.0000

> <Gold.PLP.ligand.torsion>
0.0694

> <Gold.PLP.Chemscore.Hbond>
2.6185

> <Gold.PLP.Chemscore.CHOScore>
0.0000

> <Gold.PLP.Chemscore.Metal>
0.0000

> <Gold.Chemscore.Hbonds>
donor molecule, donor type, donor heavy atom, donor atom, acceptor molecule, acceptor atom, score
      L1  H     3    26       P1  7949  1.00
      P1  H  8011  8017       L1    21  0.56
      P1  H 10752 10765       L1     3  1.00

> <Gold.PLP.Chemscore.Internal.Correction>
0.0070

> <Gold.Rescore>
     Score         DG    S(hbond)    S(metal)    S(lipo)     H(rot)  DE(clash)    DE(int)     intcor
     18.58     -19.37       1.97        0.00     106.66       2.02       0.55       0.25       ----

> <Gold.Chemscore.Fitness>
18.5803

> <Gold.Chemscore.DG>
-19.3748

> <Gold.Chemscore.ZeroCoef>
-5.4800

> <Gold.Chemscore.Hbond>
1.9741

> <Gold.Chemscore.Metal>
0.0000

> <Gold.Chemscore.Lipo>
106.6559

> <Gold.Chemscore.Internal_Hbond>
0.0000

> <Gold.Chemscore.DEClash>
0.5470

> <Gold.Chemscore.DEInternal>
0.2475

> <Gold.Chemscore.Rot>
2.0224

> <Gold.Chemscore.Internal.Correction>
   9.000000E+99

> <Gold.Chemscore.Hbonds>
donor molecule, donor type, donor heavy atom, donor atom, acceptor molecule, acceptor atom, score
      L1  H     3    26       P1  7949  0.58
      P1  H  8011  8017       L1    21  0.47
      P1  H 10752 10765       L1     3  0.13

> <Gold.Chemscore.Hbond.Weighted>
-6.5934

> <Gold.Chemscore.Metal.Weighted>
-0.0000

> <Gold.Chemscore.Lipo.Weighted>
-12.4787

> <Gold.Chemscore.Internal_Hbond.Weighted>
0.0000

> <Gold.Chemscore.DEClash.Weighted>
0.5470

> <Gold.Chemscore.DEInternal.Weighted>
0.2475

> <Gold.Chemscore.Rot.Weighted>
5.1773

> <Gold.Chemscore.Internal.Correction.Weighted>
   9.000000E+99

> <Gold.Protein.RotatedTorsions>
[ 6907 6896 6895 6894 ] final  -53.70 input  -60.11 | X-H torsion
[ 7974 7965 7964 7962 ] final -134.52 input  175.53 | X-H torsion
[ 8008 7997 7996 7995 ] final  -10.55 input   59.86 | X-H torsion
[ 10167 10162 10161 10158 ] final  -89.34 input  -65.29 | X-H torsion
[ 10718 10713 10712 10709 ] final  -85.97 input   66.30 | X-H torsion
[ 10763 10752 10751 10750 ] final  161.80 input  -60.55 | X-H torsion
[ 11005 11000 10999 10996 ] final  110.29 input  -57.11 | X-H torsion

> <Gold.Protein.ActiveResidues>
 VAL166  LYS551  ARG553  GLY616  TRP617  ASP618  TYR619  PRO620  LYS621  CYS622 
 ASP623  PHE694  ASN695  SER759  ASP760  ASP761  ALA762  ILE779  LEU786  VAL792 
 PHE793  MET794  SER795  GLU796  ALA797  LYS798  CYS799  TRP800  GLU811  SER814 

> <Gold.Protein.RotatedAtoms>
  150.8404  134.7693  159.6927 H   0  0  0  0  0  0  0  0  0  0  0  0  # atno 6907 bound_to 6896
  152.4492  134.5426  159.9853 H   0  0  0  0  0  0  0  0  0  0  0  0  # atno 6908 bound_to 6896
  151.5567  133.3371  159.2999 H   0  0  0  0  0  0  0  0  0  0  0  0  # atno 6909 bound_to 6896
  144.9095  140.6877  143.5034 H   0  0  0  0  0  0  0  0  0  0  0  0  # atno 7974 bound_to 7965
  154.5544  140.2326  155.8434 H   0  0  0  0  0  0  0  0  0  0  0  0  # atno 8008 bound_to 7997
  156.1975  140.3061  155.9418 H   0  0  0  0  0  0  0  0  0  0  0  0  # atno 8009 bound_to 7997
  155.3008  140.0431  157.3020 H   0  0  0  0  0  0  0  0  0  0  0  0  # atno 8010 bound_to 7997
  140.3658  143.2819  151.9560 H   0  0  0  0  0  0  0  0  0  0  0  0  # atno 10167 bound_to 10162
  155.9993  130.4749  150.4643 H   0  0  0  0  0  0  0  0  0  0  0  0  # atno 10718 bound_to 10713
  154.2685  135.2766  155.2748 H   0  0  0  0  0  0  0  0  0  0  0  0  # atno 10763 bound_to 10752
  154.5322  135.5726  153.6772 H   0  0  0  0  0  0  0  0  0  0  0  0  # atno 10764 bound_to 10752
  152.9949  135.6230  154.2839 H   0  0  0  0  0  0  0  0  0  0  0  0  # atno 10765 bound_to 10752
  139.8879  134.9480  156.6256 H   0  0  0  0  0  0  0  0  0  0  0  0  # atno 11005 bound_to 11000
  145.3478  139.1714  143.4451 LP  0  0  0  0  0  0  0  0  0  0  0  0  # atno 17320 bound_to 7965
  146.3151  140.3526  142.8657 LP  0  0  0  0  0  0  0  0  0  0  0  0  # atno 17321 bound_to 7965
  139.4809  144.5952  151.7703 LP  0  0  0  0  0  0  0  0  0  0  0  0  # atno 17342 bound_to 10162
  140.5082  144.1065  150.5988 LP  0  0  0  0  0  0  0  0  0  0  0  0  # atno 17343 bound_to 10162
  157.2664  131.0578  151.2288 LP  0  0  0  0  0  0  0  0  0  0  0  0  # atno 17370 bound_to 10713
  157.3384  130.7020  149.6366 LP  0  0  0  0  0  0  0  0  0  0  0  0  # atno 17371 bound_to 10713
  140.7705  133.8742  155.8488 LP  0  0  0  0  0  0  0  0  0  0  0  0  # atno 17394 bound_to 11000
  140.9845  134.1360  157.4464 LP  0  0  0  0  0  0  0  0  0  0  0  0  # atno 17395 bound_to 11000

$$$$
