AV-unprocessed.smi:99|AV-procd|sdf|892|dock4
  -GOLD-   2262017383D 1   1.00000     0.00000
 Structure written by MMmdl.
 52 55  0  0  0  0  0  0  0  0  2 V2000
  146.4795  138.1405  150.5148 O   0  0  0  0  0  0  0  0  0  0  0  0
  145.9954  137.6720  151.5471 C   0  0  0  0  0  0  0  0  0  0  0  0
  146.2170  138.1823  152.7730 O   0  0  0  0  0  0  0  0  0  0  0  0
  146.6747  139.5183  152.9170 C   0  0  0  0  0  0  0  0  0  0  0  0
  147.1967  139.7505  154.3415 C   0  0  1  0  0  0  0  0  0  0  0  0
  148.5749  139.4073  154.3986 O   0  0  0  0  0  0  0  0  0  0  0  0
  149.3616  140.5017  154.7528 C   0  0  2  0  0  0  0  0  0  0  0  0
  150.2286  140.0997  155.9296 N   0  0  0  0  0  0  0  0  0  0  0  0
  149.6443  139.9887  157.1792 C   0  0  0  0  0  0  0  0  0  0  0  0
  150.3670  139.6638  158.2709 C   0  0  0  0  0  0  0  0  0  0  0  0
  151.8018  139.4324  158.1371 C   0  0  0  0  0  0  0  0  0  0  0  0
  152.4509  139.1206  159.1336 O   0  0  0  0  0  0  0  0  0  0  0  0
  152.3619  139.5761  156.9019 N   0  5  0  0  0  0  0  0  0  0  0  0
  151.6350  139.9140  155.7969 C   0  0  0  0  0  0  0  0  0  0  0  0
  152.1451  140.0680  154.6890 O   0  0  0  0  0  0  0  0  0  0  0  0
  148.4549  141.7078  155.0634 C   0  0  1  0  0  0  0  0  0  0  0  0
  148.7003  142.7921  154.1915 O   0  0  0  0  0  0  0  0  0  0  0  0
  147.0345  141.1947  154.8347 C   0  0  2  0  0  0  0  0  0  0  0  0
  146.2868  141.2092  156.0448 O   0  0  0  0  0  0  0  0  0  0  0  0
  145.6900  142.3378  156.4805 C   0  0  0  0  0  0  0  0  0  0  0  0
  145.6572  143.3875  155.8348 O   0  0  0  0  0  0  0  0  0  0  0  0
  145.0755  142.1807  157.8297 C   0  0  0  0  0  0  0  0  0  0  0  0
  144.6827  143.3317  158.5519 C   0  0  0  0  0  0  0  0  0  0  0  0
  144.1015  143.2130  159.8294 C   0  0  0  0  0  0  0  0  0  0  0  0
  143.9084  141.9419  160.4012 C   0  0  0  0  0  0  0  0  0  0  0  0
  144.2976  140.7894  159.6939 C   0  0  0  0  0  0  0  0  0  0  0  0
  144.8776  140.9058  158.4157 C   0  0  0  0  0  0  0  0  0  0  0  0
  145.1052  136.4757  151.5696 C   0  0  0  0  0  0  0  0  0  0  0  0
  143.9850  136.4612  152.4331 C   0  0  0  0  0  0  0  0  0  0  0  0
  143.1252  135.3463  152.4741 C   0  0  0  0  0  0  0  0  0  0  0  0
  143.3766  134.2314  151.6539 C   0  0  0  0  0  0  0  0  0  0  0  0
  144.4886  134.2330  150.7917 C   0  0  0  0  0  0  0  0  0  0  0  0
  145.3487  135.3475  150.7482 C   0  0  0  0  0  0  0  0  0  0  0  0
  147.4754  139.7098  152.2009 H   0  0  0  0  0  0  0  0  0  0  0  0
  145.8639  140.2128  152.6936 H   0  0  0  0  0  0  0  0  0  0  0  0
  146.6713  139.0651  155.0081 H   0  0  0  0  0  0  0  0  0  0  0  0
  150.0535  140.7058  153.9342 H   0  0  0  0  0  0  0  0  0  0  0  0
  148.5842  140.1605  157.2930 H   0  0  0  0  0  0  0  0  0  0  0  0
  149.8904  139.5788  159.2364 H   0  0  0  0  0  0  0  0  0  0  0  0
  148.6114  142.0542  156.0859 H   0  0  0  0  0  0  0  0  0  0  0  0
  148.5509  143.5951  154.6672 H   0  0  0  0  0  0  0  0  0  0  0  0
  146.5143  141.7857  154.0784 H   0  0  0  0  0  0  0  0  0  0  0  0
  144.8222  144.3180  158.1333 H   0  0  0  0  0  0  0  0  0  0  0  0
  143.8044  144.0990  160.3712 H   0  0  0  0  0  0  0  0  0  0  0  0
  143.4641  141.8512  161.3815 H   0  0  0  0  0  0  0  0  0  0  0  0
  144.1534  139.8128  160.1321 H   0  0  0  0  0  0  0  0  0  0  0  0
  145.1691  140.0010  157.9020 H   0  0  0  0  0  0  0  0  0  0  0  0
  143.7719  137.3056  153.0726 H   0  0  0  0  0  0  0  0  0  0  0  0
  142.2716  135.3476  153.1357 H   0  0  0  0  0  0  0  0  0  0  0  0
  142.7172  133.3765  151.6862 H   0  0  0  0  0  0  0  0  0  0  0  0
  144.6830  133.3780  150.1612 H   0  0  0  0  0  0  0  0  0  0  0  0
  146.1940  135.3155  150.0764 H   0  0  0  0  0  0  0  0  0  0  0  0
  1  2  2  0  0  0  0
  2  3  1  0  0  0  0
  2 28  1  0  0  0  0
  3  4  1  0  0  0  0
  4  5  1  0  0  0  0
  4 34  1  0  0  0  0
  4 35  1  0  0  0  0
  5 18  1  0  0  0  0
  5  6  1  0  0  0  0
  5 36  1  0  0  0  0
  6  7  1  0  0  0  0
  7  8  1  0  0  0  0
  7 16  1  0  0  0  0
  7 37  1  0  0  0  0
  8 14  1  0  0  0  0
  8  9  1  0  0  0  0
  9 10  2  0  0  0  0
  9 38  1  0  0  0  0
 10 11  1  0  0  0  0
 10 39  1  0  0  0  0
 11 12  2  0  0  0  0
 11 13  1  0  0  0  0
 13 14  1  0  0  0  0
 14 15  2  0  0  0  0
 16 17  1  0  0  0  0
 16 18  1  0  0  0  0
 16 40  1  0  0  0  0
 17 41  1  0  0  0  0
 18 19  1  0  0  0  0
 18 42  1  0  0  0  0
 19 20  1  0  0  0  0
 20 21  2  0  0  0  0
 20 22  1  0  0  0  0
 22 27  1  0  0  0  0
 22 23  2  0  0  0  0
 23 24  1  0  0  0  0
 23 43  1  0  0  0  0
 24 25  2  0  0  0  0
 24 44  1  0  0  0  0
 25 26  1  0  0  0  0
 25 45  1  0  0  0  0
 26 27  2  0  0  0  0
 26 46  1  0  0  0  0
 27 47  1  0  0  0  0
 28 33  1  0  0  0  0
 28 29  2  0  0  0  0
 29 30  1  0  0  0  0
 29 48  1  0  0  0  0
 30 31  2  0  0  0  0
 30 49  1  0  0  0  0
 31 32  1  0  0  0  0
 31 50  1  0  0  0  0
 32 33  2  0  0  0  0
 32 51  1  0  0  0  0
 33 52  1  0  0  0  0
M  CHG  1  13  -1
M  END
> <s_m_source_file>
AV-unprocessed.smi

> <i_m_source_file_index>
99

> <i_lp_mmshare_version>
43012

> <i_f3d_flags>
0

> <s_epik_input>
W2NIXTFbY0hdW2NIXVtjSF1bY0hdYzFDKD1PKU9bQ0gyXVtDQEBIXTJPW0NAQEhdKG4zW2NIXVtjSF1jKD1PKVtuSF1jMz1PKVtDQEBIXShbT0hdKVtDQEhdMk9DKD1PKWM0W2NIXVtjSF1bY0hdW2NIXVtjSF00

> <s_epik_cmdline>
J2VwaWtfcHl0aG9uJywgJy1waCcsICc3LjAnLCAnLXRuJywgJzgnLCAnLW1hJywgJzIwMCcsICctbWV0YWxfYmluZGluZycsICctaW1hZScsICc8aW5maWxlLm1hZT4nLCAnLW9tYWUnLCAnPG91dGZpbGUubWFlPic=

> <r_lp_tautomer_probability>
1

> <r_epik_Ionization_Penalty>
2.89159

> <r_epik_Ionization_Penalty_Charging>
2.1077e-08

> <r_epik_Ionization_Penalty_Neutral>
2.89159

> <r_epik_State_Penalty>
2.88671

> <r_epik_Charging_Adjusted_Penalty>
2.88671

> <i_epik_Tot_Q>
-1

> <i_epik_Tot_abs_Q>
1

> <r_epik_Metal_State_Penalty>
0.0727308

> <b_epik_Metal_Only>
1

> <s_epik_Chemistry_Notes>
This compound has an ester and may undergo hydrolysis at high or low pH. This compound contains an acetal/aminal-like group ( X-CH(R)-Y where X, Y are N, S, or O) that may be acid/base labile, releasing an aldehyde.

> <s_lp_Force_Field>
OPLS_2005

> <r_lp_Energy>
36.8261

> <b_lp_Chiralities_Consistent>
1

> <s_lp_Variant>
AV-unprocessed.smi:99-28

> <Gold.Version>
5.8.1

> <Gold.Id.Protein>
6NUR|6NUR_protein|mol2

> <Gold.PLP.Fitness>
51.3964

> <Gold.PLP.PLP>
-40.5497

> <Gold.PLP.part.hbond>
-5.0647

> <Gold.PLP.part.metal>
0.0000

> <Gold.PLP.part.buried>
-5.7033

> <Gold.PLP.part.nonpolar>
-33.2344

> <Gold.PLP.part.repulsive>
2.7378

> <Gold.PLP.ligand.clash>
0.0000

> <Gold.PLP.ligand.torsion>
1.8978

> <Gold.PLP.Chemscore.Hbond>
4.8000

> <Gold.PLP.Chemscore.CHOScore>
0.0000

> <Gold.PLP.Chemscore.Metal>
0.0000

> <Gold.Chemscore.Hbonds>
donor molecule, donor type, donor heavy atom, donor atom, acceptor molecule, acceptor atom, score
      L1  H    17    41       P1  8028  0.93
      P1  H  7954  7966       L1     1  0.90
      P1  H  7989  7998       L1    15  0.68
      P1  H  7997  8009       L1    13  1.69

> <Gold.PLP.Chemscore.Internal.Correction>
0.2424

> <Gold.Rescore>
     Score         DG    S(hbond)    S(metal)    S(lipo)     H(rot)  DE(clash)    DE(int)     intcor
     13.54     -16.83       3.53        0.00      64.71       3.13       1.46       1.82       ----

> <Gold.Chemscore.Fitness>
13.5434

> <Gold.Chemscore.DG>
-16.8317

> <Gold.Chemscore.ZeroCoef>
-5.4800

> <Gold.Chemscore.Hbond>
3.5345

> <Gold.Chemscore.Metal>
0.0000

> <Gold.Chemscore.Lipo>
64.7092

> <Gold.Chemscore.Internal_Hbond>
0.0000

> <Gold.Chemscore.DEClash>
1.4639

> <Gold.Chemscore.DEInternal>
1.8245

> <Gold.Chemscore.Rot>
3.1346

> <Gold.Chemscore.Internal.Correction>
   9.000000E+99

> <Gold.Chemscore.Hbonds>
donor molecule, donor type, donor heavy atom, donor atom, acceptor molecule, acceptor atom, score
      L1  H    17    41       P1  8028  0.88
      P1  H  7954  7966       L1     1  0.88
      P1  H  7989  7998       L1    15  0.64
      P1  H  7997  8009       L1    13  0.64
      P1  H  8011  8017       L1    17  0.03

> <Gold.Chemscore.Hbond.Weighted>
-11.8053

> <Gold.Chemscore.Metal.Weighted>
-0.0000

> <Gold.Chemscore.Lipo.Weighted>
-7.5710

> <Gold.Chemscore.Internal_Hbond.Weighted>
0.0000

> <Gold.Chemscore.DEClash.Weighted>
1.4639

> <Gold.Chemscore.DEInternal.Weighted>
1.8245

> <Gold.Chemscore.Rot.Weighted>
8.0246

> <Gold.Chemscore.Internal.Correction.Weighted>
   9.000000E+99

> <Gold.Protein.RotatedTorsions>
[ 6907 6896 6895 6894 ] final -126.26 input  -60.11 | X-H torsion
[ 7974 7965 7964 7962 ] final   33.30 input  175.53 | X-H torsion
[ 8008 7997 7996 7995 ] final  179.38 input   59.86 | X-H torsion
[ 10167 10162 10161 10158 ] final  -86.51 input  -65.29 | X-H torsion
[ 10718 10713 10712 10709 ] final  150.85 input   66.30 | X-H torsion
[ 10763 10752 10751 10750 ] final -107.94 input  -60.55 | X-H torsion
[ 11005 11000 10999 10996 ] final   55.99 input  -57.11 | X-H torsion

> <Gold.Protein.ActiveResidues>
 VAL166  LYS551  ARG553  GLY616  TRP617  ASP618  TYR619  PRO620  LYS621  CYS622 
 ASP623  PHE694  ASN695  SER759  ASP760  ASP761  ALA762  ILE779  LEU786  VAL792 
 PHE793  MET794  SER795  GLU796  ALA797  LYS798  CYS799  TRP800  GLU811  SER814 

> <Gold.Protein.RotatedAtoms>
  150.8951  133.7191  159.2893 H   0  0  0  0  0  0  0  0  0  0  0  0  # atno 6907 bound_to 6896
  151.4728  135.1045  159.9766 H   0  0  0  0  0  0  0  0  0  0  0  0  # atno 6908 bound_to 6896
  152.4844  133.8287  159.7147 H   0  0  0  0  0  0  0  0  0  0  0  0  # atno 6909 bound_to 6896
  146.1429  139.6414  142.9150 H   0  0  0  0  0  0  0  0  0  0  0  0  # atno 7974 bound_to 7965
  156.0441  140.1310  157.0123 H   0  0  0  0  0  0  0  0  0  0  0  0  # atno 8008 bound_to 7997
  154.4404  140.1024  156.6350 H   0  0  0  0  0  0  0  0  0  0  0  0  # atno 8009 bound_to 7997
  155.5623  140.3465  155.4496 H   0  0  0  0  0  0  0  0  0  0  0  0  # atno 8010 bound_to 7997
  140.3934  143.2694  151.9235 H   0  0  0  0  0  0  0  0  0  0  0  0  # atno 10167 bound_to 10162
  157.2782  131.0830  151.1551 H   0  0  0  0  0  0  0  0  0  0  0  0  # atno 10718 bound_to 10713
  154.8106  135.4656  154.0506 H   0  0  0  0  0  0  0  0  0  0  0  0  # atno 10763 bound_to 10752
  153.1940  135.6859  153.8323 H   0  0  0  0  0  0  0  0  0  0  0  0  # atno 10764 bound_to 10752
  153.7830  135.3254  155.3345 H   0  0  0  0  0  0  0  0  0  0  0  0  # atno 10765 bound_to 10752
  140.0564  134.5664  155.9203 H   0  0  0  0  0  0  0  0  0  0  0  0  # atno 11005 bound_to 11000
  145.5004  141.0437  143.2543 LP  0  0  0  0  0  0  0  0  0  0  0  0  # atno 17320 bound_to 7965
  144.7813  139.6520  143.7153 LP  0  0  0  0  0  0  0  0  0  0  0  0  # atno 17321 bound_to 7965
  139.4788  144.5705  151.8096 LP  0  0  0  0  0  0  0  0  0  0  0  0  # atno 17342 bound_to 10162
  140.4816  144.1442  150.5933 LP  0  0  0  0  0  0  0  0  0  0  0  0  # atno 17343 bound_to 10162
  157.2995  130.6836  149.6156 LP  0  0  0  0  0  0  0  0  0  0  0  0  # atno 17370 bound_to 10713
  155.9664  130.4396  150.5266 LP  0  0  0  0  0  0  0  0  0  0  0  0  # atno 17371 bound_to 10713
  141.1954  133.6587  156.5640 LP  0  0  0  0  0  0  0  0  0  0  0  0  # atno 17394 bound_to 11000
  140.3838  134.7500  157.4678 LP  0  0  0  0  0  0  0  0  0  0  0  0  # atno 17395 bound_to 11000

$$$$
