AV-unprocessed.smi:335|AV-procd|sdf|2370|dock1
  -GOLD-   2262022283D 1   1.00000     0.00000
 Structure written by MMmdl.
 42 44  0  0  0  0  0  0  0  0  1 V2000
  147.8153  135.8977  161.6337 C   0  0  0  0  0  0  0  0  0  0  0  0
  147.9015  136.9502  160.6895 O   0  0  0  0  0  0  0  0  0  0  0  0
  148.6825  136.6012  159.5580 C   0  0  0  0  0  0  0  0  0  0  0  0
  147.9248  136.9785  158.2742 C   0  0  0  0  0  0  0  0  0  0  0  0
  148.8304  137.4709  157.2298 N   0  0  0  0  0  0  0  0  0  0  0  0
  149.7878  138.3608  157.6873 N   0  0  0  0  0  0  0  0  0  0  0  0
  150.6654  138.8491  156.8713 C   0  0  0  0  0  0  0  0  0  0  0  0
  151.7128  139.8058  157.3242 C   0  0  0  0  0  0  0  0  0  0  0  0
  152.9064  139.6282  157.0746 O   0  0  0  0  0  0  0  0  0  0  0  0
  151.2595  140.8651  158.0193 N   0  0  0  0  0  0  0  0  0  0  0  0
  152.0778  141.9349  158.5795 C   0  0  0  0  0  0  0  0  0  0  0  0
  152.4526  141.6729  160.0282 C   0  0  0  0  0  0  0  0  0  0  0  0
  153.6571  142.3283  160.6618 C   0  0  0  0  0  0  0  0  0  0  0  0
  153.6606  140.8414  160.3884 C   0  0  0  0  0  0  0  0  0  0  0  0
  151.3987  143.2853  158.4450 C   0  0  0  0  0  0  0  0  0  0  0  0
  152.0511  144.4129  157.6813 C   0  0  0  0  0  0  0  0  0  0  0  0
  151.9084  144.4998  159.1844 C   0  0  0  0  0  0  0  0  0  0  0  0
  150.6611  138.4792  155.4659 C   0  0  0  0  0  0  0  0  0  0  0  0
  149.7156  137.6169  155.0324 C   0  0  0  0  0  0  0  0  0  0  0  0
  148.7121  137.0498  155.9344 C   0  0  0  0  0  0  0  0  0  0  0  0
  147.8427  136.2614  155.5638 O   0  0  0  0  0  0  0  0  0  0  0  0
  147.2043  136.2127  162.4795 H   0  0  0  0  0  0  0  0  0  0  0  0
  148.8014  135.6281  162.0141 H   0  0  0  0  0  0  0  0  0  0  0  0
  147.3539  135.0115  161.1960 H   0  0  0  0  0  0  0  0  0  0  0  0
  149.6519  137.1006  159.5942 H   0  0  0  0  0  0  0  0  0  0  0  0
  148.8733  135.5272  159.5657 H   0  0  0  0  0  0  0  0  0  0  0  0
  147.3716  136.1130  157.9061 H   0  0  0  0  0  0  0  0  0  0  0  0
  147.1662  137.7285  158.5059 H   0  0  0  0  0  0  0  0  0  0  0  0
  150.2639  140.9280  158.1775 H   0  0  0  0  0  0  0  0  0  0  0  0
  153.0055  141.9935  158.0066 H   0  0  0  0  0  0  0  0  0  0  0  0
  151.5895  141.5538  160.6809 H   0  0  0  0  0  0  0  0  0  0  0  0
  154.2914  142.9509  160.0341 H   0  0  0  0  0  0  0  0  0  0  0  0
  153.5664  142.6497  161.6972 H   0  0  0  0  0  0  0  0  0  0  0  0
  153.5694  140.1706  161.2400 H   0  0  0  0  0  0  0  0  0  0  0  0
  154.2921  140.4831  159.5779 H   0  0  0  0  0  0  0  0  0  0  0  0
  150.3166  143.2168  158.3474 H   0  0  0  0  0  0  0  0  0  0  0  0
  153.0488  144.2433  157.2808 H   0  0  0  0  0  0  0  0  0  0  0  0
  151.4073  145.0477  157.0759 H   0  0  0  0  0  0  0  0  0  0  0  0
  151.1689  145.1919  159.5818 H   0  0  0  0  0  0  0  0  0  0  0  0
  152.8149  144.3953  159.7773 H   0  0  0  0  0  0  0  0  0  0  0  0
  151.3900  138.8816  154.7776 H   0  0  0  0  0  0  0  0  0  0  0  0
  149.6989  137.3351  153.9898 H   0  0  0  0  0  0  0  0  0  0  0  0
  1  2  1  0  0  0  0
  1 22  1  0  0  0  0
  1 23  1  0  0  0  0
  1 24  1  0  0  0  0
  2  3  1  0  0  0  0
  3  4  1  0  0  0  0
  3 25  1  0  0  0  0
  3 26  1  0  0  0  0
  4  5  1  0  0  0  0
  4 27  1  0  0  0  0
  4 28  1  0  0  0  0
  5 20  1  0  0  0  0
  5  6  1  0  0  0  0
  6  7  2  0  0  0  0
  7  8  1  0  0  0  0
  7 18  1  0  0  0  0
  8  9  2  0  0  0  0
  8 10  1  0  0  0  0
 10 11  1  0  0  0  0
 10 29  1  0  0  0  0
 11 12  1  0  0  0  0
 11 15  1  0  0  0  0
 11 30  1  0  0  0  0
 12 14  1  0  0  0  0
 12 13  1  0  0  0  0
 12 31  1  0  0  0  0
 13 14  1  0  0  0  0
 13 32  1  0  0  0  0
 13 33  1  0  0  0  0
 14 34  1  0  0  0  0
 14 35  1  0  0  0  0
 15 17  1  0  0  0  0
 15 16  1  0  0  0  0
 15 36  1  0  0  0  0
 16 17  1  0  0  0  0
 16 37  1  0  0  0  0
 16 38  1  0  0  0  0
 17 39  1  0  0  0  0
 17 40  1  0  0  0  0
 18 19  2  0  0  0  0
 18 41  1  0  0  0  0
 19 20  1  0  0  0  0
 19 42  1  0  0  0  0
 20 21  2  0  0  0  0
M  END
> <s_m_source_file>
AV-unprocessed.smi

> <i_m_source_file_index>
335

> <i_lp_mmshare_version>
43012

> <i_f3d_flags>
0

> <s_epik_input>
W0NIM11PW0NIMl1bQ0gyXW4xbmMoW2NIXVtjSF1jMT1PKUMoPU8pW05IXVtDSF0oW0NIXTJbQ0gyXVtDSDJdMilbQ0hdM1tDSDJdW0NIMl0z

> <s_epik_cmdline>
J2VwaWtfcHl0aG9uJywgJy1waCcsICc3LjAnLCAnLXRuJywgJzgnLCAnLW1hJywgJzIwMCcsICctbWV0YWxfYmluZGluZycsICctaW1hZScsICc8aW5maWxlLm1hZT4nLCAnLW9tYWUnLCAnPG91dGZpbGUubWFlPic=

> <r_lp_tautomer_probability>
1

> <r_epik_Ionization_Penalty>
5.73468e-07

> <r_epik_Ionization_Penalty_Charging>
6.67133e-09

> <r_epik_Ionization_Penalty_Neutral>
5.66797e-07

> <r_epik_State_Penalty>
-0

> <r_epik_Charging_Adjusted_Penalty>
6.67133e-09

> <i_epik_Tot_Q>
0

> <i_epik_Tot_abs_Q>
0

> <r_epik_Metal_State_Penalty>
-0

> <b_epik_Metal_Only>
0

> <s_lp_Force_Field>
OPLS_2005

> <r_lp_Energy>
44.174

> <b_lp_Chiralities_Consistent>
1

> <s_lp_Variant>
AV-unprocessed.smi:335-1

> <Gold.Version>
5.8.1

> <Gold.Id.Protein>
6NUR|6NUR_protein|mol2

> <Gold.PLP.Fitness>
40.5437

> <Gold.PLP.PLP>
-36.6436

> <Gold.PLP.part.hbond>
-3.0000

> <Gold.PLP.part.metal>
0.0000

> <Gold.PLP.part.buried>
-5.5127

> <Gold.PLP.part.nonpolar>
-28.5550

> <Gold.PLP.part.repulsive>
0.1436

> <Gold.PLP.ligand.clash>
0.0000

> <Gold.PLP.ligand.torsion>
3.4241

> <Gold.PLP.Chemscore.Hbond>
2.8240

> <Gold.PLP.Chemscore.CHOScore>
0.0000

> <Gold.PLP.Chemscore.Metal>
0.0000

> <Gold.Chemscore.Hbonds>
donor molecule, donor type, donor heavy atom, donor atom, acceptor molecule, acceptor atom, score
      P1  H  6931  6943       L1     2  0.63
      P1  H  6934  6947       L1     2  0.48
      P1  H  7997  8009       L1     9  1.00

> <Gold.PLP.Chemscore.Internal.Correction>
2.2765

> <Gold.Rescore>
     Score         DG    S(hbond)    S(metal)    S(lipo)     H(rot)  DE(clash)    DE(int)     intcor
     16.11     -19.50       1.93        0.00     105.20       1.85       0.03       3.35       ----

> <Gold.Chemscore.Fitness>
16.1145

> <Gold.Chemscore.DG>
-19.5010

> <Gold.Chemscore.ZeroCoef>
-5.4800

> <Gold.Chemscore.Hbond>
1.9274

> <Gold.Chemscore.Metal>
0.0000

> <Gold.Chemscore.Lipo>
105.2031

> <Gold.Chemscore.Internal_Hbond>
0.0000

> <Gold.Chemscore.DEClash>
0.0348

> <Gold.Chemscore.DEInternal>
3.3517

> <Gold.Chemscore.Rot>
1.8458

> <Gold.Chemscore.Internal.Correction>
   9.000000E+99

> <Gold.Chemscore.Hbonds>
donor molecule, donor type, donor heavy atom, donor atom, acceptor molecule, acceptor atom, score
      P1  H  6931  6943       L1     2  0.07
      P1  H  6934  6947       L1     2  0.46
      P1  H  7997  8009       L1     9  0.98

> <Gold.Chemscore.Hbond.Weighted>
-6.4374

> <Gold.Chemscore.Metal.Weighted>
-0.0000

> <Gold.Chemscore.Lipo.Weighted>
-12.3088

> <Gold.Chemscore.Internal_Hbond.Weighted>
0.0000

> <Gold.Chemscore.DEClash.Weighted>
0.0348

> <Gold.Chemscore.DEInternal.Weighted>
3.3517

> <Gold.Chemscore.Rot.Weighted>
4.7252

> <Gold.Chemscore.Internal.Correction.Weighted>
   9.000000E+99

> <Gold.Protein.RotatedTorsions>
[ 6907 6896 6895 6894 ] final -124.67 input  -60.11 | X-H torsion
[ 7974 7965 7964 7962 ] final    5.51 input  175.53 | X-H torsion
[ 8008 7997 7996 7995 ] final  176.01 input   59.86 | X-H torsion
[ 10167 10162 10161 10158 ] final  -86.37 input  -65.29 | X-H torsion
[ 10718 10713 10712 10709 ] final  155.42 input   66.30 | X-H torsion
[ 10763 10752 10751 10750 ] final  -13.33 input  -60.55 | X-H torsion
[ 11005 11000 10999 10996 ] final    0.42 input  -57.11 | X-H torsion

> <Gold.Protein.ActiveResidues>
 VAL166  LYS551  ARG553  GLY616  TRP617  ASP618  TYR619  PRO620  LYS621  CYS622 
 ASP623  PHE694  ASN695  SER759  ASP760  ASP761  ALA762  ILE779  LEU786  VAL792 
 PHE793  MET794  SER795  GLU796  ALA797  LYS798  CYS799  TRP800  GLU811  SER814 

> <Gold.Protein.RotatedAtoms>
  150.8791  133.7398  159.2937 H   0  0  0  0  0  0  0  0  0  0  0  0  # atno 6907 bound_to 6896
  151.4985  135.1059  159.9832 H   0  0  0  0  0  0  0  0  0  0  0  0  # atno 6908 bound_to 6896
  152.4747  133.8065  159.7036 H   0  0  0  0  0  0  0  0  0  0  0  0  # atno 6909 bound_to 6896
  146.2440  140.0374  142.8385 H   0  0  0  0  0  0  0  0  0  0  0  0  # atno 7974 bound_to 7965
  156.0810  140.1394  156.9712 H   0  0  0  0  0  0  0  0  0  0  0  0  # atno 8008 bound_to 7997
  154.4585  140.0952  156.6875 H   0  0  0  0  0  0  0  0  0  0  0  0  # atno 8009 bound_to 7997
  155.5075  140.3453  155.4384 H   0  0  0  0  0  0  0  0  0  0  0  0  # atno 8010 bound_to 7997
  140.3948  143.2688  151.9218 H   0  0  0  0  0  0  0  0  0  0  0  0  # atno 10167 bound_to 10162
  157.2185  131.0713  151.1926 H   0  0  0  0  0  0  0  0  0  0  0  0  # atno 10718 bound_to 10713
  153.5116  135.7016  153.5778 H   0  0  0  0  0  0  0  0  0  0  0  0  # atno 10763 bound_to 10752
  153.3865  135.3906  155.1893 H   0  0  0  0  0  0  0  0  0  0  0  0  # atno 10764 bound_to 10752
  154.8702  135.3848  154.4597 H   0  0  0  0  0  0  0  0  0  0  0  0  # atno 10765 bound_to 10752
  140.6267  133.9612  155.8253 H   0  0  0  0  0  0  0  0  0  0  0  0  # atno 11005 bound_to 11000
  145.1100  140.9399  143.4662 LP  0  0  0  0  0  0  0  0  0  0  0  0  # atno 17320 bound_to 7965
  145.0585  139.3124  143.5892 LP  0  0  0  0  0  0  0  0  0  0  0  0  # atno 17321 bound_to 7965
  139.4787  144.5692  151.8116 LP  0  0  0  0  0  0  0  0  0  0  0  0  # atno 17342 bound_to 10162
  140.4802  144.1461  150.5931 LP  0  0  0  0  0  0  0  0  0  0  0  0  # atno 17343 bound_to 10162
  157.3600  130.7126  149.6495 LP  0  0  0  0  0  0  0  0  0  0  0  0  # atno 17370 bound_to 10713
  155.9684  130.4228  150.4534 LP  0  0  0  0  0  0  0  0  0  0  0  0  # atno 17371 bound_to 10713
  141.0704  134.0214  157.3534 LP  0  0  0  0  0  0  0  0  0  0  0  0  # atno 17394 bound_to 11000
  139.9132  135.0193  156.7776 LP  0  0  0  0  0  0  0  0  0  0  0  0  # atno 17395 bound_to 11000

$$$$
