AV-unprocessed.smi:1680|AV-procd|sdf|6739|dock10
  -GOLD-   22720 7493D 1   1.00000     0.00000
 Structure written by MMmdl.
 37 38  0  0  0  0  0  0  0  0  2 V2000
  152.5559  143.5135  161.8844 C   0  0  0  0  0  0  0  0  0  0  0  0
  152.1710  143.9337  160.4643 C   0  0  0  0  0  0  0  0  0  0  0  0
  151.7139  145.0651  160.2997 O   0  0  0  0  0  0  0  0  0  0  0  0
  152.3436  143.0583  159.4459 N   0  0  0  0  0  0  0  0  0  0  0  0
  151.9559  143.3456  158.0624 C   0  0  0  0  0  0  0  0  0  0  0  0
  150.8250  142.3828  157.6514 C   0  0  0  0  0  0  0  0  0  0  0  0
  151.2715  140.9925  157.7776 N   0  0  0  0  0  0  0  0  0  0  0  0
  150.1972  140.0968  157.3489 C   0  0  0  0  0  0  0  0  0  0  0  0
  150.3398  138.6621  157.8982 C   0  0  0  0  0  0  0  0  0  0  0  0
  149.3980  138.3977  158.9829 N   0  0  0  0  0  0  0  0  0  0  0  0
  149.1705  137.2105  159.5636 C   0  0  0  0  0  0  0  0  0  0  0  0
  149.7912  136.2116  159.1922 O   0  0  0  0  0  0  0  0  0  0  0  0
  148.2377  137.2539  160.5423 N   0  5  0  0  0  0  0  0  0  0  0  0
  147.8991  136.1311  161.1971 C   0  0  0  0  0  0  0  0  0  0  0  0
  147.8655  134.9312  160.5951 N   0  0  0  0  0  0  0  0  0  0  0  0
  147.4873  133.9029  161.4478 N   0  0  0  0  0  0  0  0  0  0  0  0
  147.2368  134.3573  162.6755 C   0  0  0  0  0  0  0  0  0  0  0  0
  147.4355  136.0823  162.9007 S   0  0  0  0  0  0  0  0  0  0  0  0
  151.6847  140.7204  159.1596 C   0  0  0  0  0  0  0  0  0  0  0  0
  152.8205  141.6773  159.5690 C   0  0  0  0  0  0  0  0  0  0  0  0
  151.9777  142.6448  162.2007 H   0  0  0  0  0  0  0  0  0  0  0  0
  152.3581  144.3203  162.5910 H   0  0  0  0  0  0  0  0  0  0  0  0
  153.6179  143.2739  161.9413 H   0  0  0  0  0  0  0  0  0  0  0  0
  151.6261  144.3757  157.9226 H   0  0  0  0  0  0  0  0  0  0  0  0
  152.8201  143.2161  157.4091 H   0  0  0  0  0  0  0  0  0  0  0  0
  149.9414  142.5512  158.2692 H   0  0  0  0  0  0  0  0  0  0  0  0
  150.5388  142.5819  156.6181 H   0  0  0  0  0  0  0  0  0  0  0  0
  149.2333  140.5170  157.6398 H   0  0  0  0  0  0  0  0  0  0  0  0
  150.1912  140.0402  156.2593 H   0  0  0  0  0  0  0  0  0  0  0  0
  150.2701  137.9093  157.1131 H   0  0  0  0  0  0  0  0  0  0  0  0
  151.3402  138.5497  158.3159 H   0  0  0  0  0  0  0  0  0  0  0  0
  148.8627  139.1839  159.3204 H   0  0  0  0  0  0  0  0  0  0  0  0
  146.9290  133.6733  163.4523 H   0  0  0  0  0  0  0  0  0  0  0  0
  150.8354  140.8304  159.8357 H   0  0  0  0  0  0  0  0  0  0  0  0
  152.0402  139.6958  159.2553 H   0  0  0  0  0  0  0  0  0  0  0  0
  153.6837  141.5347  158.9167 H   0  0  0  0  0  0  0  0  0  0  0  0
  153.1646  141.4219  160.5699 H   0  0  0  0  0  0  0  0  0  0  0  0
  1  2  1  0  0  0  0
  1 21  1  0  0  0  0
  1 22  1  0  0  0  0
  1 23  1  0  0  0  0
  2  3  2  0  0  0  0
  2  4  1  0  0  0  0
  4 20  1  0  0  0  0
  4  5  1  0  0  0  0
  5  6  1  0  0  0  0
  5 24  1  0  0  0  0
  5 25  1  0  0  0  0
  6  7  1  0  0  0  0
  6 26  1  0  0  0  0
  6 27  1  0  0  0  0
  7  8  1  0  0  0  0
  7 19  1  0  0  0  0
  8  9  1  0  0  0  0
  8 28  1  0  0  0  0
  8 29  1  0  0  0  0
  9 10  1  0  0  0  0
  9 30  1  0  0  0  0
  9 31  1  0  0  0  0
 10 11  1  0  0  0  0
 10 32  1  0  0  0  0
 11 12  2  0  0  0  0
 11 13  1  0  0  0  0
 13 14  1  0  0  0  0
 14 18  1  0  0  0  0
 14 15  2  0  0  0  0
 15 16  1  0  0  0  0
 16 17  2  0  0  0  0
 17 18  1  0  0  0  0
 17 33  1  0  0  0  0
 19 20  1  0  0  0  0
 19 34  1  0  0  0  0
 19 35  1  0  0  0  0
 20 36  1  0  0  0  0
 20 37  1  0  0  0  0
M  CHG  1  13  -1
M  END
> <s_m_source_file>
AV-unprocessed.smi

> <i_m_source_file_index>
1680

> <i_lp_mmshare_version>
43012

> <i_f3d_flags>
0

> <s_epik_input>
W0NIM11DKD1PKU4xW0NIMl1bQ0gyXU4oW0NIMl1bQ0gyXTEpW0NIMl1bQ0gyXVtOSF1DKD1PKVtOSF1jMm5uW2NIXXMy

> <s_epik_cmdline>
J2VwaWtfcHl0aG9uJywgJy1waCcsICc3LjAnLCAnLXRuJywgJzgnLCAnLW1hJywgJzIwMCcsICctbWV0YWxfYmluZGluZycsICctaW1hZScsICc8aW5maWxlLm1hZT4nLCAnLW9tYWUnLCAnPG91dGZpbGUubWFlPic=

> <r_lp_tautomer_probability>
1

> <r_epik_Ionization_Penalty>
3.80493

> <r_epik_Ionization_Penalty_Charging>
3.53258

> <r_epik_Ionization_Penalty_Neutral>
0.272353

> <r_epik_State_Penalty>
3.75006

> <r_epik_Charging_Adjusted_Penalty>
7.28264

> <i_epik_Tot_Q>
-1

> <i_epik_Tot_abs_Q>
1

> <r_epik_Metal_State_Penalty>
0.749383

> <b_epik_Metal_Only>
1

> <s_lp_Force_Field>
OPLS_2005

> <r_lp_Energy>
35.6067

> <b_lp_Chiralities_Consistent>
1

> <s_lp_Variant>
AV-unprocessed.smi:1680-3

> <Gold.Version>
5.8.1

> <Gold.Id.Protein>
6NUR|6NUR_protein|mol2

> <Gold.PLP.Fitness>
50.5264

> <Gold.PLP.PLP>
-41.7826

> <Gold.PLP.part.hbond>
-3.0000

> <Gold.PLP.part.metal>
0.0000

> <Gold.PLP.part.buried>
-6.3765

> <Gold.PLP.part.nonpolar>
-33.6112

> <Gold.PLP.part.repulsive>
0.3878

> <Gold.PLP.ligand.clash>
0.0000

> <Gold.PLP.ligand.torsion>
0.8085

> <Gold.PLP.Chemscore.Hbond>
3.4420

> <Gold.PLP.Chemscore.CHOScore>
0.0000

> <Gold.PLP.Chemscore.Metal>
0.0000

> <Gold.Chemscore.Hbonds>
donor molecule, donor type, donor heavy atom, donor atom, acceptor molecule, acceptor atom, score
      P1  H  6896  6907       L1    12  1.00
      P1  H  6931  6943       L1    13  1.47
      P1  H  6934  6947       L1    13  1.10

> <Gold.PLP.Chemscore.Internal.Correction>
0.0347

> <Gold.Rescore>
     Score         DG    S(hbond)    S(metal)    S(lipo)     H(rot)  DE(clash)    DE(int)     intcor
     12.89     -15.22       1.71        0.00      72.94       1.77       0.02       2.31       ----

> <Gold.Chemscore.Fitness>
12.8877

> <Gold.Chemscore.DG>
-15.2170

> <Gold.Chemscore.ZeroCoef>
-5.4800

> <Gold.Chemscore.Hbond>
1.7134

> <Gold.Chemscore.Metal>
0.0000

> <Gold.Chemscore.Lipo>
72.9427

> <Gold.Chemscore.Internal_Hbond>
0.0000

> <Gold.Chemscore.DEClash>
0.0154

> <Gold.Chemscore.DEInternal>
2.3139

> <Gold.Chemscore.Rot>
1.7657

> <Gold.Chemscore.Internal.Correction>
   9.000000E+99

> <Gold.Chemscore.Hbonds>
donor molecule, donor type, donor heavy atom, donor atom, acceptor molecule, acceptor atom, score
      P1  H  6896  6907       L1    12  0.96
      P1  H  6931  6943       L1    13  0.11
      P1  H  6934  6947       L1    13  0.51

> <Gold.Chemscore.Hbond.Weighted>
-5.7229

> <Gold.Chemscore.Metal.Weighted>
-0.0000

> <Gold.Chemscore.Lipo.Weighted>
-8.5343

> <Gold.Chemscore.Internal_Hbond.Weighted>
0.0000

> <Gold.Chemscore.DEClash.Weighted>
0.0154

> <Gold.Chemscore.DEInternal.Weighted>
2.3139

> <Gold.Chemscore.Rot.Weighted>
4.5201

> <Gold.Chemscore.Internal.Correction.Weighted>
   9.000000E+99

> <Gold.Protein.RotatedTorsions>
[ 6907 6896 6895 6894 ] final  -67.36 input  -60.11 | X-H torsion
[ 7974 7965 7964 7962 ] final -132.79 input  175.53 | X-H torsion
[ 8008 7997 7996 7995 ] final   40.00 input   59.86 | X-H torsion
[ 10167 10162 10161 10158 ] final  -55.99 input  -65.29 | X-H torsion
[ 10718 10713 10712 10709 ] final  -46.80 input   66.30 | X-H torsion
[ 10763 10752 10751 10750 ] final  -97.72 input  -60.55 | X-H torsion
[ 11005 11000 10999 10996 ] final  -69.31 input  -57.11 | X-H torsion

> <Gold.Protein.ActiveResidues>
 VAL166  LYS551  ARG553  GLY616  TRP617  ASP618  TYR619  PRO620  LYS621  CYS622 
 ASP623  PHE694  ASN695  SER759  ASP760  ASP761  ALA762  ILE779  LEU786  VAL792 
 PHE793  MET794  SER795  GLU796  ALA797  LYS798  CYS799  TRP800  GLU811  SER814 

> <Gold.Protein.RotatedAtoms>
  150.7414  134.5892  159.5978 H   0  0  0  0  0  0  0  0  0  0  0  0  # atno 6907 bound_to 6896
  152.3285  134.7287  160.0305 H   0  0  0  0  0  0  0  0  0  0  0  0  # atno 6908 bound_to 6896
  151.7779  133.3311  159.3499 H   0  0  0  0  0  0  0  0  0  0  0  0  # atno 6909 bound_to 6896
  144.9252  140.7063  143.4940 H   0  0  0  0  0  0  0  0  0  0  0  0  # atno 7974 bound_to 7965
  155.2458  140.3349  155.4287 H   0  0  0  0  0  0  0  0  0  0  0  0  # atno 8008 bound_to 7997
  156.2236  140.1820  156.7461 H   0  0  0  0  0  0  0  0  0  0  0  0  # atno 8009 bound_to 7997
  154.5864  140.0645  156.9162 H   0  0  0  0  0  0  0  0  0  0  0  0  # atno 8010 bound_to 7997
  140.6343  143.2474  151.5160 H   0  0  0  0  0  0  0  0  0  0  0  0  # atno 10167 bound_to 10162
  156.2147  130.4162  149.9069 H   0  0  0  0  0  0  0  0  0  0  0  0  # atno 10718 bound_to 10713
  154.7352  135.5036  153.9030 H   0  0  0  0  0  0  0  0  0  0  0  0  # atno 10763 bound_to 10752
  153.0988  135.6679  153.9720 H   0  0  0  0  0  0  0  0  0  0  0  0  # atno 10764 bound_to 10752
  153.9511  135.3057  155.3417 H   0  0  0  0  0  0  0  0  0  0  0  0  # atno 10765 bound_to 10752
  141.1551  133.6761  156.6580 H   0  0  0  0  0  0  0  0  0  0  0  0  # atno 11005 bound_to 11000
  145.3230  139.1782  143.4577 LP  0  0  0  0  0  0  0  0  0  0  0  0  # atno 17320 bound_to 7965
  146.3223  140.3250  142.8636 LP  0  0  0  0  0  0  0  0  0  0  0  0  # atno 17321 bound_to 7965
  139.5554  144.2288  152.1603 LP  0  0  0  0  0  0  0  0  0  0  0  0  # atno 17342 bound_to 10162
  140.1540  144.5088  150.6670 LP  0  0  0  0  0  0  0  0  0  0  0  0  # atno 17343 bound_to 10162
  156.6735  130.8830  151.3565 LP  0  0  0  0  0  0  0  0  0  0  0  0  # atno 17370 bound_to 10713
  157.7057  130.9382  150.0923 LP  0  0  0  0  0  0  0  0  0  0  0  0  # atno 17371 bound_to 10713
  140.3269  134.7961  157.4296 LP  0  0  0  0  0  0  0  0  0  0  0  0  # atno 17394 bound_to 11000
  140.1049  134.5423  155.8318 LP  0  0  0  0  0  0  0  0  0  0  0  0  # atno 17395 bound_to 11000

$$$$
