AV-unprocessed.smi:2803|AV-procd|sdf|10808|dock2
  -GOLD-   2272015243D 1   1.00000     0.00000
 Structure written by MMmdl.
 42 43  0  0  0  0  0  0  0  0  1 V2000
  150.1415  138.9023  153.9811 C   0  0  0  0  0  0  0  0  0  0  0  0
  150.7437  138.9326  155.4004 C   0  0  2  0  0  0  0  0  0  0  0  0
  152.2084  139.0252  155.2576 C   0  0  0  0  0  0  0  0  0  0  0  0
  153.3580  139.1010  155.1464 N   0  0  0  0  0  0  0  0  0  0  0  0
  150.4557  137.6710  156.0876 N   0  0  0  0  0  0  0  0  0  0  0  0
  150.7441  136.4222  155.6854 C   0  0  0  0  0  0  0  0  0  0  0  0
  151.3154  136.1605  154.6266 O   0  0  0  0  0  0  0  0  0  0  0  0
  150.2885  135.2979  156.6247 C   0  0  0  0  0  0  0  0  0  0  0  0
  150.3432  133.9736  156.0028 N   0  0  0  0  0  0  0  0  0  0  0  0
  149.7500  133.6791  154.7997 C   0  0  0  0  0  0  0  0  0  0  0  0
  149.9379  132.4508  154.4629 N   0  0  0  0  0  0  0  0  0  0  0  0
  150.6809  131.9436  155.4919 N   0  0  0  0  0  0  0  0  0  0  0  0
  151.1076  130.5209  155.4724 C   0  0  0  0  0  0  0  0  0  0  0  0
  150.5863  129.8052  156.7374 C   0  0  0  0  0  0  0  0  0  0  0  0
  152.6501  130.3791  155.4477 C   0  0  0  0  0  0  0  0  0  0  0  0
  150.5495  129.8280  154.2102 C   0  0  0  0  0  0  0  0  0  0  0  0
  150.9370  132.8670  156.4392 C   0  0  0  0  0  0  0  0  0  0  0  0
  151.5742  132.7343  157.4841 O   0  0  0  0  0  0  0  0  0  0  0  0
  150.2265  140.1626  156.1539 C   0  0  0  0  0  0  0  0  0  0  0  0
  150.7845  141.5501  155.9260 C   0  0  0  0  0  0  0  0  0  0  0  0
  151.0225  140.8449  157.2433 C   0  0  0  0  0  0  0  0  0  0  0  0
  150.4387  139.7848  153.4133 H   0  0  0  0  0  0  0  0  0  0  0  0
  149.0518  138.8835  153.9966 H   0  0  0  0  0  0  0  0  0  0  0  0
  150.4807  138.0277  153.4251 H   0  0  0  0  0  0  0  0  0  0  0  0
  149.9792  137.7614  156.9734 H   0  0  0  0  0  0  0  0  0  0  0  0
  150.9189  135.2905  157.5157 H   0  0  0  0  0  0  0  0  0  0  0  0
  149.2764  135.5203  156.9667 H   0  0  0  0  0  0  0  0  0  0  0  0
  149.2048  134.4550  154.2594 H   0  0  0  0  0  0  0  0  0  0  0  0
  150.9299  128.7709  156.7749 H   0  0  0  0  0  0  0  0  0  0  0  0
  149.4977  129.7785  156.7787 H   0  0  0  0  0  0  0  0  0  0  0  0
  150.9382  130.2999  157.6435 H   0  0  0  0  0  0  0  0  0  0  0  0
  153.1120  130.8296  156.3272 H   0  0  0  0  0  0  0  0  0  0  0  0
  153.0848  130.8466  154.5632 H   0  0  0  0  0  0  0  0  0  0  0  0
  152.9493  129.3305  155.4332 H   0  0  0  0  0  0  0  0  0  0  0  0
  150.8936  128.7955  154.1427 H   0  0  0  0  0  0  0  0  0  0  0  0
  150.8727  130.3401  153.3033 H   0  0  0  0  0  0  0  0  0  0  0  0
  149.4601  129.7990  154.2019 H   0  0  0  0  0  0  0  0  0  0  0  0
  149.1507  140.1418  156.3157 H   0  0  0  0  0  0  0  0  0  0  0  0
  151.6345  141.6645  155.2567 H   0  0  0  0  0  0  0  0  0  0  0  0
  150.0785  142.3780  155.9211 H   0  0  0  0  0  0  0  0  0  0  0  0
  150.4735  141.2031  158.1116 H   0  0  0  0  0  0  0  0  0  0  0  0
  152.0295  140.4878  157.4482 H   0  0  0  0  0  0  0  0  0  0  0  0
  1  2  1  0  0  0  0
  1 22  1  0  0  0  0
  1 23  1  0  0  0  0
  1 24  1  0  0  0  0
  2  3  1  0  0  0  0
  2  5  1  0  0  0  0
  2 19  1  0  0  0  0
  3  4  3  0  0  0  0
  5  6  1  0  0  0  0
  5 25  1  0  0  0  0
  6  7  2  0  0  0  0
  6  8  1  0  0  0  0
  8  9  1  0  0  0  0
  8 26  1  0  0  0  0
  8 27  1  0  0  0  0
  9 17  1  0  0  0  0
  9 10  1  0  0  0  0
 10 11  2  0  0  0  0
 10 28  1  0  0  0  0
 11 12  1  0  0  0  0
 12 13  1  0  0  0  0
 12 17  1  0  0  0  0
 13 14  1  0  0  0  0
 13 15  1  0  0  0  0
 13 16  1  0  0  0  0
 14 29  1  0  0  0  0
 14 30  1  0  0  0  0
 14 31  1  0  0  0  0
 15 32  1  0  0  0  0
 15 33  1  0  0  0  0
 15 34  1  0  0  0  0
 16 35  1  0  0  0  0
 16 36  1  0  0  0  0
 16 37  1  0  0  0  0
 17 18  2  0  0  0  0
 19 21  1  0  0  0  0
 19 20  1  0  0  0  0
 19 38  1  0  0  0  0
 20 21  1  0  0  0  0
 20 39  1  0  0  0  0
 20 40  1  0  0  0  0
 21 41  1  0  0  0  0
 21 42  1  0  0  0  0
M  END
> <s_m_source_file>
AV-unprocessed.smi

> <i_m_source_file_index>
2803

> <i_lp_mmshare_version>
43012

> <i_f3d_flags>
0

> <s_epik_input>
W0NIMl0xW0NIMl1bQ0hdMVtDQF0oW0NIM10pKEMjTilbTkhdQyg9TylbQ0gyXW4yW2NIXW5uKGMyPU8pQyhbQ0gzXSkoW0NIM10pW0NIM10=

> <s_epik_cmdline>
J2VwaWtfcHl0aG9uJywgJy1waCcsICc3LjAnLCAnLXRuJywgJzgnLCAnLW1hJywgJzIwMCcsICctbWV0YWxfYmluZGluZycsICctaW1hZScsICc8aW5maWxlLm1hZT4nLCAnLW9tYWUnLCAnPG91dGZpbGUubWFlPic=

> <r_lp_tautomer_probability>
1

> <r_epik_Ionization_Penalty>
4.88615e-06

> <r_epik_Ionization_Penalty_Charging>
4.80261e-08

> <r_epik_Ionization_Penalty_Neutral>
4.83813e-06

> <r_epik_State_Penalty>
-0

> <r_epik_Charging_Adjusted_Penalty>
4.80261e-08

> <i_epik_Tot_Q>
0

> <i_epik_Tot_abs_Q>
0

> <r_epik_Metal_State_Penalty>
-0

> <b_epik_Metal_Only>
0

> <s_lp_Force_Field>
OPLS_2005

> <r_lp_Energy>
31.1455

> <b_lp_Chiralities_Consistent>
1

> <s_lp_Variant>
AV-unprocessed.smi:2803-2

> <Gold.Version>
5.8.1

> <Gold.Id.Protein>
6NUR|6NUR_protein|mol2

> <Gold.PLP.Fitness>
43.1117

> <Gold.PLP.PLP>
-34.6135

> <Gold.PLP.part.hbond>
-3.0000

> <Gold.PLP.part.metal>
0.0000

> <Gold.PLP.part.buried>
-5.5610

> <Gold.PLP.part.nonpolar>
-26.6371

> <Gold.PLP.part.repulsive>
0.2239

> <Gold.PLP.ligand.clash>
0.0000

> <Gold.PLP.ligand.torsion>
0.9822

> <Gold.PLP.Chemscore.Hbond>
2.9760

> <Gold.PLP.Chemscore.CHOScore>
0.0000

> <Gold.PLP.Chemscore.Metal>
0.0000

> <Gold.Chemscore.Hbonds>
donor molecule, donor type, donor heavy atom, donor atom, acceptor molecule, acceptor atom, score
      P1  H  6896  6909       L1    18  0.94
      P1  H  7997  8008       L1     4  1.00
      P1  H 10752 10763       L1     7  1.00

> <Gold.PLP.Chemscore.Internal.Correction>
1.5346

> <Gold.Rescore>
     Score         DG    S(hbond)    S(metal)    S(lipo)     H(rot)  DE(clash)    DE(int)     intcor
     14.12     -16.22       2.85        0.00      55.21       2.05       0.07       2.03       ----

> <Gold.Chemscore.Fitness>
14.1172

> <Gold.Chemscore.DG>
-16.2208

> <Gold.Chemscore.ZeroCoef>
-5.4800

> <Gold.Chemscore.Hbond>
2.8496

> <Gold.Chemscore.Metal>
0.0000

> <Gold.Chemscore.Lipo>
55.2136

> <Gold.Chemscore.Internal_Hbond>
0.0000

> <Gold.Chemscore.DEClash>
0.0750

> <Gold.Chemscore.DEInternal>
2.0287

> <Gold.Chemscore.Rot>
2.0457

> <Gold.Chemscore.Internal.Correction>
   9.000000E+99

> <Gold.Chemscore.Hbonds>
donor molecule, donor type, donor heavy atom, donor atom, acceptor molecule, acceptor atom, score
      P1  H  6896  6909       L1    18  0.91
      P1  H  7997  8008       L1     4  0.98
      P1  H 10752 10763       L1     7  1.00

> <Gold.Chemscore.Hbond.Weighted>
-9.5178

> <Gold.Chemscore.Metal.Weighted>
-0.0000

> <Gold.Chemscore.Lipo.Weighted>
-6.4600

> <Gold.Chemscore.Internal_Hbond.Weighted>
0.0000

> <Gold.Chemscore.DEClash.Weighted>
0.0750

> <Gold.Chemscore.DEInternal.Weighted>
2.0287

> <Gold.Chemscore.Rot.Weighted>
5.2370

> <Gold.Chemscore.Internal.Correction.Weighted>
   9.000000E+99

> <Gold.Protein.RotatedTorsions>
[ 6907 6896 6895 6894 ] final  -58.70 input  -60.11 | X-H torsion
[ 7974 7965 7964 7962 ] final -102.39 input  175.53 | X-H torsion
[ 8008 7997 7996 7995 ] final  -26.98 input   59.86 | X-H torsion
[ 10167 10162 10161 10158 ] final  168.78 input  -65.29 | X-H torsion
[ 10718 10713 10712 10709 ] final   -1.95 input   66.30 | X-H torsion
[ 10763 10752 10751 10750 ] final   40.70 input  -60.55 | X-H torsion
[ 11005 11000 10999 10996 ] final  105.77 input  -57.11 | X-H torsion

> <Gold.Protein.ActiveResidues>
 VAL166  LYS551  ARG553  GLY616  TRP617  ASP618  TYR619  PRO620  LYS621  CYS622 
 ASP623  PHE694  ASN695  SER759  ASP760  ASP761  ALA762  ILE779  LEU786  VAL792 
 PHE793  MET794  SER795  GLU796  ALA797  LYS798  CYS799  TRP800  GLU811  SER814 

> <Gold.Protein.RotatedAtoms>
  150.7987  134.7064  159.6578 H   0  0  0  0  0  0  0  0  0  0  0  0  # atno 6907 bound_to 6896
  152.4101  134.6135  160.0042 H   0  0  0  0  0  0  0  0  0  0  0  0  # atno 6908 bound_to 6896
  151.6381  133.3291  159.3160 H   0  0  0  0  0  0  0  0  0  0  0  0  # atno 6909 bound_to 6896
  145.2693  140.9294  143.2995 H   0  0  0  0  0  0  0  0  0  0  0  0  # atno 7974 bound_to 7965
  154.4399  140.1884  156.0861 H   0  0  0  0  0  0  0  0  0  0  0  0  # atno 8008 bound_to 7997
  156.0402  140.3320  155.7209 H   0  0  0  0  0  0  0  0  0  0  0  0  # atno 8009 bound_to 7997
  155.5711  140.0612  157.2797 H   0  0  0  0  0  0  0  0  0  0  0  0  # atno 8010 bound_to 7997
  139.4976  144.3778  151.9655 H   0  0  0  0  0  0  0  0  0  0  0  0  # atno 10167 bound_to 10162
  156.7980  130.5383  149.5726 H   0  0  0  0  0  0  0  0  0  0  0  0  # atno 10718 bound_to 10713
  152.9929  135.6183  154.2669 H   0  0  0  0  0  0  0  0  0  0  0  0  # atno 10763 bound_to 10752
  154.2403  135.2789  155.2858 H   0  0  0  0  0  0  0  0  0  0  0  0  # atno 10764 bound_to 10752
  154.5375  135.5770  153.6868 H   0  0  0  0  0  0  0  0  0  0  0  0  # atno 10765 bound_to 10752
  139.8806  134.9347  156.5564 H   0  0  0  0  0  0  0  0  0  0  0  0  # atno 11005 bound_to 11000
  144.9349  139.4256  143.6477 LP  0  0  0  0  0  0  0  0  0  0  0  0  # atno 17320 bound_to 7965
  146.3251  139.8279  142.8914 LP  0  0  0  0  0  0  0  0  0  0  0  0  # atno 17321 bound_to 7965
  140.3214  144.3423  150.6008 LP  0  0  0  0  0  0  0  0  0  0  0  0  # atno 17342 bound_to 10162
  140.5719  143.2180  151.7583 LP  0  0  0  0  0  0  0  0  0  0  0  0  # atno 17343 bound_to 10162
  156.1118  130.6046  151.0060 LP  0  0  0  0  0  0  0  0  0  0  0  0  # atno 17370 bound_to 10713
  157.6568  131.0888  150.7929 LP  0  0  0  0  0  0  0  0  0  0  0  0  # atno 17371 bound_to 10713
  140.8201  133.8360  155.8888 LP  0  0  0  0  0  0  0  0  0  0  0  0  # atno 17394 bound_to 11000
  140.9426  134.1882  157.4787 LP  0  0  0  0  0  0  0  0  0  0  0  0  # atno 17395 bound_to 11000

$$$$
