AV-unprocessed.smi:1086|AV-procd|sdf|4724|dock5
  -GOLD-   22720 3253D 1   1.00000     0.00000
 Structure written by MMmdl.
 41 42  0  0  0  0  0  0  0  0  1 V2000
  150.9309  141.8503  157.9904 C   0  0  0  0  0  0  0  0  0  0  0  0
  151.2954  141.4744  156.6667 O   0  0  0  0  0  0  0  0  0  0  0  0
  150.7555  140.3175  156.1430 C   0  0  0  0  0  0  0  0  0  0  0  0
  150.1492  139.3980  157.0218 C   0  0  0  0  0  0  0  0  0  0  0  0
  149.6011  138.2120  156.4963 C   0  0  0  0  0  0  0  0  0  0  0  0
  149.6849  137.9792  155.1027 C   0  0  0  0  0  0  0  0  0  0  0  0
  149.1646  136.8299  154.4484 N   0  0  0  0  0  0  0  0  0  0  0  0
  148.3946  135.8531  154.9577 C   0  0  0  0  0  0  0  0  0  0  0  0
  147.9842  135.7991  156.1169 O   0  0  0  0  0  0  0  0  0  0  0  0
  148.1331  134.9129  154.0374 N   0  0  0  0  0  0  0  0  0  0  0  0
  147.3221  133.7176  154.2645 C   0  0  0  0  0  0  0  0  0  0  0  0
  147.2078  132.8101  153.0245 C   0  0  0  0  0  0  0  0  0  0  0  0
  147.8290  131.7455  153.0035 O   0  0  0  0  0  0  0  0  0  0  0  0
  146.4235  133.2072  151.9928 N   0  0  0  0  0  0  0  0  0  0  0  0
  146.1791  132.4439  150.7612 C   0  0  0  0  0  0  0  0  0  0  0  0
  144.7316  131.9210  150.7862 C   0  0  0  0  0  0  0  0  0  0  0  0
  143.7325  133.0826  150.9519 C   0  0  0  0  0  0  0  0  0  0  0  0
  144.1157  134.0035  152.1268 C   0  0  0  0  0  0  0  0  0  0  0  0
  145.5965  134.4199  152.0459 C   0  0  0  0  0  0  0  0  0  0  0  0
  150.2959  138.9708  154.3078 C   0  0  0  0  0  0  0  0  0  0  0  0
  150.8241  140.1088  154.8051 N   0  0  0  0  0  0  0  0  0  0  0  0
  151.4346  142.7804  158.2532 H   0  0  0  0  0  0  0  0  0  0  0  0
  151.2322  141.0945  158.7172 H   0  0  0  0  0  0  0  0  0  0  0  0
  149.8566  142.0211  158.0750 H   0  0  0  0  0  0  0  0  0  0  0  0
  150.1029  139.6002  158.0817 H   0  0  0  0  0  0  0  0  0  0  0  0
  149.1211  137.5177  157.1680 H   0  0  0  0  0  0  0  0  0  0  0  0
  149.4742  136.6980  153.4967 H   0  0  0  0  0  0  0  0  0  0  0  0
  148.5074  135.0381  153.1083 H   0  0  0  0  0  0  0  0  0  0  0  0
  147.7790  133.1508  155.0760 H   0  0  0  0  0  0  0  0  0  0  0  0
  146.3281  134.0168  154.6011 H   0  0  0  0  0  0  0  0  0  0  0  0
  146.3206  133.0998  149.9010 H   0  0  0  0  0  0  0  0  0  0  0  0
  146.8742  131.6199  150.6079 H   0  0  0  0  0  0  0  0  0  0  0  0
  144.5147  131.3696  149.8710 H   0  0  0  0  0  0  0  0  0  0  0  0
  144.6137  131.2151  151.6097 H   0  0  0  0  0  0  0  0  0  0  0  0
  143.7139  133.6689  150.0324 H   0  0  0  0  0  0  0  0  0  0  0  0
  142.7228  132.6949  151.0904 H   0  0  0  0  0  0  0  0  0  0  0  0
  143.4764  134.8868  152.1329 H   0  0  0  0  0  0  0  0  0  0  0  0
  143.9365  133.4848  153.0697 H   0  0  0  0  0  0  0  0  0  0  0  0
  145.8451  135.0674  152.8878 H   0  0  0  0  0  0  0  0  0  0  0  0
  145.7718  135.0184  151.1509 H   0  0  0  0  0  0  0  0  0  0  0  0
  150.3713  138.8457  153.2374 H   0  0  0  0  0  0  0  0  0  0  0  0
  1  2  1  0  0  0  0
  1 22  1  0  0  0  0
  1 23  1  0  0  0  0
  1 24  1  0  0  0  0
  2  3  1  0  0  0  0
  3 21  1  0  0  0  0
  3  4  2  0  0  0  0
  4  5  1  0  0  0  0
  4 25  1  0  0  0  0
  5  6  2  0  0  0  0
  5 26  1  0  0  0  0
  6  7  1  0  0  0  0
  6 20  1  0  0  0  0
  7  8  1  0  0  0  0
  7 27  1  0  0  0  0
  8  9  2  0  0  0  0
  8 10  1  0  0  0  0
 10 11  1  0  0  0  0
 10 28  1  0  0  0  0
 11 12  1  0  0  0  0
 11 29  1  0  0  0  0
 11 30  1  0  0  0  0
 12 13  2  0  0  0  0
 12 14  1  0  0  0  0
 14 19  1  0  0  0  0
 14 15  1  0  0  0  0
 15 16  1  0  0  0  0
 15 31  1  0  0  0  0
 15 32  1  0  0  0  0
 16 17  1  0  0  0  0
 16 33  1  0  0  0  0
 16 34  1  0  0  0  0
 17 18  1  0  0  0  0
 17 35  1  0  0  0  0
 17 36  1  0  0  0  0
 18 19  1  0  0  0  0
 18 37  1  0  0  0  0
 18 38  1  0  0  0  0
 19 39  1  0  0  0  0
 19 40  1  0  0  0  0
 20 21  2  0  0  0  0
 20 41  1  0  0  0  0
M  END
> <s_m_source_file>
AV-unprocessed.smi

> <i_m_source_file_index>
1086

> <i_lp_mmshare_version>
43012

> <i_f3d_flags>
0

> <s_epik_input>
W0NIM11PYzFbY0hdW2NIXWMoW2NIXW4xKVtOSF1DKD1PKVtOSF1bQ0gyXUMoPU8pTjJbQ0gyXVtDSDJdW0NIMl1bQ0gyXVtDSDJdMg==

> <s_epik_cmdline>
J2VwaWtfcHl0aG9uJywgJy1waCcsICc3LjAnLCAnLXRuJywgJzgnLCAnLW1hJywgJzIwMCcsICctbWV0YWxfYmluZGluZycsICctaW1hZScsICc8aW5maWxlLm1hZT4nLCAnLW9tYWUnLCAnPG91dGZpbGUubWFlPic=

> <r_lp_tautomer_probability>
1

> <r_epik_Ionization_Penalty>
0.0001417

> <r_epik_Ionization_Penalty_Charging>
0

> <r_epik_Ionization_Penalty_Neutral>
0.0001417

> <r_epik_State_Penalty>
-0

> <r_epik_Charging_Adjusted_Penalty>
0

> <i_epik_Tot_Q>
0

> <i_epik_Tot_abs_Q>
0

> <r_epik_Metal_State_Penalty>
-0

> <b_epik_Metal_Only>
0

> <s_lp_Force_Field>
OPLS_2005

> <r_lp_Energy>
23.1479

> <b_lp_Chiralities_Consistent>
1

> <s_lp_Variant>
AV-unprocessed.smi:1086-1

> <Gold.Version>
5.8.1

> <Gold.Id.Protein>
6NUR|6NUR_protein|mol2

> <Gold.PLP.Fitness>
40.4383

> <Gold.PLP.PLP>
-29.8451

> <Gold.PLP.part.hbond>
-3.0000

> <Gold.PLP.part.metal>
0.0000

> <Gold.PLP.part.buried>
-4.4110

> <Gold.PLP.part.nonpolar>
-22.7563

> <Gold.PLP.part.repulsive>
0.2558

> <Gold.PLP.ligand.clash>
0.0000

> <Gold.PLP.ligand.torsion>
0.3778

> <Gold.PLP.Chemscore.Hbond>
2.7760

> <Gold.PLP.Chemscore.CHOScore>
1.0000

> <Gold.PLP.Chemscore.Metal>
0.0000

> <Gold.Chemscore.Hbonds>
donor molecule, donor type, donor heavy atom, donor atom, acceptor molecule, acceptor atom, score
      L1  H     7    27       P1  7948  0.91
      L1  H    10    28       P1  7948  0.93
      P1  H  7989  7998       L1    21  1.00
      L1  C    20    41       P1  7957  1.00

> <Gold.PLP.Chemscore.Internal.Correction>
0.0208

> <Gold.Rescore>
     Score         DG    S(hbond)    S(metal)    S(lipo)     H(rot)  DE(clash)    DE(int)     intcor
     15.39     -16.75       2.42        0.00      61.34       1.55       0.05       1.31       ----

> <Gold.Chemscore.Fitness>
15.3888

> <Gold.Chemscore.DG>
-16.7507

> <Gold.Chemscore.ZeroCoef>
-5.4800

> <Gold.Chemscore.Hbond>
2.4154

> <Gold.Chemscore.Metal>
0.0000

> <Gold.Chemscore.Lipo>
61.3405

> <Gold.Chemscore.Internal_Hbond>
0.0000

> <Gold.Chemscore.DEClash>
0.0473

> <Gold.Chemscore.DEInternal>
1.3146

> <Gold.Chemscore.Rot>
1.5521

> <Gold.Chemscore.Internal.Correction>
   9.000000E+99

> <Gold.Chemscore.Hbonds>
donor molecule, donor type, donor heavy atom, donor atom, acceptor molecule, acceptor atom, score
      L1  H     7    27       P1  7948  0.74
      L1  H    10    28       P1  7948  0.68
      P1  H  7989  7998       L1    21  0.55

> <Gold.Chemscore.Hbond.Weighted>
-8.0673

> <Gold.Chemscore.Metal.Weighted>
-0.0000

> <Gold.Chemscore.Lipo.Weighted>
-7.1768

> <Gold.Chemscore.Internal_Hbond.Weighted>
0.0000

> <Gold.Chemscore.DEClash.Weighted>
0.0473

> <Gold.Chemscore.DEInternal.Weighted>
1.3146

> <Gold.Chemscore.Rot.Weighted>
3.9734

> <Gold.Chemscore.Internal.Correction.Weighted>
   9.000000E+99

> <Gold.Protein.RotatedTorsions>
[ 6907 6896 6895 6894 ] final   74.87 input  -60.11 | X-H torsion
[ 7974 7965 7964 7962 ] final   82.11 input  175.53 | X-H torsion
[ 8008 7997 7996 7995 ] final  105.99 input   59.86 | X-H torsion
[ 10167 10162 10161 10158 ] final  -66.89 input  -65.29 | X-H torsion
[ 10718 10713 10712 10709 ] final   99.34 input   66.30 | X-H torsion
[ 10763 10752 10751 10750 ] final  156.91 input  -60.55 | X-H torsion
[ 11005 11000 10999 10996 ] final  -49.21 input  -57.11 | X-H torsion

> <Gold.Protein.ActiveResidues>
 VAL166  LYS551  ARG553  GLY616  TRP617  ASP618  TYR619  PRO620  LYS621  CYS622 
 ASP623  PHE694  ASN695  SER759  ASP760  ASP761  ALA762  ILE779  LEU786  VAL792 
 PHE793  MET794  SER795  GLU796  ALA797  LYS798  CYS799  TRP800  GLU811  SER814 

> <Gold.Protein.RotatedAtoms>
  152.4998  134.4206  159.9478 H   0  0  0  0  0  0  0  0  0  0  0  0  # atno 6907 bound_to 6896
  151.4178  133.3701  159.2760 H   0  0  0  0  0  0  0  0  0  0  0  0  # atno 6908 bound_to 6896
  150.9244  134.8684  159.7570 H   0  0  0  0  0  0  0  0  0  0  0  0  # atno 6909 bound_to 6896
  145.6293  139.2401  143.2093 H   0  0  0  0  0  0  0  0  0  0  0  0  # atno 7974 bound_to 7965
  156.1705  140.3121  155.8966 H   0  0  0  0  0  0  0  0  0  0  0  0  # atno 8008 bound_to 7997
  155.3596  140.0475  157.3063 H   0  0  0  0  0  0  0  0  0  0  0  0  # atno 8009 bound_to 7997
  154.5237  140.2207  155.8940 H   0  0  0  0  0  0  0  0  0  0  0  0  # atno 8010 bound_to 7997
  140.5623  143.2313  151.6703 H   0  0  0  0  0  0  0  0  0  0  0  0  # atno 10167 bound_to 10162
  157.6878  131.0667  150.4934 H   0  0  0  0  0  0  0  0  0  0  0  0  # atno 10718 bound_to 10713
  154.1918  135.2794  155.3019 H   0  0  0  0  0  0  0  0  0  0  0  0  # atno 10763 bound_to 10752
  154.5923  135.5556  153.7294 H   0  0  0  0  0  0  0  0  0  0  0  0  # atno 10764 bound_to 10752
  153.0110  135.6371  154.2057 H   0  0  0  0  0  0  0  0  0  0  0  0  # atno 10765 bound_to 10752
  141.0746  133.6669  156.3553 H   0  0  0  0  0  0  0  0  0  0  0  0  # atno 11005 bound_to 11000
  146.1369  140.7110  142.9385 LP  0  0  0  0  0  0  0  0  0  0  0  0  # atno 17320 bound_to 7965
  144.7200  140.4340  143.7015 LP  0  0  0  0  0  0  0  0  0  0  0  0  # atno 17321 bound_to 7965
  139.5076  144.3640  152.0534 LP  0  0  0  0  0  0  0  0  0  0  0  0  # atno 17342 bound_to 10162
  140.2768  144.3903  150.6132 LP  0  0  0  0  0  0  0  0  0  0  0  0  # atno 17343 bound_to 10162
  156.5259  130.4173  149.6226 LP  0  0  0  0  0  0  0  0  0  0  0  0  # atno 17370 bound_to 10713
  156.3112  130.7230  151.2123 LP  0  0  0  0  0  0  0  0  0  0  0  0  # atno 17371 bound_to 10713
  140.5601  134.5943  157.5431 LP  0  0  0  0  0  0  0  0  0  0  0  0  # atno 17394 bound_to 11000
  139.9558  134.7537  156.0344 LP  0  0  0  0  0  0  0  0  0  0  0  0  # atno 17395 bound_to 11000

$$$$
