AV-unprocessed.smi:1840|AV-procd|sdf|7488|dock5
  -GOLD-   22720 9183D 1   1.00000     0.00000
 Structure written by MMmdl.
 43 44  0  0  0  0  0  0  0  0  1 V2000
  144.5135  134.8243  153.1103 C   0  0  0  0  0  0  0  0  0  0  0  0
  144.8219  135.9736  152.1320 C   0  0  2  0  0  0  0  0  0  0  0  0
  144.8669  135.5186  150.6587 C   0  0  0  0  0  0  0  0  0  0  0  0
  145.0058  134.0809  150.5103 N   0  0  0  0  0  0  0  0  0  0  0  0
  144.1514  133.1966  149.8853 C   0  0  0  0  0  0  0  0  0  0  0  0
  144.6987  131.9512  150.0030 C   0  0  0  0  0  0  0  0  0  0  0  0
  145.9012  132.1778  150.7288 C   0  0  0  0  0  0  0  0  0  0  0  0
  146.0800  133.4526  151.0353 N   0  0  0  0  0  0  0  0  0  0  0  0
  146.0960  136.5987  152.4766 N   0  0  0  0  0  0  0  0  0  0  0  0
  146.2562  137.6113  153.3404 C   0  0  0  0  0  0  0  0  0  0  0  0
  145.3321  138.1531  153.9470 O   0  0  0  0  0  0  0  0  0  0  0  0
  147.5471  137.9498  153.4692 N   0  0  0  0  0  0  0  0  0  0  0  0
  148.0762  138.9884  154.3520 C   0  0  2  0  0  0  0  0  0  0  0  0
  147.4058  140.3322  154.0042 C   0  0  0  0  0  0  0  0  0  0  0  0
  147.9689  141.4825  154.8513 C   0  0  0  0  0  0  0  0  0  0  0  0
  149.4932  141.5794  154.7022 C   0  0  0  0  0  0  0  0  0  0  0  0
  150.1680  140.2472  155.0629 C   0  0  0  0  0  0  0  0  0  0  0  0
  149.6180  139.0757  154.2240 C   0  0  1  0  0  0  0  0  0  0  0  0
  150.3162  137.7590  154.6099 C   0  0  0  0  0  0  0  0  0  0  0  0
  143.5331  134.3879  152.9183 H   0  0  0  0  0  0  0  0  0  0  0  0
  144.5104  135.1741  154.1432 H   0  0  0  0  0  0  0  0  0  0  0  0
  145.2545  134.0284  153.0311 H   0  0  0  0  0  0  0  0  0  0  0  0
  144.0314  136.7209  152.2259 H   0  0  0  0  0  0  0  0  0  0  0  0
  143.9600  135.8301  150.1378 H   0  0  0  0  0  0  0  0  0  0  0  0
  145.7012  135.9966  150.1427 H   0  0  0  0  0  0  0  0  0  0  0  0
  143.2376  133.5236  149.4114 H   0  0  0  0  0  0  0  0  0  0  0  0
  144.3006  131.0200  149.6280 H   0  0  0  0  0  0  0  0  0  0  0  0
  146.6437  131.4584  151.0417 H   0  0  0  0  0  0  0  0  0  0  0  0
  146.9196  136.2232  152.0297 H   0  0  0  0  0  0  0  0  0  0  0  0
  148.2241  137.4381  152.9227 H   0  0  0  0  0  0  0  0  0  0  0  0
  147.8384  138.7548  155.3916 H   0  0  0  0  0  0  0  0  0  0  0  0
  147.5548  140.5576  152.9472 H   0  0  0  0  0  0  0  0  0  0  0  0
  146.3278  140.2613  154.1553 H   0  0  0  0  0  0  0  0  0  0  0  0
  147.5047  142.4242  154.5566 H   0  0  0  0  0  0  0  0  0  0  0  0
  147.7120  141.3251  155.8994 H   0  0  0  0  0  0  0  0  0  0  0  0
  149.7458  141.8538  153.6770 H   0  0  0  0  0  0  0  0  0  0  0  0
  149.8785  142.3756  155.3400 H   0  0  0  0  0  0  0  0  0  0  0  0
  151.2451  140.3365  154.9171 H   0  0  0  0  0  0  0  0  0  0  0  0
  150.0177  140.0418  156.1237 H   0  0  0  0  0  0  0  0  0  0  0  0
  149.8602  139.2793  153.1796 H   0  0  0  0  0  0  0  0  0  0  0  0
  150.0798  137.4722  155.6350 H   0  0  0  0  0  0  0  0  0  0  0  0
  151.3997  137.8523  154.5322 H   0  0  0  0  0  0  0  0  0  0  0  0
  150.0165  136.9379  153.9585 H   0  0  0  0  0  0  0  0  0  0  0  0
  1  2  1  0  0  0  0
  1 20  1  0  0  0  0
  1 21  1  0  0  0  0
  1 22  1  0  0  0  0
  2  3  1  0  0  0  0
  2  9  1  0  0  0  0
  2 23  1  0  0  0  0
  3  4  1  0  0  0  0
  3 24  1  0  0  0  0
  3 25  1  0  0  0  0
  4  8  1  0  0  0  0
  4  5  1  0  0  0  0
  5  6  2  0  0  0  0
  5 26  1  0  0  0  0
  6  7  1  0  0  0  0
  6 27  1  0  0  0  0
  7  8  2  0  0  0  0
  7 28  1  0  0  0  0
  9 10  1  0  0  0  0
  9 29  1  0  0  0  0
 10 11  2  0  0  0  0
 10 12  1  0  0  0  0
 12 13  1  0  0  0  0
 12 30  1  0  0  0  0
 13 18  1  0  0  0  0
 13 14  1  0  0  0  0
 13 31  1  0  0  0  0
 14 15  1  0  0  0  0
 14 32  1  0  0  0  0
 14 33  1  0  0  0  0
 15 16  1  0  0  0  0
 15 34  1  0  0  0  0
 15 35  1  0  0  0  0
 16 17  1  0  0  0  0
 16 36  1  0  0  0  0
 16 37  1  0  0  0  0
 17 18  1  0  0  0  0
 17 38  1  0  0  0  0
 17 39  1  0  0  0  0
 18 19  1  0  0  0  0
 18 40  1  0  0  0  0
 19 41  1  0  0  0  0
 19 42  1  0  0  0  0
 19 43  1  0  0  0  0
M  END
> <s_m_source_file>
AV-unprocessed.smi

> <i_m_source_file_index>
1840

> <i_lp_mmshare_version>
43012

> <i_f3d_flags>
0

> <s_epik_input>
bjFbY0hdW2NIXVtjSF1uMVtDSDJdW0NAQEhdKFtDSDNdKVtOSF1DKD1PKVtOSF1bQ0BASF0yW0NIMl1bQ0gyXVtDSDJdW0NIMl1bQ0BIXTJbQ0gzXQ==

> <s_epik_cmdline>
J2VwaWtfcHl0aG9uJywgJy1waCcsICc3LjAnLCAnLXRuJywgJzgnLCAnLW1hJywgJzIwMCcsICctbWV0YWxfYmluZGluZycsICctaW1hZScsICc8aW5maWxlLm1hZT4nLCAnLW9tYWUnLCAnPG91dGZpbGUubWFlPic=

> <r_lp_tautomer_probability>
1

> <r_epik_Ionization_Penalty>
7.38659e-05

> <r_epik_Ionization_Penalty_Charging>
0

> <r_epik_Ionization_Penalty_Neutral>
7.38659e-05

> <r_epik_State_Penalty>
-0

> <r_epik_Charging_Adjusted_Penalty>
0

> <i_epik_Tot_Q>
0

> <i_epik_Tot_abs_Q>
0

> <r_epik_Metal_State_Penalty>
-0

> <b_epik_Metal_Only>
0

> <s_lp_Force_Field>
OPLS_2005

> <r_lp_Energy>
8.70276

> <b_lp_Chiralities_Consistent>
1

> <s_lp_Variant>
AV-unprocessed.smi:1840-1

> <Gold.Version>
5.8.1

> <Gold.Id.Protein>
6NUR|6NUR_protein|mol2

> <Gold.PLP.Fitness>
43.8664

> <Gold.PLP.PLP>
-33.8663

> <Gold.PLP.part.hbond>
-2.0000

> <Gold.PLP.part.metal>
0.0000

> <Gold.PLP.part.buried>
-2.9529

> <Gold.PLP.part.nonpolar>
-29.5665

> <Gold.PLP.part.repulsive>
0.3640

> <Gold.PLP.ligand.clash>
0.0000

> <Gold.PLP.ligand.torsion>
1.0010

> <Gold.PLP.Chemscore.Hbond>
1.9920

> <Gold.PLP.Chemscore.CHOScore>
2.0000

> <Gold.PLP.Chemscore.Metal>
0.0000

> <Gold.Chemscore.Hbonds>
donor molecule, donor type, donor heavy atom, donor atom, acceptor molecule, acceptor atom, score
      L1  H     9    29       P1  7948  0.99
      L1  H    12    30       P1  7948  1.00
      L1  C     5    26       P1 10186  1.00
      L1  C     7    28       P1 10747  1.00

> <Gold.PLP.Chemscore.Internal.Correction>
0.0260

> <Gold.Rescore>
     Score         DG    S(hbond)    S(metal)    S(lipo)     H(rot)  DE(clash)    DE(int)     intcor
     15.07     -18.41       1.94        0.00      89.10       1.56       0.15       3.20       ----

> <Gold.Chemscore.Fitness>
15.0696

> <Gold.Chemscore.DG>
-18.4108

> <Gold.Chemscore.ZeroCoef>
-5.4800

> <Gold.Chemscore.Hbond>
1.9442

> <Gold.Chemscore.Metal>
0.0000

> <Gold.Chemscore.Lipo>
89.1006

> <Gold.Chemscore.Internal_Hbond>
0.0000

> <Gold.Chemscore.DEClash>
0.1462

> <Gold.Chemscore.DEInternal>
3.1950

> <Gold.Chemscore.Rot>
1.5576

> <Gold.Chemscore.Internal.Correction>
   9.000000E+99

> <Gold.Chemscore.Hbonds>
donor molecule, donor type, donor heavy atom, donor atom, acceptor molecule, acceptor atom, score
      L1  H     9    29       P1  7948  0.88
      L1  H    12    30       P1  7948  1.00

> <Gold.Chemscore.Hbond.Weighted>
-6.4935

> <Gold.Chemscore.Metal.Weighted>
-0.0000

> <Gold.Chemscore.Lipo.Weighted>
-10.4248

> <Gold.Chemscore.Internal_Hbond.Weighted>
0.0000

> <Gold.Chemscore.DEClash.Weighted>
0.1462

> <Gold.Chemscore.DEInternal.Weighted>
3.1950

> <Gold.Chemscore.Rot.Weighted>
3.9875

> <Gold.Chemscore.Internal.Correction.Weighted>
   9.000000E+99

> <Gold.Protein.RotatedTorsions>
[ 6907 6896 6895 6894 ] final  119.44 input  -60.11 | X-H torsion
[ 7974 7965 7964 7962 ] final -135.86 input  175.53 | X-H torsion
[ 8008 7997 7996 7995 ] final  150.26 input   59.86 | X-H torsion
[ 10167 10162 10161 10158 ] final  -80.34 input  -65.29 | X-H torsion
[ 10718 10713 10712 10709 ] final -160.47 input   66.30 | X-H torsion
[ 10763 10752 10751 10750 ] final -144.35 input  -60.55 | X-H torsion
[ 11005 11000 10999 10996 ] final  -96.85 input  -57.11 | X-H torsion

> <Gold.Protein.ActiveResidues>
 VAL166  LYS551  ARG553  GLY616  TRP617  ASP618  TYR619  PRO620  LYS621  CYS622 
 ASP623  PHE694  ASN695  SER759  ASP760  ASP761  ALA762  ILE779  LEU786  VAL792 
 PHE793  MET794  SER795  GLU796  ALA797  LYS798  CYS799  TRP800  GLU811  SER814 

> <Gold.Protein.RotatedAtoms>
  152.4472  133.7558  159.6719 H   0  0  0  0  0  0  0  0  0  0  0  0  # atno 6907 bound_to 6896
  150.8374  133.7981  159.3080 H   0  0  0  0  0  0  0  0  0  0  0  0  # atno 6908 bound_to 6896
  151.5616  135.1068  160.0026 H   0  0  0  0  0  0  0  0  0  0  0  0  # atno 6909 bound_to 6896
  144.8977  140.6729  143.5105 H   0  0  0  0  0  0  0  0  0  0  0  0  # atno 7974 bound_to 7965
  156.2723  140.2079  156.5988 H   0  0  0  0  0  0  0  0  0  0  0  0  # atno 8008 bound_to 7997
  154.6923  140.0529  157.0399 H   0  0  0  0  0  0  0  0  0  0  0  0  # atno 8009 bound_to 7997
  155.0849  140.3190  155.4593 H   0  0  0  0  0  0  0  0  0  0  0  0  # atno 8010 bound_to 7997
  140.4512  143.2482  151.8486 H   0  0  0  0  0  0  0  0  0  0  0  0  # atno 10167 bound_to 10162
  156.5826  130.8736  151.2868 H   0  0  0  0  0  0  0  0  0  0  0  0  # atno 10718 bound_to 10713
  154.8432  135.3443  154.6332 H   0  0  0  0  0  0  0  0  0  0  0  0  # atno 10763 bound_to 10752
  153.6942  135.6973  153.5086 H   0  0  0  0  0  0  0  0  0  0  0  0  # atno 10764 bound_to 10752
  153.2572  135.4334  155.0812 H   0  0  0  0  0  0  0  0  0  0  0  0  # atno 10765 bound_to 10752
  141.1398  133.8128  157.0627 H   0  0  0  0  0  0  0  0  0  0  0  0  # atno 11005 bound_to 11000
  145.3671  139.1667  143.4352 LP  0  0  0  0  0  0  0  0  0  0  0  0  # atno 17320 bound_to 7965
  146.3090  140.3740  142.8677 LP  0  0  0  0  0  0  0  0  0  0  0  0  # atno 17321 bound_to 7965
  139.4797  144.5118  151.8922 LP  0  0  0  0  0  0  0  0  0  0  0  0  # atno 17342 bound_to 10162
  140.4205  144.2249  150.5887 LP  0  0  0  0  0  0  0  0  0  0  0  0  # atno 17343 bound_to 10162
  157.7323  130.9713  150.1921 LP  0  0  0  0  0  0  0  0  0  0  0  0  # atno 17370 bound_to 10713
  156.2618  130.3712  149.8122 LP  0  0  0  0  0  0  0  0  0  0  0  0  # atno 17371 bound_to 10713
  140.0561  134.9780  157.1223 LP  0  0  0  0  0  0  0  0  0  0  0  0  # atno 17394 bound_to 11000
  140.3917  134.2177  155.7166 LP  0  0  0  0  0  0  0  0  0  0  0  0  # atno 17395 bound_to 11000

$$$$
