AV-unprocessed.smi:158|AV-procd|sdf|1325|dock7
  -GOLD-   2262019 23D 1   1.00000     0.00000
 Structure written by MMmdl.
 31 33  0  0  0  0  0  0  0  0  1 V2000
  144.5117  133.8755  155.4758 N   0  0  0  0  0  0  0  0  0  0  0  0
  145.0551  134.8294  154.7071 C   0  0  0  0  0  0  0  0  0  0  0  0
  144.6793  134.9021  153.4091 N   0  0  0  0  0  0  0  0  0  0  0  0
  145.1987  135.8394  152.6068 C   0  0  0  0  0  0  0  0  0  0  0  0
  144.6503  135.8409  150.9725 Cl  0  0  0  0  0  0  0  0  0  0  0  0
  146.0961  136.7763  152.9300 N   0  0  0  0  0  0  0  0  0  0  0  0
  146.4777  136.7067  154.2386 C   0  0  0  0  0  0  0  0  0  0  0  0
  146.0041  135.7635  155.1892 C   0  0  0  0  0  0  0  0  0  0  0  0
  146.6074  135.9860  156.4196 N   0  0  0  0  0  0  0  0  0  0  0  0
  147.3953  137.0052  156.2023 C   0  0  0  0  0  0  0  0  0  0  0  0
  147.3810  137.5008  154.9168 N   0  0  0  0  0  0  0  0  0  0  0  0
  148.1705  138.6501  154.3739 C   0  0  2  0  0  0  0  0  0  0  0  0
  149.0953  139.0695  155.3326 O   0  0  0  0  0  0  0  0  0  0  0  0
  148.9626  140.4694  155.5710 C   0  0  1  0  0  0  0  0  0  0  0  0
  150.3303  141.1074  155.8688 C   0  0  0  0  0  0  0  0  0  0  0  0
  150.1681  142.2849  156.6308 O   0  0  0  0  0  0  0  0  0  0  0  0
  148.1869  141.0175  154.3625 C   0  0  1  0  0  0  0  0  0  0  0  0
  149.0300  141.3465  153.2741 O   0  0  0  0  0  0  0  0  0  0  0  0
  147.2854  139.8514  154.0092 C   0  0  2  0  0  0  0  0  0  0  0  0
  146.1860  139.8859  154.7662 F   0  0  0  0  0  0  0  0  0  0  0  0
  148.7069  138.2450  153.5151 H   0  0  0  0  0  0  0  0  0  0  0  0
  148.3291  140.5698  156.4539 H   0  0  0  0  0  0  0  0  0  0  0  0
  147.6148  141.9087  154.6235 H   0  0  0  0  0  0  0  0  0  0  0  0
  146.9723  139.8175  152.9651 H   0  0  0  0  0  0  0  0  0  0  0  0
  144.7774  133.8014  156.4475 H   0  0  0  0  0  0  0  0  0  0  0  0
  143.8415  133.2311  155.0824 H   0  0  0  0  0  0  0  0  0  0  0  0
  148.0153  137.4261  156.9804 H   0  0  0  0  0  0  0  0  0  0  0  0
  150.9456  140.4121  156.4402 H   0  0  0  0  0  0  0  0  0  0  0  0
  150.8756  141.3334  154.9523 H   0  0  0  0  0  0  0  0  0  0  0  0
  149.5733  142.8592  156.1728 H   0  0  0  0  0  0  0  0  0  0  0  0
  148.8834  140.7168  152.5843 H   0  0  0  0  0  0  0  0  0  0  0  0
  1  2  1  0  0  0  0
  1 25  1  0  0  0  0
  1 26  1  0  0  0  0
  2  8  1  0  0  0  0
  2  3  2  0  0  0  0
  3  4  1  0  0  0  0
  4  5  1  0  0  0  0
  4  6  2  0  0  0  0
  6  7  1  0  0  0  0
  7 11  1  0  0  0  0
  7  8  2  0  0  0  0
  8  9  1  0  0  0  0
  9 10  2  0  0  0  0
 10 11  1  0  0  0  0
 10 27  1  0  0  0  0
 11 12  1  0  0  0  0
 12 21  1  0  0  0  0
 12 19  1  0  0  0  0
 12 13  1  0  0  0  0
 13 14  1  0  0  0  0
 14 22  1  0  0  0  0
 14 15  1  0  0  0  0
 14 17  1  0  0  0  0
 15 16  1  0  0  0  0
 15 28  1  0  0  0  0
 15 29  1  0  0  0  0
 16 30  1  0  0  0  0
 17 23  1  0  0  0  0
 17 18  1  0  0  0  0
 17 19  1  0  0  0  0
 18 31  1  0  0  0  0
 19 24  1  0  0  0  0
 19 20  1  0  0  0  0
M  END
> <s_m_source_file>
AV-unprocessed.smi

> <i_m_source_file_index>
158

> <i_lp_mmshare_version>
43012

> <i_f3d_flags>
0

> <s_epik_input>
Q2xjKG4xKW5jKFtOSDJdKWMoYzEyKW5bY0hdbjJbQ0BASF0zT1tDQEhdKFtDSDJdW09IXSlbQ0BASF0oW09IXSlbQ0BASF0zRg==

> <s_epik_cmdline>
J2VwaWtfcHl0aG9uJywgJy1waCcsICc3LjAnLCAnLXRuJywgJzgnLCAnLW1hJywgJzIwMCcsICctbWV0YWxfYmluZGluZycsICctaW1hZScsICc8aW5maWxlLm1hZT4nLCAnLW9tYWUnLCAnPG91dGZpbGUubWFlPic=

> <r_lp_tautomer_probability>
1

> <r_epik_Ionization_Penalty>
6.51543e-05

> <r_epik_Ionization_Penalty_Charging>
0

> <r_epik_Ionization_Penalty_Neutral>
6.51543e-05

> <r_epik_State_Penalty>
-0

> <r_epik_Charging_Adjusted_Penalty>
0

> <i_epik_Tot_Q>
0

> <i_epik_Tot_abs_Q>
0

> <r_epik_Metal_State_Penalty>
-0

> <b_epik_Metal_Only>
0

> <s_epik_Chemistry_Notes>
This compound contains an acetal/aminal-like group ( X-CH(R)-Y where X, Y are N, S, or O) that may be acid/base labile, releasing an aldehyde.

> <s_lp_Force_Field>
OPLS_2005

> <r_lp_Energy>
35.164

> <b_lp_Chiralities_Consistent>
1

> <s_lp_Variant>
AV-unprocessed.smi:158-3

> <Gold.Version>
5.8.1

> <Gold.Id.Protein>
6NUR|6NUR_protein|mol2

> <Gold.PLP.Fitness>
30.7257

> <Gold.PLP.PLP>
-19.8278

> <Gold.PLP.part.hbond>
-4.5177

> <Gold.PLP.part.metal>
0.0000

> <Gold.PLP.part.buried>
-4.2087

> <Gold.PLP.part.nonpolar>
-12.8449

> <Gold.PLP.part.repulsive>
1.2897

> <Gold.PLP.ligand.clash>
0.0000

> <Gold.PLP.ligand.torsion>
0.3848

> <Gold.PLP.Chemscore.Hbond>
3.8890

> <Gold.PLP.Chemscore.CHOScore>
0.0000

> <Gold.PLP.Chemscore.Metal>
0.0000

> <Gold.Chemscore.Hbonds>
donor molecule, donor type, donor heavy atom, donor atom, acceptor molecule, acceptor atom, score
      L1  H     1    26       P1 10957  1.00
      L1  H    16    30       P1  8028  0.96
      L1  H    18    31       P1  7957  0.85
      P1  H  8011  8017       L1    18  0.74

> <Gold.PLP.Chemscore.Internal.Correction>
0.0004

> <Gold.Rescore>
     Score         DG    S(hbond)    S(metal)    S(lipo)     H(rot)  DE(clash)    DE(int)     intcor
     10.88     -11.36       3.05        0.00      31.64       3.12       0.14       0.34       ----

> <Gold.Chemscore.Fitness>
10.8810

> <Gold.Chemscore.DG>
-11.3627

> <Gold.Chemscore.ZeroCoef>
-5.4800

> <Gold.Chemscore.Hbond>
3.0466

> <Gold.Chemscore.Metal>
0.0000

> <Gold.Chemscore.Lipo>
31.6404

> <Gold.Chemscore.Internal_Hbond>
0.0000

> <Gold.Chemscore.DEClash>
0.1376

> <Gold.Chemscore.DEInternal>
0.3442

> <Gold.Chemscore.Rot>
3.1230

> <Gold.Chemscore.Internal.Correction>
   9.000000E+99

> <Gold.Chemscore.Hbonds>
donor molecule, donor type, donor heavy atom, donor atom, acceptor molecule, acceptor atom, score
      L1  H     1    26       P1 10957  1.00
      L1  H    16    30       P1  8028  0.87
      L1  H    18    31       P1  7957  0.83
      P1  H  8011  8017       L1    18  0.09

> <Gold.Chemscore.Hbond.Weighted>
-10.1758

> <Gold.Chemscore.Metal.Weighted>
-0.0000

> <Gold.Chemscore.Lipo.Weighted>
-3.7019

> <Gold.Chemscore.Internal_Hbond.Weighted>
0.0000

> <Gold.Chemscore.DEClash.Weighted>
0.1376

> <Gold.Chemscore.DEInternal.Weighted>
0.3442

> <Gold.Chemscore.Rot.Weighted>
7.9950

> <Gold.Chemscore.Internal.Correction.Weighted>
   9.000000E+99

> <Gold.Protein.RotatedTorsions>
[ 6907 6896 6895 6894 ] final  -55.33 input  -60.11 | X-H torsion
[ 7974 7965 7964 7962 ] final   75.66 input  175.53 | X-H torsion
[ 8008 7997 7996 7995 ] final -155.37 input   59.86 | X-H torsion
[ 10167 10162 10161 10158 ] final   32.52 input  -65.29 | X-H torsion
[ 10718 10713 10712 10709 ] final  170.78 input   66.30 | X-H torsion
[ 10763 10752 10751 10750 ] final   51.26 input  -60.55 | X-H torsion
[ 11005 11000 10999 10996 ] final   40.65 input  -57.11 | X-H torsion

> <Gold.Protein.ActiveResidues>
 VAL166  LYS551  ARG553  GLY616  TRP617  ASP618  TYR619  PRO620  LYS621  CYS622 
 ASP623  PHE694  ASN695  SER759  ASP760  ASP761  ALA762  ILE779  LEU786  VAL792 
 PHE793  MET794  SER795  GLU796  ALA797  LYS798  CYS799  TRP800  GLU811  SER814 

> <Gold.Protein.RotatedAtoms>
  150.8261  134.7492  159.6813 H   0  0  0  0  0  0  0  0  0  0  0  0  # atno 6907 bound_to 6896
  152.4372  134.5660  159.9917 H   0  0  0  0  0  0  0  0  0  0  0  0  # atno 6908 bound_to 6896
  151.5832  133.3337  159.3048 H   0  0  0  0  0  0  0  0  0  0  0  0  # atno 6909 bound_to 6896
  145.7128  139.2620  143.1641 H   0  0  0  0  0  0  0  0  0  0  0  0  # atno 7974 bound_to 7965
  155.7007  140.0766  157.2411 H   0  0  0  0  0  0  0  0  0  0  0  0  # atno 8008 bound_to 7997
  154.4073  140.1648  156.2241 H   0  0  0  0  0  0  0  0  0  0  0  0  # atno 8009 bound_to 7997
  155.9370  140.3387  155.6299 H   0  0  0  0  0  0  0  0  0  0  0  0  # atno 8010 bound_to 7997
  140.4491  144.1075  150.6188 H   0  0  0  0  0  0  0  0  0  0  0  0  # atno 10167 bound_to 10162
  157.0031  131.0182  151.2825 H   0  0  0  0  0  0  0  0  0  0  0  0  # atno 10718 bound_to 10713
  152.9785  135.5852  154.4387 H   0  0  0  0  0  0  0  0  0  0  0  0  # atno 10763 bound_to 10752
  154.3991  135.2768  155.2110 H   0  0  0  0  0  0  0  0  0  0  0  0  # atno 10764 bound_to 10752
  154.3949  135.6117  153.5918 H   0  0  0  0  0  0  0  0  0  0  0  0  # atno 10765 bound_to 10752
  140.1910  134.3986  155.8146 H   0  0  0  0  0  0  0  0  0  0  0  0  # atno 11005 bound_to 11000
  146.0697  140.7882  142.9694 LP  0  0  0  0  0  0  0  0  0  0  0  0  # atno 17320 bound_to 7965
  144.6937  140.3323  143.7214 LP  0  0  0  0  0  0  0  0  0  0  0  0  # atno 17321 bound_to 7965
  140.4229  143.2603  151.9693 LP  0  0  0  0  0  0  0  0  0  0  0  0  # atno 17342 bound_to 10162
  139.4795  144.5815  151.7925 LP  0  0  0  0  0  0  0  0  0  0  0  0  # atno 17343 bound_to 10162
  157.5376  130.8099  149.7990 LP  0  0  0  0  0  0  0  0  0  0  0  0  # atno 17370 bound_to 10713
  156.0164  130.3812  150.2099 LP  0  0  0  0  0  0  0  0  0  0  0  0  # atno 17371 bound_to 10713
  141.2226  133.7046  156.8095 LP  0  0  0  0  0  0  0  0  0  0  0  0  # atno 17394 bound_to 11000
  140.2159  134.8793  157.3325 LP  0  0  0  0  0  0  0  0  0  0  0  0  # atno 17395 bound_to 11000

$$$$
