AV-unprocessed.smi:2209|AV-procd|sdf|8948|dock4
  -GOLD-   2272012163D 1   1.00000     0.00000
 Structure written by MMmdl.
 26 27  0  0  0  0  0  0  0  0  2 V2000
  155.6389  139.5717  160.8055 C   0  0  0  0  0  0  0  0  0  0  0  0
  154.5344  140.2817  160.0994 C   0  0  0  0  0  0  0  0  0  0  0  0
  154.1241  139.8997  158.8962 N   0  0  0  0  0  0  0  0  0  0  0  0
  153.0964  140.8068  158.6009 O   0  0  0  0  0  0  0  0  0  0  0  0
  153.0117  141.6319  159.6721 C   0  0  0  0  0  0  0  0  0  0  0  0
  151.9939  142.7292  159.6623 C   0  0  1  0  0  0  0  0  0  0  0  0
  152.5911  144.0770  160.1094 C   0  0  0  0  0  0  0  0  0  0  0  0
  151.5210  145.1790  160.0727 C   0  0  0  0  0  0  0  0  0  0  0  0
  150.8553  145.2540  158.6886 C   0  0  0  0  0  0  0  0  0  0  0  0
  150.2877  143.9415  158.3100 N   0  3  0  0  0  0  0  0  0  0  0  0
  151.2951  142.8573  158.2933 C   0  0  0  0  0  0  0  0  0  0  0  0
  153.8873  141.3527  160.6357 N   0  0  0  0  0  0  0  0  0  0  0  0
  156.0173  138.7426  160.2066 H   0  0  0  0  0  0  0  0  0  0  0  0
  155.2834  139.1748  161.7566 H   0  0  0  0  0  0  0  0  0  0  0  0
  156.4626  140.2583  161.0023 H   0  0  0  0  0  0  0  0  0  0  0  0
  151.2296  142.4560  160.3920 H   0  0  0  0  0  0  0  0  0  0  0  0
  153.0050  143.9927  161.1150 H   0  0  0  0  0  0  0  0  0  0  0  0
  153.4183  144.3532  159.4541 H   0  0  0  0  0  0  0  0  0  0  0  0
  150.7639  144.9807  160.8326 H   0  0  0  0  0  0  0  0  0  0  0  0
  151.9678  146.1412  160.3250 H   0  0  0  0  0  0  0  0  0  0  0  0
  150.0588  145.9985  158.6918 H   0  0  0  0  0  0  0  0  0  0  0  0
  151.5797  145.5648  157.9344 H   0  0  0  0  0  0  0  0  0  0  0  0
  149.5662  143.7010  158.9750 H   0  0  0  0  0  0  0  0  0  0  0  0
  152.0245  143.0639  157.5086 H   0  0  0  0  0  0  0  0  0  0  0  0
  150.8003  141.9221  158.0296 H   0  0  0  0  0  0  0  0  0  0  0  0
  149.8719  144.0167  157.3925 H   0  0  0  0  0  0  0  0  0  0  0  0
  1  2  1  0  0  0  0
  1 13  1  0  0  0  0
  1 14  1  0  0  0  0
  1 15  1  0  0  0  0
  2 12  1  0  0  0  0
  2  3  2  0  0  0  0
  3  4  1  0  0  0  0
  4  5  1  0  0  0  0
  5  6  1  0  0  0  0
  5 12  2  0  0  0  0
  6 11  1  0  0  0  0
  6  7  1  0  0  0  0
  6 16  1  0  0  0  0
  7  8  1  0  0  0  0
  7 17  1  0  0  0  0
  7 18  1  0  0  0  0
  8  9  1  0  0  0  0
  8 19  1  0  0  0  0
  8 20  1  0  0  0  0
  9 10  1  0  0  0  0
  9 21  1  0  0  0  0
  9 22  1  0  0  0  0
 10 11  1  0  0  0  0
 10 23  1  0  0  0  0
 10 26  1  0  0  0  0
 11 24  1  0  0  0  0
 11 25  1  0  0  0  0
M  CHG  1  10   1
M  END
> <s_m_source_file>
AV-unprocessed.smi

> <i_m_source_file_index>
2209

> <i_lp_mmshare_version>
43012

> <i_f3d_flags>
0

> <s_epik_input>
W0NIM11jMW5vYyhuMSlbQ0BASF0yW0NIMl1bQ0gyXVtDSDJdW05IXVtDSDJdMg==

> <s_epik_cmdline>
J2VwaWtfcHl0aG9uJywgJy1waCcsICc3LjAnLCAnLXRuJywgJzgnLCAnLW1hJywgJzIwMCcsICctbWV0YWxfYmluZGluZycsICctaW1hZScsICc8aW5maWxlLm1hZT4nLCAnLW9tYWUnLCAnPG91dGZpbGUubWFlPic=

> <r_lp_tautomer_probability>
1

> <r_epik_Ionization_Penalty>
0.000532935

> <r_epik_Ionization_Penalty_Charging>
0.000532935

> <r_epik_Ionization_Penalty_Neutral>
4.97553e-13

> <r_epik_State_Penalty>
0.000332992

> <r_epik_Charging_Adjusted_Penalty>
0.000865928

> <i_epik_Tot_Q>
1

> <i_epik_Tot_abs_Q>
1

> <r_epik_Metal_State_Penalty>
-0

> <b_epik_Metal_Only>
0

> <s_lp_Force_Field>
OPLS_2005

> <r_lp_Energy>
10.4199

> <b_lp_Chiralities_Consistent>
1

> <s_lp_Variant>
AV-unprocessed.smi:2209-2

> <Gold.Version>
5.8.1

> <Gold.Id.Protein>
6NUR|6NUR_protein|mol2

> <Gold.PLP.Fitness>
33.7354

> <Gold.PLP.PLP>
-25.1287

> <Gold.PLP.part.hbond>
-3.0727

> <Gold.PLP.part.metal>
0.0000

> <Gold.PLP.part.buried>
-2.8735

> <Gold.PLP.part.nonpolar>
-19.3012

> <Gold.PLP.part.repulsive>
0.0626

> <Gold.PLP.ligand.clash>
0.0000

> <Gold.PLP.ligand.torsion>
0.2134

> <Gold.PLP.Chemscore.Hbond>
3.0000

> <Gold.PLP.Chemscore.CHOScore>
0.0000

> <Gold.PLP.Chemscore.Metal>
0.0000

> <Gold.Chemscore.Hbonds>
donor molecule, donor type, donor heavy atom, donor atom, acceptor molecule, acceptor atom, score
      L1  H    10    26       P1  8028  1.69
      P1  H  7997  8010       L1     3  0.85

> <Gold.PLP.Chemscore.Internal.Correction>
0.0335

> <Gold.Rescore>
     Score         DG    S(hbond)    S(metal)    S(lipo)     H(rot)  DE(clash)    DE(int)     intcor
     13.05     -13.37       0.96        0.00      62.00       1.00       0.07       0.25       ----

> <Gold.Chemscore.Fitness>
13.0475

> <Gold.Chemscore.DG>
-13.3653

> <Gold.Chemscore.ZeroCoef>
-5.4800

> <Gold.Chemscore.Hbond>
0.9555

> <Gold.Chemscore.Metal>
0.0000

> <Gold.Chemscore.Lipo>
62.0006

> <Gold.Chemscore.Internal_Hbond>
0.0000

> <Gold.Chemscore.DEClash>
0.0665

> <Gold.Chemscore.DEInternal>
0.2512

> <Gold.Chemscore.Rot>
1.0000

> <Gold.Chemscore.Internal.Correction>
   9.000000E+99

> <Gold.Chemscore.Hbonds>
donor molecule, donor type, donor heavy atom, donor atom, acceptor molecule, acceptor atom, score
      L1  H    10    26       P1  8028  0.50
      P1  H  7997  8010       L1     3  0.14

> <Gold.Chemscore.Hbond.Weighted>
-3.1912

> <Gold.Chemscore.Metal.Weighted>
-0.0000

> <Gold.Chemscore.Lipo.Weighted>
-7.2541

> <Gold.Chemscore.Internal_Hbond.Weighted>
0.0000

> <Gold.Chemscore.DEClash.Weighted>
0.0665

> <Gold.Chemscore.DEInternal.Weighted>
0.2512

> <Gold.Chemscore.Rot.Weighted>
2.5600

> <Gold.Chemscore.Internal.Correction.Weighted>
   9.000000E+99

> <Gold.Protein.RotatedTorsions>
[ 6907 6896 6895 6894 ] final   11.84 input  -60.11 | X-H torsion
[ 7974 7965 7964 7962 ] final  145.94 input  175.53 | X-H torsion
[ 8008 7997 7996 7995 ] final    6.61 input   59.86 | X-H torsion
[ 10167 10162 10161 10158 ] final  159.47 input  -65.29 | X-H torsion
[ 10718 10713 10712 10709 ] final  -17.75 input   66.30 | X-H torsion
[ 10763 10752 10751 10750 ] final  164.69 input  -60.55 | X-H torsion
[ 11005 11000 10999 10996 ] final   38.83 input  -57.11 | X-H torsion

> <Gold.Protein.ActiveResidues>
 VAL166  LYS551  ARG553  GLY616  TRP617  ASP618  TYR619  PRO620  LYS621  CYS622 
 ASP623  PHE694  ASN695  SER759  ASP760  ASP761  ALA762  ILE779  LEU786  VAL792 
 PHE793  MET794  SER795  GLU796  ALA797  LYS798  CYS799  TRP800  GLU811  SER814 

> <Gold.Protein.RotatedAtoms>
  151.7607  135.0811  160.0344 H   0  0  0  0  0  0  0  0  0  0  0  0  # atno 6907 bound_to 6896
  152.3355  133.6002  159.5848 H   0  0  0  0  0  0  0  0  0  0  0  0  # atno 6908 bound_to 6896
  150.7448  133.9719  159.3590 H   0  0  0  0  0  0  0  0  0  0  0  0  # atno 6909 bound_to 6896
  144.8711  139.5844  143.5886 H   0  0  0  0  0  0  0  0  0  0  0  0  # atno 7974 bound_to 7965
  154.7432  140.2753  155.6355 H   0  0  0  0  0  0  0  0  0  0  0  0  # atno 8008 bound_to 7997
  156.2878  140.2693  156.2092 H   0  0  0  0  0  0  0  0  0  0  0  0  # atno 8009 bound_to 7997
  155.0231  140.0371  157.2435 H   0  0  0  0  0  0  0  0  0  0  0  0  # atno 8010 bound_to 7997
  139.4832  144.4727  151.8554 H   0  0  0  0  0  0  0  0  0  0  0  0  # atno 10167 bound_to 10162
  156.5692  130.4745  149.6370 H   0  0  0  0  0  0  0  0  0  0  0  0  # atno 10718 bound_to 10713
  154.3127  135.2757  155.2558 H   0  0  0  0  0  0  0  0  0  0  0  0  # atno 10763 bound_to 10752
  154.4946  135.5824  153.6488 H   0  0  0  0  0  0  0  0  0  0  0  0  # atno 10764 bound_to 10752
  152.9886  135.6143  154.3306 H   0  0  0  0  0  0  0  0  0  0  0  0  # atno 10765 bound_to 10752
  140.2088  134.3781  155.8059 H   0  0  0  0  0  0  0  0  0  0  0  0  # atno 11005 bound_to 11000
  146.2931  139.7197  142.9146 LP  0  0  0  0  0  0  0  0  0  0  0  0  # atno 17320 bound_to 7965
  145.4129  141.0398  143.3007 LP  0  0  0  0  0  0  0  0  0  0  0  0  # atno 17321 bound_to 7965
  140.4197  144.2260  150.5887 LP  0  0  0  0  0  0  0  0  0  0  0  0  # atno 17342 bound_to 10162
  140.4886  143.2355  151.8852 LP  0  0  0  0  0  0  0  0  0  0  0  0  # atno 17343 bound_to 10162
  156.2730  130.7027  151.1830 LP  0  0  0  0  0  0  0  0  0  0  0  0  # atno 17370 bound_to 10713
  157.7352  131.0575  150.5484 LP  0  0  0  0  0  0  0  0  0  0  0  0  # atno 17371 bound_to 10713
  141.2226  133.7132  156.8382 LP  0  0  0  0  0  0  0  0  0  0  0  0  # atno 17394 bound_to 11000
  140.1974  134.8922  157.3130 LP  0  0  0  0  0  0  0  0  0  0  0  0  # atno 17395 bound_to 11000

$$$$
