AV-unprocessed.smi:1239|AV-procd|sdf|5191|dock7
  -GOLD-   22720 4273D 1   1.00000     0.00000
 Structure written by MMmdl.
 48 49  0  0  0  0  0  0  0  0  2 V2000
  148.2457  138.0145  154.8582 C   0  0  0  0  0  0  0  0  0  0  0  0
  149.4312  137.0472  155.0929 C   0  0  2  0  0  0  0  0  0  0  0  0
  150.7384  137.6185  154.4737 C   0  0  0  0  0  0  0  0  0  0  0  0
  150.9778  139.0208  154.8092 N   0  0  0  0  0  0  0  0  0  0  0  0
  151.1376  139.5074  156.0489 C   0  0  0  0  0  0  0  0  0  0  0  0
  151.1391  138.8023  157.0573 O   0  0  0  0  0  0  0  0  0  0  0  0
  151.3130  140.8397  156.0256 N   0  0  0  0  0  0  0  0  0  0  0  0
  151.4965  141.7392  157.1115 C   0  0  0  0  0  0  0  0  0  0  0  0
  151.6353  143.1078  156.8114 C   0  0  0  0  0  0  0  0  0  0  0  0
  151.8022  144.0332  157.8585 C   0  0  0  0  0  0  0  0  0  0  0  0
  151.8207  143.5677  159.1964 C   0  0  0  0  0  0  0  0  0  0  0  0
  151.9844  144.4553  160.2845 N   0  0  0  0  0  0  0  0  0  0  0  0
  151.8840  145.8952  160.0685 C   0  0  0  0  0  0  0  0  0  0  0  0
  152.2060  143.9361  161.6285 C   0  0  0  0  0  0  0  0  0  0  0  0
  151.6772  142.2506  159.4830 N   0  0  0  0  0  0  0  0  0  0  0  0
  151.5180  141.3659  158.4762 C   0  0  0  0  0  0  0  0  0  0  0  0
  149.1091  135.6684  154.5904 N   0  3  0  0  0  0  0  0  0  0  0  0
  150.1317  134.6337  154.9158 C   0  0  0  0  0  0  0  0  0  0  0  0
  149.7355  133.2525  154.3666 C   0  0  0  0  0  0  0  0  0  0  0  0
  148.4621  132.8793  154.8686 O   0  0  0  0  0  0  0  0  0  0  0  0
  147.4596  133.7907  154.4493 C   0  0  0  0  0  0  0  0  0  0  0  0
  147.7640  135.1872  155.0156 C   0  0  0  0  0  0  0  0  0  0  0  0
  148.4630  139.0195  155.2177 H   0  0  0  0  0  0  0  0  0  0  0  0
  147.3448  137.7174  155.3910 H   0  0  0  0  0  0  0  0  0  0  0  0
  148.0014  138.0906  153.7982 H   0  0  0  0  0  0  0  0  0  0  0  0
  149.5927  136.9721  156.1697 H   0  0  0  0  0  0  0  0  0  0  0  0
  151.6090  137.0926  154.8635 H   0  0  0  0  0  0  0  0  0  0  0  0
  150.7429  137.4667  153.3927 H   0  0  0  0  0  0  0  0  0  0  0  0
  151.0009  139.6733  154.0390 H   0  0  0  0  0  0  0  0  0  0  0  0
  151.3486  141.2632  155.1099 H   0  0  0  0  0  0  0  0  0  0  0  0
  151.6163  143.4504  155.7872 H   0  0  0  0  0  0  0  0  0  0  0  0
  151.9103  145.0789  157.6138 H   0  0  0  0  0  0  0  0  0  0  0  0
  150.8964  146.1567  159.6873 H   0  0  0  0  0  0  0  0  0  0  0  0
  152.6331  146.2277  159.3491 H   0  0  0  0  0  0  0  0  0  0  0  0
  152.0422  146.4489  160.9939 H   0  0  0  0  0  0  0  0  0  0  0  0
  153.1193  143.3415  161.6646 H   0  0  0  0  0  0  0  0  0  0  0  0
  151.3684  143.3116  161.9405 H   0  0  0  0  0  0  0  0  0  0  0  0
  152.3070  144.7430  162.3542 H   0  0  0  0  0  0  0  0  0  0  0  0
  151.3901  140.3452  158.7982 H   0  0  0  0  0  0  0  0  0  0  0  0
  151.0954  134.8834  154.4747 H   0  0  0  0  0  0  0  0  0  0  0  0
  150.2679  134.5823  155.9972 H   0  0  0  0  0  0  0  0  0  0  0  0
  149.7252  133.2551  153.2752 H   0  0  0  0  0  0  0  0  0  0  0  0
  150.4668  132.5047  154.6739 H   0  0  0  0  0  0  0  0  0  0  0  0
  147.3986  133.8144  153.3599 H   0  0  0  0  0  0  0  0  0  0  0  0
  146.4928  133.4421  154.8130 H   0  0  0  0  0  0  0  0  0  0  0  0
  147.7112  135.1641  156.1051 H   0  0  0  0  0  0  0  0  0  0  0  0
  146.9769  135.8540  154.6710 H   0  0  0  0  0  0  0  0  0  0  0  0
  149.0887  135.7317  153.5822 H   0  0  0  0  0  0  0  0  0  0  0  0
  1  2  1  0  0  0  0
  1 23  1  0  0  0  0
  1 24  1  0  0  0  0
  1 25  1  0  0  0  0
  2  3  1  0  0  0  0
  2 17  1  0  0  0  0
  2 26  1  0  0  0  0
  3  4  1  0  0  0  0
  3 27  1  0  0  0  0
  3 28  1  0  0  0  0
  4  5  1  0  0  0  0
  4 29  1  0  0  0  0
  5  6  2  0  0  0  0
  5  7  1  0  0  0  0
  7  8  1  0  0  0  0
  7 30  1  0  0  0  0
  8 16  1  0  0  0  0
  8  9  2  0  0  0  0
  9 10  1  0  0  0  0
  9 31  1  0  0  0  0
 10 11  2  0  0  0  0
 10 32  1  0  0  0  0
 11 12  1  0  0  0  0
 11 15  1  0  0  0  0
 12 13  1  0  0  0  0
 12 14  1  0  0  0  0
 13 33  1  0  0  0  0
 13 34  1  0  0  0  0
 13 35  1  0  0  0  0
 14 36  1  0  0  0  0
 14 37  1  0  0  0  0
 14 38  1  0  0  0  0
 15 16  2  0  0  0  0
 16 39  1  0  0  0  0
 17 22  1  0  0  0  0
 17 18  1  0  0  0  0
 17 48  1  0  0  0  0
 18 19  1  0  0  0  0
 18 40  1  0  0  0  0
 18 41  1  0  0  0  0
 19 20  1  0  0  0  0
 19 42  1  0  0  0  0
 19 43  1  0  0  0  0
 20 21  1  0  0  0  0
 21 22  1  0  0  0  0
 21 44  1  0  0  0  0
 21 45  1  0  0  0  0
 22 46  1  0  0  0  0
 22 47  1  0  0  0  0
M  CHG  1  17   1
M  END
> <s_m_source_file>
AV-unprocessed.smi

> <i_m_source_file_index>
1239

> <i_lp_mmshare_version>
43012

> <i_f3d_flags>
0

> <s_epik_input>
W0NIMl0xW0NIMl1PW0NIMl1bQ0gyXU4xW0NASF0oW0NIM10pW0NIMl1bTkhdQyg9TylbTkhdYzJbY0hdW2NIXWMoTihbQ0gzXSlbQ0gzXSluW2NIXTI=

> <s_epik_cmdline>
J2VwaWtfcHl0aG9uJywgJy1waCcsICc3LjAnLCAnLXRuJywgJzgnLCAnLW1hJywgJzIwMCcsICctbWV0YWxfYmluZGluZycsICctaW1hZScsICc8aW5maWxlLm1hZT4nLCAnLW9tYWUnLCAnPG91dGZpbGUubWFlPic=

> <r_epik_Ionization_Penalty>
1.1428

> <r_epik_Ionization_Penalty_Charging>
0.602531

> <r_epik_Ionization_Penalty_Neutral>
0.540271

> <r_epik_State_Penalty>
1.1888

> <r_epik_Charging_Adjusted_Penalty>
1.79133

> <i_epik_Tot_Q>
1

> <i_epik_Tot_abs_Q>
1

> <r_epik_Metal_State_Penalty>
0.936295

> <b_epik_Metal_Only>
0

> <s_lp_Force_Field>
OPLS_2005

> <r_lp_Energy>
25.054

> <b_lp_Chiralities_Consistent>
1

> <s_lp_Variant>
AV-unprocessed.smi:1239-7

> <Gold.Version>
5.8.1

> <Gold.Id.Protein>
6NUR|6NUR_protein|mol2

> <Gold.PLP.Fitness>
44.9693

> <Gold.PLP.PLP>
-39.2738

> <Gold.PLP.part.hbond>
-1.0000

> <Gold.PLP.part.metal>
0.0000

> <Gold.PLP.part.buried>
-6.2236

> <Gold.PLP.part.nonpolar>
-31.7449

> <Gold.PLP.part.repulsive>
0.2860

> <Gold.PLP.ligand.clash>
0.0000

> <Gold.PLP.ligand.torsion>
0.1791

> <Gold.PLP.Chemscore.Hbond>
2.0000

> <Gold.PLP.Chemscore.CHOScore>
0.0000

> <Gold.PLP.Chemscore.Metal>
0.0000

> <Gold.Chemscore.Hbonds>
donor molecule, donor type, donor heavy atom, donor atom, acceptor molecule, acceptor atom, score
      L1  H    17    48       P1  7948  2.00

> <Gold.PLP.Chemscore.Internal.Correction>
0.0536

> <Gold.Rescore>
     Score         DG    S(hbond)    S(metal)    S(lipo)     H(rot)  DE(clash)    DE(int)     intcor
     14.38     -16.16       0.97        0.00      96.08       1.48       0.46       1.33       ----

> <Gold.Chemscore.Fitness>
14.3763

> <Gold.Chemscore.DG>
-16.1584

> <Gold.Chemscore.ZeroCoef>
-5.4800

> <Gold.Chemscore.Hbond>
0.9679

> <Gold.Chemscore.Metal>
0.0000

> <Gold.Chemscore.Lipo>
96.0848

> <Gold.Chemscore.Internal_Hbond>
0.0000

> <Gold.Chemscore.DEClash>
0.4565

> <Gold.Chemscore.DEInternal>
1.3256

> <Gold.Chemscore.Rot>
1.4830

> <Gold.Chemscore.Internal.Correction>
   9.000000E+99

> <Gold.Chemscore.Hbonds>
donor molecule, donor type, donor heavy atom, donor atom, acceptor molecule, acceptor atom, score
      L1  H    17    48       P1  7948  0.78

> <Gold.Chemscore.Hbond.Weighted>
-3.2329

> <Gold.Chemscore.Metal.Weighted>
-0.0000

> <Gold.Chemscore.Lipo.Weighted>
-11.2419

> <Gold.Chemscore.Internal_Hbond.Weighted>
0.0000

> <Gold.Chemscore.DEClash.Weighted>
0.4565

> <Gold.Chemscore.DEInternal.Weighted>
1.3256

> <Gold.Chemscore.Rot.Weighted>
3.7964

> <Gold.Chemscore.Internal.Correction.Weighted>
   9.000000E+99

> <Gold.Protein.RotatedTorsions>
[ 6907 6896 6895 6894 ] final  -90.89 input  -60.11 | X-H torsion
[ 7974 7965 7964 7962 ] final -142.09 input  175.53 | X-H torsion
[ 8008 7997 7996 7995 ] final  141.73 input   59.86 | X-H torsion
[ 10167 10162 10161 10158 ] final  117.34 input  -65.29 | X-H torsion
[ 10718 10713 10712 10709 ] final   18.94 input   66.30 | X-H torsion
[ 10763 10752 10751 10750 ] final  134.46 input  -60.55 | X-H torsion
[ 11005 11000 10999 10996 ] final  -39.83 input  -57.11 | X-H torsion

> <Gold.Protein.ActiveResidues>
 VAL166  LYS551  ARG553  GLY616  TRP617  ASP618  TYR619  PRO620  LYS621  CYS622 
 ASP623  PHE694  ASN695  SER759  ASP760  ASP761  ALA762  ILE779  LEU786  VAL792 
 PHE793  MET794  SER795  GLU796  ALA797  LYS798  CYS799  TRP800  GLU811  SER814 

> <Gold.Protein.RotatedAtoms>
  150.6886  134.2362  159.4453 H   0  0  0  0  0  0  0  0  0  0  0  0  # atno 6907 bound_to 6896
  152.0309  134.9766  160.0582 H   0  0  0  0  0  0  0  0  0  0  0  0  # atno 6908 bound_to 6896
  152.1305  133.4370  159.4755 H   0  0  0  0  0  0  0  0  0  0  0  0  # atno 6909 bound_to 6896
  144.8470  140.6000  143.5415 H   0  0  0  0  0  0  0  0  0  0  0  0  # atno 7974 bound_to 7965
  156.2961  140.2307  156.4612 H   0  0  0  0  0  0  0  0  0  0  0  0  # atno 8008 bound_to 7997
  154.8017  140.0448  157.1298 H   0  0  0  0  0  0  0  0  0  0  0  0  # atno 8009 bound_to 7997
  154.9526  140.3044  155.5071 H   0  0  0  0  0  0  0  0  0  0  0  0  # atno 8010 bound_to 7997
  139.6185  144.7096  151.2686 H   0  0  0  0  0  0  0  0  0  0  0  0  # atno 10167 bound_to 10162
  157.1035  130.6478  149.5878 H   0  0  0  0  0  0  0  0  0  0  0  0  # atno 10718 bound_to 10713
  153.8240  135.3112  155.3413 H   0  0  0  0  0  0  0  0  0  0  0  0  # atno 10763 bound_to 10752
  154.8001  135.4732  154.0258 H   0  0  0  0  0  0  0  0  0  0  0  0  # atno 10764 bound_to 10752
  153.1676  135.6872  153.8744 H   0  0  0  0  0  0  0  0  0  0  0  0  # atno 10765 bound_to 10752
  141.0130  133.6899  156.2239 H   0  0  0  0  0  0  0  0  0  0  0  0  # atno 11005 bound_to 11000
  145.4578  139.1516  143.3883 LP  0  0  0  0  0  0  0  0  0  0  0  0  # atno 17320 bound_to 7965
  146.2752  140.4706  142.8798 LP  0  0  0  0  0  0  0  0  0  0  0  0  # atno 17321 bound_to 7965
  140.7367  143.6700  150.8090 LP  0  0  0  0  0  0  0  0  0  0  0  0  # atno 17342 bound_to 10162
  140.0307  143.5446  152.2761 LP  0  0  0  0  0  0  0  0  0  0  0  0  # atno 17343 bound_to 10162
  155.9868  130.4904  150.7095 LP  0  0  0  0  0  0  0  0  0  0  0  0  # atno 17370 bound_to 10713
  157.4621  131.0884  151.0735 LP  0  0  0  0  0  0  0  0  0  0  0  0  # atno 17371 bound_to 10713
  140.6702  134.4876  157.5587 LP  0  0  0  0  0  0  0  0  0  0  0  0  # atno 17394 bound_to 11000
  139.9101  134.8364  156.1561 LP  0  0  0  0  0  0  0  0  0  0  0  0  # atno 17395 bound_to 11000

$$$$
