AV-unprocessed.smi:2010|AV-procd|sdf|8151|dock9
  -GOLD-   2272010393D 1   1.00000     0.00000
 Structure written by MMmdl.
 40 41  0  0  0  0  0  0  0  0  2 V2000
  151.7984  145.2201  159.7529 C   0  0  0  0  0  0  0  0  0  0  0  0
  151.8315  143.6909  159.6213 C   0  0  0  0  0  0  0  0  0  0  0  0
  153.0022  143.0783  160.4023 C   0  0  0  0  0  0  0  0  0  0  0  0
  153.0319  141.5483  160.2589 C   0  0  0  0  0  0  0  0  0  0  0  0
  153.0670  141.1385  158.8387 N   0  0  0  0  0  0  0  0  0  0  0  0
  153.5872  139.5151  158.4796 S   0  0  0  0  0  0  0  0  0  0  0  0
  155.0526  139.5456  158.6048 O   0  0  0  0  0  0  0  0  0  0  0  0
  152.8508  138.6157  159.3850 O   0  0  0  0  0  0  0  0  0  0  0  0
  153.0958  139.4390  156.9259 N   0  5  0  0  0  0  0  0  0  0  0  0
  152.2740  138.3376  156.4222 C   0  0  2  0  0  0  0  0  0  0  0  0
  152.9791  137.0095  156.7399 C   0  0  0  0  0  0  0  0  0  0  0  0
  151.9499  138.5273  154.9140 C   0  0  0  0  0  0  0  0  0  0  0  0
  150.9259  139.5232  154.6066 N   0  0  0  0  0  0  0  0  0  0  0  0
  149.6648  139.3262  154.0765 C   0  0  0  0  0  0  0  0  0  0  0  0
  149.0567  140.5457  153.9946 C   0  0  0  0  0  0  0  0  0  0  0  0
  150.0278  141.4420  154.5206 C   0  0  0  0  0  0  0  0  0  0  0  0
  151.1365  140.8282  154.8978 N   0  0  0  0  0  0  0  0  0  0  0  0
  151.9788  141.7150  158.0260 C   0  0  0  0  0  0  0  0  0  0  0  0
  151.9369  143.2469  158.1555 C   0  0  0  0  0  0  0  0  0  0  0  0
  152.7097  145.6719  159.3600 H   0  0  0  0  0  0  0  0  0  0  0  0
  151.7002  145.5214  160.7962 H   0  0  0  0  0  0  0  0  0  0  0  0
  150.9545  145.6424  159.2068 H   0  0  0  0  0  0  0  0  0  0  0  0
  150.9003  143.2992  160.0330 H   0  0  0  0  0  0  0  0  0  0  0  0
  153.9456  143.4950  160.0468 H   0  0  0  0  0  0  0  0  0  0  0  0
  152.9280  143.3428  161.4574 H   0  0  0  0  0  0  0  0  0  0  0  0
  153.8970  141.1488  160.7863 H   0  0  0  0  0  0  0  0  0  0  0  0
  152.1528  141.1075  160.7301 H   0  0  0  0  0  0  0  0  0  0  0  0
  151.3145  138.3052  156.9384 H   0  0  0  0  0  0  0  0  0  0  0  0
  152.4080  136.1636  156.3571 H   0  0  0  0  0  0  0  0  0  0  0  0
  153.0861  136.8719  157.8163 H   0  0  0  0  0  0  0  0  0  0  0  0
  153.9773  136.9646  156.3030 H   0  0  0  0  0  0  0  0  0  0  0  0
  152.8604  138.8387  154.4009 H   0  0  0  0  0  0  0  0  0  0  0  0
  151.6723  137.5787  154.4546 H   0  0  0  0  0  0  0  0  0  0  0  0
  149.3132  138.3433  153.7994 H   0  0  0  0  0  0  0  0  0  0  0  0
  148.0682  140.7639  153.6189 H   0  0  0  0  0  0  0  0  0  0  0  0
  149.9586  142.5126  154.6445 H   0  0  0  0  0  0  0  0  0  0  0  0
  152.1201  141.4548  156.9775 H   0  0  0  0  0  0  0  0  0  0  0  0
  151.0311  141.2752  158.3387 H   0  0  0  0  0  0  0  0  0  0  0  0
  151.0936  143.6373  157.5849 H   0  0  0  0  0  0  0  0  0  0  0  0
  152.8362  143.6706  157.7056 H   0  0  0  0  0  0  0  0  0  0  0  0
  1  2  1  0  0  0  0
  1 20  1  0  0  0  0
  1 21  1  0  0  0  0
  1 22  1  0  0  0  0
  2 19  1  0  0  0  0
  2  3  1  0  0  0  0
  2 23  1  0  0  0  0
  3  4  1  0  0  0  0
  3 24  1  0  0  0  0
  3 25  1  0  0  0  0
  4  5  1  0  0  0  0
  4 26  1  0  0  0  0
  4 27  1  0  0  0  0
  5  6  1  0  0  0  0
  5 18  1  0  0  0  0
  6  7  2  0  0  0  0
  6  8  2  0  0  0  0
  6  9  1  0  0  0  0
  9 10  1  0  0  0  0
 10 11  1  0  0  0  0
 10 12  1  0  0  0  0
 10 28  1  0  0  0  0
 11 29  1  0  0  0  0
 11 30  1  0  0  0  0
 11 31  1  0  0  0  0
 12 13  1  0  0  0  0
 12 32  1  0  0  0  0
 12 33  1  0  0  0  0
 13 17  1  0  0  0  0
 13 14  1  0  0  0  0
 14 15  2  0  0  0  0
 14 34  1  0  0  0  0
 15 16  1  0  0  0  0
 15 35  1  0  0  0  0
 16 17  2  0  0  0  0
 16 36  1  0  0  0  0
 18 19  1  0  0  0  0
 18 37  1  0  0  0  0
 18 38  1  0  0  0  0
 19 39  1  0  0  0  0
 19 40  1  0  0  0  0
M  CHG  1   9  -1
M  END
> <s_m_source_file>
AV-unprocessed.smi

> <i_m_source_file_index>
2010

> <i_lp_mmshare_version>
43012

> <i_f3d_flags>
0

> <s_epik_input>
W0NIM11bQ0hdMVtDSDJdW0NIMl1OKFtDSDJdW0NIMl0xKVMoPU8pKD1PKVtOSF1bQ0BIXShbQ0gzXSlbQ0gyXW4yW2NIXVtjSF1bY0hdbjI=

> <s_epik_cmdline>
J2VwaWtfcHl0aG9uJywgJy1waCcsICc3LjAnLCAnLXRuJywgJzgnLCAnLW1hJywgJzIwMCcsICctbWV0YWxfYmluZGluZycsICctaW1hZScsICc8aW5maWxlLm1hZT4nLCAnLW9tYWUnLCAnPG91dGZpbGUubWFlPic=

> <r_lp_tautomer_probability>
1

> <r_epik_Ionization_Penalty>
1.75622

> <r_epik_Ionization_Penalty_Charging>
1.7562

> <r_epik_Ionization_Penalty_Neutral>
2.39925e-05

> <r_epik_State_Penalty>
1.86645

> <r_epik_Charging_Adjusted_Penalty>
3.62264

> <i_epik_Tot_Q>
-1

> <i_epik_Tot_abs_Q>
1

> <r_epik_Metal_State_Penalty>
0.460135

> <b_epik_Metal_Only>
0

> <s_lp_Force_Field>
OPLS_2005

> <r_lp_Energy>
7.98706

> <b_lp_Chiralities_Consistent>
1

> <s_lp_Variant>
AV-unprocessed.smi:2010-3

> <Gold.Version>
5.8.1

> <Gold.Id.Protein>
6NUR|6NUR_protein|mol2

> <Gold.PLP.Fitness>
46.2557

> <Gold.PLP.PLP>
-37.5062

> <Gold.PLP.part.hbond>
-2.7279

> <Gold.PLP.part.metal>
0.0000

> <Gold.PLP.part.buried>
-1.0605

> <Gold.PLP.part.nonpolar>
-32.3132

> <Gold.PLP.part.repulsive>
0.0700

> <Gold.PLP.ligand.clash>
0.0000

> <Gold.PLP.ligand.torsion>
1.4755

> <Gold.PLP.Chemscore.Hbond>
2.3274

> <Gold.PLP.Chemscore.CHOScore>
0.9990

> <Gold.PLP.Chemscore.Metal>
0.0000

> <Gold.Chemscore.Hbonds>
donor molecule, donor type, donor heavy atom, donor atom, acceptor molecule, acceptor atom, score
      P1  H  7989  7998       L1    17  0.07
      P1  H  7997  8009       L1     7  0.71
      P1  H  7997  8010       L1     9  1.12
      L1  C    14    34       P1  7948  0.17
      L1  C    16    36       P1  8028  0.72

> <Gold.PLP.Chemscore.Internal.Correction>
1.7213

> <Gold.Rescore>
     Score         DG    S(hbond)    S(metal)    S(lipo)     H(rot)  DE(clash)    DE(int)     intcor
     16.39     -18.22       1.56        0.00      97.90       1.54       0.04       1.80       ----

> <Gold.Chemscore.Fitness>
16.3859

> <Gold.Chemscore.DG>
-18.2219

> <Gold.Chemscore.ZeroCoef>
-5.4800

> <Gold.Chemscore.Hbond>
1.5641

> <Gold.Chemscore.Metal>
0.0000

> <Gold.Chemscore.Lipo>
97.9014

> <Gold.Chemscore.Internal_Hbond>
0.0000

> <Gold.Chemscore.DEClash>
0.0402

> <Gold.Chemscore.DEInternal>
1.7959

> <Gold.Chemscore.Rot>
1.5377

> <Gold.Chemscore.Internal.Correction>
   9.000000E+99

> <Gold.Chemscore.Hbonds>
donor molecule, donor type, donor heavy atom, donor atom, acceptor molecule, acceptor atom, score
      P1  H  7997  8009       L1     7  0.30
      P1  H  7997  8010       L1     9  0.22

> <Gold.Chemscore.Hbond.Weighted>
-5.2240

> <Gold.Chemscore.Metal.Weighted>
-0.0000

> <Gold.Chemscore.Lipo.Weighted>
-11.4545

> <Gold.Chemscore.Internal_Hbond.Weighted>
0.0000

> <Gold.Chemscore.DEClash.Weighted>
0.0402

> <Gold.Chemscore.DEInternal.Weighted>
1.7959

> <Gold.Chemscore.Rot.Weighted>
3.9365

> <Gold.Chemscore.Internal.Correction.Weighted>
   9.000000E+99

> <Gold.Protein.RotatedTorsions>
[ 6907 6896 6895 6894 ] final -107.90 input  -60.11 | X-H torsion
[ 7974 7965 7964 7962 ] final  -38.03 input  175.53 | X-H torsion
[ 8008 7997 7996 7995 ] final   95.96 input   59.86 | X-H torsion
[ 10167 10162 10161 10158 ] final   -8.75 input  -65.29 | X-H torsion
[ 10718 10713 10712 10709 ] final   19.39 input   66.30 | X-H torsion
[ 10763 10752 10751 10750 ] final  -86.35 input  -60.55 | X-H torsion
[ 11005 11000 10999 10996 ] final  -23.87 input  -57.11 | X-H torsion

> <Gold.Protein.ActiveResidues>
 VAL166  LYS551  ARG553  GLY616  TRP617  ASP618  TYR619  PRO620  LYS621  CYS622 
 ASP623  PHE694  ASN695  SER759  ASP760  ASP761  ALA762  ILE779  LEU786  VAL792 
 PHE793  MET794  SER795  GLU796  ALA797  LYS798  CYS799  TRP800  GLU811  SER814 

> <Gold.Protein.RotatedAtoms>
  150.7470  133.9758  159.3560 H   0  0  0  0  0  0  0  0  0  0  0  0  # atno 6907 bound_to 6896
  151.7695  135.0788  160.0367 H   0  0  0  0  0  0  0  0  0  0  0  0  # atno 6908 bound_to 6896
  152.3348  133.5963  159.5871 H   0  0  0  0  0  0  0  0  0  0  0  0  # atno 6909 bound_to 6896
  146.0522  140.6465  142.9036 H   0  0  0  0  0  0  0  0  0  0  0  0  # atno 7974 bound_to 7965
  156.0745  140.3279  155.7617 H   0  0  0  0  0  0  0  0  0  0  0  0  # atno 8008 bound_to 7997
  155.5252  140.0588  157.2917 H   0  0  0  0  0  0  0  0  0  0  0  0  # atno 8009 bound_to 7997
  154.4548  140.1937  156.0429 H   0  0  0  0  0  0  0  0  0  0  0  0  # atno 8010 bound_to 7997
  140.7068  143.5934  150.8870 H   0  0  0  0  0  0  0  0  0  0  0  0  # atno 10167 bound_to 10162
  157.1098  130.6504  149.5894 H   0  0  0  0  0  0  0  0  0  0  0  0  # atno 10718 bound_to 10713
  154.6214  135.5452  153.7579 H   0  0  0  0  0  0  0  0  0  0  0  0  # atno 10763 bound_to 10752
  153.0240  135.6413  154.1435 H   0  0  0  0  0  0  0  0  0  0  0  0  # atno 10764 bound_to 10752
  154.1369  135.2911  155.3151 H   0  0  0  0  0  0  0  0  0  0  0  0  # atno 10765 bound_to 10752
  140.8792  133.7666  156.0281 H   0  0  0  0  0  0  0  0  0  0  0  0  # atno 11005 bound_to 11000
  144.7129  140.4104  143.7067 LP  0  0  0  0  0  0  0  0  0  0  0  0  # atno 17320 bound_to 7965
  145.6704  139.1598  143.2758 LP  0  0  0  0  0  0  0  0  0  0  0  0  # atno 17321 bound_to 7965
  139.9659  143.6111  152.2988 LP  0  0  0  0  0  0  0  0  0  0  0  0  # atno 17342 bound_to 10162
  139.6680  144.7662  151.1836 LP  0  0  0  0  0  0  0  0  0  0  0  0  # atno 17343 bound_to 10162
  155.9853  130.4882  150.7026 LP  0  0  0  0  0  0  0  0  0  0  0  0  # atno 17370 bound_to 10713
  157.4569  131.0879  151.0787 LP  0  0  0  0  0  0  0  0  0  0  0  0  # atno 17371 bound_to 10713
  140.8481  134.2986  157.5286 LP  0  0  0  0  0  0  0  0  0  0  0  0  # atno 17394 bound_to 11000
  139.8718  134.9453  156.3906 LP  0  0  0  0  0  0  0  0  0  0  0  0  # atno 17395 bound_to 11000

$$$$
