AV-unprocessed.smi:163|AV-procd|sdf|1380|dock4
  -GOLD-   2262019103D 1   1.00000     0.00000
 Structure written by MMmdl.
 48 51  0  0  0  0  0  0  0  0  1 V2000
  142.6599  133.8611  158.2081 N   0  0  0  0  0  0  0  0  0  0  0  0
  143.2308  134.7836  158.6112 C   0  0  0  0  0  0  0  0  0  0  0  0
  143.9548  135.9582  159.1259 C   0  0  0  0  0  0  0  0  0  0  0  0
  145.0288  135.6104  160.1651 C   0  0  0  0  0  0  0  0  0  0  0  0
  144.7137  135.5614  161.3548 O   0  0  0  0  0  0  0  0  0  0  0  0
  146.2907  135.3703  159.7386 N   0  0  0  0  0  0  0  0  0  0  0  0
  146.7510  135.4809  158.3497 C   0  0  0  0  0  0  0  0  0  0  0  0
  147.7128  136.6781  158.2383 C   0  0  0  0  0  0  0  0  0  0  0  0
  148.7999  136.5652  159.2140 N   0  0  0  0  0  0  0  0  0  0  0  0
  149.8348  137.4232  159.0225 C   0  0  0  0  0  0  0  0  0  0  0  0
  151.0596  137.1308  159.5370 N   0  0  0  0  0  0  0  0  0  0  0  0
  152.0845  137.9698  159.3622 C   0  0  0  0  0  0  0  0  0  0  0  0
  152.1070  139.1356  158.7144 N   0  0  0  0  0  0  0  0  0  0  0  0
  150.8839  139.4339  158.1904 C   0  0  0  0  0  0  0  0  0  0  0  0
  149.7065  138.6397  158.2929 C   0  0  0  0  0  0  0  0  0  0  0  0
  148.6626  139.2563  157.6126 N   0  0  0  0  0  0  0  0  0  0  0  0
  149.1892  140.3546  157.1451 C   0  0  0  0  0  0  0  0  0  0  0  0
  150.5169  140.5473  157.4541 N   0  0  0  0  0  0  0  0  0  0  0  0
  151.3505  141.6751  157.0645 C   0  0  0  0  0  0  0  0  0  0  0  0
  151.1241  142.9446  157.9216 C   0  0  1  0  0  0  0  0  0  0  0  0
  149.7351  143.2088  157.9959 O   0  0  0  0  0  0  0  0  0  0  0  0
  151.6790  142.7965  159.3402 C   0  0  0  0  0  0  0  0  0  0  0  0
  152.9003  143.7077  159.3456 C   0  0  0  0  0  0  0  0  0  0  0  0
  152.4947  144.7729  158.5053 O   0  0  0  0  0  0  0  0  0  0  0  0
  151.8492  144.1936  157.3807 C   0  0  0  0  0  0  0  0  0  0  0  0
  148.3896  136.2892  160.5946 C   0  0  0  0  0  0  0  0  0  0  0  0
  147.4094  135.1030  160.6500 C   0  0  0  0  0  0  0  0  0  0  0  0
  144.4107  136.4586  158.2712 H   0  0  0  0  0  0  0  0  0  0  0  0
  143.2145  136.6296  159.5625 H   0  0  0  0  0  0  0  0  0  0  0  0
  147.2700  134.5618  158.0735 H   0  0  0  0  0  0  0  0  0  0  0  0
  145.9431  135.5882  157.6278 H   0  0  0  0  0  0  0  0  0  0  0  0
  148.0944  136.7354  157.2201 H   0  0  0  0  0  0  0  0  0  0  0  0
  147.1722  137.6077  158.4223 H   0  0  0  0  0  0  0  0  0  0  0  0
  153.0207  137.6629  159.8047 H   0  0  0  0  0  0  0  0  0  0  0  0
  148.6179  141.0579  156.5569 H   0  0  0  0  0  0  0  0  0  0  0  0
  152.3944  141.3636  157.1213 H   0  0  0  0  0  0  0  0  0  0  0  0
  151.1559  141.8934  156.0136 H   0  0  0  0  0  0  0  0  0  0  0  0
  149.4384  143.4957  157.1457 H   0  0  0  0  0  0  0  0  0  0  0  0
  150.9642  143.1592  160.0809 H   0  0  0  0  0  0  0  0  0  0  0  0
  151.9283  141.7685  159.6053 H   0  0  0  0  0  0  0  0  0  0  0  0
  153.1625  144.0576  160.3443 H   0  0  0  0  0  0  0  0  0  0  0  0
  153.7675  143.2049  158.9144 H   0  0  0  0  0  0  0  0  0  0  0  0
  152.6255  143.9200  156.6657 H   0  0  0  0  0  0  0  0  0  0  0  0
  151.1858  144.9068  156.8896 H   0  0  0  0  0  0  0  0  0  0  0  0
  149.2656  136.0664  161.2051 H   0  0  0  0  0  0  0  0  0  0  0  0
  147.9173  137.1777  161.0165 H   0  0  0  0  0  0  0  0  0  0  0  0
  147.0896  134.9360  161.6792 H   0  0  0  0  0  0  0  0  0  0  0  0
  147.9129  134.1860  160.3405 H   0  0  0  0  0  0  0  0  0  0  0  0
  1  2  3  0  0  0  0
  2  3  1  0  0  0  0
  3  4  1  0  0  0  0
  3 28  1  0  0  0  0
  3 29  1  0  0  0  0
  4  5  2  0  0  0  0
  4  6  1  0  0  0  0
  6 27  1  0  0  0  0
  6  7  1  0  0  0  0
  7  8  1  0  0  0  0
  7 30  1  0  0  0  0
  7 31  1  0  0  0  0
  8  9  1  0  0  0  0
  8 32  1  0  0  0  0
  8 33  1  0  0  0  0
  9 10  1  0  0  0  0
  9 26  1  0  0  0  0
 10 15  1  0  0  0  0
 10 11  2  0  0  0  0
 11 12  1  0  0  0  0
 12 13  2  0  0  0  0
 12 34  1  0  0  0  0
 13 14  1  0  0  0  0
 14 18  1  0  0  0  0
 14 15  2  0  0  0  0
 15 16  1  0  0  0  0
 16 17  2  0  0  0  0
 17 18  1  0  0  0  0
 17 35  1  0  0  0  0
 18 19  1  0  0  0  0
 19 20  1  0  0  0  0
 19 36  1  0  0  0  0
 19 37  1  0  0  0  0
 20 25  1  0  0  0  0
 20 21  1  0  0  0  0
 20 22  1  0  0  0  0
 21 38  1  0  0  0  0
 22 23  1  0  0  0  0
 22 39  1  0  0  0  0
 22 40  1  0  0  0  0
 23 24  1  0  0  0  0
 23 41  1  0  0  0  0
 23 42  1  0  0  0  0
 24 25  1  0  0  0  0
 25 43  1  0  0  0  0
 25 44  1  0  0  0  0
 26 27  1  0  0  0  0
 26 45  1  0  0  0  0
 26 46  1  0  0  0  0
 27 47  1  0  0  0  0
 27 48  1  0  0  0  0
M  END
> <s_m_source_file>
AV-unprocessed.smi

> <i_m_source_file_index>
163

> <i_lp_mmshare_version>
43012

> <i_f3d_flags>
0

> <s_epik_input>
TiNDW0NIMl1DKD1PKU4xW0NIMl1bQ0gyXU4oW0NIMl1bQ0gyXTEpYyhuW2NIXW4yKWMoYzIzKW5bY0hdbjNbQ0gyXVtDQEBdNChbT0hdKVtDSDJdW0NIMl1PW0NIMl00

> <s_epik_cmdline>
J2VwaWtfcHl0aG9uJywgJy1waCcsICc3LjAnLCAnLXRuJywgJzgnLCAnLW1hJywgJzIwMCcsICctbWV0YWxfYmluZGluZycsICctaW1hZScsICc8aW5maWxlLm1hZT4nLCAnLW9tYWUnLCAnPG91dGZpbGUubWFlPic=

> <r_lp_tautomer_probability>
1

> <r_epik_Ionization_Penalty>
0.000981096

> <r_epik_Ionization_Penalty_Charging>
0

> <r_epik_Ionization_Penalty_Neutral>
0.000981096

> <r_epik_State_Penalty>
0.000482875

> <r_epik_Charging_Adjusted_Penalty>
0.000482875

> <i_epik_Tot_Q>
0

> <i_epik_Tot_abs_Q>
0

> <r_epik_Metal_State_Penalty>
-0

> <b_epik_Metal_Only>
0

> <s_lp_Force_Field>
OPLS_2005

> <r_lp_Energy>
52.1528

> <b_lp_Chiralities_Consistent>
1

> <s_lp_Variant>
AV-unprocessed.smi:163-1

> <Gold.Version>
5.8.1

> <Gold.Id.Protein>
6NUR|6NUR_protein|mol2

> <Gold.PLP.Fitness>
40.7968

> <Gold.PLP.PLP>
-33.3836

> <Gold.PLP.part.hbond>
-3.0000

> <Gold.PLP.part.metal>
0.0000

> <Gold.PLP.part.buried>
-7.6447

> <Gold.PLP.part.nonpolar>
-23.4769

> <Gold.PLP.part.repulsive>
0.0724

> <Gold.PLP.ligand.clash>
0.0000

> <Gold.PLP.ligand.torsion>
1.0226

> <Gold.PLP.Chemscore.Hbond>
2.9913

> <Gold.PLP.Chemscore.CHOScore>
0.0000

> <Gold.PLP.Chemscore.Metal>
0.0000

> <Gold.Chemscore.Hbonds>
donor molecule, donor type, donor heavy atom, donor atom, acceptor molecule, acceptor atom, score
      L1  H    21    38       P1  8028  1.00
      P1  H  6896  6908       L1    11  0.98
      P1  H 11000 11005       L1     1  1.00

> <Gold.PLP.Chemscore.Internal.Correction>
0.4847

> <Gold.Rescore>
     Score         DG    S(hbond)    S(metal)    S(lipo)     H(rot)  DE(clash)    DE(int)     intcor
     12.45     -15.82       2.73        0.00      70.03       2.72       0.07       3.30       ----

> <Gold.Chemscore.Fitness>
12.4505

> <Gold.Chemscore.DG>
-15.8183

> <Gold.Chemscore.ZeroCoef>
-5.4800

> <Gold.Chemscore.Hbond>
2.7294

> <Gold.Chemscore.Metal>
0.0000

> <Gold.Chemscore.Lipo>
70.0261

> <Gold.Chemscore.Internal_Hbond>
0.0000

> <Gold.Chemscore.DEClash>
0.0650

> <Gold.Chemscore.DEInternal>
3.3028

> <Gold.Chemscore.Rot>
2.7230

> <Gold.Chemscore.Internal.Correction>
   9.000000E+99

> <Gold.Chemscore.Hbonds>
donor molecule, donor type, donor heavy atom, donor atom, acceptor molecule, acceptor atom, score
      L1  H    21    38       P1  8028  0.82
      P1  H  6896  6908       L1    11  0.72
      P1  H 11000 11005       L1     1  1.00

> <Gold.Chemscore.Hbond.Weighted>
-9.1162

> <Gold.Chemscore.Metal.Weighted>
-0.0000

> <Gold.Chemscore.Lipo.Weighted>
-8.1931

> <Gold.Chemscore.Internal_Hbond.Weighted>
0.0000

> <Gold.Chemscore.DEClash.Weighted>
0.0650

> <Gold.Chemscore.DEInternal.Weighted>
3.3028

> <Gold.Chemscore.Rot.Weighted>
6.9709

> <Gold.Chemscore.Internal.Correction.Weighted>
   9.000000E+99

> <Gold.Protein.RotatedTorsions>
[ 6907 6896 6895 6894 ] final -140.00 input  -60.11 | X-H torsion
[ 7974 7965 7964 7962 ] final -166.18 input  175.53 | X-H torsion
[ 8008 7997 7996 7995 ] final -157.72 input   59.86 | X-H torsion
[ 10167 10162 10161 10158 ] final  151.89 input  -65.29 | X-H torsion
[ 10718 10713 10712 10709 ] final  165.35 input   66.30 | X-H torsion
[ 10763 10752 10751 10750 ] final  138.02 input  -60.55 | X-H torsion
[ 11005 11000 10999 10996 ] final -113.86 input  -57.11 | X-H torsion

> <Gold.Protein.ActiveResidues>
 VAL166  LYS551  ARG553  GLY616  TRP617  ASP618  TYR619  PRO620  LYS621  CYS622 
 ASP623  PHE694  ASN695  SER759  ASP760  ASP761  ALA762  ILE779  LEU786  VAL792 
 PHE793  MET794  SER795  GLU796  ALA797  LYS798  CYS799  TRP800  GLU811  SER814 

> <Gold.Protein.RotatedAtoms>
  151.0550  133.5592  159.2638 H   0  0  0  0  0  0  0  0  0  0  0  0  # atno 6907 bound_to 6896
  151.2589  135.0646  159.9100 H   0  0  0  0  0  0  0  0  0  0  0  0  # atno 6908 bound_to 6896
  152.5388  134.0298  159.8073 H   0  0  0  0  0  0  0  0  0  0  0  0  # atno 6909 bound_to 6896
  144.7251  140.2704  143.6251 H   0  0  0  0  0  0  0  0  0  0  0  0  # atno 7974 bound_to 7965
  155.7366  140.0809  157.2264 H   0  0  0  0  0  0  0  0  0  0  0  0  # atno 8008 bound_to 7997
  154.4026  140.1585  156.2624 H   0  0  0  0  0  0  0  0  0  0  0  0  # atno 8009 bound_to 7997
  155.9059  140.3407  155.6064 H   0  0  0  0  0  0  0  0  0  0  0  0  # atno 8010 bound_to 7997
  139.4837  144.5404  151.7575 H   0  0  0  0  0  0  0  0  0  0  0  0  # atno 10167 bound_to 10162
  157.0814  131.0393  151.2573 H   0  0  0  0  0  0  0  0  0  0  0  0  # atno 10718 bound_to 10713
  153.8826  135.3042  155.3445 H   0  0  0  0  0  0  0  0  0  0  0  0  # atno 10763 bound_to 10752
  154.7754  135.4864  153.9737 H   0  0  0  0  0  0  0  0  0  0  0  0  # atno 10764 bound_to 10752
  153.1343  135.6810  153.9226 H   0  0  0  0  0  0  0  0  0  0  0  0  # atno 10765 bound_to 10752
  141.0588  133.9569  157.2705 H   0  0  0  0  0  0  0  0  0  0  0  0  # atno 11005 bound_to 11000
  145.8048  139.1979  143.2027 LP  0  0  0  0  0  0  0  0  0  0  0  0  # atno 17320 bound_to 7965
  146.0646  140.7935  142.9718 LP  0  0  0  0  0  0  0  0  0  0  0  0  # atno 17321 bound_to 7965
  140.4942  144.1265  150.5956 LP  0  0  0  0  0  0  0  0  0  0  0  0  # atno 17342 bound_to 10162
  140.4136  143.2645  151.9802 LP  0  0  0  0  0  0  0  0  0  0  0  0  # atno 17343 bound_to 10162
  157.4797  130.7757  149.7402 LP  0  0  0  0  0  0  0  0  0  0  0  0  # atno 17370 bound_to 10713
  155.9922  130.3932  150.2950 LP  0  0  0  0  0  0  0  0  0  0  0  0  # atno 17371 bound_to 10713
  139.9414  135.0190  156.8718 LP  0  0  0  0  0  0  0  0  0  0  0  0  # atno 17394 bound_to 11000
  140.5911  134.0261  155.7500 LP  0  0  0  0  0  0  0  0  0  0  0  0  # atno 17395 bound_to 11000

$$$$
