AV-unprocessed.smi:2821|AV-procd|sdf|10859|dock6
  -GOLD-   2272015303D 1   1.00000     0.00000
 Structure written by MMmdl.
 36 37  0  0  0  0  0  0  0  0  1 V2000
  151.5753  137.8887  159.1253 C   0  0  0  0  0  0  0  0  0  0  0  0
  152.8458  137.8403  158.2736 C   0  0  0  0  0  0  0  0  0  0  0  0
  152.8457  138.9550  157.3869 O   0  0  0  0  0  0  0  0  0  0  0  0
  151.9389  138.9617  156.3473 C   0  0  0  0  0  0  0  0  0  0  0  0
  151.7270  140.1492  155.6148 C   0  0  0  0  0  0  0  0  0  0  0  0
  150.8603  140.2058  154.5798 N   0  0  0  0  0  0  0  0  0  0  0  0
  150.2057  139.0635  154.2754 C   0  0  0  0  0  0  0  0  0  0  0  0
  150.4091  137.8669  154.9974 C   0  0  0  0  0  0  0  0  0  0  0  0
  149.7057  136.7123  154.6245 N   0  0  0  0  0  0  0  0  0  0  0  0
  149.4954  135.6023  155.5531 C   0  0  1  0  0  0  0  0  0  0  0  0
  148.0125  135.5323  155.9460 C   0  0  0  0  0  0  0  0  0  0  0  0
  149.9876  134.2469  154.9863 C   0  0  1  0  0  0  0  0  0  0  0  0
  149.9360  133.0508  155.9551 C   0  0  0  0  0  0  0  0  0  0  0  0
  148.9266  132.1166  155.3162 C   0  0  0  0  0  0  0  0  0  0  0  0
  149.0605  132.4602  153.8398 C   0  0  0  0  0  0  0  0  0  0  0  0
  149.2169  133.8694  153.8480 O   0  0  0  0  0  0  0  0  0  0  0  0
  151.2695  137.8220  156.0419 N   0  0  0  0  0  0  0  0  0  0  0  0
  151.5373  137.0459  159.8155 H   0  0  0  0  0  0  0  0  0  0  0  0
  150.6833  137.8499  158.4998 H   0  0  0  0  0  0  0  0  0  0  0  0
  151.5337  138.8054  159.7139 H   0  0  0  0  0  0  0  0  0  0  0  0
  153.7221  137.8693  158.9238 H   0  0  0  0  0  0  0  0  0  0  0  0
  152.8742  136.9063  157.7098 H   0  0  0  0  0  0  0  0  0  0  0  0
  152.2585  141.0573  155.8585 H   0  0  0  0  0  0  0  0  0  0  0  0
  149.5178  139.1055  153.4433 H   0  0  0  0  0  0  0  0  0  0  0  0
  149.5886  136.5242  153.6395 H   0  0  0  0  0  0  0  0  0  0  0  0
  150.0458  135.8055  156.4723 H   0  0  0  0  0  0  0  0  0  0  0  0
  147.8367  134.7408  156.6750 H   0  0  0  0  0  0  0  0  0  0  0  0
  147.3759  135.3355  155.0828 H   0  0  0  0  0  0  0  0  0  0  0  0
  147.6818  136.4691  156.3957 H   0  0  0  0  0  0  0  0  0  0  0  0
  151.0139  134.3644  154.6351 H   0  0  0  0  0  0  0  0  0  0  0  0
  150.9136  132.5688  155.9944 H   0  0  0  0  0  0  0  0  0  0  0  0
  149.6618  133.3172  156.9759 H   0  0  0  0  0  0  0  0  0  0  0  0
  149.1194  131.0651  155.5301 H   0  0  0  0  0  0  0  0  0  0  0  0
  147.9211  132.3584  155.6631 H   0  0  0  0  0  0  0  0  0  0  0  0
  149.9501  131.9969  153.4104 H   0  0  0  0  0  0  0  0  0  0  0  0
  148.1929  132.1566  153.2539 H   0  0  0  0  0  0  0  0  0  0  0  0
  1  2  1  0  0  0  0
  1 18  1  0  0  0  0
  1 19  1  0  0  0  0
  1 20  1  0  0  0  0
  2  3  1  0  0  0  0
  2 21  1  0  0  0  0
  2 22  1  0  0  0  0
  3  4  1  0  0  0  0
  4 17  1  0  0  0  0
  4  5  2  0  0  0  0
  5  6  1  0  0  0  0
  5 23  1  0  0  0  0
  6  7  2  0  0  0  0
  7  8  1  0  0  0  0
  7 24  1  0  0  0  0
  8  9  1  0  0  0  0
  8 17  2  0  0  0  0
  9 10  1  0  0  0  0
  9 25  1  0  0  0  0
 10 11  1  0  0  0  0
 10 12  1  0  0  0  0
 10 26  1  0  0  0  0
 11 27  1  0  0  0  0
 11 28  1  0  0  0  0
 11 29  1  0  0  0  0
 12 16  1  0  0  0  0
 12 13  1  0  0  0  0
 12 30  1  0  0  0  0
 13 14  1  0  0  0  0
 13 31  1  0  0  0  0
 13 32  1  0  0  0  0
 14 15  1  0  0  0  0
 14 33  1  0  0  0  0
 14 34  1  0  0  0  0
 15 16  1  0  0  0  0
 15 35  1  0  0  0  0
 15 36  1  0  0  0  0
M  END
> <s_m_source_file>
AV-unprocessed.smi

> <i_m_source_file_index>
2821

> <i_lp_mmshare_version>
43012

> <i_f3d_flags>
0

> <s_epik_input>
W0NIM11bQ0gyXU9jMVtjSF1uW2NIXWMobjEpW05IXVtDQEhdKFtDSDNdKVtDQEBIXTJbQ0gyXVtDSDJdW0NIMl1PMg==

> <s_epik_cmdline>
J2VwaWtfcHl0aG9uJywgJy1waCcsICc3LjAnLCAnLXRuJywgJzgnLCAnLW1hJywgJzIwMCcsICctbWV0YWxfYmluZGluZycsICctaW1hZScsICc8aW5maWxlLm1hZT4nLCAnLW9tYWUnLCAnPG91dGZpbGUubWFlPic=

> <r_lp_tautomer_probability>
1

> <r_epik_Ionization_Penalty>
4.69533e-05

> <r_epik_Ionization_Penalty_Charging>
0

> <r_epik_Ionization_Penalty_Neutral>
4.69533e-05

> <r_epik_State_Penalty>
-0

> <r_epik_Charging_Adjusted_Penalty>
0

> <i_epik_Tot_Q>
0

> <i_epik_Tot_abs_Q>
0

> <r_epik_Metal_State_Penalty>
-0

> <b_epik_Metal_Only>
0

> <s_lp_Force_Field>
OPLS_2005

> <r_lp_Energy>
30.0608

> <b_lp_Chiralities_Consistent>
1

> <s_lp_Variant>
AV-unprocessed.smi:2821-4

> <Gold.Version>
5.8.1

> <Gold.Id.Protein>
6NUR|6NUR_protein|mol2

> <Gold.PLP.Fitness>
36.8077

> <Gold.PLP.PLP>
-25.4630

> <Gold.PLP.part.hbond>
-2.9865

> <Gold.PLP.part.metal>
0.0000

> <Gold.PLP.part.buried>
-3.4534

> <Gold.PLP.part.nonpolar>
-19.4410

> <Gold.PLP.part.repulsive>
0.7703

> <Gold.PLP.ligand.clash>
0.0000

> <Gold.PLP.ligand.torsion>
0.3477

> <Gold.PLP.Chemscore.Hbond>
3.0000

> <Gold.PLP.Chemscore.CHOScore>
1.0000

> <Gold.PLP.Chemscore.Metal>
0.0000

> <Gold.Chemscore.Hbonds>
donor molecule, donor type, donor heavy atom, donor atom, acceptor molecule, acceptor atom, score
      L1  H     9    25       P1  7948  1.00
      P1  H  7989  7998       L1     6  0.89
      P1  H  7997  8008       L1     3  1.00
      L1  C     7    24       P1  7957  1.00

> <Gold.PLP.Chemscore.Internal.Correction>
0.0400

> <Gold.Rescore>
     Score         DG    S(hbond)    S(metal)    S(lipo)     H(rot)  DE(clash)    DE(int)     intcor
     14.48     -14.82       2.26        0.00      49.27       1.55       0.08       0.27       ----

> <Gold.Chemscore.Fitness>
14.4752

> <Gold.Chemscore.DG>
-14.8246

> <Gold.Chemscore.ZeroCoef>
-5.4800

> <Gold.Chemscore.Hbond>
2.2611

> <Gold.Chemscore.Metal>
0.0000

> <Gold.Chemscore.Lipo>
49.2659

> <Gold.Chemscore.Internal_Hbond>
0.0000

> <Gold.Chemscore.DEClash>
0.0784

> <Gold.Chemscore.DEInternal>
0.2710

> <Gold.Chemscore.Rot>
1.5514

> <Gold.Chemscore.Internal.Correction>
   9.000000E+99

> <Gold.Chemscore.Hbonds>
donor molecule, donor type, donor heavy atom, donor atom, acceptor molecule, acceptor atom, score
      L1  H     9    25       P1  7948  0.65
      P1  H  7989  7998       L1     6  0.37
      P1  H  7997  8008       L1     3  0.52

> <Gold.Chemscore.Hbond.Weighted>
-7.5520

> <Gold.Chemscore.Metal.Weighted>
-0.0000

> <Gold.Chemscore.Lipo.Weighted>
-5.7641

> <Gold.Chemscore.Internal_Hbond.Weighted>
0.0000

> <Gold.Chemscore.DEClash.Weighted>
0.0784

> <Gold.Chemscore.DEInternal.Weighted>
0.2710

> <Gold.Chemscore.Rot.Weighted>
3.9715

> <Gold.Chemscore.Internal.Correction.Weighted>
   9.000000E+99

> <Gold.Protein.RotatedTorsions>
[ 6907 6896 6895 6894 ] final  -77.49 input  -60.11 | X-H torsion
[ 7974 7965 7964 7962 ] final  -78.07 input  175.53 | X-H torsion
[ 8008 7997 7996 7995 ] final  -66.86 input   59.86 | X-H torsion
[ 10167 10162 10161 10158 ] final -117.09 input  -65.29 | X-H torsion
[ 10718 10713 10712 10709 ] final  -77.49 input   66.30 | X-H torsion
[ 10763 10752 10751 10750 ] final -126.59 input  -60.55 | X-H torsion
[ 11005 11000 10999 10996 ] final  152.30 input  -57.11 | X-H torsion

> <Gold.Protein.ActiveResidues>
 VAL166  LYS551  ARG553  GLY616  TRP617  ASP618  TYR619  PRO620  LYS621  CYS622 
 ASP623  PHE694  ASN695  SER759  ASP760  ASP761  ALA762  ILE779  LEU786  VAL792 
 PHE793  MET794  SER795  GLU796  ALA797  LYS798  CYS799  TRP800  GLU811  SER814 

> <Gold.Protein.RotatedAtoms>
  150.6997  134.4415  159.5293 H   0  0  0  0  0  0  0  0  0  0  0  0  # atno 6907 bound_to 6896
  152.2124  134.8486  160.0505 H   0  0  0  0  0  0  0  0  0  0  0  0  # atno 6908 bound_to 6896
  151.9367  133.3591  159.3987 H   0  0  0  0  0  0  0  0  0  0  0  0  # atno 6909 bound_to 6896
  145.5913  140.9429  143.1291 H   0  0  0  0  0  0  0  0  0  0  0  0  # atno 7974 bound_to 7965
  154.4762  140.0904  156.7266 H   0  0  0  0  0  0  0  0  0  0  0  0  # atno 8008 bound_to 7997
  155.4591  140.3460  155.4292 H   0  0  0  0  0  0  0  0  0  0  0  0  # atno 8009 bound_to 7997
  156.1119  140.1450  156.9315 H   0  0  0  0  0  0  0  0  0  0  0  0  # atno 8010 bound_to 7997
  140.0722  143.4867  152.1973 H   0  0  0  0  0  0  0  0  0  0  0  0  # atno 10167 bound_to 10162
  156.0144  130.4492  150.3352 H   0  0  0  0  0  0  0  0  0  0  0  0  # atno 10718 bound_to 10713
  154.8746  135.3990  154.3456 H   0  0  0  0  0  0  0  0  0  0  0  0  # atno 10763 bound_to 10752
  153.4249  135.7024  153.6274 H   0  0  0  0  0  0  0  0  0  0  0  0  # atno 10764 bound_to 10752
  153.4921  135.3746  155.2467 H   0  0  0  0  0  0  0  0  0  0  0  0  # atno 10765 bound_to 10752
  140.1296  134.8811  157.2185 H   0  0  0  0  0  0  0  0  0  0  0  0  # atno 11005 bound_to 11000
  144.7350  139.7612  143.7333 LP  0  0  0  0  0  0  0  0  0  0  0  0  # atno 17320 bound_to 7965
  146.1645  139.4771  142.9967 LP  0  0  0  0  0  0  0  0  0  0  0  0  # atno 17321 bound_to 7965
  139.5829  144.7518  151.3593 LP  0  0  0  0  0  0  0  0  0  0  0  0  # atno 17342 bound_to 10162
  140.7120  143.7366  150.7584 LP  0  0  0  0  0  0  0  0  0  0  0  0  # atno 17343 bound_to 10162
  157.1449  131.0306  151.2911 LP  0  0  0  0  0  0  0  0  0  0  0  0  # atno 17370 bound_to 10713
  157.4441  130.7561  149.7094 LP  0  0  0  0  0  0  0  0  0  0  0  0  # atno 17371 bound_to 10713
  140.2860  134.3295  155.7329 LP  0  0  0  0  0  0  0  0  0  0  0  0  # atno 17394 bound_to 11000
  141.2167  133.7506  156.9433 LP  0  0  0  0  0  0  0  0  0  0  0  0  # atno 17395 bound_to 11000

$$$$
