AV-unprocessed.smi:1586|AV-procd|sdf|6384|dock5
  -GOLD-   22720 7 23D 1   1.00000     0.00000
 Structure written by MMmdl.
 46 47  0  0  0  0  0  0  0  0  3 V2000
  144.0748  132.1986  150.1790 C   0  0  0  0  0  0  0  0  0  0  0  0
  144.3969  133.1519  151.3387 C   0  0  0  0  0  0  0  0  0  0  0  0
  145.4366  134.1192  150.9798 N   0  0  0  0  0  0  0  0  0  0  0  0
  145.6455  135.1941  151.9574 C   0  0  0  0  0  0  0  0  0  0  0  0
  146.3011  134.6854  153.2593 C   0  0  0  0  0  0  0  0  0  0  0  0
  147.5893  134.0201  152.9521 N   0  3  0  0  0  0  0  0  0  0  0  0
  148.4062  133.6771  154.1528 C   0  0  1  0  0  0  0  0  0  0  0  0
  149.7750  133.0602  153.8063 C   0  0  0  0  0  0  0  0  0  0  0  0
  148.5438  134.8812  155.1109 C   0  0  0  0  0  0  0  0  0  0  0  0
  147.8343  134.6598  156.3698 N   0  0  0  0  0  0  0  0  0  0  0  0
  148.3861  134.5495  157.5872 C   0  0  0  0  0  0  0  0  0  0  0  0
  149.6120  134.5745  157.7125 O   0  0  0  0  0  0  0  0  0  0  0  0
  147.4810  134.4450  158.5852 N   0  5  0  0  0  0  0  0  0  0  0  0
  147.5601  135.2533  159.6534 C   0  0  0  0  0  0  0  0  0  0  0  0
  147.4638  134.8500  161.0134 C   0  0  0  0  0  0  0  0  0  0  0  0
  147.6159  136.0224  161.6976 C   0  0  0  0  0  0  0  0  0  0  0  0
  147.6177  136.3560  163.1502 C   0  0  0  0  0  0  0  0  0  0  0  0
  147.7968  137.0546  160.8307 O   0  0  0  0  0  0  0  0  0  0  0  0
  147.7664  136.5527  159.5240 N   0  0  0  0  0  0  0  0  0  0  0  0
  147.3860  132.9228  151.9731 C   0  0  0  0  0  0  0  0  0  0  0  0
  146.7234  133.4771  150.6948 C   0  0  0  0  0  0  0  0  0  0  0  0
  143.4018  131.4084  150.5127 H   0  0  0  0  0  0  0  0  0  0  0  0
  144.9774  131.7214  149.7956 H   0  0  0  0  0  0  0  0  0  0  0  0
  143.5833  132.7103  149.3519 H   0  0  0  0  0  0  0  0  0  0  0  0
  143.4890  133.6450  151.6841 H   0  0  0  0  0  0  0  0  0  0  0  0
  144.7594  132.5518  152.1743 H   0  0  0  0  0  0  0  0  0  0  0  0
  146.2909  135.9472  151.5026 H   0  0  0  0  0  0  0  0  0  0  0  0
  144.7070  135.7012  152.1776 H   0  0  0  0  0  0  0  0  0  0  0  0
  146.4796  135.5372  153.9165 H   0  0  0  0  0  0  0  0  0  0  0  0
  145.6399  134.0075  153.7992 H   0  0  0  0  0  0  0  0  0  0  0  0
  147.8495  132.9200  154.7076 H   0  0  0  0  0  0  0  0  0  0  0  0
  150.2783  132.7113  154.7083 H   0  0  0  0  0  0  0  0  0  0  0  0
  150.4380  133.7819  153.3285 H   0  0  0  0  0  0  0  0  0  0  0  0
  149.6722  132.2029  153.1408 H   0  0  0  0  0  0  0  0  0  0  0  0
  149.5957  135.0387  155.3504 H   0  0  0  0  0  0  0  0  0  0  0  0
  148.2070  135.8024  154.6331 H   0  0  0  0  0  0  0  0  0  0  0  0
  146.8265  134.6164  156.3198 H   0  0  0  0  0  0  0  0  0  0  0  0
  147.3054  133.8625  161.4201 H   0  0  0  0  0  0  0  0  0  0  0  0
  147.9099  135.4915  163.7466 H   0  0  0  0  0  0  0  0  0  0  0  0
  146.6260  136.6716  163.4740 H   0  0  0  0  0  0  0  0  0  0  0  0
  148.3173  137.1645  163.3637 H   0  0  0  0  0  0  0  0  0  0  0  0
  148.3452  132.4757  151.7135 H   0  0  0  0  0  0  0  0  0  0  0  0
  146.7783  132.1270  152.4040 H   0  0  0  0  0  0  0  0  0  0  0  0
  146.5851  132.6813  149.9621 H   0  0  0  0  0  0  0  0  0  0  0  0
  147.3847  134.2096  150.2294 H   0  0  0  0  0  0  0  0  0  0  0  0
  148.1337  134.7194  152.4657 H   0  0  0  0  0  0  0  0  0  0  0  0
  1  2  1  0  0  0  0
  1 22  1  0  0  0  0
  1 23  1  0  0  0  0
  1 24  1  0  0  0  0
  2  3  1  0  0  0  0
  2 25  1  0  0  0  0
  2 26  1  0  0  0  0
  3 21  1  0  0  0  0
  3  4  1  0  0  0  0
  4  5  1  0  0  0  0
  4 27  1  0  0  0  0
  4 28  1  0  0  0  0
  5  6  1  0  0  0  0
  5 29  1  0  0  0  0
  5 30  1  0  0  0  0
  6  7  1  0  0  0  0
  6 20  1  0  0  0  0
  6 46  1  0  0  0  0
  7  8  1  0  0  0  0
  7  9  1  0  0  0  0
  7 31  1  0  0  0  0
  8 32  1  0  0  0  0
  8 33  1  0  0  0  0
  8 34  1  0  0  0  0
  9 10  1  0  0  0  0
  9 35  1  0  0  0  0
  9 36  1  0  0  0  0
 10 11  1  0  0  0  0
 10 37  1  0  0  0  0
 11 12  2  0  0  0  0
 11 13  1  0  0  0  0
 13 14  1  0  0  0  0
 14 19  2  0  0  0  0
 14 15  1  0  0  0  0
 15 16  2  0  0  0  0
 15 38  1  0  0  0  0
 16 17  1  0  0  0  0
 16 18  1  0  0  0  0
 17 39  1  0  0  0  0
 17 40  1  0  0  0  0
 17 41  1  0  0  0  0
 18 19  1  0  0  0  0
 20 21  1  0  0  0  0
 20 42  1  0  0  0  0
 20 43  1  0  0  0  0
 21 44  1  0  0  0  0
 21 45  1  0  0  0  0
M  CHG  1   6   1
M  CHG  1  13  -1
M  END
> <s_m_source_file>
AV-unprocessed.smi

> <i_m_source_file_index>
1586

> <i_lp_mmshare_version>
43012

> <i_f3d_flags>
0

> <s_epik_input>
W0NIM11bQ0gyXU4xW0NIMl1bQ0gyXU4oW0NIMl1bQ0gyXTEpW0NASF0oW0NIM10pW0NIMl1bTkhdQyg9TylbTkhdYzJbY0hdYyhbQ0gzXSlvbjI=

> <s_epik_cmdline>
J2VwaWtfcHl0aG9uJywgJy1waCcsICc3LjAnLCAnLXRuJywgJzgnLCAnLW1hJywgJzIwMCcsICctbWV0YWxfYmluZGluZycsICctaW1hZScsICc8aW5maWxlLm1hZT4nLCAnLW9tYWUnLCAnPG91dGZpbGUubWFlPic=

> <r_epik_Ionization_Penalty>
6.35599

> <r_epik_Ionization_Penalty_Charging>
6.35441

> <r_epik_Ionization_Penalty_Neutral>
0.00158318

> <r_epik_State_Penalty>
7.1902

> <r_epik_Charging_Adjusted_Penalty>
13.5446

> <i_epik_Tot_Q>
0

> <i_epik_Tot_abs_Q>
2

> <r_epik_Metal_State_Penalty>
3.12491

> <b_epik_Metal_Only>
1

> <s_lp_Force_Field>
OPLS_2005

> <r_lp_Energy>
11.5798

> <b_lp_Chiralities_Consistent>
1

> <s_lp_Variant>
AV-unprocessed.smi:1586-12

> <Gold.Version>
5.8.1

> <Gold.Id.Protein>
6NUR|6NUR_protein|mol2

> <Gold.PLP.Fitness>
45.6409

> <Gold.PLP.PLP>
-34.8151

> <Gold.PLP.part.hbond>
-4.0000

> <Gold.PLP.part.metal>
0.0000

> <Gold.PLP.part.buried>
-4.7380

> <Gold.PLP.part.nonpolar>
-26.3341

> <Gold.PLP.part.repulsive>
0.1497

> <Gold.PLP.ligand.clash>
0.0000

> <Gold.PLP.ligand.torsion>
1.6536

> <Gold.PLP.Chemscore.Hbond>
4.6480

> <Gold.PLP.Chemscore.CHOScore>
0.0000

> <Gold.PLP.Chemscore.Metal>
0.0000

> <Gold.Chemscore.Hbonds>
donor molecule, donor type, donor heavy atom, donor atom, acceptor molecule, acceptor atom, score
      L1  H     6    46       P1  7948  2.00
      P1  H  6896  6908       L1    12  0.84
      P1  H  6931  6943       L1    18  0.91
      P1  H  6934  6947       L1    18  0.82

> <Gold.PLP.Chemscore.Internal.Correction>
0.1891

> <Gold.Rescore>
     Score         DG    S(hbond)    S(metal)    S(lipo)     H(rot)  DE(clash)    DE(int)     intcor
     17.87     -20.02       2.86        0.00      80.33       1.73       0.38       1.76       ----

> <Gold.Chemscore.Fitness>
17.8747

> <Gold.Chemscore.DG>
-20.0162

> <Gold.Chemscore.ZeroCoef>
-5.4800

> <Gold.Chemscore.Hbond>
2.8604

> <Gold.Chemscore.Metal>
0.0000

> <Gold.Chemscore.Lipo>
80.3310

> <Gold.Chemscore.Internal_Hbond>
0.0000

> <Gold.Chemscore.DEClash>
0.3811

> <Gold.Chemscore.DEInternal>
1.7604

> <Gold.Chemscore.Rot>
1.7250

> <Gold.Chemscore.Internal.Correction>
   9.000000E+99

> <Gold.Chemscore.Hbonds>
donor molecule, donor type, donor heavy atom, donor atom, acceptor molecule, acceptor atom, score
      L1  H     6    46       P1  7948  0.50
      P1  H  6896  6908       L1    12  0.79
      P1  H  6931  6943       L1    18  0.25
      P1  H  6934  6947       L1    18  0.63

> <Gold.Chemscore.Hbond.Weighted>
-9.5536

> <Gold.Chemscore.Metal.Weighted>
-0.0000

> <Gold.Chemscore.Lipo.Weighted>
-9.3987

> <Gold.Chemscore.Internal_Hbond.Weighted>
0.0000

> <Gold.Chemscore.DEClash.Weighted>
0.3811

> <Gold.Chemscore.DEInternal.Weighted>
1.7604

> <Gold.Chemscore.Rot.Weighted>
4.4161

> <Gold.Chemscore.Internal.Correction.Weighted>
   9.000000E+99

> <Gold.Protein.RotatedTorsions>
[ 6907 6896 6895 6894 ] final  124.40 input  -60.11 | X-H torsion
[ 7974 7965 7964 7962 ] final  116.59 input  175.53 | X-H torsion
[ 8008 7997 7996 7995 ] final   43.60 input   59.86 | X-H torsion
[ 10167 10162 10161 10158 ] final -162.85 input  -65.29 | X-H torsion
[ 10718 10713 10712 10709 ] final  168.52 input   66.30 | X-H torsion
[ 10763 10752 10751 10750 ] final -151.80 input  -60.55 | X-H torsion
[ 11005 11000 10999 10996 ] final  -47.96 input  -57.11 | X-H torsion

> <Gold.Protein.ActiveResidues>
 VAL166  LYS551  ARG553  GLY616  TRP617  ASP618  TYR619  PRO620  LYS621  CYS622 
 ASP623  PHE694  ASN695  SER759  ASP760  ASP761  ALA762  ILE779  LEU786  VAL792 
 PHE793  MET794  SER795  GLU796  ALA797  LYS798  CYS799  TRP800  GLU811  SER814 

> <Gold.Protein.RotatedAtoms>
  152.4081  133.6920  159.6373 H   0  0  0  0  0  0  0  0  0  0  0  0  # atno 6907 bound_to 6896
  150.7963  133.8673  159.3257 H   0  0  0  0  0  0  0  0  0  0  0  0  # atno 6908 bound_to 6896
  151.6423  135.1013  160.0195 H   0  0  0  0  0  0  0  0  0  0  0  0  # atno 6909 bound_to 6896
  145.1777  139.3067  143.4434 H   0  0  0  0  0  0  0  0  0  0  0  0  # atno 7974 bound_to 7965
  155.3054  140.3387  155.4246 H   0  0  0  0  0  0  0  0  0  0  0  0  # atno 8008 bound_to 7997
  156.1981  140.1722  156.7994 H   0  0  0  0  0  0  0  0  0  0  0  0  # atno 8009 bound_to 7997
  154.5524  140.0703  156.8674 H   0  0  0  0  0  0  0  0  0  0  0  0  # atno 8010 bound_to 7997
  139.6362  144.0345  152.2056 H   0  0  0  0  0  0  0  0  0  0  0  0  # atno 10167 bound_to 10162
  157.0359  131.0272  151.2729 H   0  0  0  0  0  0  0  0  0  0  0  0  # atno 10718 bound_to 10713
  154.8035  135.3251  154.7490 H   0  0  0  0  0  0  0  0  0  0  0  0  # atno 10763 bound_to 10752
  153.8154  135.6892  153.4839 H   0  0  0  0  0  0  0  0  0  0  0  0  # atno 10764 bound_to 10752
  153.1766  135.4603  154.9917 H   0  0  0  0  0  0  0  0  0  0  0  0  # atno 10765 bound_to 10752
  141.0672  133.6690  156.3373 H   0  0  0  0  0  0  0  0  0  0  0  0  # atno 11005 bound_to 11000
  146.3458  140.1945  142.8589 LP  0  0  0  0  0  0  0  0  0  0  0  0  # atno 17320 bound_to 7965
  145.0168  140.8760  143.5191 LP  0  0  0  0  0  0  0  0  0  0  0  0  # atno 17321 bound_to 7965
  140.0023  144.6284  150.7719 LP  0  0  0  0  0  0  0  0  0  0  0  0  # atno 17342 bound_to 10162
  140.7467  143.2894  151.3372 LP  0  0  0  0  0  0  0  0  0  0  0  0  # atno 17343 bound_to 10162
  157.5142  130.7957  149.7738 LP  0  0  0  0  0  0  0  0  0  0  0  0  # atno 17370 bound_to 10713
  156.0054  130.3858  150.2451 LP  0  0  0  0  0  0  0  0  0  0  0  0  # atno 17371 bound_to 10713
  140.5748  134.5804  157.5466 LP  0  0  0  0  0  0  0  0  0  0  0  0  # atno 17394 bound_to 11000
  139.9488  134.7654  156.0497 LP  0  0  0  0  0  0  0  0  0  0  0  0  # atno 17395 bound_to 11000

$$$$
