AV-unprocessed.smi:2151|AV-procd|sdf|8761|dock2
  -GOLD-   2272011543D 1   1.00000     0.00000
 Structure written by MMmdl.
 39 40  0  0  0  0  0  0  0  0  1 V2000
  151.3270  139.5823  155.3186 C   0  0  0  0  0  0  0  0  0  0  0  0
  150.2580  140.5066  155.9221 C   0  0  1  0  0  0  0  0  0  0  0  0
  150.9296  141.5791  156.6531 N   0  0  0  0  0  0  0  0  0  0  0  0
  151.9030  141.4146  157.5624 C   0  0  0  0  0  0  0  0  0  0  0  0
  152.3542  140.3122  157.8770 O   0  0  0  0  0  0  0  0  0  0  0  0
  152.4237  142.6999  158.2215 C   0  0  0  0  0  0  0  0  0  0  0  0
  152.7206  142.5437  159.6553 N   0  0  0  0  0  0  0  0  0  0  0  0
  153.6027  141.5059  160.0151 C   0  0  0  0  0  0  0  0  0  0  0  0
  153.9580  141.2542  161.2895 C   0  0  0  0  0  0  0  0  0  0  0  0
  154.9653  140.1694  161.6389 C   0  0  0  0  0  0  0  0  0  0  0  0
  155.2780  140.2030  162.9346 F   0  0  0  0  0  0  0  0  0  0  0  0
  154.4518  138.9707  161.3662 F   0  0  0  0  0  0  0  0  0  0  0  0
  156.0883  140.3097  160.9333 F   0  0  0  0  0  0  0  0  0  0  0  0
  153.4038  142.1348  162.2991 C   0  0  0  0  0  0  0  0  0  0  0  0
  152.5707  143.1416  161.9705 C   0  0  0  0  0  0  0  0  0  0  0  0
  152.1838  143.3943  160.5806 C   0  0  0  0  0  0  0  0  0  0  0  0
  151.4264  144.3133  160.2681 O   0  0  0  0  0  0  0  0  0  0  0  0
  149.3257  141.1059  154.8476 C   0  0  1  0  0  0  0  0  0  0  0  0
  148.4585  140.0826  154.1135 C   0  0  0  0  0  0  0  0  0  0  0  0
  147.3315  140.9489  153.5995 C   0  0  0  0  0  0  0  0  0  0  0  0
  147.1309  141.9269  154.7537 C   0  0  0  0  0  0  0  0  0  0  0  0
  148.3813  141.9997  155.4340 O   0  0  0  0  0  0  0  0  0  0  0  0
  150.8757  138.7263  154.8168 H   0  0  0  0  0  0  0  0  0  0  0  0
  151.9883  139.1911  156.0928 H   0  0  0  0  0  0  0  0  0  0  0  0
  151.9430  140.1095  154.5894 H   0  0  0  0  0  0  0  0  0  0  0  0
  149.6599  139.9102  156.6136 H   0  0  0  0  0  0  0  0  0  0  0  0
  150.6181  142.5203  156.4622 H   0  0  0  0  0  0  0  0  0  0  0  0
  153.3080  143.0436  157.6814 H   0  0  0  0  0  0  0  0  0  0  0  0
  151.6797  143.4848  158.0764 H   0  0  0  0  0  0  0  0  0  0  0  0
  153.9849  140.9342  159.1816 H   0  0  0  0  0  0  0  0  0  0  0  0
  153.6586  141.9841  163.3378 H   0  0  0  0  0  0  0  0  0  0  0  0
  152.1762  143.7776  162.7494 H   0  0  0  0  0  0  0  0  0  0  0  0
  149.9068  141.6710  154.1166 H   0  0  0  0  0  0  0  0  0  0  0  0
  148.9917  139.5633  153.3168 H   0  0  0  0  0  0  0  0  0  0  0  0
  148.0693  139.3377  154.8092 H   0  0  0  0  0  0  0  0  0  0  0  0
  147.6521  141.4849  152.7051 H   0  0  0  0  0  0  0  0  0  0  0  0
  146.4307  140.3851  153.3559 H   0  0  0  0  0  0  0  0  0  0  0  0
  146.8107  142.9100  154.4084 H   0  0  0  0  0  0  0  0  0  0  0  0
  146.3806  141.5521  155.4505 H   0  0  0  0  0  0  0  0  0  0  0  0
  1  2  1  0  0  0  0
  1 23  1  0  0  0  0
  1 24  1  0  0  0  0
  1 25  1  0  0  0  0
  2  3  1  0  0  0  0
  2 18  1  0  0  0  0
  2 26  1  0  0  0  0
  3  4  1  0  0  0  0
  3 27  1  0  0  0  0
  4  5  2  0  0  0  0
  4  6  1  0  0  0  0
  6  7  1  0  0  0  0
  6 28  1  0  0  0  0
  6 29  1  0  0  0  0
  7 16  1  0  0  0  0
  7  8  1  0  0  0  0
  8  9  2  0  0  0  0
  8 30  1  0  0  0  0
  9 10  1  0  0  0  0
  9 14  1  0  0  0  0
 10 11  1  0  0  0  0
 10 12  1  0  0  0  0
 10 13  1  0  0  0  0
 14 15  2  0  0  0  0
 14 31  1  0  0  0  0
 15 16  1  0  0  0  0
 15 32  1  0  0  0  0
 16 17  2  0  0  0  0
 18 22  1  0  0  0  0
 18 19  1  0  0  0  0
 18 33  1  0  0  0  0
 19 20  1  0  0  0  0
 19 34  1  0  0  0  0
 19 35  1  0  0  0  0
 20 21  1  0  0  0  0
 20 36  1  0  0  0  0
 20 37  1  0  0  0  0
 21 22  1  0  0  0  0
 21 38  1  0  0  0  0
 21 39  1  0  0  0  0
M  END
> <s_m_source_file>
AV-unprocessed.smi

> <i_m_source_file_index>
2151

> <i_lp_mmshare_version>
43012

> <i_f3d_flags>
0

> <s_epik_input>
TzFbQ0gyXVtDSDJdW0NIMl1bQ0BIXTFbQ0BIXShbQ0gzXSlbTkhdQyg9TylbQ0gyXW4yW2NIXWMoQyhGKShGKUYpW2NIXVtjSF1jMj1P

> <s_epik_cmdline>
J2VwaWtfcHl0aG9uJywgJy1waCcsICc3LjAnLCAnLXRuJywgJzgnLCAnLW1hJywgJzIwMCcsICctbWV0YWxfYmluZGluZycsICctaW1hZScsICc8aW5maWxlLm1hZT4nLCAnLW9tYWUnLCAnPG91dGZpbGUubWFlPic=

> <r_lp_tautomer_probability>
1

> <r_epik_Ionization_Penalty>
4.20109e-08

> <r_epik_Ionization_Penalty_Charging>
1.89977e-08

> <r_epik_Ionization_Penalty_Neutral>
2.30132e-08

> <r_epik_State_Penalty>
-0

> <r_epik_Charging_Adjusted_Penalty>
1.89977e-08

> <i_epik_Tot_Q>
0

> <i_epik_Tot_abs_Q>
0

> <r_epik_Metal_State_Penalty>
-0

> <b_epik_Metal_Only>
0

> <s_lp_Force_Field>
OPLS_2005

> <r_lp_Energy>
30.384

> <b_lp_Chiralities_Consistent>
1

> <s_lp_Variant>
AV-unprocessed.smi:2151-4

> <Gold.Version>
5.8.1

> <Gold.Id.Protein>
6NUR|6NUR_protein|mol2

> <Gold.PLP.Fitness>
45.8908

> <Gold.PLP.PLP>
-46.1678

> <Gold.PLP.part.hbond>
-0.3518

> <Gold.PLP.part.metal>
0.0000

> <Gold.PLP.part.buried>
-3.4424

> <Gold.PLP.part.nonpolar>
-43.4552

> <Gold.PLP.part.repulsive>
2.5344

> <Gold.PLP.ligand.clash>
0.0485

> <Gold.PLP.ligand.torsion>
0.5425

> <Gold.PLP.Chemscore.Hbond>
0.2652

> <Gold.PLP.Chemscore.CHOScore>
0.0000

> <Gold.PLP.Chemscore.Metal>
0.0000

> <Gold.Chemscore.Hbonds>
donor molecule, donor type, donor heavy atom, donor atom, acceptor molecule, acceptor atom, score
      P1  H  7997  8009       L1     5  0.19

> <Gold.PLP.Chemscore.Internal.Correction>
0.0610

> <Gold.Rescore>
     Score         DG    S(hbond)    S(metal)    S(lipo)     H(rot)  DE(clash)    DE(int)     intcor
      9.93     -14.59       0.66        0.00      98.79       1.82       1.45       3.21       ----

> <Gold.Chemscore.Fitness>
9.9312

> <Gold.Chemscore.DG>
-14.5862

> <Gold.Chemscore.ZeroCoef>
-5.4800

> <Gold.Chemscore.Hbond>
0.6630

> <Gold.Chemscore.Metal>
0.0000

> <Gold.Chemscore.Lipo>
98.7881

> <Gold.Chemscore.Internal_Hbond>
0.0000

> <Gold.Chemscore.DEClash>
1.4476

> <Gold.Chemscore.DEInternal>
3.2074

> <Gold.Chemscore.Rot>
1.8228

> <Gold.Chemscore.Internal.Correction>
   9.000000E+99

> <Gold.Chemscore.Hbonds>
donor molecule, donor type, donor heavy atom, donor atom, acceptor molecule, acceptor atom, score
      P1  H  7997  8009       L1     5  0.11

> <Gold.Chemscore.Hbond.Weighted>
-2.2145

> <Gold.Chemscore.Metal.Weighted>
-0.0000

> <Gold.Chemscore.Lipo.Weighted>
-11.5582

> <Gold.Chemscore.Internal_Hbond.Weighted>
0.0000

> <Gold.Chemscore.DEClash.Weighted>
1.4476

> <Gold.Chemscore.DEInternal.Weighted>
3.2074

> <Gold.Chemscore.Rot.Weighted>
4.6665

> <Gold.Chemscore.Internal.Correction.Weighted>
   9.000000E+99

> <Gold.Protein.RotatedTorsions>
[ 6907 6896 6895 6894 ] final  136.23 input  -60.11 | X-H torsion
[ 7974 7965 7964 7962 ] final  -61.79 input  175.53 | X-H torsion
[ 8008 7997 7996 7995 ] final  174.41 input   59.86 | X-H torsion
[ 10167 10162 10161 10158 ] final   34.53 input  -65.29 | X-H torsion
[ 10718 10713 10712 10709 ] final  -79.49 input   66.30 | X-H torsion
[ 10763 10752 10751 10750 ] final  -55.57 input  -60.55 | X-H torsion
[ 11005 11000 10999 10996 ] final -100.79 input  -57.11 | X-H torsion

> <Gold.Protein.ActiveResidues>
 VAL166  LYS551  ARG553  GLY616  TRP617  ASP618  TYR619  PRO620  LYS621  CYS622 
 ASP623  PHE694  ASN695  SER759  ASP760  ASP761  ALA762  ILE779  LEU786  VAL792 
 PHE793  MET794  SER795  GLU796  ALA797  LYS798  CYS799  TRP800  GLU811  SER814 

> <Gold.Protein.RotatedAtoms>
  152.2916  133.5567  159.5561 H   0  0  0  0  0  0  0  0  0  0  0  0  # atno 6907 bound_to 6896
  150.7238  134.0420  159.3778 H   0  0  0  0  0  0  0  0  0  0  0  0  # atno 6908 bound_to 6896
  151.8325  135.0617  160.0489 H   0  0  0  0  0  0  0  0  0  0  0  0  # atno 6909 bound_to 6896
  145.7991  140.8665  143.0240 H   0  0  0  0  0  0  0  0  0  0  0  0  # atno 7974 bound_to 7965
  156.0977  140.1435  156.9509 H   0  0  0  0  0  0  0  0  0  0  0  0  # atno 8008 bound_to 7997
  154.4682  140.0919  156.7122 H   0  0  0  0  0  0  0  0  0  0  0  0  # atno 8009 bound_to 7997
  155.4813  140.3445  155.4342 H   0  0  0  0  0  0  0  0  0  0  0  0  # atno 8010 bound_to 7997
  140.4306  144.1330  150.6159 H   0  0  0  0  0  0  0  0  0  0  0  0  # atno 10167 bound_to 10162
  156.0091  130.4547  150.3656 H   0  0  0  0  0  0  0  0  0  0  0  0  # atno 10718 bound_to 10713
  154.1929  135.6424  153.5065 H   0  0  0  0  0  0  0  0  0  0  0  0  # atno 10763 bound_to 10752
  153.0030  135.5433  154.6396 H   0  0  0  0  0  0  0  0  0  0  0  0  # atno 10764 bound_to 10752
  154.5789  135.2923  155.0725 H   0  0  0  0  0  0  0  0  0  0  0  0  # atno 10765 bound_to 10752
  141.1256  133.8427  157.1149 H   0  0  0  0  0  0  0  0  0  0  0  0  # atno 11005 bound_to 11000
  144.6771  140.0234  143.7483 LP  0  0  0  0  0  0  0  0  0  0  0  0  # atno 17320 bound_to 7965
  145.9896  139.3005  143.0993 LP  0  0  0  0  0  0  0  0  0  0  0  0  # atno 17321 bound_to 7965
  140.4431  143.2518  151.9447 LP  0  0  0  0  0  0  0  0  0  0  0  0  # atno 17342 bound_to 10162
  139.4785  144.5635  151.8202 LP  0  0  0  0  0  0  0  0  0  0  0  0  # atno 17343 bound_to 10162
  157.1743  131.0376  151.2780 LP  0  0  0  0  0  0  0  0  0  0  0  0  # atno 17370 bound_to 10713
  157.4202  130.7433  149.6907 LP  0  0  0  0  0  0  0  0  0  0  0  0  # atno 17371 bound_to 10713
  140.0252  134.9927  157.0672 LP  0  0  0  0  0  0  0  0  0  0  0  0  # atno 17394 bound_to 11000
  140.4374  134.1717  155.7171 LP  0  0  0  0  0  0  0  0  0  0  0  0  # atno 17395 bound_to 11000

$$$$
