AV-unprocessed.smi:1531|AV-procd|sdf|6157|dock3
  -GOLD-   22720 6303D 1   1.00000     0.00000
 Structure written by MMmdl.
 44 45  0  0  0  0  0  0  0  0  1 V2000
  154.4788  141.2481  159.8882 C   0  0  0  0  0  0  0  0  0  0  0  0
  153.1378  141.3958  159.1557 C   0  0  0  0  0  0  0  0  0  0  0  0
  152.3850  142.7083  159.4725 C   0  0  1  0  0  0  0  0  0  0  0  0
  153.0546  143.9088  158.7682 C   0  0  0  0  0  0  0  0  0  0  0  0
  152.3582  145.2358  159.1092 C   0  0  0  0  0  0  0  0  0  0  0  0
  150.8620  145.1837  158.7699 C   0  0  0  0  0  0  0  0  0  0  0  0
  150.1771  143.9988  159.4698 C   0  0  0  0  0  0  0  0  0  0  0  0
  150.8668  142.6557  159.1542 C   0  0  1  0  0  0  0  0  0  0  0  0
  150.6309  142.2766  157.7603 N   0  0  0  0  0  0  0  0  0  0  0  0
  149.4422  141.9868  157.2131 C   0  0  0  0  0  0  0  0  0  0  0  0
  148.3777  142.0137  157.8311 O   0  0  0  0  0  0  0  0  0  0  0  0
  149.5725  141.6691  155.9149 N   0  0  0  0  0  0  0  0  0  0  0  0
  148.5488  141.2715  155.0189 C   0  0  0  0  0  0  0  0  0  0  0  0
  147.5307  142.1261  154.5224 C   0  0  0  0  0  0  0  0  0  0  0  0
  146.7216  141.4786  153.6980 N   0  0  0  0  0  0  0  0  0  0  0  0
  147.2051  140.2116  153.6520 N   0  0  0  0  0  0  0  0  0  0  0  0
  146.5478  139.2203  152.8192 C   0  0  0  0  0  0  0  0  0  0  0  0
  145.8696  138.1448  153.6704 C   0  0  0  0  0  0  0  0  0  0  0  0
  144.5342  138.1080  153.6580 N   0  0  0  0  0  0  0  0  0  0  0  0
  146.5424  137.3556  154.3301 O   0  0  0  0  0  0  0  0  0  0  0  0
  148.3212  140.0506  154.4501 C   0  0  0  0  0  0  0  0  0  0  0  0
  155.0048  140.3547  159.5512 H   0  0  0  0  0  0  0  0  0  0  0  0
  154.3405  141.1560  160.9655 H   0  0  0  0  0  0  0  0  0  0  0  0
  155.1273  142.1046  159.7024 H   0  0  0  0  0  0  0  0  0  0  0  0
  153.3328  141.3538  158.0835 H   0  0  0  0  0  0  0  0  0  0  0  0
  152.5080  140.5331  159.3748 H   0  0  0  0  0  0  0  0  0  0  0  0
  152.4818  142.8786  160.5461 H   0  0  0  0  0  0  0  0  0  0  0  0
  154.1046  143.9707  159.0562 H   0  0  0  0  0  0  0  0  0  0  0  0
  153.0441  143.7596  157.6878 H   0  0  0  0  0  0  0  0  0  0  0  0
  152.4851  145.4529  160.1706 H   0  0  0  0  0  0  0  0  0  0  0  0
  152.8330  146.0546  158.5678 H   0  0  0  0  0  0  0  0  0  0  0  0
  150.3819  146.1166  159.0662 H   0  0  0  0  0  0  0  0  0  0  0  0
  150.7325  145.1006  157.6900 H   0  0  0  0  0  0  0  0  0  0  0  0
  150.1971  144.1644  160.5477 H   0  0  0  0  0  0  0  0  0  0  0  0
  149.1233  143.9585  159.1909 H   0  0  0  0  0  0  0  0  0  0  0  0
  150.4166  141.9069  159.8077 H   0  0  0  0  0  0  0  0  0  0  0  0
  151.4463  142.2271  157.1671 H   0  0  0  0  0  0  0  0  0  0  0  0
  150.5049  141.7034  155.5296 H   0  0  0  0  0  0  0  0  0  0  0  0
  147.3556  143.1720  154.7268 H   0  0  0  0  0  0  0  0  0  0  0  0
  145.8127  139.7215  152.1879 H   0  0  0  0  0  0  0  0  0  0  0  0
  147.2806  138.7611  152.1535 H   0  0  0  0  0  0  0  0  0  0  0  0
  144.0417  137.4139  154.2012 H   0  0  0  0  0  0  0  0  0  0  0  0
  144.0211  138.7755  153.1001 H   0  0  0  0  0  0  0  0  0  0  0  0
  148.8366  139.1050  154.5305 H   0  0  0  0  0  0  0  0  0  0  0  0
  1  2  1  0  0  0  0
  1 22  1  0  0  0  0
  1 23  1  0  0  0  0
  1 24  1  0  0  0  0
  2  3  1  0  0  0  0
  2 25  1  0  0  0  0
  2 26  1  0  0  0  0
  3  8  1  0  0  0  0
  3  4  1  0  0  0  0
  3 27  1  0  0  0  0
  4  5  1  0  0  0  0
  4 28  1  0  0  0  0
  4 29  1  0  0  0  0
  5  6  1  0  0  0  0
  5 30  1  0  0  0  0
  5 31  1  0  0  0  0
  6  7  1  0  0  0  0
  6 32  1  0  0  0  0
  6 33  1  0  0  0  0
  7  8  1  0  0  0  0
  7 34  1  0  0  0  0
  7 35  1  0  0  0  0
  8  9  1  0  0  0  0
  8 36  1  0  0  0  0
  9 10  1  0  0  0  0
  9 37  1  0  0  0  0
 10 11  2  0  0  0  0
 10 12  1  0  0  0  0
 12 13  1  0  0  0  0
 12 38  1  0  0  0  0
 13 21  2  0  0  0  0
 13 14  1  0  0  0  0
 14 15  2  0  0  0  0
 14 39  1  0  0  0  0
 15 16  1  0  0  0  0
 16 17  1  0  0  0  0
 16 21  1  0  0  0  0
 17 18  1  0  0  0  0
 17 40  1  0  0  0  0
 17 41  1  0  0  0  0
 18 19  1  0  0  0  0
 18 20  2  0  0  0  0
 19 42  1  0  0  0  0
 19 43  1  0  0  0  0
 21 44  1  0  0  0  0
M  END
> <s_m_source_file>
AV-unprocessed.smi

> <i_m_source_file_index>
1531

> <i_lp_mmshare_version>
43012

> <i_f3d_flags>
0

> <s_epik_input>
W0NIM11bQ0gyXVtDQEBIXTFbQ0gyXVtDSDJdW0NIMl1bQ0gyXVtDQEhdMVtOSF1DKD1PKVtOSF1jMltjSF1ubihbY0hdMilbQ0gyXUMoPU8pW05IMl0=

> <s_epik_cmdline>
J2VwaWtfcHl0aG9uJywgJy1waCcsICc3LjAnLCAnLXRuJywgJzgnLCAnLW1hJywgJzIwMCcsICctbWV0YWxfYmluZGluZycsICctaW1hZScsICc8aW5maWxlLm1hZT4nLCAnLW9tYWUnLCAnPG91dGZpbGUubWFlPic=

> <r_lp_tautomer_probability>
1

> <r_epik_Ionization_Penalty>
4.83437e-05

> <r_epik_Ionization_Penalty_Charging>
0

> <r_epik_Ionization_Penalty_Neutral>
4.83437e-05

> <r_epik_State_Penalty>
-0

> <r_epik_Charging_Adjusted_Penalty>
0

> <i_epik_Tot_Q>
0

> <i_epik_Tot_abs_Q>
0

> <r_epik_Metal_State_Penalty>
-0

> <b_epik_Metal_Only>
0

> <s_lp_Force_Field>
OPLS_2005

> <r_lp_Energy>
14.4879

> <b_lp_Chiralities_Consistent>
1

> <s_lp_Variant>
AV-unprocessed.smi:1531-2

> <Gold.Version>
5.8.1

> <Gold.Id.Protein>
6NUR|6NUR_protein|mol2

> <Gold.PLP.Fitness>
42.9822

> <Gold.PLP.PLP>
-39.0163

> <Gold.PLP.part.hbond>
-1.5780

> <Gold.PLP.part.metal>
0.0000

> <Gold.PLP.part.buried>
-3.1597

> <Gold.PLP.part.nonpolar>
-35.4968

> <Gold.PLP.part.repulsive>
0.5755

> <Gold.PLP.ligand.clash>
0.0000

> <Gold.PLP.ligand.torsion>
0.9794

> <Gold.PLP.Chemscore.Hbond>
0.9920

> <Gold.PLP.Chemscore.CHOScore>
0.9677

> <Gold.PLP.Chemscore.Metal>
0.0000

> <Gold.Chemscore.Hbonds>
donor molecule, donor type, donor heavy atom, donor atom, acceptor molecule, acceptor atom, score
      L1  H    19    43       P1 10175  1.00
      L1  C    14    39       P1  8028  0.97

> <Gold.PLP.Chemscore.Internal.Correction>
0.0454

> <Gold.Rescore>
     Score         DG    S(hbond)    S(metal)    S(lipo)     H(rot)  DE(clash)    DE(int)     intcor
     15.00     -16.28       1.00        0.00     110.53       2.13       0.09       1.19       ----

> <Gold.Chemscore.Fitness>
14.9975

> <Gold.Chemscore.DG>
-16.2777

> <Gold.Chemscore.ZeroCoef>
-5.4800

> <Gold.Chemscore.Hbond>
0.9963

> <Gold.Chemscore.Metal>
0.0000

> <Gold.Chemscore.Lipo>
110.5279

> <Gold.Chemscore.Internal_Hbond>
0.0000

> <Gold.Chemscore.DEClash>
0.0869

> <Gold.Chemscore.DEInternal>
1.1933

> <Gold.Chemscore.Rot>
2.1335

> <Gold.Chemscore.Internal.Correction>
   9.000000E+99

> <Gold.Chemscore.Hbonds>
donor molecule, donor type, donor heavy atom, donor atom, acceptor molecule, acceptor atom, score
      L1  H    19    43       P1 10175  0.98

> <Gold.Chemscore.Hbond.Weighted>
-3.3278

> <Gold.Chemscore.Metal.Weighted>
-0.0000

> <Gold.Chemscore.Lipo.Weighted>
-12.9318

> <Gold.Chemscore.Internal_Hbond.Weighted>
0.0000

> <Gold.Chemscore.DEClash.Weighted>
0.0869

> <Gold.Chemscore.DEInternal.Weighted>
1.1933

> <Gold.Chemscore.Rot.Weighted>
5.4618

> <Gold.Chemscore.Internal.Correction.Weighted>
   9.000000E+99

> <Gold.Protein.RotatedTorsions>
[ 6907 6896 6895 6894 ] final  119.09 input  -60.11 | X-H torsion
[ 7974 7965 7964 7962 ] final -134.37 input  175.53 | X-H torsion
[ 8008 7997 7996 7995 ] final  101.65 input   59.86 | X-H torsion
[ 10167 10162 10161 10158 ] final   -7.91 input  -65.29 | X-H torsion
[ 10718 10713 10712 10709 ] final  -22.68 input   66.30 | X-H torsion
[ 10763 10752 10751 10750 ] final -137.58 input  -60.55 | X-H torsion
[ 11005 11000 10999 10996 ] final   49.60 input  -57.11 | X-H torsion

> <Gold.Protein.ActiveResidues>
 VAL166  LYS551  ARG553  GLY616  TRP617  ASP618  TYR619  PRO620  LYS621  CYS622 
 ASP623  PHE694  ASN695  SER759  ASP760  ASP761  ALA762  ILE779  LEU786  VAL792 
 PHE793  MET794  SER795  GLU796  ALA797  LYS798  CYS799  TRP800  GLU811  SER814 

> <Gold.Protein.RotatedAtoms>
  152.4497  133.7604  159.6743 H   0  0  0  0  0  0  0  0  0  0  0  0  # atno 6907 bound_to 6896
  150.8405  133.7933  159.3069 H   0  0  0  0  0  0  0  0  0  0  0  0  # atno 6908 bound_to 6896
  151.5559  135.1069  160.0013 H   0  0  0  0  0  0  0  0  0  0  0  0  # atno 6909 bound_to 6896
  144.9109  140.6894  143.5025 H   0  0  0  0  0  0  0  0  0  0  0  0  # atno 7974 bound_to 7965
  156.1319  140.3194  155.8362 H   0  0  0  0  0  0  0  0  0  0  0  0  # atno 8008 bound_to 7997
  155.4316  140.0519  157.3035 H   0  0  0  0  0  0  0  0  0  0  0  0  # atno 8009 bound_to 7997
  154.4906  140.2090  155.9570 H   0  0  0  0  0  0  0  0  0  0  0  0  # atno 8010 bound_to 7997
  140.7043  143.6028  150.8781 H   0  0  0  0  0  0  0  0  0  0  0  0  # atno 10167 bound_to 10162
  156.5013  130.4588  149.6699 H   0  0  0  0  0  0  0  0  0  0  0  0  # atno 10718 bound_to 10713
  154.8658  135.3638  154.5246 H   0  0  0  0  0  0  0  0  0  0  0  0  # atno 10763 bound_to 10752
  153.5874  135.7016  153.5442 H   0  0  0  0  0  0  0  0  0  0  0  0  # atno 10764 bound_to 10752
  153.3403  135.4100  155.1528 H   0  0  0  0  0  0  0  0  0  0  0  0  # atno 10765 bound_to 10752
  140.1089  134.4981  155.8695 H   0  0  0  0  0  0  0  0  0  0  0  0  # atno 11005 bound_to 11000
  145.3456  139.1720  143.4462 LP  0  0  0  0  0  0  0  0  0  0  0  0  # atno 17320 bound_to 7965
  146.3158  140.3502  142.8655 LP  0  0  0  0  0  0  0  0  0  0  0  0  # atno 17321 bound_to 7965
  139.9752  143.6012  152.2961 LP  0  0  0  0  0  0  0  0  0  0  0  0  # atno 17342 bound_to 10162
  139.6613  144.7662  151.1957 LP  0  0  0  0  0  0  0  0  0  0  0  0  # atno 17343 bound_to 10162
  156.3330  130.7341  151.2274 LP  0  0  0  0  0  0  0  0  0  0  0  0  # atno 17370 bound_to 10713
  157.7462  131.0424  150.4695 LP  0  0  0  0  0  0  0  0  0  0  0  0  # atno 17371 bound_to 10713
  141.2125  133.6721  156.6667 LP  0  0  0  0  0  0  0  0  0  0  0  0  # atno 17394 bound_to 11000
  140.3117  134.8080  157.4182 LP  0  0  0  0  0  0  0  0  0  0  0  0  # atno 17395 bound_to 11000

$$$$
