AV-unprocessed.smi:767|AV-procd|sdf|3662|dock4
  -GOLD-   22720 1 73D 1   1.00000     0.00000
 Structure written by MMmdl.
 47 49  0  0  0  0  0  0  0  0  1 V2000
  150.9819  141.2338  155.8502 C   0  0  0  0  0  0  0  0  0  0  0  0
  150.9434  139.7247  155.7314 C   0  0  0  0  0  0  0  0  0  0  0  0
  150.8373  138.9161  156.8819 C   0  0  0  0  0  0  0  0  0  0  0  0
  150.8001  137.5185  156.7176 C   0  0  0  0  0  0  0  0  0  0  0  0
  150.8657  136.9838  155.4147 C   0  0  0  0  0  0  0  0  0  0  0  0
  150.7915  135.4832  155.1847 C   0  0  0  0  0  0  0  0  0  0  0  0
  149.3799  134.8937  155.3865 C   0  0  0  0  0  0  0  0  0  0  0  0
  148.5553  134.9660  154.1844 N   0  0  0  0  0  0  0  0  0  0  0  0
  147.2824  134.5596  154.0927 C   0  0  0  0  0  0  0  0  0  0  0  0
  146.6575  134.0263  155.0092 O   0  0  0  0  0  0  0  0  0  0  0  0
  146.7673  134.8329  152.8879 N   0  0  0  0  0  0  0  0  0  0  0  0
  145.3849  134.5738  152.4820 C   0  0  1  0  0  0  0  0  0  0  0  0
  144.6375  135.8436  152.0068 C   0  0  1  0  0  0  0  0  0  0  0  0
  145.1659  137.2399  152.2231 C   0  0  0  0  0  0  0  0  0  0  0  0
  145.9012  137.5382  150.9129 C   0  0  0  0  0  0  0  0  0  0  0  0
  146.1278  136.2624  150.3155 O   0  0  0  0  0  0  0  0  0  0  0  0
  144.9929  135.4412  150.5852 C   0  0  1  0  0  0  0  0  0  0  0  0
  145.2831  133.9967  151.0451 C   0  0  0  0  0  0  0  0  0  0  0  0
  146.5163  133.3193  150.4320 C   0  0  0  0  0  0  0  0  0  0  0  0
  144.1141  133.0283  150.8387 C   0  0  0  0  0  0  0  0  0  0  0  0
  150.9825  137.8801  154.3315 C   0  0  0  0  0  0  0  0  0  0  0  0
  151.0195  139.2219  154.4793 N   0  0  0  0  0  0  0  0  0  0  0  0
  150.4631  141.5654  156.7502 H   0  0  0  0  0  0  0  0  0  0  0  0
  150.5022  141.7055  154.9918 H   0  0  0  0  0  0  0  0  0  0  0  0
  152.0144  141.5801  155.9010 H   0  0  0  0  0  0  0  0  0  0  0  0
  150.7792  139.3543  157.8674 H   0  0  0  0  0  0  0  0  0  0  0  0
  150.7079  136.8714  157.5777 H   0  0  0  0  0  0  0  0  0  0  0  0
  151.1430  135.2629  154.1763 H   0  0  0  0  0  0  0  0  0  0  0  0
  151.4891  134.9874  155.8610 H   0  0  0  0  0  0  0  0  0  0  0  0
  149.4646  133.8387  155.6477 H   0  0  0  0  0  0  0  0  0  0  0  0
  148.8773  135.3785  156.2247 H   0  0  0  0  0  0  0  0  0  0  0  0
  148.9742  135.3958  153.3727 H   0  0  0  0  0  0  0  0  0  0  0  0
  147.3613  135.2825  152.2065 H   0  0  0  0  0  0  0  0  0  0  0  0
  144.8145  133.9938  153.2099 H   0  0  0  0  0  0  0  0  0  0  0  0
  143.5651  135.7493  152.1857 H   0  0  0  0  0  0  0  0  0  0  0  0
  144.3660  137.9604  152.3947 H   0  0  0  0  0  0  0  0  0  0  0  0
  145.8371  137.2945  153.0776 H   0  0  0  0  0  0  0  0  0  0  0  0
  145.2725  138.1331  150.2491 H   0  0  0  0  0  0  0  0  0  0  0  0
  146.8358  138.0767  151.0712 H   0  0  0  0  0  0  0  0  0  0  0  0
  144.1803  135.5676  149.8682 H   0  0  0  0  0  0  0  0  0  0  0  0
  146.3432  133.0387  149.3926 H   0  0  0  0  0  0  0  0  0  0  0  0
  146.7841  132.4135  150.9768 H   0  0  0  0  0  0  0  0  0  0  0  0
  147.3909  133.9699  150.4377 H   0  0  0  0  0  0  0  0  0  0  0  0
  143.9345  132.8356  149.7806 H   0  0  0  0  0  0  0  0  0  0  0  0
  143.1857  133.4219  151.2535 H   0  0  0  0  0  0  0  0  0  0  0  0
  144.3000  132.0688  151.3222 H   0  0  0  0  0  0  0  0  0  0  0  0
  151.0357  137.5114  153.3179 H   0  0  0  0  0  0  0  0  0  0  0  0
  1  2  1  0  0  0  0
  1 23  1  0  0  0  0
  1 24  1  0  0  0  0
  1 25  1  0  0  0  0
  2 22  1  0  0  0  0
  2  3  2  0  0  0  0
  3  4  1  0  0  0  0
  3 26  1  0  0  0  0
  4  5  2  0  0  0  0
  4 27  1  0  0  0  0
  5  6  1  0  0  0  0
  5 21  1  0  0  0  0
  6  7  1  0  0  0  0
  6 28  1  0  0  0  0
  6 29  1  0  0  0  0
  7  8  1  0  0  0  0
  7 30  1  0  0  0  0
  7 31  1  0  0  0  0
  8  9  1  0  0  0  0
  8 32  1  0  0  0  0
  9 10  2  0  0  0  0
  9 11  1  0  0  0  0
 11 12  1  0  0  0  0
 11 33  1  0  0  0  0
 12 18  1  0  0  0  0
 12 13  1  0  0  0  0
 12 34  1  0  0  0  0
 13 17  1  0  0  0  0
 13 14  1  0  0  0  0
 13 35  1  0  0  0  0
 14 15  1  0  0  0  0
 14 36  1  0  0  0  0
 14 37  1  0  0  0  0
 15 16  1  0  0  0  0
 15 38  1  0  0  0  0
 15 39  1  0  0  0  0
 16 17  1  0  0  0  0
 17 18  1  0  0  0  0
 17 40  1  0  0  0  0
 18 19  1  0  0  0  0
 18 20  1  0  0  0  0
 19 41  1  0  0  0  0
 19 42  1  0  0  0  0
 19 43  1  0  0  0  0
 20 44  1  0  0  0  0
 20 45  1  0  0  0  0
 20 46  1  0  0  0  0
 21 22  2  0  0  0  0
 21 47  1  0  0  0  0
M  END
> <s_m_source_file>
AV-unprocessed.smi

> <i_m_source_file_index>
767

> <i_lp_mmshare_version>
43012

> <i_f3d_flags>
0

> <s_epik_input>
W0NIM11jMVtjSF1bY0hdYyhbY0hdbjEpW0NIMl1bQ0gyXVtOSF1DKD1PKVtOSF1bQ0BIXTJDKFtDSDNdKShbQ0gzXSlbQ0BIXShbQ0BASF0yMylPW0NIMl1bQ0gyXTM=

> <s_epik_cmdline>
J2VwaWtfcHl0aG9uJywgJy1waCcsICc3LjAnLCAnLXRuJywgJzgnLCAnLW1hJywgJzIwMCcsICctbWV0YWxfYmluZGluZycsICctaW1hZScsICc8aW5maWxlLm1hZT4nLCAnLW9tYWUnLCAnPG91dGZpbGUubWFlPic=

> <r_epik_Ionization_Penalty>
0.0567523

> <r_epik_Ionization_Penalty_Charging>
0

> <r_epik_Ionization_Penalty_Neutral>
0.0567523

> <r_epik_State_Penalty>
0.0489186

> <r_epik_Charging_Adjusted_Penalty>
0.0489186

> <i_epik_Tot_Q>
0

> <i_epik_Tot_abs_Q>
0

> <r_epik_Metal_State_Penalty>
0.044622

> <b_epik_Metal_Only>
0

> <s_lp_Force_Field>
OPLS_2005

> <r_lp_Energy>
33.3409

> <b_lp_Chiralities_Consistent>
1

> <s_lp_Variant>
AV-unprocessed.smi:767-6

> <Gold.Version>
5.8.1

> <Gold.Id.Protein>
6NUR|6NUR_protein|mol2

> <Gold.PLP.Fitness>
42.8882

> <Gold.PLP.PLP>
-31.2792

> <Gold.PLP.part.hbond>
-3.0000

> <Gold.PLP.part.metal>
0.0000

> <Gold.PLP.part.buried>
0.9644

> <Gold.PLP.part.nonpolar>
-29.6847

> <Gold.PLP.part.repulsive>
0.4498

> <Gold.PLP.ligand.clash>
0.0000

> <Gold.PLP.ligand.torsion>
0.4483

> <Gold.PLP.Chemscore.Hbond>
2.9920

> <Gold.PLP.Chemscore.CHOScore>
1.1099

> <Gold.PLP.Chemscore.Metal>
0.0000

> <Gold.Chemscore.Hbonds>
donor molecule, donor type, donor heavy atom, donor atom, acceptor molecule, acceptor atom, score
      L1  H     8    32       P1  7948  1.00
      L1  H    11    33       P1  7948  0.98
      P1  H  7989  7998       L1    22  1.00
      L1  C    21    47       P1  7948  0.06
      L1  C    21    47       P1  7949  1.00

> <Gold.PLP.Chemscore.Internal.Correction>
0.1997

> <Gold.Rescore>
     Score         DG    S(hbond)    S(metal)    S(lipo)     H(rot)  DE(clash)    DE(int)     intcor
     19.17     -21.28       2.79        0.00      87.02       1.45       1.81       0.30       ----

> <Gold.Chemscore.Fitness>
19.1653

> <Gold.Chemscore.DG>
-21.2768

> <Gold.Chemscore.ZeroCoef>
-5.4800

> <Gold.Chemscore.Hbond>
2.7923

> <Gold.Chemscore.Metal>
0.0000

> <Gold.Chemscore.Lipo>
87.0248

> <Gold.Chemscore.Internal_Hbond>
0.0000

> <Gold.Chemscore.DEClash>
1.8124

> <Gold.Chemscore.DEInternal>
0.2991

> <Gold.Chemscore.Rot>
1.4497

> <Gold.Chemscore.Internal.Correction>
   9.000000E+99

> <Gold.Chemscore.Hbonds>
donor molecule, donor type, donor heavy atom, donor atom, acceptor molecule, acceptor atom, score
      L1  H     8    32       P1  7948  0.59
      L1  H    11    33       P1  7948  0.93
      P1  H  7989  7998       L1    22  0.24

> <Gold.Chemscore.Hbond.Weighted>
-9.3262

> <Gold.Chemscore.Metal.Weighted>
-0.0000

> <Gold.Chemscore.Lipo.Weighted>
-10.1819

> <Gold.Chemscore.Internal_Hbond.Weighted>
0.0000

> <Gold.Chemscore.DEClash.Weighted>
1.8124

> <Gold.Chemscore.DEInternal.Weighted>
0.2991

> <Gold.Chemscore.Rot.Weighted>
3.7112

> <Gold.Chemscore.Internal.Correction.Weighted>
   9.000000E+99

> <Gold.Protein.RotatedTorsions>
[ 6907 6896 6895 6894 ] final -137.74 input  -60.11 | X-H torsion
[ 7974 7965 7964 7962 ] final   84.10 input  175.53 | X-H torsion
[ 8008 7997 7996 7995 ] final  -19.91 input   59.86 | X-H torsion
[ 10167 10162 10161 10158 ] final   61.83 input  -65.29 | X-H torsion
[ 10718 10713 10712 10709 ] final -166.08 input   66.30 | X-H torsion
[ 10763 10752 10751 10750 ] final  -76.24 input  -60.55 | X-H torsion
[ 11005 11000 10999 10996 ] final   -8.36 input  -57.11 | X-H torsion

> <Gold.Protein.ActiveResidues>
 VAL166  LYS551  ARG553  GLY616  TRP617  ASP618  TYR619  PRO620  LYS621  CYS622 
 ASP623  PHE694  ASN695  SER759  ASP760  ASP761  ALA762  ILE779  LEU786  VAL792 
 PHE793  MET794  SER795  GLU796  ALA797  LYS798  CYS799  TRP800  GLU811  SER814 

> <Gold.Protein.RotatedAtoms>
  151.0262  133.5832  159.2665 H   0  0  0  0  0  0  0  0  0  0  0  0  # atno 6907 bound_to 6896
  151.2930  135.0746  159.9221 H   0  0  0  0  0  0  0  0  0  0  0  0  # atno 6908 bound_to 6896
  152.5334  133.9957  159.7925 H   0  0  0  0  0  0  0  0  0  0  0  0  # atno 6909 bound_to 6896
  145.6032  139.2356  143.2234 H   0  0  0  0  0  0  0  0  0  0  0  0  # atno 7974 bound_to 7965
  154.4805  140.2076  155.9775 H   0  0  0  0  0  0  0  0  0  0  0  0  # atno 8008 bound_to 7997
  156.1157  140.3221  155.8106 H   0  0  0  0  0  0  0  0  0  0  0  0  # atno 8009 bound_to 7997
  155.4556  140.0520  157.2987 H   0  0  0  0  0  0  0  0  0  0  0  0  # atno 8010 bound_to 7997
  140.1505  144.4467  150.6761 H   0  0  0  0  0  0  0  0  0  0  0  0  # atno 10167 bound_to 10162
  156.6627  130.9052  151.3031 H   0  0  0  0  0  0  0  0  0  0  0  0  # atno 10718 bound_to 10713
  154.4971  135.5804  153.6503 H   0  0  0  0  0  0  0  0  0  0  0  0  # atno 10763 bound_to 10752
  152.9872  135.6127  154.3050 H   0  0  0  0  0  0  0  0  0  0  0  0  # atno 10764 bound_to 10752
  154.2954  135.2848  155.2615 H   0  0  0  0  0  0  0  0  0  0  0  0  # atno 10765 bound_to 10752
  140.7226  133.8816  155.8832 H   0  0  0  0  0  0  0  0  0  0  0  0  # atno 11005 bound_to 11000
  146.1561  140.6856  142.9299 LP  0  0  0  0  0  0  0  0  0  0  0  0  # atno 17320 bound_to 7965
  144.7301  140.4646  143.6944 LP  0  0  0  0  0  0  0  0  0  0  0  0  # atno 17321 bound_to 7965
  140.6705  143.2284  151.5637 LP  0  0  0  0  0  0  0  0  0  0  0  0  # atno 17342 bound_to 10162
  139.5428  144.2602  152.1384 LP  0  0  0  0  0  0  0  0  0  0  0  0  # atno 17343 bound_to 10162
  157.7104  130.9434  150.1070 LP  0  0  0  0  0  0  0  0  0  0  0  0  # atno 17370 bound_to 10713
  156.1999  130.3659  149.8802 LP  0  0  0  0  0  0  0  0  0  0  0  0  # atno 17371 bound_to 10713
  140.9990  134.1176  157.4335 LP  0  0  0  0  0  0  0  0  0  0  0  0  # atno 17394 bound_to 11000
  139.8844  135.0063  156.6369 LP  0  0  0  0  0  0  0  0  0  0  0  0  # atno 17395 bound_to 11000

$$$$
