AV-unprocessed.smi:1645|AV-procd|sdf|6600|dock2
  -GOLD-   22720 7303D 1   1.00000     0.00000
 Structure written by MMmdl.
 55 58  0  0  0  0  0  0  0  0  2 V2000
  147.3423  136.3838  155.9247 O   0  0  0  0  0  0  0  0  0  0  0  0
  147.8496  136.4342  154.8044 C   0  0  0  0  0  0  0  0  0  0  0  0
  148.8379  137.2678  154.4387 N   0  0  0  0  0  0  0  0  0  0  0  0
  149.4637  138.2738  155.2222 C   0  0  0  0  0  0  0  0  0  0  0  0
  149.3907  138.3358  156.6328 C   0  0  0  0  0  0  0  0  0  0  0  0
  150.0350  139.3931  157.3029 C   0  0  0  0  0  0  0  0  0  0  0  0
  150.7321  140.3663  156.5499 C   0  0  0  0  0  0  0  0  0  0  0  0
  151.3845  141.4311  157.2070 N   0  0  0  0  0  0  0  0  0  0  0  0
  151.7962  141.1480  158.5832 C   0  0  0  0  0  0  0  0  0  0  0  0
  152.8198  142.1829  159.0815 C   0  0  0  0  0  0  0  0  0  0  0  0
  152.2896  143.6137  158.9051 C   0  0  0  0  0  0  0  0  0  0  0  0
  151.8847  143.8467  157.4423 C   0  0  0  0  0  0  0  0  0  0  0  0
  150.8759  142.7848  156.9726 C   0  0  0  0  0  0  0  0  0  0  0  0
  150.7915  140.3098  155.1965 N   0  0  0  0  0  0  0  0  0  0  0  0
  150.1677  139.2978  154.5580 C   0  0  0  0  0  0  0  0  0  0  0  0
  147.4861  135.6321  153.7937 N   0  0  0  0  0  0  0  0  0  0  0  0
  146.4657  134.5908  153.8780 C   0  0  2  0  0  0  0  0  0  0  0  0
  146.9916  133.2845  154.4977 C   0  0  0  0  0  0  0  0  0  0  0  0
  146.2594  132.1544  153.7469 C   0  0  0  0  0  0  0  0  0  0  0  0
  145.3473  132.8344  152.8069 N   0  3  2  0  0  0  0  0  0  0  0  0
  144.9477  132.0878  151.5943 C   0  0  0  0  0  0  0  0  0  0  0  0
  143.9266  132.9238  150.7975 C   0  0  0  0  0  0  0  0  0  0  0  0
  144.4574  134.3409  150.5002 C   0  0  0  0  0  0  0  0  0  0  0  0
  144.9462  135.0337  151.7868 C   0  0  0  0  0  0  0  0  0  0  0  0
  145.9674  134.1335  152.5040 C   0  0  1  0  0  0  0  0  0  0  0  0
  149.2301  137.1256  153.5194 H   0  0  0  0  0  0  0  0  0  0  0  0
  148.8462  137.6040  157.2095 H   0  0  0  0  0  0  0  0  0  0  0  0
  149.9967  139.4419  158.3810 H   0  0  0  0  0  0  0  0  0  0  0  0
  150.9110  141.1664  159.2203 H   0  0  0  0  0  0  0  0  0  0  0  0
  152.2261  140.1512  158.6760 H   0  0  0  0  0  0  0  0  0  0  0  0
  153.0561  141.9983  160.1299 H   0  0  0  0  0  0  0  0  0  0  0  0
  153.7530  142.0684  158.5284 H   0  0  0  0  0  0  0  0  0  0  0  0
  151.4282  143.7709  159.5555 H   0  0  0  0  0  0  0  0  0  0  0  0
  153.0475  144.3372  159.2075 H   0  0  0  0  0  0  0  0  0  0  0  0
  151.4585  144.8431  157.3247 H   0  0  0  0  0  0  0  0  0  0  0  0
  152.7719  143.8123  156.8087 H   0  0  0  0  0  0  0  0  0  0  0  0
  150.6732  142.9294  155.9106 H   0  0  0  0  0  0  0  0  0  0  0  0
  149.9302  142.9091  157.5020 H   0  0  0  0  0  0  0  0  0  0  0  0
  150.2412  139.3035  153.4801 H   0  0  0  0  0  0  0  0  0  0  0  0
  147.9587  135.7395  152.9080 H   0  0  0  0  0  0  0  0  0  0  0  0
  145.6187  134.9356  154.4753 H   0  0  0  0  0  0  0  0  0  0  0  0
  148.0680  133.1827  154.3503 H   0  0  0  0  0  0  0  0  0  0  0  0
  146.8039  133.2515  155.5713 H   0  0  0  0  0  0  0  0  0  0  0  0
  146.9771  131.5401  153.2008 H   0  0  0  0  0  0  0  0  0  0  0  0
  145.6993  131.5043  154.4198 H   0  0  0  0  0  0  0  0  0  0  0  0
  145.8256  131.8716  150.9837 H   0  0  0  0  0  0  0  0  0  0  0  0
  144.5091  131.1314  151.8811 H   0  0  0  0  0  0  0  0  0  0  0  0
  143.6723  132.4163  149.8666 H   0  0  0  0  0  0  0  0  0  0  0  0
  143.0003  133.0007  151.3685 H   0  0  0  0  0  0  0  0  0  0  0  0
  145.2809  134.2769  149.7878 H   0  0  0  0  0  0  0  0  0  0  0  0
  143.6819  134.9402  150.0225 H   0  0  0  0  0  0  0  0  0  0  0  0
  145.3946  135.9956  151.5381 H   0  0  0  0  0  0  0  0  0  0  0  0
  144.1003  135.2411  152.4435 H   0  0  0  0  0  0  0  0  0  0  0  0
  146.8255  133.9656  151.8488 H   0  0  0  0  0  0  0  0  0  0  0  0
  144.5041  133.0380  153.3246 H   0  0  0  0  0  0  0  0  0  0  0  0
  1  2  2  0  0  0  0
  2  3  1  0  0  0  0
  2 16  1  0  0  0  0
  3  4  1  0  0  0  0
  3 26  1  0  0  0  0
  4 15  1  0  0  0  0
  4  5  2  0  0  0  0
  5  6  1  0  0  0  0
  5 27  1  0  0  0  0
  6  7  2  0  0  0  0
  6 28  1  0  0  0  0
  7  8  1  0  0  0  0
  7 14  1  0  0  0  0
  8 13  1  0  0  0  0
  8  9  1  0  0  0  0
  9 10  1  0  0  0  0
  9 29  1  0  0  0  0
  9 30  1  0  0  0  0
 10 11  1  0  0  0  0
 10 31  1  0  0  0  0
 10 32  1  0  0  0  0
 11 12  1  0  0  0  0
 11 33  1  0  0  0  0
 11 34  1  0  0  0  0
 12 13  1  0  0  0  0
 12 35  1  0  0  0  0
 12 36  1  0  0  0  0
 13 37  1  0  0  0  0
 13 38  1  0  0  0  0
 14 15  2  0  0  0  0
 15 39  1  0  0  0  0
 16 17  1  0  0  0  0
 16 40  1  0  0  0  0
 17 25  1  0  0  0  0
 17 18  1  0  0  0  0
 17 41  1  0  0  0  0
 18 19  1  0  0  0  0
 18 42  1  0  0  0  0
 18 43  1  0  0  0  0
 19 20  1  0  0  0  0
 19 44  1  0  0  0  0
 19 45  1  0  0  0  0
 20 25  1  0  0  0  0
 20 21  1  0  0  0  0
 20 55  1  0  0  0  0
 21 22  1  0  0  0  0
 21 46  1  0  0  0  0
 21 47  1  0  0  0  0
 22 23  1  0  0  0  0
 22 48  1  0  0  0  0
 22 49  1  0  0  0  0
 23 24  1  0  0  0  0
 23 50  1  0  0  0  0
 23 51  1  0  0  0  0
 24 25  1  0  0  0  0
 24 52  1  0  0  0  0
 24 53  1  0  0  0  0
 25 54  1  0  0  0  0
M  CHG  1  20   1
M  END
> <s_m_source_file>
AV-unprocessed.smi

> <i_m_source_file_index>
1645

> <i_lp_mmshare_version>
43012

> <i_f3d_flags>
0

> <s_epik_input>
W0NIMl0xW0NIMl1bQ0gyXVtDSDJdW0NASF0oTjEyKVtDQEBIXShbQ0gyXVtDSDJdMilbTkhdQyg9TylbTkhdYzNbY0hdW2NIXWMobltjSF0zKU40W0NIMl1bQ0gyXVtDSDJdW0NIMl1bQ0gyXTQ=

> <s_epik_cmdline>
J2VwaWtfcHl0aG9uJywgJy1waCcsICc3LjAnLCAnLXRuJywgJzgnLCAnLW1hJywgJzIwMCcsICctbWV0YWxfYmluZGluZycsICctaW1hZScsICc8aW5maWxlLm1hZT4nLCAnLW9tYWUnLCAnPG91dGZpbGUubWFlPic=

> <r_lp_tautomer_probability>
1

> <r_epik_Ionization_Penalty>
0.0808019

> <r_epik_Ionization_Penalty_Charging>
0.000974069

> <r_epik_Ionization_Penalty_Neutral>
0.0798278

> <r_epik_State_Penalty>
0.0653665

> <r_epik_Charging_Adjusted_Penalty>
0.0663406

> <i_epik_Tot_Q>
1

> <i_epik_Tot_abs_Q>
1

> <r_epik_Metal_State_Penalty>
0.0585673

> <b_epik_Metal_Only>
0

> <s_lp_Force_Field>
OPLS_2005

> <r_lp_Energy>
50.8313

> <b_lp_Chiralities_Consistent>
1

> <s_lp_Variant>
AV-unprocessed.smi:1645-1

> <Gold.Version>
5.8.1

> <Gold.Id.Protein>
6NUR|6NUR_protein|mol2

> <Gold.PLP.Fitness>
46.3282

> <Gold.PLP.PLP>
-36.9936

> <Gold.PLP.part.hbond>
-2.9599

> <Gold.PLP.part.metal>
0.0000

> <Gold.PLP.part.buried>
-5.0675

> <Gold.PLP.part.nonpolar>
-29.9017

> <Gold.PLP.part.repulsive>
0.1067

> <Gold.PLP.ligand.clash>
0.0000

> <Gold.PLP.ligand.torsion>
0.7326

> <Gold.PLP.Chemscore.Hbond>
2.4620

> <Gold.PLP.Chemscore.CHOScore>
1.0000

> <Gold.PLP.Chemscore.Metal>
0.0000

> <Gold.Chemscore.Hbonds>
donor molecule, donor type, donor heavy atom, donor atom, acceptor molecule, acceptor atom, score
      L1  H     3    26       P1  7948  0.90
      L1  H    16    40       P1  7948  0.96
      P1  H  7989  7998       L1    14  0.55
      L1  C    15    39       P1  7957  1.00

> <Gold.PLP.Chemscore.Internal.Correction>
0.4137

> <Gold.Rescore>
     Score         DG    S(hbond)    S(metal)    S(lipo)     H(rot)  DE(clash)    DE(int)     intcor
     19.03     -21.07       1.94        0.00     103.67       1.17       0.09       1.95       ----

> <Gold.Chemscore.Fitness>
19.0343

> <Gold.Chemscore.DG>
-21.0723

> <Gold.Chemscore.ZeroCoef>
-5.4800

> <Gold.Chemscore.Hbond>
1.9359

> <Gold.Chemscore.Metal>
0.0000

> <Gold.Chemscore.Lipo>
103.6733

> <Gold.Chemscore.Internal_Hbond>
0.0000

> <Gold.Chemscore.DEClash>
0.0915

> <Gold.Chemscore.DEInternal>
1.9466

> <Gold.Chemscore.Rot>
1.1731

> <Gold.Chemscore.Internal.Correction>
   9.000000E+99

> <Gold.Chemscore.Hbonds>
donor molecule, donor type, donor heavy atom, donor atom, acceptor molecule, acceptor atom, score
      L1  H     3    26       P1  7948  0.87
      L1  H    16    40       P1  7948  0.91
      P1  H  7989  7998       L1    14  0.03

> <Gold.Chemscore.Hbond.Weighted>
-6.4658

> <Gold.Chemscore.Metal.Weighted>
-0.0000

> <Gold.Chemscore.Lipo.Weighted>
-12.1298

> <Gold.Chemscore.Internal_Hbond.Weighted>
0.0000

> <Gold.Chemscore.DEClash.Weighted>
0.0915

> <Gold.Chemscore.DEInternal.Weighted>
1.9466

> <Gold.Chemscore.Rot.Weighted>
3.0032

> <Gold.Chemscore.Internal.Correction.Weighted>
   9.000000E+99

> <Gold.Protein.RotatedTorsions>
[ 6907 6896 6895 6894 ] final  130.34 input  -60.11 | X-H torsion
[ 7974 7965 7964 7962 ] final  123.41 input  175.53 | X-H torsion
[ 8008 7997 7996 7995 ] final   21.24 input   59.86 | X-H torsion
[ 10167 10162 10161 10158 ] final -112.58 input  -65.29 | X-H torsion
[ 10718 10713 10712 10709 ] final  149.43 input   66.30 | X-H torsion
[ 10763 10752 10751 10750 ] final    9.53 input  -60.55 | X-H torsion
[ 11005 11000 10999 10996 ] final  -24.25 input  -57.11 | X-H torsion

> <Gold.Protein.ActiveResidues>
 VAL166  LYS551  ARG553  GLY616  TRP617  ASP618  TYR619  PRO620  LYS621  CYS622 
 ASP623  PHE694  ASN695  SER759  ASP760  ASP761  ALA762  ILE779  LEU786  VAL792 
 PHE793  MET794  SER795  GLU796  ALA797  LYS798  CYS799  TRP800  GLU811  SER814 

> <Gold.Protein.RotatedAtoms>
  152.3535  133.6209  159.5962 H   0  0  0  0  0  0  0  0  0  0  0  0  # atno 6907 bound_to 6896
  150.7553  133.9536  159.3502 H   0  0  0  0  0  0  0  0  0  0  0  0  # atno 6908 bound_to 6896
  151.7384  135.0860  160.0363 H   0  0  0  0  0  0  0  0  0  0  0  0  # atno 6909 bound_to 6896
  145.0962  139.3551  143.4835 H   0  0  0  0  0  0  0  0  0  0  0  0  # atno 7974 bound_to 7965
  154.9477  140.3061  155.5090 H   0  0  0  0  0  0  0  0  0  0  0  0  # atno 8008 bound_to 7997
  156.2990  140.2324  156.4489 H   0  0  0  0  0  0  0  0  0  0  0  0  # atno 8009 bound_to 7997
  154.8085  140.0430  157.1314 H   0  0  0  0  0  0  0  0  0  0  0  0  # atno 8010 bound_to 7997
  140.1212  143.4442  152.1689 H   0  0  0  0  0  0  0  0  0  0  0  0  # atno 10167 bound_to 10162
  157.2962  131.0862  151.1425 H   0  0  0  0  0  0  0  0  0  0  0  0  # atno 10718 bound_to 10713
  153.2130  135.6871  153.8091 H   0  0  0  0  0  0  0  0  0  0  0  0  # atno 10763 bound_to 10752
  153.7317  135.3251  155.3288 H   0  0  0  0  0  0  0  0  0  0  0  0  # atno 10764 bound_to 10752
  154.8231  135.4637  154.0945 H   0  0  0  0  0  0  0  0  0  0  0  0  # atno 10765 bound_to 10752
  140.8827  133.7642  156.0322 H   0  0  0  0  0  0  0  0  0  0  0  0  # atno 11005 bound_to 11000
  146.3530  140.0819  142.8617 LP  0  0  0  0  0  0  0  0  0  0  0  0  # atno 17320 bound_to 7965
  145.1008  140.9345  143.4713 LP  0  0  0  0  0  0  0  0  0  0  0  0  # atno 17321 bound_to 7965
  139.5568  144.7378  151.4272 LP  0  0  0  0  0  0  0  0  0  0  0  0  # atno 17342 bound_to 10162
  140.6871  143.7949  150.7201 LP  0  0  0  0  0  0  0  0  0  0  0  0  # atno 17343 bound_to 10162
  157.2802  130.6746  149.6062 LP  0  0  0  0  0  0  0  0  0  0  0  0  # atno 17370 bound_to 10713
  155.9669  130.4452  150.5492 LP  0  0  0  0  0  0  0  0  0  0  0  0  # atno 17371 bound_to 10713
  140.8441  134.3031  157.5302 LP  0  0  0  0  0  0  0  0  0  0  0  0  # atno 17394 bound_to 11000
  139.8721  134.9432  156.3847 LP  0  0  0  0  0  0  0  0  0  0  0  0  # atno 17395 bound_to 11000

$$$$
