AV-unprocessed.smi:891|AV-procd|sdf|4064|dock1
  -GOLD-   22720 1553D 1   1.00000     0.00000
 Structure written by MMmdl.
 38 38  0  0  0  0  0  0  0  0  1 V2000
  152.9293  143.1438  162.8789 C   0  0  0  0  0  0  0  0  0  0  0  0
  152.5964  142.6282  161.5091 C   0  0  0  0  0  0  0  0  0  0  0  0
  151.5991  143.1685  160.8256 N   0  0  0  0  0  0  0  0  0  0  0  0
  151.5629  142.4962  159.6468 N   0  0  0  0  0  0  0  0  0  0  0  0
  150.5645  142.8676  158.6543 C   0  0  0  0  0  0  0  0  0  0  0  0
  149.8646  141.6492  158.0400 C   0  0  0  0  0  0  0  0  0  0  0  0
  149.8416  140.5683  158.6306 O   0  0  0  0  0  0  0  0  0  0  0  0
  149.2898  141.8462  156.8433 N   0  0  0  0  0  0  0  0  0  0  0  0
  148.5709  140.8394  156.0663 C   0  0  0  0  0  0  0  0  0  0  0  0
  149.0979  140.7211  154.6191 C   0  0  1  0  0  0  0  0  0  0  0  0
  150.1843  139.6329  154.5510 C   0  0  0  0  0  0  0  0  0  0  0  0
  147.9597  140.4618  153.6009 C   0  0  0  0  0  0  0  0  0  0  0  0
  147.5083  138.9962  153.4791 C   0  0  0  0  0  0  0  0  0  0  0  0
  148.2423  138.3312  152.4728 O   0  0  0  0  0  0  0  0  0  0  0  0
  152.5382  141.5138  159.5741 C   0  0  0  0  0  0  0  0  0  0  0  0
  152.7228  140.6256  158.3865 C   0  0  0  0  0  0  0  0  0  0  0  0
  153.2061  141.5878  160.7605 C   0  0  0  0  0  0  0  0  0  0  0  0
  154.5383  140.6074  161.2553 Cl  0  0  0  0  0  0  0  0  0  0  0  0
  153.7819  142.6165  163.3067 H   0  0  0  0  0  0  0  0  0  0  0  0
  152.0873  143.0185  163.5599 H   0  0  0  0  0  0  0  0  0  0  0  0
  153.1784  144.2046  162.8480 H   0  0  0  0  0  0  0  0  0  0  0  0
  149.8322  143.5236  159.1268 H   0  0  0  0  0  0  0  0  0  0  0  0
  151.0408  143.4448  157.8603 H   0  0  0  0  0  0  0  0  0  0  0  0
  149.3581  142.7672  156.4350 H   0  0  0  0  0  0  0  0  0  0  0  0
  148.7043  139.8887  156.5834 H   0  0  0  0  0  0  0  0  0  0  0  0
  147.4964  141.0307  156.0641 H   0  0  0  0  0  0  0  0  0  0  0  0
  149.5721  141.6713  154.3695 H   0  0  0  0  0  0  0  0  0  0  0  0
  149.7656  138.6428  154.7330 H   0  0  0  0  0  0  0  0  0  0  0  0
  150.9606  139.8059  155.2968 H   0  0  0  0  0  0  0  0  0  0  0  0
  150.6791  139.6154  153.5803 H   0  0  0  0  0  0  0  0  0  0  0  0
  147.0993  141.0775  153.8656 H   0  0  0  0  0  0  0  0  0  0  0  0
  148.2637  140.7938  152.6093 H   0  0  0  0  0  0  0  0  0  0  0  0
  147.6095  138.4617  154.4230 H   0  0  0  0  0  0  0  0  0  0  0  0
  146.4523  138.9583  153.2111 H   0  0  0  0  0  0  0  0  0  0  0  0
  148.7213  138.9760  151.9749 H   0  0  0  0  0  0  0  0  0  0  0  0
  153.5014  139.8846  158.5671 H   0  0  0  0  0  0  0  0  0  0  0  0
  153.0117  141.2062  157.5108 H   0  0  0  0  0  0  0  0  0  0  0  0
  151.8024  140.0911  158.1517 H   0  0  0  0  0  0  0  0  0  0  0  0
  1  2  1  0  0  0  0
  1 19  1  0  0  0  0
  1 20  1  0  0  0  0
  1 21  1  0  0  0  0
  2 17  1  0  0  0  0
  2  3  2  0  0  0  0
  3  4  1  0  0  0  0
  4  5  1  0  0  0  0
  4 15  1  0  0  0  0
  5  6  1  0  0  0  0
  5 22  1  0  0  0  0
  5 23  1  0  0  0  0
  6  7  2  0  0  0  0
  6  8  1  0  0  0  0
  8  9  1  0  0  0  0
  8 24  1  0  0  0  0
  9 10  1  0  0  0  0
  9 25  1  0  0  0  0
  9 26  1  0  0  0  0
 10 11  1  0  0  0  0
 10 12  1  0  0  0  0
 10 27  1  0  0  0  0
 11 28  1  0  0  0  0
 11 29  1  0  0  0  0
 11 30  1  0  0  0  0
 12 13  1  0  0  0  0
 12 31  1  0  0  0  0
 12 32  1  0  0  0  0
 13 14  1  0  0  0  0
 13 33  1  0  0  0  0
 13 34  1  0  0  0  0
 14 35  1  0  0  0  0
 15 16  1  0  0  0  0
 15 17  2  0  0  0  0
 16 36  1  0  0  0  0
 16 37  1  0  0  0  0
 16 38  1  0  0  0  0
 17 18  1  0  0  0  0
M  END
> <s_m_source_file>
AV-unprocessed.smi

> <i_m_source_file_index>
891

> <i_lp_mmshare_version>
43012

> <i_f3d_flags>
0

> <s_epik_input>
W0NIM11jMW5uKGMoW0NIM10pYzFDbClbQ0gyXUMoPU8pW05IXVtDSDJdW0NASF0oW0NIM10pW0NIMl1bQ0gyXVtPSF0=

> <s_epik_cmdline>
J2VwaWtfcHl0aG9uJywgJy1waCcsICc3LjAnLCAnLXRuJywgJzgnLCAnLW1hJywgJzIwMCcsICctbWV0YWxfYmluZGluZycsICctaW1hZScsICc8aW5maWxlLm1hZT4nLCAnLW9tYWUnLCAnPG91dGZpbGUubWFlPic=

> <r_lp_tautomer_probability>
1

> <r_epik_Ionization_Penalty>
4.9564e-06

> <r_epik_Ionization_Penalty_Charging>
0

> <r_epik_Ionization_Penalty_Neutral>
4.9564e-06

> <r_epik_State_Penalty>
-0

> <r_epik_Charging_Adjusted_Penalty>
0

> <i_epik_Tot_Q>
0

> <i_epik_Tot_abs_Q>
0

> <r_epik_Metal_State_Penalty>
-0

> <b_epik_Metal_Only>
0

> <s_lp_Force_Field>
OPLS_2005

> <r_lp_Energy>
8.21906

> <b_lp_Chiralities_Consistent>
1

> <s_lp_Variant>
AV-unprocessed.smi:891-2

> <Gold.Version>
5.8.1

> <Gold.Id.Protein>
6NUR|6NUR_protein|mol2

> <Gold.PLP.Fitness>
44.1793

> <Gold.PLP.PLP>
-40.7497

> <Gold.PLP.part.hbond>
-3.0229

> <Gold.PLP.part.metal>
0.0000

> <Gold.PLP.part.buried>
-4.0964

> <Gold.PLP.part.nonpolar>
-32.4578

> <Gold.PLP.part.repulsive>
0.1069

> <Gold.PLP.ligand.clash>
0.0000

> <Gold.PLP.ligand.torsion>
1.3744

> <Gold.PLP.Chemscore.Hbond>
2.0000

> <Gold.PLP.Chemscore.CHOScore>
0.0000

> <Gold.PLP.Chemscore.Metal>
0.0000

> <Gold.Chemscore.Hbonds>
donor molecule, donor type, donor heavy atom, donor atom, acceptor molecule, acceptor atom, score
      L1  H     8    24       P1  8028  0.70
      L1  H    14    35       P1  7957  1.00

> <Gold.PLP.Chemscore.Internal.Correction>
0.1784

> <Gold.Rescore>
     Score         DG    S(hbond)    S(metal)    S(lipo)     H(rot)  DE(clash)    DE(int)     intcor
     15.65     -16.87       1.88        0.00     101.01       2.62       0.34       0.89       ----

> <Gold.Chemscore.Fitness>
15.6460

> <Gold.Chemscore.DG>
-16.8737

> <Gold.Chemscore.ZeroCoef>
-5.4800

> <Gold.Chemscore.Hbond>
1.8845

> <Gold.Chemscore.Metal>
0.0000

> <Gold.Chemscore.Lipo>
101.0127

> <Gold.Chemscore.Internal_Hbond>
0.0000

> <Gold.Chemscore.DEClash>
0.3360

> <Gold.Chemscore.DEInternal>
0.8917

> <Gold.Chemscore.Rot>
2.6247

> <Gold.Chemscore.Internal.Correction>
   9.000000E+99

> <Gold.Chemscore.Hbonds>
donor molecule, donor type, donor heavy atom, donor atom, acceptor molecule, acceptor atom, score
      L1  H     8    24       P1  8028  0.69
      L1  H    14    35       P1  7957  0.91

> <Gold.Chemscore.Hbond.Weighted>
-6.2944

> <Gold.Chemscore.Metal.Weighted>
-0.0000

> <Gold.Chemscore.Lipo.Weighted>
-11.8185

> <Gold.Chemscore.Internal_Hbond.Weighted>
0.0000

> <Gold.Chemscore.DEClash.Weighted>
0.3360

> <Gold.Chemscore.DEInternal.Weighted>
0.8917

> <Gold.Chemscore.Rot.Weighted>
6.7192

> <Gold.Chemscore.Internal.Correction.Weighted>
   9.000000E+99

> <Gold.Protein.RotatedTorsions>
[ 6907 6896 6895 6894 ] final   88.96 input  -60.11 | X-H torsion
[ 7974 7965 7964 7962 ] final   31.77 input  175.53 | X-H torsion
[ 8008 7997 7996 7995 ] final  110.30 input   59.86 | X-H torsion
[ 10167 10162 10161 10158 ] final -168.12 input  -65.29 | X-H torsion
[ 10718 10713 10712 10709 ] final   91.06 input   66.30 | X-H torsion
[ 10763 10752 10751 10750 ] final -116.80 input  -60.55 | X-H torsion
[ 11005 11000 10999 10996 ] final -167.98 input  -57.11 | X-H torsion

> <Gold.Protein.ActiveResidues>
 VAL166  LYS551  ARG553  GLY616  TRP617  ASP618  TYR619  PRO620  LYS621  CYS622 
 ASP623  PHE694  ASN695  SER759  ASP760  ASP761  ALA762  ILE779  LEU786  VAL792 
 PHE793  MET794  SER795  GLU796  ALA797  LYS798  CYS799  TRP800  GLU811  SER814 

> <Gold.Protein.RotatedAtoms>
  152.5431  134.2040  159.8723 H   0  0  0  0  0  0  0  0  0  0  0  0  # atno 6907 bound_to 6896
  151.2027  133.4595  159.2604 H   0  0  0  0  0  0  0  0  0  0  0  0  # atno 6908 bound_to 6896
  151.0974  134.9964  159.8487 H   0  0  0  0  0  0  0  0  0  0  0  0  # atno 6909 bound_to 6896
  146.1529  139.6613  142.9086 H   0  0  0  0  0  0  0  0  0  0  0  0  # atno 7974 bound_to 7965
  156.2042  140.3041  155.9592 H   0  0  0  0  0  0  0  0  0  0  0  0  # atno 8008 bound_to 7997
  155.2880  140.0441  157.3038 H   0  0  0  0  0  0  0  0  0  0  0  0  # atno 8009 bound_to 7997
  154.5611  140.2320  155.8342 H   0  0  0  0  0  0  0  0  0  0  0  0  # atno 8010 bound_to 7997
  139.6005  144.1020  152.1738 H   0  0  0  0  0  0  0  0  0  0  0  0  # atno 10167 bound_to 10162
  157.6960  131.0393  150.3672 H   0  0  0  0  0  0  0  0  0  0  0  0  # atno 10718 bound_to 10713
  154.8532  135.4332  154.1878 H   0  0  0  0  0  0  0  0  0  0  0  0  # atno 10763 bound_to 10752
  153.2953  135.6964  153.7260 H   0  0  0  0  0  0  0  0  0  0  0  0  # atno 10764 bound_to 10752
  153.6411  135.3468  155.3046 H   0  0  0  0  0  0  0  0  0  0  0  0  # atno 10765 bound_to 10752
  140.5472  134.5464  157.5114 H   0  0  0  0  0  0  0  0  0  0  0  0  # atno 11005 bound_to 11000
  145.4779  141.0437  143.2662 LP  0  0  0  0  0  0  0  0  0  0  0  0  # atno 17320 bound_to 7965
  144.7926  139.6297  143.7106 LP  0  0  0  0  0  0  0  0  0  0  0  0  # atno 17321 bound_to 7965
  140.0615  144.5852  150.7259 LP  0  0  0  0  0  0  0  0  0  0  0  0  # atno 17342 bound_to 10162
  140.7246  143.2623  151.4164 LP  0  0  0  0  0  0  0  0  0  0  0  0  # atno 17343 bound_to 10162
  156.4101  130.3932  149.6897 LP  0  0  0  0  0  0  0  0  0  0  0  0  # atno 17370 bound_to 10713
  156.4184  130.7757  151.2773 LP  0  0  0  0  0  0  0  0  0  0  0  0  # atno 17371 bound_to 10713
  139.9473  134.7678  156.0530 LP  0  0  0  0  0  0  0  0  0  0  0  0  # atno 17394 bound_to 11000
  141.1193  133.6618  156.3173 LP  0  0  0  0  0  0  0  0  0  0  0  0  # atno 17395 bound_to 11000

$$$$
