AV-unprocessed.smi:21|AV-procd|sdf|159|dock5
  -GOLD-   2262015393D 1   1.00000     0.00000
 Structure written by MMmdl.
 61 64  0  0  0  0  0  0  0  0  1 V2000
  144.7472  132.0307  150.3653 C   0  0  0  0  0  0  0  0  0  0  0  0
  144.6491  133.4455  150.3448 O   0  0  0  0  0  0  0  0  0  0  0  0
  145.6452  134.0934  151.1237 C   0  0  1  0  0  0  0  0  0  0  0  0
  145.4358  135.6154  151.0991 C   0  0  0  0  0  0  0  0  0  0  0  0
  145.1696  135.9976  152.5643 C   0  0  2  0  0  0  0  0  0  0  0  0
  145.6012  137.4381  152.9175 C   0  0  0  0  0  0  0  0  0  0  0  0
  145.0842  137.8799  154.2131 N   0  0  0  0  0  0  0  0  0  0  0  0
  143.6480  138.0770  154.3595 C   0  0  0  0  0  0  0  0  0  0  0  0
  145.9322  138.4955  155.0790 C   0  0  0  0  0  0  0  0  0  0  0  0
  145.6580  138.4091  156.4071 N   0  0  0  0  0  0  0  0  0  0  0  0
  146.4561  138.9914  157.3059 C   0  0  0  0  0  0  0  0  0  0  0  0
  147.5675  139.6982  157.0993 N   0  0  0  0  0  0  0  0  0  0  0  0
  147.8560  139.7861  155.7700 C   0  0  0  0  0  0  0  0  0  0  0  0
  147.1023  139.2205  154.7011 C   0  0  0  0  0  0  0  0  0  0  0  0
  147.7281  139.5047  153.4914 N   0  0  0  0  0  0  0  0  0  0  0  0
  148.7798  140.2008  153.8240 C   0  0  0  0  0  0  0  0  0  0  0  0
  148.9220  140.4351  155.1721 N   0  0  0  0  0  0  0  0  0  0  0  0
  149.9952  141.1703  155.8172 C   0  0  0  0  0  0  0  0  0  0  0  0
  150.7081  140.4090  156.9697 C   0  0  1  0  0  0  0  0  0  0  0  0
  151.5462  139.2540  156.3691 C   0  0  0  0  0  0  0  0  0  0  0  0
  152.5285  139.7401  155.4775 O   0  0  0  0  0  0  0  0  0  0  0  0
  151.5756  141.3391  157.8708 C   0  0  2  0  0  0  0  0  0  0  0  0
  152.2081  140.6650  159.0802 C   0  0  0  0  0  0  0  0  0  0  0  0
  152.5475  141.8492  159.9720 C   0  0  0  0  0  0  0  0  0  0  0  0
  151.4374  142.7180  159.8231 O   0  0  0  0  0  0  0  0  0  0  0  0
  150.8245  142.4958  158.5564 C   0  0  0  0  0  0  0  0  0  0  0  0
  145.8322  134.9600  153.3383 N   0  0  0  0  0  0  0  0  0  0  0  0
  145.3977  134.8929  154.7273 C   0  0  0  0  0  0  0  0  0  0  0  0
  145.5310  133.7414  152.6129 C   0  0  0  0  0  0  0  0  0  0  0  0
  146.6435  133.8648  150.7459 H   0  0  0  0  0  0  0  0  0  0  0  0
  144.0948  135.9080  152.7332 H   0  0  0  0  0  0  0  0  0  0  0  0
  143.9676  131.6027  149.7353 H   0  0  0  0  0  0  0  0  0  0  0  0
  144.6180  131.6336  151.3726 H   0  0  0  0  0  0  0  0  0  0  0  0
  145.7109  131.6972  149.9786 H   0  0  0  0  0  0  0  0  0  0  0  0
  146.3404  136.1004  150.7295 H   0  0  0  0  0  0  0  0  0  0  0  0
  144.6129  135.9160  150.4492 H   0  0  0  0  0  0  0  0  0  0  0  0
  146.6881  137.4945  152.9722 H   0  0  0  0  0  0  0  0  0  0  0  0
  145.3164  138.1204  152.1164 H   0  0  0  0  0  0  0  0  0  0  0  0
  143.3530  138.0419  155.4087 H   0  0  0  0  0  0  0  0  0  0  0  0
  143.1017  137.2927  153.8355 H   0  0  0  0  0  0  0  0  0  0  0  0
  143.3438  139.0363  153.9409 H   0  0  0  0  0  0  0  0  0  0  0  0
  146.1611  138.8744  158.3383 H   0  0  0  0  0  0  0  0  0  0  0  0
  149.4777  140.5740  153.0887 H   0  0  0  0  0  0  0  0  0  0  0  0
  150.7074  141.4346  155.0352 H   0  0  0  0  0  0  0  0  0  0  0  0
  149.5922  142.1128  156.1902 H   0  0  0  0  0  0  0  0  0  0  0  0
  149.9488  139.9512  157.6050 H   0  0  0  0  0  0  0  0  0  0  0  0
  152.0279  138.6730  157.1560 H   0  0  0  0  0  0  0  0  0  0  0  0
  150.9272  138.5657  155.7957 H   0  0  0  0  0  0  0  0  0  0  0  0
  152.1081  139.9698  154.6631 H   0  0  0  0  0  0  0  0  0  0  0  0
  152.3838  141.7601  157.2703 H   0  0  0  0  0  0  0  0  0  0  0  0
  151.4872  140.0168  159.5809 H   0  0  0  0  0  0  0  0  0  0  0  0
  153.0903  140.0746  158.8316 H   0  0  0  0  0  0  0  0  0  0  0  0
  152.7004  141.5658  161.0134 H   0  0  0  0  0  0  0  0  0  0  0  0
  153.4469  142.3532  159.6156 H   0  0  0  0  0  0  0  0  0  0  0  0
  150.8613  143.4110  157.9670 H   0  0  0  0  0  0  0  0  0  0  0  0
  149.7771  142.2477  158.7300 H   0  0  0  0  0  0  0  0  0  0  0  0
  145.8809  134.0601  155.2390 H   0  0  0  0  0  0  0  0  0  0  0  0
  144.3184  134.7540  154.7994 H   0  0  0  0  0  0  0  0  0  0  0  0
  145.6605  135.8037  155.2649 H   0  0  0  0  0  0  0  0  0  0  0  0
  144.5094  133.4255  152.8319 H   0  0  0  0  0  0  0  0  0  0  0  0
  146.1974  132.9274  152.8998 H   0  0  0  0  0  0  0  0  0  0  0  0
  1  2  1  0  0  0  0
  1 32  1  0  0  0  0
  1 33  1  0  0  0  0
  1 34  1  0  0  0  0
  2  3  1  0  0  0  0
  3 30  1  0  0  0  0
  3 29  1  0  0  0  0
  3  4  1  0  0  0  0
  4  5  1  0  0  0  0
  4 35  1  0  0  0  0
  4 36  1  0  0  0  0
  5 31  1  0  0  0  0
  5  6  1  0  0  0  0
  5 27  1  0  0  0  0
  6  7  1  0  0  0  0
  6 37  1  0  0  0  0
  6 38  1  0  0  0  0
  7  8  1  0  0  0  0
  7  9  1  0  0  0  0
  8 39  1  0  0  0  0
  8 40  1  0  0  0  0
  8 41  1  0  0  0  0
  9 14  1  0  0  0  0
  9 10  2  0  0  0  0
 10 11  1  0  0  0  0
 11 12  2  0  0  0  0
 11 42  1  0  0  0  0
 12 13  1  0  0  0  0
 13 17  1  0  0  0  0
 13 14  2  0  0  0  0
 14 15  1  0  0  0  0
 15 16  2  0  0  0  0
 16 17  1  0  0  0  0
 16 43  1  0  0  0  0
 17 18  1  0  0  0  0
 18 19  1  0  0  0  0
 18 44  1  0  0  0  0
 18 45  1  0  0  0  0
 19 20  1  0  0  0  0
 19 22  1  0  0  0  0
 19 46  1  0  0  0  0
 20 21  1  0  0  0  0
 20 47  1  0  0  0  0
 20 48  1  0  0  0  0
 21 49  1  0  0  0  0
 22 26  1  0  0  0  0
 22 23  1  0  0  0  0
 22 50  1  0  0  0  0
 23 24  1  0  0  0  0
 23 51  1  0  0  0  0
 23 52  1  0  0  0  0
 24 25  1  0  0  0  0
 24 53  1  0  0  0  0
 24 54  1  0  0  0  0
 25 26  1  0  0  0  0
 26 55  1  0  0  0  0
 26 56  1  0  0  0  0
 27 28  1  0  0  0  0
 27 29  1  0  0  0  0
 28 57  1  0  0  0  0
 28 58  1  0  0  0  0
 28 59  1  0  0  0  0
 29 60  1  0  0  0  0
 29 61  1  0  0  0  0
M  END
> <s_m_source_file>
AV-unprocessed.smi

> <i_m_source_file_index>
21

> <i_lp_mmshare_version>
43012

> <i_f3d_flags>
0

> <s_epik_input>
W0NIM11PW0NASF0xW0NIMl1bQ0BIXShOKFtDSDNdKVtDSDJdMSlbQ0gyXU4oW0NIM10pYyhuW2NIXW4yKWMoYzIzKW5bY0hdbjNbQ0gyXVtDQEhdKFtDSDJdW09IXSlbQ0BASF00W0NIMl1bQ0gyXU9bQ0gyXTQ=

> <s_epik_cmdline>
J2VwaWtfcHl0aG9uJywgJy1waCcsICc3LjAnLCAnLXRuJywgJzgnLCAnLW1hJywgJzIwMCcsICctbWV0YWxfYmluZGluZycsICctaW1hZScsICc8aW5maWxlLm1hZT4nLCAnLW9tYWUnLCAnPG91dGZpbGUubWFlPic=

> <r_lp_tautomer_probability>
1

> <r_epik_Ionization_Penalty>
2.17574

> <r_epik_Ionization_Penalty_Charging>
0

> <r_epik_Ionization_Penalty_Neutral>
2.17574

> <r_epik_State_Penalty>
2.31336

> <r_epik_Charging_Adjusted_Penalty>
2.31336

> <i_epik_Tot_Q>
0

> <i_epik_Tot_abs_Q>
0

> <r_epik_Metal_State_Penalty>
2.31025

> <b_epik_Metal_Only>
0

> <s_lp_Force_Field>
OPLS_2005

> <r_lp_Energy>
70.5477

> <b_lp_Chiralities_Consistent>
1

> <s_lp_Variant>
AV-unprocessed.smi:21-39

> <Gold.Version>
5.8.1

> <Gold.Id.Protein>
6NUR|6NUR_protein|mol2

> <Gold.PLP.Fitness>
40.2801

> <Gold.PLP.PLP>
-35.7237

> <Gold.PLP.part.hbond>
-2.0551

> <Gold.PLP.part.metal>
0.0000

> <Gold.PLP.part.buried>
-5.0690

> <Gold.PLP.part.nonpolar>
-29.7425

> <Gold.PLP.part.repulsive>
1.2496

> <Gold.PLP.ligand.clash>
0.0000

> <Gold.PLP.ligand.torsion>
0.9100

> <Gold.PLP.Chemscore.Hbond>
1.0000

> <Gold.PLP.Chemscore.CHOScore>
0.9008

> <Gold.PLP.Chemscore.Metal>
0.0000

> <Gold.Chemscore.Hbonds>
donor molecule, donor type, donor heavy atom, donor atom, acceptor molecule, acceptor atom, score
      P1  H  7997  8009       L1    21  1.00
      L1  C    16    43       P1  7957  0.89

> <Gold.PLP.Chemscore.Internal.Correction>
0.6740

> <Gold.Rescore>
     Score         DG    S(hbond)    S(metal)    S(lipo)     H(rot)  DE(clash)    DE(int)     intcor
      9.84     -11.19       0.98        0.00      86.53       3.00       0.07       1.29       ----

> <Gold.Chemscore.Fitness>
9.8380

> <Gold.Chemscore.DG>
-11.1933

> <Gold.Chemscore.ZeroCoef>
-5.4800

> <Gold.Chemscore.Hbond>
0.9811

> <Gold.Chemscore.Metal>
0.0000

> <Gold.Chemscore.Lipo>
86.5338

> <Gold.Chemscore.Internal_Hbond>
0.0000

> <Gold.Chemscore.DEClash>
0.0650

> <Gold.Chemscore.DEInternal>
1.2903

> <Gold.Chemscore.Rot>
3.0031

> <Gold.Chemscore.Internal.Correction>
   9.000000E+99

> <Gold.Chemscore.Hbonds>
donor molecule, donor type, donor heavy atom, donor atom, acceptor molecule, acceptor atom, score
      P1  H  7997  8009       L1    21  0.96

> <Gold.Chemscore.Hbond.Weighted>
-3.2769

> <Gold.Chemscore.Metal.Weighted>
-0.0000

> <Gold.Chemscore.Lipo.Weighted>
-10.1245

> <Gold.Chemscore.Internal_Hbond.Weighted>
0.0000

> <Gold.Chemscore.DEClash.Weighted>
0.0650

> <Gold.Chemscore.DEInternal.Weighted>
1.2903

> <Gold.Chemscore.Rot.Weighted>
7.6880

> <Gold.Chemscore.Internal.Correction.Weighted>
   9.000000E+99

> <Gold.Protein.RotatedTorsions>
[ 6907 6896 6895 6894 ] final  -72.20 input  -60.11 | X-H torsion
[ 7974 7965 7964 7962 ] final  169.56 input  175.53 | X-H torsion
[ 8008 7997 7996 7995 ] final -140.49 input   59.86 | X-H torsion
[ 10167 10162 10161 10158 ] final   24.52 input  -65.29 | X-H torsion
[ 10718 10713 10712 10709 ] final  -72.51 input   66.30 | X-H torsion
[ 10763 10752 10751 10750 ] final  -52.68 input  -60.55 | X-H torsion
[ 11005 11000 10999 10996 ] final   17.28 input  -57.11 | X-H torsion

> <Gold.Protein.ActiveResidues>
 VAL166  LYS551  ARG553  GLY616  TRP617  ASP618  TYR619  PRO620  LYS621  CYS622 
 ASP623  PHE694  ASN695  SER759  ASP760  ASP761  ALA762  ILE779  LEU786  VAL792 
 PHE793  MET794  SER795  GLU796  ALA797  LYS798  CYS799  TRP800  GLU811  SER814 

> <Gold.Protein.RotatedAtoms>
  150.7180  134.5198  159.5647 H   0  0  0  0  0  0  0  0  0  0  0  0  # atno 6907 bound_to 6896
  152.2756  134.7883  160.0415 H   0  0  0  0  0  0  0  0  0  0  0  0  # atno 6908 bound_to 6896
  151.8547  133.3411  159.3721 H   0  0  0  0  0  0  0  0  0  0  0  0  # atno 6909 bound_to 6896
  144.7351  139.9073  143.6413 H   0  0  0  0  0  0  0  0  0  0  0  0  # atno 7974 bound_to 7965
  155.4622  140.0546  157.2989 H   0  0  0  0  0  0  0  0  0  0  0  0  # atno 8008 bound_to 7997
  154.4732  140.2049  155.9896 H   0  0  0  0  0  0  0  0  0  0  0  0  # atno 8009 bound_to 7997
  156.1090  140.3207  155.8051 H   0  0  0  0  0  0  0  0  0  0  0  0  # atno 8010 bound_to 7997
  140.5181  144.0048  150.6404 H   0  0  0  0  0  0  0  0  0  0  0  0  # atno 10167 bound_to 10162
  156.0317  130.4374  150.2604 H   0  0  0  0  0  0  0  0  0  0  0  0  # atno 10718 bound_to 10713
  154.1466  135.6496  153.4954 H   0  0  0  0  0  0  0  0  0  0  0  0  # atno 10763 bound_to 10752
  153.0150  135.5328  154.6851 H   0  0  0  0  0  0  0  0  0  0  0  0  # atno 10764 bound_to 10752
  154.6127  135.2955  155.0386 H   0  0  0  0  0  0  0  0  0  0  0  0  # atno 10765 bound_to 10752
  140.4378  134.1353  155.7687 H   0  0  0  0  0  0  0  0  0  0  0  0  # atno 11005 bound_to 11000
  146.1027  139.4024  143.0336 LP  0  0  0  0  0  0  0  0  0  0  0  0  # atno 17320 bound_to 7965
  145.7555  140.9956  143.1227 LP  0  0  0  0  0  0  0  0  0  0  0  0  # atno 17321 bound_to 7965
  140.3389  143.3031  152.0609 LP  0  0  0  0  0  0  0  0  0  0  0  0  # atno 17342 bound_to 10162
  139.4915  144.6456  151.6784 LP  0  0  0  0  0  0  0  0  0  0  0  0  # atno 17343 bound_to 10162
  157.0706  131.0115  151.3191 LP  0  0  0  0  0  0  0  0  0  0  0  0  # atno 17370 bound_to 10713
  157.5002  130.7875  149.7597 LP  0  0  0  0  0  0  0  0  0  0  0  0  # atno 17371 bound_to 10713
  141.1718  133.8592  157.1545 LP  0  0  0  0  0  0  0  0  0  0  0  0  # atno 17394 bound_to 11000
  140.0091  134.9996  157.0356 LP  0  0  0  0  0  0  0  0  0  0  0  0  # atno 17395 bound_to 11000

$$$$
