AV-unprocessed.smi:2630|AV-procd|sdf|10247|dock4
  -GOLD-   2272014253D 1   1.00000     0.00000
 Structure written by MMmdl.
 34 35  0  0  0  0  0  0  0  0  2 V2000
  145.1353  142.6589  156.2872 C   0  0  0  0  0  0  0  0  0  0  0  0
  145.3419  141.3045  155.9292 O   0  0  0  0  0  0  0  0  0  0  0  0
  146.6354  140.8390  156.2758 C   0  0  0  0  0  0  0  0  0  0  0  0
  147.7052  141.7472  155.6455 C   0  0  0  0  0  0  0  0  0  0  0  0
  149.0549  141.1497  155.7328 N   0  0  0  0  0  0  0  0  0  0  0  0
  149.6423  140.9664  157.0127 C   0  0  0  0  0  0  0  0  0  0  0  0
  148.9551  141.3490  158.1531 N   0  0  0  0  0  0  0  0  0  0  0  0
  150.8717  140.4116  157.1044 C   0  0  0  0  0  0  0  0  0  0  0  0
  151.7582  140.0846  158.6121 S   0  0  0  0  0  0  0  0  0  0  0  0
  151.9880  141.7208  159.2255 C   0  0  0  0  0  0  0  0  0  0  0  0
  151.5488  142.8246  158.4677 C   0  0  0  0  0  0  0  0  0  0  0  0
  151.7286  144.1313  158.9620 C   0  0  0  0  0  0  0  0  0  0  0  0
  152.3478  144.3337  160.2114 C   0  0  0  0  0  0  0  0  0  0  0  0
  152.7886  143.2292  160.9669 C   0  0  0  0  0  0  0  0  0  0  0  0
  152.6097  141.9220  160.4741 C   0  0  0  0  0  0  0  0  0  0  0  0
  151.5969  140.0074  155.8983 C   0  0  0  0  0  0  0  0  0  0  0  0
  152.7224  139.5110  155.9647 O   0  0  0  0  0  0  0  0  0  0  0  0
  150.9630  140.2067  154.7108 N   0  5  0  0  0  0  0  0  0  0  0  0
  149.7171  140.7571  154.5983 C   0  0  0  0  0  0  0  0  0  0  0  0
  149.1768  140.9076  153.5019 O   0  0  0  0  0  0  0  0  0  0  0  0
  144.1284  142.9628  156.0014 H   0  0  0  0  0  0  0  0  0  0  0  0
  145.8426  143.3141  155.7775 H   0  0  0  0  0  0  0  0  0  0  0  0
  145.2370  142.8018  157.3638 H   0  0  0  0  0  0  0  0  0  0  0  0
  146.7431  140.8515  157.3614 H   0  0  0  0  0  0  0  0  0  0  0  0
  146.7684  139.8060  155.9507 H   0  0  0  0  0  0  0  0  0  0  0  0
  147.4240  141.9816  154.6178 H   0  0  0  0  0  0  0  0  0  0  0  0
  147.6962  142.7189  156.1393 H   0  0  0  0  0  0  0  0  0  0  0  0
  148.0346  141.7609  158.1016 H   0  0  0  0  0  0  0  0  0  0  0  0
  149.2972  141.1277  159.0769 H   0  0  0  0  0  0  0  0  0  0  0  0
  151.0725  142.6721  157.5104 H   0  0  0  0  0  0  0  0  0  0  0  0
  151.3912  144.9784  158.3834 H   0  0  0  0  0  0  0  0  0  0  0  0
  152.4844  145.3356  160.5906 H   0  0  0  0  0  0  0  0  0  0  0  0
  153.2630  143.3837  161.9248 H   0  0  0  0  0  0  0  0  0  0  0  0
  152.9460  141.0763  161.0562 H   0  0  0  0  0  0  0  0  0  0  0  0
  1  2  1  0  0  0  0
  1 21  1  0  0  0  0
  1 22  1  0  0  0  0
  1 23  1  0  0  0  0
  2  3  1  0  0  0  0
  3  4  1  0  0  0  0
  3 24  1  0  0  0  0
  3 25  1  0  0  0  0
  4  5  1  0  0  0  0
  4 26  1  0  0  0  0
  4 27  1  0  0  0  0
  5 19  1  0  0  0  0
  5  6  1  0  0  0  0
  6  7  1  0  0  0  0
  6  8  2  0  0  0  0
  7 28  1  0  0  0  0
  7 29  1  0  0  0  0
  8  9  1  0  0  0  0
  8 16  1  0  0  0  0
  9 10  1  0  0  0  0
 10 15  1  0  0  0  0
 10 11  2  0  0  0  0
 11 12  1  0  0  0  0
 11 30  1  0  0  0  0
 12 13  2  0  0  0  0
 12 31  1  0  0  0  0
 13 14  1  0  0  0  0
 13 32  1  0  0  0  0
 14 15  2  0  0  0  0
 14 33  1  0  0  0  0
 15 34  1  0  0  0  0
 16 17  2  0  0  0  0
 16 18  1  0  0  0  0
 18 19  1  0  0  0  0
 19 20  2  0  0  0  0
M  CHG  1  18  -1
M  END
> <s_m_source_file>
AV-unprocessed.smi

> <i_m_source_file_index>
2630

> <i_lp_mmshare_version>
43012

> <i_f3d_flags>
0

> <s_epik_input>
W0NIM11PW0NIMl1bQ0gyXW4xYyhbTkgyXSljKGMoPU8pW25IXWMxPU8pU2MyW2NIXVtjSF1bY0hdW2NIXVtjSF0y

> <s_epik_cmdline>
J2VwaWtfcHl0aG9uJywgJy1waCcsICc3LjAnLCAnLXRuJywgJzgnLCAnLW1hJywgJzIwMCcsICctbWV0YWxfYmluZGluZycsICctaW1hZScsICc8aW5maWxlLm1hZT4nLCAnLW9tYWUnLCAnPG91dGZpbGUubWFlPic=

> <r_lp_tautomer_probability>
1

> <r_epik_Ionization_Penalty>
6.52921

> <r_epik_Ionization_Penalty_Charging>
0.111036

> <r_epik_Ionization_Penalty_Neutral>
6.41817

> <r_epik_State_Penalty>
6.41816

> <r_epik_Charging_Adjusted_Penalty>
6.5292

> <i_epik_Tot_Q>
-1

> <i_epik_Tot_abs_Q>
1

> <r_epik_Metal_State_Penalty>
2.337

> <b_epik_Metal_Only>
1

> <s_epik_Chemistry_Notes>
This compound has an imine and may undergo hydrolysis.

> <s_lp_Force_Field>
OPLS_2005

> <r_lp_Energy>
30.4306

> <b_lp_Chiralities_Consistent>
1

> <s_lp_Variant>
AV-unprocessed.smi:2630-2

> <Gold.Version>
5.8.1

> <Gold.Id.Protein>
6NUR|6NUR_protein|mol2

> <Gold.PLP.Fitness>
43.2093

> <Gold.PLP.PLP>
-34.3277

> <Gold.PLP.part.hbond>
-3.9624

> <Gold.PLP.part.metal>
0.0000

> <Gold.PLP.part.buried>
-4.9767

> <Gold.PLP.part.nonpolar>
-29.9803

> <Gold.PLP.part.repulsive>
4.1735

> <Gold.PLP.ligand.clash>
0.0000

> <Gold.PLP.ligand.torsion>
0.1025

> <Gold.PLP.Chemscore.Hbond>
3.0000

> <Gold.PLP.Chemscore.CHOScore>
0.0000

> <Gold.PLP.Chemscore.Metal>
0.0000

> <Gold.Chemscore.Hbonds>
donor molecule, donor type, donor heavy atom, donor atom, acceptor molecule, acceptor atom, score
      P1  H  7989  7998       L1    18  0.95
      P1  H  7997  8009       L1    17  1.00
      P1  H  8011  8017       L1    20  1.00

> <Gold.PLP.Chemscore.Internal.Correction>
0.0865

> <Gold.Rescore>
     Score         DG    S(hbond)    S(metal)    S(lipo)     H(rot)  DE(clash)    DE(int)     intcor
     16.14     -18.14       2.45        0.00      82.60       2.02       1.78       0.21       ----

> <Gold.Chemscore.Fitness>
16.1442

> <Gold.Chemscore.DG>
-18.1384

> <Gold.Chemscore.ZeroCoef>
-5.4800

> <Gold.Chemscore.Hbond>
2.4474

> <Gold.Chemscore.Metal>
0.0000

> <Gold.Chemscore.Lipo>
82.5970

> <Gold.Chemscore.Internal_Hbond>
0.0000

> <Gold.Chemscore.DEClash>
1.7818

> <Gold.Chemscore.DEInternal>
0.2123

> <Gold.Chemscore.Rot>
2.0234

> <Gold.Chemscore.Internal.Correction>
   9.000000E+99

> <Gold.Chemscore.Hbonds>
donor molecule, donor type, donor heavy atom, donor atom, acceptor molecule, acceptor atom, score
      P1  H  7989  7998       L1    18  0.20
      P1  H  7997  8009       L1    17  1.00
      P1  H  8011  8017       L1    20  0.92

> <Gold.Chemscore.Hbond.Weighted>
-8.1744

> <Gold.Chemscore.Metal.Weighted>
-0.0000

> <Gold.Chemscore.Lipo.Weighted>
-9.6638

> <Gold.Chemscore.Internal_Hbond.Weighted>
0.0000

> <Gold.Chemscore.DEClash.Weighted>
1.7818

> <Gold.Chemscore.DEInternal.Weighted>
0.2123

> <Gold.Chemscore.Rot.Weighted>
5.1798

> <Gold.Chemscore.Internal.Correction.Weighted>
   9.000000E+99

> <Gold.Protein.RotatedTorsions>
[ 6907 6896 6895 6894 ] final -127.81 input  -60.11 | X-H torsion
[ 7974 7965 7964 7962 ] final  158.83 input  175.53 | X-H torsion
[ 8008 7997 7996 7995 ] final -150.28 input   59.86 | X-H torsion
[ 10167 10162 10161 10158 ] final   58.17 input  -65.29 | X-H torsion
[ 10718 10713 10712 10709 ] final  170.80 input   66.30 | X-H torsion
[ 10763 10752 10751 10750 ] final  -46.76 input  -60.55 | X-H torsion
[ 11005 11000 10999 10996 ] final   68.89 input  -57.11 | X-H torsion

> <Gold.Protein.ActiveResidues>
 VAL166  LYS551  ARG553  GLY616  TRP617  ASP618  TYR619  PRO620  LYS621  CYS622 
 ASP623  PHE694  ASN695  SER759  ASP760  ASP761  ALA762  ILE779  LEU786  VAL792 
 PHE793  MET794  SER795  GLU796  ALA797  LYS798  CYS799  TRP800  GLU811  SER814 

> <Gold.Protein.RotatedAtoms>
  150.9113  133.6994  159.2853 H   0  0  0  0  0  0  0  0  0  0  0  0  # atno 6907 bound_to 6896
  151.4480  135.1026  159.9699 H   0  0  0  0  0  0  0  0  0  0  0  0  # atno 6908 bound_to 6896
  152.4931  133.8505  159.7254 H   0  0  0  0  0  0  0  0  0  0  0  0  # atno 6909 bound_to 6896
  144.7823  139.7533  143.6254 H   0  0  0  0  0  0  0  0  0  0  0  0  # atno 7974 bound_to 7965
  155.6211  140.0681  157.2678 H   0  0  0  0  0  0  0  0  0  0  0  0  # atno 8008 bound_to 7997
  154.4229  140.1784  156.1421 H   0  0  0  0  0  0  0  0  0  0  0  0  # atno 8009 bound_to 7997
  156.0009  140.3336  155.6848 H   0  0  0  0  0  0  0  0  0  0  0  0  # atno 8010 bound_to 7997
  140.1901  144.4094  150.6575 H   0  0  0  0  0  0  0  0  0  0  0  0  # atno 10167 bound_to 10162
  157.0028  131.0181  151.2826 H   0  0  0  0  0  0  0  0  0  0  0  0  # atno 10718 bound_to 10713
  154.0503  135.6632  153.4799 H   0  0  0  0  0  0  0  0  0  0  0  0  # atno 10763 bound_to 10752
  153.0466  135.5110  154.7757 H   0  0  0  0  0  0  0  0  0  0  0  0  # atno 10764 bound_to 10752
  154.6761  135.3037  154.9643 H   0  0  0  0  0  0  0  0  0  0  0  0  # atno 10765 bound_to 10752
  139.9685  134.6940  156.0496 H   0  0  0  0  0  0  0  0  0  0  0  0  # atno 11005 bound_to 11000
  146.2038  139.5349  142.9726 LP  0  0  0  0  0  0  0  0  0  0  0  0  # atno 17320 bound_to 7965
  145.6015  141.0354  143.2015 LP  0  0  0  0  0  0  0  0  0  0  0  0  # atno 17321 bound_to 7965
  140.6461  143.2214  151.6182 LP  0  0  0  0  0  0  0  0  0  0  0  0  # atno 17342 bound_to 10162
  139.5259  144.3060  152.1033 LP  0  0  0  0  0  0  0  0  0  0  0  0  # atno 17343 bound_to 10162
  157.5378  130.8100  149.7992 LP  0  0  0  0  0  0  0  0  0  0  0  0  # atno 17370 bound_to 10713
  156.0165  130.3812  150.2095 LP  0  0  0  0  0  0  0  0  0  0  0  0  # atno 17371 bound_to 10713
  141.1365  133.6574  156.3607 LP  0  0  0  0  0  0  0  0  0  0  0  0  # atno 17394 bound_to 11000
  140.5345  134.6181  157.5360 LP  0  0  0  0  0  0  0  0  0  0  0  0  # atno 17395 bound_to 11000

$$$$
