AV-unprocessed.smi:2001|AV-procd|sdf|8103|dock1
  -GOLD-   2272010323D 1   1.00000     0.00000
 Structure written by MMmdl.
 50 51  0  0  0  0  0  0  0  0  1 V2000
  154.5573  134.3996  157.4991 C   0  0  0  0  0  0  0  0  0  0  0  0
  154.4282  135.6467  156.8389 O   0  0  0  0  0  0  0  0  0  0  0  0
  153.6170  136.5598  157.5583 C   0  0  0  0  0  0  0  0  0  0  0  0
  153.5036  137.8648  156.7554 C   0  0  0  0  0  0  0  0  0  0  0  0
  152.3116  137.8702  155.9012 N   0  0  0  0  0  0  0  0  0  0  0  0
  151.5216  136.7392  156.0261 N   0  0  0  0  0  0  0  0  0  0  0  0
  150.4436  136.6182  155.3206 C   0  0  0  0  0  0  0  0  0  0  0  0
  149.5628  135.4222  155.4291 C   0  0  0  0  0  0  0  0  0  0  0  0
  149.3861  134.8396  156.5006 O   0  0  0  0  0  0  0  0  0  0  0  0
  148.9825  135.0270  154.2818 N   0  0  0  0  0  0  0  0  0  0  0  0
  148.0966  133.8783  154.1443 C   0  0  0  0  0  0  0  0  0  0  0  0
  148.7492  132.7678  153.3007 C   0  0  0  0  0  0  0  0  0  0  0  0
  147.8187  131.9929  152.4823 N   0  0  0  0  0  0  0  0  0  0  0  0
  146.8917  132.8671  151.7749 C   0  0  0  0  0  0  0  0  0  0  0  0
  145.9305  132.0748  150.8708 C   0  0  2  0  0  0  0  0  0  0  0  0
  144.9042  132.9828  150.1849 C   0  0  0  0  0  0  0  0  0  0  0  0
  145.2219  131.1194  151.6578 O   0  0  0  0  0  0  0  0  0  0  0  0
  146.0408  130.2325  152.4219 C   0  0  1  0  0  0  0  0  0  0  0  0
  146.7009  129.1612  151.5376 C   0  0  0  0  0  0  0  0  0  0  0  0
  147.0517  131.0300  153.2707 C   0  0  0  0  0  0  0  0  0  0  0  0
  150.0448  137.6579  154.3867 C   0  0  0  0  0  0  0  0  0  0  0  0
  150.8254  138.7551  154.2761 C   0  0  0  0  0  0  0  0  0  0  0  0
  152.0489  138.9176  155.0625 C   0  0  0  0  0  0  0  0  0  0  0  0
  152.7782  139.9051  154.9762 O   0  0  0  0  0  0  0  0  0  0  0  0
  155.1915  133.7370  156.9101 H   0  0  0  0  0  0  0  0  0  0  0  0
  153.5873  133.9156  157.6207 H   0  0  0  0  0  0  0  0  0  0  0  0
  155.0154  134.5185  158.4819 H   0  0  0  0  0  0  0  0  0  0  0  0
  152.6289  136.1273  157.7229 H   0  0  0  0  0  0  0  0  0  0  0  0
  154.0577  136.7579  158.5367 H   0  0  0  0  0  0  0  0  0  0  0  0
  153.4716  138.7113  157.4438 H   0  0  0  0  0  0  0  0  0  0  0  0
  154.4023  138.0137  156.1542 H   0  0  0  0  0  0  0  0  0  0  0  0
  149.1761  135.5583  153.4449 H   0  0  0  0  0  0  0  0  0  0  0  0
  147.8727  133.5012  155.1425 H   0  0  0  0  0  0  0  0  0  0  0  0
  147.1486  134.2041  153.7153 H   0  0  0  0  0  0  0  0  0  0  0  0
  149.5280  133.1935  152.6657 H   0  0  0  0  0  0  0  0  0  0  0  0
  149.2603  132.0914  153.9874 H   0  0  0  0  0  0  0  0  0  0  0  0
  146.3179  133.4554  152.4931 H   0  0  0  0  0  0  0  0  0  0  0  0
  147.4495  133.5791  151.1650 H   0  0  0  0  0  0  0  0  0  0  0  0
  146.5004  131.5572  150.0986 H   0  0  0  0  0  0  0  0  0  0  0  0
  145.3964  133.7286  149.5605 H   0  0  0  0  0  0  0  0  0  0  0  0
  144.2914  133.5095  150.9169 H   0  0  0  0  0  0  0  0  0  0  0  0
  144.2366  132.4035  149.5465 H   0  0  0  0  0  0  0  0  0  0  0  0
  145.3701  129.7103  153.1047 H   0  0  0  0  0  0  0  0  0  0  0  0
  147.2268  128.4262  152.1473 H   0  0  0  0  0  0  0  0  0  0  0  0
  147.4270  129.5894  150.8466 H   0  0  0  0  0  0  0  0  0  0  0  0
  145.9537  128.6280  150.9497 H   0  0  0  0  0  0  0  0  0  0  0  0
  147.7160  130.3295  153.7749 H   0  0  0  0  0  0  0  0  0  0  0  0
  146.5099  131.5583  154.0568 H   0  0  0  0  0  0  0  0  0  0  0  0
  149.1467  137.5649  153.7936 H   0  0  0  0  0  0  0  0  0  0  0  0
  150.5402  139.5367  153.5873 H   0  0  0  0  0  0  0  0  0  0  0  0
  1  2  1  0  0  0  0
  1 25  1  0  0  0  0
  1 26  1  0  0  0  0
  1 27  1  0  0  0  0
  2  3  1  0  0  0  0
  3  4  1  0  0  0  0
  3 28  1  0  0  0  0
  3 29  1  0  0  0  0
  4  5  1  0  0  0  0
  4 30  1  0  0  0  0
  4 31  1  0  0  0  0
  5 23  1  0  0  0  0
  5  6  1  0  0  0  0
  6  7  2  0  0  0  0
  7  8  1  0  0  0  0
  7 21  1  0  0  0  0
  8  9  2  0  0  0  0
  8 10  1  0  0  0  0
 10 11  1  0  0  0  0
 10 32  1  0  0  0  0
 11 12  1  0  0  0  0
 11 33  1  0  0  0  0
 11 34  1  0  0  0  0
 12 13  1  0  0  0  0
 12 35  1  0  0  0  0
 12 36  1  0  0  0  0
 13 20  1  0  0  0  0
 13 14  1  0  0  0  0
 14 15  1  0  0  0  0
 14 37  1  0  0  0  0
 14 38  1  0  0  0  0
 15 16  1  0  0  0  0
 15 17  1  0  0  0  0
 15 39  1  0  0  0  0
 16 40  1  0  0  0  0
 16 41  1  0  0  0  0
 16 42  1  0  0  0  0
 17 18  1  0  0  0  0
 18 19  1  0  0  0  0
 18 20  1  0  0  0  0
 18 43  1  0  0  0  0
 19 44  1  0  0  0  0
 19 45  1  0  0  0  0
 19 46  1  0  0  0  0
 20 47  1  0  0  0  0
 20 48  1  0  0  0  0
 21 22  2  0  0  0  0
 21 49  1  0  0  0  0
 22 23  1  0  0  0  0
 22 50  1  0  0  0  0
 23 24  2  0  0  0  0
M  END
> <s_m_source_file>
AV-unprocessed.smi

> <i_m_source_file_index>
2001

> <i_lp_mmshare_version>
43012

> <i_f3d_flags>
0

> <s_epik_input>
W0NIM11PW0NIMl1bQ0gyXW4xbmMoW2NIXVtjSF1jMT1PKUMoPU8pW05IXVtDSDJdW0NIMl1OMltDSDJdW0NAQEhdKFtDSDNdKU9bQ0BASF0oW0NIM10pW0NIMl0y

> <s_epik_cmdline>
J2VwaWtfcHl0aG9uJywgJy1waCcsICc3LjAnLCAnLXRuJywgJzgnLCAnLW1hJywgJzIwMCcsICctbWV0YWxfYmluZGluZycsICctaW1hZScsICc8aW5maWxlLm1hZT4nLCAnLW9tYWUnLCAnPG91dGZpbGUubWFlPic=

> <r_lp_tautomer_probability>
1

> <r_epik_Ionization_Penalty>
0.206669

> <r_epik_Ionization_Penalty_Charging>
5.55992e-09

> <r_epik_Ionization_Penalty_Neutral>
0.206669

> <r_epik_State_Penalty>
0.196651

> <r_epik_Charging_Adjusted_Penalty>
0.196651

> <i_epik_Tot_Q>
0

> <i_epik_Tot_abs_Q>
0

> <r_epik_Metal_State_Penalty>
0.198372

> <b_epik_Metal_Only>
0

> <s_lp_Force_Field>
OPLS_2005

> <r_lp_Energy>
40.7423

> <b_lp_Chiralities_Consistent>
1

> <s_lp_Variant>
AV-unprocessed.smi:2001-2

> <Gold.Version>
5.8.1

> <Gold.Id.Protein>
6NUR|6NUR_protein|mol2

> <Gold.PLP.Fitness>
44.5243

> <Gold.PLP.PLP>
-36.5301

> <Gold.PLP.part.hbond>
-4.0103

> <Gold.PLP.part.metal>
0.0000

> <Gold.PLP.part.buried>
-5.0385

> <Gold.PLP.part.nonpolar>
-29.6185

> <Gold.PLP.part.repulsive>
1.8996

> <Gold.PLP.ligand.clash>
0.0000

> <Gold.PLP.ligand.torsion>
1.0917

> <Gold.PLP.Chemscore.Hbond>
3.2984

> <Gold.PLP.Chemscore.CHOScore>
0.0000

> <Gold.PLP.Chemscore.Metal>
0.0000

> <Gold.Chemscore.Hbonds>
donor molecule, donor type, donor heavy atom, donor atom, acceptor molecule, acceptor atom, score
      L1  H    10    32       P1  7948  1.00
      P1  H  7989  7998       L1    24  0.35
      P1  H  7997  8008       L1    24  1.00
      P1  H 10752 10765       L1     2  0.98

> <Gold.PLP.Chemscore.Internal.Correction>
0.2825

> <Gold.Rescore>
     Score         DG    S(hbond)    S(metal)    S(lipo)     H(rot)  DE(clash)    DE(int)     intcor
     19.04     -20.10       2.95        0.00      84.68       2.00       0.09       0.98       ----

> <Gold.Chemscore.Fitness>
19.0396

> <Gold.Chemscore.DG>
-20.1046

> <Gold.Chemscore.ZeroCoef>
-5.4800

> <Gold.Chemscore.Hbond>
2.9469

> <Gold.Chemscore.Metal>
0.0000

> <Gold.Chemscore.Lipo>
84.6752

> <Gold.Chemscore.Internal_Hbond>
0.0000

> <Gold.Chemscore.DEClash>
0.0896

> <Gold.Chemscore.DEInternal>
0.9755

> <Gold.Chemscore.Rot>
2.0020

> <Gold.Chemscore.Internal.Correction>
   9.000000E+99

> <Gold.Chemscore.Hbonds>
donor molecule, donor type, donor heavy atom, donor atom, acceptor molecule, acceptor atom, score
      L1  H    10    32       P1  7948  0.50
      P1  H  7989  7998       L1    24  0.06
      P1  H  7997  8008       L1    24  0.99
      P1  H 10752 10765       L1     2  0.45

> <Gold.Chemscore.Hbond.Weighted>
-9.8428

> <Gold.Chemscore.Metal.Weighted>
-0.0000

> <Gold.Chemscore.Lipo.Weighted>
-9.9070

> <Gold.Chemscore.Internal_Hbond.Weighted>
0.0000

> <Gold.Chemscore.DEClash.Weighted>
0.0896

> <Gold.Chemscore.DEInternal.Weighted>
0.9755

> <Gold.Chemscore.Rot.Weighted>
5.1252

> <Gold.Chemscore.Internal.Correction.Weighted>
   9.000000E+99

> <Gold.Protein.RotatedTorsions>
[ 6907 6896 6895 6894 ] final   17.86 input  -60.11 | X-H torsion
[ 7974 7965 7964 7962 ] final -135.86 input  175.53 | X-H torsion
[ 8008 7997 7996 7995 ] final  -24.33 input   59.86 | X-H torsion
[ 10167 10162 10161 10158 ] final   27.60 input  -65.29 | X-H torsion
[ 10718 10713 10712 10709 ] final  148.94 input   66.30 | X-H torsion
[ 10763 10752 10751 10750 ] final  -87.98 input  -60.55 | X-H torsion
[ 11005 11000 10999 10996 ] final  156.65 input  -57.11 | X-H torsion

> <Gold.Protein.ActiveResidues>
 VAL166  LYS551  ARG553  GLY616  TRP617  ASP618  TYR619  PRO620  LYS621  CYS622 
 ASP623  PHE694  ASN695  SER759  ASP760  ASP761  ALA762  ILE779  LEU786  VAL792 
 PHE793  MET794  SER795  GLU796  ALA797  LYS798  CYS799  TRP800  GLU811  SER814 

> <Gold.Protein.RotatedAtoms>
  151.8563  135.0540  160.0464 H   0  0  0  0  0  0  0  0  0  0  0  0  # atno 6907 bound_to 6896
  152.2697  133.5367  159.5440 H   0  0  0  0  0  0  0  0  0  0  0  0  # atno 6908 bound_to 6896
  150.7147  134.0630  159.3880 H   0  0  0  0  0  0  0  0  0  0  0  0  # atno 6909 bound_to 6896
  144.8977  140.6729  143.5105 H   0  0  0  0  0  0  0  0  0  0  0  0  # atno 7974 bound_to 7965
  154.4535  140.1956  156.0447 H   0  0  0  0  0  0  0  0  0  0  0  0  # atno 8008 bound_to 7997
  156.0698  140.3286  155.7534 H   0  0  0  0  0  0  0  0  0  0  0  0  # atno 8009 bound_to 7997
  155.5281  140.0575  157.2885 H   0  0  0  0  0  0  0  0  0  0  0  0  # atno 8010 bound_to 7997
  140.4924  144.0445  150.6302 H   0  0  0  0  0  0  0  0  0  0  0  0  # atno 10167 bound_to 10162
  157.3023  131.0873  151.1380 H   0  0  0  0  0  0  0  0  0  0  0  0  # atno 10718 bound_to 10713
  154.6395  135.5394  153.7773 H   0  0  0  0  0  0  0  0  0  0  0  0  # atno 10763 bound_to 10752
  153.0326  135.6456  154.1180 H   0  0  0  0  0  0  0  0  0  0  0  0  # atno 10764 bound_to 10752
  154.1106  135.2927  155.3211 H   0  0  0  0  0  0  0  0  0  0  0  0  # atno 10765 bound_to 10752
  140.1695  134.8553  157.2672 H   0  0  0  0  0  0  0  0  0  0  0  0  # atno 11005 bound_to 11000
  145.3671  139.1667  143.4352 LP  0  0  0  0  0  0  0  0  0  0  0  0  # atno 17320 bound_to 7965
  146.3090  140.3739  142.8677 LP  0  0  0  0  0  0  0  0  0  0  0  0  # atno 17321 bound_to 7965
  140.3718  143.2850  152.0269 LP  0  0  0  0  0  0  0  0  0  0  0  0  # atno 17342 bound_to 10162
  139.4854  144.6224  151.7230 LP  0  0  0  0  0  0  0  0  0  0  0  0  # atno 17343 bound_to 10162
  157.2735  130.6715  149.6031 LP  0  0  0  0  0  0  0  0  0  0  0  0  # atno 17370 bound_to 10713
  155.9672  130.4472  150.5570 LP  0  0  0  0  0  0  0  0  0  0  0  0  # atno 17371 bound_to 10713
  140.2395  134.3813  155.7487 LP  0  0  0  0  0  0  0  0  0  0  0  0  # atno 17394 bound_to 11000
  141.2216  133.7257  156.8766 LP  0  0  0  0  0  0  0  0  0  0  0  0  # atno 17395 bound_to 11000

$$$$
