AV-unprocessed.smi:160|AV-procd|sdf|1374|dock2
  -GOLD-   2262019 93D 1   1.00000     0.00000
 Structure written by MMmdl.
 28 29  0  0  0  0  0  0  0  0  2 V2000
  153.1726  138.5599  156.6496 N   0  5  0  0  0  0  0  0  0  0  0  0
  152.4233  138.7409  155.5409 C   0  0  0  0  0  0  0  0  0  0  0  0
  152.5816  138.1841  154.4547 O   0  0  0  0  0  0  0  0  0  0  0  0
  151.2985  139.7342  155.7055 C   0  0  0  0  0  0  0  0  0  0  0  0
  151.0416  140.3863  156.8831 N   0  0  0  0  0  0  0  0  0  0  0  0
  150.0006  141.1125  156.4996 C   0  0  0  0  0  0  0  0  0  0  0  0
  149.6414  140.9253  155.2263 N   0  0  0  0  0  0  0  0  0  0  0  0
  148.5548  141.5769  154.4308 C   0  0  1  0  0  0  0  0  0  0  0  0
  148.3296  140.7875  153.3012 O   0  0  0  0  0  0  0  0  0  0  0  0
  147.0460  140.1660  153.3459 C   0  0  1  0  0  0  0  0  0  0  0  0
  147.1826  138.6983  152.9115 C   0  0  0  0  0  0  0  0  0  0  0  0
  147.4353  138.6121  151.5249 O   0  0  0  0  0  0  0  0  0  0  0  0
  146.5370  140.3609  154.7789 C   0  0  2  0  0  0  0  0  0  0  0  0
  145.1270  140.4574  154.8530 O   0  0  0  0  0  0  0  0  0  0  0  0
  147.2473  141.6323  155.2311 C   0  0  2  0  0  0  0  0  0  0  0  0
  146.5268  142.8133  154.9296 O   0  0  0  0  0  0  0  0  0  0  0  0
  150.4951  140.0238  154.6812 N   0  0  0  0  0  0  0  0  0  0  0  0
  148.9619  142.5550  154.1701 H   0  0  0  0  0  0  0  0  0  0  0  0
  146.4123  140.7134  152.6461 H   0  0  0  0  0  0  0  0  0  0  0  0
  146.8577  139.5277  155.4049 H   0  0  0  0  0  0  0  0  0  0  0  0
  147.4503  141.6296  156.3032 H   0  0  0  0  0  0  0  0  0  0  0  0
  153.0183  137.7129  157.2096 H   0  0  0  0  0  0  0  0  0  0  0  0
  149.4907  141.7974  157.1606 H   0  0  0  0  0  0  0  0  0  0  0  0
  148.0134  138.2288  153.4386 H   0  0  0  0  0  0  0  0  0  0  0  0
  146.2845  138.1313  153.1588 H   0  0  0  0  0  0  0  0  0  0  0  0
  147.9978  137.8687  151.3698 H   0  0  0  0  0  0  0  0  0  0  0  0
  144.7767  140.3474  153.9819 H   0  0  0  0  0  0  0  0  0  0  0  0
  147.0467  143.5547  155.1997 H   0  0  0  0  0  0  0  0  0  0  0  0
  1  2  1  0  0  0  0
  1 22  1  0  0  0  0
  2  3  2  0  0  0  0
  2  4  1  0  0  0  0
  4 17  2  0  0  0  0
  4  5  1  0  0  0  0
  5  6  2  0  0  0  0
  6  7  1  0  0  0  0
  6 23  1  0  0  0  0
  7  8  1  0  0  0  0
  7 17  1  0  0  0  0
  8 18  1  0  0  0  0
  8 15  1  0  0  0  0
  8  9  1  0  0  0  0
  9 10  1  0  0  0  0
 10 19  1  0  0  0  0
 10 11  1  0  0  0  0
 10 13  1  0  0  0  0
 11 12  1  0  0  0  0
 11 24  1  0  0  0  0
 11 25  1  0  0  0  0
 12 26  1  0  0  0  0
 13 20  1  0  0  0  0
 13 14  1  0  0  0  0
 13 15  1  0  0  0  0
 14 27  1  0  0  0  0
 15 21  1  0  0  0  0
 15 16  1  0  0  0  0
 16 28  1  0  0  0  0
M  CHG  1   1  -1
M  END
> <s_m_source_file>
AV-unprocessed.smi

> <i_m_source_file_index>
160

> <i_lp_mmshare_version>
43012

> <i_f3d_flags>
0

> <s_epik_input>
W05IMl1DKD1PKWMxbltjSF1uKG4xKVtDQEBIXTJPW0NASF0oW0NIMl1bT0hdKVtDQEBIXShbT0hdKVtDQEhdMltPSF0=

> <s_epik_cmdline>
J2VwaWtfcHl0aG9uJywgJy1waCcsICc3LjAnLCAnLXRuJywgJzgnLCAnLW1hJywgJzIwMCcsICctbWV0YWxfYmluZGluZycsICctaW1hZScsICc8aW5maWxlLm1hZT4nLCAnLW9tYWUnLCAnPG91dGZpbGUubWFlPic=

> <r_lp_tautomer_probability>
1

> <r_epik_Ionization_Penalty>
6.6993

> <r_epik_Ionization_Penalty_Charging>
6.6993

> <r_epik_Ionization_Penalty_Neutral>
6.01698e-06

> <r_epik_State_Penalty>
6.69929

> <r_epik_Charging_Adjusted_Penalty>
13.3986

> <i_epik_Tot_Q>
-1

> <i_epik_Tot_abs_Q>
1

> <r_epik_Metal_State_Penalty>
2.62798

> <b_epik_Metal_Only>
1

> <s_epik_Chemistry_Notes>
This compound contains an acetal/aminal-like group ( X-CH(R)-Y where X, Y are N, S, or O) that may be acid/base labile, releasing an aldehyde.

> <s_lp_Force_Field>
OPLS_2005

> <r_lp_Energy>
40.9711

> <b_lp_Chiralities_Consistent>
1

> <s_lp_Variant>
AV-unprocessed.smi:160-32

> <Gold.Version>
5.8.1

> <Gold.Id.Protein>
6NUR|6NUR_protein|mol2

> <Gold.PLP.Fitness>
43.8551

> <Gold.PLP.PLP>
-28.4009

> <Gold.PLP.part.hbond>
-7.9106

> <Gold.PLP.part.metal>
0.0000

> <Gold.PLP.part.buried>
-4.1883

> <Gold.PLP.part.nonpolar>
-21.2679

> <Gold.PLP.part.repulsive>
4.6178

> <Gold.PLP.ligand.clash>
0.0000

> <Gold.PLP.ligand.torsion>
0.5116

> <Gold.PLP.Chemscore.Hbond>
5.4840

> <Gold.PLP.Chemscore.CHOScore>
0.0000

> <Gold.PLP.Chemscore.Metal>
0.0000

> <Gold.Chemscore.Hbonds>
donor molecule, donor type, donor heavy atom, donor atom, acceptor molecule, acceptor atom, score
      L1  H    12    26       P1  7948  1.00
      L1  H    14    27       P1 10175  1.00
      L1  H    16    28       P1  8028  0.20
      P1  H  7989  7998       L1    17  1.00
      P1  H  7997  8010       L1     1  2.00
      P1  H  8011  8017       L1     9  0.01

> <Gold.PLP.Chemscore.Internal.Correction>
0.0255

> <Gold.Rescore>
     Score         DG    S(hbond)    S(metal)    S(lipo)     H(rot)  DE(clash)    DE(int)     intcor
      6.88      -9.33       3.46        0.00      22.53       4.04       1.63       0.83       ----

> <Gold.Chemscore.Fitness>
6.8833

> <Gold.Chemscore.DG>
-9.3343

> <Gold.Chemscore.ZeroCoef>
-5.4800

> <Gold.Chemscore.Hbond>
3.4613

> <Gold.Chemscore.Metal>
0.0000

> <Gold.Chemscore.Lipo>
22.5344

> <Gold.Chemscore.Internal_Hbond>
0.0000

> <Gold.Chemscore.DEClash>
1.6260

> <Gold.Chemscore.DEInternal>
0.8251

> <Gold.Chemscore.Rot>
4.0403

> <Gold.Chemscore.Internal.Correction>
   9.000000E+99

> <Gold.Chemscore.Hbonds>
donor molecule, donor type, donor heavy atom, donor atom, acceptor molecule, acceptor atom, score
      L1  H    12    26       P1  7948  0.98
      L1  H    14    27       P1 10175  1.00
      P1  H  7989  7998       L1    17  0.29
      P1  H  7997  8010       L1     1  0.52

> <Gold.Chemscore.Hbond.Weighted>
-11.5609

> <Gold.Chemscore.Metal.Weighted>
-0.0000

> <Gold.Chemscore.Lipo.Weighted>
-2.6365

> <Gold.Chemscore.Internal_Hbond.Weighted>
0.0000

> <Gold.Chemscore.DEClash.Weighted>
1.6260

> <Gold.Chemscore.DEInternal.Weighted>
0.8251

> <Gold.Chemscore.Rot.Weighted>
10.3431

> <Gold.Chemscore.Internal.Correction.Weighted>
   9.000000E+99

> <Gold.Protein.RotatedTorsions>
[ 6907 6896 6895 6894 ] final   85.38 input  -60.11 | X-H torsion
[ 7974 7965 7964 7962 ] final  132.80 input  175.53 | X-H torsion
[ 8008 7997 7996 7995 ] final   55.23 input   59.86 | X-H torsion
[ 10167 10162 10161 10158 ] final  173.24 input  -65.29 | X-H torsion
[ 10718 10713 10712 10709 ] final   48.47 input   66.30 | X-H torsion
[ 10763 10752 10751 10750 ] final  -32.75 input  -60.55 | X-H torsion
[ 11005 11000 10999 10996 ] final  -89.72 input  -57.11 | X-H torsion

> <Gold.Protein.ActiveResidues>
 VAL166  LYS551  ARG553  GLY616  TRP617  ASP618  TYR619  PRO620  LYS621  CYS622 
 ASP623  PHE694  ASN695  SER759  ASP760  ASP761  ALA762  ILE779  LEU786  VAL792 
 PHE793  MET794  SER795  GLU796  ALA797  LYS798  CYS799  TRP800  GLU811  SER814 

> <Gold.Protein.RotatedAtoms>
  152.5373  134.2595  159.8929 H   0  0  0  0  0  0  0  0  0  0  0  0  # atno 6907 bound_to 6896
  151.2555  133.4321  159.2621 H   0  0  0  0  0  0  0  0  0  0  0  0  # atno 6908 bound_to 6896
  151.0500  134.9681  159.8263 H   0  0  0  0  0  0  0  0  0  0  0  0  # atno 6909 bound_to 6896
  144.9931  139.4386  143.5329 H   0  0  0  0  0  0  0  0  0  0  0  0  # atno 7974 bound_to 7965
  155.4977  140.3473  155.4366 H   0  0  0  0  0  0  0  0  0  0  0  0  # atno 8008 bound_to 7997
  156.0934  140.1416  156.9590 H   0  0  0  0  0  0  0  0  0  0  0  0  # atno 8009 bound_to 7997
  154.4649  140.0921  156.6970 H   0  0  0  0  0  0  0  0  0  0  0  0  # atno 8010 bound_to 7997
  139.5102  144.3283  152.0136 H   0  0  0  0  0  0  0  0  0  0  0  0  # atno 10167 bound_to 10162
  157.4690  130.8243  149.7967 H   0  0  0  0  0  0  0  0  0  0  0  0  # atno 10718 bound_to 10713
  153.8189  135.6876  153.4830 H   0  0  0  0  0  0  0  0  0  0  0  0  # atno 10763 bound_to 10752
  153.1581  135.4591  154.9732 H   0  0  0  0  0  0  0  0  0  0  0  0  # atno 10764 bound_to 10752
  154.7936  135.3310  154.7663 H   0  0  0  0  0  0  0  0  0  0  0  0  # atno 10765 bound_to 10752
  141.1579  133.7647  156.9635 H   0  0  0  0  0  0  0  0  0  0  0  0  # atno 11005 bound_to 11000
  146.3436  139.9275  142.8758 LP  0  0  0  0  0  0  0  0  0  0  0  0  # atno 17320 bound_to 7965
  145.2257  140.9953  143.4019 LP  0  0  0  0  0  0  0  0  0  0  0  0  # atno 17321 bound_to 7965
  140.2723  144.3950  150.6147 LP  0  0  0  0  0  0  0  0  0  0  0  0  # atno 17342 bound_to 10162
  140.6079  143.2168  151.6944 LP  0  0  0  0  0  0  0  0  0  0  0  0  # atno 17343 bound_to 10162
  156.0064  130.3854  150.2417 LP  0  0  0  0  0  0  0  0  0  0  0  0  # atno 17370 bound_to 10713
  157.0598  131.0086  151.3226 LP  0  0  0  0  0  0  0  0  0  0  0  0  # atno 17371 bound_to 10713
  140.1177  134.9437  157.2158 LP  0  0  0  0  0  0  0  0  0  0  0  0  # atno 17394 bound_to 11000
  140.3112  134.3022  155.7266 LP  0  0  0  0  0  0  0  0  0  0  0  0  # atno 17395 bound_to 11000

$$$$
