AV-unprocessed.smi:1088|AV-procd|sdf|4728|dock9
  -GOLD-   22720 3263D 1   1.00000     0.00000
 Structure written by MMmdl.
 48 49  0  0  0  0  0  0  0  0  2 V2000
  145.8419  131.8432  149.6499 C   0  0  0  0  0  0  0  0  0  0  0  0
  144.9794  132.0095  150.7617 O   0  0  0  0  0  0  0  0  0  0  0  0
  143.9394  132.9397  150.5096 C   0  0  0  0  0  0  0  0  0  0  0  0
  144.5088  134.3612  150.6208 C   0  0  0  0  0  0  0  0  0  0  0  0
  144.2604  134.9610  151.9544 N   0  3  2  0  0  0  0  0  0  0  0  0
  142.8390  135.0257  152.3542 C   0  0  0  0  0  0  0  0  0  0  0  0
  142.7775  136.1249  153.4058 C   0  0  0  0  0  0  0  0  0  0  0  0
  143.7856  137.1436  152.8886 C   0  0  0  0  0  0  0  0  0  0  0  0
  144.8488  136.3120  152.1394 C   0  0  1  0  0  0  0  0  0  0  0  0
  146.2046  136.2017  152.8668 C   0  0  0  0  0  0  0  0  0  0  0  0
  146.9259  137.4707  152.8649 N   0  0  0  0  0  0  0  0  0  0  0  0
  146.9960  138.3286  153.8939 C   0  0  0  0  0  0  0  0  0  0  0  0
  146.4942  138.1074  154.9965 O   0  0  0  0  0  0  0  0  0  0  0  0
  147.7478  139.6394  153.6332 C   0  0  0  0  0  0  0  0  0  0  0  0
  149.0546  139.6737  154.3025 N   0  0  0  0  0  0  0  0  0  0  0  0
  149.9636  138.6539  154.0878 C   0  0  0  0  0  0  0  0  0  0  0  0
  151.1826  138.6086  154.6681 C   0  0  0  0  0  0  0  0  0  0  0  0
  151.6161  139.6588  155.5815 C   0  0  0  0  0  0  0  0  0  0  0  0
  152.7260  139.6709  156.1154 O   0  0  0  0  0  0  0  0  0  0  0  0
  150.6611  140.6800  155.7987 N   0  0  0  0  0  0  0  0  0  0  0  0
  151.0257  141.7667  156.6843 C   0  0  0  0  0  0  0  0  0  0  0  0
  149.3955  140.7334  155.1718 C   0  0  0  0  0  0  0  0  0  0  0  0
  148.6079  141.6641  155.3619 O   0  0  0  0  0  0  0  0  0  0  0  0
  146.6211  131.1216  149.8953 H   0  0  0  0  0  0  0  0  0  0  0  0
  146.3266  132.7830  149.3821 H   0  0  0  0  0  0  0  0  0  0  0  0
  145.2984  131.4691  148.7814 H   0  0  0  0  0  0  0  0  0  0  0  0
  143.5485  132.7837  149.5030 H   0  0  0  0  0  0  0  0  0  0  0  0
  143.1099  132.7923  151.2027 H   0  0  0  0  0  0  0  0  0  0  0  0
  145.5836  134.3236  150.4378 H   0  0  0  0  0  0  0  0  0  0  0  0
  144.0835  135.0012  149.8466 H   0  0  0  0  0  0  0  0  0  0  0  0
  142.2227  135.3042  151.4977 H   0  0  0  0  0  0  0  0  0  0  0  0
  142.4798  134.0692  152.7348 H   0  0  0  0  0  0  0  0  0  0  0  0
  141.7771  136.5407  153.5299 H   0  0  0  0  0  0  0  0  0  0  0  0
  143.1053  135.7363  154.3711 H   0  0  0  0  0  0  0  0  0  0  0  0
  143.2905  137.8146  152.1850 H   0  0  0  0  0  0  0  0  0  0  0  0
  144.1826  137.7625  153.6921 H   0  0  0  0  0  0  0  0  0  0  0  0
  145.0108  136.7762  151.1646 H   0  0  0  0  0  0  0  0  0  0  0  0
  146.0595  135.8268  153.8813 H   0  0  0  0  0  0  0  0  0  0  0  0
  146.8338  135.4683  152.3614 H   0  0  0  0  0  0  0  0  0  0  0  0
  147.3781  137.7357  152.0016 H   0  0  0  0  0  0  0  0  0  0  0  0
  147.8709  139.7528  152.5554 H   0  0  0  0  0  0  0  0  0  0  0  0
  147.1464  140.4921  153.9546 H   0  0  0  0  0  0  0  0  0  0  0  0
  149.6888  137.8491  153.4214 H   0  0  0  0  0  0  0  0  0  0  0  0
  151.8468  137.7842  154.4534 H   0  0  0  0  0  0  0  0  0  0  0  0
  150.1308  142.1668  157.1629 H   0  0  0  0  0  0  0  0  0  0  0  0
  151.5225  142.5208  156.0724 H   0  0  0  0  0  0  0  0  0  0  0  0
  151.6845  141.3910  157.4687 H   0  0  0  0  0  0  0  0  0  0  0  0
  144.7176  134.3712  152.6355 H   0  0  0  0  0  0  0  0  0  0  0  0
  1  2  1  0  0  0  0
  1 24  1  0  0  0  0
  1 25  1  0  0  0  0
  1 26  1  0  0  0  0
  2  3  1  0  0  0  0
  3  4  1  0  0  0  0
  3 27  1  0  0  0  0
  3 28  1  0  0  0  0
  4  5  1  0  0  0  0
  4 29  1  0  0  0  0
  4 30  1  0  0  0  0
  5  9  1  0  0  0  0
  5  6  1  0  0  0  0
  5 48  1  0  0  0  0
  6  7  1  0  0  0  0
  6 31  1  0  0  0  0
  6 32  1  0  0  0  0
  7  8  1  0  0  0  0
  7 33  1  0  0  0  0
  7 34  1  0  0  0  0
  8  9  1  0  0  0  0
  8 35  1  0  0  0  0
  8 36  1  0  0  0  0
  9 10  1  0  0  0  0
  9 37  1  0  0  0  0
 10 11  1  0  0  0  0
 10 38  1  0  0  0  0
 10 39  1  0  0  0  0
 11 12  1  0  0  0  0
 11 40  1  0  0  0  0
 12 13  2  0  0  0  0
 12 14  1  0  0  0  0
 14 15  1  0  0  0  0
 14 41  1  0  0  0  0
 14 42  1  0  0  0  0
 15 22  1  0  0  0  0
 15 16  1  0  0  0  0
 16 17  2  0  0  0  0
 16 43  1  0  0  0  0
 17 18  1  0  0  0  0
 17 44  1  0  0  0  0
 18 19  2  0  0  0  0
 18 20  1  0  0  0  0
 20 21  1  0  0  0  0
 20 22  1  0  0  0  0
 21 45  1  0  0  0  0
 21 46  1  0  0  0  0
 21 47  1  0  0  0  0
 22 23  2  0  0  0  0
M  CHG  1   5   1
M  END
> <s_m_source_file>
AV-unprocessed.smi

> <i_m_source_file_index>
1088

> <i_lp_mmshare_version>
43012

> <i_f3d_flags>
0

> <s_epik_input>
W0NIM11PW0NIMl1bQ0gyXU4xW0NIMl1bQ0gyXVtDSDJdW0NASF0xW0NIMl1bTkhdQyg9TylbQ0gyXW4yW2NIXVtjSF1jKD1PKW4oW0NIM10pYzI9Tw==

> <s_epik_cmdline>
J2VwaWtfcHl0aG9uJywgJy1waCcsICc3LjAnLCAnLXRuJywgJzgnLCAnLW1hJywgJzIwMCcsICctbWV0YWxfYmluZGluZycsICctaW1hZScsICc8aW5maWxlLm1hZT4nLCAnLW9tYWUnLCAnPG91dGZpbGUubWFlPic=

> <r_lp_tautomer_probability>
1

> <r_epik_Ionization_Penalty>
0.0127388

> <r_epik_Ionization_Penalty_Charging>
0.0127387

> <r_epik_Ionization_Penalty_Neutral>
8.26414e-08

> <r_epik_State_Penalty>
0.00987716

> <r_epik_Charging_Adjusted_Penalty>
0.0226159

> <i_epik_Tot_Q>
1

> <i_epik_Tot_abs_Q>
1

> <r_epik_Metal_State_Penalty>
0.00987836

> <b_epik_Metal_Only>
0

> <s_lp_Force_Field>
OPLS_2005

> <r_lp_Energy>
37.5103

> <b_lp_Chiralities_Consistent>
1

> <s_lp_Variant>
AV-unprocessed.smi:1088-1

> <Gold.Version>
5.8.1

> <Gold.Id.Protein>
6NUR|6NUR_protein|mol2

> <Gold.PLP.Fitness>
44.7862

> <Gold.PLP.PLP>
-39.9572

> <Gold.PLP.part.hbond>
-2.0000

> <Gold.PLP.part.metal>
0.0000

> <Gold.PLP.part.buried>
-2.8564

> <Gold.PLP.part.nonpolar>
-35.8339

> <Gold.PLP.part.repulsive>
0.8951

> <Gold.PLP.ligand.clash>
0.0000

> <Gold.PLP.ligand.torsion>
0.6966

> <Gold.PLP.Chemscore.Hbond>
1.0437

> <Gold.PLP.Chemscore.CHOScore>
1.0000

> <Gold.PLP.Chemscore.Metal>
0.0000

> <Gold.Chemscore.Hbonds>
donor molecule, donor type, donor heavy atom, donor atom, acceptor molecule, acceptor atom, score
      L1  H    11    40       P1  7948  0.03
      P1  H  7997  8008       L1    19  1.00
      L1  C    16    43       P1  7948  1.00

> <Gold.PLP.Chemscore.Internal.Correction>
0.0911

> <Gold.Rescore>
     Score         DG    S(hbond)    S(metal)    S(lipo)     H(rot)  DE(clash)    DE(int)     intcor
     11.18     -11.99       1.30        0.00      74.79       2.57       0.07       0.74       ----

> <Gold.Chemscore.Fitness>
11.1811

> <Gold.Chemscore.DG>
-11.9917

> <Gold.Chemscore.ZeroCoef>
-5.4800

> <Gold.Chemscore.Hbond>
1.2989

> <Gold.Chemscore.Metal>
0.0000

> <Gold.Chemscore.Lipo>
74.7922

> <Gold.Chemscore.Internal_Hbond>
0.0000

> <Gold.Chemscore.DEClash>
0.0715

> <Gold.Chemscore.DEInternal>
0.7392

> <Gold.Chemscore.Rot>
2.5692

> <Gold.Chemscore.Internal.Correction>
   9.000000E+99

> <Gold.Chemscore.Hbonds>
donor molecule, donor type, donor heavy atom, donor atom, acceptor molecule, acceptor atom, score
      L1  H    11    40       P1  7948  0.06
      P1  H  7997  8008       L1    19  1.00

> <Gold.Chemscore.Hbond.Weighted>
-4.3382

> <Gold.Chemscore.Metal.Weighted>
-0.0000

> <Gold.Chemscore.Lipo.Weighted>
-8.7507

> <Gold.Chemscore.Internal_Hbond.Weighted>
0.0000

> <Gold.Chemscore.DEClash.Weighted>
0.0715

> <Gold.Chemscore.DEInternal.Weighted>
0.7392

> <Gold.Chemscore.Rot.Weighted>
6.5772

> <Gold.Chemscore.Internal.Correction.Weighted>
   9.000000E+99

> <Gold.Protein.RotatedTorsions>
[ 6907 6896 6895 6894 ] final  -99.49 input  -60.11 | X-H torsion
[ 7974 7965 7964 7962 ] final  122.99 input  175.53 | X-H torsion
[ 8008 7997 7996 7995 ] final  -33.16 input   59.86 | X-H torsion
[ 10167 10162 10161 10158 ] final  119.56 input  -65.29 | X-H torsion
[ 10718 10713 10712 10709 ] final -154.00 input   66.30 | X-H torsion
[ 10763 10752 10751 10750 ] final  -43.90 input  -60.55 | X-H torsion
[ 11005 11000 10999 10996 ] final  114.58 input  -57.11 | X-H torsion

> <Gold.Protein.ActiveResidues>
 VAL166  LYS551  ARG553  GLY616  TRP617  ASP618  TYR619  PRO620  LYS621  CYS622 
 ASP623  PHE694  ASN695  SER759  ASP760  ASP761  ALA762  ILE779  LEU786  VAL792 
 PHE793  MET794  SER795  GLU796  ALA797  LYS798  CYS799  TRP800  GLU811  SER814 

> <Gold.Protein.RotatedAtoms>
  150.7082  134.1033  159.3973 H   0  0  0  0  0  0  0  0  0  0  0  0  # atno 6907 bound_to 6896
  151.9019  135.0372  160.0516 H   0  0  0  0  0  0  0  0  0  0  0  0  # atno 6908 bound_to 6896
  152.2407  133.5097  159.5305 H   0  0  0  0  0  0  0  0  0  0  0  0  # atno 6909 bound_to 6896
  145.1011  139.3518  143.4811 H   0  0  0  0  0  0  0  0  0  0  0  0  # atno 7974 bound_to 7965
  154.4157  140.1718  156.1843 H   0  0  0  0  0  0  0  0  0  0  0  0  # atno 8008 bound_to 7997
  155.9656  140.3390  155.6505 H   0  0  0  0  0  0  0  0  0  0  0  0  # atno 8009 bound_to 7997
  155.6692  140.0710  157.2517 H   0  0  0  0  0  0  0  0  0  0  0  0  # atno 8010 bound_to 7997
  139.6038  144.7064  151.3001 H   0  0  0  0  0  0  0  0  0  0  0  0  # atno 10167 bound_to 10162
  156.4934  130.8358  151.2580 H   0  0  0  0  0  0  0  0  0  0  0  0  # atno 10718 bound_to 10713
  154.0032  135.6691  153.4760 H   0  0  0  0  0  0  0  0  0  0  0  0  # atno 10763 bound_to 10752
  153.0653  135.5004  154.8182 H   0  0  0  0  0  0  0  0  0  0  0  0  # atno 10764 bound_to 10752
  154.7040  135.3084  154.9262 H   0  0  0  0  0  0  0  0  0  0  0  0  # atno 10765 bound_to 10752
  139.8984  134.9570  156.6914 H   0  0  0  0  0  0  0  0  0  0  0  0  # atno 11005 bound_to 11000
  146.3529  140.0889  142.8613 LP  0  0  0  0  0  0  0  0  0  0  0  0  # atno 17320 bound_to 7965
  145.0954  140.9311  143.4744 LP  0  0  0  0  0  0  0  0  0  0  0  0  # atno 17321 bound_to 7965
  140.7269  143.6976  150.7871 LP  0  0  0  0  0  0  0  0  0  0  0  0  # atno 17342 bound_to 10162
  140.0558  143.5204  152.2652 LP  0  0  0  0  0  0  0  0  0  0  0  0  # atno 17343 bound_to 10162
  157.7471  131.0006  150.2931 LP  0  0  0  0  0  0  0  0  0  0  0  0  # atno 17370 bound_to 10713
  156.3403  130.3814  149.7414 LP  0  0  0  0  0  0  0  0  0  0  0  0  # atno 17371 bound_to 10713
  140.7222  133.9131  155.8154 LP  0  0  0  0  0  0  0  0  0  0  0  0  # atno 17394 bound_to 11000
  141.0218  134.0878  157.4112 LP  0  0  0  0  0  0  0  0  0  0  0  0  # atno 17395 bound_to 11000

$$$$
