AV-unprocessed.smi:3147|AV-procd|sdf|11989|dock6
  -GOLD-   2272017393D 1   1.00000     0.00000
 Structure written by MMmdl.
 36 37  0  0  0  0  0  0  0  0  1 V2000
  155.2904  140.2324  162.3496 C   0  0  0  0  0  0  0  0  0  0  0  0
  154.4525  141.0481  161.4147 C   0  0  0  0  0  0  0  0  0  0  0  0
  154.3496  140.7237  160.0640 N   0  0  0  0  0  0  0  0  0  0  0  0
  153.5361  141.6506  159.5774 C   0  0  0  0  0  0  0  0  0  0  0  0
  153.1058  142.5437  160.4796 N   0  0  0  0  0  0  0  0  0  0  0  0
  152.2118  143.6649  160.2308 C   0  0  0  0  0  0  0  0  0  0  0  0
  151.5490  143.6069  158.8490 C   0  0  0  0  0  0  0  0  0  0  0  0
  151.7807  144.4632  157.9942 O   0  0  0  0  0  0  0  0  0  0  0  0
  150.7198  142.5720  158.6466 N   0  0  0  0  0  0  0  0  0  0  0  0
  150.0151  142.2862  157.4003 C   0  0  0  0  0  0  0  0  0  0  0  0
  150.4018  140.9205  156.7999 C   0  0  2  0  0  0  0  0  0  0  0  0
  151.8084  140.8304  156.2005 C   0  0  0  0  0  0  0  0  0  0  0  0
  151.6435  139.6934  155.2181 C   0  0  0  0  0  0  0  0  0  0  0  0
  150.2421  139.9573  154.6764 C   0  0  0  0  0  0  0  0  0  0  0  0
  149.5117  140.5371  155.7536 O   0  0  0  0  0  0  0  0  0  0  0  0
  153.6920  142.1656  161.6865 C   0  0  0  0  0  0  0  0  0  0  0  0
  153.4687  142.8919  162.9734 C   0  0  0  0  0  0  0  0  0  0  0  0
  156.0376  140.8507  162.8473 H   0  0  0  0  0  0  0  0  0  0  0  0
  155.8187  139.4358  161.8251 H   0  0  0  0  0  0  0  0  0  0  0  0
  154.6765  139.7684  163.1217 H   0  0  0  0  0  0  0  0  0  0  0  0
  153.2463  141.6809  158.5373 H   0  0  0  0  0  0  0  0  0  0  0  0
  151.4466  143.6820  161.0077 H   0  0  0  0  0  0  0  0  0  0  0  0
  152.7770  144.5937  160.3186 H   0  0  0  0  0  0  0  0  0  0  0  0
  150.5836  141.9196  159.4050 H   0  0  0  0  0  0  0  0  0  0  0  0
  148.9463  142.2967  157.6146 H   0  0  0  0  0  0  0  0  0  0  0  0
  150.1855  143.0797  156.6709 H   0  0  0  0  0  0  0  0  0  0  0  0
  150.3120  140.1591  157.5761 H   0  0  0  0  0  0  0  0  0  0  0  0
  152.0754  141.7403  155.6620 H   0  0  0  0  0  0  0  0  0  0  0  0
  152.5773  140.6403  156.9498 H   0  0  0  0  0  0  0  0  0  0  0  0
  152.4068  139.6822  154.4397 H   0  0  0  0  0  0  0  0  0  0  0  0
  151.6719  138.7369  155.7418 H   0  0  0  0  0  0  0  0  0  0  0  0
  150.2838  140.6781  153.8595 H   0  0  0  0  0  0  0  0  0  0  0  0
  149.7584  139.0532  154.3063 H   0  0  0  0  0  0  0  0  0  0  0  0
  154.0662  142.4625  163.7773 H   0  0  0  0  0  0  0  0  0  0  0  0
  152.4214  142.8353  163.2698 H   0  0  0  0  0  0  0  0  0  0  0  0
  153.7399  143.9435  162.8806 H   0  0  0  0  0  0  0  0  0  0  0  0
  1  2  1  0  0  0  0
  1 18  1  0  0  0  0
  1 19  1  0  0  0  0
  1 20  1  0  0  0  0
  2 16  2  0  0  0  0
  2  3  1  0  0  0  0
  3  4  2  0  0  0  0
  4  5  1  0  0  0  0
  4 21  1  0  0  0  0
  5  6  1  0  0  0  0
  5 16  1  0  0  0  0
  6  7  1  0  0  0  0
  6 22  1  0  0  0  0
  6 23  1  0  0  0  0
  7  8  2  0  0  0  0
  7  9  1  0  0  0  0
  9 10  1  0  0  0  0
  9 24  1  0  0  0  0
 10 11  1  0  0  0  0
 10 25  1  0  0  0  0
 10 26  1  0  0  0  0
 11 15  1  0  0  0  0
 11 12  1  0  0  0  0
 11 27  1  0  0  0  0
 12 13  1  0  0  0  0
 12 28  1  0  0  0  0
 12 29  1  0  0  0  0
 13 14  1  0  0  0  0
 13 30  1  0  0  0  0
 13 31  1  0  0  0  0
 14 15  1  0  0  0  0
 14 32  1  0  0  0  0
 14 33  1  0  0  0  0
 16 17  1  0  0  0  0
 17 34  1  0  0  0  0
 17 35  1  0  0  0  0
 17 36  1  0  0  0  0
M  END
> <s_m_source_file>
AV-unprocessed.smi

> <i_m_source_file_index>
3147

> <i_lp_mmshare_version>
43012

> <i_f3d_flags>
0

> <s_epik_input>
W0NIM11jMW5bY0hdbihjMVtDSDNdKVtDSDJdQyg9TylbTkhdW0NIMl1bQ0BASF0yW0NIMl1bQ0gyXVtDSDJdTzI=

> <s_epik_cmdline>
J2VwaWtfcHl0aG9uJywgJy1waCcsICc3LjAnLCAnLXRuJywgJzgnLCAnLW1hJywgJzIwMCcsICctbWV0YWxfYmluZGluZycsICctaW1hZScsICc8aW5maWxlLm1hZT4nLCAnLW9tYWUnLCAnPG91dGZpbGUubWFlPic=

> <r_lp_tautomer_probability>
1

> <r_epik_Ionization_Penalty>
0.957393

> <r_epik_Ionization_Penalty_Charging>
0.957393

> <r_epik_Ionization_Penalty_Neutral>
1.43432e-07

> <r_epik_State_Penalty>
1.0022

> <r_epik_Charging_Adjusted_Penalty>
1.9596

> <i_epik_Tot_Q>
0

> <i_epik_Tot_abs_Q>
0

> <r_epik_Metal_State_Penalty>
0.374967

> <b_epik_Metal_Only>
0

> <s_lp_Force_Field>
OPLS_2005

> <r_lp_Energy>
19.2408

> <b_lp_Chiralities_Consistent>
1

> <s_lp_Variant>
AV-unprocessed.smi:3147-3

> <Gold.Version>
5.8.1

> <Gold.Id.Protein>
6NUR|6NUR_protein|mol2

> <Gold.PLP.Fitness>
39.1049

> <Gold.PLP.PLP>
-39.5179

> <Gold.PLP.part.hbond>
0.0000

> <Gold.PLP.part.metal>
0.0000

> <Gold.PLP.part.buried>
-3.7847

> <Gold.PLP.part.nonpolar>
-34.4389

> <Gold.PLP.part.repulsive>
0.2455

> <Gold.PLP.ligand.clash>
0.0000

> <Gold.PLP.ligand.torsion>
0.2109

> <Gold.PLP.Chemscore.Hbond>
0.0000

> <Gold.PLP.Chemscore.CHOScore>
0.0000

> <Gold.PLP.Chemscore.Metal>
0.0000

> <Gold.PLP.Chemscore.Internal.Correction>
0.0088

> <Gold.Rescore>
     Score         DG    S(hbond)    S(metal)    S(lipo)     H(rot)  DE(clash)    DE(int)     intcor
     10.37     -10.49       0.00        0.00      80.12       1.70       0.01       0.11       ----

> <Gold.Chemscore.Fitness>
10.3690

> <Gold.Chemscore.DG>
-10.4936

> <Gold.Chemscore.ZeroCoef>
-5.4800

> <Gold.Chemscore.Hbond>
0.0000

> <Gold.Chemscore.Metal>
0.0000

> <Gold.Chemscore.Lipo>
80.1224

> <Gold.Chemscore.Internal_Hbond>
0.0000

> <Gold.Chemscore.DEClash>
0.0111

> <Gold.Chemscore.DEInternal>
0.1135

> <Gold.Chemscore.Rot>
1.7034

> <Gold.Chemscore.Internal.Correction>
   9.000000E+99

> <Gold.Chemscore.Hbond.Weighted>
-0.0000

> <Gold.Chemscore.Metal.Weighted>
-0.0000

> <Gold.Chemscore.Lipo.Weighted>
-9.3743

> <Gold.Chemscore.Internal_Hbond.Weighted>
0.0000

> <Gold.Chemscore.DEClash.Weighted>
0.0111

> <Gold.Chemscore.DEInternal.Weighted>
0.1135

> <Gold.Chemscore.Rot.Weighted>
4.3607

> <Gold.Chemscore.Internal.Correction.Weighted>
   9.000000E+99

> <Gold.Protein.RotatedTorsions>
[ 6907 6896 6895 6894 ] final  -51.83 input  -60.11 | X-H torsion
[ 7974 7965 7964 7962 ] final   54.54 input  175.53 | X-H torsion
[ 8008 7997 7996 7995 ] final  -80.26 input   59.86 | X-H torsion
[ 10167 10162 10161 10158 ] final   52.94 input  -65.29 | X-H torsion
[ 10718 10713 10712 10709 ] final   59.44 input   66.30 | X-H torsion
[ 10763 10752 10751 10750 ] final  159.73 input  -60.55 | X-H torsion
[ 11005 11000 10999 10996 ] final -136.13 input  -57.11 | X-H torsion

> <Gold.Protein.ActiveResidues>
 VAL166  LYS551  ARG553  GLY616  TRP617  ASP618  TYR619  PRO620  LYS621  CYS622 
 ASP623  PHE694  ASN695  SER759  ASP760  ASP761  ALA762  ILE779  LEU786  VAL792 
 PHE793  MET794  SER795  GLU796  ALA797  LYS798  CYS799  TRP800  GLU811  SER814 

> <Gold.Protein.RotatedAtoms>
  150.8574  134.7917  159.7055 H   0  0  0  0  0  0  0  0  0  0  0  0  # atno 6907 bound_to 6896
  152.4621  134.5156  159.9777 H   0  0  0  0  0  0  0  0  0  0  0  0  # atno 6908 bound_to 6896
  151.5266  133.3418  159.2946 H   0  0  0  0  0  0  0  0  0  0  0  0  # atno 6909 bound_to 6896
  145.9597  139.4048  143.0255 H   0  0  0  0  0  0  0  0  0  0  0  0  # atno 7974 bound_to 7965
  154.5866  140.0665  156.9179 H   0  0  0  0  0  0  0  0  0  0  0  0  # atno 8008 bound_to 7997
  155.2369  140.3341  155.4278 H   0  0  0  0  0  0  0  0  0  0  0  0  # atno 8009 bound_to 7997
  156.2227  140.1805  156.7423 H   0  0  0  0  0  0  0  0  0  0  0  0  # atno 8010 bound_to 7997
  140.2461  144.3531  150.6364 H   0  0  0  0  0  0  0  0  0  0  0  0  # atno 10167 bound_to 10162
  157.5676  130.8883  149.9213 H   0  0  0  0  0  0  0  0  0  0  0  0  # atno 10718 bound_to 10713
  154.2363  135.2776  155.2871 H   0  0  0  0  0  0  0  0  0  0  0  0  # atno 10763 bound_to 10752
  154.5582  135.5655  153.6986 H   0  0  0  0  0  0  0  0  0  0  0  0  # atno 10764 bound_to 10752
  153.0009  135.6291  154.2506 H   0  0  0  0  0  0  0  0  0  0  0  0  # atno 10765 bound_to 10752
  140.8834  134.1903  157.4576 H   0  0  0  0  0  0  0  0  0  0  0  0  # atno 11005 bound_to 11000
  145.8056  140.9750  143.0975 LP  0  0  0  0  0  0  0  0  0  0  0  0  # atno 17320 bound_to 7965
  144.6812  139.9857  143.7484 LP  0  0  0  0  0  0  0  0  0  0  0  0  # atno 17321 bound_to 7965
  140.6077  143.2168  151.6949 LP  0  0  0  0  0  0  0  0  0  0  0  0  # atno 17342 bound_to 10162
  139.5061  144.3692  152.0486 LP  0  0  0  0  0  0  0  0  0  0  0  0  # atno 17343 bound_to 10162
  156.0723  130.3683  150.0750 LP  0  0  0  0  0  0  0  0  0  0  0  0  # atno 17370 bound_to 10713
  156.8907  130.9587  151.3589 LP  0  0  0  0  0  0  0  0  0  0  0  0  # atno 17371 bound_to 10713
  139.8722  134.9827  156.5167 LP  0  0  0  0  0  0  0  0  0  0  0  0  # atno 17394 bound_to 11000
  140.8434  133.8187  155.9097 LP  0  0  0  0  0  0  0  0  0  0  0  0  # atno 17395 bound_to 11000

$$$$
