AV-unprocessed.smi:678|AV-procd|sdf|3316|dock2
  -GOLD-   22720 0283D 1   1.00000     0.00000
 Structure written by MMmdl.
 51 52  0  0  0  0  0  0  0  0  2 V2000
  153.7132  141.4616  160.4046 C   0  0  0  0  0  0  0  0  0  0  0  0
  152.6920  142.0771  159.4649 C   0  0  0  0  0  0  0  0  0  0  0  0
  152.1382  143.2825  159.7186 C   0  0  0  0  0  0  0  0  0  0  0  0
  151.1694  143.8616  158.8204 C   0  0  0  0  0  0  0  0  0  0  0  0
  150.8349  143.1734  157.7196 C   0  0  0  0  0  0  0  0  0  0  0  0
  151.3993  141.9176  157.4295 N   0  0  0  0  0  0  0  0  0  0  0  0
  150.9619  141.2576  156.1872 C   0  0  0  0  0  0  0  0  0  0  0  0
  150.0855  140.0264  156.4495 C   0  0  0  0  0  0  0  0  0  0  0  0
  150.4672  139.1383  157.2123 O   0  0  0  0  0  0  0  0  0  0  0  0
  148.9152  139.9837  155.7951 N   0  0  0  0  0  0  0  0  0  0  0  0
  147.9776  138.8654  155.8101 C   0  0  0  0  0  0  0  0  0  0  0  0
  147.6879  138.3451  154.3886 C   0  0  1  0  0  0  0  0  0  0  0  0
  146.8769  137.0305  154.3637 C   0  0  0  0  0  0  0  0  0  0  0  0
  146.5732  136.6224  152.9707 N   0  3  1  0  0  0  0  0  0  0  0  0
  145.8161  135.3477  152.8681 C   0  0  0  0  0  0  0  0  0  0  0  0
  145.7877  134.7463  151.4443 C   0  0  0  0  0  0  0  0  0  0  0  0
  144.7190  135.4054  150.5561 C   0  0  0  0  0  0  0  0  0  0  0  0
  145.5682  133.2274  151.5124 C   0  0  0  0  0  0  0  0  0  0  0  0
  145.9062  137.7272  152.2423 C   0  0  0  0  0  0  0  0  0  0  0  0
  146.7386  139.0160  152.3325 C   0  0  0  0  0  0  0  0  0  0  0  0
  146.9527  139.3490  153.6982 O   0  0  0  0  0  0  0  0  0  0  0  0
  152.3157  141.3212  158.2559 C   0  0  0  0  0  0  0  0  0  0  0  0
  152.7931  140.2144  157.9957 O   0  0  0  0  0  0  0  0  0  0  0  0
  153.9263  142.1191  161.2481 H   0  0  0  0  0  0  0  0  0  0  0  0
  154.6501  141.2703  159.8809 H   0  0  0  0  0  0  0  0  0  0  0  0
  153.3415  140.5176  160.8007 H   0  0  0  0  0  0  0  0  0  0  0  0
  152.4208  143.8290  160.6065 H   0  0  0  0  0  0  0  0  0  0  0  0
  150.7243  144.8231  159.0300 H   0  0  0  0  0  0  0  0  0  0  0  0
  150.1149  143.5356  157.0002 H   0  0  0  0  0  0  0  0  0  0  0  0
  150.3989  141.9440  155.5534 H   0  0  0  0  0  0  0  0  0  0  0  0
  151.8367  140.9748  155.5982 H   0  0  0  0  0  0  0  0  0  0  0  0
  148.6783  140.7663  155.2023 H   0  0  0  0  0  0  0  0  0  0  0  0
  148.3342  138.0577  156.4516 H   0  0  0  0  0  0  0  0  0  0  0  0
  147.0515  139.2243  156.2598 H   0  0  0  0  0  0  0  0  0  0  0  0
  148.6404  138.1951  153.8760 H   0  0  0  0  0  0  0  0  0  0  0  0
  147.4503  136.2454  154.8513 H   0  0  0  0  0  0  0  0  0  0  0  0
  145.9481  137.1483  154.9243 H   0  0  0  0  0  0  0  0  0  0  0  0
  146.2338  134.6279  153.5740 H   0  0  0  0  0  0  0  0  0  0  0  0
  144.7873  135.5245  153.1861 H   0  0  0  0  0  0  0  0  0  0  0  0
  146.7576  134.8959  150.9708 H   0  0  0  0  0  0  0  0  0  0  0  0
  143.7226  135.2936  150.9849 H   0  0  0  0  0  0  0  0  0  0  0  0
  144.7046  134.9572  149.5620 H   0  0  0  0  0  0  0  0  0  0  0  0
  144.9096  136.4707  150.4246 H   0  0  0  0  0  0  0  0  0  0  0  0
  144.6112  132.9846  151.9750 H   0  0  0  0  0  0  0  0  0  0  0  0
  146.3519  132.7427  152.0953 H   0  0  0  0  0  0  0  0  0  0  0  0
  145.5770  132.7798  150.5183 H   0  0  0  0  0  0  0  0  0  0  0  0
  145.7693  137.4526  151.1956 H   0  0  0  0  0  0  0  0  0  0  0  0
  144.9133  137.8951  152.6627 H   0  0  0  0  0  0  0  0  0  0  0  0
  147.6936  138.9017  151.8169 H   0  0  0  0  0  0  0  0  0  0  0  0
  146.2120  139.8377  151.8469 H   0  0  0  0  0  0  0  0  0  0  0  0
  147.4589  136.4695  152.5095 H   0  0  0  0  0  0  0  0  0  0  0  0
  1  2  1  0  0  0  0
  1 24  1  0  0  0  0
  1 25  1  0  0  0  0
  1 26  1  0  0  0  0
  2 22  1  0  0  0  0
  2  3  2  0  0  0  0
  3  4  1  0  0  0  0
  3 27  1  0  0  0  0
  4  5  2  0  0  0  0
  4 28  1  0  0  0  0
  5  6  1  0  0  0  0
  5 29  1  0  0  0  0
  6  7  1  0  0  0  0
  6 22  1  0  0  0  0
  7  8  1  0  0  0  0
  7 30  1  0  0  0  0
  7 31  1  0  0  0  0
  8  9  2  0  0  0  0
  8 10  1  0  0  0  0
 10 11  1  0  0  0  0
 10 32  1  0  0  0  0
 11 12  1  0  0  0  0
 11 33  1  0  0  0  0
 11 34  1  0  0  0  0
 12 21  1  0  0  0  0
 12 13  1  0  0  0  0
 12 35  1  0  0  0  0
 13 14  1  0  0  0  0
 13 36  1  0  0  0  0
 13 37  1  0  0  0  0
 14 15  1  0  0  0  0
 14 19  1  0  0  0  0
 14 51  1  0  0  0  0
 15 16  1  0  0  0  0
 15 38  1  0  0  0  0
 15 39  1  0  0  0  0
 16 17  1  0  0  0  0
 16 18  1  0  0  0  0
 16 40  1  0  0  0  0
 17 41  1  0  0  0  0
 17 42  1  0  0  0  0
 17 43  1  0  0  0  0
 18 44  1  0  0  0  0
 18 45  1  0  0  0  0
 18 46  1  0  0  0  0
 19 20  1  0  0  0  0
 19 47  1  0  0  0  0
 19 48  1  0  0  0  0
 20 21  1  0  0  0  0
 20 49  1  0  0  0  0
 20 50  1  0  0  0  0
 22 23  2  0  0  0  0
M  CHG  1  14   1
M  END
> <s_m_source_file>
AV-unprocessed.smi

> <i_m_source_file_index>
678

> <i_lp_mmshare_version>
43012

> <i_f3d_flags>
0

> <s_epik_input>
W0NIM11jMVtjSF1bY0hdW2NIXW4oYzE9TylbQ0gyXUMoPU8pW05IXVtDSDJdW0NAQEhdMltDSDJdTihbQ0gyXVtDSDJdTzIpW0NIMl1bQ0hdKFtDSDNdKVtDSDNd

> <s_epik_cmdline>
J2VwaWtfcHl0aG9uJywgJy1waCcsICc3LjAnLCAnLXRuJywgJzgnLCAnLW1hJywgJzIwMCcsICctbWV0YWxfYmluZGluZycsICctaW1hZScsICc8aW5maWxlLm1hZT4nLCAnLW9tYWUnLCAnPG91dGZpbGUubWFlPic=

> <r_lp_tautomer_probability>
1

> <r_epik_Ionization_Penalty>
0.0975937

> <r_epik_Ionization_Penalty_Charging>
0.0975937

> <r_epik_Ionization_Penalty_Neutral>
6.27044e-08

> <r_epik_State_Penalty>
0.0877056

> <r_epik_Charging_Adjusted_Penalty>
0.185299

> <i_epik_Tot_Q>
1

> <i_epik_Tot_abs_Q>
1

> <r_epik_Metal_State_Penalty>
0.0877109

> <b_epik_Metal_Only>
0

> <s_lp_Force_Field>
OPLS_2005

> <r_lp_Energy>
24.9946

> <b_lp_Chiralities_Consistent>
1

> <s_lp_Variant>
AV-unprocessed.smi:678-4

> <Gold.Version>
5.8.1

> <Gold.Id.Protein>
6NUR|6NUR_protein|mol2

> <Gold.PLP.Fitness>
51.1026

> <Gold.PLP.PLP>
-40.0575

> <Gold.PLP.part.hbond>
-2.0000

> <Gold.PLP.part.metal>
0.0000

> <Gold.PLP.part.buried>
-4.3809

> <Gold.PLP.part.nonpolar>
-34.5498

> <Gold.PLP.part.repulsive>
0.2222

> <Gold.PLP.ligand.clash>
0.0000

> <Gold.PLP.ligand.torsion>
0.5093

> <Gold.PLP.Chemscore.Hbond>
3.0000

> <Gold.PLP.Chemscore.CHOScore>
1.0000

> <Gold.PLP.Chemscore.Metal>
0.0000

> <Gold.Chemscore.Hbonds>
donor molecule, donor type, donor heavy atom, donor atom, acceptor molecule, acceptor atom, score
      L1  H    14    51       P1  7948  2.00
      P1  H  7997  8009       L1    23  0.98
      L1  C     5    29       P1  8028  1.00

> <Gold.PLP.Chemscore.Internal.Correction>
0.0637

> <Gold.Rescore>
     Score         DG    S(hbond)    S(metal)    S(lipo)     H(rot)  DE(clash)    DE(int)     intcor
     16.65     -18.69       1.92        0.00      99.47       1.89       0.06       1.98       ----

> <Gold.Chemscore.Fitness>
16.6519

> <Gold.Chemscore.DG>
-18.6895

> <Gold.Chemscore.ZeroCoef>
-5.4800

> <Gold.Chemscore.Hbond>
1.9170

> <Gold.Chemscore.Metal>
0.0000

> <Gold.Chemscore.Lipo>
99.4669

> <Gold.Chemscore.Internal_Hbond>
0.0000

> <Gold.Chemscore.DEClash>
0.0601

> <Gold.Chemscore.DEInternal>
1.9774

> <Gold.Chemscore.Rot>
1.8871

> <Gold.Chemscore.Internal.Correction>
   9.000000E+99

> <Gold.Chemscore.Hbonds>
donor molecule, donor type, donor heavy atom, donor atom, acceptor molecule, acceptor atom, score
      L1  H    14    51       P1  7948  1.00
      P1  H  7997  8009       L1    23  0.85

> <Gold.Chemscore.Hbond.Weighted>
-6.4028

> <Gold.Chemscore.Metal.Weighted>
-0.0000

> <Gold.Chemscore.Lipo.Weighted>
-11.6376

> <Gold.Chemscore.Internal_Hbond.Weighted>
0.0000

> <Gold.Chemscore.DEClash.Weighted>
0.0601

> <Gold.Chemscore.DEInternal.Weighted>
1.9774

> <Gold.Chemscore.Rot.Weighted>
4.8309

> <Gold.Chemscore.Internal.Correction.Weighted>
   9.000000E+99

> <Gold.Protein.RotatedTorsions>
[ 6907 6896 6895 6894 ] final  168.29 input  -60.11 | X-H torsion
[ 7974 7965 7964 7962 ] final -167.46 input  175.53 | X-H torsion
[ 8008 7997 7996 7995 ] final  166.86 input   59.86 | X-H torsion
[ 10167 10162 10161 10158 ] final  104.15 input  -65.29 | X-H torsion
[ 10718 10713 10712 10709 ] final -174.16 input   66.30 | X-H torsion
[ 10763 10752 10751 10750 ] final -103.52 input  -60.55 | X-H torsion
[ 11005 11000 10999 10996 ] final  -37.48 input  -57.11 | X-H torsion

> <Gold.Protein.ActiveResidues>
 VAL166  LYS551  ARG553  GLY616  TRP617  ASP618  TYR619  PRO620  LYS621  CYS622 
 ASP623  PHE694  ASN695  SER759  ASP760  ASP761  ALA762  ILE779  LEU786  VAL792 
 PHE793  MET794  SER795  GLU796  ALA797  LYS798  CYS799  TRP800  GLU811  SER814 

> <Gold.Protein.RotatedAtoms>
  151.8500  133.3438  159.3669 H   0  0  0  0  0  0  0  0  0  0  0  0  # atno 6907 bound_to 6896
  150.7209  134.5308  159.5709 H   0  0  0  0  0  0  0  0  0  0  0  0  # atno 6908 bound_to 6896
  152.2800  134.7840  160.0449 H   0  0  0  0  0  0  0  0  0  0  0  0  # atno 6909 bound_to 6896
  144.7222  140.2515  143.6278 H   0  0  0  0  0  0  0  0  0  0  0  0  # atno 7974 bound_to 7965
  156.1682  140.1632  156.8493 H   0  0  0  0  0  0  0  0  0  0  0  0  # atno 8008 bound_to 7997
  154.5230  140.0774  156.8241 H   0  0  0  0  0  0  0  0  0  0  0  0  # atno 8009 bound_to 7997
  155.3567  140.3393  155.4242 H   0  0  0  0  0  0  0  0  0  0  0  0  # atno 8010 bound_to 7997
  139.7202  144.7060  151.0885 H   0  0  0  0  0  0  0  0  0  0  0  0  # atno 10167 bound_to 10162
  156.7810  130.9483  151.3120 H   0  0  0  0  0  0  0  0  0  0  0  0  # atno 10718 bound_to 10713
  154.7813  135.4820  153.9851 H   0  0  0  0  0  0  0  0  0  0  0  0  # atno 10763 bound_to 10752
  153.1498  135.6789  153.8907 H   0  0  0  0  0  0  0  0  0  0  0  0  # atno 10764 bound_to 10752
  153.8554  135.3162  155.3413 H   0  0  0  0  0  0  0  0  0  0  0  0  # atno 10765 bound_to 10752
  140.9955  133.6982  156.1927 H   0  0  0  0  0  0  0  0  0  0  0  0  # atno 11005 bound_to 11000
  145.8224  139.2049  143.1930 LP  0  0  0  0  0  0  0  0  0  0  0  0  # atno 17320 bound_to 7965
  146.0503  140.8076  142.9785 LP  0  0  0  0  0  0  0  0  0  0  0  0  # atno 17321 bound_to 7965
  140.7752  143.5176  150.9575 LP  0  0  0  0  0  0  0  0  0  0  0  0  # atno 17342 bound_to 10162
  139.8863  143.7009  152.3151 LP  0  0  0  0  0  0  0  0  0  0  0  0  # atno 17343 bound_to 10162
  157.6646  130.8996  149.9904 LP  0  0  0  0  0  0  0  0  0  0  0  0  # atno 17370 bound_to 10713
  156.1218  130.3645  149.9875 LP  0  0  0  0  0  0  0  0  0  0  0  0  # atno 17371 bound_to 10713
  140.6972  134.4602  157.5587 LP  0  0  0  0  0  0  0  0  0  0  0  0  # atno 17394 bound_to 11000
  139.9013  134.8550  156.1886 LP  0  0  0  0  0  0  0  0  0  0  0  0  # atno 17395 bound_to 11000

$$$$
