AV-unprocessed.smi:3336|AV-procd|sdf|12857|dock4
  -GOLD-   2272019253D 1   1.00000     0.00000
 Structure written by MMmdl.
 41 42  0  0  0  0  0  0  0  0  1 V2000
  151.0750  144.9440  158.5110 C   0  0  0  0  0  0  0  0  0  0  0  0
  151.3434  143.4468  158.2884 C   0  0  2  0  0  0  0  0  0  0  0  0
  152.7872  143.0368  158.6776 C   0  0  0  0  0  0  0  0  0  0  0  0
  153.0011  142.8994  160.1098 N   0  0  0  0  0  0  0  0  0  0  0  0
  153.5838  141.8527  160.7939 C   0  0  0  0  0  0  0  0  0  0  0  0
  153.5702  142.1751  162.1206 C   0  0  0  0  0  0  0  0  0  0  0  0
  152.9556  143.4580  162.1501 C   0  0  0  0  0  0  0  0  0  0  0  0
  152.6214  143.8909  160.9456 N   0  0  0  0  0  0  0  0  0  0  0  0
  151.0196  143.1557  156.8885 N   0  0  0  0  0  0  0  0  0  0  0  0
  150.5230  141.7968  156.5839 C   0  0  2  0  0  0  0  0  0  0  0  0
  149.0526  141.6887  157.0176 C   0  0  0  0  0  0  0  0  0  0  0  0
  151.3512  140.6648  157.2364 C   0  0  0  0  0  0  0  0  0  0  0  0
  151.4345  140.6453  158.4662 O   0  0  0  0  0  0  0  0  0  0  0  0
  151.9563  139.7247  156.4667 N   0  0  0  0  0  0  0  0  0  0  0  0
  152.7903  138.6574  157.0311 C   0  0  0  0  0  0  0  0  0  0  0  0
  152.1139  137.3036  156.7557 C   0  0  0  0  0  0  0  0  0  0  0  0
  151.9408  137.1368  155.3518 O   0  0  0  0  0  0  0  0  0  0  0  0
  151.1533  138.1683  154.7642 C   0  0  0  0  0  0  0  0  0  0  0  0
  151.8087  139.5384  155.0176 C   0  0  0  0  0  0  0  0  0  0  0  0
  151.3054  145.2336  159.5366 H   0  0  0  0  0  0  0  0  0  0  0  0
  150.0266  145.1853  158.3325 H   0  0  0  0  0  0  0  0  0  0  0  0
  151.6733  145.5681  157.8467 H   0  0  0  0  0  0  0  0  0  0  0  0
  150.6567  142.9074  158.9398 H   0  0  0  0  0  0  0  0  0  0  0  0
  153.0193  142.0760  158.2170 H   0  0  0  0  0  0  0  0  0  0  0  0
  153.5237  143.7312  158.2728 H   0  0  0  0  0  0  0  0  0  0  0  0
  153.9529  140.9746  160.2844 H   0  0  0  0  0  0  0  0  0  0  0  0
  153.9431  141.5849  162.9445 H   0  0  0  0  0  0  0  0  0  0  0  0
  152.7460  144.0845  163.0048 H   0  0  0  0  0  0  0  0  0  0  0  0
  150.3827  143.8587  156.5417 H   0  0  0  0  0  0  0  0  0  0  0  0
  150.5542  141.6960  155.5030 H   0  0  0  0  0  0  0  0  0  0  0  0
  148.6295  140.7156  156.7670 H   0  0  0  0  0  0  0  0  0  0  0  0
  148.4437  142.4435  156.5189 H   0  0  0  0  0  0  0  0  0  0  0  0
  148.9413  141.8314  158.0933 H   0  0  0  0  0  0  0  0  0  0  0  0
  153.7757  138.6859  156.5636 H   0  0  0  0  0  0  0  0  0  0  0  0
  152.9647  138.7685  158.1019 H   0  0  0  0  0  0  0  0  0  0  0  0
  152.7310  136.4888  157.1342 H   0  0  0  0  0  0  0  0  0  0  0  0
  151.1501  137.2387  157.2633 H   0  0  0  0  0  0  0  0  0  0  0  0
  151.0710  137.9821  153.6934 H   0  0  0  0  0  0  0  0  0  0  0  0
  150.1413  138.1413  155.1716 H   0  0  0  0  0  0  0  0  0  0  0  0
  151.2106  140.2978  154.5214 H   0  0  0  0  0  0  0  0  0  0  0  0
  152.7928  139.5775  154.5485 H   0  0  0  0  0  0  0  0  0  0  0  0
  1  2  1  0  0  0  0
  1 20  1  0  0  0  0
  1 21  1  0  0  0  0
  1 22  1  0  0  0  0
  2  3  1  0  0  0  0
  2  9  1  0  0  0  0
  2 23  1  0  0  0  0
  3  4  1  0  0  0  0
  3 24  1  0  0  0  0
  3 25  1  0  0  0  0
  4  8  1  0  0  0  0
  4  5  1  0  0  0  0
  5  6  2  0  0  0  0
  5 26  1  0  0  0  0
  6  7  1  0  0  0  0
  6 27  1  0  0  0  0
  7  8  2  0  0  0  0
  7 28  1  0  0  0  0
  9 10  1  0  0  0  0
  9 29  1  0  0  0  0
 10 11  1  0  0  0  0
 10 12  1  0  0  0  0
 10 30  1  0  0  0  0
 11 31  1  0  0  0  0
 11 32  1  0  0  0  0
 11 33  1  0  0  0  0
 12 13  2  0  0  0  0
 12 14  1  0  0  0  0
 14 19  1  0  0  0  0
 14 15  1  0  0  0  0
 15 16  1  0  0  0  0
 15 34  1  0  0  0  0
 15 35  1  0  0  0  0
 16 17  1  0  0  0  0
 16 36  1  0  0  0  0
 16 37  1  0  0  0  0
 17 18  1  0  0  0  0
 18 19  1  0  0  0  0
 18 38  1  0  0  0  0
 18 39  1  0  0  0  0
 19 40  1  0  0  0  0
 19 41  1  0  0  0  0
M  END
> <s_m_source_file>
AV-unprocessed.smi

> <i_m_source_file_index>
3336

> <i_lp_mmshare_version>
43012

> <i_f3d_flags>
0

> <s_epik_input>
bjFbY0hdW2NIXVtjSF1uMVtDSDJdW0NAQEhdKFtDSDNdKVtOSF1bQ0BIXShbQ0gzXSlDKD1PKU4yW0NIMl1bQ0gyXU9bQ0gyXVtDSDJdMg==

> <s_epik_cmdline>
J2VwaWtfcHl0aG9uJywgJy1waCcsICc3LjAnLCAnLXRuJywgJzgnLCAnLW1hJywgJzIwMCcsICctbWV0YWxfYmluZGluZycsICctaW1hZScsICc8aW5maWxlLm1hZT4nLCAnLW9tYWUnLCAnPG91dGZpbGUubWFlPic=

> <r_lp_tautomer_probability>
1

> <r_epik_Ionization_Penalty>
0.739958

> <r_epik_Ionization_Penalty_Charging>
0

> <r_epik_Ionization_Penalty_Neutral>
0.739958

> <r_epik_State_Penalty>
0.765967

> <r_epik_Charging_Adjusted_Penalty>
0.765967

> <i_epik_Tot_Q>
0

> <i_epik_Tot_abs_Q>
0

> <r_epik_Metal_State_Penalty>
0.765947

> <b_epik_Metal_Only>
0

> <s_lp_Force_Field>
OPLS_2005

> <r_lp_Energy>
28.3859

> <b_lp_Chiralities_Consistent>
1

> <s_lp_Variant>
AV-unprocessed.smi:3336-5

> <Gold.Version>
5.8.1

> <Gold.Id.Protein>
6NUR|6NUR_protein|mol2

> <Gold.PLP.Fitness>
48.3181

> <Gold.PLP.PLP>
-43.6724

> <Gold.PLP.part.hbond>
-2.0000

> <Gold.PLP.part.metal>
0.0000

> <Gold.PLP.part.buried>
-4.0830

> <Gold.PLP.part.nonpolar>
-36.9978

> <Gold.PLP.part.repulsive>
0.1604

> <Gold.PLP.ligand.clash>
0.0000

> <Gold.PLP.ligand.torsion>
0.7329

> <Gold.PLP.Chemscore.Hbond>
1.9920

> <Gold.PLP.Chemscore.CHOScore>
0.0000

> <Gold.PLP.Chemscore.Metal>
0.0000

> <Gold.Chemscore.Hbonds>
donor molecule, donor type, donor heavy atom, donor atom, acceptor molecule, acceptor atom, score
      L1  H     9    29       P1  8028  1.00
      P1  H 10752 10764       L1    17  0.98

> <Gold.PLP.Chemscore.Internal.Correction>
0.1355

> <Gold.Rescore>
     Score         DG    S(hbond)    S(metal)    S(lipo)     H(rot)  DE(clash)    DE(int)     intcor
     15.96     -19.61       1.94        0.00     104.55       1.79       0.03       3.62       ----

> <Gold.Chemscore.Fitness>
15.9635

> <Gold.Chemscore.DG>
-19.6136

> <Gold.Chemscore.ZeroCoef>
-5.4800

> <Gold.Chemscore.Hbond>
1.9439

> <Gold.Chemscore.Metal>
0.0000

> <Gold.Chemscore.Lipo>
104.5494

> <Gold.Chemscore.Internal_Hbond>
0.0000

> <Gold.Chemscore.DEClash>
0.0262

> <Gold.Chemscore.DEInternal>
3.6240

> <Gold.Chemscore.Rot>
1.7935

> <Gold.Chemscore.Internal.Correction>
   9.000000E+99

> <Gold.Chemscore.Hbonds>
donor molecule, donor type, donor heavy atom, donor atom, acceptor molecule, acceptor atom, score
      L1  H     9    29       P1  8028  0.99
      P1  H 10752 10764       L1    17  0.72

> <Gold.Chemscore.Hbond.Weighted>
-6.4925

> <Gold.Chemscore.Metal.Weighted>
-0.0000

> <Gold.Chemscore.Lipo.Weighted>
-12.2323

> <Gold.Chemscore.Internal_Hbond.Weighted>
0.0000

> <Gold.Chemscore.DEClash.Weighted>
0.0262

> <Gold.Chemscore.DEInternal.Weighted>
3.6240

> <Gold.Chemscore.Rot.Weighted>
4.5912

> <Gold.Chemscore.Internal.Correction.Weighted>
   9.000000E+99

> <Gold.Protein.RotatedTorsions>
[ 6907 6896 6895 6894 ] final  127.38 input  -60.11 | X-H torsion
[ 7974 7965 7964 7962 ] final  -74.31 input  175.53 | X-H torsion
[ 8008 7997 7996 7995 ] final   64.35 input   59.86 | X-H torsion
[ 10167 10162 10161 10158 ] final   12.29 input  -65.29 | X-H torsion
[ 10718 10713 10712 10709 ] final  -26.47 input   66.30 | X-H torsion
[ 10763 10752 10751 10750 ] final  -53.16 input  -60.55 | X-H torsion
[ 11005 11000 10999 10996 ] final -173.59 input  -57.11 | X-H torsion

> <Gold.Protein.ActiveResidues>
 VAL166  LYS551  ARG553  GLY616  TRP617  ASP618  TYR619  PRO620  LYS621  CYS622 
 ASP623  PHE694  ASN695  SER759  ASP760  ASP761  ALA762  ILE779  LEU786  VAL792 
 PHE793  MET794  SER795  GLU796  ALA797  LYS798  CYS799  TRP800  GLU811  SER814 

> <Gold.Protein.RotatedAtoms>
  152.3818  133.6556  159.6166 H   0  0  0  0  0  0  0  0  0  0  0  0  # atno 6907 bound_to 6896
  150.7747  133.9101  159.3376 H   0  0  0  0  0  0  0  0  0  0  0  0  # atno 6908 bound_to 6896
  151.6905  135.0948  160.0284 H   0  0  0  0  0  0  0  0  0  0  0  0  # atno 6909 bound_to 6896
  145.6408  140.9311  143.1037 H   0  0  0  0  0  0  0  0  0  0  0  0  # atno 7974 bound_to 7965
  155.6446  140.3497  155.4727 H   0  0  0  0  0  0  0  0  0  0  0  0  # atno 8008 bound_to 7997
  155.9898  140.1191  157.0672 H   0  0  0  0  0  0  0  0  0  0  0  0  # atno 8009 bound_to 7997
  154.4215  140.1122  156.5536 H   0  0  0  0  0  0  0  0  0  0  0  0  # atno 8010 bound_to 7997
  140.6078  143.8472  150.7032 H   0  0  0  0  0  0  0  0  0  0  0  0  # atno 10167 bound_to 10162
  156.4507  130.4483  149.6991 H   0  0  0  0  0  0  0  0  0  0  0  0  # atno 10718 bound_to 10713
  154.1544  135.6485  153.4971 H   0  0  0  0  0  0  0  0  0  0  0  0  # atno 10763 bound_to 10752
  153.0128  135.5346  154.6775 H   0  0  0  0  0  0  0  0  0  0  0  0  # atno 10764 bound_to 10752
  154.6071  135.2950  155.0444 H   0  0  0  0  0  0  0  0  0  0  0  0  # atno 10765 bound_to 10752
  140.4840  134.6048  157.4930 H   0  0  0  0  0  0  0  0  0  0  0  0  # atno 11005 bound_to 11000
  144.7158  139.8202  143.7399 LP  0  0  0  0  0  0  0  0  0  0  0  0  # atno 17320 bound_to 7965
  146.1282  139.4313  143.0185 LP  0  0  0  0  0  0  0  0  0  0  0  0  # atno 17321 bound_to 7965
  140.2033  143.3941  152.1775 LP  0  0  0  0  0  0  0  0  0  0  0  0  # atno 17342 bound_to 10162
  139.5338  144.7187  151.4964 LP  0  0  0  0  0  0  0  0  0  0  0  0  # atno 17343 bound_to 10162
  156.3819  130.7583  151.2577 LP  0  0  0  0  0  0  0  0  0  0  0  0  # atno 17370 bound_to 10713
  157.7503  131.0293  150.4087 LP  0  0  0  0  0  0  0  0  0  0  0  0  # atno 17371 bound_to 10713
  139.9809  134.7139  155.9862 LP  0  0  0  0  0  0  0  0  0  0  0  0  # atno 17394 bound_to 11000
  141.1517  133.6547  156.4034 LP  0  0  0  0  0  0  0  0  0  0  0  0  # atno 17395 bound_to 11000

$$$$
