AV-unprocessed.smi:753|AV-procd|sdf|3606|dock5
  -GOLD-   22720 1 03D 1   1.00000     0.00000
 Structure written by MMmdl.
 44 46  0  0  0  0  0  0  0  0  2 V2000
  145.7525  151.4837  157.5448 C   0  0  0  0  0  0  0  0  0  0  0  0
  145.4524  150.0453  157.9099 C   0  0  0  0  0  0  0  0  0  0  0  0
  145.1530  149.0664  156.9381 C   0  0  0  0  0  0  0  0  0  0  0  0
  144.8823  147.7457  157.3519 C   0  0  0  0  0  0  0  0  0  0  0  0
  144.9179  147.4301  158.7279 C   0  0  0  0  0  0  0  0  0  0  0  0
  144.6268  146.0207  159.2025 C   0  0  0  0  0  0  0  0  0  0  0  0
  145.7307  145.4828  160.1268 C   0  0  0  0  0  0  0  0  0  0  0  0
  146.9718  145.2579  159.3970 N   0  0  0  0  0  0  0  0  0  0  0  0
  148.0226  144.5620  159.8627 C   0  0  0  0  0  0  0  0  0  0  0  0
  148.0522  144.0488  160.9797 O   0  0  0  0  0  0  0  0  0  0  0  0
  149.0547  144.4617  159.0066 N   0  0  0  0  0  0  0  0  0  0  0  0
  150.3332  143.7761  159.2106 C   0  0  1  0  0  0  0  0  0  0  0  0
  151.2382  143.8719  157.9624 C   0  0  0  0  0  0  0  0  0  0  0  0
  152.5162  144.5319  158.5129 C   0  0  2  0  0  0  0  0  0  0  0  0
  153.2488  143.5440  159.4417 C   0  0  0  0  0  0  0  0  0  0  0  0
  152.3429  143.5101  160.6883 C   0  0  0  0  0  0  0  0  0  0  0  0
  151.1977  144.4617  160.2961 C   0  0  1  0  0  0  0  0  0  0  0  0
  151.9455  145.5327  159.5079 C   0  0  0  0  0  0  0  0  0  0  0  0
  145.2222  148.4502  159.6545 C   0  0  0  0  0  0  0  0  0  0  0  0
  145.4743  149.7036  159.2178 N   0  3  0  0  0  0  0  0  0  0  0  0
  145.7542  151.6228  156.4633 H   0  0  0  0  0  0  0  0  0  0  0  0
  146.7308  151.7768  157.9271 H   0  0  0  0  0  0  0  0  0  0  0  0
  145.0015  152.1483  157.9727 H   0  0  0  0  0  0  0  0  0  0  0  0
  145.1297  149.3204  155.8884 H   0  0  0  0  0  0  0  0  0  0  0  0
  144.6488  146.9860  156.6201 H   0  0  0  0  0  0  0  0  0  0  0  0
  143.6646  146.0135  159.7166 H   0  0  0  0  0  0  0  0  0  0  0  0
  144.5155  145.3697  158.3343 H   0  0  0  0  0  0  0  0  0  0  0  0
  145.9316  146.1981  160.9245 H   0  0  0  0  0  0  0  0  0  0  0  0
  145.4094  144.5589  160.6109 H   0  0  0  0  0  0  0  0  0  0  0  0
  147.0359  145.6490  158.4682 H   0  0  0  0  0  0  0  0  0  0  0  0
  148.9462  144.9276  158.1174 H   0  0  0  0  0  0  0  0  0  0  0  0
  150.1473  142.7288  159.4560 H   0  0  0  0  0  0  0  0  0  0  0  0
  151.4374  142.8952  157.5199 H   0  0  0  0  0  0  0  0  0  0  0  0
  150.7915  144.4984  157.1884 H   0  0  0  0  0  0  0  0  0  0  0  0
  153.1538  144.9622  157.7401 H   0  0  0  0  0  0  0  0  0  0  0  0
  153.3690  142.5603  158.9862 H   0  0  0  0  0  0  0  0  0  0  0  0
  154.2406  143.9168  159.7004 H   0  0  0  0  0  0  0  0  0  0  0  0
  151.9903  142.5050  160.9225 H   0  0  0  0  0  0  0  0  0  0  0  0
  152.8787  143.8881  161.5601 H   0  0  0  0  0  0  0  0  0  0  0  0
  150.6364  144.8322  161.1544 H   0  0  0  0  0  0  0  0  0  0  0  0
  152.7107  146.0471  160.0923 H   0  0  0  0  0  0  0  0  0  0  0  0
  151.2883  146.2731  159.0490 H   0  0  0  0  0  0  0  0  0  0  0  0
  145.2684  148.3045  160.7239 H   0  0  0  0  0  0  0  0  0  0  0  0
  145.6904  150.4248  159.9065 H   0  0  0  0  0  0  0  0  0  0  0  0
  1  2  1  0  0  0  0
  1 21  1  0  0  0  0
  1 22  1  0  0  0  0
  1 23  1  0  0  0  0
  2 20  1  0  0  0  0
  2  3  2  0  0  0  0
  3  4  1  0  0  0  0
  3 24  1  0  0  0  0
  4  5  2  0  0  0  0
  4 25  1  0  0  0  0
  5  6  1  0  0  0  0
  5 19  1  0  0  0  0
  6  7  1  0  0  0  0
  6 26  1  0  0  0  0
  6 27  1  0  0  0  0
  7  8  1  0  0  0  0
  7 28  1  0  0  0  0
  7 29  1  0  0  0  0
  8  9  1  0  0  0  0
  8 30  1  0  0  0  0
  9 10  2  0  0  0  0
  9 11  1  0  0  0  0
 11 12  1  0  0  0  0
 11 31  1  0  0  0  0
 12 17  1  0  0  0  0
 12 13  1  0  0  0  0
 12 32  1  0  0  0  0
 13 14  1  0  0  0  0
 13 33  1  0  0  0  0
 13 34  1  0  0  0  0
 14 18  1  0  0  0  0
 14 15  1  0  0  0  0
 14 35  1  0  0  0  0
 15 16  1  0  0  0  0
 15 36  1  0  0  0  0
 15 37  1  0  0  0  0
 16 17  1  0  0  0  0
 16 38  1  0  0  0  0
 16 39  1  0  0  0  0
 17 18  1  0  0  0  0
 17 40  1  0  0  0  0
 18 41  1  0  0  0  0
 18 42  1  0  0  0  0
 19 20  2  0  0  0  0
 19 43  1  0  0  0  0
 20 44  1  0  0  0  0
M  CHG  1  20   1
M  END
> <s_m_source_file>
AV-unprocessed.smi

> <i_m_source_file_index>
753

> <i_lp_mmshare_version>
43012

> <i_f3d_flags>
0

> <s_epik_input>
W0NIM11jMVtjSF1bY0hdYyhbY0hdbjEpW0NIMl1bQ0gyXVtOSF1DKD1PKVtOSF1bQ0BIXShbQ0gyXVtDQEBIXTIzKVtDQEBIXShbQ0gyXTMpW0NIMl1bQ0gyXTI=

> <s_epik_cmdline>
J2VwaWtfcHl0aG9uJywgJy1waCcsICc3LjAnLCAnLXRuJywgJzgnLCAnLW1hJywgJzIwMCcsICctbWV0YWxfYmluZGluZycsICctaW1hZScsICc8aW5maWxlLm1hZT4nLCAnLW9tYWUnLCAnPG91dGZpbGUubWFlPic=

> <r_epik_Ionization_Penalty>
1.41708

> <r_epik_Ionization_Penalty_Charging>
1.41702

> <r_epik_Ionization_Penalty_Neutral>
5.73163e-05

> <r_epik_State_Penalty>
1.50048

> <r_epik_Charging_Adjusted_Penalty>
2.9175

> <i_epik_Tot_Q>
1

> <i_epik_Tot_abs_Q>
1

> <r_epik_Metal_State_Penalty>
1.55295

> <b_epik_Metal_Only>
0

> <s_lp_Force_Field>
OPLS_2005

> <r_lp_Energy>
57.1024

> <b_lp_Chiralities_Consistent>
1

> <s_lp_Variant>
AV-unprocessed.smi:753-8

> <Gold.Version>
5.8.1

> <Gold.Id.Protein>
6NUR|6NUR_protein|mol2

> <Gold.PLP.Fitness>
58.5215

> <Gold.PLP.PLP>
-50.1735

> <Gold.PLP.part.hbond>
-2.7809

> <Gold.PLP.part.metal>
0.0000

> <Gold.PLP.part.buried>
-5.2051

> <Gold.PLP.part.nonpolar>
-43.7145

> <Gold.PLP.part.repulsive>
0.5800

> <Gold.PLP.ligand.clash>
0.0000

> <Gold.PLP.ligand.torsion>
0.1833

> <Gold.PLP.Chemscore.Hbond>
2.8960

> <Gold.PLP.Chemscore.CHOScore>
0.0000

> <Gold.PLP.Chemscore.Metal>
0.0000

> <Gold.Chemscore.Hbonds>
donor molecule, donor type, donor heavy atom, donor atom, acceptor molecule, acceptor atom, score
      L1  H     8    30       P1  8029  0.84
      L1  H    11    31       P1  8029  0.85
      P1  H  6933  6944       L1    10  1.00

> <Gold.PLP.Chemscore.Internal.Correction>
0.0267

> <Gold.Rescore>
     Score         DG    S(hbond)    S(metal)    S(lipo)     H(rot)  DE(clash)    DE(int)     intcor
     26.46     -26.94       2.73        0.00     138.39       1.50       0.22       0.26       ----

> <Gold.Chemscore.Fitness>
26.4581

> <Gold.Chemscore.DG>
-26.9351

> <Gold.Chemscore.ZeroCoef>
-5.4800

> <Gold.Chemscore.Hbond>
2.7275

> <Gold.Chemscore.Metal>
0.0000

> <Gold.Chemscore.Lipo>
138.3937

> <Gold.Chemscore.Internal_Hbond>
0.0000

> <Gold.Chemscore.DEClash>
0.2158

> <Gold.Chemscore.DEInternal>
0.2611

> <Gold.Chemscore.Rot>
1.5027

> <Gold.Chemscore.Internal.Correction>
   9.000000E+99

> <Gold.Chemscore.Hbonds>
donor molecule, donor type, donor heavy atom, donor atom, acceptor molecule, acceptor atom, score
      L1  H     8    30       P1  8029  0.78
      L1  H    11    31       P1  8029  0.38
      P1  H  6933  6944       L1    10  1.00

> <Gold.Chemscore.Hbond.Weighted>
-9.1098

> <Gold.Chemscore.Metal.Weighted>
-0.0000

> <Gold.Chemscore.Lipo.Weighted>
-16.1921

> <Gold.Chemscore.Internal_Hbond.Weighted>
0.0000

> <Gold.Chemscore.DEClash.Weighted>
0.2158

> <Gold.Chemscore.DEInternal.Weighted>
0.2611

> <Gold.Chemscore.Rot.Weighted>
3.8468

> <Gold.Chemscore.Internal.Correction.Weighted>
   9.000000E+99

> <Gold.Protein.RotatedTorsions>
[ 6907 6896 6895 6894 ] final  -14.05 input  -60.11 | X-H torsion
[ 7974 7965 7964 7962 ] final -175.02 input  175.53 | X-H torsion
[ 8008 7997 7996 7995 ] final -124.74 input   59.86 | X-H torsion
[ 10167 10162 10161 10158 ] final  -74.58 input  -65.29 | X-H torsion
[ 10718 10713 10712 10709 ] final  121.25 input   66.30 | X-H torsion
[ 10763 10752 10751 10750 ] final   18.28 input  -60.55 | X-H torsion
[ 11005 11000 10999 10996 ] final -108.96 input  -57.11 | X-H torsion

> <Gold.Protein.ActiveResidues>
 VAL166  LYS551  ARG553  GLY616  TRP617  ASP618  TYR619  PRO620  LYS621  CYS622 
 ASP623  PHE694  ASN695  SER759  ASP760  ASP761  ALA762  ILE779  LEU786  VAL792 
 PHE793  MET794  SER795  GLU796  ALA797  LYS798  CYS799  TRP800  GLU811  SER814 

> <Gold.Protein.RotatedAtoms>
  151.3454  135.0873  159.9384 H   0  0  0  0  0  0  0  0  0  0  0  0  # atno 6907 bound_to 6896
  152.5201  133.9405  159.7634 H   0  0  0  0  0  0  0  0  0  0  0  0  # atno 6908 bound_to 6896
  150.9770  133.6231  159.2758 H   0  0  0  0  0  0  0  0  0  0  0  0  # atno 6909 bound_to 6896
  144.7129  140.1383  143.6393 H   0  0  0  0  0  0  0  0  0  0  0  0  # atno 7974 bound_to 7965
  155.2019  140.0416  157.2919 H   0  0  0  0  0  0  0  0  0  0  0  0  # atno 8008 bound_to 7997
  154.6069  140.2466  155.7690 H   0  0  0  0  0  0  0  0  0  0  0  0  # atno 8009 bound_to 7997
  156.2356  140.2923  156.0312 H   0  0  0  0  0  0  0  0  0  0  0  0  # atno 8010 bound_to 7997
  140.5015  143.2360  151.7745 H   0  0  0  0  0  0  0  0  0  0  0  0  # atno 10167 bound_to 10162
  157.5831  131.1073  150.8147 H   0  0  0  0  0  0  0  0  0  0  0  0  # atno 10718 bound_to 10713
  153.1264  135.6730  153.9251 H   0  0  0  0  0  0  0  0  0  0  0  0  # atno 10763 bound_to 10752
  153.8750  135.3065  155.3444 H   0  0  0  0  0  0  0  0  0  0  0  0  # atno 10764 bound_to 10752
  154.7668  135.4960  153.9651 H   0  0  0  0  0  0  0  0  0  0  0  0  # atno 10765 bound_to 10752
  141.0874  133.9115  157.2155 H   0  0  0  0  0  0  0  0  0  0  0  0  # atno 11005 bound_to 11000
  145.9225  139.2554  143.1373 LP  0  0  0  0  0  0  0  0  0  0  0  0  # atno 17320 bound_to 7965
  145.9606  140.8838  143.0213 LP  0  0  0  0  0  0  0  0  0  0  0  0  # atno 17321 bound_to 7965
  139.4873  144.4516  151.9647 LP  0  0  0  0  0  0  0  0  0  0  0  0  # atno 17342 bound_to 10162
  140.3605  144.2979  150.5934 LP  0  0  0  0  0  0  0  0  0  0  0  0  # atno 17343 bound_to 10162
  156.8588  130.5106  149.5305 LP  0  0  0  0  0  0  0  0  0  0  0  0  # atno 17370 bound_to 10713
  156.0879  130.5872  150.9680 LP  0  0  0  0  0  0  0  0  0  0  0  0  # atno 17371 bound_to 10713
  139.9694  135.0132  156.9472 LP  0  0  0  0  0  0  0  0  0  0  0  0  # atno 17394 bound_to 11000
  140.5332  134.0793  155.7321 LP  0  0  0  0  0  0  0  0  0  0  0  0  # atno 17395 bound_to 11000

$$$$
