AV-unprocessed.smi:153|AV-procd|sdf|1265|dock5
  -GOLD-   2262018523D 1   1.00000     0.00000
 Structure written by MMmdl.
 59 62  0  0  0  0  0  0  0  0  1 V2000
  152.7915  141.1288  158.3970 C   0  0  0  0  0  0  0  0  0  0  0  0
  151.8255  142.2133  158.9013 C   0  0  1  0  0  0  0  0  0  0  0  0
  152.6688  143.2265  159.4539 O   0  0  0  0  0  0  0  0  0  0  0  0
  152.2925  144.5092  158.9788 C   0  0  0  0  0  0  0  0  0  0  0  0
  151.7053  144.2269  157.6037 C   0  0  0  0  0  0  0  0  0  0  0  0
  150.9534  142.9228  157.8275 C   0  0  2  0  0  0  0  0  0  0  0  0
  149.7102  143.2527  158.4238 O   0  0  0  0  0  0  0  0  0  0  0  0
  150.6601  142.1725  156.4985 C   0  0  0  0  0  0  0  0  0  0  0  0
  150.3660  140.7480  156.6241 N   0  0  0  0  0  0  0  0  0  0  0  0
  149.5393  140.1292  157.5366 C   0  0  0  0  0  0  0  0  0  0  0  0
  149.4407  138.8351  157.4115 N   0  0  0  0  0  0  0  0  0  0  0  0
  150.2387  138.5288  156.3158 C   0  0  0  0  0  0  0  0  0  0  0  0
  150.5816  137.3231  155.6324 C   0  0  0  0  0  0  0  0  0  0  0  0
  150.1618  136.0834  156.0115 N   0  0  0  0  0  0  0  0  0  0  0  0
  149.0990  135.9908  157.0101 C   0  0  0  0  0  0  0  0  0  0  0  0
  150.2607  134.9967  155.0365 C   0  0  0  0  0  0  0  0  0  0  0  0
  148.9100  134.2998  154.7541 C   0  0  1  0  0  0  0  0  0  0  0  0
  148.0025  135.1868  154.1302 O   0  0  0  0  0  0  0  0  0  0  0  0
  149.0418  133.0292  153.8840 C   0  0  0  0  0  0  0  0  0  0  0  0
  147.8677  132.1539  153.8079 N   0  0  0  0  0  0  0  0  0  0  0  0
  148.1958  130.7873  153.4064 C   0  0  0  0  0  0  0  0  0  0  0  0
  146.9423  129.9005  153.3066 C   0  0  0  0  0  0  0  0  0  0  0  0
  146.0105  130.4852  152.4031 O   0  0  0  0  0  0  0  0  0  0  0  0
  145.6282  131.8014  152.7872 C   0  0  0  0  0  0  0  0  0  0  0  0
  146.8785  132.6925  152.8800 C   0  0  0  0  0  0  0  0  0  0  0  0
  151.3848  137.4419  154.5405 N   0  0  0  0  0  0  0  0  0  0  0  0
  151.8387  138.6361  154.1531 C   0  0  0  0  0  0  0  0  0  0  0  0
  151.6175  139.8293  154.7039 N   0  0  0  0  0  0  0  0  0  0  0  0
  150.8038  139.7283  155.7935 C   0  0  0  0  0  0  0  0  0  0  0  0
  152.2665  140.2219  158.1052 H   0  0  0  0  0  0  0  0  0  0  0  0
  153.4889  140.8423  159.1842 H   0  0  0  0  0  0  0  0  0  0  0  0
  153.3787  141.4776  157.5472 H   0  0  0  0  0  0  0  0  0  0  0  0
  151.2059  141.7905  159.6939 H   0  0  0  0  0  0  0  0  0  0  0  0
  151.5410  144.9352  159.6449 H   0  0  0  0  0  0  0  0  0  0  0  0
  153.1436  145.1895  158.9434 H   0  0  0  0  0  0  0  0  0  0  0  0
  151.0790  145.0383  157.2305 H   0  0  0  0  0  0  0  0  0  0  0  0
  152.5178  144.0778  156.8912 H   0  0  0  0  0  0  0  0  0  0  0  0
  149.3163  143.9537  157.9277 H   0  0  0  0  0  0  0  0  0  0  0  0
  149.8203  142.6405  155.9836 H   0  0  0  0  0  0  0  0  0  0  0  0
  151.5124  142.2851  155.8281 H   0  0  0  0  0  0  0  0  0  0  0  0
  149.0011  140.6594  158.3074 H   0  0  0  0  0  0  0  0  0  0  0  0
  149.3347  136.5968  157.8858 H   0  0  0  0  0  0  0  0  0  0  0  0
  148.9747  134.9617  157.3474 H   0  0  0  0  0  0  0  0  0  0  0  0
  148.1474  136.3290  156.5988 H   0  0  0  0  0  0  0  0  0  0  0  0
  150.7456  135.3115  154.1152 H   0  0  0  0  0  0  0  0  0  0  0  0
  150.9418  134.2606  155.4652 H   0  0  0  0  0  0  0  0  0  0  0  0
  148.4520  133.9975  155.6964 H   0  0  0  0  0  0  0  0  0  0  0  0
  148.4885  135.7463  153.5440 H   0  0  0  0  0  0  0  0  0  0  0  0
  149.2606  133.3764  152.8732 H   0  0  0  0  0  0  0  0  0  0  0  0
  149.9207  132.4571  154.1861 H   0  0  0  0  0  0  0  0  0  0  0  0
  148.7105  130.7968  152.4444 H   0  0  0  0  0  0  0  0  0  0  0  0
  148.8783  130.3343  154.1240 H   0  0  0  0  0  0  0  0  0  0  0  0
  147.2085  128.9056  152.9495 H   0  0  0  0  0  0  0  0  0  0  0  0
  146.4799  129.7762  154.2873 H   0  0  0  0  0  0  0  0  0  0  0  0
  144.9320  132.2006  152.0497 H   0  0  0  0  0  0  0  0  0  0  0  0
  145.1023  131.7720  153.7430 H   0  0  0  0  0  0  0  0  0  0  0  0
  146.5814  133.6935  153.1947 H   0  0  0  0  0  0  0  0  0  0  0  0
  147.3202  132.7967  151.8876 H   0  0  0  0  0  0  0  0  0  0  0  0
  152.4744  138.6339  153.2800 H   0  0  0  0  0  0  0  0  0  0  0  0
  1  2  1  0  0  0  0
  1 30  1  0  0  0  0
  1 31  1  0  0  0  0
  1 32  1  0  0  0  0
  2  6  1  0  0  0  0
  2  3  1  0  0  0  0
  2 33  1  0  0  0  0
  3  4  1  0  0  0  0
  4  5  1  0  0  0  0
  4 34  1  0  0  0  0
  4 35  1  0  0  0  0
  5  6  1  0  0  0  0
  5 36  1  0  0  0  0
  5 37  1  0  0  0  0
  6  7  1  0  0  0  0
  6  8  1  0  0  0  0
  7 38  1  0  0  0  0
  8  9  1  0  0  0  0
  8 39  1  0  0  0  0
  8 40  1  0  0  0  0
  9 29  1  0  0  0  0
  9 10  1  0  0  0  0
 10 11  2  0  0  0  0
 10 41  1  0  0  0  0
 11 12  1  0  0  0  0
 12 29  2  0  0  0  0
 12 13  1  0  0  0  0
 13 14  1  0  0  0  0
 13 26  2  0  0  0  0
 14 15  1  0  0  0  0
 14 16  1  0  0  0  0
 15 42  1  0  0  0  0
 15 43  1  0  0  0  0
 15 44  1  0  0  0  0
 16 17  1  0  0  0  0
 16 45  1  0  0  0  0
 16 46  1  0  0  0  0
 17 18  1  0  0  0  0
 17 19  1  0  0  0  0
 17 47  1  0  0  0  0
 18 48  1  0  0  0  0
 19 20  1  0  0  0  0
 19 49  1  0  0  0  0
 19 50  1  0  0  0  0
 20 25  1  0  0  0  0
 20 21  1  0  0  0  0
 21 22  1  0  0  0  0
 21 51  1  0  0  0  0
 21 52  1  0  0  0  0
 22 23  1  0  0  0  0
 22 53  1  0  0  0  0
 22 54  1  0  0  0  0
 23 24  1  0  0  0  0
 24 25  1  0  0  0  0
 24 55  1  0  0  0  0
 24 56  1  0  0  0  0
 25 57  1  0  0  0  0
 25 58  1  0  0  0  0
 26 27  1  0  0  0  0
 27 28  2  0  0  0  0
 27 59  1  0  0  0  0
 28 29  1  0  0  0  0
M  END
> <s_m_source_file>
AV-unprocessed.smi

> <i_m_source_file_index>
153

> <i_lp_mmshare_version>
43012

> <i_f3d_flags>
0

> <s_epik_input>
W0NIMl0xW0NIMl1PW0NAQEhdKFtDSDNdKVtDQEBdMShbT0hdKVtDSDJdbihbY0hdbjIpYyhjMjMpbltjSF1uYzNOKFtDSDNdKVtDSDJdW0NASF0oW09IXSlbQ0gyXU40W0NIMl1bQ0gyXU9bQ0gyXVtDSDJdNA==

> <s_epik_cmdline>
J2VwaWtfcHl0aG9uJywgJy1waCcsICc3LjAnLCAnLXRuJywgJzgnLCAnLW1hJywgJzIwMCcsICctbWV0YWxfYmluZGluZycsICctaW1hZScsICc8aW5maWxlLm1hZT4nLCAnLW9tYWUnLCAnPG91dGZpbGUubWFlPic=

> <r_lp_tautomer_probability>
1

> <r_epik_Ionization_Penalty>
0.424123

> <r_epik_Ionization_Penalty_Charging>
0

> <r_epik_Ionization_Penalty_Neutral>
0.424123

> <r_epik_State_Penalty>
0.421495

> <r_epik_Charging_Adjusted_Penalty>
0.421495

> <i_epik_Tot_Q>
0

> <i_epik_Tot_abs_Q>
0

> <r_epik_Metal_State_Penalty>
0.421223

> <b_epik_Metal_Only>
0

> <s_lp_Force_Field>
OPLS_2005

> <r_lp_Energy>
59.9447

> <b_lp_Chiralities_Consistent>
1

> <s_lp_Variant>
AV-unprocessed.smi:153-16

> <Gold.Version>
5.8.1

> <Gold.Id.Protein>
6NUR|6NUR_protein|mol2

> <Gold.PLP.Fitness>
59.0459

> <Gold.PLP.PLP>
-49.4825

> <Gold.PLP.part.hbond>
-3.8886

> <Gold.PLP.part.metal>
0.0000

> <Gold.PLP.part.buried>
-9.3887

> <Gold.PLP.part.nonpolar>
-36.9501

> <Gold.PLP.part.repulsive>
0.3958

> <Gold.PLP.ligand.clash>
0.0000

> <Gold.PLP.ligand.torsion>
1.0813

> <Gold.PLP.Chemscore.Hbond>
3.6800

> <Gold.PLP.Chemscore.CHOScore>
0.0000

> <Gold.PLP.Chemscore.Metal>
0.0000

> <Gold.Chemscore.Hbonds>
donor molecule, donor type, donor heavy atom, donor atom, acceptor molecule, acceptor atom, score
      L1  H     7    38       P1  8028  0.04
      L1  H    18    48       P1  7948  0.99
      P1  H  7989  7998       L1    28  1.00
      P1  H 10752 10763       L1    26  0.13

> <Gold.PLP.Chemscore.Internal.Correction>
0.6861

> <Gold.Rescore>
     Score         DG    S(hbond)    S(metal)    S(lipo)     H(rot)  DE(clash)    DE(int)     intcor
     12.90     -17.83       2.88        0.00     100.39       3.52       0.39       4.54       ----

> <Gold.Chemscore.Fitness>
12.9042

> <Gold.Chemscore.DG>
-17.8312

> <Gold.Chemscore.ZeroCoef>
-5.4800

> <Gold.Chemscore.Hbond>
2.8770

> <Gold.Chemscore.Metal>
0.0000

> <Gold.Chemscore.Lipo>
100.3904

> <Gold.Chemscore.Internal_Hbond>
0.0000

> <Gold.Chemscore.DEClash>
0.3859

> <Gold.Chemscore.DEInternal>
4.5411

> <Gold.Chemscore.Rot>
3.5170

> <Gold.Chemscore.Internal.Correction>
   9.000000E+99

> <Gold.Chemscore.Hbonds>
donor molecule, donor type, donor heavy atom, donor atom, acceptor molecule, acceptor atom, score
      L1  H     7    38       P1  8028  0.01
      L1  H    18    48       P1  7948  0.94
      P1  H  7989  7998       L1    28  0.48
      P1  H 10752 10763       L1    26  0.11

> <Gold.Chemscore.Hbond.Weighted>
-9.6091

> <Gold.Chemscore.Metal.Weighted>
-0.0000

> <Gold.Chemscore.Lipo.Weighted>
-11.7457

> <Gold.Chemscore.Internal_Hbond.Weighted>
0.0000

> <Gold.Chemscore.DEClash.Weighted>
0.3859

> <Gold.Chemscore.DEInternal.Weighted>
4.5411

> <Gold.Chemscore.Rot.Weighted>
9.0036

> <Gold.Chemscore.Internal.Correction.Weighted>
   9.000000E+99

> <Gold.Protein.RotatedTorsions>
[ 6907 6896 6895 6894 ] final  -72.38 input  -60.11 | X-H torsion
[ 7974 7965 7964 7962 ] final  153.05 input  175.53 | X-H torsion
[ 8008 7997 7996 7995 ] final  126.41 input   59.86 | X-H torsion
[ 10167 10162 10161 10158 ] final -140.50 input  -65.29 | X-H torsion
[ 10718 10713 10712 10709 ] final   54.88 input   66.30 | X-H torsion
[ 10763 10752 10751 10750 ] final   50.80 input  -60.55 | X-H torsion
[ 11005 11000 10999 10996 ] final  -44.79 input  -57.11 | X-H torsion

> <Gold.Protein.ActiveResidues>
 VAL166  LYS551  ARG553  GLY616  TRP617  ASP618  TYR619  PRO620  LYS621  CYS622 
 ASP623  PHE694  ASN695  SER759  ASP760  ASP761  ALA762  ILE779  LEU786  VAL792 
 PHE793  MET794  SER795  GLU796  ALA797  LYS798  CYS799  TRP800  GLU811  SER814 

> <Gold.Protein.RotatedAtoms>
  150.7172  134.5171  159.5635 H   0  0  0  0  0  0  0  0  0  0  0  0  # atno 6907 bound_to 6896
  152.2735  134.7904  160.0419 H   0  0  0  0  0  0  0  0  0  0  0  0  # atno 6908 bound_to 6896
  151.8576  133.3416  159.3730 H   0  0  0  0  0  0  0  0  0  0  0  0  # atno 6909 bound_to 6896
  144.8181  139.6749  143.6112 H   0  0  0  0  0  0  0  0  0  0  0  0  # atno 7974 bound_to 7965
  156.2863  140.2693  156.2106 H   0  0  0  0  0  0  0  0  0  0  0  0  # atno 8008 bound_to 7997
  155.0268  140.0386  157.2476 H   0  0  0  0  0  0  0  0  0  0  0  0  # atno 8009 bound_to 7997
  154.7389  140.2721  155.6396 H   0  0  0  0  0  0  0  0  0  0  0  0  # atno 8010 bound_to 7997
  139.8275  143.7491  152.2666 H   0  0  0  0  0  0  0  0  0  0  0  0  # atno 10167 bound_to 10162
  157.5296  130.8621  149.8669 H   0  0  0  0  0  0  0  0  0  0  0  0  # atno 10718 bound_to 10713
  152.9784  135.5867  154.4312 H   0  0  0  0  0  0  0  0  0  0  0  0  # atno 10763 bound_to 10752
  154.3925  135.2768  155.2148 H   0  0  0  0  0  0  0  0  0  0  0  0  # atno 10764 bound_to 10752
  154.4014  135.6102  153.5954 H   0  0  0  0  0  0  0  0  0  0  0  0  # atno 10765 bound_to 10752
  141.0473  133.6756  156.2922 H   0  0  0  0  0  0  0  0  0  0  0  0  # atno 11005 bound_to 11000
  146.2485  139.6149  142.9443 LP  0  0  0  0  0  0  0  0  0  0  0  0  # atno 17320 bound_to 7965
  145.5168  141.0433  143.2457 LP  0  0  0  0  0  0  0  0  0  0  0  0  # atno 17321 bound_to 7965
  139.7688  144.7483  151.0255 LP  0  0  0  0  0  0  0  0  0  0  0  0  # atno 17342 bound_to 10162
  140.7809  143.4668  151.0201 LP  0  0  0  0  0  0  0  0  0  0  0  0  # atno 17343 bound_to 10162
  156.0412  130.3738  150.1430 LP  0  0  0  0  0  0  0  0  0  0  0  0  # atno 17370 bound_to 10713
  156.9615  130.9806  151.3478 LP  0  0  0  0  0  0  0  0  0  0  0  0  # atno 17371 bound_to 10713
  140.6122  134.5447  157.5535 LP  0  0  0  0  0  0  0  0  0  0  0  0  # atno 17394 bound_to 11000
  139.9322  134.7942  156.0899 LP  0  0  0  0  0  0  0  0  0  0  0  0  # atno 17395 bound_to 11000

$$$$
