AV-unprocessed.smi:2871|AV-procd|sdf|11030|dock3
  -GOLD-   2272015493D 1   1.00000     0.00000
 Structure written by MMmdl.
 38 40  0  0  0  0  0  0  0  0  1 V2000
  153.3848  142.9010  163.0278 C   0  0  0  0  0  0  0  0  0  0  0  0
  152.7985  142.9604  161.6930 N   0  0  0  0  0  0  0  0  0  0  0  0
  151.9854  144.1047  161.3008 C   0  0  0  0  0  0  0  0  0  0  0  0
  153.1051  141.9545  160.7502 C   0  0  0  0  0  0  0  0  0  0  0  0
  154.1880  141.0596  160.9305 C   0  0  0  0  0  0  0  0  0  0  0  0
  154.3958  140.0920  159.9217 C   0  0  0  0  0  0  0  0  0  0  0  0
  155.5222  139.0724  159.9993 C   0  0  0  0  0  0  0  0  0  0  0  0
  155.3831  138.3309  161.0986 F   0  0  0  0  0  0  0  0  0  0  0  0
  155.5250  138.2611  158.9409 F   0  0  0  0  0  0  0  0  0  0  0  0
  156.6956  139.7031  160.0510 F   0  0  0  0  0  0  0  0  0  0  0  0
  153.5964  140.0226  158.8337 N   0  0  0  0  0  0  0  0  0  0  0  0
  152.6044  140.9085  158.7530 C   0  0  0  0  0  0  0  0  0  0  0  0
  151.8044  140.8069  157.6300 N   0  0  0  0  0  0  0  0  0  0  0  0
  151.5074  139.5593  156.9371 C   0  0  2  0  0  0  0  0  0  0  0  0
  152.7650  138.8122  156.4756 C   0  0  0  0  0  0  0  0  0  0  0  0
  152.5052  138.6551  154.9724 C   0  0  1  0  0  0  0  0  0  0  0  0
  151.3561  137.6809  154.6782 C   0  0  0  0  0  0  0  0  0  0  0  0
  150.1356  138.5037  155.0901 C   0  0  0  0  0  0  0  0  0  0  0  0
  150.7841  139.7973  155.6009 C   0  0  2  0  0  0  0  0  0  0  0  0
  151.8755  139.8943  154.6997 O   0  0  0  0  0  0  0  0  0  0  0  0
  152.3242  141.8618  159.6469 N   0  0  0  0  0  0  0  0  0  0  0  0
  153.0768  141.9889  163.5403 H   0  0  0  0  0  0  0  0  0  0  0  0
  153.0722  143.7483  163.6382 H   0  0  0  0  0  0  0  0  0  0  0  0
  154.4737  142.9144  162.9690 H   0  0  0  0  0  0  0  0  0  0  0  0
  150.9934  143.7799  160.9856 H   0  0  0  0  0  0  0  0  0  0  0  0
  152.4552  144.6449  160.4784 H   0  0  0  0  0  0  0  0  0  0  0  0
  151.8583  144.8031  162.1281 H   0  0  0  0  0  0  0  0  0  0  0  0
  154.8337  141.1018  161.7943 H   0  0  0  0  0  0  0  0  0  0  0  0
  151.4621  141.6673  157.2274 H   0  0  0  0  0  0  0  0  0  0  0  0
  150.8917  138.9360  157.5873 H   0  0  0  0  0  0  0  0  0  0  0  0
  153.6676  139.4029  156.6401 H   0  0  0  0  0  0  0  0  0  0  0  0
  152.8927  137.8543  156.9806 H   0  0  0  0  0  0  0  0  0  0  0  0
  153.4051  138.4698  154.3856 H   0  0  0  0  0  0  0  0  0  0  0  0
  151.3127  137.4381  153.6158 H   0  0  0  0  0  0  0  0  0  0  0  0
  151.4498  136.7503  155.2390 H   0  0  0  0  0  0  0  0  0  0  0  0
  149.5022  138.7055  154.2256 H   0  0  0  0  0  0  0  0  0  0  0  0
  149.5282  138.0113  155.8504 H   0  0  0  0  0  0  0  0  0  0  0  0
  150.1099  140.6548  155.5952 H   0  0  0  0  0  0  0  0  0  0  0  0
  1  2  1  0  0  0  0
  1 22  1  0  0  0  0
  1 23  1  0  0  0  0
  1 24  1  0  0  0  0
  2  3  1  0  0  0  0
  2  4  1  0  0  0  0
  3 25  1  0  0  0  0
  3 26  1  0  0  0  0
  3 27  1  0  0  0  0
  4 21  1  0  0  0  0
  4  5  2  0  0  0  0
  5  6  1  0  0  0  0
  5 28  1  0  0  0  0
  6  7  1  0  0  0  0
  6 11  2  0  0  0  0
  7  8  1  0  0  0  0
  7  9  1  0  0  0  0
  7 10  1  0  0  0  0
 11 12  1  0  0  0  0
 12 13  1  0  0  0  0
 12 21  2  0  0  0  0
 13 14  1  0  0  0  0
 13 29  1  0  0  0  0
 14 19  1  0  0  0  0
 14 15  1  0  0  0  0
 14 30  1  0  0  0  0
 15 16  1  0  0  0  0
 15 31  1  0  0  0  0
 15 32  1  0  0  0  0
 16 20  1  0  0  0  0
 16 17  1  0  0  0  0
 16 33  1  0  0  0  0
 17 18  1  0  0  0  0
 17 34  1  0  0  0  0
 17 35  1  0  0  0  0
 18 19  1  0  0  0  0
 18 36  1  0  0  0  0
 18 37  1  0  0  0  0
 19 20  1  0  0  0  0
 19 38  1  0  0  0  0
M  END
> <s_m_source_file>
AV-unprocessed.smi

> <i_m_source_file_index>
2871

> <i_lp_mmshare_version>
43012

> <i_f3d_flags>
0

> <s_epik_input>
W0NIM11OKFtDSDNdKWMxW2NIXWMoQyhGKShGKUYpbmMobjEpW05IXVtDQEhdKFtDSDJdW0NAQEhdMjMpW0NAQEhdKE8zKVtDSDJdW0NIMl0y

> <s_epik_cmdline>
J2VwaWtfcHl0aG9uJywgJy1waCcsICc3LjAnLCAnLXRuJywgJzgnLCAnLW1hJywgJzIwMCcsICctbWV0YWxfYmluZGluZycsICctaW1hZScsICc8aW5maWxlLm1hZT4nLCAnLW9tYWUnLCAnPG91dGZpbGUubWFlPic=

> <r_lp_tautomer_probability>
1

> <r_epik_Ionization_Penalty>
0.00695968

> <r_epik_Ionization_Penalty_Charging>
0

> <r_epik_Ionization_Penalty_Neutral>
0.00695968

> <r_epik_State_Penalty>
0.0050343

> <r_epik_Charging_Adjusted_Penalty>
0.0050343

> <i_epik_Tot_Q>
0

> <i_epik_Tot_abs_Q>
0

> <r_epik_Metal_State_Penalty>
-0

> <b_epik_Metal_Only>
0

> <s_lp_Force_Field>
OPLS_2005

> <r_lp_Energy>
32.5714

> <b_lp_Chiralities_Consistent>
1

> <s_lp_Variant>
AV-unprocessed.smi:2871-1

> <Gold.Version>
5.8.1

> <Gold.Id.Protein>
6NUR|6NUR_protein|mol2

> <Gold.PLP.Fitness>
47.5252

> <Gold.PLP.PLP>
-42.2858

> <Gold.PLP.part.hbond>
-1.7800

> <Gold.PLP.part.metal>
0.0000

> <Gold.PLP.part.buried>
-4.5167

> <Gold.PLP.part.nonpolar>
-35.5304

> <Gold.PLP.part.repulsive>
0.1432

> <Gold.PLP.ligand.clash>
0.0000

> <Gold.PLP.ligand.torsion>
0.3853

> <Gold.PLP.Chemscore.Hbond>
1.9920

> <Gold.PLP.Chemscore.CHOScore>
0.0000

> <Gold.PLP.Chemscore.Metal>
0.0000

> <Gold.Chemscore.Hbonds>
donor molecule, donor type, donor heavy atom, donor atom, acceptor molecule, acceptor atom, score
      P1  H  7989  7998       L1    20  0.96
      P1  H  7997  8008       L1    11  1.00

> <Gold.PLP.Chemscore.Internal.Correction>
0.0340

> <Gold.Rescore>
     Score         DG    S(hbond)    S(metal)    S(lipo)     H(rot)  DE(clash)    DE(int)     intcor
     16.24     -18.06       1.57        0.00      84.47       1.00       0.06       1.76       ----

> <Gold.Chemscore.Fitness>
16.2422

> <Gold.Chemscore.DG>
-18.0594

> <Gold.Chemscore.ZeroCoef>
-5.4800

> <Gold.Chemscore.Hbond>
1.5739

> <Gold.Chemscore.Metal>
0.0000

> <Gold.Chemscore.Lipo>
84.4669

> <Gold.Chemscore.Internal_Hbond>
0.0000

> <Gold.Chemscore.DEClash>
0.0617

> <Gold.Chemscore.DEInternal>
1.7556

> <Gold.Chemscore.Rot>
1.0000

> <Gold.Chemscore.Internal.Correction>
   9.000000E+99

> <Gold.Chemscore.Hbonds>
donor molecule, donor type, donor heavy atom, donor atom, acceptor molecule, acceptor atom, score
      P1  H  7989  7998       L1    20  0.81
      P1  H  7997  8008       L1    11  0.50

> <Gold.Chemscore.Hbond.Weighted>
-5.2568

> <Gold.Chemscore.Metal.Weighted>
-0.0000

> <Gold.Chemscore.Lipo.Weighted>
-9.8826

> <Gold.Chemscore.Internal_Hbond.Weighted>
0.0000

> <Gold.Chemscore.DEClash.Weighted>
0.0617

> <Gold.Chemscore.DEInternal.Weighted>
1.7556

> <Gold.Chemscore.Rot.Weighted>
2.5600

> <Gold.Chemscore.Internal.Correction.Weighted>
   9.000000E+99

> <Gold.Protein.RotatedTorsions>
[ 6907 6896 6895 6894 ] final  -16.18 input  -60.11 | X-H torsion
[ 7974 7965 7964 7962 ] final -129.52 input  175.53 | X-H torsion
[ 8008 7997 7996 7995 ] final  -96.14 input   59.86 | X-H torsion
[ 10167 10162 10161 10158 ] final  -75.26 input  -65.29 | X-H torsion
[ 10718 10713 10712 10709 ] final  155.94 input   66.30 | X-H torsion
[ 10763 10752 10751 10750 ] final    6.03 input  -60.55 | X-H torsion
[ 11005 11000 10999 10996 ] final  175.28 input  -57.11 | X-H torsion

> <Gold.Protein.ActiveResidues>
 VAL166  LYS551  ARG553  GLY616  TRP617  ASP618  TYR619  PRO620  LYS621  CYS622 
 ASP623  PHE694  ASN695  SER759  ASP760  ASP761  ALA762  ILE779  LEU786  VAL792 
 PHE793  MET794  SER795  GLU796  ALA797  LYS798  CYS799  TRP800  GLU811  SER814 

> <Gold.Protein.RotatedAtoms>
  151.3126  135.0798  159.9277 H   0  0  0  0  0  0  0  0  0  0  0  0  # atno 6907 bound_to 6896
  152.5274  133.9721  159.7777 H   0  0  0  0  0  0  0  0  0  0  0  0  # atno 6908 bound_to 6896
  151.0027  133.5989  159.2723 H   0  0  0  0  0  0  0  0  0  0  0  0  # atno 6909 bound_to 6896
  144.9564  140.7400  143.4756 H   0  0  0  0  0  0  0  0  0  0  0  0  # atno 7974 bound_to 7965
  154.7706  140.0474  157.1048 H   0  0  0  0  0  0  0  0  0  0  0  0  # atno 8008 bound_to 7997
  154.9825  140.3103  155.4921 H   0  0  0  0  0  0  0  0  0  0  0  0  # atno 8009 bound_to 7997
  156.2920  140.2233  156.4925 H   0  0  0  0  0  0  0  0  0  0  0  0  # atno 8010 bound_to 7997
  140.4957  143.2371  151.7834 H   0  0  0  0  0  0  0  0  0  0  0  0  # atno 10167 bound_to 10162
  157.2116  131.0699  151.1966 H   0  0  0  0  0  0  0  0  0  0  0  0  # atno 10718 bound_to 10713
  153.2525  135.6915  153.7664 H   0  0  0  0  0  0  0  0  0  0  0  0  # atno 10763 bound_to 10752
  153.6754  135.3337  155.3165 H   0  0  0  0  0  0  0  0  0  0  0  0  # atno 10764 bound_to 10752
  154.8399  135.4509  154.1486 H   0  0  0  0  0  0  0  0  0  0  0  0  # atno 10765 bound_to 10752
  140.3604  134.7117  157.4327 H   0  0  0  0  0  0  0  0  0  0  0  0  # atno 11005 bound_to 11000
  145.2765  139.1934  143.4813 LP  0  0  0  0  0  0  0  0  0  0  0  0  # atno 17320 bound_to 7965
  146.3339  140.2720  142.8606 LP  0  0  0  0  0  0  0  0  0  0  0  0  # atno 17321 bound_to 7965
  139.4861  144.4589  151.9564 LP  0  0  0  0  0  0  0  0  0  0  0  0  # atno 17342 bound_to 10162
  140.3677  144.2894  150.5924 LP  0  0  0  0  0  0  0  0  0  0  0  0  # atno 17343 bound_to 10162
  157.3666  130.7159  149.6537 LP  0  0  0  0  0  0  0  0  0  0  0  0  # atno 17370 bound_to 10713
  155.9690  130.4210  150.4451 LP  0  0  0  0  0  0  0  0  0  0  0  0  # atno 17371 bound_to 10713
  140.0631  134.5968  155.8726 LP  0  0  0  0  0  0  0  0  0  0  0  0  # atno 17394 bound_to 11000
  141.1985  133.6602  156.5798 LP  0  0  0  0  0  0  0  0  0  0  0  0  # atno 17395 bound_to 11000

$$$$
