AV-unprocessed.smi:315|AV-procd|sdf|2316|dock2
  -GOLD-   2262022223D 1   1.00000     0.00000
 Structure written by MMmdl.
 47 49  0  0  0  0  0  0  0  0  2 V2000
  151.4181  139.1955  155.7973 C   0  0  0  0  0  0  0  0  0  0  0  0
  151.3386  138.6396  154.3734 C   0  0  0  0  0  0  0  0  0  0  0  0
  149.9724  138.3852  154.0653 O   0  0  0  0  0  0  0  0  0  0  0  0
  149.0877  139.4465  154.0330 C   0  0  0  0  0  0  0  0  0  0  0  0
  149.5267  140.6686  154.4243 N   0  0  0  0  0  0  0  0  0  0  0  0
  148.6594  141.7015  154.3925 C   0  0  0  0  0  0  0  0  0  0  0  0
  147.3204  141.5711  153.9798 C   0  0  0  0  0  0  0  0  0  0  0  0
  146.8628  140.3035  153.5741 C   0  0  0  0  0  0  0  0  0  0  0  0
  147.7656  139.2130  153.5892 C   0  0  0  0  0  0  0  0  0  0  0  0
  147.4212  137.8856  153.2169 N   0  0  0  0  0  0  0  0  0  0  0  0
  146.2543  137.2305  153.3655 C   0  0  0  0  0  0  0  0  0  0  0  0
  145.2663  137.6730  153.9462 O   0  0  0  0  0  0  0  0  0  0  0  0
  146.2413  136.0101  152.7998 N   0  0  0  0  0  0  0  0  0  0  0  0
  145.1411  135.0437  152.7767 C   0  0  2  0  0  0  0  0  0  0  0  0
  145.4858  133.7081  152.0945 C   0  0  0  0  0  0  0  0  0  0  0  0
  144.2227  133.3112  151.3052 C   0  0  0  0  0  0  0  0  0  0  0  0
  143.1918  134.3291  151.6120 N   0  3  1  0  0  0  0  0  0  0  0  0
  142.2543  133.8730  152.6749 C   0  0  0  0  0  0  0  0  0  0  0  0
  141.3363  135.0027  153.1590 C   0  0  0  0  0  0  0  0  0  0  0  0
  142.1715  136.1734  153.6828 C   0  0  0  0  0  0  0  0  0  0  0  0
  143.1025  136.6750  152.5735 C   0  0  0  0  0  0  0  0  0  0  0  0
  143.9600  135.5534  151.9450 C   0  0  1  0  0  0  0  0  0  0  0  0
  152.4514  139.4014  156.0776 H   0  0  0  0  0  0  0  0  0  0  0  0
  151.0107  138.4859  156.5177 H   0  0  0  0  0  0  0  0  0  0  0  0
  150.8553  140.1249  155.8865 H   0  0  0  0  0  0  0  0  0  0  0  0
  151.7587  139.3625  153.6724 H   0  0  0  0  0  0  0  0  0  0  0  0
  151.9237  137.7211  154.3060 H   0  0  0  0  0  0  0  0  0  0  0  0
  149.0430  142.6593  154.7111 H   0  0  0  0  0  0  0  0  0  0  0  0
  146.6579  142.4240  153.9784 H   0  0  0  0  0  0  0  0  0  0  0  0
  145.8324  140.1949  153.2746 H   0  0  0  0  0  0  0  0  0  0  0  0
  148.1247  137.4030  152.6775 H   0  0  0  0  0  0  0  0  0  0  0  0
  147.0891  135.7255  152.3302 H   0  0  0  0  0  0  0  0  0  0  0  0
  144.8024  134.8515  153.7962 H   0  0  0  0  0  0  0  0  0  0  0  0
  146.3305  133.8133  151.4117 H   0  0  0  0  0  0  0  0  0  0  0  0
  145.7542  132.9500  152.8312 H   0  0  0  0  0  0  0  0  0  0  0  0
  144.4330  133.3490  150.2357 H   0  0  0  0  0  0  0  0  0  0  0  0
  143.8905  132.2970  151.5325 H   0  0  0  0  0  0  0  0  0  0  0  0
  141.6536  133.0490  152.2882 H   0  0  0  0  0  0  0  0  0  0  0  0
  142.8166  133.4762  153.5220 H   0  0  0  0  0  0  0  0  0  0  0  0
  140.6923  135.3362  152.3442 H   0  0  0  0  0  0  0  0  0  0  0  0
  140.6773  134.6345  153.9461 H   0  0  0  0  0  0  0  0  0  0  0  0
  141.5199  136.9807  154.0180 H   0  0  0  0  0  0  0  0  0  0  0  0
  142.7521  135.8613  154.5516 H   0  0  0  0  0  0  0  0  0  0  0  0
  142.4927  137.1273  151.7902 H   0  0  0  0  0  0  0  0  0  0  0  0
  143.7423  137.4727  152.9521 H   0  0  0  0  0  0  0  0  0  0  0  0
  144.3579  135.9351  151.0021 H   0  0  0  0  0  0  0  0  0  0  0  0
  142.6409  134.5078  150.7844 H   0  0  0  0  0  0  0  0  0  0  0  0
  1  2  1  0  0  0  0
  1 23  1  0  0  0  0
  1 24  1  0  0  0  0
  1 25  1  0  0  0  0
  2  3  1  0  0  0  0
  2 26  1  0  0  0  0
  2 27  1  0  0  0  0
  3  4  1  0  0  0  0
  4  9  1  0  0  0  0
  4  5  2  0  0  0  0
  5  6  1  0  0  0  0
  6  7  2  0  0  0  0
  6 28  1  0  0  0  0
  7  8  1  0  0  0  0
  7 29  1  0  0  0  0
  8  9  2  0  0  0  0
  8 30  1  0  0  0  0
  9 10  1  0  0  0  0
 10 11  1  0  0  0  0
 10 31  1  0  0  0  0
 11 12  2  0  0  0  0
 11 13  1  0  0  0  0
 13 14  1  0  0  0  0
 13 32  1  0  0  0  0
 14 22  1  0  0  0  0
 14 15  1  0  0  0  0
 14 33  1  0  0  0  0
 15 16  1  0  0  0  0
 15 34  1  0  0  0  0
 15 35  1  0  0  0  0
 16 17  1  0  0  0  0
 16 36  1  0  0  0  0
 16 37  1  0  0  0  0
 17 22  1  0  0  0  0
 17 18  1  0  0  0  0
 17 47  1  0  0  0  0
 18 19  1  0  0  0  0
 18 38  1  0  0  0  0
 18 39  1  0  0  0  0
 19 20  1  0  0  0  0
 19 40  1  0  0  0  0
 19 41  1  0  0  0  0
 20 21  1  0  0  0  0
 20 42  1  0  0  0  0
 20 43  1  0  0  0  0
 21 22  1  0  0  0  0
 21 44  1  0  0  0  0
 21 45  1  0  0  0  0
 22 46  1  0  0  0  0
M  CHG  1  17   1
M  END
> <s_m_source_file>
AV-unprocessed.smi

> <i_m_source_file_index>
315

> <i_lp_mmshare_version>
43012

> <i_f3d_flags>
0

> <s_epik_input>
W0NIM11bQ0gyXU9jMW5bY0hdW2NIXVtjSF1jMVtOSF1DKD1PKVtOSF1bQ0BIXShbQ0gyXVtDSDJdMilbQ0BASF0oTjIzKVtDSDJdW0NIMl1bQ0gyXVtDSDJdMw==

> <s_epik_cmdline>
J2VwaWtfcHl0aG9uJywgJy1waCcsICc3LjAnLCAnLXRuJywgJzgnLCAnLW1hJywgJzIwMCcsICctbWV0YWxfYmluZGluZycsICctaW1hZScsICc8aW5maWxlLm1hZT4nLCAnLW9tYWUnLCAnPG91dGZpbGUubWFlPic=

> <r_lp_tautomer_probability>
1

> <r_epik_Ionization_Penalty>
0.00106455

> <r_epik_Ionization_Penalty_Charging>
0.000974069

> <r_epik_Ionization_Penalty_Neutral>
9.04821e-05

> <r_epik_State_Penalty>
0.000633842

> <r_epik_Charging_Adjusted_Penalty>
0.00160791

> <i_epik_Tot_Q>
1

> <i_epik_Tot_abs_Q>
1

> <r_epik_Metal_State_Penalty>
-0

> <b_epik_Metal_Only>
0

> <s_lp_Force_Field>
OPLS_2005

> <r_lp_Energy>
51.3526

> <b_lp_Chiralities_Consistent>
1

> <s_lp_Variant>
AV-unprocessed.smi:315-1

> <Gold.Version>
5.8.1

> <Gold.Id.Protein>
6NUR|6NUR_protein|mol2

> <Gold.PLP.Fitness>
49.3583

> <Gold.PLP.PLP>
-34.7958

> <Gold.PLP.part.hbond>
-3.7960

> <Gold.PLP.part.metal>
0.0000

> <Gold.PLP.part.buried>
-1.9104

> <Gold.PLP.part.nonpolar>
-29.8576

> <Gold.PLP.part.repulsive>
0.5389

> <Gold.PLP.ligand.clash>
0.0006

> <Gold.PLP.ligand.torsion>
0.3033

> <Gold.PLP.Chemscore.Hbond>
4.0510

> <Gold.PLP.Chemscore.CHOScore>
1.0000

> <Gold.PLP.Chemscore.Metal>
0.0000

> <Gold.Chemscore.Hbonds>
donor molecule, donor type, donor heavy atom, donor atom, acceptor molecule, acceptor atom, score
      L1  H    10    31       P1  7948  1.00
      L1  H    13    32       P1  7948  0.94
      L1  H    17    47       P1 10186  1.88
      P1  H  7989  7998       L1     5  0.23
      L1  C     6    28       P1  8028  1.00

> <Gold.PLP.Chemscore.Internal.Correction>
0.0167

> <Gold.Rescore>
     Score         DG    S(hbond)    S(metal)    S(lipo)     H(rot)  DE(clash)    DE(int)     intcor
     16.38     -19.53       2.42        0.00      81.21       1.38       0.34       2.81       ----

> <Gold.Chemscore.Fitness>
16.3803

> <Gold.Chemscore.DG>
-19.5312

> <Gold.Chemscore.ZeroCoef>
-5.4800

> <Gold.Chemscore.Hbond>
2.4177

> <Gold.Chemscore.Metal>
0.0000

> <Gold.Chemscore.Lipo>
81.2078

> <Gold.Chemscore.Internal_Hbond>
0.0000

> <Gold.Chemscore.DEClash>
0.3369

> <Gold.Chemscore.DEInternal>
2.8140

> <Gold.Chemscore.Rot>
1.3770

> <Gold.Chemscore.Internal.Correction>
   9.000000E+99

> <Gold.Chemscore.Hbonds>
donor molecule, donor type, donor heavy atom, donor atom, acceptor molecule, acceptor atom, score
      L1  H    10    31       P1  7948  0.99
      L1  H    13    32       P1  7948  0.89
      L1  H    17    47       P1 10186  0.20
      P1  H  7989  7998       L1     5  0.12

> <Gold.Chemscore.Hbond.Weighted>
-8.0751

> <Gold.Chemscore.Metal.Weighted>
-0.0000

> <Gold.Chemscore.Lipo.Weighted>
-9.5013

> <Gold.Chemscore.Internal_Hbond.Weighted>
0.0000

> <Gold.Chemscore.DEClash.Weighted>
0.3369

> <Gold.Chemscore.DEInternal.Weighted>
2.8140

> <Gold.Chemscore.Rot.Weighted>
3.5252

> <Gold.Chemscore.Internal.Correction.Weighted>
   9.000000E+99

> <Gold.Protein.RotatedTorsions>
[ 6907 6896 6895 6894 ] final   78.99 input  -60.11 | X-H torsion
[ 7974 7965 7964 7962 ] final  -12.69 input  175.53 | X-H torsion
[ 8008 7997 7996 7995 ] final  -35.38 input   59.86 | X-H torsion
[ 10167 10162 10161 10158 ] final  -22.06 input  -65.29 | X-H torsion
[ 10718 10713 10712 10709 ] final -113.39 input   66.30 | X-H torsion
[ 10763 10752 10751 10750 ] final   70.43 input  -60.55 | X-H torsion
[ 11005 11000 10999 10996 ] final  -13.28 input  -57.11 | X-H torsion

> <Gold.Protein.ActiveResidues>
 VAL166  LYS551  ARG553  GLY616  TRP617  ASP618  TYR619  PRO620  LYS621  CYS622 
 ASP623  PHE694  ASN695  SER759  ASP760  ASP761  ALA762  ILE779  LEU786  VAL792 
 PHE793  MET794  SER795  GLU796  ALA797  LYS798  CYS799  TRP800  GLU811  SER814 

> <Gold.Protein.RotatedAtoms>
  152.5181  134.3580  159.9274 H   0  0  0  0  0  0  0  0  0  0  0  0  # atno 6907 bound_to 6896
  151.3532  133.3911  159.2690 H   0  0  0  0  0  0  0  0  0  0  0  0  # atno 6908 bound_to 6896
  150.9710  134.9102  159.7846 H   0  0  0  0  0  0  0  0  0  0  0  0  # atno 6909 bound_to 6896
  146.2142  140.3094  142.8381 H   0  0  0  0  0  0  0  0  0  0  0  0  # atno 7974 bound_to 7965
  154.4097  140.1659  156.2202 H   0  0  0  0  0  0  0  0  0  0  0  0  # atno 8008 bound_to 7997
  155.9370  140.3411  155.6272 H   0  0  0  0  0  0  0  0  0  0  0  0  # atno 8009 bound_to 7997
  155.7036  140.0748  157.2391 H   0  0  0  0  0  0  0  0  0  0  0  0  # atno 8010 bound_to 7997
  140.7284  143.4570  151.0434 H   0  0  0  0  0  0  0  0  0  0  0  0  # atno 10167 bound_to 10162
  156.0764  130.5970  150.8636 H   0  0  0  0  0  0  0  0  0  0  0  0  # atno 10718 bound_to 10713
  153.0341  135.5174  154.7440 H   0  0  0  0  0  0  0  0  0  0  0  0  # atno 10763 bound_to 10752
  154.6430  135.2915  155.0082 H   0  0  0  0  0  0  0  0  0  0  0  0  # atno 10764 bound_to 10752
  154.0993  135.6638  153.4918 H   0  0  0  0  0  0  0  0  0  0  0  0  # atno 10765 bound_to 10752
  140.7745  133.8412  155.9236 H   0  0  0  0  0  0  0  0  0  0  0  0  # atno 11005 bound_to 11000
  144.8999  140.7630  143.5873 LP  0  0  0  0  0  0  0  0  0  0  0  0  # atno 17320 bound_to 7965
  145.3019  139.1847  143.4685 LP  0  0  0  0  0  0  0  0  0  0  0  0  # atno 17321 bound_to 7965
  139.8251  143.7767  152.3178 LP  0  0  0  0  0  0  0  0  0  0  0  0  # atno 17342 bound_to 10162
  139.7863  144.7426  151.0017 LP  0  0  0  0  0  0  0  0  0  0  0  0  # atno 17343 bound_to 10162
  157.5861  131.0945  150.9194 LP  0  0  0  0  0  0  0  0  0  0  0  0  # atno 17370 bound_to 10713
  156.9380  130.5374  149.5280 LP  0  0  0  0  0  0  0  0  0  0  0  0  # atno 17371 bound_to 10713
  140.9542  134.1739  157.4704 LP  0  0  0  0  0  0  0  0  0  0  0  0  # atno 17394 bound_to 11000
  139.8751  134.9921  156.5579 LP  0  0  0  0  0  0  0  0  0  0  0  0  # atno 17395 bound_to 11000

$$$$
