AV-unprocessed.smi:564|AV-procd|sdf|2950|dock7
  -GOLD-   2262023453D 1   1.00000     0.00000
 Structure written by MMmdl.
 50 51  0  0  0  0  0  0  0  0  2 V2000
  148.6177  137.1927  158.5682 C   0  0  0  0  0  0  0  0  0  0  0  0
  148.1935  136.5002  159.8321 C   0  0  0  0  0  0  0  0  0  0  0  0
  148.1173  137.1936  160.9553 N   0  0  0  0  0  0  0  0  0  0  0  0
  147.7178  136.3027  161.8846 N   0  0  0  0  0  0  0  0  0  0  0  0
  147.5348  136.7383  163.2554 C   0  0  0  0  0  0  0  0  0  0  0  0
  147.5313  135.0453  161.3453 C   0  0  0  0  0  0  0  0  0  0  0  0
  147.0825  133.8818  162.1695 C   0  0  0  0  0  0  0  0  0  0  0  0
  147.8250  135.1341  160.0106 C   0  0  0  0  0  0  0  0  0  0  0  0
  147.7618  134.0533  158.9602 C   0  0  0  0  0  0  0  0  0  0  0  0
  146.7934  134.4911  157.8633 C   0  0  0  0  0  0  0  0  0  0  0  0
  146.4299  135.6642  157.7902 O   0  0  0  0  0  0  0  0  0  0  0  0
  146.4242  133.5452  156.9861 N   0  0  0  0  0  0  0  0  0  0  0  0
  145.6582  133.7821  155.7669 C   0  0  0  0  0  0  0  0  0  0  0  0
  146.1683  132.9408  154.5744 C   0  0  0  0  0  0  0  0  0  0  0  0
  145.2269  132.9206  153.4155 N   0  3  1  0  0  0  0  0  0  0  0  0
  144.8516  134.3048  153.0084 C   0  0  0  0  0  0  0  0  0  0  0  0
  143.7907  134.3174  151.9005 C   0  0  0  0  0  0  0  0  0  0  0  0
  144.2837  133.5379  150.6827 C   0  0  0  0  0  0  0  0  0  0  0  0
  144.6506  132.1158  151.1107 C   0  0  0  0  0  0  0  0  0  0  0  0
  145.6908  132.0943  152.2534 C   0  0  2  0  0  0  0  0  0  0  0  0
  145.9606  130.6228  152.6318 C   0  0  0  0  0  0  0  0  0  0  0  0
  147.7784  137.2978  157.8810 H   0  0  0  0  0  0  0  0  0  0  0  0
  149.3984  136.6294  158.0569 H   0  0  0  0  0  0  0  0  0  0  0  0
  149.0090  138.1914  158.7663 H   0  0  0  0  0  0  0  0  0  0  0  0
  148.1722  136.1497  163.9155 H   0  0  0  0  0  0  0  0  0  0  0  0
  146.4938  136.6004  163.5479 H   0  0  0  0  0  0  0  0  0  0  0  0
  147.7936  137.7926  163.3631 H   0  0  0  0  0  0  0  0  0  0  0  0
  146.7733  133.0478  161.5394 H   0  0  0  0  0  0  0  0  0  0  0  0
  146.2346  134.1510  162.7998 H   0  0  0  0  0  0  0  0  0  0  0  0
  147.8881  133.5338  162.8160 H   0  0  0  0  0  0  0  0  0  0  0  0
  148.7407  133.8596  158.5204 H   0  0  0  0  0  0  0  0  0  0  0  0
  147.4258  133.1050  159.3814 H   0  0  0  0  0  0  0  0  0  0  0  0
  146.7560  132.6038  157.1411 H   0  0  0  0  0  0  0  0  0  0  0  0
  144.6158  133.5443  155.9777 H   0  0  0  0  0  0  0  0  0  0  0  0
  145.6772  134.8437  155.5158 H   0  0  0  0  0  0  0  0  0  0  0  0
  147.1515  133.2878  154.2538 H   0  0  0  0  0  0  0  0  0  0  0  0
  146.3242  131.9377  154.9616 H   0  0  0  0  0  0  0  0  0  0  0  0
  144.4591  134.8560  153.8620 H   0  0  0  0  0  0  0  0  0  0  0  0
  145.7429  134.8378  152.6732 H   0  0  0  0  0  0  0  0  0  0  0  0
  142.8622  133.8810  152.2691 H   0  0  0  0  0  0  0  0  0  0  0  0
  143.5593  135.3443  151.6165 H   0  0  0  0  0  0  0  0  0  0  0  0
  143.5123  133.5131  149.9122 H   0  0  0  0  0  0  0  0  0  0  0  0
  145.1517  134.0334  150.2459 H   0  0  0  0  0  0  0  0  0  0  0  0
  143.7476  131.5945  151.4277 H   0  0  0  0  0  0  0  0  0  0  0  0
  145.0306  131.5684  150.2475 H   0  0  0  0  0  0  0  0  0  0  0  0
  146.6189  132.5296  151.8793 H   0  0  0  0  0  0  0  0  0  0  0  0
  146.1022  130.0107  151.7407 H   0  0  0  0  0  0  0  0  0  0  0  0
  145.1273  130.1978  153.1914 H   0  0  0  0  0  0  0  0  0  0  0  0
  146.8669  130.5014  153.2238 H   0  0  0  0  0  0  0  0  0  0  0  0
  144.3823  132.4760  153.7465 H   0  0  0  0  0  0  0  0  0  0  0  0
  1  2  1  0  0  0  0
  1 22  1  0  0  0  0
  1 23  1  0  0  0  0
  1 24  1  0  0  0  0
  2  8  1  0  0  0  0
  2  3  2  0  0  0  0
  3  4  1  0  0  0  0
  4  5  1  0  0  0  0
  4  6  1  0  0  0  0
  5 25  1  0  0  0  0
  5 26  1  0  0  0  0
  5 27  1  0  0  0  0
  6  7  1  0  0  0  0
  6  8  2  0  0  0  0
  7 28  1  0  0  0  0
  7 29  1  0  0  0  0
  7 30  1  0  0  0  0
  8  9  1  0  0  0  0
  9 10  1  0  0  0  0
  9 31  1  0  0  0  0
  9 32  1  0  0  0  0
 10 11  2  0  0  0  0
 10 12  1  0  0  0  0
 12 13  1  0  0  0  0
 12 33  1  0  0  0  0
 13 14  1  0  0  0  0
 13 34  1  0  0  0  0
 13 35  1  0  0  0  0
 14 15  1  0  0  0  0
 14 36  1  0  0  0  0
 14 37  1  0  0  0  0
 15 20  1  0  0  0  0
 15 16  1  0  0  0  0
 15 50  1  0  0  0  0
 16 17  1  0  0  0  0
 16 38  1  0  0  0  0
 16 39  1  0  0  0  0
 17 18  1  0  0  0  0
 17 40  1  0  0  0  0
 17 41  1  0  0  0  0
 18 19  1  0  0  0  0
 18 42  1  0  0  0  0
 18 43  1  0  0  0  0
 19 20  1  0  0  0  0
 19 44  1  0  0  0  0
 19 45  1  0  0  0  0
 20 21  1  0  0  0  0
 20 46  1  0  0  0  0
 21 47  1  0  0  0  0
 21 48  1  0  0  0  0
 21 49  1  0  0  0  0
M  CHG  1  15   1
M  END
> <s_m_source_file>
AV-unprocessed.smi

> <i_m_source_file_index>
564

> <i_lp_mmshare_version>
43012

> <i_f3d_flags>
0

> <s_epik_input>
W0NIM11jMW5uKFtDSDNdKWMoW0NIM10pYzFbQ0gyXUMoPU8pW05IXVtDSDJdW0NIMl1OMltDSDJdW0NIMl1bQ0gyXVtDSDJdW0NASF0yW0NIM10=

> <s_epik_cmdline>
J2VwaWtfcHl0aG9uJywgJy1waCcsICc3LjAnLCAnLXRuJywgJzgnLCAnLW1hJywgJzIwMCcsICctbWV0YWxfYmluZGluZycsICctaW1hZScsICc8aW5maWxlLm1hZT4nLCAnLW9tYWUnLCAnPG91dGZpbGUubWFlPic=

> <r_lp_tautomer_probability>
1

> <r_epik_Ionization_Penalty>
0.00456826

> <r_epik_Ionization_Penalty_Charging>
0.00240401

> <r_epik_Ionization_Penalty_Neutral>
0.00216425

> <r_epik_State_Penalty>
-0

> <r_epik_Charging_Adjusted_Penalty>
0.00240401

> <i_epik_Tot_Q>
1

> <i_epik_Tot_abs_Q>
1

> <r_epik_Metal_State_Penalty>
-0

> <b_epik_Metal_Only>
0

> <s_lp_Force_Field>
OPLS_2005

> <r_lp_Energy>
16.3925

> <b_lp_Chiralities_Consistent>
1

> <s_lp_Variant>
AV-unprocessed.smi:564-4

> <Gold.Version>
5.8.1

> <Gold.Id.Protein>
6NUR|6NUR_protein|mol2

> <Gold.PLP.Fitness>
45.0835

> <Gold.PLP.PLP>
-34.7746

> <Gold.PLP.part.hbond>
-3.0000

> <Gold.PLP.part.metal>
0.0000

> <Gold.PLP.part.buried>
-4.8643

> <Gold.PLP.part.nonpolar>
-27.2048

> <Gold.PLP.part.repulsive>
0.0000

> <Gold.PLP.ligand.clash>
0.0000

> <Gold.PLP.ligand.torsion>
0.3606

> <Gold.PLP.Chemscore.Hbond>
3.6640

> <Gold.PLP.Chemscore.CHOScore>
0.0000

> <Gold.PLP.Chemscore.Metal>
0.0000

> <Gold.Chemscore.Hbonds>
donor molecule, donor type, donor heavy atom, donor atom, acceptor molecule, acceptor atom, score
      L1  H    15    50       P1 10957  1.59
      P1  H  6931  6943       L1     3  0.94
      P1  H  6934  6947       L1     3  0.66

> <Gold.PLP.Chemscore.Internal.Correction>
0.0381

> <Gold.Rescore>
     Score         DG    S(hbond)    S(metal)    S(lipo)     H(rot)  DE(clash)    DE(int)     intcor
     15.37     -17.02       1.94        0.00      78.50       1.61       0.16       1.49       ----

> <Gold.Chemscore.Fitness>
15.3658

> <Gold.Chemscore.DG>
-17.0203

> <Gold.Chemscore.ZeroCoef>
-5.4800

> <Gold.Chemscore.Hbond>
1.9427

> <Gold.Chemscore.Metal>
0.0000

> <Gold.Chemscore.Lipo>
78.4960

> <Gold.Chemscore.Internal_Hbond>
0.0000

> <Gold.Chemscore.DEClash>
0.1596

> <Gold.Chemscore.DEInternal>
1.4948

> <Gold.Chemscore.Rot>
1.6142

> <Gold.Chemscore.Internal.Correction>
   9.000000E+99

> <Gold.Chemscore.Hbonds>
donor molecule, donor type, donor heavy atom, donor atom, acceptor molecule, acceptor atom, score
      L1  H    15    50       P1 10957  0.27
      P1  H  6931  6943       L1     3  0.27
      P1  H  6934  6947       L1     3  0.58

> <Gold.Chemscore.Hbond.Weighted>
-6.4887

> <Gold.Chemscore.Metal.Weighted>
-0.0000

> <Gold.Chemscore.Lipo.Weighted>
-9.1840

> <Gold.Chemscore.Internal_Hbond.Weighted>
0.0000

> <Gold.Chemscore.DEClash.Weighted>
0.1596

> <Gold.Chemscore.DEInternal.Weighted>
1.4948

> <Gold.Chemscore.Rot.Weighted>
4.1324

> <Gold.Chemscore.Internal.Correction.Weighted>
   9.000000E+99

> <Gold.Protein.RotatedTorsions>
[ 6907 6896 6895 6894 ] final -112.40 input  -60.11 | X-H torsion
[ 7974 7965 7964 7962 ] final   75.70 input  175.53 | X-H torsion
[ 8008 7997 7996 7995 ] final   85.07 input   59.86 | X-H torsion
[ 10167 10162 10161 10158 ] final    8.36 input  -65.29 | X-H torsion
[ 10718 10713 10712 10709 ] final  156.68 input   66.30 | X-H torsion
[ 10763 10752 10751 10750 ] final -166.72 input  -60.55 | X-H torsion
[ 11005 11000 10999 10996 ] final   27.21 input  -57.11 | X-H torsion

> <Gold.Protein.ActiveResidues>
 VAL166  LYS551  ARG553  GLY616  TRP617  ASP618  TYR619  PRO620  LYS621  CYS622 
 ASP623  PHE694  ASN695  SER759  ASP760  ASP761  ALA762  ILE779  LEU786  VAL792 
 PHE793  MET794  SER795  GLU796  ALA797  LYS798  CYS799  TRP800  GLU811  SER814 

> <Gold.Protein.RotatedAtoms>
  150.7756  133.9095  159.3364 H   0  0  0  0  0  0  0  0  0  0  0  0  # atno 6907 bound_to 6896
  151.6971  135.0935  160.0253 H   0  0  0  0  0  0  0  0  0  0  0  0  # atno 6908 bound_to 6896
  152.3790  133.6482  159.6182 H   0  0  0  0  0  0  0  0  0  0  0  0  # atno 6909 bound_to 6896
  145.7122  139.2619  143.1644 H   0  0  0  0  0  0  0  0  0  0  0  0  # atno 7974 bound_to 7965
  155.9453  140.3405  155.6362 H   0  0  0  0  0  0  0  0  0  0  0  0  # atno 8008 bound_to 7997
  155.6988  140.0758  157.2437 H   0  0  0  0  0  0  0  0  0  0  0  0  # atno 8009 bound_to 7997
  154.4111  140.1644  156.2155 H   0  0  0  0  0  0  0  0  0  0  0  0  # atno 8010 bound_to 7997
  140.6319  143.7975  150.7306 H   0  0  0  0  0  0  0  0  0  0  0  0  # atno 10167 bound_to 10162
  157.2016  131.0677  151.2021 H   0  0  0  0  0  0  0  0  0  0  0  0  # atno 10718 bound_to 10713
  154.6805  135.2954  154.9620 H   0  0  0  0  0  0  0  0  0  0  0  0  # atno 10763 bound_to 10752
  154.0616  135.6630  153.4816 H   0  0  0  0  0  0  0  0  0  0  0  0  # atno 10764 bound_to 10752
  153.0544  135.5153  154.7845 H   0  0  0  0  0  0  0  0  0  0  0  0  # atno 10765 bound_to 10752
  140.3287  134.2462  155.7705 H   0  0  0  0  0  0  0  0  0  0  0  0  # atno 11005 bound_to 11000
  146.0702  140.7877  142.9692 LP  0  0  0  0  0  0  0  0  0  0  0  0  # atno 17320 bound_to 7965
  144.6939  140.3330  143.7212 LP  0  0  0  0  0  0  0  0  0  0  0  0  # atno 17321 bound_to 7965
  140.1588  143.4294  152.2081 LP  0  0  0  0  0  0  0  0  0  0  0  0  # atno 17342 bound_to 10162
  139.5532  144.7353  151.4372 LP  0  0  0  0  0  0  0  0  0  0  0  0  # atno 17343 bound_to 10162
  157.3761  130.7206  149.6598 LP  0  0  0  0  0  0  0  0  0  0  0  0  # atno 17370 bound_to 10713
  155.9700  130.4185  150.4332 LP  0  0  0  0  0  0  0  0  0  0  0  0  # atno 17371 bound_to 10713
  141.2069  133.7821  157.0151 LP  0  0  0  0  0  0  0  0  0  0  0  0  # atno 17394 bound_to 11000
  140.0879  134.9610  157.1730 LP  0  0  0  0  0  0  0  0  0  0  0  0  # atno 17395 bound_to 11000

$$$$
