AV-unprocessed.smi:1151|AV-procd|sdf|4895|dock5
  -GOLD-   22720 3473D 1   1.00000     0.00000
 Structure written by MMmdl.
 35 36  0  0  0  0  0  0  0  0  1 V2000
  152.5140  143.0105  161.9967 C   0  0  0  0  0  0  0  0  0  0  0  0
  152.0908  143.0799  160.5696 C   0  0  0  0  0  0  0  0  0  0  0  0
  151.7242  142.0119  159.8563 N   0  0  0  0  0  0  0  0  0  0  0  0
  151.3749  142.3374  158.5422 C   0  0  0  0  0  0  0  0  0  0  0  0
  150.9203  141.2634  157.5965 C   0  0  0  0  0  0  0  0  0  0  0  0
  150.7595  141.7504  156.1417 C   0  0  0  0  0  0  0  0  0  0  0  0
  149.4962  141.3385  155.5361 N   0  0  0  0  0  0  0  0  0  0  0  0
  149.3686  140.4523  154.5366 C   0  0  0  0  0  0  0  0  0  0  0  0
  150.3288  139.8629  154.0400 O   0  0  0  0  0  0  0  0  0  0  0  0
  147.9400  140.2243  154.0062 C   0  0  2  0  0  0  0  0  0  0  0  0
  147.3827  141.4411  153.2431 C   0  0  0  0  0  0  0  0  0  0  0  0
  147.0372  142.6351  154.1544 C   0  0  0  0  0  0  0  0  0  0  0  0
  146.3588  142.2382  155.4744 C   0  0  0  0  0  0  0  0  0  0  0  0
  145.7996  143.1006  156.1476 O   0  0  0  0  0  0  0  0  0  0  0  0
  146.4280  140.9610  155.8888 N   0  0  0  0  0  0  0  0  0  0  0  0
  146.9536  139.8278  155.1262 C   0  0  0  0  0  0  0  0  0  0  0  0
  151.4877  143.6780  158.2680 C   0  0  0  0  0  0  0  0  0  0  0  0
  152.0295  144.5815  159.6544 S   0  0  0  0  0  0  0  0  0  0  0  0
  152.1112  142.1156  162.4719 H   0  0  0  0  0  0  0  0  0  0  0  0
  152.1526  143.8848  162.5384 H   0  0  0  0  0  0  0  0  0  0  0  0
  153.6018  142.9829  162.0608 H   0  0  0  0  0  0  0  0  0  0  0  0
  151.6291  140.4351  157.6192 H   0  0  0  0  0  0  0  0  0  0  0  0
  149.9742  140.8418  157.9375 H   0  0  0  0  0  0  0  0  0  0  0  0
  150.8681  142.8346  156.0875 H   0  0  0  0  0  0  0  0  0  0  0  0
  151.5596  141.3301  155.5319 H   0  0  0  0  0  0  0  0  0  0  0  0
  148.6593  141.7831  155.8850 H   0  0  0  0  0  0  0  0  0  0  0  0
  147.9898  139.3886  153.3060 H   0  0  0  0  0  0  0  0  0  0  0  0
  148.0898  141.7597  152.4763 H   0  0  0  0  0  0  0  0  0  0  0  0
  146.4833  141.1368  152.7060 H   0  0  0  0  0  0  0  0  0  0  0  0
  147.9464  143.1828  154.4035 H   0  0  0  0  0  0  0  0  0  0  0  0
  146.3982  143.3365  153.6172 H   0  0  0  0  0  0  0  0  0  0  0  0
  146.0117  140.7440  156.7830 H   0  0  0  0  0  0  0  0  0  0  0  0
  146.1031  139.3031  154.6895 H   0  0  0  0  0  0  0  0  0  0  0  0
  147.4178  139.1246  155.8191 H   0  0  0  0  0  0  0  0  0  0  0  0
  151.2776  144.1861  157.3384 H   0  0  0  0  0  0  0  0  0  0  0  0
  1  2  1  0  0  0  0
  1 19  1  0  0  0  0
  1 20  1  0  0  0  0
  1 21  1  0  0  0  0
  2 18  1  0  0  0  0
  2  3  2  0  0  0  0
  3  4  1  0  0  0  0
  4  5  1  0  0  0  0
  4 17  2  0  0  0  0
  5  6  1  0  0  0  0
  5 22  1  0  0  0  0
  5 23  1  0  0  0  0
  6  7  1  0  0  0  0
  6 24  1  0  0  0  0
  6 25  1  0  0  0  0
  7  8  1  0  0  0  0
  7 26  1  0  0  0  0
  8  9  2  0  0  0  0
  8 10  1  0  0  0  0
 10 16  1  0  0  0  0
 10 11  1  0  0  0  0
 10 27  1  0  0  0  0
 11 12  1  0  0  0  0
 11 28  1  0  0  0  0
 11 29  1  0  0  0  0
 12 13  1  0  0  0  0
 12 30  1  0  0  0  0
 12 31  1  0  0  0  0
 13 14  2  0  0  0  0
 13 15  1  0  0  0  0
 15 16  1  0  0  0  0
 15 32  1  0  0  0  0
 16 33  1  0  0  0  0
 16 34  1  0  0  0  0
 17 18  1  0  0  0  0
 17 35  1  0  0  0  0
M  END
> <s_m_source_file>
AV-unprocessed.smi

> <i_m_source_file_index>
1151

> <i_lp_mmshare_version>
43012

> <i_f3d_flags>
0

> <s_epik_input>
W0NIM11jMW5jKFtjSF1zMSlbQ0gyXVtDSDJdW05IXUMoPU8pW0NAQEhdMltDSDJdW0NIMl1DKD1PKVtOSF1bQ0gyXTI=

> <s_epik_cmdline>
J2VwaWtfcHl0aG9uJywgJy1waCcsICc3LjAnLCAnLXRuJywgJzgnLCAnLW1hJywgJzIwMCcsICctbWV0YWxfYmluZGluZycsICctaW1hZScsICc8aW5maWxlLm1hZT4nLCAnLW9tYWUnLCAnPG91dGZpbGUubWFlPic=

> <r_epik_Ionization_Penalty>
0.00105008

> <r_epik_Ionization_Penalty_Charging>
0

> <r_epik_Ionization_Penalty_Neutral>
0.00105008

> <r_epik_State_Penalty>
0.000686749

> <r_epik_Charging_Adjusted_Penalty>
0.000686749

> <i_epik_Tot_Q>
0

> <i_epik_Tot_abs_Q>
0

> <r_epik_Metal_State_Penalty>
-0

> <b_epik_Metal_Only>
0

> <s_lp_Force_Field>
OPLS_2005

> <r_lp_Energy>
5.23985

> <b_lp_Chiralities_Consistent>
1

> <s_lp_Variant>
AV-unprocessed.smi:1151-1

> <Gold.Version>
5.8.1

> <Gold.Id.Protein>
6NUR|6NUR_protein|mol2

> <Gold.PLP.Fitness>
42.5508

> <Gold.PLP.PLP>
-37.9126

> <Gold.PLP.part.hbond>
-1.1132

> <Gold.PLP.part.metal>
0.0000

> <Gold.PLP.part.buried>
-7.3560

> <Gold.PLP.part.nonpolar>
-29.4030

> <Gold.PLP.part.repulsive>
1.1050

> <Gold.PLP.ligand.clash>
0.0000

> <Gold.PLP.ligand.torsion>
0.5670

> <Gold.PLP.Chemscore.Hbond>
1.0000

> <Gold.PLP.Chemscore.CHOScore>
0.9129

> <Gold.PLP.Chemscore.Metal>
0.0000

> <Gold.Chemscore.Hbonds>
donor molecule, donor type, donor heavy atom, donor atom, acceptor molecule, acceptor atom, score
      P1  H  7989  7998       L1     9  1.00

> <Gold.PLP.Chemscore.Internal.Correction>
0.0334

> <Gold.Rescore>
     Score         DG    S(hbond)    S(metal)    S(lipo)     H(rot)  DE(clash)    DE(int)     intcor
     15.10     -15.75       0.96        0.00      97.41       1.70       0.09       0.55       ----

> <Gold.Chemscore.Fitness>
15.1036

> <Gold.Chemscore.DG>
-15.7467

> <Gold.Chemscore.ZeroCoef>
-5.4800

> <Gold.Chemscore.Hbond>
0.9628

> <Gold.Chemscore.Metal>
0.0000

> <Gold.Chemscore.Lipo>
97.4119

> <Gold.Chemscore.Internal_Hbond>
0.0000

> <Gold.Chemscore.DEClash>
0.0888

> <Gold.Chemscore.DEInternal>
0.5542

> <Gold.Chemscore.Rot>
1.6978

> <Gold.Chemscore.Internal.Correction>
   9.000000E+99

> <Gold.Chemscore.Hbonds>
donor molecule, donor type, donor heavy atom, donor atom, acceptor molecule, acceptor atom, score
      P1  H  7989  7998       L1     9  0.90

> <Gold.Chemscore.Hbond.Weighted>
-3.2158

> <Gold.Chemscore.Metal.Weighted>
-0.0000

> <Gold.Chemscore.Lipo.Weighted>
-11.3972

> <Gold.Chemscore.Internal_Hbond.Weighted>
0.0000

> <Gold.Chemscore.DEClash.Weighted>
0.0888

> <Gold.Chemscore.DEInternal.Weighted>
0.5542

> <Gold.Chemscore.Rot.Weighted>
4.3463

> <Gold.Chemscore.Internal.Correction.Weighted>
   9.000000E+99

> <Gold.Protein.RotatedTorsions>
[ 6907 6896 6895 6894 ] final    8.50 input  -60.11 | X-H torsion
[ 7974 7965 7964 7962 ] final  179.74 input  175.53 | X-H torsion
[ 8008 7997 7996 7995 ] final  -45.91 input   59.86 | X-H torsion
[ 10167 10162 10161 10158 ] final  -43.03 input  -65.29 | X-H torsion
[ 10718 10713 10712 10709 ] final   93.04 input   66.30 | X-H torsion
[ 10763 10752 10751 10750 ] final  -55.43 input  -60.55 | X-H torsion
[ 11005 11000 10999 10996 ] final  -96.22 input  -57.11 | X-H torsion

> <Gold.Protein.ActiveResidues>
 VAL166  LYS551  ARG553  GLY616  TRP617  ASP618  TYR619  PRO620  LYS621  CYS622 
 ASP623  PHE694  ASN695  SER759  ASP760  ASP761  ALA762  ILE779  LEU786  VAL792 
 PHE793  MET794  SER795  GLU796  ALA797  LYS798  CYS799  TRP800  GLU811  SER814 

> <Gold.Protein.RotatedAtoms>
  151.7070  135.0919  160.0260 H   0  0  0  0  0  0  0  0  0  0  0  0  # atno 6907 bound_to 6896
  152.3685  133.6384  159.6077 H   0  0  0  0  0  0  0  0  0  0  0  0  # atno 6908 bound_to 6896
  150.7656  133.9225  159.3444 H   0  0  0  0  0  0  0  0  0  0  0  0  # atno 6909 bound_to 6896
  144.7143  140.0594  143.6433 H   0  0  0  0  0  0  0  0  0  0  0  0  # atno 7974 bound_to 7965
  154.4004  140.1385  156.3925 H   0  0  0  0  0  0  0  0  0  0  0  0  # atno 8008 bound_to 7997
  155.7900  140.3479  155.5324 H   0  0  0  0  0  0  0  0  0  0  0  0  # atno 8009 bound_to 7997
  155.8588  140.0953  157.1617 H   0  0  0  0  0  0  0  0  0  0  0  0  # atno 8010 bound_to 7997
  140.6948  143.3005  151.3294 H   0  0  0  0  0  0  0  0  0  0  0  0  # atno 10167 bound_to 10162
  157.6956  131.0464  150.3973 H   0  0  0  0  0  0  0  0  0  0  0  0  # atno 10718 bound_to 10713
  154.1907  135.6428  153.5059 H   0  0  0  0  0  0  0  0  0  0  0  0  # atno 10763 bound_to 10752
  153.0036  135.5428  154.6418 H   0  0  0  0  0  0  0  0  0  0  0  0  # atno 10764 bound_to 10752
  154.5806  135.2925  155.0709 H   0  0  0  0  0  0  0  0  0  0  0  0  # atno 10765 bound_to 10752
  141.1418  133.8082  157.0542 H   0  0  0  0  0  0  0  0  0  0  0  0  # atno 11005 bound_to 11000
  145.9877  139.2990  143.1004 LP  0  0  0  0  0  0  0  0  0  0  0  0  # atno 17320 bound_to 7965
  145.8939  140.9286  143.0538 LP  0  0  0  0  0  0  0  0  0  0  0  0  # atno 17321 bound_to 7965
  139.6391  144.0574  152.2540 LP  0  0  0  0  0  0  0  0  0  0  0  0  # atno 17342 bound_to 10162
  140.0073  144.6249  150.7677 LP  0  0  0  0  0  0  0  0  0  0  0  0  # atno 17343 bound_to 10162
  156.4370  130.3984  149.6722 LP  0  0  0  0  0  0  0  0  0  0  0  0  # atno 17370 bound_to 10713
  156.3919  130.7631  151.2633 LP  0  0  0  0  0  0  0  0  0  0  0  0  # atno 17371 bound_to 10713
  140.0613  134.9753  157.1309 LP  0  0  0  0  0  0  0  0  0  0  0  0  # atno 17394 bound_to 11000
  140.3845  134.2251  155.7169 LP  0  0  0  0  0  0  0  0  0  0  0  0  # atno 17395 bound_to 11000

$$$$
