AV-unprocessed.smi:108|AV-procd|sdf|1029|dock7
  -GOLD-   2262018 33D 1   1.00000     0.00000
 Structure written by MMmdl.
 59 62  0  0  0  0  0  0  0  0  1 V2000
  150.7447  132.5877  157.5522 O   0  0  0  0  0  0  0  0  0  0  0  0
  150.2565  133.0523  156.5196 C   0  0  0  0  0  0  0  0  0  0  0  0
  150.4698  132.3062  155.1843 C   0  0  0  0  0  0  0  0  0  0  0  0
  149.2336  131.6980  154.6446 N   0  0  0  0  0  0  0  0  0  0  0  0
  148.7139  130.5435  155.2795 C   0  0  0  0  0  0  0  0  0  0  0  0
  149.2525  130.0654  156.2791 O   0  0  0  0  0  0  0  0  0  0  0  0
  147.5296  129.9654  154.6568 C   0  0  0  0  0  0  0  0  0  0  0  0
  146.9933  128.8415  155.1626 F   0  0  0  0  0  0  0  0  0  0  0  0
  146.9720  130.5297  153.5660 C   0  0  0  0  0  0  0  0  0  0  0  0
  147.4581  131.6873  152.9830 N   0  0  0  0  0  0  0  0  0  0  0  0
  146.8785  132.2400  151.6963 C   0  0  2  0  0  0  0  0  0  0  0  0
  146.4964  133.7291  151.7624 C   0  0  0  0  0  0  0  0  0  0  0  0
  144.9865  133.6705  151.8865 C   0  0  0  0  0  0  0  0  0  0  0  0
  144.6640  132.4096  151.0944 C   0  0  0  0  0  0  0  0  0  0  0  0
  145.7204  131.5122  151.4125 O   0  0  0  0  0  0  0  0  0  0  0  0
  148.6466  132.2639  153.4868 C   0  0  0  0  0  0  0  0  0  0  0  0
  149.1640  133.2347  152.9292 O   0  0  0  0  0  0  0  0  0  0  0  0
  149.5426  134.2060  156.5214 N   0  0  0  0  0  0  0  0  0  0  0  0
  149.3560  134.9772  157.7624 C   0  0  0  0  0  0  0  0  0  0  0  0
  147.8836  135.0260  158.2255 C   0  0  0  0  0  0  0  0  0  0  0  0
  147.7117  135.5077  159.6563 C   0  0  0  0  0  0  0  0  0  0  0  0
  147.7152  136.8894  159.9450 C   0  0  0  0  0  0  0  0  0  0  0  0
  147.5321  137.3364  161.2677 C   0  0  0  0  0  0  0  0  0  0  0  0
  147.3480  136.4039  162.3068 C   0  0  0  0  0  0  0  0  0  0  0  0
  147.3472  135.0244  162.0227 C   0  0  0  0  0  0  0  0  0  0  0  0
  147.5286  134.5765  160.6997 C   0  0  0  0  0  0  0  0  0  0  0  0
  148.9103  134.7783  155.3199 C   0  0  0  0  0  0  0  0  0  0  0  0
  149.5848  136.0283  154.7652 C   0  0  0  0  0  0  0  0  0  0  0  0
  150.9572  136.0465  154.4242 C   0  0  0  0  0  0  0  0  0  0  0  0
  151.5483  137.2202  153.9179 C   0  0  0  0  0  0  0  0  0  0  0  0
  150.7725  138.3814  153.7413 C   0  0  0  0  0  0  0  0  0  0  0  0
  149.4034  138.3671  154.0687 C   0  0  0  0  0  0  0  0  0  0  0  0
  148.8126  137.1942  154.5771 C   0  0  0  0  0  0  0  0  0  0  0  0
  150.9056  132.9915  154.4568 H   0  0  0  0  0  0  0  0  0  0  0  0
  151.2321  131.5390  155.3230 H   0  0  0  0  0  0  0  0  0  0  0  0
  146.1139  130.0335  153.1425 H   0  0  0  0  0  0  0  0  0  0  0  0
  147.6393  132.0795  150.9306 H   0  0  0  0  0  0  0  0  0  0  0  0
  147.0071  134.2754  152.5553 H   0  0  0  0  0  0  0  0  0  0  0  0
  146.7680  134.1896  150.8116 H   0  0  0  0  0  0  0  0  0  0  0  0
  144.6858  133.5461  152.9268 H   0  0  0  0  0  0  0  0  0  0  0  0
  144.4906  134.5583  151.4933 H   0  0  0  0  0  0  0  0  0  0  0  0
  143.6903  131.9891  151.3464 H   0  0  0  0  0  0  0  0  0  0  0  0
  144.6814  132.6154  150.0231 H   0  0  0  0  0  0  0  0  0  0  0  0
  149.9645  134.5513  158.5611 H   0  0  0  0  0  0  0  0  0  0  0  0
  149.7372  135.9918  157.6345 H   0  0  0  0  0  0  0  0  0  0  0  0
  147.3131  135.6759  157.5611 H   0  0  0  0  0  0  0  0  0  0  0  0
  147.4321  134.0376  158.1310 H   0  0  0  0  0  0  0  0  0  0  0  0
  147.8476  137.6111  159.1516 H   0  0  0  0  0  0  0  0  0  0  0  0
  147.5308  138.3946  161.4838 H   0  0  0  0  0  0  0  0  0  0  0  0
  147.2067  136.7467  163.3211 H   0  0  0  0  0  0  0  0  0  0  0  0
  147.2049  134.3095  162.8196 H   0  0  0  0  0  0  0  0  0  0  0  0
  147.5207  133.5176  160.4864 H   0  0  0  0  0  0  0  0  0  0  0  0
  148.8824  134.0416  154.5164 H   0  0  0  0  0  0  0  0  0  0  0  0
  147.8595  134.9902  155.5182 H   0  0  0  0  0  0  0  0  0  0  0  0
  151.5699  135.1660  154.5483 H   0  0  0  0  0  0  0  0  0  0  0  0
  152.5982  137.2290  153.6647 H   0  0  0  0  0  0  0  0  0  0  0  0
  151.2267  139.2813  153.3534 H   0  0  0  0  0  0  0  0  0  0  0  0
  148.8060  139.2561  153.9305 H   0  0  0  0  0  0  0  0  0  0  0  0
  147.7613  137.1927  154.8260 H   0  0  0  0  0  0  0  0  0  0  0  0
  1  2  2  0  0  0  0
  2  3  1  0  0  0  0
  2 18  1  0  0  0  0
  3  4  1  0  0  0  0
  3 34  1  0  0  0  0
  3 35  1  0  0  0  0
  4 16  1  0  0  0  0
  4  5  1  0  0  0  0
  5  6  2  0  0  0  0
  5  7  1  0  0  0  0
  7  8  1  0  0  0  0
  7  9  2  0  0  0  0
  9 10  1  0  0  0  0
  9 36  1  0  0  0  0
 10 11  1  0  0  0  0
 10 16  1  0  0  0  0
 11 15  1  0  0  0  0
 11 12  1  0  0  0  0
 11 37  1  0  0  0  0
 12 13  1  0  0  0  0
 12 38  1  0  0  0  0
 12 39  1  0  0  0  0
 13 14  1  0  0  0  0
 13 40  1  0  0  0  0
 13 41  1  0  0  0  0
 14 15  1  0  0  0  0
 14 42  1  0  0  0  0
 14 43  1  0  0  0  0
 16 17  2  0  0  0  0
 18 19  1  0  0  0  0
 18 27  1  0  0  0  0
 19 20  1  0  0  0  0
 19 44  1  0  0  0  0
 19 45  1  0  0  0  0
 20 21  1  0  0  0  0
 20 46  1  0  0  0  0
 20 47  1  0  0  0  0
 21 26  1  0  0  0  0
 21 22  2  0  0  0  0
 22 23  1  0  0  0  0
 22 48  1  0  0  0  0
 23 24  2  0  0  0  0
 23 49  1  0  0  0  0
 24 25  1  0  0  0  0
 24 50  1  0  0  0  0
 25 26  2  0  0  0  0
 25 51  1  0  0  0  0
 26 52  1  0  0  0  0
 27 28  1  0  0  0  0
 27 53  1  0  0  0  0
 27 54  1  0  0  0  0
 28 33  1  0  0  0  0
 28 29  2  0  0  0  0
 29 30  1  0  0  0  0
 29 55  1  0  0  0  0
 30 31  2  0  0  0  0
 30 56  1  0  0  0  0
 31 32  1  0  0  0  0
 31 57  1  0  0  0  0
 32 33  2  0  0  0  0
 32 58  1  0  0  0  0
 33 59  1  0  0  0  0
M  END
> <s_m_source_file>
AV-unprocessed.smi

> <i_m_source_file_index>
108

> <i_lp_mmshare_version>
43012

> <i_f3d_flags>
0

> <s_epik_input>
W2NIXTFbY0hdW2NIXVtjSF1bY0hdYzFbQ0gyXVtDSDJdTihbQ0gyXWMyW2NIXVtjSF1bY0hdW2NIXVtjSF0yKUMoPU8pW0NIMl1uM2MoPU8pYyhGKVtjSF1uKGMzPU8pW0NAQEhdNFtDSDJdW0NIMl1bQ0gyXU80

> <s_epik_cmdline>
J2VwaWtfcHl0aG9uJywgJy1waCcsICc3LjAnLCAnLXRuJywgJzgnLCAnLW1hJywgJzIwMCcsICctbWV0YWxfYmluZGluZycsICctaW1hZScsICc8aW5maWxlLm1hZT4nLCAnLW9tYWUnLCAnPG91dGZpbGUubWFlPic=

> <r_lp_tautomer_probability>
1

> <r_epik_Ionization_Penalty>
5.46209e-09

> <r_epik_Ionization_Penalty_Charging>
4.22697e-09

> <r_epik_Ionization_Penalty_Neutral>
1.23512e-09

> <r_epik_State_Penalty>
-0

> <r_epik_Charging_Adjusted_Penalty>
4.22697e-09

> <i_epik_Tot_Q>
0

> <i_epik_Tot_abs_Q>
0

> <r_epik_Metal_State_Penalty>
-0

> <b_epik_Metal_Only>
0

> <s_epik_Chemistry_Notes>
This compound contains an acetal/aminal-like group ( X-CH(R)-Y where X, Y are N, S, or O) that may be acid/base labile, releasing an aldehyde.

> <s_lp_Force_Field>
OPLS_2005

> <r_lp_Energy>
39.1501

> <b_lp_Chiralities_Consistent>
1

> <s_lp_Variant>
AV-unprocessed.smi:108-1

> <Gold.Version>
5.8.1

> <Gold.Id.Protein>
6NUR|6NUR_protein|mol2

> <Gold.PLP.Fitness>
50.6494

> <Gold.PLP.PLP>
-49.0911

> <Gold.PLP.part.hbond>
-1.0000

> <Gold.PLP.part.metal>
0.0000

> <Gold.PLP.part.buried>
-3.1922

> <Gold.PLP.part.nonpolar>
-46.5719

> <Gold.PLP.part.repulsive>
1.7719

> <Gold.PLP.ligand.clash>
0.0000

> <Gold.PLP.ligand.torsion>
0.8353

> <Gold.PLP.Chemscore.Hbond>
1.0000

> <Gold.PLP.Chemscore.CHOScore>
0.0000

> <Gold.PLP.Chemscore.Metal>
0.0000

> <Gold.Chemscore.Hbonds>
donor molecule, donor type, donor heavy atom, donor atom, acceptor molecule, acceptor atom, score
      P1  H  6896  6908       L1     1  1.00

> <Gold.PLP.Chemscore.Internal.Correction>
0.2288

> <Gold.Rescore>
     Score         DG    S(hbond)    S(metal)    S(lipo)     H(rot)  DE(clash)    DE(int)     intcor
     12.39     -15.56       0.98        0.00     107.88       2.28       0.97       2.20       ----

> <Gold.Chemscore.Fitness>
12.3868

> <Gold.Chemscore.DG>
-15.5599

> <Gold.Chemscore.ZeroCoef>
-5.4800

> <Gold.Chemscore.Hbond>
0.9830

> <Gold.Chemscore.Metal>
0.0000

> <Gold.Chemscore.Lipo>
107.8801

> <Gold.Chemscore.Internal_Hbond>
0.0000

> <Gold.Chemscore.DEClash>
0.9739

> <Gold.Chemscore.DEInternal>
2.1992

> <Gold.Chemscore.Rot>
2.2756

> <Gold.Chemscore.Internal.Correction>
   9.000000E+99

> <Gold.Chemscore.Hbonds>
donor molecule, donor type, donor heavy atom, donor atom, acceptor molecule, acceptor atom, score
      P1  H  6896  6908       L1     1  0.99

> <Gold.Chemscore.Hbond.Weighted>
-3.2834

> <Gold.Chemscore.Metal.Weighted>
-0.0000

> <Gold.Chemscore.Lipo.Weighted>
-12.6220

> <Gold.Chemscore.Internal_Hbond.Weighted>
0.0000

> <Gold.Chemscore.DEClash.Weighted>
0.9739

> <Gold.Chemscore.DEInternal.Weighted>
2.1992

> <Gold.Chemscore.Rot.Weighted>
5.8255

> <Gold.Chemscore.Internal.Correction.Weighted>
   9.000000E+99

> <Gold.Protein.RotatedTorsions>
[ 6907 6896 6895 6894 ] final   77.37 input  -60.11 | X-H torsion
[ 7974 7965 7964 7962 ] final -115.92 input  175.53 | X-H torsion
[ 8008 7997 7996 7995 ] final -146.16 input   59.86 | X-H torsion
[ 10167 10162 10161 10158 ] final  109.80 input  -65.29 | X-H torsion
[ 10718 10713 10712 10709 ] final   94.58 input   66.30 | X-H torsion
[ 10763 10752 10751 10750 ] final -139.33 input  -60.55 | X-H torsion
[ 11005 11000 10999 10996 ] final -112.54 input  -57.11 | X-H torsion

> <Gold.Protein.ActiveResidues>
 VAL166  LYS551  ARG553  GLY616  TRP617  ASP618  TYR619  PRO620  LYS621  CYS622 
 ASP623  PHE694  ASN695  SER759  ASP760  ASP761  ALA762  ILE779  LEU786  VAL792 
 PHE793  MET794  SER795  GLU796  ALA797  LYS798  CYS799  TRP800  GLU811  SER814 

> <Gold.Protein.RotatedAtoms>
  152.5114  134.3827  159.9356 H   0  0  0  0  0  0  0  0  0  0  0  0  # atno 6907 bound_to 6896
  151.3785  133.3823  159.2715 H   0  0  0  0  0  0  0  0  0  0  0  0  # atno 6908 bound_to 6896
  150.9523  134.8941  159.7738 H   0  0  0  0  0  0  0  0  0  0  0  0  # atno 6909 bound_to 6896
  145.1027  140.8562  143.3916 H   0  0  0  0  0  0  0  0  0  0  0  0  # atno 7974 bound_to 7965
  155.5549  140.0620  157.2842 H   0  0  0  0  0  0  0  0  0  0  0  0  # atno 8008 bound_to 7997
  154.4408  140.1896  156.0769 H   0  0  0  0  0  0  0  0  0  0  0  0  # atno 8009 bound_to 7997
  156.0489  140.3286  155.7332 H   0  0  0  0  0  0  0  0  0  0  0  0  # atno 8010 bound_to 7997
  139.6738  144.7123  151.1640 H   0  0  0  0  0  0  0  0  0  0  0  0  # atno 10167 bound_to 10162
  157.6946  131.0517  150.4208 H   0  0  0  0  0  0  0  0  0  0  0  0  # atno 10718 bound_to 10713
  154.8612  135.3585  154.5529 H   0  0  0  0  0  0  0  0  0  0  0  0  # atno 10763 bound_to 10752
  153.6146  135.7008  153.5338 H   0  0  0  0  0  0  0  0  0  0  0  0  # atno 10764 bound_to 10752
  153.3180  135.4159  155.1353 H   0  0  0  0  0  0  0  0  0  0  0  0  # atno 10765 bound_to 10752
  141.0669  133.9444  157.2561 H   0  0  0  0  0  0  0  0  0  0  0  0  # atno 11005 bound_to 11000
  145.0936  139.2872  143.5722 LP  0  0  0  0  0  0  0  0  0  0  0  0  # atno 17320 bound_to 7965
  146.3529  140.0481  142.8638 LP  0  0  0  0  0  0  0  0  0  0  0  0  # atno 17321 bound_to 7965
  140.7628  143.5803  150.8901 LP  0  0  0  0  0  0  0  0  0  0  0  0  # atno 17342 bound_to 10162
  139.9471  143.6315  152.3039 LP  0  0  0  0  0  0  0  0  0  0  0  0  # atno 17343 bound_to 10162
  156.4583  130.4026  149.6592 LP  0  0  0  0  0  0  0  0  0  0  0  0  # atno 17370 bound_to 10713
  156.3716  130.7533  151.2517 LP  0  0  0  0  0  0  0  0  0  0  0  0  # atno 17371 bound_to 10713
  139.9485  135.0180  156.8924 LP  0  0  0  0  0  0  0  0  0  0  0  0  # atno 17394 bound_to 11000
  140.5754  134.0403  155.7445 LP  0  0  0  0  0  0  0  0  0  0  0  0  # atno 17395 bound_to 11000

$$$$
