AV-unprocessed.smi:1112|AV-procd|sdf|4796|dock8
  -GOLD-   22720 3343D 1   1.00000     0.00000
 Structure written by MMmdl.
 49 51  0  0  0  0  0  0  0  0  1 V2000
  149.6620  133.9264  155.6921 O   0  0  0  0  0  0  0  0  0  0  0  0
  149.4309  134.5325  154.6462 C   0  0  0  0  0  0  0  0  0  0  0  0
  149.8286  135.7913  154.4119 N   0  0  0  0  0  0  0  0  0  0  0  0
  150.6186  136.6248  155.3175 C   0  0  0  0  0  0  0  0  0  0  0  0
  151.4111  137.7361  154.5775 C   0  0  0  0  0  0  0  0  0  0  0  0
  152.1571  137.0873  153.5647 O   0  0  0  0  0  0  0  0  0  0  0  0
  150.4624  138.7185  153.8487 C   0  0  0  0  0  0  0  0  0  0  0  0
  149.7438  139.6811  154.8137 C   0  0  0  0  0  0  0  0  0  0  0  0
  150.7417  140.4342  155.7072 C   0  0  0  0  0  0  0  0  0  0  0  0
  151.6699  139.4625  156.4512 C   0  0  0  0  0  0  0  0  0  0  0  0
  152.3989  138.5324  155.4667 C   0  0  0  0  0  0  0  0  0  0  0  0
  148.7456  134.0404  153.6006 N   0  0  0  0  0  0  0  0  0  0  0  0
  148.1708  132.7460  153.4414 C   0  0  0  0  0  0  0  0  0  0  0  0
  148.7123  131.5816  154.0399 C   0  0  0  0  0  0  0  0  0  0  0  0
  148.0922  130.3396  153.8107 C   0  0  0  0  0  0  0  0  0  0  0  0
  146.9565  130.3019  152.9826 C   0  0  0  0  0  0  0  0  0  0  0  0
  146.4369  131.3974  152.3929 N   0  0  0  0  0  0  0  0  0  0  0  0
  147.0295  132.5972  152.6113 C   0  0  0  0  0  0  0  0  0  0  0  0
  146.4702  133.7237  151.9817 N   0  0  0  0  0  0  0  0  0  0  0  0
  145.8971  134.7200  152.8713 C   0  0  0  0  0  0  0  0  0  0  0  0
  145.0431  135.6208  151.9760 C   0  0  0  0  0  0  0  0  0  0  0  0
  144.7360  134.7688  150.7383 C   0  0  0  0  0  0  0  0  0  0  0  0
  145.4485  133.4369  150.9886 C   0  0  0  0  0  0  0  0  0  0  0  0
  149.5854  136.2054  153.5240 H   0  0  0  0  0  0  0  0  0  0  0  0
  149.9416  137.0688  156.0485 H   0  0  0  0  0  0  0  0  0  0  0  0
  151.2979  136.0004  155.8973 H   0  0  0  0  0  0  0  0  0  0  0  0
  151.6728  137.1405  152.7548 H   0  0  0  0  0  0  0  0  0  0  0  0
  151.0338  139.3158  153.1361 H   0  0  0  0  0  0  0  0  0  0  0  0
  149.7268  138.1700  153.2587 H   0  0  0  0  0  0  0  0  0  0  0  0
  149.1496  140.3961  154.2445 H   0  0  0  0  0  0  0  0  0  0  0  0
  149.0375  139.1328  155.4366 H   0  0  0  0  0  0  0  0  0  0  0  0
  151.3393  141.1119  155.0963 H   0  0  0  0  0  0  0  0  0  0  0  0
  150.2039  141.0570  156.4226 H   0  0  0  0  0  0  0  0  0  0  0  0
  152.3980  140.0229  157.0382 H   0  0  0  0  0  0  0  0  0  0  0  0
  151.0908  138.8742  157.1629 H   0  0  0  0  0  0  0  0  0  0  0  0
  153.0733  137.8682  156.0074 H   0  0  0  0  0  0  0  0  0  0  0  0
  153.0421  139.1443  154.8320 H   0  0  0  0  0  0  0  0  0  0  0  0
  148.5551  134.6888  152.8504 H   0  0  0  0  0  0  0  0  0  0  0  0
  149.5974  131.6124  154.6560 H   0  0  0  0  0  0  0  0  0  0  0  0
  148.4820  129.4357  154.2547 H   0  0  0  0  0  0  0  0  0  0  0  0
  146.4561  129.3661  152.7817 H   0  0  0  0  0  0  0  0  0  0  0  0
  145.2719  134.2458  153.6291 H   0  0  0  0  0  0  0  0  0  0  0  0
  146.6771  135.2848  153.3828 H   0  0  0  0  0  0  0  0  0  0  0  0
  144.1390  135.9536  152.4867 H   0  0  0  0  0  0  0  0  0  0  0  0
  145.6066  136.5080  151.6849 H   0  0  0  0  0  0  0  0  0  0  0  0
  143.6654  134.6269  150.5887 H   0  0  0  0  0  0  0  0  0  0  0  0
  145.1352  135.2520  149.8458 H   0  0  0  0  0  0  0  0  0  0  0  0
  145.8908  133.0401  150.0742 H   0  0  0  0  0  0  0  0  0  0  0  0
  144.7410  132.6984  151.3686 H   0  0  0  0  0  0  0  0  0  0  0  0
  1  2  2  0  0  0  0
  2  3  1  0  0  0  0
  2 12  1  0  0  0  0
  3  4  1  0  0  0  0
  3 24  1  0  0  0  0
  4  5  1  0  0  0  0
  4 25  1  0  0  0  0
  4 26  1  0  0  0  0
  5 11  1  0  0  0  0
  5  6  1  0  0  0  0
  5  7  1  0  0  0  0
  6 27  1  0  0  0  0
  7  8  1  0  0  0  0
  7 28  1  0  0  0  0
  7 29  1  0  0  0  0
  8  9  1  0  0  0  0
  8 30  1  0  0  0  0
  8 31  1  0  0  0  0
  9 10  1  0  0  0  0
  9 32  1  0  0  0  0
  9 33  1  0  0  0  0
 10 11  1  0  0  0  0
 10 34  1  0  0  0  0
 10 35  1  0  0  0  0
 11 36  1  0  0  0  0
 11 37  1  0  0  0  0
 12 13  1  0  0  0  0
 12 38  1  0  0  0  0
 13 18  1  0  0  0  0
 13 14  2  0  0  0  0
 14 15  1  0  0  0  0
 14 39  1  0  0  0  0
 15 16  2  0  0  0  0
 15 40  1  0  0  0  0
 16 17  1  0  0  0  0
 16 41  1  0  0  0  0
 17 18  2  0  0  0  0
 18 19  1  0  0  0  0
 19 23  1  0  0  0  0
 19 20  1  0  0  0  0
 20 21  1  0  0  0  0
 20 42  1  0  0  0  0
 20 43  1  0  0  0  0
 21 22  1  0  0  0  0
 21 44  1  0  0  0  0
 21 45  1  0  0  0  0
 22 23  1  0  0  0  0
 22 46  1  0  0  0  0
 22 47  1  0  0  0  0
 23 48  1  0  0  0  0
 23 49  1  0  0  0  0
M  END
> <s_m_source_file>
AV-unprocessed.smi

> <i_m_source_file_index>
1112

> <i_lp_mmshare_version>
43012

> <i_f3d_flags>
0

> <s_epik_input>
W0NIMl0xW0NIMl1bQ0gyXVtDSDJdW0NIMl1DMShbT0hdKVtDSDJdW05IXUMoPU8pW05IXWMyW2NIXVtjSF1bY0hdbmMyTjNbQ0gyXVtDSDJdW0NIMl1bQ0gyXTM=

> <s_epik_cmdline>
J2VwaWtfcHl0aG9uJywgJy1waCcsICc3LjAnLCAnLXRuJywgJzgnLCAnLW1hJywgJzIwMCcsICctbWV0YWxfYmluZGluZycsICctaW1hZScsICc8aW5maWxlLm1hZT4nLCAnLW9tYWUnLCAnPG91dGZpbGUubWFlPic=

> <r_lp_tautomer_probability>
1

> <r_epik_Ionization_Penalty>
0.100401

> <r_epik_Ionization_Penalty_Charging>
0

> <r_epik_Ionization_Penalty_Neutral>
0.100401

> <r_epik_State_Penalty>
0.0898606

> <r_epik_Charging_Adjusted_Penalty>
0.0898606

> <i_epik_Tot_Q>
0

> <i_epik_Tot_abs_Q>
0

> <r_epik_Metal_State_Penalty>
0.0767935

> <b_epik_Metal_Only>
0

> <s_lp_Force_Field>
OPLS_2005

> <r_lp_Energy>
45.6108

> <b_lp_Chiralities_Consistent>
1

> <s_lp_Variant>
AV-unprocessed.smi:1112-1

> <Gold.Version>
5.8.1

> <Gold.Id.Protein>
6NUR|6NUR_protein|mol2

> <Gold.PLP.Fitness>
50.8009

> <Gold.PLP.PLP>
-40.8336

> <Gold.PLP.part.hbond>
-4.4411

> <Gold.PLP.part.metal>
0.0000

> <Gold.PLP.part.buried>
-2.5355

> <Gold.PLP.part.nonpolar>
-33.9930

> <Gold.PLP.part.repulsive>
0.3817

> <Gold.PLP.ligand.clash>
0.0000

> <Gold.PLP.ligand.torsion>
0.4981

> <Gold.PLP.Chemscore.Hbond>
3.6440

> <Gold.PLP.Chemscore.CHOScore>
0.0000

> <Gold.PLP.Chemscore.Metal>
0.0000

> <Gold.Chemscore.Hbonds>
donor molecule, donor type, donor heavy atom, donor atom, acceptor molecule, acceptor atom, score
      L1  H     3    24       P1  7948  1.00
      L1  H     6    27       P1  7949  0.72
      L1  H    12    38       P1  7948  1.00
      P1  H 10752 10764       L1     6  0.98

> <Gold.PLP.Chemscore.Internal.Correction>
0.0316

> <Gold.Rescore>
     Score         DG    S(hbond)    S(metal)    S(lipo)     H(rot)  DE(clash)    DE(int)     intcor
     15.95     -18.25       2.19        0.00      88.07       1.89       0.03       2.28       ----

> <Gold.Chemscore.Fitness>
15.9493

> <Gold.Chemscore.DG>
-18.2530

> <Gold.Chemscore.ZeroCoef>
-5.4800

> <Gold.Chemscore.Hbond>
2.1853

> <Gold.Chemscore.Metal>
0.0000

> <Gold.Chemscore.Lipo>
88.0677

> <Gold.Chemscore.Internal_Hbond>
0.0000

> <Gold.Chemscore.DEClash>
0.0258

> <Gold.Chemscore.DEInternal>
2.2780

> <Gold.Chemscore.Rot>
1.8866

> <Gold.Chemscore.Internal.Correction>
   9.000000E+99

> <Gold.Chemscore.Hbonds>
donor molecule, donor type, donor heavy atom, donor atom, acceptor molecule, acceptor atom, score
      L1  H     3    24       P1  7948  0.44
      L1  H     6    27       P1  7949  0.71
      L1  H    12    38       P1  7948  0.25
      P1  H 10752 10764       L1     6  0.88

> <Gold.Chemscore.Hbond.Weighted>
-7.2988

> <Gold.Chemscore.Metal.Weighted>
-0.0000

> <Gold.Chemscore.Lipo.Weighted>
-10.3039

> <Gold.Chemscore.Internal_Hbond.Weighted>
0.0000

> <Gold.Chemscore.DEClash.Weighted>
0.0258

> <Gold.Chemscore.DEInternal.Weighted>
2.2780

> <Gold.Chemscore.Rot.Weighted>
4.8297

> <Gold.Chemscore.Internal.Correction.Weighted>
   9.000000E+99

> <Gold.Protein.RotatedTorsions>
[ 6907 6896 6895 6894 ] final  -93.91 input  -60.11 | X-H torsion
[ 7974 7965 7964 7962 ] final  128.90 input  175.53 | X-H torsion
[ 8008 7997 7996 7995 ] final  -33.39 input   59.86 | X-H torsion
[ 10167 10162 10161 10158 ] final   56.98 input  -65.29 | X-H torsion
[ 10718 10713 10712 10709 ] final  -57.39 input   66.30 | X-H torsion
[ 10763 10752 10751 10750 ] final -113.99 input  -60.55 | X-H torsion
[ 11005 11000 10999 10996 ] final  -73.46 input  -57.11 | X-H torsion

> <Gold.Protein.ActiveResidues>
 VAL166  LYS551  ARG553  GLY616  TRP617  ASP618  TYR619  PRO620  LYS621  CYS622 
 ASP623  PHE694  ASN695  SER759  ASP760  ASP761  ALA762  ILE779  LEU786  VAL792 
 PHE793  MET794  SER795  GLU796  ALA797  LYS798  CYS799  TRP800  GLU811  SER814 

> <Gold.Protein.RotatedAtoms>
  150.6931  134.1894  159.4279 H   0  0  0  0  0  0  0  0  0  0  0  0  # atno 6907 bound_to 6896
  151.9865  134.9999  160.0569 H   0  0  0  0  0  0  0  0  0  0  0  0  # atno 6908 bound_to 6896
  152.1707  133.4606  159.4944 H   0  0  0  0  0  0  0  0  0  0  0  0  # atno 6909 bound_to 6896
  145.0345  139.4017  143.5133 H   0  0  0  0  0  0  0  0  0  0  0  0  # atno 7974 bound_to 7965
  154.4150  140.1712  156.1881 H   0  0  0  0  0  0  0  0  0  0  0  0  # atno 8008 bound_to 7997
  155.9626  140.3392  155.6480 H   0  0  0  0  0  0  0  0  0  0  0  0  # atno 8009 bound_to 7997
  155.6728  140.0713  157.2504 H   0  0  0  0  0  0  0  0  0  0  0  0  # atno 8010 bound_to 7997
  140.2029  144.3969  150.6521 H   0  0  0  0  0  0  0  0  0  0  0  0  # atno 10167 bound_to 10162
  156.1214  130.4166  150.0434 H   0  0  0  0  0  0  0  0  0  0  0  0  # atno 10718 bound_to 10713
  154.8421  135.4434  154.1436 H   0  0  0  0  0  0  0  0  0  0  0  0  # atno 10763 bound_to 10752
  153.2615  135.6936  153.7580 H   0  0  0  0  0  0  0  0  0  0  0  0  # atno 10764 bound_to 10752
  153.6854  135.3396  155.3164 H   0  0  0  0  0  0  0  0  0  0  0  0  # atno 10765 bound_to 10752
  141.1623  133.6879  156.7215 H   0  0  0  0  0  0  0  0  0  0  0  0  # atno 11005 bound_to 11000
  146.3502  139.9912  142.8685 LP  0  0  0  0  0  0  0  0  0  0  0  0  # atno 17320 bound_to 7965
  145.1728  140.9729  143.4312 LP  0  0  0  0  0  0  0  0  0  0  0  0  # atno 17321 bound_to 7965
  140.6377  143.2198  151.6358 LP  0  0  0  0  0  0  0  0  0  0  0  0  # atno 17342 bound_to 10162
  139.5210  144.3206  152.0913 LP  0  0  0  0  0  0  0  0  0  0  0  0  # atno 17343 bound_to 10162
  156.8371  130.9413  151.3634 LP  0  0  0  0  0  0  0  0  0  0  0  0  # atno 17370 bound_to 10713
  157.6398  130.8796  149.9426 LP  0  0  0  0  0  0  0  0  0  0  0  0  # atno 17371 bound_to 10713
  140.2812  134.8315  157.3935 LP  0  0  0  0  0  0  0  0  0  0  0  0  # atno 17394 bound_to 11000
  140.1431  134.4946  155.8016 LP  0  0  0  0  0  0  0  0  0  0  0  0  # atno 17395 bound_to 11000

$$$$
