AV-unprocessed.smi:2331|AV-procd|sdf|9314|dock1
  -GOLD-   2272012533D 1   1.00000     0.00000
 Structure written by MMmdl.
 49 50  0  0  0  0  0  0  0  0  1 V2000
  145.1435  135.0023  154.1509 C   0  0  0  0  0  0  0  0  0  0  0  0
  144.7034  135.3103  152.6989 C   0  0  0  0  0  0  0  0  0  0  0  0
  143.2328  135.7736  152.7669 C   0  0  0  0  0  0  0  0  0  0  0  0
  145.5697  136.4755  152.1462 C   0  0  0  0  0  0  0  0  0  0  0  0
  145.7903  137.5305  153.1329 N   0  0  0  0  0  0  0  0  0  0  0  0
  146.5592  138.6198  152.9702 C   0  0  0  0  0  0  0  0  0  0  0  0
  147.2758  138.7877  151.9838 O   0  0  0  0  0  0  0  0  0  0  0  0
  146.5245  139.4623  154.0287 N   0  0  0  0  0  0  0  0  0  0  0  0
  145.3375  139.6043  154.8814 C   0  0  0  0  0  0  0  0  0  0  0  0
  145.2801  141.0772  155.2609 C   0  0  0  0  0  0  0  0  0  0  0  0
  146.7409  141.4842  155.2818 C   0  0  0  0  0  0  0  0  0  0  0  0
  147.4127  140.6329  154.1862 C   0  0  1  0  0  0  0  0  0  0  0  0
  148.9026  140.2809  154.5154 C   0  0  0  0  0  0  0  0  0  0  0  0
  149.4154  141.0501  155.7507 C   0  0  0  0  0  0  0  0  0  0  0  0
  149.1679  138.7694  154.6688 C   0  0  0  0  0  0  0  0  0  0  0  0
  149.7234  140.7583  153.4679 O   0  0  0  0  0  0  0  0  0  0  0  0
  144.8146  134.0802  151.7761 C   0  0  0  0  0  0  0  0  0  0  0  0
  143.6827  133.3961  151.2678 C   0  0  0  0  0  0  0  0  0  0  0  0
  143.8763  132.2624  150.4542 C   0  0  0  0  0  0  0  0  0  0  0  0
  145.0926  131.7824  150.1240 N   0  0  0  0  0  0  0  0  0  0  0  0
  146.1723  132.4314  150.6048 C   0  0  0  0  0  0  0  0  0  0  0  0
  146.0879  133.5719  151.4271 C   0  0  0  0  0  0  0  0  0  0  0  0
  145.0607  135.8868  154.7835 H   0  0  0  0  0  0  0  0  0  0  0  0
  146.1800  134.6700  154.2081 H   0  0  0  0  0  0  0  0  0  0  0  0
  144.5228  134.2274  154.6020 H   0  0  0  0  0  0  0  0  0  0  0  0
  143.1187  136.6328  153.4288 H   0  0  0  0  0  0  0  0  0  0  0  0
  142.5862  134.9810  153.1453 H   0  0  0  0  0  0  0  0  0  0  0  0
  142.8489  136.0705  151.7910 H   0  0  0  0  0  0  0  0  0  0  0  0
  146.5564  136.1044  151.8676 H   0  0  0  0  0  0  0  0  0  0  0  0
  145.1407  136.8773  151.2265 H   0  0  0  0  0  0  0  0  0  0  0  0
  145.2684  137.4554  153.9941 H   0  0  0  0  0  0  0  0  0  0  0  0
  144.4097  139.3041  154.3906 H   0  0  0  0  0  0  0  0  0  0  0  0
  145.4670  138.9821  155.7678 H   0  0  0  0  0  0  0  0  0  0  0  0
  144.7516  141.6377  154.4887 H   0  0  0  0  0  0  0  0  0  0  0  0
  144.7749  141.2521  156.2111 H   0  0  0  0  0  0  0  0  0  0  0  0
  146.8772  142.5545  155.1254 H   0  0  0  0  0  0  0  0  0  0  0  0
  147.1461  141.2405  156.2641 H   0  0  0  0  0  0  0  0  0  0  0  0
  147.3723  141.2117  153.2610 H   0  0  0  0  0  0  0  0  0  0  0  0
  148.9297  140.7203  156.6688 H   0  0  0  0  0  0  0  0  0  0  0  0
  149.2400  142.1221  155.6514 H   0  0  0  0  0  0  0  0  0  0  0  0
  150.4873  140.9056  155.8937 H   0  0  0  0  0  0  0  0  0  0  0  0
  148.5540  138.3360  155.4581 H   0  0  0  0  0  0  0  0  0  0  0  0
  150.2102  138.5750  154.9233 H   0  0  0  0  0  0  0  0  0  0  0  0
  148.9565  138.2231  153.7495 H   0  0  0  0  0  0  0  0  0  0  0  0
  149.8984  140.0455  152.8728 H   0  0  0  0  0  0  0  0  0  0  0  0
  142.6731  133.7070  151.4866 H   0  0  0  0  0  0  0  0  0  0  0  0
  143.0274  131.7239  150.0596 H   0  0  0  0  0  0  0  0  0  0  0  0
  147.1354  132.0276  150.3293 H   0  0  0  0  0  0  0  0  0  0  0  0
  146.9933  134.0382  151.7861 H   0  0  0  0  0  0  0  0  0  0  0  0
  1  2  1  0  0  0  0
  1 23  1  0  0  0  0
  1 24  1  0  0  0  0
  1 25  1  0  0  0  0
  2  3  1  0  0  0  0
  2  4  1  0  0  0  0
  2 17  1  0  0  0  0
  3 26  1  0  0  0  0
  3 27  1  0  0  0  0
  3 28  1  0  0  0  0
  4  5  1  0  0  0  0
  4 29  1  0  0  0  0
  4 30  1  0  0  0  0
  5  6  1  0  0  0  0
  5 31  1  0  0  0  0
  6  7  2  0  0  0  0
  6  8  1  0  0  0  0
  8 12  1  0  0  0  0
  8  9  1  0  0  0  0
  9 10  1  0  0  0  0
  9 32  1  0  0  0  0
  9 33  1  0  0  0  0
 10 11  1  0  0  0  0
 10 34  1  0  0  0  0
 10 35  1  0  0  0  0
 11 12  1  0  0  0  0
 11 36  1  0  0  0  0
 11 37  1  0  0  0  0
 12 13  1  0  0  0  0
 12 38  1  0  0  0  0
 13 14  1  0  0  0  0
 13 15  1  0  0  0  0
 13 16  1  0  0  0  0
 14 39  1  0  0  0  0
 14 40  1  0  0  0  0
 14 41  1  0  0  0  0
 15 42  1  0  0  0  0
 15 43  1  0  0  0  0
 15 44  1  0  0  0  0
 16 45  1  0  0  0  0
 17 22  1  0  0  0  0
 17 18  2  0  0  0  0
 18 19  1  0  0  0  0
 18 46  1  0  0  0  0
 19 20  2  0  0  0  0
 19 47  1  0  0  0  0
 20 21  1  0  0  0  0
 21 22  2  0  0  0  0
 21 48  1  0  0  0  0
 22 49  1  0  0  0  0
M  END
> <s_m_source_file>
AV-unprocessed.smi

> <i_m_source_file_index>
2331

> <i_lp_mmshare_version>
43012

> <i_f3d_flags>
0

> <s_epik_input>
W2NIXTFbY0hdbltjSF1bY0hdYzFDKFtDSDNdKShbQ0gzXSlbQ0gyXVtOSF1DKD1PKU4yW0NIMl1bQ0gyXVtDSDJdW0NASF0yQyhbQ0gzXSkoW0NIM10pW09IXQ==

> <s_epik_cmdline>
J2VwaWtfcHl0aG9uJywgJy1waCcsICc3LjAnLCAnLXRuJywgJzgnLCAnLW1hJywgJzIwMCcsICctbWV0YWxfYmluZGluZycsICctaW1hZScsICc8aW5maWxlLm1hZT4nLCAnLW9tYWUnLCAnPG91dGZpbGUubWFlPic=

> <r_epik_Ionization_Penalty>
0.0581496

> <r_epik_Ionization_Penalty_Charging>
0

> <r_epik_Ionization_Penalty_Neutral>
0.0581496

> <r_epik_State_Penalty>
0.0501956

> <r_epik_Charging_Adjusted_Penalty>
0.0501956

> <i_epik_Tot_Q>
0

> <i_epik_Tot_abs_Q>
0

> <r_epik_Metal_State_Penalty>
0.0456895

> <b_epik_Metal_Only>
0

> <s_lp_Force_Field>
OPLS_2005

> <r_lp_Energy>
47.1334

> <b_lp_Chiralities_Consistent>
1

> <s_lp_Variant>
AV-unprocessed.smi:2331-1

> <Gold.Version>
5.8.1

> <Gold.Id.Protein>
6NUR|6NUR_protein|mol2

> <Gold.PLP.Fitness>
39.2924

> <Gold.PLP.PLP>
-33.0211

> <Gold.PLP.part.hbond>
-2.2396

> <Gold.PLP.part.metal>
0.0000

> <Gold.PLP.part.buried>
-8.9284

> <Gold.PLP.part.nonpolar>
-25.5151

> <Gold.PLP.part.repulsive>
1.6228

> <Gold.PLP.ligand.clash>
0.0071

> <Gold.PLP.ligand.torsion>
2.8160

> <Gold.PLP.Chemscore.Hbond>
1.8046

> <Gold.PLP.Chemscore.CHOScore>
1.9957

> <Gold.PLP.Chemscore.Metal>
0.0000

> <Gold.Chemscore.Hbonds>
donor molecule, donor type, donor heavy atom, donor atom, acceptor molecule, acceptor atom, score
      L1  H    16    45       P1  7957  0.53
      P1  H  7989  7998       L1    16  0.04
      P1  H  8011  8017       L1    16  1.00
      L1  C    19    47       P1 10952  0.71
      L1  C    21    48       P1 10747  1.00

> <Gold.PLP.Chemscore.Internal.Correction>
0.5097

> <Gold.Rescore>
     Score         DG    S(hbond)    S(metal)    S(lipo)     H(rot)  DE(clash)    DE(int)     intcor
     11.50     -14.12       1.23        0.00      81.04       1.94       0.10       2.52       ----

> <Gold.Chemscore.Fitness>
11.5011

> <Gold.Chemscore.DG>
-14.1209

> <Gold.Chemscore.ZeroCoef>
-5.4800

> <Gold.Chemscore.Hbond>
1.2315

> <Gold.Chemscore.Metal>
0.0000

> <Gold.Chemscore.Lipo>
81.0378

> <Gold.Chemscore.Internal_Hbond>
0.0000

> <Gold.Chemscore.DEClash>
0.0961

> <Gold.Chemscore.DEInternal>
2.5237

> <Gold.Chemscore.Rot>
1.9350

> <Gold.Chemscore.Internal.Correction>
   9.000000E+99

> <Gold.Chemscore.Hbonds>
donor molecule, donor type, donor heavy atom, donor atom, acceptor molecule, acceptor atom, score
      L1  H    16    45       P1  7957  0.54
      P1  H  7954  7966       L1     7  0.05
      P1  H  8011  8017       L1    16  0.47

> <Gold.Chemscore.Hbond.Weighted>
-4.1131

> <Gold.Chemscore.Metal.Weighted>
-0.0000

> <Gold.Chemscore.Lipo.Weighted>
-9.4814

> <Gold.Chemscore.Internal_Hbond.Weighted>
0.0000

> <Gold.Chemscore.DEClash.Weighted>
0.0961

> <Gold.Chemscore.DEInternal.Weighted>
2.5237

> <Gold.Chemscore.Rot.Weighted>
4.9536

> <Gold.Chemscore.Internal.Correction.Weighted>
   9.000000E+99

> <Gold.Protein.RotatedTorsions>
[ 6907 6896 6895 6894 ] final  -22.58 input  -60.11 | X-H torsion
[ 7974 7965 7964 7962 ] final  132.69 input  175.53 | X-H torsion
[ 8008 7997 7996 7995 ] final  156.87 input   59.86 | X-H torsion
[ 10167 10162 10161 10158 ] final   31.42 input  -65.29 | X-H torsion
[ 10718 10713 10712 10709 ] final  -78.71 input   66.30 | X-H torsion
[ 10763 10752 10751 10750 ] final  154.53 input  -60.55 | X-H torsion
[ 11005 11000 10999 10996 ] final -151.02 input  -57.11 | X-H torsion

> <Gold.Protein.ActiveResidues>
 VAL166  LYS551  ARG553  GLY616  TRP617  ASP618  TYR619  PRO620  LYS621  CYS622 
 ASP623  PHE694  ASN695  SER759  ASP760  ASP761  ALA762  ILE779  LEU786  VAL792 
 PHE793  MET794  SER795  GLU796  ALA797  LYS798  CYS799  TRP800  GLU811  SER814 

> <Gold.Protein.RotatedAtoms>
  151.2165  135.0502  159.8932 H   0  0  0  0  0  0  0  0  0  0  0  0  # atno 6907 bound_to 6896
  152.5419  134.0687  159.8194 H   0  0  0  0  0  0  0  0  0  0  0  0  # atno 6908 bound_to 6896
  151.0847  133.5314  159.2650 H   0  0  0  0  0  0  0  0  0  0  0  0  # atno 6909 bound_to 6896
  144.9942  139.4376  143.5324 H   0  0  0  0  0  0  0  0  0  0  0  0  # atno 7974 bound_to 7965
  156.2397  140.1901  156.7021 H   0  0  0  0  0  0  0  0  0  0  0  0  # atno 8008 bound_to 7997
  154.6174  140.0613  156.9599 H   0  0  0  0  0  0  0  0  0  0  0  0  # atno 8009 bound_to 7997
  155.1917  140.3285  155.4360 H   0  0  0  0  0  0  0  0  0  0  0  0  # atno 8010 bound_to 7997
  140.4591  144.0934  150.6208 H   0  0  0  0  0  0  0  0  0  0  0  0  # atno 10167 bound_to 10162
  156.0110  130.4525  150.3538 H   0  0  0  0  0  0  0  0  0  0  0  0  # atno 10718 bound_to 10713
  154.1539  135.2813  155.3128 H   0  0  0  0  0  0  0  0  0  0  0  0  # atno 10763 bound_to 10752
  154.6197  135.5471  153.7565 H   0  0  0  0  0  0  0  0  0  0  0  0  # atno 10764 bound_to 10752
  153.0212  135.6436  154.1682 H   0  0  0  0  0  0  0  0  0  0  0  0  # atno 10765 bound_to 10752
  140.7340  134.3589  157.5161 H   0  0  0  0  0  0  0  0  0  0  0  0  # atno 11005 bound_to 11000
  146.3438  139.9292  142.8756 LP  0  0  0  0  0  0  0  0  0  0  0  0  # atno 17320 bound_to 7965
  145.2243  140.9948  143.4027 LP  0  0  0  0  0  0  0  0  0  0  0  0  # atno 17321 bound_to 7965
  140.4116  143.2654  151.9826 LP  0  0  0  0  0  0  0  0  0  0  0  0  # atno 17342 bound_to 10162
  139.4804  144.5911  151.7771 LP  0  0  0  0  0  0  0  0  0  0  0  0  # atno 17343 bound_to 10162
  157.1629  131.0349  151.2832 LP  0  0  0  0  0  0  0  0  0  0  0  0  # atno 17370 bound_to 10713
  157.4295  130.7482  149.6978 LP  0  0  0  0  0  0  0  0  0  0  0  0  # atno 17371 bound_to 10713
  139.8820  134.9037  156.2861 LP  0  0  0  0  0  0  0  0  0  0  0  0  # atno 17394 bound_to 11000
  140.9896  133.7217  156.0793 LP  0  0  0  0  0  0  0  0  0  0  0  0  # atno 17395 bound_to 11000

$$$$
