AV-unprocessed.smi:583|AV-procd|sdf|2998|dock10
  -GOLD-   2262023503D 1   1.00000     0.00000
 Structure written by MMmdl.
 35 36  0  0  0  0  0  0  0  0  1 V2000
  150.4524  140.8239  157.6513 O   0  0  0  0  0  0  0  0  0  0  0  0
  151.2317  141.1167  156.7433 C   0  0  0  0  0  0  0  0  0  0  0  0
  152.4225  142.0531  156.9950 C   0  0  0  0  0  0  0  0  0  0  0  0
  152.6043  142.4023  158.4142 N   0  0  0  0  0  0  0  0  0  0  0  0
  152.5712  143.7707  158.7480 C   0  0  0  0  0  0  0  0  0  0  0  0
  152.7090  144.2212  160.0099 C   0  0  0  0  0  0  0  0  0  0  0  0
  152.7220  145.7074  160.3323 C   0  0  0  0  0  0  0  0  0  0  0  0
  152.9584  145.9155  161.6278 F   0  0  0  0  0  0  0  0  0  0  0  0
  153.6582  146.3448  159.6279 F   0  0  0  0  0  0  0  0  0  0  0  0
  151.5403  146.2457  160.0341 F   0  0  0  0  0  0  0  0  0  0  0  0
  152.9315  143.2177  161.0323 C   0  0  0  0  0  0  0  0  0  0  0  0
  152.9722  141.9054  160.7295 C   0  0  0  0  0  0  0  0  0  0  0  0
  152.7972  141.4299  159.3554 C   0  0  0  0  0  0  0  0  0  0  0  0
  152.8233  140.2329  159.0675 O   0  0  0  0  0  0  0  0  0  0  0  0
  151.0960  140.6661  155.4869 N   0  0  0  0  0  0  0  0  0  0  0  0
  150.0410  139.7685  155.0269 C   0  0  1  0  0  0  0  0  0  0  0  0
  148.7121  140.5101  154.7735 C   0  0  0  0  0  0  0  0  0  0  0  0
  147.7894  139.6007  153.9526 C   0  0  0  0  0  0  0  0  0  0  0  0
  148.8874  138.5614  152.9160 S   0  0  0  0  0  0  0  0  0  0  0  0
  148.6254  137.1458  153.2161 O   0  0  0  0  0  0  0  0  0  0  0  0
  148.8741  139.0571  151.5313 O   0  0  0  0  0  0  0  0  0  0  0  0
  150.4514  139.0752  153.7206 C   0  0  0  0  0  0  0  0  0  0  0  0
  153.3316  141.5931  156.6033 H   0  0  0  0  0  0  0  0  0  0  0  0
  152.2789  142.9528  156.3951 H   0  0  0  0  0  0  0  0  0  0  0  0
  152.4223  144.4350  157.9090 H   0  0  0  0  0  0  0  0  0  0  0  0
  153.0629  143.5225  162.0602 H   0  0  0  0  0  0  0  0  0  0  0  0
  153.1366  141.1852  161.5175 H   0  0  0  0  0  0  0  0  0  0  0  0
  151.7767  140.9610  154.8018 H   0  0  0  0  0  0  0  0  0  0  0  0
  149.8679  138.9949  155.7777 H   0  0  0  0  0  0  0  0  0  0  0  0
  148.2360  140.8237  155.7030 H   0  0  0  0  0  0  0  0  0  0  0  0
  148.9112  141.4150  154.1977 H   0  0  0  0  0  0  0  0  0  0  0  0
  147.2191  138.9387  154.6047 H   0  0  0  0  0  0  0  0  0  0  0  0
  147.0924  140.1570  153.3255 H   0  0  0  0  0  0  0  0  0  0  0  0
  150.9577  139.7667  153.0462 H   0  0  0  0  0  0  0  0  0  0  0  0
  151.0947  138.2096  153.8798 H   0  0  0  0  0  0  0  0  0  0  0  0
  1  2  2  0  0  0  0
  2  3  1  0  0  0  0
  2 15  1  0  0  0  0
  3  4  1  0  0  0  0
  3 23  1  0  0  0  0
  3 24  1  0  0  0  0
  4 13  1  0  0  0  0
  4  5  1  0  0  0  0
  5  6  2  0  0  0  0
  5 25  1  0  0  0  0
  6  7  1  0  0  0  0
  6 11  1  0  0  0  0
  7  8  1  0  0  0  0
  7  9  1  0  0  0  0
  7 10  1  0  0  0  0
 11 12  2  0  0  0  0
 11 26  1  0  0  0  0
 12 13  1  0  0  0  0
 12 27  1  0  0  0  0
 13 14  2  0  0  0  0
 15 16  1  0  0  0  0
 15 28  1  0  0  0  0
 16 22  1  0  0  0  0
 16 17  1  0  0  0  0
 16 29  1  0  0  0  0
 17 18  1  0  0  0  0
 17 30  1  0  0  0  0
 17 31  1  0  0  0  0
 18 19  1  0  0  0  0
 18 32  1  0  0  0  0
 18 33  1  0  0  0  0
 19 20  2  0  0  0  0
 19 21  2  0  0  0  0
 19 22  1  0  0  0  0
 22 34  1  0  0  0  0
 22 35  1  0  0  0  0
M  END
> <s_m_source_file>
AV-unprocessed.smi

> <i_m_source_file_index>
583

> <i_lp_mmshare_version>
43012

> <i_f3d_flags>
0

> <s_epik_input>
Tz1TMSg9TylbQ0gyXVtDSDJdW0NASF0oW0NIMl0xKVtOSF1DKD1PKVtDSDJdbjJbY0hdYyhDKEYpKEYpRilbY0hdW2NIXWMyPU8=

> <s_epik_cmdline>
J2VwaWtfcHl0aG9uJywgJy1waCcsICc3LjAnLCAnLXRuJywgJzgnLCAnLW1hJywgJzIwMCcsICctbWV0YWxfYmluZGluZycsICctaW1hZScsICc8aW5maWxlLm1hZT4nLCAnLW9tYWUnLCAnPG91dGZpbGUubWFlPic=

> <r_lp_tautomer_probability>
1

> <r_epik_Ionization_Penalty>
1.22016e-07

> <r_epik_Ionization_Penalty_Charging>
1.48237e-08

> <r_epik_Ionization_Penalty_Neutral>
1.07193e-07

> <r_epik_State_Penalty>
-0

> <r_epik_Charging_Adjusted_Penalty>
1.48237e-08

> <i_epik_Tot_Q>
0

> <i_epik_Tot_abs_Q>
0

> <r_epik_Metal_State_Penalty>
-0

> <b_epik_Metal_Only>
0

> <s_lp_Force_Field>
OPLS_2005

> <r_lp_Energy>
16.0517

> <b_lp_Chiralities_Consistent>
1

> <s_lp_Variant>
AV-unprocessed.smi:583-2

> <Gold.Version>
5.8.1

> <Gold.Id.Protein>
6NUR|6NUR_protein|mol2

> <Gold.PLP.Fitness>
41.6922

> <Gold.PLP.PLP>
-39.3643

> <Gold.PLP.part.hbond>
-1.6873

> <Gold.PLP.part.metal>
0.0000

> <Gold.PLP.part.buried>
-4.4371

> <Gold.PLP.part.nonpolar>
-33.9855

> <Gold.PLP.part.repulsive>
0.1559

> <Gold.PLP.ligand.clash>
0.0000

> <Gold.PLP.ligand.torsion>
0.3523

> <Gold.PLP.Chemscore.Hbond>
1.0000

> <Gold.PLP.Chemscore.CHOScore>
0.0000

> <Gold.PLP.Chemscore.Metal>
0.0000

> <Gold.Chemscore.Hbonds>
donor molecule, donor type, donor heavy atom, donor atom, acceptor molecule, acceptor atom, score
      P1  H  7954  7966       L1    21  0.23

> <Gold.PLP.Chemscore.Internal.Correction>
0.0326

> <Gold.Rescore>
     Score         DG    S(hbond)    S(metal)    S(lipo)     H(rot)  DE(clash)    DE(int)     intcor
     11.58     -12.72       0.94        0.00      72.81       1.73       0.77       0.37       ----

> <Gold.Chemscore.Fitness>
11.5786

> <Gold.Chemscore.DG>
-12.7165

> <Gold.Chemscore.ZeroCoef>
-5.4800

> <Gold.Chemscore.Hbond>
0.9433

> <Gold.Chemscore.Metal>
0.0000

> <Gold.Chemscore.Lipo>
72.8056

> <Gold.Chemscore.Internal_Hbond>
0.0000

> <Gold.Chemscore.DEClash>
0.7656

> <Gold.Chemscore.DEInternal>
0.3723

> <Gold.Chemscore.Rot>
1.7314

> <Gold.Chemscore.Internal.Correction>
   9.000000E+99

> <Gold.Chemscore.Hbonds>
donor molecule, donor type, donor heavy atom, donor atom, acceptor molecule, acceptor atom, score
      P1  H  7954  7966       L1    21  0.21

> <Gold.Chemscore.Hbond.Weighted>
-3.1507

> <Gold.Chemscore.Metal.Weighted>
-0.0000

> <Gold.Chemscore.Lipo.Weighted>
-8.5183

> <Gold.Chemscore.Internal_Hbond.Weighted>
0.0000

> <Gold.Chemscore.DEClash.Weighted>
0.7656

> <Gold.Chemscore.DEInternal.Weighted>
0.3723

> <Gold.Chemscore.Rot.Weighted>
4.4324

> <Gold.Chemscore.Internal.Correction.Weighted>
   9.000000E+99

> <Gold.Protein.RotatedTorsions>
[ 6907 6896 6895 6894 ] final   93.39 input  -60.11 | X-H torsion
[ 7974 7965 7964 7962 ] final   89.30 input  175.53 | X-H torsion
[ 8008 7997 7996 7995 ] final -135.58 input   59.86 | X-H torsion
[ 10167 10162 10161 10158 ] final -162.36 input  -65.29 | X-H torsion
[ 10718 10713 10712 10709 ] final   91.49 input   66.30 | X-H torsion
[ 10763 10752 10751 10750 ] final   75.41 input  -60.55 | X-H torsion
[ 11005 11000 10999 10996 ] final  108.23 input  -57.11 | X-H torsion

> <Gold.Protein.ActiveResidues>
 VAL166  LYS551  ARG553  GLY616  TRP617  ASP618  TYR619  PRO620  LYS621  CYS622 
 ASP623  PHE694  ASN695  SER759  ASP760  ASP761  ALA762  ILE779  LEU786  VAL792 
 PHE793  MET794  SER795  GLU796  ALA797  LYS798  CYS799  TRP800  GLU811  SER814 

> <Gold.Protein.RotatedAtoms>
  152.5452  134.1355  159.8456 H   0  0  0  0  0  0  0  0  0  0  0  0  # atno 6907 bound_to 6896
  151.1397  133.4973  159.2604 H   0  0  0  0  0  0  0  0  0  0  0  0  # atno 6908 bound_to 6896
  151.1587  135.0273  159.8755 H   0  0  0  0  0  0  0  0  0  0  0  0  # atno 6909 bound_to 6896
  145.5342  139.2285  143.2602 H   0  0  0  0  0  0  0  0  0  0  0  0  # atno 7974 bound_to 7965
  155.3809  140.0494  157.3043 H   0  0  0  0  0  0  0  0  0  0  0  0  # atno 8008 bound_to 7997
  154.5083  140.2182  155.9169 H   0  0  0  0  0  0  0  0  0  0  0  0  # atno 8009 bound_to 7997
  156.1552  140.3128  155.8719 H   0  0  0  0  0  0  0  0  0  0  0  0  # atno 8010 bound_to 7997
  139.6398  144.0282  152.2082 H   0  0  0  0  0  0  0  0  0  0  0  0  # atno 10167 bound_to 10162
  157.6960  131.0409  150.3738 H   0  0  0  0  0  0  0  0  0  0  0  0  # atno 10718 bound_to 10713
  153.0653  135.4990  154.8185 H   0  0  0  0  0  0  0  0  0  0  0  0  # atno 10763 bound_to 10752
  154.6944  135.2990  154.9436 H   0  0  0  0  0  0  0  0  0  0  0  0  # atno 10764 bound_to 10752
  154.0180  135.6745  153.4823 H   0  0  0  0  0  0  0  0  0  0  0  0  # atno 10765 bound_to 10752
  139.8841  134.9424  156.5941 H   0  0  0  0  0  0  0  0  0  0  0  0  # atno 11005 bound_to 11000
  146.2024  140.6160  142.9096 LP  0  0  0  0  0  0  0  0  0  0  0  0  # atno 17320 bound_to 7965
  144.7610  140.5421  143.6735 LP  0  0  0  0  0  0  0  0  0  0  0  0  # atno 17321 bound_to 7965
  139.9968  144.6322  150.7765 LP  0  0  0  0  0  0  0  0  0  0  0  0  # atno 17342 bound_to 10162
  140.7484  143.2922  151.3299 LP  0  0  0  0  0  0  0  0  0  0  0  0  # atno 17343 bound_to 10162
  156.4160  130.3943  149.6858 LP  0  0  0  0  0  0  0  0  0  0  0  0  # atno 17370 bound_to 10713
  156.4126  130.7729  151.2743 LP  0  0  0  0  0  0  0  0  0  0  0  0  # atno 17371 bound_to 10713
  140.7933  133.8564  155.8664 LP  0  0  0  0  0  0  0  0  0  0  0  0  # atno 17394 bound_to 11000
  140.9658  134.1596  157.4617 LP  0  0  0  0  0  0  0  0  0  0  0  0  # atno 17395 bound_to 11000

$$$$
