AV-unprocessed.smi:681|AV-procd|sdf|3325|dock6
  -GOLD-   22720 0293D 1   1.00000     0.00000
 Structure written by MMmdl.
 41 42  0  0  0  0  0  0  0  0  1 V2000
  145.1762  144.0232  153.7984 C   0  0  0  0  0  0  0  0  0  0  0  0
  145.9989  142.9742  154.4644 C   0  0  0  0  0  0  0  0  0  0  0  0
  145.8857  142.6731  155.7907 N   0  0  0  0  0  0  0  0  0  0  0  0
  146.8007  141.7150  155.8937 C   0  0  0  0  0  0  0  0  0  0  0  0
  147.1260  140.9941  157.1609 C   0  0  0  0  0  0  0  0  0  0  0  0
  147.4168  141.4562  154.7308 N   0  0  0  0  0  0  0  0  0  0  0  0
  148.4711  140.5118  154.3969 C   0  0  0  0  0  0  0  0  0  0  0  0
  149.8058  140.9352  155.0114 C   0  0  0  0  0  0  0  0  0  0  0  0
  150.8247  140.2863  154.7758 O   0  0  0  0  0  0  0  0  0  0  0  0
  149.7844  142.0216  155.7990 N   0  0  0  0  0  0  0  0  0  0  0  0
  150.9395  142.5748  156.4945 C   0  0  0  0  0  0  0  0  0  0  0  0
  151.2692  141.7666  157.7613 C   0  0  0  0  0  0  0  0  0  0  0  0
  151.7119  142.6443  158.9202 C   0  0  0  0  0  0  0  0  0  0  0  0
  151.5714  143.9841  158.8935 C   0  0  0  0  0  0  0  0  0  0  0  0
  151.9794  144.9081  160.0277 C   0  0  0  0  0  0  0  0  0  0  0  0
  152.2477  144.1460  161.3361 C   0  0  0  0  0  0  0  0  0  0  0  0
  153.0603  142.8713  161.0778 C   0  0  0  0  0  0  0  0  0  0  0  0
  152.3229  141.9221  160.1162 C   0  0  0  0  0  0  0  0  0  0  0  0
  146.9009  142.2736  153.7816 N   0  0  0  0  0  0  0  0  0  0  0  0
  144.4516  144.4464  154.4948 H   0  0  0  0  0  0  0  0  0  0  0  0
  144.6341  143.5991  152.9529 H   0  0  0  0  0  0  0  0  0  0  0  0
  145.8153  144.8280  153.4347 H   0  0  0  0  0  0  0  0  0  0  0  0
  146.4568  141.3100  157.9618 H   0  0  0  0  0  0  0  0  0  0  0  0
  148.1515  141.2082  157.4616 H   0  0  0  0  0  0  0  0  0  0  0  0
  147.0151  139.9185  157.0231 H   0  0  0  0  0  0  0  0  0  0  0  0
  148.1912  139.5212  154.7567 H   0  0  0  0  0  0  0  0  0  0  0  0
  148.5649  140.4397  153.3121 H   0  0  0  0  0  0  0  0  0  0  0  0
  148.8995  142.4878  155.9398 H   0  0  0  0  0  0  0  0  0  0  0  0
  151.8018  142.6076  155.8259 H   0  0  0  0  0  0  0  0  0  0  0  0
  150.7075  143.6080  156.7530 H   0  0  0  0  0  0  0  0  0  0  0  0
  150.4000  141.1864  158.0732 H   0  0  0  0  0  0  0  0  0  0  0  0
  152.0554  141.0433  157.5399 H   0  0  0  0  0  0  0  0  0  0  0  0
  151.1520  144.4633  158.0208 H   0  0  0  0  0  0  0  0  0  0  0  0
  152.8735  145.4488  159.7164 H   0  0  0  0  0  0  0  0  0  0  0  0
  151.1972  145.6512  160.1853 H   0  0  0  0  0  0  0  0  0  0  0  0
  152.7666  144.7924  162.0446 H   0  0  0  0  0  0  0  0  0  0  0  0
  151.2987  143.8763  161.8016 H   0  0  0  0  0  0  0  0  0  0  0  0
  154.0267  143.1435  160.6512 H   0  0  0  0  0  0  0  0  0  0  0  0
  153.2714  142.3588  162.0170 H   0  0  0  0  0  0  0  0  0  0  0  0
  151.5223  141.4097  160.6503 H   0  0  0  0  0  0  0  0  0  0  0  0
  153.0119  141.1529  159.7658 H   0  0  0  0  0  0  0  0  0  0  0  0
  1  2  1  0  0  0  0
  1 20  1  0  0  0  0
  1 21  1  0  0  0  0
  1 22  1  0  0  0  0
  2 19  2  0  0  0  0
  2  3  1  0  0  0  0
  3  4  2  0  0  0  0
  4  5  1  0  0  0  0
  4  6  1  0  0  0  0
  5 23  1  0  0  0  0
  5 24  1  0  0  0  0
  5 25  1  0  0  0  0
  6  7  1  0  0  0  0
  6 19  1  0  0  0  0
  7  8  1  0  0  0  0
  7 26  1  0  0  0  0
  7 27  1  0  0  0  0
  8  9  2  0  0  0  0
  8 10  1  0  0  0  0
 10 11  1  0  0  0  0
 10 28  1  0  0  0  0
 11 12  1  0  0  0  0
 11 29  1  0  0  0  0
 11 30  1  0  0  0  0
 12 13  1  0  0  0  0
 12 31  1  0  0  0  0
 12 32  1  0  0  0  0
 13 18  1  0  0  0  0
 13 14  2  0  0  0  0
 14 15  1  0  0  0  0
 14 33  1  0  0  0  0
 15 16  1  0  0  0  0
 15 34  1  0  0  0  0
 15 35  1  0  0  0  0
 16 17  1  0  0  0  0
 16 36  1  0  0  0  0
 16 37  1  0  0  0  0
 17 18  1  0  0  0  0
 17 38  1  0  0  0  0
 17 39  1  0  0  0  0
 18 40  1  0  0  0  0
 18 41  1  0  0  0  0
M  END
> <s_m_source_file>
AV-unprocessed.smi

> <i_m_source_file_index>
681

> <i_lp_mmshare_version>
43012

> <i_f3d_flags>
0

> <s_epik_input>
W0NIM11jMW5jKFtDSDNdKW4objEpW0NIMl1DKD1PKVtOSF1bQ0gyXVtDSDJdQzI9W0NIXVtDSDJdW0NIMl1bQ0gyXVtDSDJdMg==

> <s_epik_cmdline>
J2VwaWtfcHl0aG9uJywgJy1waCcsICc3LjAnLCAnLXRuJywgJzgnLCAnLW1hJywgJzIwMCcsICctbWV0YWxfYmluZGluZycsICctaW1hZScsICc8aW5maWxlLm1hZT4nLCAnLW9tYWUnLCAnPG91dGZpbGUubWFlPic=

> <r_lp_tautomer_probability>
1

> <r_epik_Ionization_Penalty>
0.000426663

> <r_epik_Ionization_Penalty_Charging>
0

> <r_epik_Ionization_Penalty_Neutral>
0.000426663

> <r_epik_State_Penalty>
0.000262586

> <r_epik_Charging_Adjusted_Penalty>
0.000262586

> <i_epik_Tot_Q>
0

> <i_epik_Tot_abs_Q>
0

> <r_epik_Metal_State_Penalty>
-0

> <b_epik_Metal_Only>
0

> <s_lp_Force_Field>
OPLS_2005

> <r_lp_Energy>
6.45034

> <b_lp_Chiralities_Consistent>
1

> <s_lp_Variant>
AV-unprocessed.smi:681-1

> <Gold.Version>
5.8.1

> <Gold.Id.Protein>
6NUR|6NUR_protein|mol2

> <Gold.PLP.Fitness>
44.1726

> <Gold.PLP.PLP>
-42.1939

> <Gold.PLP.part.hbond>
-2.0000

> <Gold.PLP.part.metal>
0.0000

> <Gold.PLP.part.buried>
-5.8393

> <Gold.PLP.part.nonpolar>
-34.2424

> <Gold.PLP.part.repulsive>
0.5222

> <Gold.PLP.ligand.clash>
0.0000

> <Gold.PLP.ligand.torsion>
0.6365

> <Gold.PLP.Chemscore.Hbond>
1.0764

> <Gold.PLP.Chemscore.CHOScore>
0.0000

> <Gold.PLP.Chemscore.Metal>
0.0000

> <Gold.Chemscore.Hbonds>
donor molecule, donor type, donor heavy atom, donor atom, acceptor molecule, acceptor atom, score
      L1  H    10    28       P1  8028  0.15
      P1  H  7989  7998       L1     9  1.00

> <Gold.PLP.Chemscore.Internal.Correction>
0.0224

> <Gold.Rescore>
     Score         DG    S(hbond)    S(metal)    S(lipo)     H(rot)  DE(clash)    DE(int)     intcor
     14.75     -15.60       1.10        0.00      96.04       1.87       0.07       0.78       ----

> <Gold.Chemscore.Fitness>
14.7461

> <Gold.Chemscore.DG>
-15.5996

> <Gold.Chemscore.ZeroCoef>
-5.4800

> <Gold.Chemscore.Hbond>
1.1026

> <Gold.Chemscore.Metal>
0.0000

> <Gold.Chemscore.Lipo>
96.0414

> <Gold.Chemscore.Internal_Hbond>
0.0000

> <Gold.Chemscore.DEClash>
0.0727

> <Gold.Chemscore.DEInternal>
0.7807

> <Gold.Chemscore.Rot>
1.8750

> <Gold.Chemscore.Internal.Correction>
   9.000000E+99

> <Gold.Chemscore.Hbonds>
donor molecule, donor type, donor heavy atom, donor atom, acceptor molecule, acceptor atom, score
      L1  H    10    28       P1  8028  0.16
      P1  H  7989  7998       L1     9  0.81

> <Gold.Chemscore.Hbond.Weighted>
-3.6826

> <Gold.Chemscore.Metal.Weighted>
-0.0000

> <Gold.Chemscore.Lipo.Weighted>
-11.2368

> <Gold.Chemscore.Internal_Hbond.Weighted>
0.0000

> <Gold.Chemscore.DEClash.Weighted>
0.0727

> <Gold.Chemscore.DEInternal.Weighted>
0.7807

> <Gold.Chemscore.Rot.Weighted>
4.7999

> <Gold.Chemscore.Internal.Correction.Weighted>
   9.000000E+99

> <Gold.Protein.RotatedTorsions>
[ 6907 6896 6895 6894 ] final  147.97 input  -60.11 | X-H torsion
[ 7974 7965 7964 7962 ] final   22.56 input  175.53 | X-H torsion
[ 8008 7997 7996 7995 ] final   36.60 input   59.86 | X-H torsion
[ 10167 10162 10161 10158 ] final -156.80 input  -65.29 | X-H torsion
[ 10718 10713 10712 10709 ] final  174.63 input   66.30 | X-H torsion
[ 10763 10752 10751 10750 ] final  -24.04 input  -60.55 | X-H torsion
[ 11005 11000 10999 10996 ] final  -98.54 input  -57.11 | X-H torsion

> <Gold.Protein.ActiveResidues>
 VAL166  LYS551  ARG553  GLY616  TRP617  ASP618  TYR619  PRO620  LYS621  CYS622 
 ASP623  PHE694  ASN695  SER759  ASP760  ASP761  ALA762  ILE779  LEU786  VAL792 
 PHE793  MET794  SER795  GLU796  ALA797  LYS798  CYS799  TRP800  GLU811  SER814 

> <Gold.Protein.RotatedAtoms>
  152.1477  133.4502  159.4797 H   0  0  0  0  0  0  0  0  0  0  0  0  # atno 6907 bound_to 6896
  150.6892  134.2228  159.4412 H   0  0  0  0  0  0  0  0  0  0  0  0  # atno 6908 bound_to 6896
  152.0122  134.9869  160.0619 H   0  0  0  0  0  0  0  0  0  0  0  0  # atno 6909 bound_to 6896
  146.2023  139.7868  142.8752 H   0  0  0  0  0  0  0  0  0  0  0  0  # atno 7974 bound_to 7965
  155.1900  140.3307  155.4360 H   0  0  0  0  0  0  0  0  0  0  0  0  # atno 8008 bound_to 7997
  156.2446  140.1912  156.6943 H   0  0  0  0  0  0  0  0  0  0  0  0  # atno 8009 bound_to 7997
  154.6212  140.0595  156.9603 H   0  0  0  0  0  0  0  0  0  0  0  0  # atno 8010 bound_to 7997
  139.6821  143.9563  152.2342 H   0  0  0  0  0  0  0  0  0  0  0  0  # atno 10167 bound_to 10162
  156.9468  131.0018  151.2957 H   0  0  0  0  0  0  0  0  0  0  0  0  # atno 10718 bound_to 10713
  153.6774  135.6968  153.5128 H   0  0  0  0  0  0  0  0  0  0  0  0  # atno 10763 bound_to 10752
  153.2511  135.4275  155.0797 H   0  0  0  0  0  0  0  0  0  0  0  0  # atno 10764 bound_to 10752
  154.8409  135.3531  154.6318 H   0  0  0  0  0  0  0  0  0  0  0  0  # atno 10765 bound_to 10752
  141.1341  133.8253  157.0853 H   0  0  0  0  0  0  0  0  0  0  0  0  # atno 11005 bound_to 11000
  145.3440  141.0294  143.3376 LP  0  0  0  0  0  0  0  0  0  0  0  0  # atno 17320 bound_to 7965
  144.8712  139.5035  143.6767 LP  0  0  0  0  0  0  0  0  0  0  0  0  # atno 17321 bound_to 7965
  139.9356  144.6714  150.8318 LP  0  0  0  0  0  0  0  0  0  0  0  0  # atno 17342 bound_to 10162
  140.7655  143.3279  151.2475 LP  0  0  0  0  0  0  0  0  0  0  0  0  # atno 17343 bound_to 10162
  157.5748  130.8336  149.8441 LP  0  0  0  0  0  0  0  0  0  0  0  0  # atno 17370 bound_to 10713
  156.0380  130.3746  150.1509 LP  0  0  0  0  0  0  0  0  0  0  0  0  # atno 17371 bound_to 10713
  140.0426  134.9847  157.0990 LP  0  0  0  0  0  0  0  0  0  0  0  0  # atno 17394 bound_to 11000
  140.4112  134.1979  155.7163 LP  0  0  0  0  0  0  0  0  0  0  0  0  # atno 17395 bound_to 11000

$$$$
