AV-unprocessed.smi:1518|AV-procd|sdf|6126|dock7
  -GOLD-   22720 6263D 1   1.00000     0.00000
 Structure written by MMmdl.
 46 48  0  0  0  0  0  0  0  0  2 V2000
  140.9886  141.1798  155.9291 C   0  0  0  0  0  0  0  0  0  0  0  0
  139.8867  141.0090  154.8845 C   0  0  0  0  0  0  0  0  0  0  0  0
  139.2787  142.0078  154.5010 O   0  0  0  0  0  0  0  0  0  0  0  0
  139.6060  139.6328  154.3831 C   0  0  0  0  0  0  0  0  0  0  0  0
  138.4609  139.4096  153.5855 C   0  0  0  0  0  0  0  0  0  0  0  0
  138.1699  138.1219  153.1006 C   0  0  0  0  0  0  0  0  0  0  0  0
  139.0211  137.0452  153.4061 C   0  0  0  0  0  0  0  0  0  0  0  0
  140.1706  137.2397  154.1966 C   0  0  0  0  0  0  0  0  0  0  0  0
  140.9494  136.1295  154.4431 O   0  0  0  0  0  0  0  0  0  0  0  0
  140.9748  135.0902  153.4734 C   0  0  0  0  0  0  0  0  0  0  0  0
  142.4366  134.7746  153.1260 C   0  0  2  0  0  0  0  0  0  0  0  0
  143.0995  134.3560  154.3023 O   0  0  0  0  0  0  0  0  0  0  0  0
  143.1664  135.9829  152.5052 C   0  0  0  0  0  0  0  0  0  0  0  0
  144.5823  135.7066  152.2153 N   0  0  0  0  0  0  0  0  0  0  0  0
  145.6923  136.4473  152.4991 C   0  0  0  0  0  0  0  0  0  0  0  0
  145.7359  137.7637  153.2027 C   0  0  0  0  0  0  0  0  0  0  0  0
  146.0533  138.8263  152.3317 O   0  0  0  0  0  0  0  0  0  0  0  0
  146.7696  135.7565  152.0310 N   0  3  0  0  0  0  0  0  0  0  0  0
  146.3469  134.5653  151.4401 C   0  0  0  0  0  0  0  0  0  0  0  0
  147.0706  133.5454  150.8298 C   0  0  0  0  0  0  0  0  0  0  0  0
  146.3288  132.4579  150.3244 C   0  0  0  0  0  0  0  0  0  0  0  0
  144.9239  132.4133  150.4353 C   0  0  0  0  0  0  0  0  0  0  0  0
  144.2011  133.4531  151.0565 C   0  0  0  0  0  0  0  0  0  0  0  0
  144.9418  134.5251  151.5547 C   0  0  0  0  0  0  0  0  0  0  0  0
  140.4559  138.5407  154.6844 C   0  0  0  0  0  0  0  0  0  0  0  0
  141.9443  140.8292  155.5389 H   0  0  0  0  0  0  0  0  0  0  0  0
  140.7497  140.6176  156.8320 H   0  0  0  0  0  0  0  0  0  0  0  0
  141.0966  142.2299  156.2012 H   0  0  0  0  0  0  0  0  0  0  0  0
  137.7933  140.2224  153.3376 H   0  0  0  0  0  0  0  0  0  0  0  0
  137.2920  137.9599  152.4929 H   0  0  0  0  0  0  0  0  0  0  0  0
  138.7898  136.0598  153.0288 H   0  0  0  0  0  0  0  0  0  0  0  0
  140.4790  134.1938  153.8503 H   0  0  0  0  0  0  0  0  0  0  0  0
  140.4462  135.4205  152.5773 H   0  0  0  0  0  0  0  0  0  0  0  0
  142.4589  133.9369  152.4283 H   0  0  0  0  0  0  0  0  0  0  0  0
  142.9011  133.4445  154.4514 H   0  0  0  0  0  0  0  0  0  0  0  0
  142.6961  136.2559  151.5598 H   0  0  0  0  0  0  0  0  0  0  0  0
  143.0901  136.8640  153.1424 H   0  0  0  0  0  0  0  0  0  0  0  0
  144.7688  137.9602  153.6661 H   0  0  0  0  0  0  0  0  0  0  0  0
  146.4730  137.7275  154.0047 H   0  0  0  0  0  0  0  0  0  0  0  0
  145.4323  138.8267  151.6189 H   0  0  0  0  0  0  0  0  0  0  0  0
  148.1468  133.5778  150.7429 H   0  0  0  0  0  0  0  0  0  0  0  0
  146.8476  131.6425  149.8413 H   0  0  0  0  0  0  0  0  0  0  0  0
  144.3888  131.5642  150.0350 H   0  0  0  0  0  0  0  0  0  0  0  0
  143.1252  133.4074  151.1317 H   0  0  0  0  0  0  0  0  0  0  0  0
  141.3300  138.7044  155.2939 H   0  0  0  0  0  0  0  0  0  0  0  0
  147.7253  136.0782  152.1155 H   0  0  0  0  0  0  0  0  0  0  0  0
  1  2  1  0  0  0  0
  1 26  1  0  0  0  0
  1 27  1  0  0  0  0
  1 28  1  0  0  0  0
  2  3  2  0  0  0  0
  2  4  1  0  0  0  0
  4 25  1  0  0  0  0
  4  5  2  0  0  0  0
  5  6  1  0  0  0  0
  5 29  1  0  0  0  0
  6  7  2  0  0  0  0
  6 30  1  0  0  0  0
  7  8  1  0  0  0  0
  7 31  1  0  0  0  0
  8  9  1  0  0  0  0
  8 25  2  0  0  0  0
  9 10  1  0  0  0  0
 10 11  1  0  0  0  0
 10 32  1  0  0  0  0
 10 33  1  0  0  0  0
 11 12  1  0  0  0  0
 11 13  1  0  0  0  0
 11 34  1  0  0  0  0
 12 35  1  0  0  0  0
 13 14  1  0  0  0  0
 13 36  1  0  0  0  0
 13 37  1  0  0  0  0
 14 24  1  0  0  0  0
 14 15  1  0  0  0  0
 15 16  1  0  0  0  0
 15 18  2  0  0  0  0
 16 17  1  0  0  0  0
 16 38  1  0  0  0  0
 16 39  1  0  0  0  0
 17 40  1  0  0  0  0
 18 19  1  0  0  0  0
 18 46  1  0  0  0  0
 19 24  2  0  0  0  0
 19 20  1  0  0  0  0
 20 21  2  0  0  0  0
 20 41  1  0  0  0  0
 21 22  1  0  0  0  0
 21 42  1  0  0  0  0
 22 23  2  0  0  0  0
 22 43  1  0  0  0  0
 23 24  1  0  0  0  0
 23 44  1  0  0  0  0
 25 45  1  0  0  0  0
M  CHG  1  18   1
M  END
> <s_m_source_file>
AV-unprocessed.smi

> <i_m_source_file_index>
1518

> <i_lp_mmshare_version>
43012

> <i_f3d_flags>
0

> <s_epik_input>
W0NIM11DKD1PKWMxW2NIXVtjSF1bY0hdYyhbY0hdMSlPW0NIMl1bQ0BIXShbT0hdKVtDSDJdbihjKG4yKVtDSDJdW09IXSljKGMyMylbY0hdW2NIXVtjSF1bY0hdMw==

> <s_epik_cmdline>
J2VwaWtfcHl0aG9uJywgJy1waCcsICc3LjAnLCAnLXRuJywgJzgnLCAnLW1hJywgJzIwMCcsICctbWV0YWxfYmluZGluZycsICctaW1hZScsICc8aW5maWxlLm1hZT4nLCAnLW9tYWUnLCAnPG91dGZpbGUubWFlPic=

> <r_lp_tautomer_probability>
0.99995

> <r_epik_Ionization_Penalty>
1.40416

> <r_epik_Ionization_Penalty_Charging>
1.4033

> <r_epik_Ionization_Penalty_Neutral>
0.000858184

> <r_epik_State_Penalty>
1.48564

> <r_epik_Charging_Adjusted_Penalty>
2.88894

> <i_epik_Tot_Q>
1

> <i_epik_Tot_abs_Q>
1

> <r_epik_Metal_State_Penalty>
5.52809

> <b_epik_Metal_Only>
0

> <s_lp_Force_Field>
OPLS_2005

> <r_lp_Energy>
23.9778

> <b_lp_Chiralities_Consistent>
1

> <s_lp_Variant>
AV-unprocessed.smi:1518-3

> <Gold.Version>
5.8.1

> <Gold.Id.Protein>
6NUR|6NUR_protein|mol2

> <Gold.PLP.Fitness>
61.1393

> <Gold.PLP.PLP>
-48.1069

> <Gold.PLP.part.hbond>
-4.4635

> <Gold.PLP.part.metal>
0.0000

> <Gold.PLP.part.buried>
-8.3823

> <Gold.PLP.part.nonpolar>
-36.4264

> <Gold.PLP.part.repulsive>
0.3129

> <Gold.PLP.ligand.clash>
0.0000

> <Gold.PLP.ligand.torsion>
1.0511

> <Gold.PLP.Chemscore.Hbond>
5.0000

> <Gold.PLP.Chemscore.CHOScore>
0.0000

> <Gold.PLP.Chemscore.Metal>
0.0000

> <Gold.Chemscore.Hbonds>
donor molecule, donor type, donor heavy atom, donor atom, acceptor molecule, acceptor atom, score
      L1  H    12    35       P1 10957  1.00
      L1  H    17    40       P1 10171  0.11
      L1  H    18    46       P1  7948  0.59

> <Gold.PLP.Chemscore.Internal.Correction>
0.1346

> <Gold.Rescore>
     Score         DG    S(hbond)    S(metal)    S(lipo)     H(rot)  DE(clash)    DE(int)     intcor
     21.59     -23.09       3.92        0.00     111.77       3.34       0.25       1.26       ----

> <Gold.Chemscore.Fitness>
21.5863

> <Gold.Chemscore.DG>
-23.0926

> <Gold.Chemscore.ZeroCoef>
-5.4800

> <Gold.Chemscore.Hbond>
3.9168

> <Gold.Chemscore.Metal>
0.0000

> <Gold.Chemscore.Lipo>
111.7741

> <Gold.Chemscore.Internal_Hbond>
0.0000

> <Gold.Chemscore.DEClash>
0.2458

> <Gold.Chemscore.DEInternal>
1.2606

> <Gold.Chemscore.Rot>
3.3387

> <Gold.Chemscore.Internal.Correction>
   9.000000E+99

> <Gold.Chemscore.Hbonds>
donor molecule, donor type, donor heavy atom, donor atom, acceptor molecule, acceptor atom, score
      L1  H    12    35       P1 10957  1.00
      L1  H    17    40       P1 10171  0.14
      L1  H    18    46       P1  7948  0.29

> <Gold.Chemscore.Hbond.Weighted>
-13.0822

> <Gold.Chemscore.Metal.Weighted>
-0.0000

> <Gold.Chemscore.Lipo.Weighted>
-13.0776

> <Gold.Chemscore.Internal_Hbond.Weighted>
0.0000

> <Gold.Chemscore.DEClash.Weighted>
0.2458

> <Gold.Chemscore.DEInternal.Weighted>
1.2606

> <Gold.Chemscore.Rot.Weighted>
8.5471

> <Gold.Chemscore.Internal.Correction.Weighted>
   9.000000E+99

> <Gold.Protein.RotatedTorsions>
[ 6907 6896 6895 6894 ] final   53.19 input  -60.11 | X-H torsion
[ 7974 7965 7964 7962 ] final  174.24 input  175.53 | X-H torsion
[ 8008 7997 7996 7995 ] final  -54.38 input   59.86 | X-H torsion
[ 10167 10162 10161 10158 ] final -117.52 input  -65.29 | X-H torsion
[ 10718 10713 10712 10709 ] final -101.35 input   66.30 | X-H torsion
[ 10763 10752 10751 10750 ] final   66.37 input  -60.55 | X-H torsion
[ 11005 11000 10999 10996 ] final   26.27 input  -57.11 | X-H torsion

> <Gold.Protein.ActiveResidues>
 VAL166  LYS551  ARG553  GLY616  TRP617  ASP618  TYR619  PRO620  LYS621  CYS622 
 ASP623  PHE694  ASN695  SER759  ASP760  ASP761  ALA762  ILE779  LEU786  VAL792 
 PHE793  MET794  SER795  GLU796  ALA797  LYS798  CYS799  TRP800  GLU811  SER814 

> <Gold.Protein.RotatedAtoms>
  152.3311  134.7258  160.0288 H   0  0  0  0  0  0  0  0  0  0  0  0  # atno 6907 bound_to 6896
  151.7674  133.3333  159.3443 H   0  0  0  0  0  0  0  0  0  0  0  0  # atno 6908 bound_to 6896
  150.7424  134.5982  159.6067 H   0  0  0  0  0  0  0  0  0  0  0  0  # atno 6909 bound_to 6896
  144.7226  139.9768  143.6438 H   0  0  0  0  0  0  0  0  0  0  0  0  # atno 7974 bound_to 7965
  154.4161  140.1177  156.5307 H   0  0  0  0  0  0  0  0  0  0  0  0  # atno 8008 bound_to 7997
  155.6609  140.3496  155.4763 H   0  0  0  0  0  0  0  0  0  0  0  0  # atno 8009 bound_to 7997
  155.9714  140.1142  157.0798 H   0  0  0  0  0  0  0  0  0  0  0  0  # atno 8010 bound_to 7997
  140.0674  143.4909  152.1998 H   0  0  0  0  0  0  0  0  0  0  0  0  # atno 10167 bound_to 10162
  156.0192  130.5369  150.6950 H   0  0  0  0  0  0  0  0  0  0  0  0  # atno 10718 bound_to 10713
  153.0137  135.5323  154.6813 H   0  0  0  0  0  0  0  0  0  0  0  0  # atno 10763 bound_to 10752
  154.5972  135.2864  155.0576 H   0  0  0  0  0  0  0  0  0  0  0  0  # atno 10764 bound_to 10752
  154.1646  135.6542  153.5047 H   0  0  0  0  0  0  0  0  0  0  0  0  # atno 10765 bound_to 10752
  140.3388  134.2355  155.7692 H   0  0  0  0  0  0  0  0  0  0  0  0  # atno 11005 bound_to 11000
  146.0519  139.3520  143.0634 LP  0  0  0  0  0  0  0  0  0  0  0  0  # atno 17320 bound_to 7965
  145.8203  140.9682  143.0902 LP  0  0  0  0  0  0  0  0  0  0  0  0  # atno 17321 bound_to 7965
  139.5856  144.7529  151.3528 LP  0  0  0  0  0  0  0  0  0  0  0  0  # atno 17342 bound_to 10162
  140.7142  143.7310  150.7624 LP  0  0  0  0  0  0  0  0  0  0  0  0  # atno 17343 bound_to 10162
  157.4623  131.0884  151.0732 LP  0  0  0  0  0  0  0  0  0  0  0  0  # atno 17370 bound_to 10713
  157.1217  130.6064  149.5506 LP  0  0  0  0  0  0  0  0  0  0  0  0  # atno 17371 bound_to 10713
  141.2044  133.7887  157.0289 LP  0  0  0  0  0  0  0  0  0  0  0  0  # atno 17394 bound_to 11000
  140.0798  134.9655  157.1605 LP  0  0  0  0  0  0  0  0  0  0  0  0  # atno 17395 bound_to 11000

$$$$
