AV-unprocessed.smi:2123|AV-procd|sdf|8649|dock4
  -GOLD-   2272011393D 1   1.00000     0.00000
 Structure written by MMmdl.
 47 48  0  0  0  0  0  0  0  0  1 V2000
  148.7713  132.8692  152.8415 C   0  0  0  0  0  0  0  0  0  0  0  0
  149.9291  133.4600  154.1031 S   0  0  0  0  0  0  0  0  0  0  0  0
  148.7461  134.1400  155.2963 C   0  0  0  0  0  0  0  0  0  0  0  0
  148.5676  135.6563  155.1104 C   0  0  0  0  0  0  0  0  0  0  0  0
  149.8727  136.4478  155.2440 C   0  0  0  0  0  0  0  0  0  0  0  0
  150.5102  136.4437  156.2977 O   0  0  0  0  0  0  0  0  0  0  0  0
  150.2585  137.1289  154.1540 N   0  0  0  0  0  0  0  0  0  0  0  0
  151.4604  137.9495  154.0535 C   0  0  0  0  0  0  0  0  0  0  0  0
  151.5545  138.9891  155.1557 C   0  0  0  0  0  0  0  0  0  0  0  0
  150.5766  139.9935  155.2899 C   0  0  0  0  0  0  0  0  0  0  0  0
  150.7065  140.9378  156.3263 C   0  0  0  0  0  0  0  0  0  0  0  0
  151.8108  140.8496  157.2078 C   0  0  0  0  0  0  0  0  0  0  0  0
  151.9665  141.7893  158.2502 N   0  0  0  0  0  0  0  0  0  0  0  0
  151.9833  143.2087  157.9026 C   0  0  0  0  0  0  0  0  0  0  0  0
  151.8159  144.0882  159.1569 C   0  0  1  0  0  0  0  0  0  0  0  0
  150.3741  144.1200  159.6952 C   0  0  0  0  0  0  0  0  0  0  0  0
  152.7588  143.7031  160.1596 O   0  0  0  0  0  0  0  0  0  0  0  0
  152.7016  142.3278  160.5365 C   0  0  2  0  0  0  0  0  0  0  0  0
  153.7681  142.0865  161.6099 C   0  0  0  0  0  0  0  0  0  0  0  0
  152.9223  141.4421  159.2969 C   0  0  0  0  0  0  0  0  0  0  0  0
  152.7499  139.8804  157.0717 N   0  0  0  0  0  0  0  0  0  0  0  0
  152.6219  138.9788  156.0758 C   0  0  0  0  0  0  0  0  0  0  0  0
  149.3161  132.4152  152.0137 H   0  0  0  0  0  0  0  0  0  0  0  0
  148.1765  133.6959  152.4530 H   0  0  0  0  0  0  0  0  0  0  0  0
  148.0971  132.1235  153.2632 H   0  0  0  0  0  0  0  0  0  0  0  0
  147.7932  133.6242  155.1694 H   0  0  0  0  0  0  0  0  0  0  0  0
  149.1030  133.9183  156.3028 H   0  0  0  0  0  0  0  0  0  0  0  0
  148.1407  135.8540  154.1261 H   0  0  0  0  0  0  0  0  0  0  0  0
  147.8564  136.0369  155.8443 H   0  0  0  0  0  0  0  0  0  0  0  0
  149.6750  137.0740  153.3318 H   0  0  0  0  0  0  0  0  0  0  0  0
  152.3568  137.3267  154.0626 H   0  0  0  0  0  0  0  0  0  0  0  0
  151.4510  138.4504  153.0851 H   0  0  0  0  0  0  0  0  0  0  0  0
  149.7413  140.0467  154.6074 H   0  0  0  0  0  0  0  0  0  0  0  0
  149.9718  141.7232  156.4209 H   0  0  0  0  0  0  0  0  0  0  0  0
  152.9336  143.4373  157.4181 H   0  0  0  0  0  0  0  0  0  0  0  0
  151.1933  143.4409  157.1871 H   0  0  0  0  0  0  0  0  0  0  0  0
  152.0695  145.1115  158.8790 H   0  0  0  0  0  0  0  0  0  0  0  0
  149.6957  144.5448  158.9551 H   0  0  0  0  0  0  0  0  0  0  0  0
  150.3082  144.7345  160.5933 H   0  0  0  0  0  0  0  0  0  0  0  0
  150.0009  143.1260  159.9405 H   0  0  0  0  0  0  0  0  0  0  0  0
  151.7283  142.1068  160.9750 H   0  0  0  0  0  0  0  0  0  0  0  0
  153.7595  141.0494  161.9461 H   0  0  0  0  0  0  0  0  0  0  0  0
  153.5937  142.7189  162.4808 H   0  0  0  0  0  0  0  0  0  0  0  0
  154.7661  142.3081  161.2311 H   0  0  0  0  0  0  0  0  0  0  0  0
  152.8435  140.3960  159.5886 H   0  0  0  0  0  0  0  0  0  0  0  0
  153.9313  141.5852  158.9076 H   0  0  0  0  0  0  0  0  0  0  0  0
  153.3975  138.2301  156.0119 H   0  0  0  0  0  0  0  0  0  0  0  0
  1  2  1  0  0  0  0
  1 23  1  0  0  0  0
  1 24  1  0  0  0  0
  1 25  1  0  0  0  0
  2  3  1  0  0  0  0
  3  4  1  0  0  0  0
  3 26  1  0  0  0  0
  3 27  1  0  0  0  0
  4  5  1  0  0  0  0
  4 28  1  0  0  0  0
  4 29  1  0  0  0  0
  5  6  2  0  0  0  0
  5  7  1  0  0  0  0
  7  8  1  0  0  0  0
  7 30  1  0  0  0  0
  8  9  1  0  0  0  0
  8 31  1  0  0  0  0
  8 32  1  0  0  0  0
  9 22  1  0  0  0  0
  9 10  2  0  0  0  0
 10 11  1  0  0  0  0
 10 33  1  0  0  0  0
 11 12  2  0  0  0  0
 11 34  1  0  0  0  0
 12 13  1  0  0  0  0
 12 21  1  0  0  0  0
 13 20  1  0  0  0  0
 13 14  1  0  0  0  0
 14 15  1  0  0  0  0
 14 35  1  0  0  0  0
 14 36  1  0  0  0  0
 15 16  1  0  0  0  0
 15 17  1  0  0  0  0
 15 37  1  0  0  0  0
 16 38  1  0  0  0  0
 16 39  1  0  0  0  0
 16 40  1  0  0  0  0
 17 18  1  0  0  0  0
 18 19  1  0  0  0  0
 18 20  1  0  0  0  0
 18 41  1  0  0  0  0
 19 42  1  0  0  0  0
 19 43  1  0  0  0  0
 19 44  1  0  0  0  0
 20 45  1  0  0  0  0
 20 46  1  0  0  0  0
 21 22  2  0  0  0  0
 22 47  1  0  0  0  0
M  END
> <s_m_source_file>
AV-unprocessed.smi

> <i_m_source_file_index>
2123

> <i_lp_mmshare_version>
43012

> <i_f3d_flags>
0

> <s_epik_input>
W0NIM11TW0NIMl1bQ0gyXUMoPU8pW05IXVtDSDJdYzFbY0hdW2NIXWMobltjSF0xKU4yW0NIMl1bQ0BASF0oW0NIM10pT1tDQEBIXShbQ0gzXSlbQ0gyXTI=

> <s_epik_cmdline>
J2VwaWtfcHl0aG9uJywgJy1waCcsICc3LjAnLCAnLXRuJywgJzgnLCAnLW1hJywgJzIwMCcsICctbWV0YWxfYmluZGluZycsICctaW1hZScsICc8aW5maWxlLm1hZT4nLCAnLW9tYWUnLCAnPG91dGZpbGUubWFlPic=

> <r_lp_tautomer_probability>
1

> <r_epik_Ionization_Penalty>
0.00642497

> <r_epik_Ionization_Penalty_Charging>
0

> <r_epik_Ionization_Penalty_Neutral>
0.00642497

> <r_epik_State_Penalty>
0.0047515

> <r_epik_Charging_Adjusted_Penalty>
0.0047515

> <i_epik_Tot_Q>
0

> <i_epik_Tot_abs_Q>
0

> <r_epik_Metal_State_Penalty>
-0

> <b_epik_Metal_Only>
0

> <s_lp_Force_Field>
OPLS_2005

> <r_lp_Energy>
17.9077

> <b_lp_Chiralities_Consistent>
1

> <s_lp_Variant>
AV-unprocessed.smi:2123-3

> <Gold.Version>
5.8.1

> <Gold.Id.Protein>
6NUR|6NUR_protein|mol2

> <Gold.PLP.Fitness>
49.1751

> <Gold.PLP.PLP>
-44.2453

> <Gold.PLP.part.hbond>
-2.7129

> <Gold.PLP.part.metal>
0.0000

> <Gold.PLP.part.buried>
-4.9761

> <Gold.PLP.part.nonpolar>
-37.2331

> <Gold.PLP.part.repulsive>
0.0662

> <Gold.PLP.ligand.clash>
0.0000

> <Gold.PLP.ligand.torsion>
0.4888

> <Gold.PLP.Chemscore.Hbond>
1.8160

> <Gold.PLP.Chemscore.CHOScore>
0.0000

> <Gold.PLP.Chemscore.Metal>
0.0000

> <Gold.Chemscore.Hbonds>
donor molecule, donor type, donor heavy atom, donor atom, acceptor molecule, acceptor atom, score
      L1  H     7    30       P1  7948  1.00
      P1  H  7997  8009       L1    21  0.70

> <Gold.PLP.Chemscore.Internal.Correction>
0.4594

> <Gold.Rescore>
     Score         DG    S(hbond)    S(metal)    S(lipo)     H(rot)  DE(clash)    DE(int)     intcor
     17.28     -18.04       0.98        0.00     116.80       1.70       0.16       0.60       ----

> <Gold.Chemscore.Fitness>
17.2813

> <Gold.Chemscore.DG>
-18.0407

> <Gold.Chemscore.ZeroCoef>
-5.4800

> <Gold.Chemscore.Hbond>
0.9758

> <Gold.Chemscore.Metal>
0.0000

> <Gold.Chemscore.Lipo>
116.8040

> <Gold.Chemscore.Internal_Hbond>
0.0000

> <Gold.Chemscore.DEClash>
0.1576

> <Gold.Chemscore.DEInternal>
0.6018

> <Gold.Chemscore.Rot>
1.7049

> <Gold.Chemscore.Internal.Correction>
   9.000000E+99

> <Gold.Chemscore.Hbonds>
donor molecule, donor type, donor heavy atom, donor atom, acceptor molecule, acceptor atom, score
      L1  H     7    30       P1  7948  0.64
      P1  H  7997  8009       L1    21  0.10

> <Gold.Chemscore.Hbond.Weighted>
-3.2593

> <Gold.Chemscore.Metal.Weighted>
-0.0000

> <Gold.Chemscore.Lipo.Weighted>
-13.6661

> <Gold.Chemscore.Internal_Hbond.Weighted>
0.0000

> <Gold.Chemscore.DEClash.Weighted>
0.1576

> <Gold.Chemscore.DEInternal.Weighted>
0.6018

> <Gold.Chemscore.Rot.Weighted>
4.3647

> <Gold.Chemscore.Internal.Correction.Weighted>
   9.000000E+99

> <Gold.Protein.RotatedTorsions>
[ 6907 6896 6895 6894 ] final   52.42 input  -60.11 | X-H torsion
[ 7974 7965 7964 7962 ] final  -94.72 input  175.53 | X-H torsion
[ 8008 7997 7996 7995 ] final  159.36 input   59.86 | X-H torsion
[ 10167 10162 10161 10158 ] final  114.11 input  -65.29 | X-H torsion
[ 10718 10713 10712 10709 ] final   24.24 input   66.30 | X-H torsion
[ 10763 10752 10751 10750 ] final  162.39 input  -60.55 | X-H torsion
[ 11005 11000 10999 10996 ] final  149.69 input  -57.11 | X-H torsion

> <Gold.Protein.ActiveResidues>
 VAL166  LYS551  ARG553  GLY616  TRP617  ASP618  TYR619  PRO620  LYS621  CYS622 
 ASP623  PHE694  ASN695  SER759  ASP760  ASP761  ALA762  ILE779  LEU786  VAL792 
 PHE793  MET794  SER795  GLU796  ALA797  LYS798  CYS799  TRP800  GLU811  SER814 

> <Gold.Protein.RotatedAtoms>
  152.3231  134.7355  160.0308 H   0  0  0  0  0  0  0  0  0  0  0  0  # atno 6907 bound_to 6896
  151.7797  133.3343  159.3476 H   0  0  0  0  0  0  0  0  0  0  0  0  # atno 6908 bound_to 6896
  150.7381  134.5874  159.6014 H   0  0  0  0  0  0  0  0  0  0  0  0  # atno 6909 bound_to 6896
  145.3695  140.9503  143.2455 H   0  0  0  0  0  0  0  0  0  0  0  0  # atno 7974 bound_to 7965
  156.2243  140.1833  156.7400 H   0  0  0  0  0  0  0  0  0  0  0  0  # atno 8008 bound_to 7997
  154.5916  140.0650  156.9275 H   0  0  0  0  0  0  0  0  0  0  0  0  # atno 8009 bound_to 7997
  155.2326  140.3316  155.4304 H   0  0  0  0  0  0  0  0  0  0  0  0  # atno 8010 bound_to 7997
  139.6412  144.7124  151.2233 H   0  0  0  0  0  0  0  0  0  0  0  0  # atno 10167 bound_to 10162
  157.1771  130.6786  149.6099 H   0  0  0  0  0  0  0  0  0  0  0  0  # atno 10718 bound_to 10713
  154.2777  135.2764  155.2711 H   0  0  0  0  0  0  0  0  0  0  0  0  # atno 10763 bound_to 10752
  154.5246  135.5747  153.6712 H   0  0  0  0  0  0  0  0  0  0  0  0  # atno 10764 bound_to 10752
  152.9934  135.6213  154.2935 H   0  0  0  0  0  0  0  0  0  0  0  0  # atno 10765 bound_to 10752
  140.1066  134.8950  157.1875 H   0  0  0  0  0  0  0  0  0  0  0  0  # atno 11005 bound_to 11000
  144.8587  139.5210  143.6822 LP  0  0  0  0  0  0  0  0  0  0  0  0  # atno 17320 bound_to 7965
  146.2892  139.7089  142.9173 LP  0  0  0  0  0  0  0  0  0  0  0  0  # atno 17321 bound_to 7965
  140.7492  143.6308  150.8425 LP  0  0  0  0  0  0  0  0  0  0  0  0  # atno 17342 bound_to 10162
  139.9946  143.5810  152.2898 LP  0  0  0  0  0  0  0  0  0  0  0  0  # atno 17343 bound_to 10162
  155.9729  130.4659  150.6270 LP  0  0  0  0  0  0  0  0  0  0  0  0  # atno 17370 bound_to 10713
  157.3988  131.0807  151.1328 LP  0  0  0  0  0  0  0  0  0  0  0  0  # atno 17371 bound_to 10713
  140.3147  134.2984  155.7259 LP  0  0  0  0  0  0  0  0  0  0  0  0  # atno 17394 bound_to 11000
  141.2120  133.7672  156.9826 LP  0  0  0  0  0  0  0  0  0  0  0  0  # atno 17395 bound_to 11000

$$$$
