AV-unprocessed.smi:2545|AV-procd|sdf|9996|dock5
  -GOLD-   2272014 43D 1   1.00000     0.00000
 Structure written by MMmdl.
 26 27  0  0  0  0  0  0  0  0  1 V2000
  149.5225  142.3690  155.0105 N   0  0  0  0  0  0  0  0  0  0  0  0
  148.7845  141.3126  154.4732 C   0  0  0  0  0  0  0  0  0  0  0  0
  147.4680  141.5395  154.0256 C   0  0  0  0  0  0  0  0  0  0  0  0
  146.7435  140.4580  153.4875 C   0  0  0  0  0  0  0  0  0  0  0  0
  147.2461  139.2107  153.3778 N   0  0  0  0  0  0  0  0  0  0  0  0
  148.5078  138.9990  153.8081 C   0  0  0  0  0  0  0  0  0  0  0  0
  149.3276  140.0096  154.3653 C   0  0  0  0  0  0  0  0  0  0  0  0
  150.6353  139.7364  154.8003 N   0  0  0  0  0  0  0  0  0  0  0  0
  150.8240  139.9301  156.2322 C   0  0  0  0  0  0  0  0  0  0  0  0
  152.3067  139.7392  156.5967 C   0  0  0  0  0  0  0  0  0  0  0  0
  152.7453  138.4562  156.1579 O   0  0  0  0  0  0  0  0  0  0  0  0
  152.6266  138.3040  154.7459 C   0  0  0  0  0  0  0  0  0  0  0  0
  151.1521  138.4563  154.3329 C   0  0  0  0  0  0  0  0  0  0  0  0
  150.4683  142.2436  155.3413 H   0  0  0  0  0  0  0  0  0  0  0  0
  149.1301  143.2974  155.0765 H   0  0  0  0  0  0  0  0  0  0  0  0
  147.0181  142.5194  154.0909 H   0  0  0  0  0  0  0  0  0  0  0  0
  145.7321  140.5993  153.1359 H   0  0  0  0  0  0  0  0  0  0  0  0
  148.8729  137.9875  153.7042 H   0  0  0  0  0  0  0  0  0  0  0  0
  150.4938  140.9300  156.5170 H   0  0  0  0  0  0  0  0  0  0  0  0
  150.2135  139.2166  156.7874 H   0  0  0  0  0  0  0  0  0  0  0  0
  152.9215  140.5195  156.1451 H   0  0  0  0  0  0  0  0  0  0  0  0
  152.4414  139.8122  157.6758 H   0  0  0  0  0  0  0  0  0  0  0  0
  153.2510  139.0398  154.2364 H   0  0  0  0  0  0  0  0  0  0  0  0
  152.9977  137.3195  154.4609 H   0  0  0  0  0  0  0  0  0  0  0  0
  150.5654  137.6404  154.7570 H   0  0  0  0  0  0  0  0  0  0  0  0
  151.0584  138.3932  153.2480 H   0  0  0  0  0  0  0  0  0  0  0  0
  1  2  1  0  0  0  0
  1 14  1  0  0  0  0
  1 15  1  0  0  0  0
  2  7  1  0  0  0  0
  2  3  2  0  0  0  0
  3  4  1  0  0  0  0
  3 16  1  0  0  0  0
  4  5  2  0  0  0  0
  4 17  1  0  0  0  0
  5  6  1  0  0  0  0
  6  7  2  0  0  0  0
  6 18  1  0  0  0  0
  7  8  1  0  0  0  0
  8 13  1  0  0  0  0
  8  9  1  0  0  0  0
  9 10  1  0  0  0  0
  9 19  1  0  0  0  0
  9 20  1  0  0  0  0
 10 11  1  0  0  0  0
 10 21  1  0  0  0  0
 10 22  1  0  0  0  0
 11 12  1  0  0  0  0
 12 13  1  0  0  0  0
 12 23  1  0  0  0  0
 12 24  1  0  0  0  0
 13 25  1  0  0  0  0
 13 26  1  0  0  0  0
M  END
> <s_m_source_file>
AV-unprocessed.smi

> <i_m_source_file_index>
2545

> <i_lp_mmshare_version>
43012

> <i_f3d_flags>
0

> <s_epik_input>
W05IMl1jMVtjSF1bY0hdbltjSF1jMU4yW0NIMl1bQ0gyXU9bQ0gyXVtDSDJdMg==

> <s_epik_cmdline>
J2VwaWtfcHl0aG9uJywgJy1waCcsICc3LjAnLCAnLXRuJywgJzgnLCAnLW1hJywgJzIwMCcsICctbWV0YWxfYmluZGluZycsICctaW1hZScsICc8aW5maWxlLm1hZT4nLCAnLW9tYWUnLCAnPG91dGZpbGUubWFlPic=

> <r_lp_tautomer_probability>
0.999999

> <r_epik_Ionization_Penalty>
2.28846

> <r_epik_Ionization_Penalty_Charging>
0

> <r_epik_Ionization_Penalty_Neutral>
2.28846

> <r_epik_State_Penalty>
2.43827

> <r_epik_Charging_Adjusted_Penalty>
2.43827

> <i_epik_Tot_Q>
0

> <i_epik_Tot_abs_Q>
0

> <r_epik_Metal_State_Penalty>
0.0346758

> <b_epik_Metal_Only>
0

> <s_lp_Force_Field>
OPLS_2005

> <r_lp_Energy>
24.1362

> <b_lp_Chiralities_Consistent>
1

> <s_lp_Variant>
AV-unprocessed.smi:2545-2

> <Gold.Version>
5.8.1

> <Gold.Id.Protein>
6NUR|6NUR_protein|mol2

> <Gold.PLP.Fitness>
34.0253

> <Gold.PLP.PLP>
-22.8589

> <Gold.PLP.part.hbond>
-2.2186

> <Gold.PLP.part.metal>
0.0000

> <Gold.PLP.part.buried>
0.0045

> <Gold.PLP.part.nonpolar>
-21.7884

> <Gold.PLP.part.repulsive>
0.7137

> <Gold.PLP.ligand.clash>
0.0023

> <Gold.PLP.ligand.torsion>
0.1828

> <Gold.PLP.Chemscore.Hbond>
1.8075

> <Gold.PLP.Chemscore.CHOScore>
2.0000

> <Gold.PLP.Chemscore.Metal>
0.0000

> <Gold.Chemscore.Hbonds>
donor molecule, donor type, donor heavy atom, donor atom, acceptor molecule, acceptor atom, score
      L1  H     1    15       P1  8028  1.00
      P1  H  7989  7998       L1     8  0.76
      L1  C     4    17       P1 10175  1.00
      L1  C     6    18       P1  7948  1.00

> <Gold.PLP.Chemscore.Internal.Correction>
0.1119

> <Gold.Rescore>
     Score         DG    S(hbond)    S(metal)    S(lipo)     H(rot)  DE(clash)    DE(int)     intcor
     12.25     -13.95       1.04        0.00      64.65       1.00       0.52       1.18       ----

> <Gold.Chemscore.Fitness>
12.2523

> <Gold.Chemscore.DG>
-13.9499

> <Gold.Chemscore.ZeroCoef>
-5.4800

> <Gold.Chemscore.Hbond>
1.0378

> <Gold.Chemscore.Metal>
0.0000

> <Gold.Chemscore.Lipo>
64.6461

> <Gold.Chemscore.Internal_Hbond>
0.0000

> <Gold.Chemscore.DEClash>
0.5172

> <Gold.Chemscore.DEInternal>
1.1804

> <Gold.Chemscore.Rot>
1.0000

> <Gold.Chemscore.Internal.Correction>
   9.000000E+99

> <Gold.Chemscore.Hbonds>
donor molecule, donor type, donor heavy atom, donor atom, acceptor molecule, acceptor atom, score
      L1  H     1    15       P1  8028  0.94
      P1  H  7989  7998       L1     8  0.02

> <Gold.Chemscore.Hbond.Weighted>
-3.4663

> <Gold.Chemscore.Metal.Weighted>
-0.0000

> <Gold.Chemscore.Lipo.Weighted>
-7.5636

> <Gold.Chemscore.Internal_Hbond.Weighted>
0.0000

> <Gold.Chemscore.DEClash.Weighted>
0.5172

> <Gold.Chemscore.DEInternal.Weighted>
1.1804

> <Gold.Chemscore.Rot.Weighted>
2.5600

> <Gold.Chemscore.Internal.Correction.Weighted>
   9.000000E+99

> <Gold.Protein.RotatedTorsions>
[ 6907 6896 6895 6894 ] final  -22.73 input  -60.11 | X-H torsion
[ 7974 7965 7964 7962 ] final   89.01 input  175.53 | X-H torsion
[ 8008 7997 7996 7995 ] final  -30.91 input   59.86 | X-H torsion
[ 10167 10162 10161 10158 ] final -144.64 input  -65.29 | X-H torsion
[ 10718 10713 10712 10709 ] final   17.65 input   66.30 | X-H torsion
[ 10763 10752 10751 10750 ] final  -36.03 input  -60.55 | X-H torsion
[ 11005 11000 10999 10996 ] final -143.93 input  -57.11 | X-H torsion

> <Gold.Protein.ActiveResidues>
 VAL166  LYS551  ARG553  GLY616  TRP617  ASP618  TYR619  PRO620  LYS621  CYS622 
 ASP623  PHE694  ASN695  SER759  ASP760  ASP761  ALA762  ILE779  LEU786  VAL792 
 PHE793  MET794  SER795  GLU796  ALA797  LYS798  CYS799  TRP800  GLU811  SER814 

> <Gold.Protein.RotatedAtoms>
  151.2143  135.0493  159.8923 H   0  0  0  0  0  0  0  0  0  0  0  0  # atno 6907 bound_to 6896
  152.5421  134.0710  159.8204 H   0  0  0  0  0  0  0  0  0  0  0  0  # atno 6908 bound_to 6896
  151.0868  133.5299  159.2649 H   0  0  0  0  0  0  0  0  0  0  0  0  # atno 6909 bound_to 6896
  145.5381  139.2287  143.2581 H   0  0  0  0  0  0  0  0  0  0  0  0  # atno 7974 bound_to 7965
  154.4233  140.1778  156.1483 H   0  0  0  0  0  0  0  0  0  0  0  0  # atno 8008 bound_to 7997
  155.9936  140.3366  155.6752 H   0  0  0  0  0  0  0  0  0  0  0  0  # atno 8009 bound_to 7997
  155.6339  140.0673  157.2631 H   0  0  0  0  0  0  0  0  0  0  0  0  # atno 8010 bound_to 7997
  139.7880  143.8007  152.2647 H   0  0  0  0  0  0  0  0  0  0  0  0  # atno 10167 bound_to 10162
  157.0851  130.6404  149.5835 H   0  0  0  0  0  0  0  0  0  0  0  0  # atno 10718 bound_to 10713
  153.8731  135.6829  153.4773 H   0  0  0  0  0  0  0  0  0  0  0  0  # atno 10763 bound_to 10752
  153.1276  135.4712  154.9295 H   0  0  0  0  0  0  0  0  0  0  0  0  # atno 10764 bound_to 10752
  154.7705  135.3237  154.8150 H   0  0  0  0  0  0  0  0  0  0  0  0  # atno 10765 bound_to 10752
  140.8076  134.2783  157.4954 H   0  0  0  0  0  0  0  0  0  0  0  0  # atno 11005 bound_to 11000
  146.2000  140.6200  142.9107 LP  0  0  0  0  0  0  0  0  0  0  0  0  # atno 17320 bound_to 7965
  144.7591  140.5379  143.6748 LP  0  0  0  0  0  0  0  0  0  0  0  0  # atno 17321 bound_to 7965
  139.8089  144.7344  150.9723 LP  0  0  0  0  0  0  0  0  0  0  0  0  # atno 17342 bound_to 10162
  140.7820  143.4270  151.0753 LP  0  0  0  0  0  0  0  0  0  0  0  0  # atno 17343 bound_to 10162
  155.9913  130.4967  150.7293 LP  0  0  0  0  0  0  0  0  0  0  0  0  # atno 17370 bound_to 10713
  157.4768  131.0898  151.0581 LP  0  0  0  0  0  0  0  0  0  0  0  0  # atno 17371 bound_to 10713
  139.8716  134.9465  156.3940 LP  0  0  0  0  0  0  0  0  0  0  0  0  # atno 17394 bound_to 11000
  140.9231  133.7631  155.9931 LP  0  0  0  0  0  0  0  0  0  0  0  0  # atno 17395 bound_to 11000

$$$$
