AV-unprocessed.smi:1174|AV-procd|sdf|4946|dock1
  -GOLD-   22720 3533D 1   1.00000     0.00000
 Structure written by MMmdl.
 41 42  0  0  0  0  0  0  0  0  1 V2000
  147.9280  131.9404  153.4047 C   0  0  0  0  0  0  0  0  0  0  0  0
  147.4664  133.3990  153.2745 C   0  0  2  0  0  0  0  0  0  0  0  0
  147.0206  133.7359  151.8379 C   0  0  0  0  0  0  0  0  0  0  0  0
  145.7954  133.0463  151.4684 N   0  0  0  0  0  0  0  0  0  0  0  0
  145.6126  131.7051  151.2052 C   0  0  0  0  0  0  0  0  0  0  0  0
  144.2878  131.5218  150.9289 C   0  0  0  0  0  0  0  0  0  0  0  0
  143.7330  132.8266  151.0512 C   0  0  0  0  0  0  0  0  0  0  0  0
  144.6383  133.7374  151.3700 N   0  0  0  0  0  0  0  0  0  0  0  0
  148.5406  134.3011  153.6802 N   0  0  0  0  0  0  0  0  0  0  0  0
  149.0960  134.3580  154.8991 C   0  0  0  0  0  0  0  0  0  0  0  0
  148.8443  133.5553  155.7982 O   0  0  0  0  0  0  0  0  0  0  0  0
  150.0585  135.5254  155.1454 C   0  0  2  0  0  0  0  0  0  0  0  0
  150.9119  135.3116  156.4163 C   0  0  0  0  0  0  0  0  0  0  0  0
  151.7784  136.5472  156.7283 C   0  0  0  0  0  0  0  0  0  0  0  0
  150.9288  137.8319  156.7373 C   0  0  0  0  0  0  0  0  0  0  0  0
  150.2326  137.9524  155.4446 N   0  0  0  0  0  0  0  0  0  0  0  0
  150.5398  138.8153  154.4436 C   0  0  0  0  0  0  0  0  0  0  0  0
  150.0349  138.5023  153.2462 N   0  0  0  0  0  0  0  0  0  0  0  0
  151.2595  139.8026  154.5877 O   0  0  0  0  0  0  0  0  0  0  0  0
  149.2784  136.8542  155.2508 C   0  0  0  0  0  0  0  0  0  0  0  0
  147.1322  131.2519  153.1191 H   0  0  0  0  0  0  0  0  0  0  0  0
  148.2098  131.7068  154.4321 H   0  0  0  0  0  0  0  0  0  0  0  0
  148.7896  131.7374  152.7678 H   0  0  0  0  0  0  0  0  0  0  0  0
  146.6058  133.5412  153.9311 H   0  0  0  0  0  0  0  0  0  0  0  0
  146.8744  134.8114  151.7219 H   0  0  0  0  0  0  0  0  0  0  0  0
  147.7964  133.4486  151.1273 H   0  0  0  0  0  0  0  0  0  0  0  0
  146.4303  131.0006  151.2418 H   0  0  0  0  0  0  0  0  0  0  0  0
  143.7895  130.5964  150.6810 H   0  0  0  0  0  0  0  0  0  0  0  0
  142.7071  133.1368  150.9184 H   0  0  0  0  0  0  0  0  0  0  0  0
  148.8141  135.0046  153.0091 H   0  0  0  0  0  0  0  0  0  0  0  0
  150.7357  135.5965  154.2916 H   0  0  0  0  0  0  0  0  0  0  0  0
  150.2637  135.1146  157.2715 H   0  0  0  0  0  0  0  0  0  0  0  0
  151.5481  134.4329  156.3024 H   0  0  0  0  0  0  0  0  0  0  0  0
  152.2773  136.4195  157.6893 H   0  0  0  0  0  0  0  0  0  0  0  0
  152.5666  136.6385  155.9798 H   0  0  0  0  0  0  0  0  0  0  0  0
  150.1890  137.7810  157.5374 H   0  0  0  0  0  0  0  0  0  0  0  0
  151.5586  138.6870  156.9812 H   0  0  0  0  0  0  0  0  0  0  0  0
  150.2176  139.0972  152.4515 H   0  0  0  0  0  0  0  0  0  0  0  0
  149.4705  137.6715  153.1441 H   0  0  0  0  0  0  0  0  0  0  0  0
  148.6529  136.9995  154.3678 H   0  0  0  0  0  0  0  0  0  0  0  0
  148.5884  136.8285  156.0959 H   0  0  0  0  0  0  0  0  0  0  0  0
  1  2  1  0  0  0  0
  1 21  1  0  0  0  0
  1 22  1  0  0  0  0
  1 23  1  0  0  0  0
  2  3  1  0  0  0  0
  2  9  1  0  0  0  0
  2 24  1  0  0  0  0
  3  4  1  0  0  0  0
  3 25  1  0  0  0  0
  3 26  1  0  0  0  0
  4  8  1  0  0  0  0
  4  5  1  0  0  0  0
  5  6  2  0  0  0  0
  5 27  1  0  0  0  0
  6  7  1  0  0  0  0
  6 28  1  0  0  0  0
  7  8  2  0  0  0  0
  7 29  1  0  0  0  0
  9 10  1  0  0  0  0
  9 30  1  0  0  0  0
 10 11  2  0  0  0  0
 10 12  1  0  0  0  0
 12 20  1  0  0  0  0
 12 13  1  0  0  0  0
 12 31  1  0  0  0  0
 13 14  1  0  0  0  0
 13 32  1  0  0  0  0
 13 33  1  0  0  0  0
 14 15  1  0  0  0  0
 14 34  1  0  0  0  0
 14 35  1  0  0  0  0
 15 16  1  0  0  0  0
 15 36  1  0  0  0  0
 15 37  1  0  0  0  0
 16 17  1  0  0  0  0
 16 20  1  0  0  0  0
 17 18  1  0  0  0  0
 17 19  2  0  0  0  0
 18 38  1  0  0  0  0
 18 39  1  0  0  0  0
 20 40  1  0  0  0  0
 20 41  1  0  0  0  0
M  END
> <s_m_source_file>
AV-unprocessed.smi

> <i_m_source_file_index>
1174

> <i_lp_mmshare_version>
43012

> <i_f3d_flags>
0

> <s_epik_input>
bjFbY0hdW2NIXVtjSF1uMVtDSDJdW0NAQEhdKFtDSDNdKVtOSF1DKD1PKVtDQEBIXTJbQ0gyXVtDSDJdW0NIMl1OKFtDSDJdMilDKD1PKVtOSDJd

> <s_epik_cmdline>
J2VwaWtfcHl0aG9uJywgJy1waCcsICc3LjAnLCAnLXRuJywgJzgnLCAnLW1hJywgJzIwMCcsICctbWV0YWxfYmluZGluZycsICctaW1hZScsICc8aW5maWxlLm1hZT4nLCAnLW9tYWUnLCAnPG91dGZpbGUubWFlPic=

> <r_lp_tautomer_probability>
1

> <r_epik_Ionization_Penalty>
0.000372452

> <r_epik_Ionization_Penalty_Charging>
0

> <r_epik_Ionization_Penalty_Neutral>
0.000372452

> <r_epik_State_Penalty>
-0

> <r_epik_Charging_Adjusted_Penalty>
0

> <i_epik_Tot_Q>
0

> <i_epik_Tot_abs_Q>
0

> <r_epik_Metal_State_Penalty>
-0

> <b_epik_Metal_Only>
0

> <s_lp_Force_Field>
OPLS_2005

> <r_lp_Energy>
26.8287

> <b_lp_Chiralities_Consistent>
1

> <s_lp_Variant>
AV-unprocessed.smi:1174-1

> <Gold.Version>
5.8.1

> <Gold.Id.Protein>
6NUR|6NUR_protein|mol2

> <Gold.PLP.Fitness>
47.0934

> <Gold.PLP.PLP>
-32.3424

> <Gold.PLP.part.hbond>
-4.0220

> <Gold.PLP.part.metal>
0.0000

> <Gold.PLP.part.buried>
-3.4478

> <Gold.PLP.part.nonpolar>
-23.8400

> <Gold.PLP.part.repulsive>
0.2999

> <Gold.PLP.ligand.clash>
1.6907

> <Gold.PLP.ligand.torsion>
0.6030

> <Gold.PLP.Chemscore.Hbond>
3.8480

> <Gold.PLP.Chemscore.CHOScore>
1.9831

> <Gold.PLP.Chemscore.Metal>
0.0000

> <Gold.Chemscore.Hbonds>
donor molecule, donor type, donor heavy atom, donor atom, acceptor molecule, acceptor atom, score
      L1  H     9    30       P1  7948  1.00
      L1  H    18    38       P1  7957  0.99
      L1  H    18    39       P1  7948  0.83
      P1  H  7989  7998       L1    19  1.00
      L1  C     5    27       P1 10747  0.52
      L1  C     7    29       P1 10186  1.00

> <Gold.PLP.Chemscore.Internal.Correction>
0.1545

> <Gold.Rescore>
     Score         DG    S(hbond)    S(metal)    S(lipo)     H(rot)  DE(clash)    DE(int)     intcor
     18.32     -18.97       3.29        0.00      61.25       1.82       0.15       0.49       ----

> <Gold.Chemscore.Fitness>
18.3225

> <Gold.Chemscore.DG>
-18.9672

> <Gold.Chemscore.ZeroCoef>
-5.4800

> <Gold.Chemscore.Hbond>
3.2881

> <Gold.Chemscore.Metal>
0.0000

> <Gold.Chemscore.Lipo>
61.2458

> <Gold.Chemscore.Internal_Hbond>
0.0000

> <Gold.Chemscore.DEClash>
0.1544

> <Gold.Chemscore.DEInternal>
0.4903

> <Gold.Chemscore.Rot>
1.8206

> <Gold.Chemscore.Internal.Correction>
   9.000000E+99

> <Gold.Chemscore.Hbonds>
donor molecule, donor type, donor heavy atom, donor atom, acceptor molecule, acceptor atom, score
      L1  H     9    30       P1  7948  0.30
      L1  H    18    38       P1  7957  0.37
      L1  H    18    39       P1  7948  0.74
      P1  H  7989  7998       L1    19  0.97

> <Gold.Chemscore.Hbond.Weighted>
-10.9821

> <Gold.Chemscore.Metal.Weighted>
-0.0000

> <Gold.Chemscore.Lipo.Weighted>
-7.1658

> <Gold.Chemscore.Internal_Hbond.Weighted>
0.0000

> <Gold.Chemscore.DEClash.Weighted>
0.1544

> <Gold.Chemscore.DEInternal.Weighted>
0.4903

> <Gold.Chemscore.Rot.Weighted>
4.6607

> <Gold.Chemscore.Internal.Correction.Weighted>
   9.000000E+99

> <Gold.Protein.RotatedTorsions>
[ 6907 6896 6895 6894 ] final   94.20 input  -60.11 | X-H torsion
[ 7974 7965 7964 7962 ] final -125.41 input  175.53 | X-H torsion
[ 8008 7997 7996 7995 ] final   41.60 input   59.86 | X-H torsion
[ 10167 10162 10161 10158 ] final  117.26 input  -65.29 | X-H torsion
[ 10718 10713 10712 10709 ] final  -51.01 input   66.30 | X-H torsion
[ 10763 10752 10751 10750 ] final  -74.27 input  -60.55 | X-H torsion
[ 11005 11000 10999 10996 ] final  -61.68 input  -57.11 | X-H torsion

> <Gold.Protein.ActiveResidues>
 VAL166  LYS551  ARG553  GLY616  TRP617  ASP618  TYR619  PRO620  LYS621  CYS622 
 ASP623  PHE694  ASN695  SER759  ASP760  ASP761  ALA762  ILE779  LEU786  VAL792 
 PHE793  MET794  SER795  GLU796  ALA797  LYS798  CYS799  TRP800  GLU811  SER814 

> <Gold.Protein.RotatedAtoms>
  152.5450  134.1230  159.8406 H   0  0  0  0  0  0  0  0  0  0  0  0  # atno 6907 bound_to 6896
  151.1284  133.5047  159.2607 H   0  0  0  0  0  0  0  0  0  0  0  0  # atno 6908 bound_to 6896
  151.1702  135.0324  159.8803 H   0  0  0  0  0  0  0  0  0  0  0  0  # atno 6909 bound_to 6896
  144.9978  140.7793  143.4514 H   0  0  0  0  0  0  0  0  0  0  0  0  # atno 7974 bound_to 7965
  155.2724  140.3367  155.4264 H   0  0  0  0  0  0  0  0  0  0  0  0  # atno 8008 bound_to 7997
  156.2127  140.1776  156.7701 H   0  0  0  0  0  0  0  0  0  0  0  0  # atno 8009 bound_to 7997
  154.5709  140.0670  156.8947 H   0  0  0  0  0  0  0  0  0  0  0  0  # atno 8010 bound_to 7997
  139.6190  144.7097  151.2675 H   0  0  0  0  0  0  0  0  0  0  0  0  # atno 10167 bound_to 10162
  156.1748  130.4150  149.9593 H   0  0  0  0  0  0  0  0  0  0  0  0  # atno 10718 bound_to 10713
  154.4708  135.5870  153.6320 H   0  0  0  0  0  0  0  0  0  0  0  0  # atno 10763 bound_to 10752
  152.9834  135.6066  154.3369 H   0  0  0  0  0  0  0  0  0  0  0  0  # atno 10764 bound_to 10752
  154.3251  135.2843  155.2479 H   0  0  0  0  0  0  0  0  0  0  0  0  # atno 10765 bound_to 10752
  141.1333  133.6632  156.5413 H   0  0  0  0  0  0  0  0  0  0  0  0  # atno 11005 bound_to 11000
  145.2195  139.2166  143.5100 LP  0  0  0  0  0  0  0  0  0  0  0  0  # atno 17320 bound_to 7965
  146.3445  140.2050  142.8589 LP  0  0  0  0  0  0  0  0  0  0  0  0  # atno 17321 bound_to 7965
  140.7370  143.6691  150.8097 LP  0  0  0  0  0  0  0  0  0  0  0  0  # atno 17342 bound_to 10162
  140.0299  143.5455  152.2764 LP  0  0  0  0  0  0  0  0  0  0  0  0  # atno 17343 bound_to 10162
  156.7382  130.9069  151.3630 LP  0  0  0  0  0  0  0  0  0  0  0  0  # atno 17370 bound_to 10713
  157.6828  130.9156  150.0310 LP  0  0  0  0  0  0  0  0  0  0  0  0  # atno 17371 bound_to 10713
  140.4138  134.7249  157.4851 LP  0  0  0  0  0  0  0  0  0  0  0  0  # atno 17394 bound_to 11000
  140.0408  134.6269  155.8983 LP  0  0  0  0  0  0  0  0  0  0  0  0  # atno 17395 bound_to 11000

$$$$
