AV-unprocessed.smi:1587|AV-procd|sdf|6388|dock2
  -GOLD-   22720 7 23D 1   1.00000     0.00000
 Structure written by MMmdl.
 37 38  0  0  0  0  0  0  0  0  2 V2000
  150.8322  140.5870  156.1407 O   0  0  0  0  0  0  0  0  0  0  0  0
  150.4136  141.6997  155.8191 C   0  0  0  0  0  0  0  0  0  0  0  0
  149.5987  141.9033  154.7737 N   0  0  0  0  0  0  0  0  0  0  0  0
  149.1005  140.8529  153.8929 C   0  0  0  0  0  0  0  0  0  0  0  0
  147.6830  141.1714  153.3794 C   0  0  0  0  0  0  0  0  0  0  0  0
  147.0293  139.9947  152.7547 N   0  3  0  0  0  0  0  0  0  0  0  0
  147.7488  139.5264  151.5458 C   0  0  0  0  0  0  0  0  0  0  0  0
  147.0131  138.3368  150.9066 C   0  0  0  0  0  0  0  0  0  0  0  0
  146.8786  137.2914  151.8608 O   0  0  0  0  0  0  0  0  0  0  0  0
  146.1133  137.6970  152.9886 C   0  0  0  0  0  0  0  0  0  0  0  0
  146.8150  138.8680  153.6973 C   0  0  0  0  0  0  0  0  0  0  0  0
  150.7023  142.8531  156.4474 N   0  0  0  0  0  0  0  0  0  0  0  0
  151.5337  143.0488  157.5826 C   0  0  0  0  0  0  0  0  0  0  0  0
  151.6461  144.3882  158.0194 C   0  0  0  0  0  0  0  0  0  0  0  0
  152.4498  144.6876  159.1366 C   0  0  0  0  0  0  0  0  0  0  0  0
  153.1211  143.6383  159.7892 C   0  0  0  0  0  0  0  0  0  0  0  0
  152.9552  142.3332  159.2902 C   0  0  0  0  0  0  0  0  0  0  0  0
  152.1858  142.0441  158.2195 N   0  0  0  0  0  0  0  0  0  0  0  0
  149.2987  142.8472  154.5774 H   0  0  0  0  0  0  0  0  0  0  0  0
  149.8029  140.7154  153.0703 H   0  0  0  0  0  0  0  0  0  0  0  0
  149.0914  139.9172  154.4525 H   0  0  0  0  0  0  0  0  0  0  0  0
  147.0836  141.5046  154.2281 H   0  0  0  0  0  0  0  0  0  0  0  0
  147.6960  141.9998  152.6694 H   0  0  0  0  0  0  0  0  0  0  0  0
  147.8270  140.3385  150.8218 H   0  0  0  0  0  0  0  0  0  0  0  0
  148.7660  139.2361  151.8140 H   0  0  0  0  0  0  0  0  0  0  0  0
  146.0317  138.6376  150.5365 H   0  0  0  0  0  0  0  0  0  0  0  0
  147.5756  137.9635  150.0506 H   0  0  0  0  0  0  0  0  0  0  0  0
  145.1049  137.9761  152.6785 H   0  0  0  0  0  0  0  0  0  0  0  0
  146.0141  136.8514  153.6696 H   0  0  0  0  0  0  0  0  0  0  0  0
  147.7749  138.5371  154.0970 H   0  0  0  0  0  0  0  0  0  0  0  0
  146.2100  139.1873  154.5451 H   0  0  0  0  0  0  0  0  0  0  0  0
  150.2806  143.6890  156.0707 H   0  0  0  0  0  0  0  0  0  0  0  0
  151.1234  145.1828  157.5069 H   0  0  0  0  0  0  0  0  0  0  0  0
  152.5488  145.7047  159.4859 H   0  0  0  0  0  0  0  0  0  0  0  0
  153.7461  143.8282  160.6491 H   0  0  0  0  0  0  0  0  0  0  0  0
  153.4534  141.4992  159.7622 H   0  0  0  0  0  0  0  0  0  0  0  0
  146.1184  140.2996  152.4423 H   0  0  0  0  0  0  0  0  0  0  0  0
  1  2  2  0  0  0  0
  2  3  1  0  0  0  0
  2 12  1  0  0  0  0
  3  4  1  0  0  0  0
  3 19  1  0  0  0  0
  4  5  1  0  0  0  0
  4 20  1  0  0  0  0
  4 21  1  0  0  0  0
  5  6  1  0  0  0  0
  5 22  1  0  0  0  0
  5 23  1  0  0  0  0
  6 11  1  0  0  0  0
  6  7  1  0  0  0  0
  6 37  1  0  0  0  0
  7  8  1  0  0  0  0
  7 24  1  0  0  0  0
  7 25  1  0  0  0  0
  8  9  1  0  0  0  0
  8 26  1  0  0  0  0
  8 27  1  0  0  0  0
  9 10  1  0  0  0  0
 10 11  1  0  0  0  0
 10 28  1  0  0  0  0
 10 29  1  0  0  0  0
 11 30  1  0  0  0  0
 11 31  1  0  0  0  0
 12 13  1  0  0  0  0
 12 32  1  0  0  0  0
 13 18  1  0  0  0  0
 13 14  2  0  0  0  0
 14 15  1  0  0  0  0
 14 33  1  0  0  0  0
 15 16  2  0  0  0  0
 15 34  1  0  0  0  0
 16 17  1  0  0  0  0
 16 35  1  0  0  0  0
 17 18  2  0  0  0  0
 17 36  1  0  0  0  0
M  CHG  1   6   1
M  END
> <s_m_source_file>
AV-unprocessed.smi

> <i_m_source_file_index>
1587

> <i_lp_mmshare_version>
43012

> <i_f3d_flags>
0

> <s_epik_input>
bjFbY0hdW2NIXVtjSF1bY0hdYzFbTkhdQyg9TylbTkhdW0NIMl1bQ0gyXU4yW0NIMl1bQ0gyXU9bQ0gyXVtDSDJdMg==

> <s_epik_cmdline>
J2VwaWtfcHl0aG9uJywgJy1waCcsICc3LjAnLCAnLXRuJywgJzgnLCAnLW1hJywgJzIwMCcsICctbWV0YWxfYmluZGluZycsICctaW1hZScsICc8aW5maWxlLm1hZT4nLCAnLW9tYWUnLCAnPG91dGZpbGUubWFlPic=

> <r_epik_Ionization_Penalty>
0.602565

> <r_epik_Ionization_Penalty_Charging>
0.602531

> <r_epik_Ionization_Penalty_Neutral>
3.41998e-05

> <r_epik_State_Penalty>
0.617039

> <r_epik_Charging_Adjusted_Penalty>
1.21957

> <i_epik_Tot_Q>
1

> <i_epik_Tot_abs_Q>
1

> <r_epik_Metal_State_Penalty>
0.617041

> <b_epik_Metal_Only>
0

> <s_lp_Force_Field>
OPLS_2005

> <r_lp_Energy>
15.9912

> <b_lp_Chiralities_Consistent>
1

> <s_lp_Variant>
AV-unprocessed.smi:1587-2

> <Gold.Version>
5.8.1

> <Gold.Id.Protein>
6NUR|6NUR_protein|mol2

> <Gold.PLP.Fitness>
48.2518

> <Gold.PLP.PLP>
-37.1496

> <Gold.PLP.part.hbond>
-3.0000

> <Gold.PLP.part.metal>
0.0000

> <Gold.PLP.part.buried>
-0.0952

> <Gold.PLP.part.nonpolar>
-35.8433

> <Gold.PLP.part.repulsive>
0.8833

> <Gold.PLP.ligand.clash>
0.0000

> <Gold.PLP.ligand.torsion>
0.2330

> <Gold.PLP.Chemscore.Hbond>
3.8480

> <Gold.PLP.Chemscore.CHOScore>
0.0000

> <Gold.PLP.Chemscore.Metal>
0.0000

> <Gold.Chemscore.Hbonds>
donor molecule, donor type, donor heavy atom, donor atom, acceptor molecule, acceptor atom, score
      L1  H     3    19       P1  8028  0.49
      L1  H    12    32       P1  8028  1.00

> <Gold.PLP.Chemscore.Internal.Correction>
0.0242

> <Gold.Rescore>
     Score         DG    S(hbond)    S(metal)    S(lipo)     H(rot)  DE(clash)    DE(int)     intcor
     17.18     -22.60       2.79        0.00     101.73       1.60       3.61       1.81       ----

> <Gold.Chemscore.Fitness>
17.1769

> <Gold.Chemscore.DG>
-22.6032

> <Gold.Chemscore.ZeroCoef>
-5.4800

> <Gold.Chemscore.Hbond>
2.7879

> <Gold.Chemscore.Metal>
0.0000

> <Gold.Chemscore.Lipo>
101.7324

> <Gold.Chemscore.Internal_Hbond>
0.0000

> <Gold.Chemscore.DEClash>
3.6119

> <Gold.Chemscore.DEInternal>
1.8145

> <Gold.Chemscore.Rot>
1.5981

> <Gold.Chemscore.Internal.Correction>
   9.000000E+99

> <Gold.Chemscore.Hbonds>
donor molecule, donor type, donor heavy atom, donor atom, acceptor molecule, acceptor atom, score
      L1  H     3    19       P1  8028  0.50
      L1  H     6    37       P1 10175  0.04
      L1  H    12    32       P1  8028  0.98

> <Gold.Chemscore.Hbond.Weighted>
-9.3116

> <Gold.Chemscore.Metal.Weighted>
-0.0000

> <Gold.Chemscore.Lipo.Weighted>
-11.9027

> <Gold.Chemscore.Internal_Hbond.Weighted>
0.0000

> <Gold.Chemscore.DEClash.Weighted>
3.6119

> <Gold.Chemscore.DEInternal.Weighted>
1.8145

> <Gold.Chemscore.Rot.Weighted>
4.0911

> <Gold.Chemscore.Internal.Correction.Weighted>
   9.000000E+99

> <Gold.Protein.RotatedTorsions>
[ 6907 6896 6895 6894 ] final  157.53 input  -60.11 | X-H torsion
[ 7974 7965 7964 7962 ] final   41.11 input  175.53 | X-H torsion
[ 8008 7997 7996 7995 ] final   17.33 input   59.86 | X-H torsion
[ 10167 10162 10161 10158 ] final  102.95 input  -65.29 | X-H torsion
[ 10718 10713 10712 10709 ] final -117.42 input   66.30 | X-H torsion
[ 10763 10752 10751 10750 ] final   49.40 input  -60.55 | X-H torsion
[ 11005 11000 10999 10996 ] final  -95.14 input  -57.11 | X-H torsion

> <Gold.Protein.ActiveResidues>
 VAL166  LYS551  ARG553  GLY616  TRP617  ASP618  TYR619  PRO620  LYS621  CYS622 
 ASP623  PHE694  ASN695  SER759  ASP760  ASP761  ALA762  ILE779  LEU786  VAL792 
 PHE793  MET794  SER795  GLU796  ALA797  LYS798  CYS799  TRP800  GLU811  SER814 

> <Gold.Protein.RotatedAtoms>
  152.0137  133.3871  159.4229 H   0  0  0  0  0  0  0  0  0  0  0  0  # atno 6907 bound_to 6896
  150.6897  134.3702  159.4998 H   0  0  0  0  0  0  0  0  0  0  0  0  # atno 6908 bound_to 6896
  152.1466  134.9020  160.0601 H   0  0  0  0  0  0  0  0  0  0  0  0  # atno 6909 bound_to 6896
  146.0850  139.5453  142.9512 H   0  0  0  0  0  0  0  0  0  0  0  0  # atno 7974 bound_to 7965
  154.8898  140.2985  155.5377 H   0  0  0  0  0  0  0  0  0  0  0  0  # atno 8008 bound_to 7997
  156.3021  140.2426  156.3846 H   0  0  0  0  0  0  0  0  0  0  0  0  # atno 8009 bound_to 7997
  154.8630  140.0404  157.1666 H   0  0  0  0  0  0  0  0  0  0  0  0  # atno 8010 bound_to 7997
  139.7305  144.7037  151.0730 H   0  0  0  0  0  0  0  0  0  0  0  0  # atno 10167 bound_to 10162
  156.1032  130.6189  150.9161 H   0  0  0  0  0  0  0  0  0  0  0  0  # atno 10718 bound_to 10713
  152.9787  135.5913  154.4084 H   0  0  0  0  0  0  0  0  0  0  0  0  # atno 10763 bound_to 10752
  154.3721  135.2767  155.2262 H   0  0  0  0  0  0  0  0  0  0  0  0  # atno 10764 bound_to 10752
  154.4212  135.6058  153.6066 H   0  0  0  0  0  0  0  0  0  0  0  0  # atno 10765 bound_to 10752
  141.1450  133.8005  157.0395 H   0  0  0  0  0  0  0  0  0  0  0  0  # atno 11005 bound_to 11000
  145.6147  141.0333  143.1947 LP  0  0  0  0  0  0  0  0  0  0  0  0  # atno 17320 bound_to 7965
  144.7319  139.7700  143.7344 LP  0  0  0  0  0  0  0  0  0  0  0  0  # atno 17321 bound_to 7965
  140.7770  143.5049  150.9724 LP  0  0  0  0  0  0  0  0  0  0  0  0  # atno 17342 bound_to 10162
  139.8737  143.7159  152.3164 LP  0  0  0  0  0  0  0  0  0  0  0  0  # atno 17343 bound_to 10162
  157.6205  131.0930  150.8630 LP  0  0  0  0  0  0  0  0  0  0  0  0  # atno 17370 bound_to 10713
  156.8754  130.5160  149.5294 LP  0  0  0  0  0  0  0  0  0  0  0  0  # atno 17371 bound_to 10713
  140.0702  134.9706  157.1454 LP  0  0  0  0  0  0  0  0  0  0  0  0  # atno 17394 bound_to 11000
  140.3722  134.2378  155.7177 LP  0  0  0  0  0  0  0  0  0  0  0  0  # atno 17395 bound_to 11000

$$$$
