AV-unprocessed.smi:1755|AV-procd|sdf|7070|dock8
  -GOLD-   22720 8293D 1   1.00000     0.00000
 Structure written by MMmdl.
 46 47  0  0  0  0  0  0  0  0  2 V2000
  150.4887  142.2839  156.1673 C   0  0  0  0  0  0  0  0  0  0  0  0
  150.4216  140.9236  155.5382 C   0  0  0  0  0  0  0  0  0  0  0  0
  149.2629  140.1417  155.2603 C   0  0  0  0  0  0  0  0  0  0  0  0
  149.7900  139.0138  154.6926 C   0  0  0  0  0  0  0  0  0  0  0  0
  149.1463  137.9143  154.2178 N   0  0  0  0  0  0  0  0  0  0  0  0
  148.0671  137.2912  154.7224 C   0  0  0  0  0  0  0  0  0  0  0  0
  147.4904  137.5948  155.7664 O   0  0  0  0  0  0  0  0  0  0  0  0
  147.6825  136.2758  153.9355 N   0  0  0  0  0  0  0  0  0  0  0  0
  146.5479  135.3878  154.1900 C   0  0  0  0  0  0  0  0  0  0  0  0
  146.5701  134.0866  153.3263 C   0  0  0  0  0  0  0  0  0  0  0  0
  146.4348  134.4525  151.8703 N   0  3  0  0  0  0  0  0  0  0  0  0
  145.2677  135.2918  151.4994 C   0  0  0  0  0  0  0  0  0  0  0  0
  146.5712  133.3047  150.9375 C   0  0  0  0  0  0  0  0  0  0  0  0
  147.8505  133.2789  153.6292 C   0  0  0  0  0  0  0  0  0  0  0  0
  147.5874  132.5354  154.9477 C   0  0  0  0  0  0  0  0  0  0  0  0
  146.0625  132.4798  155.1139 C   0  0  0  0  0  0  0  0  0  0  0  0
  145.4889  133.0967  153.8342 C   0  0  0  0  0  0  0  0  0  0  0  0
  151.1606  139.1388  154.6445 N   0  0  0  0  0  0  0  0  0  0  0  0
  152.1528  138.2130  154.1341 C   0  0  0  0  0  0  0  0  0  0  0  0
  151.5468  140.3211  155.1701 N   0  0  0  0  0  0  0  0  0  0  0  0
  149.4925  142.6570  156.4062 H   0  0  0  0  0  0  0  0  0  0  0  0
  150.9598  143.0034  155.4972 H   0  0  0  0  0  0  0  0  0  0  0  0
  151.0647  142.2610  157.0927 H   0  0  0  0  0  0  0  0  0  0  0  0
  148.2295  140.3882  155.4521 H   0  0  0  0  0  0  0  0  0  0  0  0
  149.5268  137.5308  153.3655 H   0  0  0  0  0  0  0  0  0  0  0  0
  148.2291  136.0886  153.1077 H   0  0  0  0  0  0  0  0  0  0  0  0
  146.5800  135.1370  155.2497 H   0  0  0  0  0  0  0  0  0  0  0  0
  145.6098  135.9316  154.0737 H   0  0  0  0  0  0  0  0  0  0  0  0
  144.3275  134.8313  151.8038 H   0  0  0  0  0  0  0  0  0  0  0  0
  145.2282  135.4441  150.4204 H   0  0  0  0  0  0  0  0  0  0  0  0
  145.3373  136.2856  151.9412 H   0  0  0  0  0  0  0  0  0  0  0  0
  145.7143  132.6337  151.0044 H   0  0  0  0  0  0  0  0  0  0  0  0
  147.4743  132.7262  151.1246 H   0  0  0  0  0  0  0  0  0  0  0  0
  146.6338  133.6586  149.9081 H   0  0  0  0  0  0  0  0  0  0  0  0
  148.0250  132.5400  152.8464 H   0  0  0  0  0  0  0  0  0  0  0  0
  148.7452  133.9002  153.6845 H   0  0  0  0  0  0  0  0  0  0  0  0
  148.0286  131.5382  154.9304 H   0  0  0  0  0  0  0  0  0  0  0  0
  148.0330  133.0728  155.7856 H   0  0  0  0  0  0  0  0  0  0  0  0
  145.7037  131.4612  155.2657 H   0  0  0  0  0  0  0  0  0  0  0  0
  145.7583  133.0616  155.9850 H   0  0  0  0  0  0  0  0  0  0  0  0
  144.5106  133.5504  153.9866 H   0  0  0  0  0  0  0  0  0  0  0  0
  145.3433  132.2628  153.1496 H   0  0  0  0  0  0  0  0  0  0  0  0
  151.9195  137.9587  153.0996 H   0  0  0  0  0  0  0  0  0  0  0  0
  152.1469  137.3035  154.7355 H   0  0  0  0  0  0  0  0  0  0  0  0
  153.1487  138.6570  154.1725 H   0  0  0  0  0  0  0  0  0  0  0  0
  147.2331  135.0422  151.6837 H   0  0  0  0  0  0  0  0  0  0  0  0
  1  2  1  0  0  0  0
  1 21  1  0  0  0  0
  1 22  1  0  0  0  0
  1 23  1  0  0  0  0
  2 20  2  0  0  0  0
  2  3  1  0  0  0  0
  3  4  2  0  0  0  0
  3 24  1  0  0  0  0
  4  5  1  0  0  0  0
  4 18  1  0  0  0  0
  5  6  1  0  0  0  0
  5 25  1  0  0  0  0
  6  7  2  0  0  0  0
  6  8  1  0  0  0  0
  8  9  1  0  0  0  0
  8 26  1  0  0  0  0
  9 10  1  0  0  0  0
  9 27  1  0  0  0  0
  9 28  1  0  0  0  0
 10 17  1  0  0  0  0
 10 11  1  0  0  0  0
 10 14  1  0  0  0  0
 11 12  1  0  0  0  0
 11 13  1  0  0  0  0
 11 46  1  0  0  0  0
 12 29  1  0  0  0  0
 12 30  1  0  0  0  0
 12 31  1  0  0  0  0
 13 32  1  0  0  0  0
 13 33  1  0  0  0  0
 13 34  1  0  0  0  0
 14 15  1  0  0  0  0
 14 35  1  0  0  0  0
 14 36  1  0  0  0  0
 15 16  1  0  0  0  0
 15 37  1  0  0  0  0
 15 38  1  0  0  0  0
 16 17  1  0  0  0  0
 16 39  1  0  0  0  0
 16 40  1  0  0  0  0
 17 41  1  0  0  0  0
 17 42  1  0  0  0  0
 18 19  1  0  0  0  0
 18 20  1  0  0  0  0
 19 43  1  0  0  0  0
 19 44  1  0  0  0  0
 19 45  1  0  0  0  0
M  CHG  1  11   1
M  END
> <s_m_source_file>
AV-unprocessed.smi

> <i_m_source_file_index>
1755

> <i_lp_mmshare_version>
43012

> <i_f3d_flags>
0

> <s_epik_input>
W0NIM11jMVtjSF1jKG4objEpW0NIM10pW05IXUMoPU8pW05IXVtDSDJdQzIoTihbQ0gzXSlbQ0gzXSlbQ0gyXVtDSDJdW0NIMl1bQ0gyXTI=

> <s_epik_cmdline>
J2VwaWtfcHl0aG9uJywgJy1waCcsICc3LjAnLCAnLXRuJywgJzgnLCAnLW1hJywgJzIwMCcsICctbWV0YWxfYmluZGluZycsICctaW1hZScsICc8aW5maWxlLm1hZT4nLCAnLW9tYWUnLCAnPG91dGZpbGUubWFlPic=

> <r_lp_tautomer_probability>
1

> <r_epik_Ionization_Penalty>
0.00248705

> <r_epik_Ionization_Penalty_Charging>
0.00240703

> <r_epik_Ionization_Penalty_Neutral>
8.00151e-05

> <r_epik_State_Penalty>
0.00166499

> <r_epik_Charging_Adjusted_Penalty>
0.00407202

> <i_epik_Tot_Q>
1

> <i_epik_Tot_abs_Q>
1

> <r_epik_Metal_State_Penalty>
-0

> <b_epik_Metal_Only>
0

> <s_lp_Force_Field>
OPLS_2005

> <r_lp_Energy>
45.253

> <b_lp_Chiralities_Consistent>
1

> <s_lp_Variant>
AV-unprocessed.smi:1755-1

> <Gold.Version>
5.8.1

> <Gold.Id.Protein>
6NUR|6NUR_protein|mol2

> <Gold.PLP.Fitness>
38.9358

> <Gold.PLP.PLP>
-28.8270

> <Gold.PLP.part.hbond>
-3.4587

> <Gold.PLP.part.metal>
0.0000

> <Gold.PLP.part.buried>
-3.8202

> <Gold.PLP.part.nonpolar>
-22.7143

> <Gold.PLP.part.repulsive>
0.0917

> <Gold.PLP.ligand.clash>
0.0000

> <Gold.PLP.ligand.torsion>
0.4730

> <Gold.PLP.Chemscore.Hbond>
3.6317

> <Gold.PLP.Chemscore.CHOScore>
0.0000

> <Gold.PLP.Chemscore.Metal>
0.0000

> <Gold.Chemscore.Hbonds>
donor molecule, donor type, donor heavy atom, donor atom, acceptor molecule, acceptor atom, score
      L1  H     5    25       P1  7948  0.79
      L1  H     8    26       P1  7948  0.78
      L1  H    11    46       P1  7948  1.89
      P1  H  7989  7998       L1    20  0.28

> <Gold.PLP.Chemscore.Internal.Correction>
0.1597

> <Gold.Rescore>
     Score         DG    S(hbond)    S(metal)    S(lipo)     H(rot)  DE(clash)    DE(int)     intcor
     16.13     -16.57       2.47        0.00      56.80       1.49       0.02       0.42       ----

> <Gold.Chemscore.Fitness>
16.1297

> <Gold.Chemscore.DG>
-16.5731

> <Gold.Chemscore.ZeroCoef>
-5.4800

> <Gold.Chemscore.Hbond>
2.4699

> <Gold.Chemscore.Metal>
0.0000

> <Gold.Chemscore.Lipo>
56.7975

> <Gold.Chemscore.Internal_Hbond>
0.0000

> <Gold.Chemscore.DEClash>
0.0202

> <Gold.Chemscore.DEInternal>
0.4231

> <Gold.Chemscore.Rot>
1.4851

> <Gold.Chemscore.Internal.Correction>
   9.000000E+99

> <Gold.Chemscore.Hbonds>
donor molecule, donor type, donor heavy atom, donor atom, acceptor molecule, acceptor atom, score
      L1  H     5    25       P1  7948  0.67
      L1  H     8    26       P1  7948  0.77
      L1  H    11    46       P1  7948  0.79

> <Gold.Chemscore.Hbond.Weighted>
-8.2495

> <Gold.Chemscore.Metal.Weighted>
-0.0000

> <Gold.Chemscore.Lipo.Weighted>
-6.6453

> <Gold.Chemscore.Internal_Hbond.Weighted>
0.0000

> <Gold.Chemscore.DEClash.Weighted>
0.0202

> <Gold.Chemscore.DEInternal.Weighted>
0.4231

> <Gold.Chemscore.Rot.Weighted>
3.8018

> <Gold.Chemscore.Internal.Correction.Weighted>
   9.000000E+99

> <Gold.Protein.RotatedTorsions>
[ 6907 6896 6895 6894 ] final  -52.49 input  -60.11 | X-H torsion
[ 7974 7965 7964 7962 ] final  -89.35 input  175.53 | X-H torsion
[ 8008 7997 7996 7995 ] final   67.60 input   59.86 | X-H torsion
[ 10167 10162 10161 10158 ] final -140.74 input  -65.29 | X-H torsion
[ 10718 10713 10712 10709 ] final  -65.97 input   66.30 | X-H torsion
[ 10763 10752 10751 10750 ] final -124.36 input  -60.55 | X-H torsion
[ 11005 11000 10999 10996 ] final    1.31 input  -57.11 | X-H torsion

> <Gold.Protein.ActiveResidues>
 VAL166  LYS551  ARG553  GLY616  TRP617  ASP618  TYR619  PRO620  LYS621  CYS622 
 ASP623  PHE694  ASN695  SER759  ASP760  ASP761  ALA762  ILE779  LEU786  VAL792 
 PHE793  MET794  SER795  GLU796  ALA797  LYS798  CYS799  TRP800  GLU811  SER814 

> <Gold.Protein.RotatedAtoms>
  150.8513  134.7839  159.7010 H   0  0  0  0  0  0  0  0  0  0  0  0  # atno 6907 bound_to 6896
  152.4577  134.5251  159.9804 H   0  0  0  0  0  0  0  0  0  0  0  0  # atno 6908 bound_to 6896
  151.5372  133.3401  159.2964 H   0  0  0  0  0  0  0  0  0  0  0  0  # atno 6909 bound_to 6896
  145.4409  140.9559  143.2075 H   0  0  0  0  0  0  0  0  0  0  0  0  # atno 7974 bound_to 7965
  155.6953  140.3496  155.4910 H   0  0  0  0  0  0  0  0  0  0  0  0  # atno 8008 bound_to 7997
  155.9488  140.1115  157.1016 H   0  0  0  0  0  0  0  0  0  0  0  0  # atno 8009 bound_to 7997
  154.4117  140.1198  156.5011 H   0  0  0  0  0  0  0  0  0  0  0  0  # atno 8010 bound_to 7997
  139.8253  143.7520  152.2666 H   0  0  0  0  0  0  0  0  0  0  0  0  # atno 10167 bound_to 10162
  156.0639  130.4255  150.1640 H   0  0  0  0  0  0  0  0  0  0  0  0  # atno 10718 bound_to 10713
  154.8722  135.4066  154.3094 H   0  0  0  0  0  0  0  0  0  0  0  0  # atno 10763 bound_to 10752
  153.3940  135.7016  153.6479 H   0  0  0  0  0  0  0  0  0  0  0  0  # atno 10764 bound_to 10752
  153.5250  135.3679  155.2621 H   0  0  0  0  0  0  0  0  0  0  0  0  # atno 10765 bound_to 10752
  140.6169  133.9697  155.8205 H   0  0  0  0  0  0  0  0  0  0  0  0  # atno 11005 bound_to 11000
  144.8122  139.5942  143.7024 LP  0  0  0  0  0  0  0  0  0  0  0  0  # atno 17320 bound_to 7965
  146.2556  139.6296  142.9397 LP  0  0  0  0  0  0  0  0  0  0  0  0  # atno 17321 bound_to 7965
  139.7710  144.7476  151.0224 LP  0  0  0  0  0  0  0  0  0  0  0  0  # atno 17342 bound_to 10162
  140.7810  143.4645  151.0232 LP  0  0  0  0  0  0  0  0  0  0  0  0  # atno 17343 bound_to 10162
  156.9704  130.9833  151.3460 LP  0  0  0  0  0  0  0  0  0  0  0  0  # atno 17370 bound_to 10713
  157.5667  130.8283  149.8337 LP  0  0  0  0  0  0  0  0  0  0  0  0  # atno 17371 bound_to 10713
  141.0769  134.0121  157.3444 LP  0  0  0  0  0  0  0  0  0  0  0  0  # atno 17394 bound_to 11000
  139.9169  135.0197  156.7916 LP  0  0  0  0  0  0  0  0  0  0  0  0  # atno 17395 bound_to 11000

$$$$
