AV-unprocessed.smi:1464|AV-procd|sdf|5935|dock7
  -GOLD-   22720 6 13D 1   1.00000     0.00000
 Structure written by MMmdl.
 40 41  0  0  0  0  0  0  0  0  2 V2000
  151.4095  145.6444  160.0178 C   0  0  0  0  0  0  0  0  0  0  0  0
  151.7840  144.1748  160.2802 C   0  0  2  0  0  0  0  0  0  0  0  0
  152.3555  144.0287  161.7057 C   0  0  0  0  0  0  0  0  0  0  0  0
  152.7368  142.5787  162.0339 C   0  0  0  0  0  0  0  0  0  0  0  0
  153.7196  142.0168  160.9953 C   0  0  0  0  0  0  0  0  0  0  0  0
  153.1701  142.1361  159.5618 C   0  0  1  0  0  0  0  0  0  0  0  0
  152.0425  141.2175  159.3927 N   0  0  0  0  0  0  0  0  0  0  0  0
  152.0637  140.0386  158.7518 C   0  0  0  0  0  0  0  0  0  0  0  0
  153.0765  139.5613  158.2391 O   0  0  0  0  0  0  0  0  0  0  0  0
  150.7305  139.2812  158.6934 C   0  0  0  0  0  0  0  0  0  0  0  0
  150.4883  138.6565  157.3856 N   0  0  0  0  0  0  0  0  0  0  0  0
  150.4750  139.5990  156.2705 N   0  5  0  0  0  0  0  0  0  0  0  0
  150.2381  139.1356  155.0146 C   0  0  0  0  0  0  0  0  0  0  0  0
  150.1894  139.8706  154.0310 O   0  0  0  0  0  0  0  0  0  0  0  0
  150.0399  137.7064  154.8384 C   0  0  0  0  0  0  0  0  0  0  0  0
  150.0837  136.8559  155.8827 C   0  0  0  0  0  0  0  0  0  0  0  0
  150.3253  137.3092  157.2468 C   0  0  0  0  0  0  0  0  0  0  0  0
  150.3781  136.5359  158.2039 O   0  0  0  0  0  0  0  0  0  0  0  0
  152.7814  143.6044  159.2333 C   0  0  1  0  0  0  0  0  0  0  0  0
  152.2886  143.7597  157.7803 C   0  0  0  0  0  0  0  0  0  0  0  0
  152.2955  146.2784  159.9758 H   0  0  0  0  0  0  0  0  0  0  0  0
  150.7629  146.0303  160.8062 H   0  0  0  0  0  0  0  0  0  0  0  0
  150.8660  145.7613  159.0805 H   0  0  0  0  0  0  0  0  0  0  0  0
  150.8625  143.5931  160.2283 H   0  0  0  0  0  0  0  0  0  0  0  0
  153.2349  144.6650  161.8142 H   0  0  0  0  0  0  0  0  0  0  0  0
  151.6286  144.3838  162.4370 H   0  0  0  0  0  0  0  0  0  0  0  0
  153.1820  142.5294  163.0280 H   0  0  0  0  0  0  0  0  0  0  0  0
  151.8385  141.9613  162.0699 H   0  0  0  0  0  0  0  0  0  0  0  0
  154.6624  142.5608  161.0642 H   0  0  0  0  0  0  0  0  0  0  0  0
  153.9529  140.9764  161.2261 H   0  0  0  0  0  0  0  0  0  0  0  0
  153.9738  141.8358  158.8871 H   0  0  0  0  0  0  0  0  0  0  0  0
  151.1595  141.5176  159.7794 H   0  0  0  0  0  0  0  0  0  0  0  0
  150.7367  138.5298  159.4849 H   0  0  0  0  0  0  0  0  0  0  0  0
  149.9037  139.9528  158.9331 H   0  0  0  0  0  0  0  0  0  0  0  0
  149.8568  137.3174  153.8475 H   0  0  0  0  0  0  0  0  0  0  0  0
  149.9331  135.8013  155.7055 H   0  0  0  0  0  0  0  0  0  0  0  0
  153.6981  144.1918  159.3081 H   0  0  0  0  0  0  0  0  0  0  0  0
  151.2987  143.3253  157.6413 H   0  0  0  0  0  0  0  0  0  0  0  0
  152.9681  143.2689  157.0830 H   0  0  0  0  0  0  0  0  0  0  0  0
  152.2355  144.8067  157.4836 H   0  0  0  0  0  0  0  0  0  0  0  0
  1  2  1  0  0  0  0
  1 21  1  0  0  0  0
  1 22  1  0  0  0  0
  1 23  1  0  0  0  0
  2 19  1  0  0  0  0
  2  3  1  0  0  0  0
  2 24  1  0  0  0  0
  3  4  1  0  0  0  0
  3 25  1  0  0  0  0
  3 26  1  0  0  0  0
  4  5  1  0  0  0  0
  4 27  1  0  0  0  0
  4 28  1  0  0  0  0
  5  6  1  0  0  0  0
  5 29  1  0  0  0  0
  5 30  1  0  0  0  0
  6  7  1  0  0  0  0
  6 19  1  0  0  0  0
  6 31  1  0  0  0  0
  7  8  1  0  0  0  0
  7 32  1  0  0  0  0
  8  9  2  0  0  0  0
  8 10  1  0  0  0  0
 10 33  1  0  0  0  0
 10 34  1  0  0  0  0
 10 11  1  0  0  0  0
 11 12  1  0  0  0  0
 11 17  1  0  0  0  0
 12 13  1  0  0  0  0
 13 14  2  0  0  0  0
 13 15  1  0  0  0  0
 15 35  1  0  0  0  0
 15 16  2  0  0  0  0
 16 36  1  0  0  0  0
 16 17  1  0  0  0  0
 17 18  2  0  0  0  0
 19 20  1  0  0  0  0
 19 37  1  0  0  0  0
 20 38  1  0  0  0  0
 20 39  1  0  0  0  0
 20 40  1  0  0  0  0
M  CHG  1  12  -1
M  END
> <s_m_source_file>
AV-unprocessed.smi

> <i_m_source_file_index>
1464

> <i_lp_mmshare_version>
43012

> <i_f3d_flags>
0

> <s_epik_input>
W0NIM11bQ0BASF0xW0NIMl1bQ0gyXVtDSDJdW0NASF0oW0NASF0xW0NIM10pW05IXUMoPU8pW0NIMl1uMltuSF1jKD1PKVtjSF1bY0hdYzI9Tw==

> <s_epik_cmdline>
J2VwaWtfcHl0aG9uJywgJy1waCcsICc3LjAnLCAnLXRuJywgJzgnLCAnLW1hJywgJzIwMCcsICctbWV0YWxfYmluZGluZycsICctaW1hZScsICc8aW5maWxlLm1hZT4nLCAnLW9tYWUnLCAnPG91dGZpbGUubWFlPic=

> <r_lp_tautomer_probability>
1

> <r_epik_Ionization_Penalty>
0.101366

> <r_epik_Ionization_Penalty_Charging>
0.101366

> <r_epik_Ionization_Penalty_Neutral>
1.90469e-08

> <r_epik_State_Penalty>
0.035861

> <r_epik_Charging_Adjusted_Penalty>
0.137227

> <i_epik_Tot_Q>
-1

> <i_epik_Tot_abs_Q>
1

> <r_epik_Metal_State_Penalty>
0.035861

> <b_epik_Metal_Only>
0

> <s_lp_Force_Field>
OPLS_2005

> <r_lp_Energy>
26.1624

> <b_lp_Chiralities_Consistent>
1

> <s_lp_Variant>
AV-unprocessed.smi:1464-1

> <Gold.Version>
5.8.1

> <Gold.Id.Protein>
6NUR|6NUR_protein|mol2

> <Gold.PLP.Fitness>
49.8721

> <Gold.PLP.PLP>
-42.5536

> <Gold.PLP.part.hbond>
-3.0000

> <Gold.PLP.part.metal>
0.0000

> <Gold.PLP.part.buried>
-6.6729

> <Gold.PLP.part.nonpolar>
-33.6474

> <Gold.PLP.part.repulsive>
0.7320

> <Gold.PLP.ligand.clash>
0.0000

> <Gold.PLP.ligand.torsion>
0.4494

> <Gold.PLP.Chemscore.Hbond>
2.7360

> <Gold.PLP.Chemscore.CHOScore>
0.0000

> <Gold.PLP.Chemscore.Metal>
0.0000

> <Gold.Chemscore.Hbonds>
donor molecule, donor type, donor heavy atom, donor atom, acceptor molecule, acceptor atom, score
      P1  H  6896  6908       L1    18  0.36
      P1  H  7989  7998       L1    14  1.00
      P1  H  7997  8009       L1     9  1.00

> <Gold.PLP.Chemscore.Internal.Correction>
0.0093

> <Gold.Rescore>
     Score         DG    S(hbond)    S(metal)    S(lipo)     H(rot)  DE(clash)    DE(int)     intcor
     23.00     -23.61       2.84        0.00     109.87       1.64       0.09       0.52       ----

> <Gold.Chemscore.Fitness>
22.9998

> <Gold.Chemscore.DG>
-23.6092

> <Gold.Chemscore.ZeroCoef>
-5.4800

> <Gold.Chemscore.Hbond>
2.8392

> <Gold.Chemscore.Metal>
0.0000

> <Gold.Chemscore.Lipo>
109.8657

> <Gold.Chemscore.Internal_Hbond>
0.0000

> <Gold.Chemscore.DEClash>
0.0865

> <Gold.Chemscore.DEInternal>
0.5229

> <Gold.Chemscore.Rot>
1.6438

> <Gold.Chemscore.Internal.Correction>
   9.000000E+99

> <Gold.Chemscore.Hbonds>
donor molecule, donor type, donor heavy atom, donor atom, acceptor molecule, acceptor atom, score
      P1  H  6896  6908       L1    18  0.35
      P1  H  7989  7998       L1    14  0.95
      P1  H  7997  8009       L1     9  0.97

> <Gold.Chemscore.Hbond.Weighted>
-9.4829

> <Gold.Chemscore.Metal.Weighted>
-0.0000

> <Gold.Chemscore.Lipo.Weighted>
-12.8543

> <Gold.Chemscore.Internal_Hbond.Weighted>
0.0000

> <Gold.Chemscore.DEClash.Weighted>
0.0865

> <Gold.Chemscore.DEInternal.Weighted>
0.5229

> <Gold.Chemscore.Rot.Weighted>
4.2080

> <Gold.Chemscore.Internal.Correction.Weighted>
   9.000000E+99

> <Gold.Protein.RotatedTorsions>
[ 6907 6896 6895 6894 ] final -159.40 input  -60.11 | X-H torsion
[ 7974 7965 7964 7962 ] final  140.40 input  175.53 | X-H torsion
[ 8008 7997 7996 7995 ] final  153.28 input   59.86 | X-H torsion
[ 10167 10162 10161 10158 ] final   79.76 input  -65.29 | X-H torsion
[ 10718 10713 10712 10709 ] final   81.33 input   66.30 | X-H torsion
[ 10763 10752 10751 10750 ] final  -18.30 input  -60.55 | X-H torsion
[ 11005 11000 10999 10996 ] final  -17.53 input  -57.11 | X-H torsion

> <Gold.Protein.ActiveResidues>
 VAL166  LYS551  ARG553  GLY616  TRP617  ASP618  TYR619  PRO620  LYS621  CYS622 
 ASP623  PHE694  ASN695  SER759  ASP760  ASP761  ALA762  ILE779  LEU786  VAL792 
 PHE793  MET794  SER795  GLU796  ALA797  LYS798  CYS799  TRP800  GLU811  SER814 

> <Gold.Protein.RotatedAtoms>
  151.3330  133.3993  159.2664 H   0  0  0  0  0  0  0  0  0  0  0  0  # atno 6907 bound_to 6896
  150.9940  134.9269  159.7926 H   0  0  0  0  0  0  0  0  0  0  0  0  # atno 6908 bound_to 6896
  152.5255  134.3295  159.9230 H   0  0  0  0  0  0  0  0  0  0  0  0  # atno 6909 bound_to 6896
  144.9190  139.5193  143.5672 H   0  0  0  0  0  0  0  0  0  0  0  0  # atno 7974 bound_to 7965
  156.2589  140.1998  156.6466 H   0  0  0  0  0  0  0  0  0  0  0  0  # atno 8008 bound_to 7997
  154.6568  140.0565  157.0043 H   0  0  0  0  0  0  0  0  0  0  0  0  # atno 8009 bound_to 7997
  155.1335  140.3236  155.4471 H   0  0  0  0  0  0  0  0  0  0  0  0  # atno 8010 bound_to 7997
  139.9569  144.5987  150.8108 H   0  0  0  0  0  0  0  0  0  0  0  0  # atno 10167 bound_to 10162
  157.6830  130.9999  150.2211 H   0  0  0  0  0  0  0  0  0  0  0  0  # atno 10718 bound_to 10713
  153.5871  135.7003  153.5439 H   0  0  0  0  0  0  0  0  0  0  0  0  # atno 10763 bound_to 10752
  153.3210  135.4074  155.1417 H   0  0  0  0  0  0  0  0  0  0  0  0  # atno 10764 bound_to 10752
  154.8607  135.3695  154.5401 H   0  0  0  0  0  0  0  0  0  0  0  0  # atno 10765 bound_to 10752
  140.8178  133.8092  155.9628 H   0  0  0  0  0  0  0  0  0  0  0  0  # atno 11005 bound_to 11000
  146.3195  139.8055  142.8956 LP  0  0  0  0  0  0  0  0  0  0  0  0  # atno 17320 bound_to 7965
  145.3328  141.0270  143.3437 LP  0  0  0  0  0  0  0  0  0  0  0  0  # atno 17321 bound_to 7965
  140.7565  143.3068  151.2943 LP  0  0  0  0  0  0  0  0  0  0  0  0  # atno 17342 bound_to 10162
  139.6584  144.0234  152.2675 LP  0  0  0  0  0  0  0  0  0  0  0  0  # atno 17343 bound_to 10162
  156.2862  130.3740  149.7886 LP  0  0  0  0  0  0  0  0  0  0  0  0  # atno 17370 bound_to 10713
  156.5559  130.8362  151.3314 LP  0  0  0  0  0  0  0  0  0  0  0  0  # atno 17371 bound_to 10713
  140.9131  134.2235  157.4973 LP  0  0  0  0  0  0  0  0  0  0  0  0  # atno 17394 bound_to 11000
  139.8710  134.9759  156.4901 LP  0  0  0  0  0  0  0  0  0  0  0  0  # atno 17395 bound_to 11000

$$$$
