AV-unprocessed.smi:2541|AV-procd|sdf|9990|dock6
  -GOLD-   2272014 43D 1   1.00000     0.00000
 Structure written by MMmdl.
 38 39  0  0  0  0  0  0  0  0  1 V2000
  152.1438  139.6201  154.8156 O   0  0  0  0  0  0  0  0  0  0  0  0
  151.0147  139.4460  155.2742 C   0  0  0  0  0  0  0  0  0  0  0  0
  149.9822  138.6419  154.4823 C   0  0  0  0  0  0  0  0  0  0  0  0
  148.8660  139.5401  154.0179 C   0  0  0  0  0  0  0  0  0  0  0  0
  147.6750  139.1848  153.3250 C   0  0  0  0  0  0  0  0  0  0  0  0
  147.0380  140.3796  153.1515 C   0  0  0  0  0  0  0  0  0  0  0  0
  147.7656  141.3890  153.6923 O   0  0  0  0  0  0  0  0  0  0  0  0
  148.9296  140.8435  154.2454 N   0  0  0  0  0  0  0  0  0  0  0  0
  150.6148  139.9352  156.4587 N   0  0  0  0  0  0  0  0  0  0  0  0
  151.4185  140.7750  157.3400 C   0  0  0  0  0  0  0  0  0  0  0  0
  151.1109  142.2743  157.1368 C   0  0  1  0  0  0  0  0  0  0  0  0
  149.7104  142.4638  157.2163 O   0  0  0  0  0  0  0  0  0  0  0  0
  151.8193  143.1867  158.1691 C   0  0  0  0  0  0  0  0  0  0  0  0
  151.8223  142.6190  159.6088 C   0  0  0  0  0  0  0  0  0  0  0  0
  152.5641  143.5471  160.5845 C   0  0  0  0  0  0  0  0  0  0  0  0
  151.9795  144.9673  160.5591 C   0  0  0  0  0  0  0  0  0  0  0  0
  151.9929  145.5424  159.1351 C   0  0  0  0  0  0  0  0  0  0  0  0
  151.2468  144.6216  158.1560 C   0  0  0  0  0  0  0  0  0  0  0  0
  150.4670  138.1715  153.6263 H   0  0  0  0  0  0  0  0  0  0  0  0
  149.6028  137.8316  155.1069 H   0  0  0  0  0  0  0  0  0  0  0  0
  147.3444  138.2088  153.0025 H   0  0  0  0  0  0  0  0  0  0  0  0
  146.1055  140.6631  152.6863 H   0  0  0  0  0  0  0  0  0  0  0  0
  149.6677  139.7457  156.7536 H   0  0  0  0  0  0  0  0  0  0  0  0
  151.2351  140.4755  158.3723 H   0  0  0  0  0  0  0  0  0  0  0  0
  152.4742  140.5764  157.1477 H   0  0  0  0  0  0  0  0  0  0  0  0
  151.4361  142.5765  156.1403 H   0  0  0  0  0  0  0  0  0  0  0  0
  149.4762  143.1974  156.6686 H   0  0  0  0  0  0  0  0  0  0  0  0
  152.8607  143.2654  157.8532 H   0  0  0  0  0  0  0  0  0  0  0  0
  150.7991  142.4782  159.9591 H   0  0  0  0  0  0  0  0  0  0  0  0
  152.2931  141.6364  159.6294 H   0  0  0  0  0  0  0  0  0  0  0  0
  152.5107  143.1416  161.5951 H   0  0  0  0  0  0  0  0  0  0  0  0
  153.6221  143.5826  160.3221 H   0  0  0  0  0  0  0  0  0  0  0  0
  150.9567  144.9492  160.9378 H   0  0  0  0  0  0  0  0  0  0  0  0
  152.5464  145.6152  161.2280 H   0  0  0  0  0  0  0  0  0  0  0  0
  151.5398  146.5341  159.1308 H   0  0  0  0  0  0  0  0  0  0  0  0
  153.0236  145.6724  158.8025 H   0  0  0  0  0  0  0  0  0  0  0  0
  151.3074  145.0384  157.1501 H   0  0  0  0  0  0  0  0  0  0  0  0
  150.1883  144.6046  158.4183 H   0  0  0  0  0  0  0  0  0  0  0  0
  1  2  2  0  0  0  0
  2  3  1  0  0  0  0
  2  9  1  0  0  0  0
  3  4  1  0  0  0  0
  3 19  1  0  0  0  0
  3 20  1  0  0  0  0
  4  8  2  0  0  0  0
  4  5  1  0  0  0  0
  5  6  2  0  0  0  0
  5 21  1  0  0  0  0
  6  7  1  0  0  0  0
  6 22  1  0  0  0  0
  7  8  1  0  0  0  0
  9 10  1  0  0  0  0
  9 23  1  0  0  0  0
 10 11  1  0  0  0  0
 10 24  1  0  0  0  0
 10 25  1  0  0  0  0
 11 12  1  0  0  0  0
 11 13  1  0  0  0  0
 11 26  1  0  0  0  0
 12 27  1  0  0  0  0
 13 18  1  0  0  0  0
 13 14  1  0  0  0  0
 13 28  1  0  0  0  0
 14 15  1  0  0  0  0
 14 29  1  0  0  0  0
 14 30  1  0  0  0  0
 15 16  1  0  0  0  0
 15 31  1  0  0  0  0
 15 32  1  0  0  0  0
 16 17  1  0  0  0  0
 16 33  1  0  0  0  0
 16 34  1  0  0  0  0
 17 18  1  0  0  0  0
 17 35  1  0  0  0  0
 17 36  1  0  0  0  0
 18 37  1  0  0  0  0
 18 38  1  0  0  0  0
M  END
> <s_m_source_file>
AV-unprocessed.smi

> <i_m_source_file_index>
2541

> <i_lp_mmshare_version>
43012

> <i_f3d_flags>
0

> <s_epik_input>
bjFvW2NIXVtjSF1jMVtDSDJdQyg9TylbTkhdW0NIMl1bQ0BIXShbT0hdKVtDSF0yW0NIMl1bQ0gyXVtDSDJdW0NIMl1bQ0gyXTI=

> <s_epik_cmdline>
J2VwaWtfcHl0aG9uJywgJy1waCcsICc3LjAnLCAnLXRuJywgJzgnLCAnLW1hJywgJzIwMCcsICctbWV0YWxfYmluZGluZycsICctaW1hZScsICc8aW5maWxlLm1hZT4nLCAnLW9tYWUnLCAnPG91dGZpbGUubWFlPic=

> <r_lp_tautomer_probability>
1

> <r_epik_Ionization_Penalty>
2.3322e-07

> <r_epik_Ionization_Penalty_Charging>
0

> <r_epik_Ionization_Penalty_Neutral>
2.3322e-07

> <r_epik_State_Penalty>
-0

> <r_epik_Charging_Adjusted_Penalty>
0

> <i_epik_Tot_Q>
0

> <i_epik_Tot_abs_Q>
0

> <r_epik_Metal_State_Penalty>
-0

> <b_epik_Metal_Only>
0

> <s_lp_Force_Field>
OPLS_2005

> <r_lp_Energy>
13.2063

> <b_lp_Chiralities_Consistent>
1

> <s_lp_Variant>
AV-unprocessed.smi:2541-2

> <Gold.Version>
5.8.1

> <Gold.Id.Protein>
6NUR|6NUR_protein|mol2

> <Gold.PLP.Fitness>
46.8215

> <Gold.PLP.PLP>
-39.2938

> <Gold.PLP.part.hbond>
-2.0000

> <Gold.PLP.part.metal>
0.0000

> <Gold.PLP.part.buried>
-3.4857

> <Gold.PLP.part.nonpolar>
-34.2780

> <Gold.PLP.part.repulsive>
0.4177

> <Gold.PLP.ligand.clash>
0.0000

> <Gold.PLP.ligand.torsion>
0.5583

> <Gold.PLP.Chemscore.Hbond>
1.8640

> <Gold.PLP.Chemscore.CHOScore>
1.0000

> <Gold.PLP.Chemscore.Metal>
0.0000

> <Gold.Chemscore.Hbonds>
donor molecule, donor type, donor heavy atom, donor atom, acceptor molecule, acceptor atom, score
      L1  H    12    27       P1  8028  1.00
      P1  H  7989  7998       L1     1  0.71
      L1  C     6    22       P1 10175  1.00

> <Gold.PLP.Chemscore.Internal.Correction>
0.0524

> <Gold.Rescore>
     Score         DG    S(hbond)    S(metal)    S(lipo)     H(rot)  DE(clash)    DE(int)     intcor
     17.75     -18.42       1.89        0.00     109.50       2.42       0.01       0.66       ----

> <Gold.Chemscore.Fitness>
17.7464

> <Gold.Chemscore.DG>
-18.4206

> <Gold.Chemscore.ZeroCoef>
-5.4800

> <Gold.Chemscore.Hbond>
1.8912

> <Gold.Chemscore.Metal>
0.0000

> <Gold.Chemscore.Lipo>
109.5047

> <Gold.Chemscore.Internal_Hbond>
0.0000

> <Gold.Chemscore.DEClash>
0.0102

> <Gold.Chemscore.DEInternal>
0.6640

> <Gold.Chemscore.Rot>
2.4172

> <Gold.Chemscore.Internal.Correction>
   9.000000E+99

> <Gold.Chemscore.Hbonds>
donor molecule, donor type, donor heavy atom, donor atom, acceptor molecule, acceptor atom, score
      L1  H    12    27       P1  8028  1.00
      P1  H  7989  7998       L1     1  0.12

> <Gold.Chemscore.Hbond.Weighted>
-6.3166

> <Gold.Chemscore.Metal.Weighted>
-0.0000

> <Gold.Chemscore.Lipo.Weighted>
-12.8120

> <Gold.Chemscore.Internal_Hbond.Weighted>
0.0000

> <Gold.Chemscore.DEClash.Weighted>
0.0102

> <Gold.Chemscore.DEInternal.Weighted>
0.6640

> <Gold.Chemscore.Rot.Weighted>
6.1880

> <Gold.Chemscore.Internal.Correction.Weighted>
   9.000000E+99

> <Gold.Protein.RotatedTorsions>
[ 6907 6896 6895 6894 ] final  -15.86 input  -60.11 | X-H torsion
[ 7974 7965 7964 7962 ] final  175.90 input  175.53 | X-H torsion
[ 8008 7997 7996 7995 ] final -131.69 input   59.86 | X-H torsion
[ 10167 10162 10161 10158 ] final -171.47 input  -65.29 | X-H torsion
[ 10718 10713 10712 10709 ] final  170.32 input   66.30 | X-H torsion
[ 10763 10752 10751 10750 ] final   -6.69 input  -60.55 | X-H torsion
[ 11005 11000 10999 10996 ] final  166.93 input  -57.11 | X-H torsion

> <Gold.Protein.ActiveResidues>
 VAL166  LYS551  ARG553  GLY616  TRP617  ASP618  TYR619  PRO620  LYS621  CYS622 
 ASP623  PHE694  ASN695  SER759  ASP760  ASP761  ALA762  ILE779  LEU786  VAL792 
 PHE793  MET794  SER795  GLU796  ALA797  LYS798  CYS799  TRP800  GLU811  SER814 

> <Gold.Protein.RotatedAtoms>
  151.3174  135.0810  159.9293 H   0  0  0  0  0  0  0  0  0  0  0  0  # atno 6907 bound_to 6896
  152.5264  133.9674  159.7756 H   0  0  0  0  0  0  0  0  0  0  0  0  # atno 6908 bound_to 6896
  150.9988  133.6024  159.2728 H   0  0  0  0  0  0  0  0  0  0  0  0  # atno 6909 bound_to 6896
  144.7193  140.0017  143.6440 H   0  0  0  0  0  0  0  0  0  0  0  0  # atno 7974 bound_to 7965
  155.3165  140.0460  157.3037 H   0  0  0  0  0  0  0  0  0  0  0  0  # atno 8008 bound_to 7997
  154.5403  140.2286  155.8618 H   0  0  0  0  0  0  0  0  0  0  0  0  # atno 8009 bound_to 7997
  156.1875  140.3059  155.9273 H   0  0  0  0  0  0  0  0  0  0  0  0  # atno 8010 bound_to 7997
  139.5800  144.1444  152.1503 H   0  0  0  0  0  0  0  0  0  0  0  0  # atno 10167 bound_to 10162
  157.0099  131.0201  151.2806 H   0  0  0  0  0  0  0  0  0  0  0  0  # atno 10718 bound_to 10713
  153.4158  135.7009  153.6327 H   0  0  0  0  0  0  0  0  0  0  0  0  # atno 10763 bound_to 10752
  153.4802  135.3695  155.2438 H   0  0  0  0  0  0  0  0  0  0  0  0  # atno 10764 bound_to 10752
  154.8719  135.4064  154.3518 H   0  0  0  0  0  0  0  0  0  0  0  0  # atno 10765 bound_to 10752
  140.2715  134.7823  157.3679 H   0  0  0  0  0  0  0  0  0  0  0  0  # atno 11005 bound_to 11000
  146.0330  139.3352  143.0743 LP  0  0  0  0  0  0  0  0  0  0  0  0  # atno 17320 bound_to 7965
  145.8429  140.9571  143.0790 LP  0  0  0  0  0  0  0  0  0  0  0  0  # atno 17321 bound_to 7965
  140.0995  144.5551  150.6998 LP  0  0  0  0  0  0  0  0  0  0  0  0  # atno 17342 bound_to 10162
  140.7079  143.2482  151.4669 LP  0  0  0  0  0  0  0  0  0  0  0  0  # atno 17343 bound_to 10162
  157.5328  130.8069  149.7937 LP  0  0  0  0  0  0  0  0  0  0  0  0  # atno 17370 bound_to 10713
  156.0140  130.3821  150.2171 LP  0  0  0  0  0  0  0  0  0  0  0  0  # atno 17371 bound_to 10713
  140.1369  134.5023  155.8062 LP  0  0  0  0  0  0  0  0  0  0  0  0  # atno 17394 bound_to 11000
  141.2176  133.6810  156.7140 LP  0  0  0  0  0  0  0  0  0  0  0  0  # atno 17395 bound_to 11000

$$$$
