AV-unprocessed.smi:81|AV-procd|sdf|791|dock10
  -GOLD-   2262017163D 1   1.00000     0.00000
 Structure written by MMmdl.
 64 67  0  0  0  0  0  0  0  0  2 V2000
  150.1473  143.8096  158.8967 C   0  0  0  0  0  0  0  0  0  0  0  0
  151.4003  143.3786  158.1168 C   0  0  0  0  0  0  0  0  0  0  0  0
  152.3190  144.5924  157.9101 C   0  0  0  0  0  0  0  0  0  0  0  0
  151.0758  142.7256  156.7494 C   0  0  0  0  0  0  0  0  0  0  0  0
  150.6692  141.3136  156.7963 N   0  0  0  0  0  0  0  0  0  0  0  0
  149.4440  141.1261  156.2463 C   0  0  0  0  0  0  0  0  0  0  0  0
  149.3337  140.6434  154.9803 N   0  0  0  0  0  0  0  0  0  0  0  0
  148.1264  140.4779  154.4313 C   0  0  0  0  0  0  0  0  0  0  0  0
  146.9272  140.7299  154.9608 N   0  0  0  0  0  0  0  0  0  0  0  0
  147.0366  141.2156  156.2308 C   0  0  0  0  0  0  0  0  0  0  0  0
  148.2469  141.4387  156.9434 C   0  0  0  0  0  0  0  0  0  0  0  0
  147.9714  141.9253  158.2146 N   0  0  0  0  0  0  0  0  0  0  0  0
  146.6687  141.9990  158.2475 C   0  0  0  0  0  0  0  0  0  0  0  0
  146.0273  141.6047  157.0941 N   0  0  0  0  0  0  0  0  0  0  0  0
  144.5924  141.6016  156.8537 C   0  0  0  0  0  0  0  0  0  0  0  0
  144.0803  142.8944  156.1717 C   0  0  2  0  0  0  0  0  0  0  0  0
  144.2606  142.7592  154.7717 O   0  0  0  0  0  0  0  0  0  0  0  0
  144.8511  144.1351  156.6344 C   0  0  0  0  0  0  0  0  0  0  0  0
  143.8297  144.9255  157.4435 C   0  0  0  0  0  0  0  0  0  0  0  0
  142.6104  144.6304  156.7862 O   0  0  0  0  0  0  0  0  0  0  0  0
  142.6087  143.2347  156.5255 C   0  0  1  0  0  0  0  0  0  0  0  0
  141.5342  142.8782  155.4849 C   0  0  0  0  0  0  0  0  0  0  0  0
  151.6378  140.2045  156.7002 C   0  0  2  0  0  0  0  0  0  0  0  0
  150.9699  138.8419  156.3806 C   0  0  0  0  0  0  0  0  0  0  0  0
  150.0815  138.3560  157.5404 C   0  0  0  0  0  0  0  0  0  0  0  0
  150.8621  138.2390  158.7967 N   0  3  2  0  0  0  0  0  0  0  0  0
  150.0551  137.6985  159.9112 C   0  0  0  0  0  0  0  0  0  0  0  0
  151.5451  139.5065  159.1564 C   0  0  0  0  0  0  0  0  0  0  0  0
  152.4414  139.9984  158.0045 C   0  0  0  0  0  0  0  0  0  0  0  0
  149.5376  144.5008  158.3147 H   0  0  0  0  0  0  0  0  0  0  0  0
  150.4204  144.3135  159.8241 H   0  0  0  0  0  0  0  0  0  0  0  0
  149.5234  142.9630  159.1729 H   0  0  0  0  0  0  0  0  0  0  0  0
  151.9562  142.6724  158.7328 H   0  0  0  0  0  0  0  0  0  0  0  0
  151.8363  145.3569  157.3006 H   0  0  0  0  0  0  0  0  0  0  0  0
  153.2448  144.3045  157.4110 H   0  0  0  0  0  0  0  0  0  0  0  0
  152.5923  145.0481  158.8623 H   0  0  0  0  0  0  0  0  0  0  0  0
  150.3303  143.3167  156.2200 H   0  0  0  0  0  0  0  0  0  0  0  0
  151.9617  142.7902  156.1163 H   0  0  0  0  0  0  0  0  0  0  0  0
  148.1202  140.0905  153.4231 H   0  0  0  0  0  0  0  0  0  0  0  0
  146.1350  142.3553  159.1169 H   0  0  0  0  0  0  0  0  0  0  0  0
  144.3499  140.7336  156.2392 H   0  0  0  0  0  0  0  0  0  0  0  0
  144.0864  141.4488  157.8080 H   0  0  0  0  0  0  0  0  0  0  0  0
  143.4971  142.3333  154.4132 H   0  0  0  0  0  0  0  0  0  0  0  0
  145.7426  143.9008  157.2175 H   0  0  0  0  0  0  0  0  0  0  0  0
  145.1714  144.7398  155.7843 H   0  0  0  0  0  0  0  0  0  0  0  0
  143.7879  144.5719  158.4750 H   0  0  0  0  0  0  0  0  0  0  0  0
  144.0357  145.9958  157.4526 H   0  0  0  0  0  0  0  0  0  0  0  0
  142.3461  142.7556  157.4694 H   0  0  0  0  0  0  0  0  0  0  0  0
  141.5406  141.8115  155.2598 H   0  0  0  0  0  0  0  0  0  0  0  0
  141.6807  143.4219  154.5515 H   0  0  0  0  0  0  0  0  0  0  0  0
  140.5412  143.1295  155.8571 H   0  0  0  0  0  0  0  0  0  0  0  0
  152.3293  140.4349  155.8905 H   0  0  0  0  0  0  0  0  0  0  0  0
  150.3896  138.8748  155.4593 H   0  0  0  0  0  0  0  0  0  0  0  0
  151.7479  138.0993  156.1974 H   0  0  0  0  0  0  0  0  0  0  0  0
  149.2433  139.0385  157.6898 H   0  0  0  0  0  0  0  0  0  0  0  0
  149.6549  137.3845  157.2882 H   0  0  0  0  0  0  0  0  0  0  0  0
  149.2373  138.3739  160.1656 H   0  0  0  0  0  0  0  0  0  0  0  0
  150.6716  137.5567  160.7994 H   0  0  0  0  0  0  0  0  0  0  0  0
  149.6296  136.7307  159.6442 H   0  0  0  0  0  0  0  0  0  0  0  0
  150.8024  140.2638  159.4124 H   0  0  0  0  0  0  0  0  0  0  0  0
  152.1537  139.3488  160.0475 H   0  0  0  0  0  0  0  0  0  0  0  0
  153.2236  139.2593  157.8263 H   0  0  0  0  0  0  0  0  0  0  0  0
  152.9706  140.9037  158.2979 H   0  0  0  0  0  0  0  0  0  0  0  0
  151.5914  137.5636  158.6169 H   0  0  0  0  0  0  0  0  0  0  0  0
  1  2  1  0  0  0  0
  1 30  1  0  0  0  0
  1 31  1  0  0  0  0
  1 32  1  0  0  0  0
  2  3  1  0  0  0  0
  2  4  1  0  0  0  0
  2 33  1  0  0  0  0
  3 34  1  0  0  0  0
  3 35  1  0  0  0  0
  3 36  1  0  0  0  0
  4  5  1  0  0  0  0
  4 37  1  0  0  0  0
  4 38  1  0  0  0  0
  5  6  1  0  0  0  0
  5 23  1  0  0  0  0
  6 11  1  0  0  0  0
  6  7  2  0  0  0  0
  7  8  1  0  0  0  0
  8  9  2  0  0  0  0
  8 39  1  0  0  0  0
  9 10  1  0  0  0  0
 10 14  1  0  0  0  0
 10 11  2  0  0  0  0
 11 12  1  0  0  0  0
 12 13  2  0  0  0  0
 13 14  1  0  0  0  0
 13 40  1  0  0  0  0
 14 15  1  0  0  0  0
 15 16  1  0  0  0  0
 15 41  1  0  0  0  0
 15 42  1  0  0  0  0
 16 21  1  0  0  0  0
 16 17  1  0  0  0  0
 16 18  1  0  0  0  0
 17 43  1  0  0  0  0
 18 19  1  0  0  0  0
 18 44  1  0  0  0  0
 18 45  1  0  0  0  0
 19 20  1  0  0  0  0
 19 46  1  0  0  0  0
 19 47  1  0  0  0  0
 20 21  1  0  0  0  0
 21 22  1  0  0  0  0
 21 48  1  0  0  0  0
 22 49  1  0  0  0  0
 22 50  1  0  0  0  0
 22 51  1  0  0  0  0
 23 29  1  0  0  0  0
 23 24  1  0  0  0  0
 23 52  1  0  0  0  0
 24 25  1  0  0  0  0
 24 53  1  0  0  0  0
 24 54  1  0  0  0  0
 25 26  1  0  0  0  0
 25 55  1  0  0  0  0
 25 56  1  0  0  0  0
 26 27  1  0  0  0  0
 26 28  1  0  0  0  0
 26 64  1  0  0  0  0
 27 57  1  0  0  0  0
 27 58  1  0  0  0  0
 27 59  1  0  0  0  0
 28 29  1  0  0  0  0
 28 60  1  0  0  0  0
 28 61  1  0  0  0  0
 29 62  1  0  0  0  0
 29 63  1  0  0  0  0
M  CHG  1  26   1
M  END
> <s_m_source_file>
AV-unprocessed.smi

> <i_m_source_file_index>
81

> <i_lp_mmshare_version>
43012

> <i_f3d_flags>
0

> <s_epik_input>
W0NIMl0xW0NIMl1OKFtDSDNdKVtDSDJdW0NIMl1bQ0hdMU4oW0NIMl1bQ0hdKFtDSDNdKVtDSDNdKWMobltjSF1uMiljKGMyMyluW2NIXW4zW0NIMl1bQ0BAXTQoW09IXSlbQ0gyXVtDSDJdT1tDQEhdNFtDSDNd

> <s_epik_cmdline>
J2VwaWtfcHl0aG9uJywgJy1waCcsICc3LjAnLCAnLXRuJywgJzgnLCAnLW1hJywgJzIwMCcsICctbWV0YWxfYmluZGluZycsICctaW1hZScsICc8aW5maWxlLm1hZT4nLCAnLW9tYWUnLCAnPG91dGZpbGUubWFlPic=

> <r_lp_tautomer_probability>
1

> <r_epik_Ionization_Penalty>
0.00272708

> <r_epik_Ionization_Penalty_Charging>
0.00158983

> <r_epik_Ionization_Penalty_Neutral>
0.00113725

> <r_epik_State_Penalty>
-0

> <r_epik_Charging_Adjusted_Penalty>
0.00158983

> <i_epik_Tot_Q>
1

> <i_epik_Tot_abs_Q>
1

> <r_epik_Metal_State_Penalty>
-0

> <b_epik_Metal_Only>
0

> <s_lp_Force_Field>
OPLS_2005

> <r_lp_Energy>
49.6566

> <b_lp_Chiralities_Consistent>
1

> <s_lp_Variant>
AV-unprocessed.smi:81-6

> <Gold.Version>
5.8.1

> <Gold.Id.Protein>
6NUR|6NUR_protein|mol2

> <Gold.PLP.Fitness>
39.8055

> <Gold.PLP.PLP>
-38.1377

> <Gold.PLP.part.hbond>
-2.4480

> <Gold.PLP.part.metal>
0.0000

> <Gold.PLP.part.buried>
-2.5626

> <Gold.PLP.part.nonpolar>
-34.0707

> <Gold.PLP.part.repulsive>
0.4665

> <Gold.PLP.ligand.clash>
0.0000

> <Gold.PLP.ligand.torsion>
2.8003

> <Gold.PLP.Chemscore.Hbond>
0.9794

> <Gold.PLP.Chemscore.CHOScore>
1.0000

> <Gold.PLP.Chemscore.Metal>
0.0000

> <Gold.Chemscore.Hbonds>
donor molecule, donor type, donor heavy atom, donor atom, acceptor molecule, acceptor atom, score
      L1  H    17    43       P1 10174  0.01
      L1  C     8    39       P1  7957  0.57

> <Gold.PLP.Chemscore.Internal.Correction>
1.3302

> <Gold.Rescore>
     Score         DG    S(hbond)    S(metal)    S(lipo)     H(rot)  DE(clash)    DE(int)     intcor
      6.52     -12.30       0.62        0.00      91.21       2.32       1.50       4.29       ----

> <Gold.Chemscore.Fitness>
6.5161

> <Gold.Chemscore.DG>
-12.2997

> <Gold.Chemscore.ZeroCoef>
-5.4800

> <Gold.Chemscore.Hbond>
0.6220

> <Gold.Chemscore.Metal>
0.0000

> <Gold.Chemscore.Lipo>
91.2118

> <Gold.Chemscore.Internal_Hbond>
0.0000

> <Gold.Chemscore.DEClash>
1.4968

> <Gold.Chemscore.DEInternal>
4.2868

> <Gold.Chemscore.Rot>
2.3163

> <Gold.Chemscore.Internal.Correction>
   9.000000E+99

> <Gold.Chemscore.Hbond.Weighted>
-2.0776

> <Gold.Chemscore.Metal.Weighted>
-0.0000

> <Gold.Chemscore.Lipo.Weighted>
-10.6718

> <Gold.Chemscore.Internal_Hbond.Weighted>
0.0000

> <Gold.Chemscore.DEClash.Weighted>
1.4968

> <Gold.Chemscore.DEInternal.Weighted>
4.2868

> <Gold.Chemscore.Rot.Weighted>
5.9297

> <Gold.Chemscore.Internal.Correction.Weighted>
   9.000000E+99

> <Gold.Protein.RotatedTorsions>
[ 6907 6896 6895 6894 ] final  108.69 input  -60.11 | X-H torsion
[ 7974 7965 7964 7962 ] final   29.91 input  175.53 | X-H torsion
[ 8008 7997 7996 7995 ] final  138.62 input   59.86 | X-H torsion
[ 10167 10162 10161 10158 ] final -125.12 input  -65.29 | X-H torsion
[ 10718 10713 10712 10709 ] final  -59.35 input   66.30 | X-H torsion
[ 10763 10752 10751 10750 ] final  -35.03 input  -60.55 | X-H torsion
[ 11005 11000 10999 10996 ] final -176.36 input  -57.11 | X-H torsion

> <Gold.Protein.ActiveResidues>
 VAL166  LYS551  ARG553  GLY616  TRP617  ASP618  TYR619  PRO620  LYS621  CYS622 
 ASP623  PHE694  ASN695  SER759  ASP760  ASP761  ALA762  ILE779  LEU786  VAL792 
 PHE793  MET794  SER795  GLU796  ALA797  LYS798  CYS799  TRP800  GLU811  SER814 

> <Gold.Protein.RotatedAtoms>
  152.5101  133.9053  159.7460 H   0  0  0  0  0  0  0  0  0  0  0  0  # atno 6907 bound_to 6896
  150.9459  133.6595  159.2788 H   0  0  0  0  0  0  0  0  0  0  0  0  # atno 6908 bound_to 6896
  151.3891  135.0958  159.9573 H   0  0  0  0  0  0  0  0  0  0  0  0  # atno 6909 bound_to 6896
  146.1643  139.6858  142.9012 H   0  0  0  0  0  0  0  0  0  0  0  0  # atno 7974 bound_to 7965
  156.2996  140.2389  156.4103 H   0  0  0  0  0  0  0  0  0  0  0  0  # atno 8008 bound_to 7997
  154.8447  140.0427  157.1584 H   0  0  0  0  0  0  0  0  0  0  0  0  # atno 8009 bound_to 7997
  154.9064  140.2984  155.5293 H   0  0  0  0  0  0  0  0  0  0  0  0  # atno 8010 bound_to 7997
  139.9855  143.5697  152.2362 H   0  0  0  0  0  0  0  0  0  0  0  0  # atno 10167 bound_to 10162
  156.1068  130.4179  150.0703 H   0  0  0  0  0  0  0  0  0  0  0  0  # atno 10718 bound_to 10713
  153.8565  135.6844  153.4787 H   0  0  0  0  0  0  0  0  0  0  0  0  # atno 10763 bound_to 10752
  153.1366  135.4675  154.9430 H   0  0  0  0  0  0  0  0  0  0  0  0  # atno 10764 bound_to 10752
  154.7778  135.3259  154.8003 H   0  0  0  0  0  0  0  0  0  0  0  0  # atno 10765 bound_to 10752
  140.4529  134.6326  157.4809 H   0  0  0  0  0  0  0  0  0  0  0  0  # atno 11005 bound_to 11000
  145.4508  141.0428  143.2806 LP  0  0  0  0  0  0  0  0  0  0  0  0  # atno 17320 bound_to 7965
  144.8070  139.6032  143.7046 LP  0  0  0  0  0  0  0  0  0  0  0  0  # atno 17321 bound_to 7965
  139.6378  144.7652  151.2401 LP  0  0  0  0  0  0  0  0  0  0  0  0  # atno 17342 bound_to 10162
  140.7474  143.6368  150.8371 LP  0  0  0  0  0  0  0  0  0  0  0  0  # atno 17343 bound_to 10162
  156.8677  130.9513  151.3612 LP  0  0  0  0  0  0  0  0  0  0  0  0  # atno 17370 bound_to 10713
  157.6245  130.8681  149.9166 LP  0  0  0  0  0  0  0  0  0  0  0  0  # atno 17371 bound_to 10713
  139.9995  134.6859  155.9554 LP  0  0  0  0  0  0  0  0  0  0  0  0  # atno 17394 bound_to 11000
  141.1656  133.6537  156.4467 LP  0  0  0  0  0  0  0  0  0  0  0  0  # atno 17395 bound_to 11000

$$$$
