AV-unprocessed.smi:37|AV-procd|sdf|334|dock3
  -GOLD-   2262016173D 1   1.00000     0.00000
 Structure written by MMmdl.
 43 44  0  0  0  0  0  0  0  0  2 V2000
  152.1323  141.9707  159.4729 C   0  0  0  0  0  0  0  0  0  0  0  0
  152.9518  140.8778  160.1750 C   0  0  0  0  0  0  0  0  0  0  0  0
  153.1790  139.6325  159.3151 C   0  0  0  0  0  0  0  0  0  0  0  0
  154.2878  139.3288  158.8710 O   0  0  0  0  0  0  0  0  0  0  0  0
  152.0444  138.9439  159.1222 O   0  0  0  0  0  0  0  0  0  0  0  0
  152.0752  137.7235  158.3981 C   0  0  0  0  0  0  0  0  0  0  0  0
  150.6638  137.1316  158.2838 C   0  0  1  0  0  0  0  0  0  0  0  0
  150.2801  136.4667  159.4867 O   0  0  0  0  0  0  0  0  0  0  0  0
  149.0087  136.8991  159.8726 C   0  0  2  0  0  0  0  0  0  0  0  0
  148.2237  135.7501  160.4622 N   0  0  0  0  0  0  0  0  0  0  0  0
  148.2503  134.4896  159.8885 C   0  0  0  0  0  0  0  0  0  0  0  0
  147.5465  133.4675  160.4166 C   0  0  0  0  0  0  0  0  0  0  0  0
  147.5872  132.2566  159.8348 F   0  0  0  0  0  0  0  0  0  0  0  0
  146.7416  133.6871  161.6170 C   0  0  0  0  0  0  0  0  0  0  0  0
  146.1063  132.7496  162.0971 O   0  0  0  0  0  0  0  0  0  0  0  0
  146.7315  134.9400  162.1578 N   0  5  0  0  0  0  0  0  0  0  0  0
  147.4397  135.9785  161.6248 C   0  0  0  0  0  0  0  0  0  0  0  0
  147.4343  137.1139  162.1008 O   0  0  0  0  0  0  0  0  0  0  0  0
  148.3486  137.4943  158.6233 C   0  0  2  0  0  0  0  0  0  0  0  0
  147.6025  136.0760  157.4243 Br  0  0  0  0  0  0  0  0  0  0  0  0
  149.5580  138.1494  157.9785 C   0  0  2  0  0  0  0  0  0  0  0  0
  149.4028  138.3585  156.5811 O   0  0  0  0  0  0  0  0  0  0  0  0
  148.6802  139.3987  156.1286 C   0  0  0  0  0  0  0  0  0  0  0  0
  148.0090  140.1666  156.8179 O   0  0  0  0  0  0  0  0  0  0  0  0
  148.7531  139.5498  154.6110 C   0  0  0  0  0  0  0  0  0  0  0  0
  148.3696  140.9626  154.1501 C   0  0  0  0  0  0  0  0  0  0  0  0
  151.9912  142.8267  160.1332 H   0  0  0  0  0  0  0  0  0  0  0  0
  151.1439  141.6070  159.1896 H   0  0  0  0  0  0  0  0  0  0  0  0
  152.6329  142.3284  158.5723 H   0  0  0  0  0  0  0  0  0  0  0  0
  153.9234  141.2781  160.4651 H   0  0  0  0  0  0  0  0  0  0  0  0
  152.4484  140.5761  161.0938 H   0  0  0  0  0  0  0  0  0  0  0  0
  152.4725  137.9026  157.3978 H   0  0  0  0  0  0  0  0  0  0  0  0
  152.7428  137.0170  158.8926 H   0  0  0  0  0  0  0  0  0  0  0  0
  150.6684  136.3656  157.5069 H   0  0  0  0  0  0  0  0  0  0  0  0
  149.1325  137.6267  160.6772 H   0  0  0  0  0  0  0  0  0  0  0  0
  148.8321  134.3096  158.9971 H   0  0  0  0  0  0  0  0  0  0  0  0
  147.5521  138.1929  158.8811 H   0  0  0  0  0  0  0  0  0  0  0  0
  149.7762  139.0850  158.4957 H   0  0  0  0  0  0  0  0  0  0  0  0
  149.7636  139.3089  154.2804 H   0  0  0  0  0  0  0  0  0  0  0  0
  148.0875  138.8183  154.1520 H   0  0  0  0  0  0  0  0  0  0  0  0
  148.3832  141.0278  153.0622 H   0  0  0  0  0  0  0  0  0  0  0  0
  149.0649  141.7108  154.5327 H   0  0  0  0  0  0  0  0  0  0  0  0
  147.3671  141.2314  154.4847 H   0  0  0  0  0  0  0  0  0  0  0  0
  1  2  1  0  0  0  0
  1 27  1  0  0  0  0
  1 28  1  0  0  0  0
  1 29  1  0  0  0  0
  2  3  1  0  0  0  0
  2 30  1  0  0  0  0
  2 31  1  0  0  0  0
  3  4  2  0  0  0  0
  3  5  1  0  0  0  0
  5  6  1  0  0  0  0
  6  7  1  0  0  0  0
  6 32  1  0  0  0  0
  6 33  1  0  0  0  0
  7 21  1  0  0  0  0
  7  8  1  0  0  0  0
  7 34  1  0  0  0  0
  8  9  1  0  0  0  0
  9 10  1  0  0  0  0
  9 19  1  0  0  0  0
  9 35  1  0  0  0  0
 10 17  1  0  0  0  0
 10 11  1  0  0  0  0
 11 12  2  0  0  0  0
 11 36  1  0  0  0  0
 12 13  1  0  0  0  0
 12 14  1  0  0  0  0
 14 15  2  0  0  0  0
 14 16  1  0  0  0  0
 16 17  1  0  0  0  0
 17 18  2  0  0  0  0
 19 20  1  0  0  0  0
 19 21  1  0  0  0  0
 19 37  1  0  0  0  0
 21 22  1  0  0  0  0
 21 38  1  0  0  0  0
 22 23  1  0  0  0  0
 23 24  2  0  0  0  0
 23 25  1  0  0  0  0
 25 26  1  0  0  0  0
 25 39  1  0  0  0  0
 25 40  1  0  0  0  0
 26 41  1  0  0  0  0
 26 42  1  0  0  0  0
 26 43  1  0  0  0  0
M  CHG  1  16  -1
M  END
> <s_m_source_file>
AV-unprocessed.smi

> <i_m_source_file_index>
37

> <i_lp_mmshare_version>
43012

> <i_f3d_flags>
0

> <s_epik_input>
W0NIM11bQ0gyXUMoPU8pT1tDSDJdW0NAQEhdMU9bQ0BASF0objJbY0hdYyhGKWMoPU8pW25IXWMyPU8pW0NAQEhdKEJyKVtDQEhdMU9DKD1PKVtDSDJdW0NIM10=

> <s_epik_cmdline>
J2VwaWtfcHl0aG9uJywgJy1waCcsICc3LjAnLCAnLXRuJywgJzgnLCAnLW1hJywgJzIwMCcsICctbWV0YWxfYmluZGluZycsICctaW1hZScsICc8aW5maWxlLm1hZT4nLCAnLW9tYWUnLCAnPG91dGZpbGUubWFlPic=

> <r_epik_Ionization_Penalty>
1.08158

> <r_epik_Ionization_Penalty_Charging>
9.05154e-09

> <r_epik_Ionization_Penalty_Neutral>
1.08158

> <r_epik_State_Penalty>
1.13706

> <r_epik_Charging_Adjusted_Penalty>
1.13706

> <i_epik_Tot_Q>
-1

> <i_epik_Tot_abs_Q>
1

> <r_epik_Metal_State_Penalty>
0.00343535

> <b_epik_Metal_Only>
0

> <s_epik_Chemistry_Notes>
This compound has an ester and may undergo hydrolysis at high or low pH. This compound contains an acetal/aminal-like group ( X-CH(R)-Y where X, Y are N, S, or O) that may be acid/base labile, releasing an aldehyde.

> <s_lp_Force_Field>
OPLS_2005

> <r_lp_Energy>
36.4441

> <b_lp_Chiralities_Consistent>
1

> <s_lp_Variant>
AV-unprocessed.smi:37-32

> <Gold.Version>
5.8.1

> <Gold.Id.Protein>
6NUR|6NUR_protein|mol2

> <Gold.PLP.Fitness>
42.6938

> <Gold.PLP.PLP>
-34.3382

> <Gold.PLP.part.hbond>
-4.0000

> <Gold.PLP.part.metal>
0.0000

> <Gold.PLP.part.buried>
-2.7380

> <Gold.PLP.part.nonpolar>
-26.9378

> <Gold.PLP.part.repulsive>
0.0639

> <Gold.PLP.ligand.clash>
0.0000

> <Gold.PLP.ligand.torsion>
1.1840

> <Gold.PLP.Chemscore.Hbond>
3.4560

> <Gold.PLP.Chemscore.CHOScore>
0.0000

> <Gold.PLP.Chemscore.Metal>
0.0000

> <Gold.Chemscore.Hbonds>
donor molecule, donor type, donor heavy atom, donor atom, acceptor molecule, acceptor atom, score
      P1  H  6896  6908       L1     8  1.00
      P1  H  6931  6943       L1    18  0.93
      P1  H  6934  6947       L1    18  0.32
      P1  H  7997  8010       L1     4  1.00

> <Gold.PLP.Chemscore.Internal.Correction>
0.3557

> <Gold.Rescore>
     Score         DG    S(hbond)    S(metal)    S(lipo)     H(rot)  DE(clash)    DE(int)     intcor
     14.17     -15.41       3.62        0.00      52.96       3.27       0.07       1.18       ----

> <Gold.Chemscore.Fitness>
14.1694

> <Gold.Chemscore.DG>
-15.4117

> <Gold.Chemscore.ZeroCoef>
-5.4800

> <Gold.Chemscore.Hbond>
3.6223

> <Gold.Chemscore.Metal>
0.0000

> <Gold.Chemscore.Lipo>
52.9612

> <Gold.Chemscore.Internal_Hbond>
0.0000

> <Gold.Chemscore.DEClash>
0.0650

> <Gold.Chemscore.DEInternal>
1.1772

> <Gold.Chemscore.Rot>
3.2669

> <Gold.Chemscore.Internal.Correction>
   9.000000E+99

> <Gold.Chemscore.Hbonds>
donor molecule, donor type, donor heavy atom, donor atom, acceptor molecule, acceptor atom, score
      P1  H  6896  6908       L1     8  0.94
      P1  H  6931  6943       L1    18  0.86
      P1  H  6934  6947       L1    18  0.32
      P1  H  7997  8010       L1     4  1.00

> <Gold.Chemscore.Hbond.Weighted>
-12.0986

> <Gold.Chemscore.Metal.Weighted>
-0.0000

> <Gold.Chemscore.Lipo.Weighted>
-6.1965

> <Gold.Chemscore.Internal_Hbond.Weighted>
0.0000

> <Gold.Chemscore.DEClash.Weighted>
0.0650

> <Gold.Chemscore.DEInternal.Weighted>
1.1772

> <Gold.Chemscore.Rot.Weighted>
8.3634

> <Gold.Chemscore.Internal.Correction.Weighted>
   9.000000E+99

> <Gold.Protein.RotatedTorsions>
[ 6907 6896 6895 6894 ] final -162.02 input  -60.11 | X-H torsion
[ 7974 7965 7964 7962 ] final   -7.41 input  175.53 | X-H torsion
[ 8008 7997 7996 7995 ] final    5.59 input   59.86 | X-H torsion
[ 10167 10162 10161 10158 ] final -162.42 input  -65.29 | X-H torsion
[ 10718 10713 10712 10709 ] final   48.04 input   66.30 | X-H torsion
[ 10763 10752 10751 10750 ] final -105.98 input  -60.55 | X-H torsion
[ 11005 11000 10999 10996 ] final  105.44 input  -57.11 | X-H torsion

> <Gold.Protein.ActiveResidues>
 VAL166  LYS551  ARG553  GLY616  TRP617  ASP618  TYR619  PRO620  LYS621  CYS622 
 ASP623  PHE694  ASN695  SER759  ASP760  ASP761  ALA762  ILE779  LEU786  VAL792 
 PHE793  MET794  SER795  GLU796  ALA797  LYS798  CYS799  TRP800  GLU811  SER814 

> <Gold.Protein.RotatedAtoms>
  151.3738  133.3845  159.2702 H   0  0  0  0  0  0  0  0  0  0  0  0  # atno 6907 bound_to 6896
  150.9630  134.9016  159.7753 H   0  0  0  0  0  0  0  0  0  0  0  0  # atno 6908 bound_to 6896
  152.5156  134.3698  159.9366 H   0  0  0  0  0  0  0  0  0  0  0  0  # atno 6909 bound_to 6896
  146.2307  140.2316  142.8340 H   0  0  0  0  0  0  0  0  0  0  0  0  # atno 7974 bound_to 7965
  154.7303  140.2729  155.6462 H   0  0  0  0  0  0  0  0  0  0  0  0  # atno 8008 bound_to 7997
  156.2848  140.2717  156.1926 H   0  0  0  0  0  0  0  0  0  0  0  0  # atno 8009 bound_to 7997
  155.0391  140.0371  157.2492 H   0  0  0  0  0  0  0  0  0  0  0  0  # atno 8010 bound_to 7997
  139.6393  144.0289  152.2079 H   0  0  0  0  0  0  0  0  0  0  0  0  # atno 10167 bound_to 10162
  157.4646  130.8218  149.7923 H   0  0  0  0  0  0  0  0  0  0  0  0  # atno 10718 bound_to 10713
  154.7982  135.4729  154.0212 H   0  0  0  0  0  0  0  0  0  0  0  0  # atno 10763 bound_to 10752
  153.1738  135.6829  153.8578 H   0  0  0  0  0  0  0  0  0  0  0  0  # atno 10764 bound_to 10752
  153.8152  135.3211  155.3382 H   0  0  0  0  0  0  0  0  0  0  0  0  # atno 10765 bound_to 10752
  139.8802  134.9336  156.5514 H   0  0  0  0  0  0  0  0  0  0  0  0  # atno 11005 bound_to 11000
  144.9554  140.8221  143.5546 LP  0  0  0  0  0  0  0  0  0  0  0  0  # atno 17320 bound_to 7965
  145.2281  139.2128  143.5057 LP  0  0  0  0  0  0  0  0  0  0  0  0  # atno 17321 bound_to 7965
  139.9975  144.6317  150.7759 LP  0  0  0  0  0  0  0  0  0  0  0  0  # atno 17342 bound_to 10162
  140.7482  143.2919  151.3307 LP  0  0  0  0  0  0  0  0  0  0  0  0  # atno 17343 bound_to 10162
  156.0044  130.3863  150.2483 LP  0  0  0  0  0  0  0  0  0  0  0  0  # atno 17370 bound_to 10713
  157.0663  131.0104  151.3205 LP  0  0  0  0  0  0  0  0  0  0  0  0  # atno 17371 bound_to 10713
  140.8237  133.8333  155.8919 LP  0  0  0  0  0  0  0  0  0  0  0  0  # atno 17394 bound_to 11000
  140.9394  134.1920  157.4808 LP  0  0  0  0  0  0  0  0  0  0  0  0  # atno 17395 bound_to 11000

$$$$
