AV-unprocessed.smi:1011|AV-procd|sdf|4419|dock2
  -GOLD-   22720 2363D 1   1.00000     0.00000
 Structure written by MMmdl.
 44 46  0  0  0  0  0  0  0  0  2 V2000
  149.8585  142.0586  157.9337 C   0  0  0  0  0  0  0  0  0  0  0  0
  149.8942  141.2118  156.6941 C   0  0  0  0  0  0  0  0  0  0  0  0
  149.4990  141.5777  155.3762 C   0  0  0  0  0  0  0  0  0  0  0  0
  149.6595  140.5984  154.5012 N   0  0  0  0  0  0  0  0  0  0  0  0
  150.1581  139.5749  155.2273 N   0  0  0  0  0  0  0  0  0  0  0  0
  150.4796  138.3157  154.5780 C   0  0  0  0  0  0  0  0  0  0  0  0
  149.9955  137.1103  155.3991 C   0  0  0  0  0  0  0  0  0  0  0  0
  148.9958  136.3235  154.6520 N   0  3  0  0  0  0  0  0  0  0  0  0
  147.5979  136.7163  154.9050 C   0  0  0  0  0  0  0  0  0  0  0  0
  146.8430  135.9807  153.8406 C   0  0  0  0  0  0  0  0  0  0  0  0
  146.9681  134.6637  153.6768 N   0  0  0  0  0  0  0  0  0  0  0  0
  146.1204  134.4066  152.6166 C   0  0  0  0  0  0  0  0  0  0  0  0
  145.8115  133.1936  151.9609 C   0  0  0  0  0  0  0  0  0  0  0  0
  144.9002  133.1757  150.8843 C   0  0  0  0  0  0  0  0  0  0  0  0
  144.5353  131.6862  150.0942 Cl  0  0  0  0  0  0  0  0  0  0  0  0
  144.2861  134.3687  150.4503 C   0  0  0  0  0  0  0  0  0  0  0  0
  144.5790  135.5882  151.0907 C   0  0  0  0  0  0  0  0  0  0  0  0
  145.4895  135.6000  152.1639 C   0  0  0  0  0  0  0  0  0  0  0  0
  145.9857  136.6035  152.9903 N   0  0  0  0  0  0  0  0  0  0  0  0
  145.6304  138.0165  152.9236 C   0  0  0  0  0  0  0  0  0  0  0  0
  146.2719  138.7283  151.7216 C   0  0  0  0  0  0  0  0  0  0  0  0
  147.5865  138.2631  151.4990 O   0  0  0  0  0  0  0  0  0  0  0  0
  150.3101  139.9180  156.5539 C   0  0  0  0  0  0  0  0  0  0  0  0
  148.9711  142.6911  157.9642 H   0  0  0  0  0  0  0  0  0  0  0  0
  150.7252  142.7169  157.9947 H   0  0  0  0  0  0  0  0  0  0  0  0
  149.8504  141.4522  158.8397 H   0  0  0  0  0  0  0  0  0  0  0  0
  149.1043  142.5222  155.0312 H   0  0  0  0  0  0  0  0  0  0  0  0
  150.0055  138.3091  153.5958 H   0  0  0  0  0  0  0  0  0  0  0  0
  151.5560  138.2645  154.4066 H   0  0  0  0  0  0  0  0  0  0  0  0
  150.8482  136.4794  155.6543 H   0  0  0  0  0  0  0  0  0  0  0  0
  149.5521  137.4433  156.3379 H   0  0  0  0  0  0  0  0  0  0  0  0
  149.1861  136.3889  153.6621 H   0  0  0  0  0  0  0  0  0  0  0  0
  147.2623  136.4156  155.8975 H   0  0  0  0  0  0  0  0  0  0  0  0
  147.4690  137.7945  154.8018 H   0  0  0  0  0  0  0  0  0  0  0  0
  146.2773  132.2753  152.2867 H   0  0  0  0  0  0  0  0  0  0  0  0
  143.5894  134.3481  149.6248 H   0  0  0  0  0  0  0  0  0  0  0  0
  144.1103  136.5028  150.7588 H   0  0  0  0  0  0  0  0  0  0  0  0
  144.5444  138.0900  152.8561 H   0  0  0  0  0  0  0  0  0  0  0  0
  145.9060  138.5164  153.8517 H   0  0  0  0  0  0  0  0  0  0  0  0
  145.6809  138.5672  150.8195 H   0  0  0  0  0  0  0  0  0  0  0  0
  146.3043  139.8040  151.8959 H   0  0  0  0  0  0  0  0  0  0  0  0
  148.1897  138.9657  151.6895 H   0  0  0  0  0  0  0  0  0  0  0  0
  150.7012  139.2216  157.2813 H   0  0  0  0  0  0  0  0  0  0  0  0
  149.0952  135.3578  154.9324 H   0  0  0  0  0  0  0  0  0  0  0  0
  1  2  1  0  0  0  0
  1 24  1  0  0  0  0
  1 25  1  0  0  0  0
  1 26  1  0  0  0  0
  2 23  2  0  0  0  0
  2  3  1  0  0  0  0
  3  4  2  0  0  0  0
  3 27  1  0  0  0  0
  4  5  1  0  0  0  0
  5  6  1  0  0  0  0
  5 23  1  0  0  0  0
  6  7  1  0  0  0  0
  6 28  1  0  0  0  0
  6 29  1  0  0  0  0
  7  8  1  0  0  0  0
  7 30  1  0  0  0  0
  7 31  1  0  0  0  0
  8  9  1  0  0  0  0
  8 32  1  0  0  0  0
  8 44  1  0  0  0  0
  9 10  1  0  0  0  0
  9 33  1  0  0  0  0
  9 34  1  0  0  0  0
 10 19  1  0  0  0  0
 10 11  2  0  0  0  0
 11 12  1  0  0  0  0
 12 18  2  0  0  0  0
 12 13  1  0  0  0  0
 13 14  2  0  0  0  0
 13 35  1  0  0  0  0
 14 15  1  0  0  0  0
 14 16  1  0  0  0  0
 16 17  2  0  0  0  0
 16 36  1  0  0  0  0
 17 18  1  0  0  0  0
 17 37  1  0  0  0  0
 18 19  1  0  0  0  0
 19 20  1  0  0  0  0
 20 21  1  0  0  0  0
 20 38  1  0  0  0  0
 20 39  1  0  0  0  0
 21 22  1  0  0  0  0
 21 40  1  0  0  0  0
 21 41  1  0  0  0  0
 22 42  1  0  0  0  0
 23 43  1  0  0  0  0
M  CHG  1   8   1
M  END
> <s_m_source_file>
AV-unprocessed.smi

> <i_m_source_file_index>
1011

> <i_lp_mmshare_version>
43012

> <i_f3d_flags>
0

> <s_epik_input>
W0NIM11jMVtjSF1ubihbY0hdMSlbQ0gyXVtDSDJdW05IXVtDSDJdYyhuMiluKFtDSDJdW0NIMl1bT0hdKWMoYzIzKVtjSF1bY0hdYyhDbClbY0hdMw==

> <s_epik_cmdline>
J2VwaWtfcHl0aG9uJywgJy1waCcsICc3LjAnLCAnLXRuJywgJzgnLCAnLW1hJywgJzIwMCcsICctbWV0YWxfYmluZGluZycsICctaW1hZScsICc8aW5maWxlLm1hZT4nLCAnLW9tYWUnLCAnPG91dGZpbGUubWFlPic=

> <r_lp_tautomer_probability>
1

> <r_epik_Ionization_Penalty>
0.234823

> <r_epik_Ionization_Penalty_Charging>
0.2345

> <r_epik_Ionization_Penalty_Neutral>
0.00032281

> <r_epik_State_Penalty>
0.238632

> <r_epik_Charging_Adjusted_Penalty>
0.473132

> <i_epik_Tot_Q>
1

> <i_epik_Tot_abs_Q>
1

> <r_epik_Metal_State_Penalty>
0.25397

> <b_epik_Metal_Only>
0

> <s_lp_Force_Field>
OPLS_2005

> <r_lp_Energy>
6.60255

> <b_lp_Chiralities_Consistent>
1

> <s_lp_Variant>
AV-unprocessed.smi:1011-1

> <Gold.Version>
5.8.1

> <Gold.Id.Protein>
6NUR|6NUR_protein|mol2

> <Gold.PLP.Fitness>
52.6669

> <Gold.PLP.PLP>
-37.5073

> <Gold.PLP.part.hbond>
-4.5363

> <Gold.PLP.part.metal>
0.0000

> <Gold.PLP.part.buried>
-1.7437

> <Gold.PLP.part.nonpolar>
-31.9890

> <Gold.PLP.part.repulsive>
0.6973

> <Gold.PLP.ligand.clash>
0.0000

> <Gold.PLP.ligand.torsion>
1.1327

> <Gold.PLP.Chemscore.Hbond>
4.7256

> <Gold.PLP.Chemscore.CHOScore>
1.0000

> <Gold.PLP.Chemscore.Metal>
0.0000

> <Gold.Chemscore.Hbonds>
donor molecule, donor type, donor heavy atom, donor atom, acceptor molecule, acceptor atom, score
      L1  H     8    32       P1  7948  2.00
      L1  H    22    42       P1  7957  0.94
      P1  H  7954  7966       L1    22  0.85
      P1  H  7989  7998       L1     4  0.22
      L1  C     3    27       P1  8028  1.00

> <Gold.PLP.Chemscore.Internal.Correction>
0.2481

> <Gold.Rescore>
     Score         DG    S(hbond)    S(metal)    S(lipo)     H(rot)  DE(clash)    DE(int)     intcor
     13.79     -16.30       2.60        0.00      82.39       2.94       1.17       1.34       ----

> <Gold.Chemscore.Fitness>
13.7874

> <Gold.Chemscore.DG>
-16.2981

> <Gold.Chemscore.ZeroCoef>
-5.4800

> <Gold.Chemscore.Hbond>
2.6046

> <Gold.Chemscore.Metal>
0.0000

> <Gold.Chemscore.Lipo>
82.3908

> <Gold.Chemscore.Internal_Hbond>
0.0000

> <Gold.Chemscore.DEClash>
1.1726

> <Gold.Chemscore.DEInternal>
1.3381

> <Gold.Chemscore.Rot>
2.9378

> <Gold.Chemscore.Internal.Correction>
   9.000000E+99

> <Gold.Chemscore.Hbonds>
donor molecule, donor type, donor heavy atom, donor atom, acceptor molecule, acceptor atom, score
      L1  H     8    32       P1  7948  0.95
      L1  H    22    42       P1  7957  0.81
      P1  H  7954  7966       L1    22  0.14
      P1  H  7989  7998       L1     4  0.01

> <Gold.Chemscore.Hbond.Weighted>
-8.6993

> <Gold.Chemscore.Metal.Weighted>
-0.0000

> <Gold.Chemscore.Lipo.Weighted>
-9.6397

> <Gold.Chemscore.Internal_Hbond.Weighted>
0.0000

> <Gold.Chemscore.DEClash.Weighted>
1.1726

> <Gold.Chemscore.DEInternal.Weighted>
1.3381

> <Gold.Chemscore.Rot.Weighted>
7.5209

> <Gold.Chemscore.Internal.Correction.Weighted>
   9.000000E+99

> <Gold.Protein.RotatedTorsions>
[ 6907 6896 6895 6894 ] final   13.48 input  -60.11 | X-H torsion
[ 7974 7965 7964 7962 ] final -127.23 input  175.53 | X-H torsion
[ 8008 7997 7996 7995 ] final  -60.42 input   59.86 | X-H torsion
[ 10167 10162 10161 10158 ] final -167.07 input  -65.29 | X-H torsion
[ 10718 10713 10712 10709 ] final  165.04 input   66.30 | X-H torsion
[ 10763 10752 10751 10750 ] final  144.88 input  -60.55 | X-H torsion
[ 11005 11000 10999 10996 ] final  121.98 input  -57.11 | X-H torsion

> <Gold.Protein.ActiveResidues>
 VAL166  LYS551  ARG553  GLY616  TRP617  ASP618  TYR619  PRO620  LYS621  CYS622 
 ASP623  PHE694  ASN695  SER759  ASP760  ASP761  ALA762  ILE779  LEU786  VAL792 
 PHE793  MET794  SER795  GLU796  ALA797  LYS798  CYS799  TRP800  GLU811  SER814 

> <Gold.Protein.RotatedAtoms>
  151.7869  135.0746  160.0381 H   0  0  0  0  0  0  0  0  0  0  0  0  # atno 6907 bound_to 6896
  152.3184  133.5822  159.5736 H   0  0  0  0  0  0  0  0  0  0  0  0  # atno 6908 bound_to 6896
  150.7356  133.9964  159.3666 H   0  0  0  0  0  0  0  0  0  0  0  0  # atno 6909 bound_to 6896
  144.9792  140.7623  143.4623 H   0  0  0  0  0  0  0  0  0  0  0  0  # atno 7974 bound_to 7965
  154.4398  140.1040  156.6271 H   0  0  0  0  0  0  0  0  0  0  0  0  # atno 8008 bound_to 7997
  155.5644  140.3488  155.4481 H   0  0  0  0  0  0  0  0  0  0  0  0  # atno 8009 bound_to 7997
  156.0436  140.1287  157.0118 H   0  0  0  0  0  0  0  0  0  0  0  0  # atno 8010 bound_to 7997
  139.6073  144.0886  152.1806 H   0  0  0  0  0  0  0  0  0  0  0  0  # atno 10167 bound_to 10162
  157.0858  131.0404  151.2557 H   0  0  0  0  0  0  0  0  0  0  0  0  # atno 10718 bound_to 10713
  153.9962  135.2927  155.3407 H   0  0  0  0  0  0  0  0  0  0  0  0  # atno 10763 bound_to 10752
  154.7186  135.5119  153.8780 H   0  0  0  0  0  0  0  0  0  0  0  0  # atno 10764 bound_to 10752
  153.0787  135.6672  154.0208 H   0  0  0  0  0  0  0  0  0  0  0  0  # atno 10765 bound_to 10752
  139.9249  134.9640  156.8040 H   0  0  0  0  0  0  0  0  0  0  0  0  # atno 11005 bound_to 11000
  145.2446  139.2057  143.4974 LP  0  0  0  0  0  0  0  0  0  0  0  0  # atno 17320 bound_to 7965
  146.3403  140.2348  142.8594 LP  0  0  0  0  0  0  0  0  0  0  0  0  # atno 17321 bound_to 7965
  140.0496  144.5943  150.7346 LP  0  0  0  0  0  0  0  0  0  0  0  0  # atno 17342 bound_to 10162
  140.7294  143.2672  151.4005 LP  0  0  0  0  0  0  0  0  0  0  0  0  # atno 17343 bound_to 10162
  157.4762  130.7738  149.7370 LP  0  0  0  0  0  0  0  0  0  0  0  0  # atno 17370 bound_to 10713
  155.9911  130.3940  150.2999 LP  0  0  0  0  0  0  0  0  0  0  0  0  # atno 17371 bound_to 10713
  140.6366  133.9856  155.7687 LP  0  0  0  0  0  0  0  0  0  0  0  0  # atno 17394 bound_to 11000
  141.0798  134.0079  157.3403 LP  0  0  0  0  0  0  0  0  0  0  0  0  # atno 17395 bound_to 11000

$$$$
