AV-unprocessed.smi:101|AV-procd|sdf|925|dock1
  -GOLD-   2262017433D 1   1.00000     0.00000
 Structure written by MMmdl.
 44 46  0  0  0  0  0  0  0  0  1 V2000
  147.8824  135.5451  155.5449 C   0  0  0  0  0  0  0  0  0  0  0  0
  147.6243  136.7770  154.6931 C   0  0  0  0  0  0  0  0  0  0  0  0
  148.4290  137.8698  154.7336 C   0  0  0  0  0  0  0  0  0  0  0  0
  148.2213  139.0090  153.9648 N   0  0  0  0  0  0  0  0  0  0  0  0
  149.1439  140.2136  154.0236 C   0  0  2  0  0  0  0  0  0  0  0  0
  150.3279  139.8629  154.6794 O   0  0  0  0  0  0  0  0  0  0  0  0
  150.3632  140.4660  155.9686 C   0  0  1  0  0  0  0  0  0  0  0  0
  151.8137  140.5542  156.4527 C   0  0  0  0  0  0  0  0  0  0  0  0
  151.8405  141.3518  157.6246 O   0  0  0  0  0  0  0  0  0  0  0  0
  152.6500  141.0286  158.6497 C   0  0  0  0  0  0  0  0  0  0  0  0
  153.3663  140.0256  158.6644 O   0  0  0  0  0  0  0  0  0  0  0  0
  152.5846  142.0135  159.7680 C   0  0  0  0  0  0  0  0  0  0  0  0
  153.1284  141.6697  161.0276 C   0  0  0  0  0  0  0  0  0  0  0  0
  153.0776  142.5785  162.1027 C   0  0  0  0  0  0  0  0  0  0  0  0
  152.4837  143.8423  161.9309 C   0  0  0  0  0  0  0  0  0  0  0  0
  151.9401  144.1968  160.6823 C   0  0  0  0  0  0  0  0  0  0  0  0
  151.9892  143.2893  159.6063 C   0  0  0  0  0  0  0  0  0  0  0  0
  149.7019  141.8130  155.6956 C   0  0  2  0  0  0  0  0  0  0  0  0
  149.3030  142.4927  156.8719 O   0  0  0  0  0  0  0  0  0  0  0  0
  148.5377  141.4154  154.7916 C   0  0  2  0  0  0  0  0  0  0  0  0
  147.3763  141.0822  155.5385 O   0  0  0  0  0  0  0  0  0  0  0  0
  147.1184  139.0561  153.0879 C   0  0  0  0  0  0  0  0  0  0  0  0
  146.8689  140.0357  152.3864 O   0  0  0  0  0  0  0  0  0  0  0  0
  146.2927  137.9347  153.0455 N   0  0  0  0  0  0  0  0  0  0  0  0
  146.4640  136.7706  153.7980 C   0  0  0  0  0  0  0  0  0  0  0  0
  145.6649  135.8440  153.6734 O   0  0  0  0  0  0  0  0  0  0  0  0
  145.5025  137.9657  152.4180 H   0  0  0  0  0  0  0  0  0  0  0  0
  148.7695  135.6620  156.1685 H   0  0  0  0  0  0  0  0  0  0  0  0
  148.0328  134.6697  154.9122 H   0  0  0  0  0  0  0  0  0  0  0  0
  147.0349  135.3514  156.2031 H   0  0  0  0  0  0  0  0  0  0  0  0
  149.2727  137.8340  155.4050 H   0  0  0  0  0  0  0  0  0  0  0  0
  149.4008  140.4442  152.9879 H   0  0  0  0  0  0  0  0  0  0  0  0
  149.7555  139.8919  156.6706 H   0  0  0  0  0  0  0  0  0  0  0  0
  152.2162  139.5588  156.6462 H   0  0  0  0  0  0  0  0  0  0  0  0
  152.4370  141.0233  155.6906 H   0  0  0  0  0  0  0  0  0  0  0  0
  153.5890  140.7049  161.1837 H   0  0  0  0  0  0  0  0  0  0  0  0
  153.4948  142.3041  163.0606 H   0  0  0  0  0  0  0  0  0  0  0  0
  152.4444  144.5387  162.7555 H   0  0  0  0  0  0  0  0  0  0  0  0
  151.4837  145.1665  160.5487 H   0  0  0  0  0  0  0  0  0  0  0  0
  151.5619  143.5939  158.6620 H   0  0  0  0  0  0  0  0  0  0  0  0
  150.3905  142.4488  155.1368 H   0  0  0  0  0  0  0  0  0  0  0  0
  149.2920  143.4208  156.6959 H   0  0  0  0  0  0  0  0  0  0  0  0
  148.2831  142.2107  154.0904 H   0  0  0  0  0  0  0  0  0  0  0  0
  147.6485  140.6844  156.3514 H   0  0  0  0  0  0  0  0  0  0  0  0
  1  2  1  0  0  0  0
  1 28  1  0  0  0  0
  1 29  1  0  0  0  0
  1 30  1  0  0  0  0
  2 25  1  0  0  0  0
  2  3  2  0  0  0  0
  3  4  1  0  0  0  0
  3 31  1  0  0  0  0
  4  5  1  0  0  0  0
  4 22  1  0  0  0  0
  5 20  1  0  0  0  0
  5  6  1  0  0  0  0
  5 32  1  0  0  0  0
  6  7  1  0  0  0  0
  7  8  1  0  0  0  0
  7 18  1  0  0  0  0
  7 33  1  0  0  0  0
  8  9  1  0  0  0  0
  8 34  1  0  0  0  0
  8 35  1  0  0  0  0
  9 10  1  0  0  0  0
 10 11  2  0  0  0  0
 10 12  1  0  0  0  0
 12 17  1  0  0  0  0
 12 13  2  0  0  0  0
 13 14  1  0  0  0  0
 13 36  1  0  0  0  0
 14 15  2  0  0  0  0
 14 37  1  0  0  0  0
 15 16  1  0  0  0  0
 15 38  1  0  0  0  0
 16 17  2  0  0  0  0
 16 39  1  0  0  0  0
 17 40  1  0  0  0  0
 18 19  1  0  0  0  0
 18 20  1  0  0  0  0
 18 41  1  0  0  0  0
 19 42  1  0  0  0  0
 20 21  1  0  0  0  0
 20 43  1  0  0  0  0
 21 44  1  0  0  0  0
 22 23  2  0  0  0  0
 22 24  1  0  0  0  0
 24 27  1  0  0  0  0
 24 25  1  0  0  0  0
 25 26  2  0  0  0  0
M  END
> <s_m_source_file>
AV-unprocessed.smi

> <i_m_source_file_index>
101

> <i_lp_mmshare_version>
43012

> <i_f3d_flags>
0

> <s_epik_input>
Tz1jMVtuSF1jKD1PKW4oW2NIXWMxW0NIM10pW0NAQEhdMk9bQ0BIXShbQ0BASF0oW09IXSlbQ0BIXTJbT0hdKVtDSDJdT0MoPU8pYzNbY0hdW2NIXVtjSF1bY0hdW2NIXTM=

> <s_epik_cmdline>
J2VwaWtfcHl0aG9uJywgJy1waCcsICc3LjAnLCAnLXRuJywgJzgnLCAnLW1hJywgJzIwMCcsICctbWV0YWxfYmluZGluZycsICctaW1hZScsICc8aW5maWxlLm1hZT4nLCAnLW9tYWUnLCAnPG91dGZpbGUubWFlPic=

> <r_lp_tautomer_probability>
0.999537

> <r_epik_Ionization_Penalty>
0.00263537

> <r_epik_Ionization_Penalty_Charging>
0.00263428

> <r_epik_Ionization_Penalty_Neutral>
1.09111e-06

> <r_epik_State_Penalty>
0.00183335

> <r_epik_Charging_Adjusted_Penalty>
0.00446763

> <i_epik_Tot_Q>
0

> <i_epik_Tot_abs_Q>
0

> <r_epik_Metal_State_Penalty>
1.00528

> <b_epik_Metal_Only>
0

> <s_epik_Chemistry_Notes>
This compound has an ester and may undergo hydrolysis at high or low pH. This compound contains an acetal/aminal-like group ( X-CH(R)-Y where X, Y are N, S, or O) that may be acid/base labile, releasing an aldehyde.

> <s_lp_Force_Field>
OPLS_2005

> <r_lp_Energy>
40.9352

> <b_lp_Chiralities_Consistent>
1

> <s_lp_Variant>
AV-unprocessed.smi:101-13

> <Gold.Version>
5.8.1

> <Gold.Id.Protein>
6NUR|6NUR_protein|mol2

> <Gold.PLP.Fitness>
50.3023

> <Gold.PLP.PLP>
-42.6586

> <Gold.PLP.part.hbond>
-3.0000

> <Gold.PLP.part.metal>
0.0000

> <Gold.PLP.part.buried>
-0.8035

> <Gold.PLP.part.nonpolar>
-37.5501

> <Gold.PLP.part.repulsive>
1.0018

> <Gold.PLP.ligand.clash>
0.0000

> <Gold.PLP.ligand.torsion>
0.7482

> <Gold.PLP.Chemscore.Hbond>
3.0000

> <Gold.PLP.Chemscore.CHOScore>
0.0000

> <Gold.PLP.Chemscore.Metal>
0.0000

> <Gold.Chemscore.Hbonds>
donor molecule, donor type, donor heavy atom, donor atom, acceptor molecule, acceptor atom, score
      L1  H    19    42       P1  8028  1.00
      P1  H  7989  7998       L1     6  0.90
      P1  H  7997  8008       L1    11  0.99

> <Gold.PLP.Chemscore.Internal.Correction>
0.1402

> <Gold.Rescore>
     Score         DG    S(hbond)    S(metal)    S(lipo)     H(rot)  DE(clash)    DE(int)     intcor
     12.30     -15.23       2.03        0.00      97.83       3.32       0.92       2.01       ----

> <Gold.Chemscore.Fitness>
12.2985

> <Gold.Chemscore.DG>
-15.2277

> <Gold.Chemscore.ZeroCoef>
-5.4800

> <Gold.Chemscore.Hbond>
2.0340

> <Gold.Chemscore.Metal>
0.0000

> <Gold.Chemscore.Lipo>
97.8292

> <Gold.Chemscore.Internal_Hbond>
0.0000

> <Gold.Chemscore.DEClash>
0.9240

> <Gold.Chemscore.DEInternal>
2.0052

> <Gold.Chemscore.Rot>
3.3172

> <Gold.Chemscore.Internal.Correction>
   9.000000E+99

> <Gold.Chemscore.Hbonds>
donor molecule, donor type, donor heavy atom, donor atom, acceptor molecule, acceptor atom, score
      L1  H    19    42       P1  8028  0.93
      P1  H  7989  7998       L1     6  0.11
      P1  H  7997  8008       L1    11  0.73

> <Gold.Chemscore.Hbond.Weighted>
-6.7937

> <Gold.Chemscore.Metal.Weighted>
-0.0000

> <Gold.Chemscore.Lipo.Weighted>
-11.4460

> <Gold.Chemscore.Internal_Hbond.Weighted>
0.0000

> <Gold.Chemscore.DEClash.Weighted>
0.9240

> <Gold.Chemscore.DEInternal.Weighted>
2.0052

> <Gold.Chemscore.Rot.Weighted>
8.4920

> <Gold.Chemscore.Internal.Correction.Weighted>
   9.000000E+99

> <Gold.Protein.RotatedTorsions>
[ 6907 6896 6895 6894 ] final -108.39 input  -60.11 | X-H torsion
[ 7974 7965 7964 7962 ] final  -70.73 input  175.53 | X-H torsion
[ 8008 7997 7996 7995 ] final  -97.58 input   59.86 | X-H torsion
[ 10167 10162 10161 10158 ] final  -53.31 input  -65.29 | X-H torsion
[ 10718 10713 10712 10709 ] final -167.46 input   66.30 | X-H torsion
[ 10763 10752 10751 10750 ] final  163.97 input  -60.55 | X-H torsion
[ 11005 11000 10999 10996 ] final   87.95 input  -57.11 | X-H torsion

> <Gold.Protein.ActiveResidues>
 VAL166  LYS551  ARG553  GLY616  TRP617  ASP618  TYR619  PRO620  LYS621  CYS622 
 ASP623  PHE694  ASN695  SER759  ASP760  ASP761  ALA762  ILE779  LEU786  VAL792 
 PHE793  MET794  SER795  GLU796  ALA797  LYS798  CYS799  TRP800  GLU811  SER814 

> <Gold.Protein.RotatedAtoms>
  150.7499  133.9684  159.3537 H   0  0  0  0  0  0  0  0  0  0  0  0  # atno 6907 bound_to 6896
  151.7616  135.0806  160.0356 H   0  0  0  0  0  0  0  0  0  0  0  0  # atno 6908 bound_to 6896
  152.3399  133.6018  159.5905 H   0  0  0  0  0  0  0  0  0  0  0  0  # atno 6909 bound_to 6896
  145.6872  140.9166  143.0801 H   0  0  0  0  0  0  0  0  0  0  0  0  # atno 7974 bound_to 7965
  154.7896  140.0462  157.1191 H   0  0  0  0  0  0  0  0  0  0  0  0  # atno 8008 bound_to 7997
  154.9606  140.3077  155.5013 H   0  0  0  0  0  0  0  0  0  0  0  0  # atno 8009 bound_to 7997
  156.2948  140.2271  156.4691 H   0  0  0  0  0  0  0  0  0  0  0  0  # atno 8010 bound_to 7997
  140.6492  143.2554  151.4773 H   0  0  0  0  0  0  0  0  0  0  0  0  # atno 10167 bound_to 10162
  156.6827  130.9128  151.3059 H   0  0  0  0  0  0  0  0  0  0  0  0  # atno 10718 bound_to 10713
  154.3017  135.2759  155.2607 H   0  0  0  0  0  0  0  0  0  0  0  0  # atno 10763 bound_to 10752
  154.5041  135.5800  153.6557 H   0  0  0  0  0  0  0  0  0  0  0  0  # atno 10764 bound_to 10752
  152.9899  135.6165  154.3189 H   0  0  0  0  0  0  0  0  0  0  0  0  # atno 10765 bound_to 10752
  139.8907  134.8456  156.2931 H   0  0  0  0  0  0  0  0  0  0  0  0  # atno 11005 bound_to 11000
  144.7008  139.8773  143.7445 LP  0  0  0  0  0  0  0  0  0  0  0  0  # atno 17320 bound_to 7965
  146.0913  139.3903  143.0404 LP  0  0  0  0  0  0  0  0  0  0  0  0  # atno 17321 bound_to 7965
  139.5705  144.1940  152.1829 LP  0  0  0  0  0  0  0  0  0  0  0  0  # atno 17342 bound_to 10162
  140.1235  144.5352  150.6848 LP  0  0  0  0  0  0  0  0  0  0  0  0  # atno 17343 bound_to 10162
  157.7038  130.9362  150.0866 LP  0  0  0  0  0  0  0  0  0  0  0  0  # atno 17370 bound_to 10713
  156.1855  130.3652  149.8978 LP  0  0  0  0  0  0  0  0  0  0  0  0  # atno 17371 bound_to 10713
  140.9963  133.7178  156.0890 LP  0  0  0  0  0  0  0  0  0  0  0  0  # atno 17394 bound_to 11000
  140.7558  134.3994  157.5534 LP  0  0  0  0  0  0  0  0  0  0  0  0  # atno 17395 bound_to 11000

$$$$
