AV-unprocessed.smi:1579|AV-procd|sdf|6354|dock7
  -GOLD-   22720 6573D 1   1.00000     0.00000
 Structure written by MMmdl.
 47 48  0  0  0  0  0  0  0  0  2 V2000
  151.1726  137.1823  154.2024 C   0  0  0  0  0  0  0  0  0  0  0  0
  150.4408  138.4681  154.4785 C   0  0  0  0  0  0  0  0  0  0  0  0
  149.3012  138.6256  153.8889 N   0  0  0  0  0  0  0  0  0  0  0  0
  148.5480  139.7690  154.0700 N   0  0  0  0  0  0  0  0  0  0  0  0
  147.2898  139.7750  153.3113 C   0  0  0  0  0  0  0  0  0  0  0  0
  147.1045  138.4989  152.4613 C   0  0  2  0  0  0  0  0  0  0  0  0
  146.9643  138.9069  151.1146 O   0  0  0  0  0  0  0  0  0  0  0  0
  145.8668  137.6678  152.8681 C   0  0  0  0  0  0  0  0  0  0  0  0
  145.9052  136.2731  152.3583 N   0  3  2  0  0  0  0  0  0  0  0  0
  145.3728  136.1726  150.9749 C   0  0  0  0  0  0  0  0  0  0  0  0
  145.5425  134.7511  150.4138 C   0  0  0  0  0  0  0  0  0  0  0  0
  144.8668  133.7091  151.3204 C   0  0  1  0  0  0  0  0  0  0  0  0
  145.0509  132.2829  150.7833 C   0  0  0  0  0  0  0  0  0  0  0  0
  145.4124  133.8565  152.7504 C   0  0  0  0  0  0  0  0  0  0  0  0
  145.2461  135.2959  153.2663 C   0  0  0  0  0  0  0  0  0  0  0  0
  148.9048  140.8132  154.8720 C   0  0  0  0  0  0  0  0  0  0  0  0
  148.1905  141.8046  155.0279 O   0  0  0  0  0  0  0  0  0  0  0  0
  150.1985  140.6308  155.5334 C   0  0  0  0  0  0  0  0  0  0  0  0
  150.6125  141.7061  156.3759 C   0  0  0  0  0  0  0  0  0  0  0  0
  150.9568  142.5652  157.0708 N   0  0  0  0  0  0  0  0  0  0  0  0
  150.9492  139.5145  155.3593 C   0  0  0  0  0  0  0  0  0  0  0  0
  152.2976  139.2767  156.0250 C   0  0  0  0  0  0  0  0  0  0  0  0
  152.1627  137.3802  153.7910 H   0  0  0  0  0  0  0  0  0  0  0  0
  150.6390  136.5551  153.4866 H   0  0  0  0  0  0  0  0  0  0  0  0
  151.2958  136.6036  155.1180 H   0  0  0  0  0  0  0  0  0  0  0  0
  146.4255  139.9240  153.9611 H   0  0  0  0  0  0  0  0  0  0  0  0
  147.2970  140.6473  152.6545 H   0  0  0  0  0  0  0  0  0  0  0  0
  148.0135  137.9028  152.5316 H   0  0  0  0  0  0  0  0  0  0  0  0
  147.7575  139.3400  150.8394 H   0  0  0  0  0  0  0  0  0  0  0  0
  145.7597  137.6303  153.9521 H   0  0  0  0  0  0  0  0  0  0  0  0
  144.9762  138.1753  152.4941 H   0  0  0  0  0  0  0  0  0  0  0  0
  144.3198  136.4589  150.9664 H   0  0  0  0  0  0  0  0  0  0  0  0
  145.8979  136.8750  150.3263 H   0  0  0  0  0  0  0  0  0  0  0  0
  145.1215  134.7015  149.4088 H   0  0  0  0  0  0  0  0  0  0  0  0
  146.6050  134.5237  150.3144 H   0  0  0  0  0  0  0  0  0  0  0  0
  143.7963  133.9191  151.3421 H   0  0  0  0  0  0  0  0  0  0  0  0
  146.1052  132.0073  150.7381 H   0  0  0  0  0  0  0  0  0  0  0  0
  144.6384  132.1863  149.7785 H   0  0  0  0  0  0  0  0  0  0  0  0
  144.5434  131.5558  151.4179 H   0  0  0  0  0  0  0  0  0  0  0  0
  144.8973  133.1661  153.4195 H   0  0  0  0  0  0  0  0  0  0  0  0
  146.4677  133.5803  152.7758 H   0  0  0  0  0  0  0  0  0  0  0  0
  145.6697  135.3591  154.2677 H   0  0  0  0  0  0  0  0  0  0  0  0
  144.1864  135.5397  153.3581 H   0  0  0  0  0  0  0  0  0  0  0  0
  152.5612  140.0734  156.7201 H   0  0  0  0  0  0  0  0  0  0  0  0
  153.0875  139.2204  155.2754 H   0  0  0  0  0  0  0  0  0  0  0  0
  152.2908  138.3438  156.5892 H   0  0  0  0  0  0  0  0  0  0  0  0
  146.8802  136.0167  152.3010 H   0  0  0  0  0  0  0  0  0  0  0  0
  1  2  1  0  0  0  0
  1 23  1  0  0  0  0
  1 24  1  0  0  0  0
  1 25  1  0  0  0  0
  2 21  1  0  0  0  0
  2  3  2  0  0  0  0
  3  4  1  0  0  0  0
  4  5  1  0  0  0  0
  4 16  1  0  0  0  0
  5  6  1  0  0  0  0
  5 26  1  0  0  0  0
  5 27  1  0  0  0  0
  6  7  1  0  0  0  0
  6  8  1  0  0  0  0
  6 28  1  0  0  0  0
  7 29  1  0  0  0  0
  8  9  1  0  0  0  0
  8 30  1  0  0  0  0
  8 31  1  0  0  0  0
  9 15  1  0  0  0  0
  9 10  1  0  0  0  0
  9 47  1  0  0  0  0
 10 11  1  0  0  0  0
 10 32  1  0  0  0  0
 10 33  1  0  0  0  0
 11 12  1  0  0  0  0
 11 34  1  0  0  0  0
 11 35  1  0  0  0  0
 12 13  1  0  0  0  0
 12 14  1  0  0  0  0
 12 36  1  0  0  0  0
 13 37  1  0  0  0  0
 13 38  1  0  0  0  0
 13 39  1  0  0  0  0
 14 15  1  0  0  0  0
 14 40  1  0  0  0  0
 14 41  1  0  0  0  0
 15 42  1  0  0  0  0
 15 43  1  0  0  0  0
 16 17  2  0  0  0  0
 16 18  1  0  0  0  0
 18 19  1  0  0  0  0
 18 21  2  0  0  0  0
 19 20  3  0  0  0  0
 21 22  1  0  0  0  0
 22 44  1  0  0  0  0
 22 45  1  0  0  0  0
 22 46  1  0  0  0  0
M  CHG  1   9   1
M  END
> <s_m_source_file>
AV-unprocessed.smi

> <i_m_source_file_index>
1579

> <i_lp_mmshare_version>
43012

> <i_f3d_flags>
0

> <s_epik_input>
TiNDYyhjMVtDSDNdKWMoPU8pbihuYzFbQ0gzXSlbQ0gyXVtDQEhdKFtPSF0pW0NIMl1OMltDSDJdW0NIMl1bQ0hdKFtDSDNdKVtDSDJdW0NIMl0y

> <s_epik_cmdline>
J2VwaWtfcHl0aG9uJywgJy1waCcsICc3LjAnLCAnLXRuJywgJzgnLCAnLW1hJywgJzIwMCcsICctbWV0YWxfYmluZGluZycsICctaW1hZScsICc8aW5maWxlLm1hZT4nLCAnLW9tYWUnLCAnPG91dGZpbGUubWFlPic=

> <r_epik_Ionization_Penalty>
0.00136816

> <r_epik_Ionization_Penalty_Charging>
0.00136813

> <r_epik_Ionization_Penalty_Neutral>
3.19884e-08

> <r_epik_State_Penalty>
0.000910892

> <r_epik_Charging_Adjusted_Penalty>
0.00227902

> <i_epik_Tot_Q>
1

> <i_epik_Tot_abs_Q>
1

> <r_epik_Metal_State_Penalty>
-0

> <b_epik_Metal_Only>
0

> <s_lp_Force_Field>
OPLS_2005

> <r_lp_Energy>
36.6054

> <b_lp_Chiralities_Consistent>
1

> <s_lp_Variant>
AV-unprocessed.smi:1579-1

> <Gold.Version>
5.8.1

> <Gold.Id.Protein>
6NUR|6NUR_protein|mol2

> <Gold.PLP.Fitness>
43.6374

> <Gold.PLP.PLP>
-37.1217

> <Gold.PLP.part.hbond>
-3.5019

> <Gold.PLP.part.metal>
0.0000

> <Gold.PLP.part.buried>
0.7030

> <Gold.PLP.part.nonpolar>
-35.5692

> <Gold.PLP.part.repulsive>
2.4873

> <Gold.PLP.ligand.clash>
0.0000

> <Gold.PLP.ligand.torsion>
1.2514

> <Gold.PLP.Chemscore.Hbond>
3.0000

> <Gold.PLP.Chemscore.CHOScore>
0.0000

> <Gold.PLP.Chemscore.Metal>
0.0000

> <Gold.Chemscore.Hbonds>
donor molecule, donor type, donor heavy atom, donor atom, acceptor molecule, acceptor atom, score
      L1  H     7    29       P1  7957  1.00
      L1  H     9    47       P1  7948  1.59

> <Gold.PLP.Chemscore.Internal.Correction>
0.0184

> <Gold.Rescore>
     Score         DG    S(hbond)    S(metal)    S(lipo)     H(rot)  DE(clash)    DE(int)     intcor
     12.55     -16.78       1.93        0.00      89.08       2.17       2.41       1.82       ----

> <Gold.Chemscore.Fitness>
12.5490

> <Gold.Chemscore.DG>
-16.7779

> <Gold.Chemscore.ZeroCoef>
-5.4800

> <Gold.Chemscore.Hbond>
1.9265

> <Gold.Chemscore.Metal>
0.0000

> <Gold.Chemscore.Lipo>
89.0826

> <Gold.Chemscore.Internal_Hbond>
0.0000

> <Gold.Chemscore.DEClash>
2.4131

> <Gold.Chemscore.DEInternal>
1.8159

> <Gold.Chemscore.Rot>
2.1715

> <Gold.Chemscore.Internal.Correction>
   9.000000E+99

> <Gold.Chemscore.Hbonds>
donor molecule, donor type, donor heavy atom, donor atom, acceptor molecule, acceptor atom, score
      L1  H     7    29       P1  7957  0.39
      L1  H     9    47       P1  7948  0.78

> <Gold.Chemscore.Hbond.Weighted>
-6.4344

> <Gold.Chemscore.Metal.Weighted>
-0.0000

> <Gold.Chemscore.Lipo.Weighted>
-10.4227

> <Gold.Chemscore.Internal_Hbond.Weighted>
0.0000

> <Gold.Chemscore.DEClash.Weighted>
2.4131

> <Gold.Chemscore.DEInternal.Weighted>
1.8159

> <Gold.Chemscore.Rot.Weighted>
5.5591

> <Gold.Chemscore.Internal.Correction.Weighted>
   9.000000E+99

> <Gold.Protein.RotatedTorsions>
[ 6907 6896 6895 6894 ] final  144.94 input  -60.11 | X-H torsion
[ 7974 7965 7964 7962 ] final  155.24 input  175.53 | X-H torsion
[ 8008 7997 7996 7995 ] final  156.10 input   59.86 | X-H torsion
[ 10167 10162 10161 10158 ] final  102.41 input  -65.29 | X-H torsion
[ 10718 10713 10712 10709 ] final   71.57 input   66.30 | X-H torsion
[ 10763 10752 10751 10750 ] final   63.33 input  -60.55 | X-H torsion
[ 11005 11000 10999 10996 ] final  133.27 input  -57.11 | X-H torsion

> <Gold.Protein.ActiveResidues>
 VAL166  LYS551  ARG553  GLY616  TRP617  ASP618  TYR619  PRO620  LYS621  CYS622 
 ASP623  PHE694  ASN695  SER759  ASP760  ASP761  ALA762  ILE779  LEU786  VAL792 
 PHE793  MET794  SER795  GLU796  ALA797  LYS798  CYS799  TRP800  GLU811  SER814 

> <Gold.Protein.RotatedAtoms>
  152.1873  133.4748  159.4989 H   0  0  0  0  0  0  0  0  0  0  0  0  # atno 6907 bound_to 6896
  150.6945  134.1757  159.4238 H   0  0  0  0  0  0  0  0  0  0  0  0  # atno 6908 bound_to 6896
  151.9671  135.0095  160.0601 H   0  0  0  0  0  0  0  0  0  0  0  0  # atno 6909 bound_to 6896
  144.8037  139.7042  143.6171 H   0  0  0  0  0  0  0  0  0  0  0  0  # atno 7974 bound_to 7965
  156.2441  140.1921  156.6904 H   0  0  0  0  0  0  0  0  0  0  0  0  # atno 8008 bound_to 7997
  154.6256  140.0602  156.9695 H   0  0  0  0  0  0  0  0  0  0  0  0  # atno 8009 bound_to 7997
  155.1792  140.3275  155.4381 H   0  0  0  0  0  0  0  0  0  0  0  0  # atno 8010 bound_to 7997
  139.7352  144.7026  151.0660 H   0  0  0  0  0  0  0  0  0  0  0  0  # atno 10167 bound_to 10162
  157.6458  130.9535  150.0808 H   0  0  0  0  0  0  0  0  0  0  0  0  # atno 10718 bound_to 10713
  153.0014  135.5433  154.6334 H   0  0  0  0  0  0  0  0  0  0  0  0  # atno 10763 bound_to 10752
  154.5606  135.2833  155.0924 H   0  0  0  0  0  0  0  0  0  0  0  0  # atno 10764 bound_to 10752
  154.2128  135.6464  153.5173 H   0  0  0  0  0  0  0  0  0  0  0  0  # atno 10765 bound_to 10752
  139.9841  134.9538  156.9701 H   0  0  0  0  0  0  0  0  0  0  0  0  # atno 11005 bound_to 11000
  146.2324  139.5839  142.9546 LP  0  0  0  0  0  0  0  0  0  0  0  0  # atno 17320 bound_to 7965
  145.5490  141.0415  143.2289 LP  0  0  0  0  0  0  0  0  0  0  0  0  # atno 17321 bound_to 7965
  140.7777  143.4993  150.9792 LP  0  0  0  0  0  0  0  0  0  0  0  0  # atno 17342 bound_to 10162
  139.8681  143.7227  152.3168 LP  0  0  0  0  0  0  0  0  0  0  0  0  # atno 17343 bound_to 10162
  156.1785  130.3649  149.9068 LP  0  0  0  0  0  0  0  0  0  0  0  0  # atno 17370 bound_to 10713
  156.7026  130.8939  151.3601 LP  0  0  0  0  0  0  0  0  0  0  0  0  # atno 17371 bound_to 10713
  140.5037  134.1072  155.7255 LP  0  0  0  0  0  0  0  0  0  0  0  0  # atno 17394 bound_to 11000
  141.1509  133.8970  157.2100 LP  0  0  0  0  0  0  0  0  0  0  0  0  # atno 17395 bound_to 11000

$$$$
