AV-unprocessed.smi:1831|AV-procd|sdf|7457|dock2
  -GOLD-   22720 9143D 1   1.00000     0.00000
 Structure written by MMmdl.
 41 42  0  0  0  0  0  0  0  0  2 V2000
  151.7069  140.8452  157.0424 C   0  0  0  0  0  0  0  0  0  0  0  0
  151.1663  139.8185  156.1069 C   0  0  0  0  0  0  0  0  0  0  0  0
  150.9701  140.0553  154.8038 N   0  0  0  0  0  0  0  0  0  0  0  0
  150.4610  138.9494  154.1360 N   0  0  0  0  0  0  0  0  0  0  0  0
  150.2915  137.9070  154.9540 C   0  0  0  0  0  0  0  0  0  0  0  0
  149.7780  136.7050  154.4057 N   0  0  0  0  0  0  0  0  0  0  0  0
  149.6808  135.5039  154.9978 C   0  0  0  0  0  0  0  0  0  0  0  0
  150.0304  135.2472  156.1498 O   0  0  0  0  0  0  0  0  0  0  0  0
  149.1423  134.5959  154.1708 N   0  0  0  0  0  0  0  0  0  0  0  0
  148.9271  133.1865  154.4853 C   0  0  0  0  0  0  0  0  0  0  0  0
  148.2945  132.4123  153.3120 C   0  0  1  0  0  0  0  0  0  0  0  0
  147.0628  131.6015  153.7081 C   0  0  0  0  0  0  0  0  0  0  0  0
  146.2678  131.4345  152.4065 C   0  0  0  0  0  0  0  0  0  0  0  0
  146.8182  132.4070  151.4284 N   0  3  1  0  0  0  0  0  0  0  0  0
  145.8043  133.1156  150.5971 C   0  0  0  0  0  0  0  0  0  0  0  0
  144.9666  134.0869  151.4502 C   0  0  0  0  0  0  0  0  0  0  0  0
  144.8679  132.1283  149.8739 C   0  0  0  0  0  0  0  0  0  0  0  0
  147.7497  133.2793  152.1759 C   0  0  0  0  0  0  0  0  0  0  0  0
  150.7418  138.1952  156.6347 S   0  0  0  0  0  0  0  0  0  0  0  0
  151.6868  141.8337  156.5823 H   0  0  0  0  0  0  0  0  0  0  0  0
  152.7364  140.6022  157.3059 H   0  0  0  0  0  0  0  0  0  0  0  0
  151.1088  140.8730  157.9533 H   0  0  0  0  0  0  0  0  0  0  0  0
  149.4560  136.7677  153.4510 H   0  0  0  0  0  0  0  0  0  0  0  0
  148.8856  134.8962  153.2414 H   0  0  0  0  0  0  0  0  0  0  0  0
  149.8989  132.7527  154.7223 H   0  0  0  0  0  0  0  0  0  0  0  0
  148.3218  133.0833  155.3876 H   0  0  0  0  0  0  0  0  0  0  0  0
  149.0342  131.7251  152.8969 H   0  0  0  0  0  0  0  0  0  0  0  0
  147.3207  130.6464  154.1669 H   0  0  0  0  0  0  0  0  0  0  0  0
  146.4632  132.1610  154.4277 H   0  0  0  0  0  0  0  0  0  0  0  0
  146.3797  130.4278  152.0030 H   0  0  0  0  0  0  0  0  0  0  0  0
  145.2069  131.5990  152.5995 H   0  0  0  0  0  0  0  0  0  0  0  0
  146.3332  133.6943  149.8381 H   0  0  0  0  0  0  0  0  0  0  0  0
  144.2159  134.5919  150.8414 H   0  0  0  0  0  0  0  0  0  0  0  0
  145.5766  134.8653  151.9081 H   0  0  0  0  0  0  0  0  0  0  0  0
  144.4429  133.5612  152.2493 H   0  0  0  0  0  0  0  0  0  0  0  0
  144.1029  132.6605  149.3077 H   0  0  0  0  0  0  0  0  0  0  0  0
  144.3579  131.4733  150.5811 H   0  0  0  0  0  0  0  0  0  0  0  0
  145.4043  131.5009  149.1620 H   0  0  0  0  0  0  0  0  0  0  0  0
  147.2028  134.1302  152.5862 H   0  0  0  0  0  0  0  0  0  0  0  0
  148.5437  133.6609  151.5332 H   0  0  0  0  0  0  0  0  0  0  0  0
  147.3938  131.8690  150.7966 H   0  0  0  0  0  0  0  0  0  0  0  0
  1  2  1  0  0  0  0
  1 20  1  0  0  0  0
  1 21  1  0  0  0  0
  1 22  1  0  0  0  0
  2 19  1  0  0  0  0
  2  3  2  0  0  0  0
  3  4  1  0  0  0  0
  4  5  2  0  0  0  0
  5  6  1  0  0  0  0
  5 19  1  0  0  0  0
  6  7  1  0  0  0  0
  6 23  1  0  0  0  0
  7  8  2  0  0  0  0
  7  9  1  0  0  0  0
  9 10  1  0  0  0  0
  9 24  1  0  0  0  0
 10 11  1  0  0  0  0
 10 25  1  0  0  0  0
 10 26  1  0  0  0  0
 11 18  1  0  0  0  0
 11 12  1  0  0  0  0
 11 27  1  0  0  0  0
 12 13  1  0  0  0  0
 12 28  1  0  0  0  0
 12 29  1  0  0  0  0
 13 14  1  0  0  0  0
 13 30  1  0  0  0  0
 13 31  1  0  0  0  0
 14 15  1  0  0  0  0
 14 18  1  0  0  0  0
 14 41  1  0  0  0  0
 15 16  1  0  0  0  0
 15 17  1  0  0  0  0
 15 32  1  0  0  0  0
 16 33  1  0  0  0  0
 16 34  1  0  0  0  0
 16 35  1  0  0  0  0
 17 36  1  0  0  0  0
 17 37  1  0  0  0  0
 17 38  1  0  0  0  0
 18 39  1  0  0  0  0
 18 40  1  0  0  0  0
M  CHG  1  14   1
M  END
> <s_m_source_file>
AV-unprocessed.smi

> <i_m_source_file_index>
1831

> <i_lp_mmshare_version>
43012

> <i_f3d_flags>
0

> <s_epik_input>
W0NIM11jMW5uYyhzMSlbTkhdQyg9TylbTkhdW0NIMl1bQ0BASF0yW0NIMl1bQ0gyXU4oW0NIMl0yKVtDSF0oW0NIM10pW0NIM10=

> <s_epik_cmdline>
J2VwaWtfcHl0aG9uJywgJy1waCcsICc3LjAnLCAnLXRuJywgJzgnLCAnLW1hJywgJzIwMCcsICctbWV0YWxfYmluZGluZycsICctaW1hZScsICc8aW5maWxlLm1hZT4nLCAnLW9tYWUnLCAnPG91dGZpbGUubWFlPic=

> <r_lp_tautomer_probability>
1

> <r_epik_Ionization_Penalty>
0.00080807

> <r_epik_Ionization_Penalty_Charging>
0.000218981

> <r_epik_Ionization_Penalty_Neutral>
0.00058909

> <r_epik_State_Penalty>
-0

> <r_epik_Charging_Adjusted_Penalty>
0.000218981

> <i_epik_Tot_Q>
1

> <i_epik_Tot_abs_Q>
1

> <r_epik_Metal_State_Penalty>
0.236062

> <b_epik_Metal_Only>
0

> <s_lp_Force_Field>
OPLS_2005

> <r_lp_Energy>
27.4223

> <b_lp_Chiralities_Consistent>
1

> <s_lp_Variant>
AV-unprocessed.smi:1831-2

> <Gold.Version>
5.8.1

> <Gold.Id.Protein>
6NUR|6NUR_protein|mol2

> <Gold.PLP.Fitness>
42.4373

> <Gold.PLP.PLP>
-31.9200

> <Gold.PLP.part.hbond>
-4.3672

> <Gold.PLP.part.metal>
0.0000

> <Gold.PLP.part.buried>
-5.1432

> <Gold.PLP.part.nonpolar>
-21.7916

> <Gold.PLP.part.repulsive>
0.3824

> <Gold.PLP.ligand.clash>
0.0000

> <Gold.PLP.ligand.torsion>
0.7410

> <Gold.PLP.Chemscore.Hbond>
3.9920

> <Gold.PLP.Chemscore.CHOScore>
0.0000

> <Gold.PLP.Chemscore.Metal>
0.0000

> <Gold.Chemscore.Hbonds>
donor molecule, donor type, donor heavy atom, donor atom, acceptor molecule, acceptor atom, score
      L1  H     6    23       P1  7948  1.00
      L1  H     9    24       P1  7948  0.99
      L1  H    14    41       P1 10747  1.00
      P1  H  7989  7998       L1     3  0.95

> <Gold.PLP.Chemscore.Internal.Correction>
0.0233

> <Gold.Rescore>
     Score         DG    S(hbond)    S(metal)    S(lipo)     H(rot)  DE(clash)    DE(int)     intcor
     17.98     -19.51       2.92        0.00      70.39       1.54       0.02       1.51       ----

> <Gold.Chemscore.Fitness>
17.9764

> <Gold.Chemscore.DG>
-19.5115

> <Gold.Chemscore.ZeroCoef>
-5.4800

> <Gold.Chemscore.Hbond>
2.9153

> <Gold.Chemscore.Metal>
0.0000

> <Gold.Chemscore.Lipo>
70.3892

> <Gold.Chemscore.Internal_Hbond>
0.0000

> <Gold.Chemscore.DEClash>
0.0234

> <Gold.Chemscore.DEInternal>
1.5117

> <Gold.Chemscore.Rot>
1.5396

> <Gold.Chemscore.Internal.Correction>
   9.000000E+99

> <Gold.Chemscore.Hbonds>
donor molecule, donor type, donor heavy atom, donor atom, acceptor molecule, acceptor atom, score
      L1  H     6    23       P1  7948  0.85
      L1  H     9    24       P1  7948  0.24
      L1  H    14    41       P1 10747  0.97
      P1  H  7989  7998       L1     3  0.22

> <Gold.Chemscore.Hbond.Weighted>
-9.7372

> <Gold.Chemscore.Metal.Weighted>
-0.0000

> <Gold.Chemscore.Lipo.Weighted>
-8.2355

> <Gold.Chemscore.Internal_Hbond.Weighted>
0.0000

> <Gold.Chemscore.DEClash.Weighted>
0.0234

> <Gold.Chemscore.DEInternal.Weighted>
1.5117

> <Gold.Chemscore.Rot.Weighted>
3.9413

> <Gold.Chemscore.Internal.Correction.Weighted>
   9.000000E+99

> <Gold.Protein.RotatedTorsions>
[ 6907 6896 6895 6894 ] final  -86.61 input  -60.11 | X-H torsion
[ 7974 7965 7964 7962 ] final   11.41 input  175.53 | X-H torsion
[ 8008 7997 7996 7995 ] final  141.28 input   59.86 | X-H torsion
[ 10167 10162 10161 10158 ] final  -16.37 input  -65.29 | X-H torsion
[ 10718 10713 10712 10709 ] final   -8.67 input   66.30 | X-H torsion
[ 10763 10752 10751 10750 ] final  -34.34 input  -60.55 | X-H torsion
[ 11005 11000 10999 10996 ] final  -66.19 input  -57.11 | X-H torsion

> <Gold.Protein.ActiveResidues>
 VAL166  LYS551  ARG553  GLY616  TRP617  ASP618  TYR619  PRO620  LYS621  CYS622 
 ASP623  PHE694  ASN695  SER759  ASP760  ASP761  ALA762  ILE779  LEU786  VAL792 
 PHE793  MET794  SER795  GLU796  ALA797  LYS798  CYS799  TRP800  GLU811  SER814 

> <Gold.Protein.RotatedAtoms>
  150.6867  134.3023  159.4711 H   0  0  0  0  0  0  0  0  0  0  0  0  # atno 6907 bound_to 6896
  152.0918  134.9399  160.0581 H   0  0  0  0  0  0  0  0  0  0  0  0  # atno 6908 bound_to 6896
  152.0712  133.4073  159.4497 H   0  0  0  0  0  0  0  0  0  0  0  0  # atno 6909 bound_to 6896
  146.2371  139.9489  142.8473 H   0  0  0  0  0  0  0  0  0  0  0  0  # atno 7974 bound_to 7965
  156.2968  140.2319  156.4538 H   0  0  0  0  0  0  0  0  0  0  0  0  # atno 8008 bound_to 7997
  154.8078  140.0445  157.1341 H   0  0  0  0  0  0  0  0  0  0  0  0  # atno 8009 bound_to 7997
  154.9458  140.3035  155.5102 H   0  0  0  0  0  0  0  0  0  0  0  0  # atno 8010 bound_to 7997
  140.7232  143.5123  150.9735 H   0  0  0  0  0  0  0  0  0  0  0  0  # atno 10167 bound_to 10162
  156.6992  130.5088  149.5922 H   0  0  0  0  0  0  0  0  0  0  0  0  # atno 10718 bound_to 10713
  153.8451  135.6854  153.4798 H   0  0  0  0  0  0  0  0  0  0  0  0  # atno 10763 bound_to 10752
  153.1430  135.4649  154.9523 H   0  0  0  0  0  0  0  0  0  0  0  0  # atno 10764 bound_to 10752
  154.7827  135.3274  154.7900 H   0  0  0  0  0  0  0  0  0  0  0  0  # atno 10765 bound_to 10752
  141.1475  133.6695  156.6101 H   0  0  0  0  0  0  0  0  0  0  0  0  # atno 11005 bound_to 11000
  145.1881  140.9799  143.4227 LP  0  0  0  0  0  0  0  0  0  0  0  0  # atno 17320 bound_to 7965
  144.9882  139.3716  143.6228 LP  0  0  0  0  0  0  0  0  0  0  0  0  # atno 17321 bound_to 7965
  139.8837  143.7040  152.3154 LP  0  0  0  0  0  0  0  0  0  0  0  0  # atno 17342 bound_to 10162
  139.7331  144.7577  151.0770 LP  0  0  0  0  0  0  0  0  0  0  0  0  # atno 17343 bound_to 10162
  156.1741  130.6456  151.0873 LP  0  0  0  0  0  0  0  0  0  0  0  0  # atno 17370 bound_to 10713
  157.6979  131.0787  150.6911 LP  0  0  0  0  0  0  0  0  0  0  0  0  # atno 17371 bound_to 10713
  140.3621  134.7678  157.4541 LP  0  0  0  0  0  0  0  0  0  0  0  0  # atno 17394 bound_to 11000
  140.0777  134.5775  155.8574 LP  0  0  0  0  0  0  0  0  0  0  0  0  # atno 17395 bound_to 11000

$$$$
