AV-unprocessed.smi:3014|AV-procd|sdf|11468|dock1
  -GOLD-   2272016403D 1   1.00000     0.00000
 Structure written by MMmdl.
 45 46  0  0  0  0  0  0  0  0  1 V2000
  152.7625  143.1911  161.8803 C   0  0  0  0  0  0  0  0  0  0  0  0
  152.7419  143.0738  160.3495 C   0  0  2  0  0  0  0  0  0  0  0  0
  151.9442  144.2257  159.7078 C   0  0  0  0  0  0  0  0  0  0  0  0
  151.9137  144.1056  158.1758 C   0  0  0  0  0  0  0  0  0  0  0  0
  151.3565  142.7429  157.7380 C   0  0  0  0  0  0  0  0  0  0  0  0
  152.1607  141.5882  158.3577 C   0  0  2  0  0  0  0  0  0  0  0  0
  151.5326  140.3710  157.9607 O   0  0  0  0  0  0  0  0  0  0  0  0
  152.2534  139.1699  158.2267 C   0  0  0  0  0  0  0  0  0  0  0  0
  151.3157  137.9574  158.2332 C   0  0  0  0  0  0  0  0  0  0  0  0
  151.4519  137.0800  157.3804 O   0  0  0  0  0  0  0  0  0  0  0  0
  150.3871  137.9433  159.2074 N   0  0  0  0  0  0  0  0  0  0  0  0
  149.4017  136.9543  159.4638 C   0  0  0  0  0  0  0  0  0  0  0  0
  149.0264  136.1584  158.3603 C   0  0  0  0  0  0  0  0  0  0  0  0
  148.0514  135.1678  158.5861 C   0  0  0  0  0  0  0  0  0  0  0  0
  147.4956  134.9816  159.8006 N   0  0  0  0  0  0  0  0  0  0  0  0
  147.9060  135.7801  160.7936 C   0  0  0  0  0  0  0  0  0  0  0  0
  147.3327  135.5914  162.0543 N   0  0  0  0  0  0  0  0  0  0  0  0
  146.4520  134.4571  162.3201 C   0  0  0  0  0  0  0  0  0  0  0  0
  147.5875  136.5238  163.1485 C   0  0  0  0  0  0  0  0  0  0  0  0
  148.8253  136.7467  160.6730 N   0  0  0  0  0  0  0  0  0  0  0  0
  152.1838  141.7103  159.8955 C   0  0  0  0  0  0  0  0  0  0  0  0
  151.7559  143.1334  162.2963 H   0  0  0  0  0  0  0  0  0  0  0  0
  153.1987  144.1392  162.1954 H   0  0  0  0  0  0  0  0  0  0  0  0
  153.3538  142.3919  162.3280 H   0  0  0  0  0  0  0  0  0  0  0  0
  153.7736  143.1454  160.0013 H   0  0  0  0  0  0  0  0  0  0  0  0
  150.9230  144.2263  160.0915 H   0  0  0  0  0  0  0  0  0  0  0  0
  152.3801  145.1846  159.9902 H   0  0  0  0  0  0  0  0  0  0  0  0
  151.3093  144.9079  157.7516 H   0  0  0  0  0  0  0  0  0  0  0  0
  152.9212  144.2331  157.7781 H   0  0  0  0  0  0  0  0  0  0  0  0
  150.3097  142.6651  158.0348 H   0  0  0  0  0  0  0  0  0  0  0  0
  151.3764  142.6669  156.6503 H   0  0  0  0  0  0  0  0  0  0  0  0
  153.1805  141.6451  157.9743 H   0  0  0  0  0  0  0  0  0  0  0  0
  153.0728  139.0348  157.5199 H   0  0  0  0  0  0  0  0  0  0  0  0
  152.7031  139.2547  159.2160 H   0  0  0  0  0  0  0  0  0  0  0  0
  150.3883  138.7314  159.8381 H   0  0  0  0  0  0  0  0  0  0  0  0
  149.4638  136.2966  157.3822 H   0  0  0  0  0  0  0  0  0  0  0  0
  147.7163  134.5220  157.7880 H   0  0  0  0  0  0  0  0  0  0  0  0
  146.9844  133.5183  162.1636 H   0  0  0  0  0  0  0  0  0  0  0  0
  145.5906  134.4789  161.6517 H   0  0  0  0  0  0  0  0  0  0  0  0
  146.0781  134.4614  163.3438 H   0  0  0  0  0  0  0  0  0  0  0  0
  147.2396  137.5229  162.8843 H   0  0  0  0  0  0  0  0  0  0  0  0
  148.6553  136.5765  163.3631 H   0  0  0  0  0  0  0  0  0  0  0  0
  147.0794  136.2258  164.0657 H   0  0  0  0  0  0  0  0  0  0  0  0
  152.7869  140.9122  160.3283 H   0  0  0  0  0  0  0  0  0  0  0  0
  151.1736  141.5787  160.2861 H   0  0  0  0  0  0  0  0  0  0  0  0
  1  2  1  0  0  0  0
  1 22  1  0  0  0  0
  1 23  1  0  0  0  0
  1 24  1  0  0  0  0
  2 21  1  0  0  0  0
  2  3  1  0  0  0  0
  2 25  1  0  0  0  0
  3  4  1  0  0  0  0
  3 26  1  0  0  0  0
  3 27  1  0  0  0  0
  4  5  1  0  0  0  0
  4 28  1  0  0  0  0
  4 29  1  0  0  0  0
  5  6  1  0  0  0  0
  5 30  1  0  0  0  0
  5 31  1  0  0  0  0
  6  7  1  0  0  0  0
  6 21  1  0  0  0  0
  6 32  1  0  0  0  0
  7  8  1  0  0  0  0
  8  9  1  0  0  0  0
  8 33  1  0  0  0  0
  8 34  1  0  0  0  0
  9 10  2  0  0  0  0
  9 11  1  0  0  0  0
 11 12  1  0  0  0  0
 11 35  1  0  0  0  0
 12 20  1  0  0  0  0
 12 13  2  0  0  0  0
 13 14  1  0  0  0  0
 13 36  1  0  0  0  0
 14 15  2  0  0  0  0
 14 37  1  0  0  0  0
 15 16  1  0  0  0  0
 16 17  1  0  0  0  0
 16 20  2  0  0  0  0
 17 18  1  0  0  0  0
 17 19  1  0  0  0  0
 18 38  1  0  0  0  0
 18 39  1  0  0  0  0
 18 40  1  0  0  0  0
 19 41  1  0  0  0  0
 19 42  1  0  0  0  0
 19 43  1  0  0  0  0
 21 44  1  0  0  0  0
 21 45  1  0  0  0  0
M  END
> <s_m_source_file>
AV-unprocessed.smi

> <i_m_source_file_index>
3014

> <i_lp_mmshare_version>
43012

> <i_f3d_flags>
0

> <s_epik_input>
W0NIM11bQ0BASF0xW0NIMl1bQ0gyXVtDSDJdW0NASF0oW0NIMl0xKU9bQ0gyXUMoPU8pW05IXWMyW2NIXVtjSF1uYyhuMilOKFtDSDNdKVtDSDNd

> <s_epik_cmdline>
J2VwaWtfcHl0aG9uJywgJy1waCcsICc3LjAnLCAnLXRuJywgJzgnLCAnLW1hJywgJzIwMCcsICctbWV0YWxfYmluZGluZycsICctaW1hZScsICc8aW5maWxlLm1hZT4nLCAnLW9tYWUnLCAnPG91dGZpbGUubWFlPic=

> <r_lp_tautomer_probability>
1

> <r_epik_Ionization_Penalty>
0.000308195

> <r_epik_Ionization_Penalty_Charging>
0

> <r_epik_Ionization_Penalty_Neutral>
0.000308195

> <r_epik_State_Penalty>
-0

> <r_epik_Charging_Adjusted_Penalty>
0

> <i_epik_Tot_Q>
0

> <i_epik_Tot_abs_Q>
0

> <r_epik_Metal_State_Penalty>
-0

> <b_epik_Metal_Only>
0

> <s_lp_Force_Field>
OPLS_2005

> <r_lp_Energy>
8.92974

> <b_lp_Chiralities_Consistent>
1

> <s_lp_Variant>
AV-unprocessed.smi:3014-3

> <Gold.Version>
5.8.1

> <Gold.Id.Protein>
6NUR|6NUR_protein|mol2

> <Gold.PLP.Fitness>
47.9803

> <Gold.PLP.PLP>
-45.9769

> <Gold.PLP.part.hbond>
-1.0000

> <Gold.PLP.part.metal>
0.0000

> <Gold.PLP.part.buried>
-6.6564

> <Gold.PLP.part.nonpolar>
-38.7864

> <Gold.PLP.part.repulsive>
0.2188

> <Gold.PLP.ligand.clash>
0.0000

> <Gold.PLP.ligand.torsion>
0.3280

> <Gold.PLP.Chemscore.Hbond>
0.8800

> <Gold.PLP.Chemscore.CHOScore>
0.0000

> <Gold.PLP.Chemscore.Metal>
0.0000

> <Gold.Chemscore.Hbonds>
donor molecule, donor type, donor heavy atom, donor atom, acceptor molecule, acceptor atom, score
      P1  H  6931  6943       L1    20  0.90

> <Gold.PLP.Chemscore.Internal.Correction>
0.0193

> <Gold.Rescore>
     Score         DG    S(hbond)    S(metal)    S(lipo)     H(rot)  DE(clash)    DE(int)     intcor
     15.52     -17.30       0.85        0.00     108.09       1.43       0.05       1.74       ----

> <Gold.Chemscore.Fitness>
15.5220

> <Gold.Chemscore.DG>
-17.3042

> <Gold.Chemscore.ZeroCoef>
-5.4800

> <Gold.Chemscore.Hbond>
0.8506

> <Gold.Chemscore.Metal>
0.0000

> <Gold.Chemscore.Lipo>
108.0879

> <Gold.Chemscore.Internal_Hbond>
0.0000

> <Gold.Chemscore.DEClash>
0.0457

> <Gold.Chemscore.DEInternal>
1.7365

> <Gold.Chemscore.Rot>
1.4310

> <Gold.Chemscore.Internal.Correction>
   9.000000E+99

> <Gold.Chemscore.Hbonds>
donor molecule, donor type, donor heavy atom, donor atom, acceptor molecule, acceptor atom, score
      P1  H  6931  6943       L1    20  0.74

> <Gold.Chemscore.Hbond.Weighted>
-2.8412

> <Gold.Chemscore.Metal.Weighted>
-0.0000

> <Gold.Chemscore.Lipo.Weighted>
-12.6463

> <Gold.Chemscore.Internal_Hbond.Weighted>
0.0000

> <Gold.Chemscore.DEClash.Weighted>
0.0457

> <Gold.Chemscore.DEInternal.Weighted>
1.7365

> <Gold.Chemscore.Rot.Weighted>
3.6632

> <Gold.Chemscore.Internal.Correction.Weighted>
   9.000000E+99

> <Gold.Protein.RotatedTorsions>
[ 6907 6896 6895 6894 ] final   97.03 input  -60.11 | X-H torsion
[ 7974 7965 7964 7962 ] final   96.47 input  175.53 | X-H torsion
[ 8008 7997 7996 7995 ] final -146.98 input   59.86 | X-H torsion
[ 10167 10162 10161 10158 ] final   65.26 input  -65.29 | X-H torsion
[ 10718 10713 10712 10709 ] final  -78.14 input   66.30 | X-H torsion
[ 10763 10752 10751 10750 ] final   94.05 input  -60.55 | X-H torsion
[ 11005 11000 10999 10996 ] final   56.33 input  -57.11 | X-H torsion

> <Gold.Protein.ActiveResidues>
 VAL166  LYS551  ARG553  GLY616  TRP617  ASP618  TYR619  PRO620  LYS621  CYS622 
 ASP623  PHE694  ASN695  SER759  ASP760  ASP761  ALA762  ILE779  LEU786  VAL792 
 PHE793  MET794  SER795  GLU796  ALA797  LYS798  CYS799  TRP800  GLU811  SER814 

> <Gold.Protein.RotatedAtoms>
  152.5428  134.0796  159.8229 H   0  0  0  0  0  0  0  0  0  0  0  0  # atno 6907 bound_to 6896
  151.0899  133.5316  159.2623 H   0  0  0  0  0  0  0  0  0  0  0  0  # atno 6908 bound_to 6896
  151.2111  135.0490  159.8966 H   0  0  0  0  0  0  0  0  0  0  0  0  # atno 6909 bound_to 6896
  145.4384  139.2303  143.3106 H   0  0  0  0  0  0  0  0  0  0  0  0  # atno 7974 bound_to 7965
  155.5681  140.0631  157.2813 H   0  0  0  0  0  0  0  0  0  0  0  0  # atno 8008 bound_to 7997
  154.4369  140.1874  156.0897 H   0  0  0  0  0  0  0  0  0  0  0  0  # atno 8009 bound_to 7997
  156.0397  140.3297  155.7234 H   0  0  0  0  0  0  0  0  0  0  0  0  # atno 8010 bound_to 7997
  140.1133  144.4798  150.6965 H   0  0  0  0  0  0  0  0  0  0  0  0  # atno 10167 bound_to 10162
  156.0125  130.4510  150.3452 H   0  0  0  0  0  0  0  0  0  0  0  0  # atno 10718 bound_to 10713
  153.2372  135.4303  155.0659 H   0  0  0  0  0  0  0  0  0  0  0  0  # atno 10763 bound_to 10752
  154.8324  135.3394  154.6701 H   0  0  0  0  0  0  0  0  0  0  0  0  # atno 10764 bound_to 10752
  153.7126  135.7022  153.5090 H   0  0  0  0  0  0  0  0  0  0  0  0  # atno 10765 bound_to 10752
  140.0537  134.5700  155.9232 H   0  0  0  0  0  0  0  0  0  0  0  0  # atno 11005 bound_to 11000
  146.2570  140.5129  142.8869 LP  0  0  0  0  0  0  0  0  0  0  0  0  # atno 17320 bound_to 7965
  144.8138  140.6431  143.6398 LP  0  0  0  0  0  0  0  0  0  0  0  0  # atno 17321 bound_to 7965
  140.6913  143.2378  151.5122 LP  0  0  0  0  0  0  0  0  0  0  0  0  # atno 17342 bound_to 10162
  139.5608  144.2162  152.1687 LP  0  0  0  0  0  0  0  0  0  0  0  0  # atno 17343 bound_to 10162
  157.1546  131.0329  151.2869 LP  0  0  0  0  0  0  0  0  0  0  0  0  # atno 17370 bound_to 10713
  157.4363  130.7519  149.7031 LP  0  0  0  0  0  0  0  0  0  0  0  0  # atno 17371 bound_to 10713
  141.1942  133.6582  156.5585 LP  0  0  0  0  0  0  0  0  0  0  0  0  # atno 17394 bound_to 11000
  140.3877  134.7468  157.4701 LP  0  0  0  0  0  0  0  0  0  0  0  0  # atno 17395 bound_to 11000

$$$$
