AV-unprocessed.smi:3330|AV-procd|sdf|12816|dock6
  -GOLD-   2272019183D 1   1.00000     0.00000
 Structure written by MMmdl.
 37 38  0  0  0  0  0  0  0  0  2 V2000
  149.9515  142.5317  158.5147 C   0  0  0  0  0  0  0  0  0  0  0  0
  151.3849  142.2591  158.0187 C   0  0  1  0  0  0  0  0  0  0  0  0
  151.4157  142.3950  156.5651 N   0  0  0  0  0  0  0  0  0  0  0  0
  150.8419  141.2374  155.8943 C   0  0  0  0  0  0  0  0  0  0  0  0
  151.5718  139.9616  156.3486 C   0  0  0  0  0  0  0  0  0  0  0  0
  152.1230  139.2113  155.2121 N   0  0  0  0  0  0  0  0  0  0  0  0
  151.4213  138.8448  154.1348 C   0  0  0  0  0  0  0  0  0  0  0  0
  150.2339  139.0639  153.8935 O   0  0  0  0  0  0  0  0  0  0  0  0
  152.3572  138.0981  153.2132 C   0  0  0  0  0  0  0  0  0  0  0  0
  153.6084  138.1512  153.9338 N   0  5  0  0  0  0  0  0  0  0  0  0
  153.4056  138.8156  155.0957 C   0  0  0  0  0  0  0  0  0  0  0  0
  154.2473  139.0543  155.9614 O   0  0  0  0  0  0  0  0  0  0  0  0
  152.4333  143.2315  158.6253 C   0  0  1  0  0  0  0  0  0  0  0  0
  151.8704  144.6435  158.8727 C   0  0  0  0  0  0  0  0  0  0  0  0
  153.0023  142.7072  159.8637 N   0  0  0  0  0  0  0  0  0  0  0  0
  152.7115  143.0820  161.1593 C   0  0  0  0  0  0  0  0  0  0  0  0
  153.4915  142.3282  161.9881 C   0  0  0  0  0  0  0  0  0  0  0  0
  154.2395  141.5099  161.0965 C   0  0  0  0  0  0  0  0  0  0  0  0
  153.9401  141.7330  159.8277 N   0  0  0  0  0  0  0  0  0  0  0  0
  149.8651  142.3764  159.5896 H   0  0  0  0  0  0  0  0  0  0  0  0
  149.2270  141.8653  158.0474 H   0  0  0  0  0  0  0  0  0  0  0  0
  149.6457  143.5561  158.3005 H   0  0  0  0  0  0  0  0  0  0  0  0
  151.6705  141.2418  158.2912 H   0  0  0  0  0  0  0  0  0  0  0  0
  152.3819  142.4670  156.2773 H   0  0  0  0  0  0  0  0  0  0  0  0
  149.7765  141.1510  156.1117 H   0  0  0  0  0  0  0  0  0  0  0  0
  150.9431  141.3577  154.8158 H   0  0  0  0  0  0  0  0  0  0  0  0
  152.3890  140.2371  157.0168 H   0  0  0  0  0  0  0  0  0  0  0  0
  150.9103  139.3333  156.9477 H   0  0  0  0  0  0  0  0  0  0  0  0
  151.9925  137.0820  153.0595 H   0  0  0  0  0  0  0  0  0  0  0  0
  152.3987  138.5905  152.2417 H   0  0  0  0  0  0  0  0  0  0  0  0
  153.2571  143.3286  157.9162 H   0  0  0  0  0  0  0  0  0  0  0  0
  151.5963  145.1373  157.9411 H   0  0  0  0  0  0  0  0  0  0  0  0
  152.6097  145.2775  159.3631 H   0  0  0  0  0  0  0  0  0  0  0  0
  150.9849  144.6140  159.5085 H   0  0  0  0  0  0  0  0  0  0  0  0
  151.9858  143.8504  161.3814 H   0  0  0  0  0  0  0  0  0  0  0  0
  153.5291  142.3621  163.0666 H   0  0  0  0  0  0  0  0  0  0  0  0
  154.9866  140.7664  161.3321 H   0  0  0  0  0  0  0  0  0  0  0  0
  1  2  1  0  0  0  0
  1 20  1  0  0  0  0
  1 21  1  0  0  0  0
  1 22  1  0  0  0  0
  2  3  1  0  0  0  0
  2 13  1  0  0  0  0
  2 23  1  0  0  0  0
  3  4  1  0  0  0  0
  3 24  1  0  0  0  0
  4  5  1  0  0  0  0
  4 25  1  0  0  0  0
  4 26  1  0  0  0  0
  5  6  1  0  0  0  0
  5 27  1  0  0  0  0
  5 28  1  0  0  0  0
  6 11  1  0  0  0  0
  6  7  1  0  0  0  0
  7  8  2  0  0  0  0
  7  9  1  0  0  0  0
  9 10  1  0  0  0  0
  9 29  1  0  0  0  0
  9 30  1  0  0  0  0
 10 11  1  0  0  0  0
 11 12  2  0  0  0  0
 13 14  1  0  0  0  0
 13 15  1  0  0  0  0
 13 31  1  0  0  0  0
 14 32  1  0  0  0  0
 14 33  1  0  0  0  0
 14 34  1  0  0  0  0
 15 19  1  0  0  0  0
 15 16  1  0  0  0  0
 16 17  2  0  0  0  0
 16 35  1  0  0  0  0
 17 18  1  0  0  0  0
 17 36  1  0  0  0  0
 18 19  2  0  0  0  0
 18 37  1  0  0  0  0
M  CHG  1  10  -1
M  END
> <s_m_source_file>
AV-unprocessed.smi

> <i_m_source_file_index>
3330

> <i_lp_mmshare_version>
43012

> <i_f3d_flags>
0

> <s_epik_input>
bjFbY0hdW2NIXVtjSF1uMVtDQEBIXShbQ0gzXSlbQ0BIXShbQ0gzXSlbTkhdW0NIMl1bQ0gyXU4yQyg9TylbQ0gyXVtOSF1DMj1P

> <s_epik_cmdline>
J2VwaWtfcHl0aG9uJywgJy1waCcsICc3LjAnLCAnLXRuJywgJzgnLCAnLW1hJywgJzIwMCcsICctbWV0YWxfYmluZGluZycsICctaW1hZScsICc8aW5maWxlLm1hZT4nLCAnLW9tYWUnLCAnPG91dGZpbGUubWFlPic=

> <r_lp_tautomer_probability>
1

> <r_epik_Ionization_Penalty>
8.77477

> <r_epik_Ionization_Penalty_Charging>
6.28461

> <r_epik_Ionization_Penalty_Neutral>
2.49016

> <r_epik_State_Penalty>
8.73376

> <r_epik_Charging_Adjusted_Penalty>
15.0184

> <i_epik_Tot_Q>
-1

> <i_epik_Tot_abs_Q>
1

> <r_epik_Metal_State_Penalty>
4.73175

> <b_epik_Metal_Only>
1

> <s_lp_Force_Field>
OPLS_2005

> <r_lp_Energy>
23.0712

> <b_lp_Chiralities_Consistent>
1

> <s_lp_Variant>
AV-unprocessed.smi:3330-16

> <Gold.Version>
5.8.1

> <Gold.Id.Protein>
6NUR|6NUR_protein|mol2

> <Gold.PLP.Fitness>
47.5486

> <Gold.PLP.PLP>
-45.6139

> <Gold.PLP.part.hbond>
-2.0000

> <Gold.PLP.part.metal>
0.0000

> <Gold.PLP.part.buried>
-5.4254

> <Gold.PLP.part.nonpolar>
-38.9607

> <Gold.PLP.part.repulsive>
0.1942

> <Gold.PLP.ligand.clash>
0.0000

> <Gold.PLP.ligand.torsion>
1.8482

> <Gold.PLP.Chemscore.Hbond>
1.8474

> <Gold.PLP.Chemscore.CHOScore>
0.0000

> <Gold.PLP.Chemscore.Metal>
0.0000

> <Gold.Chemscore.Hbonds>
donor molecule, donor type, donor heavy atom, donor atom, acceptor molecule, acceptor atom, score
      P1  H  7997  8009       L1    12  0.02

> <Gold.PLP.Chemscore.Internal.Correction>
0.0888

> <Gold.Rescore>
     Score         DG    S(hbond)    S(metal)    S(lipo)     H(rot)  DE(clash)    DE(int)     intcor
     12.66     -14.29       1.26        0.00      94.41       2.52       0.19       1.44       ----

> <Gold.Chemscore.Fitness>
12.6592

> <Gold.Chemscore.DG>
-14.2930

> <Gold.Chemscore.ZeroCoef>
-5.4800

> <Gold.Chemscore.Hbond>
1.2598

> <Gold.Chemscore.Metal>
0.0000

> <Gold.Chemscore.Lipo>
94.4137

> <Gold.Chemscore.Internal_Hbond>
0.0000

> <Gold.Chemscore.DEClash>
0.1905

> <Gold.Chemscore.DEInternal>
1.4432

> <Gold.Chemscore.Rot>
2.5160

> <Gold.Chemscore.Internal.Correction>
   9.000000E+99

> <Gold.Chemscore.Hbonds>
donor molecule, donor type, donor heavy atom, donor atom, acceptor molecule, acceptor atom, score
      P1  H  7997  8009       L1    12  0.04

> <Gold.Chemscore.Hbond.Weighted>
-4.2076

> <Gold.Chemscore.Metal.Weighted>
-0.0000

> <Gold.Chemscore.Lipo.Weighted>
-11.0464

> <Gold.Chemscore.Internal_Hbond.Weighted>
0.0000

> <Gold.Chemscore.DEClash.Weighted>
0.1905

> <Gold.Chemscore.DEInternal.Weighted>
1.4432

> <Gold.Chemscore.Rot.Weighted>
6.4410

> <Gold.Chemscore.Internal.Correction.Weighted>
   9.000000E+99

> <Gold.Protein.RotatedTorsions>
[ 6907 6896 6895 6894 ] final -159.08 input  -60.11 | X-H torsion
[ 7974 7965 7964 7962 ] final  -76.98 input  175.53 | X-H torsion
[ 8008 7997 7996 7995 ] final  164.68 input   59.86 | X-H torsion
[ 10167 10162 10161 10158 ] final   75.20 input  -65.29 | X-H torsion
[ 10718 10713 10712 10709 ] final   75.90 input   66.30 | X-H torsion
[ 10763 10752 10751 10750 ] final  -64.84 input  -60.55 | X-H torsion
[ 11005 11000 10999 10996 ] final  126.21 input  -57.11 | X-H torsion

> <Gold.Protein.ActiveResidues>
 VAL166  LYS551  ARG553  GLY616  TRP617  ASP618  TYR619  PRO620  LYS621  CYS622 
 ASP623  PHE694  ASN695  SER759  ASP760  ASP761  ALA762  ILE779  LEU786  VAL792 
 PHE793  MET794  SER795  GLU796  ALA797  LYS798  CYS799  TRP800  GLU811  SER814 

> <Gold.Protein.RotatedAtoms>
  151.3280  133.4012  159.2659 H   0  0  0  0  0  0  0  0  0  0  0  0  # atno 6907 bound_to 6896
  150.9979  134.9299  159.7947 H   0  0  0  0  0  0  0  0  0  0  0  0  # atno 6908 bound_to 6896
  152.5266  134.3245  159.9213 H   0  0  0  0  0  0  0  0  0  0  0  0  # atno 6909 bound_to 6896
  145.6058  140.9398  143.1216 H   0  0  0  0  0  0  0  0  0  0  0  0  # atno 7974 bound_to 7965
  156.1861  140.1690  156.8182 H   0  0  0  0  0  0  0  0  0  0  0  0  # atno 8008 bound_to 7997
  154.5416  140.0735  156.8551 H   0  0  0  0  0  0  0  0  0  0  0  0  # atno 8009 bound_to 7997
  155.3204  140.3373  155.4243 H   0  0  0  0  0  0  0  0  0  0  0  0  # atno 8010 bound_to 7997
  140.0055  144.5654  150.7701 H   0  0  0  0  0  0  0  0  0  0  0  0  # atno 10167 bound_to 10162
  157.6652  130.9749  150.1420 H   0  0  0  0  0  0  0  0  0  0  0  0  # atno 10718 bound_to 10713
  154.3361  135.6166  153.5574 H   0  0  0  0  0  0  0  0  0  0  0  0  # atno 10763 bound_to 10752
  152.9807  135.5758  154.4907 H   0  0  0  0  0  0  0  0  0  0  0  0  # atno 10764 bound_to 10752
  154.4602  135.2855  155.1695 H   0  0  0  0  0  0  0  0  0  0  0  0  # atno 10765 bound_to 10752
  139.9445  134.9631  156.8673 H   0  0  0  0  0  0  0  0  0  0  0  0  # atno 11005 bound_to 11000
  144.7290  139.7783  143.7354 LP  0  0  0  0  0  0  0  0  0  0  0  0  # atno 17320 bound_to 7965
  146.1542  139.4634  143.0029 LP  0  0  0  0  0  0  0  0  0  0  0  0  # atno 17321 bound_to 7965
  140.7402  143.2801  151.3624 LP  0  0  0  0  0  0  0  0  0  0  0  0  # atno 17342 bound_to 10162
  139.6241  144.0848  152.2418 LP  0  0  0  0  0  0  0  0  0  0  0  0  # atno 17343 bound_to 10162
  156.2240  130.3676  149.8522 LP  0  0  0  0  0  0  0  0  0  0  0  0  # atno 17370 bound_to 10713
  156.6367  130.8688  151.3506 LP  0  0  0  0  0  0  0  0  0  0  0  0  # atno 17371 bound_to 10713
  140.5869  134.0298  155.7485 LP  0  0  0  0  0  0  0  0  0  0  0  0  # atno 17394 bound_to 11000
  141.1091  133.9646  157.2944 LP  0  0  0  0  0  0  0  0  0  0  0  0  # atno 17395 bound_to 11000

$$$$
