AV-unprocessed.smi:663|AV-procd|sdf|3250|dock10
  -GOLD-   22720 0203D 1   1.00000     0.00000
 Structure written by MMmdl.
 29 30  0  0  0  0  0  0  0  0  2 V2000
  150.1924  137.8516  153.9552 N   0  0  0  0  0  0  0  0  0  0  0  0
  151.1590  137.4240  154.7711 C   0  0  0  0  0  0  0  0  0  0  0  0
  151.5893  136.2732  154.7322 O   0  0  0  0  0  0  0  0  0  0  0  0
  151.7167  138.4304  155.7846 C   0  0  0  0  0  0  0  0  0  0  0  0
  150.7121  138.8235  156.8927 C   0  0  1  0  0  0  0  0  0  0  0  0
  150.4752  137.6899  157.7895 N   0  0  0  0  0  0  0  0  0  0  0  0
  149.4103  137.4917  158.5814 C   0  0  0  0  0  0  0  0  0  0  0  0
  148.4974  138.3199  158.6134 O   0  0  0  0  0  0  0  0  0  0  0  0
  149.4647  136.3351  159.2805 N   0  5  0  0  0  0  0  0  0  0  0  0
  148.5106  136.0530  160.1828 C   0  0  0  0  0  0  0  0  0  0  0  0
  147.8959  137.0049  160.9034 N   0  0  0  0  0  0  0  0  0  0  0  0
  146.9433  136.4978  161.7770 N   0  0  0  0  0  0  0  0  0  0  0  0
  146.8690  135.1695  161.6974 C   0  0  0  0  0  0  0  0  0  0  0  0
  147.9609  134.4164  160.5543 S   0  0  0  0  0  0  0  0  0  0  0  0
  151.2026  140.0463  157.6459 C   0  0  0  0  0  0  0  0  0  0  0  0
  150.2325  141.0615  158.2005 C   0  0  0  0  0  0  0  0  0  0  0  0
  151.1220  141.4238  157.0321 C   0  0  0  0  0  0  0  0  0  0  0  0
  149.8171  137.2286  153.2553 H   0  0  0  0  0  0  0  0  0  0  0  0
  149.8599  138.8024  154.0225 H   0  0  0  0  0  0  0  0  0  0  0  0
  152.6324  138.0410  156.2327 H   0  0  0  0  0  0  0  0  0  0  0  0
  152.0090  139.3198  155.2254 H   0  0  0  0  0  0  0  0  0  0  0  0
  149.7750  139.1118  156.4123 H   0  0  0  0  0  0  0  0  0  0  0  0
  151.1906  136.9781  157.8087 H   0  0  0  0  0  0  0  0  0  0  0  0
  146.1702  134.6293  162.3184 H   0  0  0  0  0  0  0  0  0  0  0  0
  152.0858  139.8562  158.2534 H   0  0  0  0  0  0  0  0  0  0  0  0
  149.1734  140.9114  157.9996 H   0  0  0  0  0  0  0  0  0  0  0  0
  150.4657  141.5016  159.1679 H   0  0  0  0  0  0  0  0  0  0  0  0
  151.9489  142.1055  157.2200 H   0  0  0  0  0  0  0  0  0  0  0  0
  150.6528  141.5170  156.0546 H   0  0  0  0  0  0  0  0  0  0  0  0
  1  2  1  0  0  0  0
  1 18  1  0  0  0  0
  1 19  1  0  0  0  0
  2  3  2  0  0  0  0
  2  4  1  0  0  0  0
  4  5  1  0  0  0  0
  4 20  1  0  0  0  0
  4 21  1  0  0  0  0
  5  6  1  0  0  0  0
  5 15  1  0  0  0  0
  5 22  1  0  0  0  0
  6  7  1  0  0  0  0
  6 23  1  0  0  0  0
  7  8  2  0  0  0  0
  7  9  1  0  0  0  0
  9 10  1  0  0  0  0
 10 14  1  0  0  0  0
 10 11  2  0  0  0  0
 11 12  1  0  0  0  0
 12 13  2  0  0  0  0
 13 14  1  0  0  0  0
 13 24  1  0  0  0  0
 15 17  1  0  0  0  0
 15 16  1  0  0  0  0
 15 25  1  0  0  0  0
 16 17  1  0  0  0  0
 16 26  1  0  0  0  0
 16 27  1  0  0  0  0
 17 28  1  0  0  0  0
 17 29  1  0  0  0  0
M  CHG  1   9  -1
M  END
> <s_m_source_file>
AV-unprocessed.smi

> <i_m_source_file_index>
663

> <i_lp_mmshare_version>
43012

> <i_f3d_flags>
0

> <s_epik_input>
W05IMl1DKD1PKVtDSDJdW0NAQEhdKFtDSF0xW0NIMl1bQ0gyXTEpW05IXUMoPU8pW05IXWMybm5bY0hdczI=

> <s_epik_cmdline>
J2VwaWtfcHl0aG9uJywgJy1waCcsICc3LjAnLCAnLXRuJywgJzgnLCAnLW1hJywgJzIwMCcsICctbWV0YWxfYmluZGluZycsICctaW1hZScsICc8aW5maWxlLm1hZT4nLCAnLW9tYWUnLCAnPG91dGZpbGUubWFlPic=

> <r_lp_tautomer_probability>
1

> <r_epik_Ionization_Penalty>
4.41895

> <r_epik_Ionization_Penalty_Charging>
4.37725

> <r_epik_Ionization_Penalty_Neutral>
0.0416999

> <r_epik_State_Penalty>
4.37688

> <r_epik_Charging_Adjusted_Penalty>
8.75413

> <i_epik_Tot_Q>
-1

> <i_epik_Tot_abs_Q>
1

> <r_epik_Metal_State_Penalty>
0.761195

> <b_epik_Metal_Only>
1

> <s_lp_Force_Field>
OPLS_2005

> <r_lp_Energy>
7.27665

> <b_lp_Chiralities_Consistent>
1

> <s_lp_Variant>
AV-unprocessed.smi:663-4

> <Gold.Version>
5.8.1

> <Gold.Id.Protein>
6NUR|6NUR_protein|mol2

> <Gold.PLP.Fitness>
40.2829

> <Gold.PLP.PLP>
-25.2963

> <Gold.PLP.part.hbond>
-5.9728

> <Gold.PLP.part.metal>
0.0000

> <Gold.PLP.part.buried>
-5.6780

> <Gold.PLP.part.nonpolar>
-14.8243

> <Gold.PLP.part.repulsive>
0.2767

> <Gold.PLP.ligand.clash>
0.0000

> <Gold.PLP.ligand.torsion>
1.1960

> <Gold.PLP.Chemscore.Hbond>
5.4216

> <Gold.PLP.Chemscore.CHOScore>
0.0000

> <Gold.PLP.Chemscore.Metal>
0.0000

> <Gold.Chemscore.Hbonds>
donor molecule, donor type, donor heavy atom, donor atom, acceptor molecule, acceptor atom, score
      L1  H     1    18       P1  7948  1.00
      P1  H  6896  6908       L1     9  1.89
      P1  H  6931  6943       L1    11  0.98
      P1  H  6934  6947       L1    11  0.52
      P1  H 10752 10763       L1     3  1.00

> <Gold.PLP.Chemscore.Internal.Correction>
1.1138

> <Gold.Rescore>
     Score         DG    S(hbond)    S(metal)    S(lipo)     H(rot)  DE(clash)    DE(int)     intcor
     13.41     -16.12       3.78        0.00      37.51       2.49       0.00       2.71       ----

> <Gold.Chemscore.Fitness>
13.4075

> <Gold.Chemscore.DG>
-16.1159

> <Gold.Chemscore.ZeroCoef>
-5.4800

> <Gold.Chemscore.Hbond>
3.7759

> <Gold.Chemscore.Metal>
0.0000

> <Gold.Chemscore.Lipo>
37.5136

> <Gold.Chemscore.Internal_Hbond>
0.0000

> <Gold.Chemscore.DEClash>
0.0000

> <Gold.Chemscore.DEInternal>
2.7084

> <Gold.Chemscore.Rot>
2.4863

> <Gold.Chemscore.Internal.Correction>
   9.000000E+99

> <Gold.Chemscore.Hbonds>
donor molecule, donor type, donor heavy atom, donor atom, acceptor molecule, acceptor atom, score
      L1  H     1    18       P1  7948  0.45
      P1  H  6896  6908       L1     9  0.27
      P1  H  6931  6943       L1    11  0.57
      P1  H  6934  6947       L1    11  0.09
      P1  H 10752 10763       L1     3  0.94

> <Gold.Chemscore.Hbond.Weighted>
-12.6117

> <Gold.Chemscore.Metal.Weighted>
-0.0000

> <Gold.Chemscore.Lipo.Weighted>
-4.3891

> <Gold.Chemscore.Internal_Hbond.Weighted>
0.0000

> <Gold.Chemscore.DEClash.Weighted>
0.0000

> <Gold.Chemscore.DEInternal.Weighted>
2.7084

> <Gold.Chemscore.Rot.Weighted>
6.3648

> <Gold.Chemscore.Internal.Correction.Weighted>
   9.000000E+99

> <Gold.Protein.RotatedTorsions>
[ 6907 6896 6895 6894 ] final -166.55 input  -60.11 | X-H torsion
[ 7974 7965 7964 7962 ] final  -60.87 input  175.53 | X-H torsion
[ 8008 7997 7996 7995 ] final -100.09 input   59.86 | X-H torsion
[ 10167 10162 10161 10158 ] final -113.18 input  -65.29 | X-H torsion
[ 10718 10713 10712 10709 ] final   93.44 input   66.30 | X-H torsion
[ 10763 10752 10751 10750 ] final   72.65 input  -60.55 | X-H torsion
[ 11005 11000 10999 10996 ] final   20.68 input  -57.11 | X-H torsion

> <Gold.Protein.ActiveResidues>
 VAL166  LYS551  ARG553  GLY616  TRP617  ASP618  TYR619  PRO620  LYS621  CYS622 
 ASP623  PHE694  ASN695  SER759  ASP760  ASP761  ALA762  ILE779  LEU786  VAL792 
 PHE793  MET794  SER795  GLU796  ALA797  LYS798  CYS799  TRP800  GLU811  SER814 

> <Gold.Protein.RotatedAtoms>
  151.4453  133.3632  159.2787 H   0  0  0  0  0  0  0  0  0  0  0  0  # atno 6907 bound_to 6896
  150.9129  134.8547  159.7448 H   0  0  0  0  0  0  0  0  0  0  0  0  # atno 6908 bound_to 6896
  152.4941  134.4384  159.9587 H   0  0  0  0  0  0  0  0  0  0  0  0  # atno 6909 bound_to 6896
  145.8103  140.8602  143.0185 H   0  0  0  0  0  0  0  0  0  0  0  0  # atno 7974 bound_to 7965
  154.8238  140.0443  157.1429 H   0  0  0  0  0  0  0  0  0  0  0  0  # atno 8008 bound_to 7997
  154.9229  140.3029  155.5187 H   0  0  0  0  0  0  0  0  0  0  0  0  # atno 8009 bound_to 7997
  156.2982  140.2337  156.4281 H   0  0  0  0  0  0  0  0  0  0  0  0  # atno 8010 bound_to 7997
  140.1147  143.4496  152.1730 H   0  0  0  0  0  0  0  0  0  0  0  0  # atno 10167 bound_to 10162
  157.6954  131.0478  150.4034 H   0  0  0  0  0  0  0  0  0  0  0  0  # atno 10718 bound_to 10713
  153.0472  135.5092  154.7776 H   0  0  0  0  0  0  0  0  0  0  0  0  # atno 10763 bound_to 10752
  154.6667  135.2946  154.9799 H   0  0  0  0  0  0  0  0  0  0  0  0  # atno 10764 bound_to 10752
  154.0631  135.6688  153.4867 H   0  0  0  0  0  0  0  0  0  0  0  0  # atno 10765 bound_to 10752
  140.3999  134.1729  155.7663 H   0  0  0  0  0  0  0  0  0  0  0  0  # atno 11005 bound_to 11000
  144.6758  140.0386  143.7481 LP  0  0  0  0  0  0  0  0  0  0  0  0  # atno 17320 bound_to 7965
  145.9784  139.2922  143.1057 LP  0  0  0  0  0  0  0  0  0  0  0  0  # atno 17321 bound_to 7965
  139.5600  144.7399  151.4181 LP  0  0  0  0  0  0  0  0  0  0  0  0  # atno 17342 bound_to 10162
  140.6906  143.7870  150.7250 LP  0  0  0  0  0  0  0  0  0  0  0  0  # atno 17343 bound_to 10162
  156.4425  130.3994  149.6688 LP  0  0  0  0  0  0  0  0  0  0  0  0  # atno 17370 bound_to 10713
  156.3867  130.7606  151.2604 LP  0  0  0  0  0  0  0  0  0  0  0  0  # atno 17371 bound_to 10713
  141.1860  133.8310  157.1083 LP  0  0  0  0  0  0  0  0  0  0  0  0  # atno 17394 bound_to 11000
  140.0344  134.9885  157.0842 LP  0  0  0  0  0  0  0  0  0  0  0  0  # atno 17395 bound_to 11000

$$$$
