AV-unprocessed.smi:3337|AV-procd|sdf|12864|dock2
  -GOLD-   2272019263D 1   1.00000     0.00000
 Structure written by MMmdl.
 46 47  0  0  0  0  0  0  0  0  2 V2000
  149.6330  144.8935  160.3550 C   0  0  0  0  0  0  0  0  0  0  0  0
  151.0443  145.1240  159.7864 C   0  0  1  0  0  0  0  0  0  0  0  0
  152.1560  144.5669  160.6946 C   0  0  0  0  0  0  0  0  0  0  0  0
  152.2272  143.0307  160.6304 C   0  0  2  0  0  0  0  0  0  0  0  0
  153.3820  142.4890  161.4847 C   0  0  0  0  0  0  0  0  0  0  0  0
  152.3424  142.5615  159.1670 C   0  0  0  0  0  0  0  0  0  0  0  0
  151.2278  143.0875  158.3370 N   0  3  2  0  0  0  0  0  0  0  0  0
  151.2361  142.5194  156.9657 C   0  0  0  0  0  0  0  0  0  0  0  0
  151.7218  141.0566  156.9344 C   0  0  0  0  0  0  0  0  0  0  0  0
  150.6060  140.1260  156.8103 N   0  0  0  0  0  0  0  0  0  0  0  0
  150.3196  139.4154  155.7076 C   0  0  0  0  0  0  0  0  0  0  0  0
  150.9906  139.4811  154.6769 O   0  0  0  0  0  0  0  0  0  0  0  0
  149.0923  138.4946  155.7842 C   0  0  2  0  0  0  0  0  0  0  0  0
  149.4510  137.0196  155.5122 C   0  0  0  0  0  0  0  0  0  0  0  0
  148.0425  138.9815  154.8979 N   0  0  0  0  0  0  0  0  0  0  0  0
  147.9631  138.9514  153.5657 C   0  0  0  0  0  0  0  0  0  0  0  0
  146.8332  139.4469  153.0813 N   0  0  0  0  0  0  0  0  0  0  0  0
  146.2102  139.7790  154.2508 C   0  0  0  0  0  0  0  0  0  0  0  0
  146.8850  139.5100  155.3683 N   0  0  0  0  0  0  0  0  0  0  0  0
  151.1924  144.5749  158.3538 C   0  0  0  0  0  0  0  0  0  0  0  0
  149.3849  143.8341  160.4195 H   0  0  0  0  0  0  0  0  0  0  0  0
  148.8781  145.3686  159.7280 H   0  0  0  0  0  0  0  0  0  0  0  0
  149.5400  145.3176  161.3552 H   0  0  0  0  0  0  0  0  0  0  0  0
  151.1803  146.2051  159.7362 H   0  0  0  0  0  0  0  0  0  0  0  0
  153.1135  144.9838  160.3791 H   0  0  0  0  0  0  0  0  0  0  0  0
  152.0046  144.8988  161.7225 H   0  0  0  0  0  0  0  0  0  0  0  0
  151.3033  142.6252  161.0443 H   0  0  0  0  0  0  0  0  0  0  0  0
  154.3470  142.8413  161.1188 H   0  0  0  0  0  0  0  0  0  0  0  0
  153.4005  141.3989  161.4753 H   0  0  0  0  0  0  0  0  0  0  0  0
  153.2837  142.8068  162.5230 H   0  0  0  0  0  0  0  0  0  0  0  0
  153.2943  142.8787  158.7378 H   0  0  0  0  0  0  0  0  0  0  0  0
  152.3316  141.4712  159.1419 H   0  0  0  0  0  0  0  0  0  0  0  0
  150.2413  142.6167  156.5284 H   0  0  0  0  0  0  0  0  0  0  0  0
  151.9060  143.1065  156.3357 H   0  0  0  0  0  0  0  0  0  0  0  0
  152.3872  140.9043  156.0842 H   0  0  0  0  0  0  0  0  0  0  0  0
  152.2959  140.8028  157.8258 H   0  0  0  0  0  0  0  0  0  0  0  0
  150.0057  140.0183  157.6153 H   0  0  0  0  0  0  0  0  0  0  0  0
  148.6996  138.5471  156.8014 H   0  0  0  0  0  0  0  0  0  0  0  0
  150.1983  136.6606  156.2207 H   0  0  0  0  0  0  0  0  0  0  0  0
  149.8513  136.8709  154.5085 H   0  0  0  0  0  0  0  0  0  0  0  0
  148.5727  136.3817  155.6143 H   0  0  0  0  0  0  0  0  0  0  0  0
  148.7473  138.5563  152.9363 H   0  0  0  0  0  0  0  0  0  0  0  0
  145.2276  140.2261  154.2795 H   0  0  0  0  0  0  0  0  0  0  0  0
  150.3739  144.9503  157.7409 H   0  0  0  0  0  0  0  0  0  0  0  0
  152.1115  144.9568  157.9062 H   0  0  0  0  0  0  0  0  0  0  0  0
  150.3758  142.7669  158.7747 H   0  0  0  0  0  0  0  0  0  0  0  0
  1  2  1  0  0  0  0
  1 21  1  0  0  0  0
  1 22  1  0  0  0  0
  1 23  1  0  0  0  0
  2 20  1  0  0  0  0
  2  3  1  0  0  0  0
  2 24  1  0  0  0  0
  3  4  1  0  0  0  0
  3 25  1  0  0  0  0
  3 26  1  0  0  0  0
  4  5  1  0  0  0  0
  4  6  1  0  0  0  0
  4 27  1  0  0  0  0
  5 28  1  0  0  0  0
  5 29  1  0  0  0  0
  5 30  1  0  0  0  0
  6  7  1  0  0  0  0
  6 31  1  0  0  0  0
  6 32  1  0  0  0  0
  7  8  1  0  0  0  0
  7 20  1  0  0  0  0
  7 46  1  0  0  0  0
  8  9  1  0  0  0  0
  8 33  1  0  0  0  0
  8 34  1  0  0  0  0
  9 10  1  0  0  0  0
  9 35  1  0  0  0  0
  9 36  1  0  0  0  0
 10 11  1  0  0  0  0
 10 37  1  0  0  0  0
 11 12  2  0  0  0  0
 11 13  1  0  0  0  0
 13 14  1  0  0  0  0
 13 15  1  0  0  0  0
 13 38  1  0  0  0  0
 14 39  1  0  0  0  0
 14 40  1  0  0  0  0
 14 41  1  0  0  0  0
 15 19  1  0  0  0  0
 15 16  1  0  0  0  0
 16 17  2  0  0  0  0
 16 42  1  0  0  0  0
 17 18  1  0  0  0  0
 18 19  2  0  0  0  0
 18 43  1  0  0  0  0
 20 44  1  0  0  0  0
 20 45  1  0  0  0  0
M  CHG  1   7   1
M  END
> <s_m_source_file>
AV-unprocessed.smi

> <i_m_source_file_index>
3337

> <i_lp_mmshare_version>
43012

> <i_f3d_flags>
0

> <s_epik_input>
W0NIM11bQ0BASF0xW0NIMl1bQ0BASF0oW0NIM10pW0NIMl1OKFtDSDJdMSlbQ0gyXVtDSDJdW05IXUMoPU8pW0NASF0oW0NIM10pbjJbY0hdbltjSF1uMg==

> <s_epik_cmdline>
J2VwaWtfcHl0aG9uJywgJy1waCcsICc3LjAnLCAnLXRuJywgJzgnLCAnLW1hJywgJzIwMCcsICctbWV0YWxfYmluZGluZycsICctaW1hZScsICc8aW5maWxlLm1hZT4nLCAnLW9tYWUnLCAnPG91dGZpbGUubWFlPic=

> <r_lp_tautomer_probability>
1

> <r_epik_Ionization_Penalty>
0.00175613

> <r_epik_Ionization_Penalty_Charging>
0.00174812

> <r_epik_Ionization_Penalty_Neutral>
8.01354e-06

> <r_epik_State_Penalty>
0.00118332

> <r_epik_Charging_Adjusted_Penalty>
0.00293143

> <i_epik_Tot_Q>
1

> <i_epik_Tot_abs_Q>
1

> <r_epik_Metal_State_Penalty>
-0

> <b_epik_Metal_Only>
0

> <s_lp_Force_Field>
OPLS_2005

> <r_lp_Energy>
24.6468

> <b_lp_Chiralities_Consistent>
1

> <s_lp_Variant>
AV-unprocessed.smi:3337-4

> <Gold.Version>
5.8.1

> <Gold.Id.Protein>
6NUR|6NUR_protein|mol2

> <Gold.PLP.Fitness>
42.3514

> <Gold.PLP.PLP>
-32.6545

> <Gold.PLP.part.hbond>
-1.0000

> <Gold.PLP.part.metal>
0.0000

> <Gold.PLP.part.buried>
-5.5477

> <Gold.PLP.part.nonpolar>
-26.0558

> <Gold.PLP.part.repulsive>
0.4453

> <Gold.PLP.ligand.clash>
0.0000

> <Gold.PLP.ligand.torsion>
0.7833

> <Gold.PLP.Chemscore.Hbond>
1.0000

> <Gold.PLP.Chemscore.CHOScore>
2.7106

> <Gold.PLP.Chemscore.Metal>
0.0000

> <Gold.Chemscore.Hbonds>
donor molecule, donor type, donor heavy atom, donor atom, acceptor molecule, acceptor atom, score
      P1  H  7989  7998       L1    12  1.00
      L1  C    16    42       P1  7948  0.98
      L1  C    16    42       P1  7957  0.75
      L1  C    18    43       P1 10175  0.97

> <Gold.PLP.Chemscore.Internal.Correction>
0.1317

> <Gold.Rescore>
     Score         DG    S(hbond)    S(metal)    S(lipo)     H(rot)  DE(clash)    DE(int)     intcor
     12.62     -13.52       1.00        0.00      95.22       2.51       0.08       0.82       ----

> <Gold.Chemscore.Fitness>
12.6222

> <Gold.Chemscore.DG>
-13.5243

> <Gold.Chemscore.ZeroCoef>
-5.4800

> <Gold.Chemscore.Hbond>
0.9988

> <Gold.Chemscore.Metal>
0.0000

> <Gold.Chemscore.Lipo>
95.2249

> <Gold.Chemscore.Internal_Hbond>
0.0000

> <Gold.Chemscore.DEClash>
0.0794

> <Gold.Chemscore.DEInternal>
0.8227

> <Gold.Chemscore.Rot>
2.5129

> <Gold.Chemscore.Internal.Correction>
   9.000000E+99

> <Gold.Chemscore.Hbonds>
donor molecule, donor type, donor heavy atom, donor atom, acceptor molecule, acceptor atom, score
      P1  H  7989  7998       L1    12  1.00

> <Gold.Chemscore.Hbond.Weighted>
-3.3361

> <Gold.Chemscore.Metal.Weighted>
-0.0000

> <Gold.Chemscore.Lipo.Weighted>
-11.1413

> <Gold.Chemscore.Internal_Hbond.Weighted>
0.0000

> <Gold.Chemscore.DEClash.Weighted>
0.0794

> <Gold.Chemscore.DEInternal.Weighted>
0.8227

> <Gold.Chemscore.Rot.Weighted>
6.4331

> <Gold.Chemscore.Internal.Correction.Weighted>
   9.000000E+99

> <Gold.Protein.RotatedTorsions>
[ 6907 6896 6895 6894 ] final  127.30 input  -60.11 | X-H torsion
[ 7974 7965 7964 7962 ] final -157.82 input  175.53 | X-H torsion
[ 8008 7997 7996 7995 ] final  156.37 input   59.86 | X-H torsion
[ 10167 10162 10161 10158 ] final -159.23 input  -65.29 | X-H torsion
[ 10718 10713 10712 10709 ] final  123.96 input   66.30 | X-H torsion
[ 10763 10752 10751 10750 ] final  115.46 input  -60.55 | X-H torsion
[ 11005 11000 10999 10996 ] final -112.31 input  -57.11 | X-H torsion

> <Gold.Protein.ActiveResidues>
 VAL166  LYS551  ARG553  GLY616  TRP617  ASP618  TYR619  PRO620  LYS621  CYS622 
 ASP623  PHE694  ASN695  SER759  ASP760  ASP761  ALA762  ILE779  LEU786  VAL792 
 PHE793  MET794  SER795  GLU796  ALA797  LYS798  CYS799  TRP800  GLU811  SER814 

> <Gold.Protein.RotatedAtoms>
  152.3825  133.6565  159.6172 H   0  0  0  0  0  0  0  0  0  0  0  0  # atno 6907 bound_to 6896
  150.7752  133.9090  159.3373 H   0  0  0  0  0  0  0  0  0  0  0  0  # atno 6908 bound_to 6896
  151.6893  135.0950  160.0282 H   0  0  0  0  0  0  0  0  0  0  0  0  # atno 6909 bound_to 6896
  144.7532  140.3915  143.6032 H   0  0  0  0  0  0  0  0  0  0  0  0  # atno 7974 bound_to 7965
  156.2426  140.1914  156.6944 H   0  0  0  0  0  0  0  0  0  0  0  0  # atno 8008 bound_to 7997
  154.6227  140.0606  156.9662 H   0  0  0  0  0  0  0  0  0  0  0  0  # atno 8009 bound_to 7997
  155.1835  140.3278  155.4373 H   0  0  0  0  0  0  0  0  0  0  0  0  # atno 8010 bound_to 7997
  139.6631  143.9878  152.2238 H   0  0  0  0  0  0  0  0  0  0  0  0  # atno 10167 bound_to 10162
  157.5623  131.1089  150.8516 H   0  0  0  0  0  0  0  0  0  0  0  0  # atno 10718 bound_to 10713
  153.5225  135.3595  155.2638 H   0  0  0  0  0  0  0  0  0  0  0  0  # atno 10763 bound_to 10752
  154.8734  135.4049  154.3243 H   0  0  0  0  0  0  0  0  0  0  0  0  # atno 10764 bound_to 10752
  153.3917  135.7072  153.6557 H   0  0  0  0  0  0  0  0  0  0  0  0  # atno 10765 bound_to 10752
  141.0682  133.9423  157.2536 H   0  0  0  0  0  0  0  0  0  0  0  0  # atno 11005 bound_to 11000
  145.6871  139.1631  143.2667 LP  0  0  0  0  0  0  0  0  0  0  0  0  # atno 17320 bound_to 7965
  146.1509  140.6927  142.9323 LP  0  0  0  0  0  0  0  0  0  0  0  0  # atno 17321 bound_to 7965
  139.9622  144.6550  150.8068 LP  0  0  0  0  0  0  0  0  0  0  0  0  # atno 17342 bound_to 10162
  140.7588  143.3115  151.2834 LP  0  0  0  0  0  0  0  0  0  0  0  0  # atno 17343 bound_to 10162
  156.9010  130.5247  149.5283 LP  0  0  0  0  0  0  0  0  0  0  0  0  # atno 17370 bound_to 10713
  156.0674  130.5715  150.9317 LP  0  0  0  0  0  0  0  0  0  0  0  0  # atno 17371 bound_to 10713
  139.9497  135.0177  156.8958 LP  0  0  0  0  0  0  0  0  0  0  0  0  # atno 17394 bound_to 11000
  140.5728  134.0426  155.7436 LP  0  0  0  0  0  0  0  0  0  0  0  0  # atno 17395 bound_to 11000

$$$$
