AV-unprocessed.smi:2536|AV-procd|sdf|9978|dock1
  -GOLD-   2272014 23D 1   1.00000     0.00000
 Structure written by MMmdl.
 32 33  0  0  0  0  0  0  0  0  1 V2000
  152.7845  143.3148  161.5517 C   0  0  0  0  0  0  0  0  0  0  0  0
  152.1307  143.0909  160.2014 C   0  0  0  0  0  0  0  0  0  0  0  0
  152.0082  141.7919  159.6633 C   0  0  0  0  0  0  0  0  0  0  0  0
  151.4270  141.5655  158.4656 N   0  0  0  0  0  0  0  0  0  0  0  0
  150.9672  142.6291  157.8036 C   0  0  0  0  0  0  0  0  0  0  0  0
  150.3742  142.3572  156.5835 N   0  0  0  0  0  0  0  0  0  0  0  0
  150.1122  141.0234  156.0571 C   0  0  2  0  0  0  0  0  0  0  0  0
  151.4041  140.1971  155.9329 C   0  0  0  0  0  0  0  0  0  0  0  0
  151.0938  138.8423  155.2880 C   0  0  0  0  0  0  0  0  0  0  0  0
  150.3433  139.0407  153.9618 C   0  0  0  0  0  0  0  0  0  0  0  0
  149.1595  139.8003  154.1836 O   0  0  0  0  0  0  0  0  0  0  0  0
  149.4198  141.1080  154.6839 C   0  0  0  0  0  0  0  0  0  0  0  0
  151.0310  143.9014  158.2121 N   0  0  0  0  0  0  0  0  0  0  0  0
  151.6103  144.1433  159.4088 C   0  0  0  0  0  0  0  0  0  0  0  0
  151.6521  145.6017  159.8282 C   0  0  0  0  0  0  0  0  0  0  0  0
  153.0972  142.3707  161.9986 H   0  0  0  0  0  0  0  0  0  0  0  0
  152.0872  143.7972  162.2370 H   0  0  0  0  0  0  0  0  0  0  0  0
  153.6668  143.9468  161.4484 H   0  0  0  0  0  0  0  0  0  0  0  0
  152.3755  140.9266  160.1952 H   0  0  0  0  0  0  0  0  0  0  0  0
  150.1838  143.1461  155.9832 H   0  0  0  0  0  0  0  0  0  0  0  0
  149.4323  140.5132  156.7407 H   0  0  0  0  0  0  0  0  0  0  0  0
  152.1318  140.7329  155.3216 H   0  0  0  0  0  0  0  0  0  0  0  0
  151.8661  140.0461  156.9089 H   0  0  0  0  0  0  0  0  0  0  0  0
  152.0153  138.2843  155.1208 H   0  0  0  0  0  0  0  0  0  0  0  0
  150.4838  138.2449  155.9664 H   0  0  0  0  0  0  0  0  0  0  0  0
  150.9768  139.5407  153.2275 H   0  0  0  0  0  0  0  0  0  0  0  0
  150.0677  138.0744  153.5389 H   0  0  0  0  0  0  0  0  0  0  0  0
  148.4709  141.6377  154.7735 H   0  0  0  0  0  0  0  0  0  0  0  0
  150.0283  141.6648  153.9689 H   0  0  0  0  0  0  0  0  0  0  0  0
  152.1959  145.7590  160.7583 H   0  0  0  0  0  0  0  0  0  0  0  0
  150.6383  145.9792  159.9636 H   0  0  0  0  0  0  0  0  0  0  0  0
  152.1361  146.1998  159.0556 H   0  0  0  0  0  0  0  0  0  0  0  0
  1  2  1  0  0  0  0
  1 16  1  0  0  0  0
  1 17  1  0  0  0  0
  1 18  1  0  0  0  0
  2 14  1  0  0  0  0
  2  3  2  0  0  0  0
  3  4  1  0  0  0  0
  3 19  1  0  0  0  0
  4  5  2  0  0  0  0
  5  6  1  0  0  0  0
  5 13  1  0  0  0  0
  6  7  1  0  0  0  0
  6 20  1  0  0  0  0
  7 12  1  0  0  0  0
  7  8  1  0  0  0  0
  7 21  1  0  0  0  0
  8  9  1  0  0  0  0
  8 22  1  0  0  0  0
  8 23  1  0  0  0  0
  9 10  1  0  0  0  0
  9 24  1  0  0  0  0
  9 25  1  0  0  0  0
 10 11  1  0  0  0  0
 10 26  1  0  0  0  0
 10 27  1  0  0  0  0
 11 12  1  0  0  0  0
 12 28  1  0  0  0  0
 12 29  1  0  0  0  0
 13 14  2  0  0  0  0
 14 15  1  0  0  0  0
 15 30  1  0  0  0  0
 15 31  1  0  0  0  0
 15 32  1  0  0  0  0
M  END
> <s_m_source_file>
AV-unprocessed.smi

> <i_m_source_file_index>
2536

> <i_lp_mmshare_version>
43012

> <i_f3d_flags>
0

> <s_epik_input>
W0NIM11jMVtjSF1uYyhuYzFbQ0gzXSlbTkhdW0NAQEhdMltDSDJdW0NIMl1bQ0gyXU9bQ0gyXTI=

> <s_epik_cmdline>
J2VwaWtfcHl0aG9uJywgJy1waCcsICc3LjAnLCAnLXRuJywgJzgnLCAnLW1hJywgJzIwMCcsICctbWV0YWxfYmluZGluZycsICctaW1hZScsICc8aW5maWxlLm1hZT4nLCAnLW9tYWUnLCAnPG91dGZpbGUubWFlPic=

> <r_lp_tautomer_probability>
1

> <r_epik_Ionization_Penalty>
0.00982357

> <r_epik_Ionization_Penalty_Charging>
0

> <r_epik_Ionization_Penalty_Neutral>
0.00982357

> <r_epik_State_Penalty>
0.0064698

> <r_epik_Charging_Adjusted_Penalty>
0.0064698

> <i_epik_Tot_Q>
0

> <i_epik_Tot_abs_Q>
0

> <r_epik_Metal_State_Penalty>
-0

> <b_epik_Metal_Only>
0

> <s_lp_Force_Field>
OPLS_2005

> <r_lp_Energy>
1.83983

> <b_lp_Chiralities_Consistent>
1

> <s_lp_Variant>
AV-unprocessed.smi:2536-1

> <Gold.Version>
5.8.1

> <Gold.Id.Protein>
6NUR|6NUR_protein|mol2

> <Gold.PLP.Fitness>
36.7496

> <Gold.PLP.PLP>
-34.0994

> <Gold.PLP.part.hbond>
-1.0000

> <Gold.PLP.part.metal>
0.0000

> <Gold.PLP.part.buried>
-3.4654

> <Gold.PLP.part.nonpolar>
-30.0913

> <Gold.PLP.part.repulsive>
0.6780

> <Gold.PLP.ligand.clash>
0.0000

> <Gold.PLP.ligand.torsion>
0.0102

> <Gold.PLP.Chemscore.Hbond>
0.8892

> <Gold.PLP.Chemscore.CHOScore>
0.0000

> <Gold.PLP.Chemscore.Metal>
0.0000

> <Gold.Chemscore.Hbonds>
donor molecule, donor type, donor heavy atom, donor atom, acceptor molecule, acceptor atom, score
      L1  H     6    20       P1  8028  0.82

> <Gold.PLP.Chemscore.Internal.Correction>
0.0031

> <Gold.Rescore>
     Score         DG    S(hbond)    S(metal)    S(lipo)     H(rot)  DE(clash)    DE(int)     intcor
     15.28     -16.82       0.94        0.00      91.84       1.00       0.28       1.25       ----

> <Gold.Chemscore.Fitness>
15.2817

> <Gold.Chemscore.DG>
-16.8166

> <Gold.Chemscore.ZeroCoef>
-5.4800

> <Gold.Chemscore.Hbond>
0.9435

> <Gold.Chemscore.Metal>
0.0000

> <Gold.Chemscore.Lipo>
91.8414

> <Gold.Chemscore.Internal_Hbond>
0.0000

> <Gold.Chemscore.DEClash>
0.2805

> <Gold.Chemscore.DEInternal>
1.2544

> <Gold.Chemscore.Rot>
1.0000

> <Gold.Chemscore.Internal.Correction>
   9.000000E+99

> <Gold.Chemscore.Hbonds>
donor molecule, donor type, donor heavy atom, donor atom, acceptor molecule, acceptor atom, score
      L1  H     6    20       P1  8028  0.77

> <Gold.Chemscore.Hbond.Weighted>
-3.1512

> <Gold.Chemscore.Metal.Weighted>
-0.0000

> <Gold.Chemscore.Lipo.Weighted>
-10.7454

> <Gold.Chemscore.Internal_Hbond.Weighted>
0.0000

> <Gold.Chemscore.DEClash.Weighted>
0.2805

> <Gold.Chemscore.DEInternal.Weighted>
1.2544

> <Gold.Chemscore.Rot.Weighted>
2.5600

> <Gold.Chemscore.Internal.Correction.Weighted>
   9.000000E+99

> <Gold.Protein.RotatedTorsions>
[ 6907 6896 6895 6894 ] final -100.79 input  -60.11 | X-H torsion
[ 7974 7965 7964 7962 ] final -116.37 input  175.53 | X-H torsion
[ 8008 7997 7996 7995 ] final  145.74 input   59.86 | X-H torsion
[ 10167 10162 10161 10158 ] final    6.11 input  -65.29 | X-H torsion
[ 10718 10713 10712 10709 ] final  153.56 input   66.30 | X-H torsion
[ 10763 10752 10751 10750 ] final -107.01 input  -60.55 | X-H torsion
[ 11005 11000 10999 10996 ] final -156.47 input  -57.11 | X-H torsion

> <Gold.Protein.ActiveResidues>
 VAL166  LYS551  ARG553  GLY616  TRP617  ASP618  TYR619  PRO620  LYS621  CYS622 
 ASP623  PHE694  ASN695  SER759  ASP760  ASP761  ALA762  ILE779  LEU786  VAL792 
 PHE793  MET794  SER795  GLU796  ALA797  LYS798  CYS799  TRP800  GLU811  SER814 

> <Gold.Protein.RotatedAtoms>
  150.7129  134.0833  159.3905 H   0  0  0  0  0  0  0  0  0  0  0  0  # atno 6907 bound_to 6896
  151.8817  135.0448  160.0498 H   0  0  0  0  0  0  0  0  0  0  0  0  # atno 6908 bound_to 6896
  152.2562  133.5222  159.5391 H   0  0  0  0  0  0  0  0  0  0  0  0  # atno 6909 bound_to 6896
  145.0975  140.8530  143.3946 H   0  0  0  0  0  0  0  0  0  0  0  0  # atno 7974 bound_to 7965
  156.2875  140.2201  156.5263 H   0  0  0  0  0  0  0  0  0  0  0  0  # atno 8008 bound_to 7997
  154.7486  140.0482  157.0895 H   0  0  0  0  0  0  0  0  0  0  0  0  # atno 8009 bound_to 7997
  155.0139  140.3116  155.4822 H   0  0  0  0  0  0  0  0  0  0  0  0  # atno 8010 bound_to 7997
  140.6446  143.7693  150.7479 H   0  0  0  0  0  0  0  0  0  0  0  0  # atno 10167 bound_to 10162
  157.2432  131.0763  151.1779 H   0  0  0  0  0  0  0  0  0  0  0  0  # atno 10718 bound_to 10713
  154.8049  135.4690  154.0366 H   0  0  0  0  0  0  0  0  0  0  0  0  # atno 10763 bound_to 10752
  153.1843  135.6845  153.8443 H   0  0  0  0  0  0  0  0  0  0  0  0  # atno 10764 bound_to 10752
  153.7982  135.3233  155.3364 H   0  0  0  0  0  0  0  0  0  0  0  0  # atno 10765 bound_to 10752
  140.6753  134.4204  157.5229 H   0  0  0  0  0  0  0  0  0  0  0  0  # atno 11005 bound_to 11000
  145.0994  139.2833  143.5694 LP  0  0  0  0  0  0  0  0  0  0  0  0  # atno 17320 bound_to 7965
  146.3530  140.0556  142.8633 LP  0  0  0  0  0  0  0  0  0  0  0  0  # atno 17321 bound_to 7965
  140.1332  143.4507  152.2241 LP  0  0  0  0  0  0  0  0  0  0  0  0  # atno 17342 bound_to 10162
  139.5656  144.7433  151.4033 LP  0  0  0  0  0  0  0  0  0  0  0  0  # atno 17343 bound_to 10162
  157.3357  130.7007  149.6351 LP  0  0  0  0  0  0  0  0  0  0  0  0  # atno 17370 bound_to 10713
  155.9669  130.4294  150.4833 LP  0  0  0  0  0  0  0  0  0  0  0  0  # atno 17371 bound_to 10713
  139.8969  134.8649  156.2069 LP  0  0  0  0  0  0  0  0  0  0  0  0  # atno 17394 bound_to 11000
  141.0360  133.6963  156.1514 LP  0  0  0  0  0  0  0  0  0  0  0  0  # atno 17395 bound_to 11000

$$$$
