AV-unprocessed.smi:1643|AV-procd|sdf|6577|dock5
  -GOLD-   22720 7263D 1   1.00000     0.00000
 Structure written by MMmdl.
 53 55  0  0  0  0  0  0  0  0  1 V2000
  146.8976  135.3052  153.9914 C   0  0  0  0  0  0  0  0  0  0  0  0
  146.7381  136.4023  155.0466 C   0  0  0  0  0  0  0  0  0  0  0  0
  147.2355  136.2187  156.1579 O   0  0  0  0  0  0  0  0  0  0  0  0
  146.0546  137.5279  154.7286 N   0  0  0  0  0  0  0  0  0  0  0  0
  145.5224  137.7637  153.3821 C   0  0  0  0  0  0  0  0  0  0  0  0
  146.5647  138.4906  152.5174 C   0  0  0  0  0  0  0  0  0  0  0  0
  147.0782  139.8193  153.1115 C   0  0  0  0  0  0  0  0  0  0  0  0
  147.8873  139.6563  154.3280 N   0  0  0  0  0  0  0  0  0  0  0  0
  148.9495  140.6597  154.4306 C   0  0  0  0  0  0  0  0  0  0  0  0
  150.1226  140.2607  155.3482 C   0  0  1  0  0  0  0  0  0  0  0  0
  151.0535  139.5219  154.5836 O   0  0  0  0  0  0  0  0  0  0  0  0
  150.8323  141.4871  155.9557 C   0  0  0  0  0  0  0  0  0  0  0  0
  151.5214  141.1634  157.1902 N   0  0  0  0  0  0  0  0  0  0  0  0
  152.1277  140.0054  157.5145 C   0  0  0  0  0  0  0  0  0  0  0  0
  152.6988  139.9340  158.7141 N   0  0  0  0  0  0  0  0  0  0  0  0
  152.4360  141.1943  159.2246 C   0  0  0  0  0  0  0  0  0  0  0  0
  152.7732  141.7713  160.4686 C   0  0  0  0  0  0  0  0  0  0  0  0
  152.3942  143.0972  160.7793 C   0  0  0  0  0  0  0  0  0  0  0  0
  152.7780  143.6782  162.1288 C   0  0  0  0  0  0  0  0  0  0  0  0
  151.6647  143.8675  159.8378 C   0  0  0  0  0  0  0  0  0  0  0  0
  151.2451  145.2936  160.1477 C   0  0  0  0  0  0  0  0  0  0  0  0
  151.3194  143.3060  158.5913 C   0  0  0  0  0  0  0  0  0  0  0  0
  151.7027  141.9867  158.2945 C   0  0  0  0  0  0  0  0  0  0  0  0
  147.0673  139.6726  155.5482 C   0  0  0  0  0  0  0  0  0  0  0  0
  145.8867  138.6777  155.6251 C   0  0  0  0  0  0  0  0  0  0  0  0
  145.9264  134.9632  153.6336 H   0  0  0  0  0  0  0  0  0  0  0  0
  147.4172  134.4434  154.4120 H   0  0  0  0  0  0  0  0  0  0  0  0
  147.4818  135.6644  153.1439 H   0  0  0  0  0  0  0  0  0  0  0  0
  145.2336  136.8266  152.9037 H   0  0  0  0  0  0  0  0  0  0  0  0
  144.6041  138.3506  153.4233 H   0  0  0  0  0  0  0  0  0  0  0  0
  147.4122  137.8287  152.3346 H   0  0  0  0  0  0  0  0  0  0  0  0
  146.1264  138.6877  151.5388 H   0  0  0  0  0  0  0  0  0  0  0  0
  147.6644  140.2990  152.3299 H   0  0  0  0  0  0  0  0  0  0  0  0
  146.2478  140.5019  153.2975 H   0  0  0  0  0  0  0  0  0  0  0  0
  149.3218  140.8924  153.4315 H   0  0  0  0  0  0  0  0  0  0  0  0
  148.5351  141.5919  154.8172 H   0  0  0  0  0  0  0  0  0  0  0  0
  149.7791  139.6050  156.1473 H   0  0  0  0  0  0  0  0  0  0  0  0
  150.5756  138.9642  153.9888 H   0  0  0  0  0  0  0  0  0  0  0  0
  151.5459  141.9131  155.2487 H   0  0  0  0  0  0  0  0  0  0  0  0
  150.1093  142.2728  156.1780 H   0  0  0  0  0  0  0  0  0  0  0  0
  152.1480  139.1671  156.8334 H   0  0  0  0  0  0  0  0  0  0  0  0
  153.3281  141.1843  161.1857 H   0  0  0  0  0  0  0  0  0  0  0  0
  153.3745  144.5817  162.0013 H   0  0  0  0  0  0  0  0  0  0  0  0
  153.3654  142.9703  162.7145 H   0  0  0  0  0  0  0  0  0  0  0  0
  151.8857  143.9292  162.7028 H   0  0  0  0  0  0  0  0  0  0  0  0
  150.6875  145.7326  159.3196 H   0  0  0  0  0  0  0  0  0  0  0  0
  152.1198  145.9184  160.3296 H   0  0  0  0  0  0  0  0  0  0  0  0
  150.6082  145.3211  161.0320 H   0  0  0  0  0  0  0  0  0  0  0  0
  150.7641  143.8795  157.8640 H   0  0  0  0  0  0  0  0  0  0  0  0
  147.7207  139.4657  156.3965 H   0  0  0  0  0  0  0  0  0  0  0  0
  146.6829  140.6791  155.7199 H   0  0  0  0  0  0  0  0  0  0  0  0
  144.9710  139.2117  155.3693 H   0  0  0  0  0  0  0  0  0  0  0  0
  145.7265  138.3634  156.6564 H   0  0  0  0  0  0  0  0  0  0  0  0
  1  2  1  0  0  0  0
  1 26  1  0  0  0  0
  1 27  1  0  0  0  0
  1 28  1  0  0  0  0
  2  3  2  0  0  0  0
  2  4  1  0  0  0  0
  4 25  1  0  0  0  0
  4  5  1  0  0  0  0
  5  6  1  0  0  0  0
  5 29  1  0  0  0  0
  5 30  1  0  0  0  0
  6  7  1  0  0  0  0
  6 31  1  0  0  0  0
  6 32  1  0  0  0  0
  7  8  1  0  0  0  0
  7 33  1  0  0  0  0
  7 34  1  0  0  0  0
  8  9  1  0  0  0  0
  8 24  1  0  0  0  0
  9 10  1  0  0  0  0
  9 35  1  0  0  0  0
  9 36  1  0  0  0  0
 10 11  1  0  0  0  0
 10 12  1  0  0  0  0
 10 37  1  0  0  0  0
 11 38  1  0  0  0  0
 12 13  1  0  0  0  0
 12 39  1  0  0  0  0
 12 40  1  0  0  0  0
 13 23  1  0  0  0  0
 13 14  1  0  0  0  0
 14 15  2  0  0  0  0
 14 41  1  0  0  0  0
 15 16  1  0  0  0  0
 16 23  2  0  0  0  0
 16 17  1  0  0  0  0
 17 18  2  0  0  0  0
 17 42  1  0  0  0  0
 18 19  1  0  0  0  0
 18 20  1  0  0  0  0
 19 43  1  0  0  0  0
 19 44  1  0  0  0  0
 19 45  1  0  0  0  0
 20 21  1  0  0  0  0
 20 22  2  0  0  0  0
 21 46  1  0  0  0  0
 21 47  1  0  0  0  0
 21 48  1  0  0  0  0
 22 23  1  0  0  0  0
 22 49  1  0  0  0  0
 24 25  1  0  0  0  0
 24 50  1  0  0  0  0
 24 51  1  0  0  0  0
 25 52  1  0  0  0  0
 25 53  1  0  0  0  0
M  END
> <s_m_source_file>
AV-unprocessed.smi

> <i_m_source_file_index>
1643

> <i_lp_mmshare_version>
43012

> <i_f3d_flags>
0

> <s_epik_input>
W0NIM11DKD1PKU4xW0NIMl1bQ0gyXVtDSDJdTihbQ0gyXVtDSDJdMSlbQ0gyXVtDQEhdKFtPSF0pW0NIMl1uKFtjSF1uMiljKGMyMylbY0hdYyhbQ0gzXSljKFtjSF0zKVtDSDNd

> <s_epik_cmdline>
J2VwaWtfcHl0aG9uJywgJy1waCcsICc3LjAnLCAnLXRuJywgJzgnLCAnLW1hJywgJzIwMCcsICctbWV0YWxfYmluZGluZycsICctaW1hZScsICc8aW5maWxlLm1hZT4nLCAnLW9tYWUnLCAnPG91dGZpbGUubWFlPic=

> <r_epik_Ionization_Penalty>
1.17666

> <r_epik_Ionization_Penalty_Charging>
0

> <r_epik_Ionization_Penalty_Neutral>
1.17666

> <r_epik_State_Penalty>
1.20405

> <r_epik_Charging_Adjusted_Penalty>
1.20405

> <i_epik_Tot_Q>
0

> <i_epik_Tot_abs_Q>
0

> <r_epik_Metal_State_Penalty>
1.13307

> <b_epik_Metal_Only>
0

> <s_lp_Force_Field>
OPLS_2005

> <r_lp_Energy>
45.5249

> <b_lp_Chiralities_Consistent>
1

> <s_lp_Variant>
AV-unprocessed.smi:1643-6

> <Gold.Version>
5.8.1

> <Gold.Id.Protein>
6NUR|6NUR_protein|mol2

> <Gold.PLP.Fitness>
45.2118

> <Gold.PLP.PLP>
-44.6853

> <Gold.PLP.part.hbond>
-1.0000

> <Gold.PLP.part.metal>
0.0000

> <Gold.PLP.part.buried>
-5.3551

> <Gold.PLP.part.nonpolar>
-37.8949

> <Gold.PLP.part.repulsive>
0.1362

> <Gold.PLP.ligand.clash>
0.0000

> <Gold.PLP.ligand.torsion>
1.1143

> <Gold.PLP.Chemscore.Hbond>
0.9000

> <Gold.PLP.Chemscore.CHOScore>
0.0000

> <Gold.PLP.Chemscore.Metal>
0.0000

> <Gold.Chemscore.Hbonds>
donor molecule, donor type, donor heavy atom, donor atom, acceptor molecule, acceptor atom, score
      P1  H  7989  7998       L1    11  0.95

> <Gold.PLP.Chemscore.Internal.Correction>
0.0550

> <Gold.Rescore>
     Score         DG    S(hbond)    S(metal)    S(lipo)     H(rot)  DE(clash)    DE(int)     intcor
     14.08     -15.37       0.03        0.00     128.90       2.07       0.26       1.04       ----

> <Gold.Chemscore.Fitness>
14.0755

> <Gold.Chemscore.DG>
-15.3721

> <Gold.Chemscore.ZeroCoef>
-5.4800

> <Gold.Chemscore.Hbond>
0.0290

> <Gold.Chemscore.Metal>
0.0000

> <Gold.Chemscore.Lipo>
128.9025

> <Gold.Chemscore.Internal_Hbond>
0.0000

> <Gold.Chemscore.DEClash>
0.2557

> <Gold.Chemscore.DEInternal>
1.0409

> <Gold.Chemscore.Rot>
2.0650

> <Gold.Chemscore.Internal.Correction>
   9.000000E+99

> <Gold.Chemscore.Hbonds>
donor molecule, donor type, donor heavy atom, donor atom, acceptor molecule, acceptor atom, score
      P1  H  7989  7998       L1    11  0.07

> <Gold.Chemscore.Hbond.Weighted>
-0.0970

> <Gold.Chemscore.Metal.Weighted>
-0.0000

> <Gold.Chemscore.Lipo.Weighted>
-15.0816

> <Gold.Chemscore.Internal_Hbond.Weighted>
0.0000

> <Gold.Chemscore.DEClash.Weighted>
0.2557

> <Gold.Chemscore.DEInternal.Weighted>
1.0409

> <Gold.Chemscore.Rot.Weighted>
5.2865

> <Gold.Chemscore.Internal.Correction.Weighted>
   9.000000E+99

> <Gold.Protein.RotatedTorsions>
[ 6907 6896 6895 6894 ] final  -69.65 input  -60.11 | X-H torsion
[ 7974 7965 7964 7962 ] final  120.40 input  175.53 | X-H torsion
[ 8008 7997 7996 7995 ] final   26.29 input   59.86 | X-H torsion
[ 10167 10162 10161 10158 ] final  177.94 input  -65.29 | X-H torsion
[ 10718 10713 10712 10709 ] final  156.47 input   66.30 | X-H torsion
[ 10763 10752 10751 10750 ] final  153.34 input  -60.55 | X-H torsion
[ 11005 11000 10999 10996 ] final  -38.12 input  -57.11 | X-H torsion

> <Gold.Protein.ActiveResidues>
 VAL166  LYS551  ARG553  GLY616  TRP617  ASP618  TYR619  PRO620  LYS621  CYS622 
 ASP623  PHE694  ASN695  SER759  ASP760  ASP761  ALA762  ILE779  LEU786  VAL792 
 PHE793  MET794  SER795  GLU796  ALA797  LYS798  CYS799  TRP800  GLU811  SER814 

> <Gold.Protein.RotatedAtoms>
  150.7295  134.5566  159.5820 H   0  0  0  0  0  0  0  0  0  0  0  0  # atno 6907 bound_to 6896
  152.3040  134.7574  160.0360 H   0  0  0  0  0  0  0  0  0  0  0  0  # atno 6908 bound_to 6896
  151.8145  133.3350  159.3602 H   0  0  0  0  0  0  0  0  0  0  0  0  # atno 6909 bound_to 6896
  145.1316  139.3324  143.4662 H   0  0  0  0  0  0  0  0  0  0  0  0  # atno 7974 bound_to 7965
  155.0250  140.3152  155.4779 H   0  0  0  0  0  0  0  0  0  0  0  0  # atno 8008 bound_to 7997
  156.2885  140.2190  156.5311 H   0  0  0  0  0  0  0  0  0  0  0  0  # atno 8009 bound_to 7997
  154.7419  140.0473  157.0807 H   0  0  0  0  0  0  0  0  0  0  0  0  # atno 8010 bound_to 7997
  139.5273  144.2739  152.0604 H   0  0  0  0  0  0  0  0  0  0  0  0  # atno 10167 bound_to 10162
  157.2045  131.0684  151.2006 H   0  0  0  0  0  0  0  0  0  0  0  0  # atno 10718 bound_to 10713
  154.1346  135.2824  155.3176 H   0  0  0  0  0  0  0  0  0  0  0  0  # atno 10763 bound_to 10752
  154.6331  135.5428  153.7706 H   0  0  0  0  0  0  0  0  0  0  0  0  # atno 10764 bound_to 10752
  153.0270  135.6467  154.1495 H   0  0  0  0  0  0  0  0  0  0  0  0  # atno 10765 bound_to 10752
  141.0003  133.6959  156.2011 H   0  0  0  0  0  0  0  0  0  0  0  0  # atno 11005 bound_to 11000
  146.3513  140.1317  142.8597 LP  0  0  0  0  0  0  0  0  0  0  0  0  # atno 17320 bound_to 7965
  145.0629  140.9101  143.4928 LP  0  0  0  0  0  0  0  0  0  0  0  0  # atno 17321 bound_to 7965
  140.2197  144.4479  150.6347 LP  0  0  0  0  0  0  0  0  0  0  0  0  # atno 17342 bound_to 10162
  140.6426  143.2207  151.6256 LP  0  0  0  0  0  0  0  0  0  0  0  0  # atno 17343 bound_to 10162
  157.3734  130.7193  149.6580 LP  0  0  0  0  0  0  0  0  0  0  0  0  # atno 17370 bound_to 10713
  155.9697  130.4192  150.4366 LP  0  0  0  0  0  0  0  0  0  0  0  0  # atno 17371 bound_to 10713
  140.6899  134.4677  157.5588 LP  0  0  0  0  0  0  0  0  0  0  0  0  # atno 17394 bound_to 11000
  139.9035  134.8501  156.1797 LP  0  0  0  0  0  0  0  0  0  0  0  0  # atno 17395 bound_to 11000

$$$$
