AV-unprocessed.smi:295|AV-procd|sdf|2254|dock1
  -GOLD-   2262022143D 1   1.00000     0.00000
 Structure written by MMmdl.
 35 36  0  0  0  0  0  0  0  0  1 V2000
  153.0494  141.1085  159.9832 C   0  0  0  0  0  0  0  0  0  0  0  0
  152.6648  142.5629  159.6538 C   0  0  2  0  0  0  0  0  0  0  0  0
  152.5007  143.3895  160.9449 C   0  0  0  0  0  0  0  0  0  0  0  0
  152.1306  144.8498  160.6441 C   0  0  0  0  0  0  0  0  0  0  0  0
  150.8569  144.9320  159.7913 C   0  0  0  0  0  0  0  0  0  0  0  0
  151.0088  144.1234  158.4949 C   0  0  0  0  0  0  0  0  0  0  0  0
  151.3875  142.6568  158.7829 C   0  0  1  0  0  0  0  0  0  0  0  0
  151.5889  141.9444  157.5252 N   0  0  0  0  0  0  0  0  0  0  0  0
  150.6438  141.2974  156.8260 C   0  0  0  0  0  0  0  0  0  0  0  0
  149.4505  141.3013  157.1258 O   0  0  0  0  0  0  0  0  0  0  0  0
  151.1263  140.5106  155.6063 C   0  0  0  0  0  0  0  0  0  0  0  0
  151.8144  139.2975  156.0124 N   0  0  0  0  0  0  0  0  0  0  0  0
  152.3354  138.3076  155.2795 C   0  0  0  0  0  0  0  0  0  0  0  0
  152.8637  137.3248  155.9983 N   0  0  0  0  0  0  0  0  0  0  0  0
  152.6126  137.8165  157.2463 C   0  0  0  0  0  0  0  0  0  0  0  0
  152.9947  137.0851  158.4421 C   0  0  0  0  0  0  0  0  0  0  0  0
  153.2984  136.5024  159.3947 N   0  0  0  0  0  0  0  0  0  0  0  0
  151.9917  138.9915  157.3215 N   0  0  0  0  0  0  0  0  0  0  0  0
  152.2473  140.5994  160.5181 H   0  0  0  0  0  0  0  0  0  0  0  0
  153.9414  141.0721  160.6090 H   0  0  0  0  0  0  0  0  0  0  0  0
  153.2662  140.5327  159.0829 H   0  0  0  0  0  0  0  0  0  0  0  0
  153.4917  142.9972  159.0892 H   0  0  0  0  0  0  0  0  0  0  0  0
  151.7292  142.9417  161.5729 H   0  0  0  0  0  0  0  0  0  0  0  0
  153.4236  143.3617  161.5254 H   0  0  0  0  0  0  0  0  0  0  0  0
  151.9898  145.3975  161.5763 H   0  0  0  0  0  0  0  0  0  0  0  0
  152.9547  145.3362  160.1205 H   0  0  0  0  0  0  0  0  0  0  0  0
  150.0081  144.5527  160.3618 H   0  0  0  0  0  0  0  0  0  0  0  0
  150.6327  145.9729  159.5568 H   0  0  0  0  0  0  0  0  0  0  0  0
  150.0783  144.1662  157.9274 H   0  0  0  0  0  0  0  0  0  0  0  0
  151.7730  144.5868  157.8691 H   0  0  0  0  0  0  0  0  0  0  0  0
  150.5691  142.1912  159.3359 H   0  0  0  0  0  0  0  0  0  0  0  0
  152.5392  141.8870  157.1883 H   0  0  0  0  0  0  0  0  0  0  0  0
  150.2803  140.2390  154.9735 H   0  0  0  0  0  0  0  0  0  0  0  0
  151.7962  141.1282  155.0060 H   0  0  0  0  0  0  0  0  0  0  0  0
  152.3172  138.3013  154.1994 H   0  0  0  0  0  0  0  0  0  0  0  0
  1  2  1  0  0  0  0
  1 19  1  0  0  0  0
  1 20  1  0  0  0  0
  1 21  1  0  0  0  0
  2  7  1  0  0  0  0
  2  3  1  0  0  0  0
  2 22  1  0  0  0  0
  3  4  1  0  0  0  0
  3 23  1  0  0  0  0
  3 24  1  0  0  0  0
  4  5  1  0  0  0  0
  4 25  1  0  0  0  0
  4 26  1  0  0  0  0
  5  6  1  0  0  0  0
  5 27  1  0  0  0  0
  5 28  1  0  0  0  0
  6  7  1  0  0  0  0
  6 29  1  0  0  0  0
  6 30  1  0  0  0  0
  7  8  1  0  0  0  0
  7 31  1  0  0  0  0
  8  9  1  0  0  0  0
  8 32  1  0  0  0  0
  9 10  2  0  0  0  0
  9 11  1  0  0  0  0
 11 12  1  0  0  0  0
 11 33  1  0  0  0  0
 11 34  1  0  0  0  0
 12 18  1  0  0  0  0
 12 13  1  0  0  0  0
 13 14  2  0  0  0  0
 13 35  1  0  0  0  0
 14 15  1  0  0  0  0
 15 16  1  0  0  0  0
 15 18  2  0  0  0  0
 16 17  3  0  0  0  0
M  END
> <s_m_source_file>
AV-unprocessed.smi

> <i_m_source_file_index>
295

> <i_lp_mmshare_version>
43012

> <i_f3d_flags>
0

> <s_epik_input>
W0NIM11bQ0BASF0xW0NIMl1bQ0gyXVtDSDJdW0NIMl1bQ0BIXTFbTkhdQyg9TylbQ0gyXW4yW2NIXW5jKG4yKUMjTg==

> <s_epik_cmdline>
J2VwaWtfcHl0aG9uJywgJy1waCcsICc3LjAnLCAnLXRuJywgJzgnLCAnLW1hJywgJzIwMCcsICctbWV0YWxfYmluZGluZycsICctaW1hZScsICc8aW5maWxlLm1hZT4nLCAnLW9tYWUnLCAnPG91dGZpbGUubWFlPic=

> <r_lp_tautomer_probability>
1

> <r_epik_Ionization_Penalty>
5.31112e-08

> <r_epik_Ionization_Penalty_Charging>
0

> <r_epik_Ionization_Penalty_Neutral>
5.31112e-08

> <r_epik_State_Penalty>
-0

> <r_epik_Charging_Adjusted_Penalty>
0

> <i_epik_Tot_Q>
0

> <i_epik_Tot_abs_Q>
0

> <r_epik_Metal_State_Penalty>
-0

> <b_epik_Metal_Only>
0

> <s_lp_Force_Field>
OPLS_2005

> <r_lp_Energy>
13.1712

> <b_lp_Chiralities_Consistent>
1

> <s_lp_Variant>
AV-unprocessed.smi:295-1

> <Gold.Version>
5.8.1

> <Gold.Id.Protein>
6NUR|6NUR_protein|mol2

> <Gold.PLP.Fitness>
39.6791

> <Gold.PLP.PLP>
-36.0209

> <Gold.PLP.part.hbond>
-2.0000

> <Gold.PLP.part.metal>
0.0000

> <Gold.PLP.part.buried>
-4.1483

> <Gold.PLP.part.nonpolar>
-30.1407

> <Gold.PLP.part.repulsive>
0.1312

> <Gold.PLP.ligand.clash>
0.0000

> <Gold.PLP.ligand.torsion>
0.5484

> <Gold.PLP.Chemscore.Hbond>
1.5824

> <Gold.PLP.Chemscore.CHOScore>
0.0000

> <Gold.PLP.Chemscore.Metal>
0.0000

> <Gold.Chemscore.Hbonds>
donor molecule, donor type, donor heavy atom, donor atom, acceptor molecule, acceptor atom, score
      P1  H  6896  6908       L1    17  1.00
      P1  H 10752 10765       L1    14  0.58

> <Gold.PLP.Chemscore.Internal.Correction>
0.0078

> <Gold.Rescore>
     Score         DG    S(hbond)    S(metal)    S(lipo)     H(rot)  DE(clash)    DE(int)     intcor
     14.01     -15.52       1.73        0.00      78.87       1.95       0.00       1.50       ----

> <Gold.Chemscore.Fitness>
14.0124

> <Gold.Chemscore.DG>
-15.5172

> <Gold.Chemscore.ZeroCoef>
-5.4800

> <Gold.Chemscore.Hbond>
1.7350

> <Gold.Chemscore.Metal>
0.0000

> <Gold.Chemscore.Lipo>
78.8680

> <Gold.Chemscore.Internal_Hbond>
0.0000

> <Gold.Chemscore.DEClash>
0.0042

> <Gold.Chemscore.DEInternal>
1.5006

> <Gold.Chemscore.Rot>
1.9474

> <Gold.Chemscore.Internal.Correction>
   9.000000E+99

> <Gold.Chemscore.Hbonds>
donor molecule, donor type, donor heavy atom, donor atom, acceptor molecule, acceptor atom, score
      P1  H  6896  6908       L1    17  0.89
      P1  H 10752 10765       L1    14  0.54

> <Gold.Chemscore.Hbond.Weighted>
-5.7949

> <Gold.Chemscore.Metal.Weighted>
-0.0000

> <Gold.Chemscore.Lipo.Weighted>
-9.2276

> <Gold.Chemscore.Internal_Hbond.Weighted>
0.0000

> <Gold.Chemscore.DEClash.Weighted>
0.0042

> <Gold.Chemscore.DEInternal.Weighted>
1.5006

> <Gold.Chemscore.Rot.Weighted>
4.9852

> <Gold.Chemscore.Internal.Correction.Weighted>
   9.000000E+99

> <Gold.Protein.RotatedTorsions>
[ 6907 6896 6895 6894 ] final  -89.52 input  -60.11 | X-H torsion
[ 7974 7965 7964 7962 ] final  -10.52 input  175.53 | X-H torsion
[ 8008 7997 7996 7995 ] final -166.64 input   59.86 | X-H torsion
[ 10167 10162 10161 10158 ] final  -89.97 input  -65.29 | X-H torsion
[ 10718 10713 10712 10709 ] final  -18.95 input   66.30 | X-H torsion
[ 10763 10752 10751 10750 ] final -144.55 input  -60.55 | X-H torsion
[ 11005 11000 10999 10996 ] final  -70.63 input  -57.11 | X-H torsion

> <Gold.Protein.ActiveResidues>
 VAL166  LYS551  ARG553  GLY616  TRP617  ASP618  TYR619  PRO620  LYS621  CYS622 
 ASP623  PHE694  ASN695  SER759  ASP760  ASP761  ALA762  ILE779  LEU786  VAL792 
 PHE793  MET794  SER795  GLU796  ALA797  LYS798  CYS799  TRP800  GLU811  SER814 

> <Gold.Protein.RotatedAtoms>
  150.6874  134.2574  159.4535 H   0  0  0  0  0  0  0  0  0  0  0  0  # atno 6907 bound_to 6896
  152.0507  134.9653  160.0584 H   0  0  0  0  0  0  0  0  0  0  0  0  # atno 6908 bound_to 6896
  152.1118  133.4270  159.4671 H   0  0  0  0  0  0  0  0  0  0  0  0  # atno 6909 bound_to 6896
  146.2218  140.2776  142.8360 H   0  0  0  0  0  0  0  0  0  0  0  0  # atno 7974 bound_to 7965
  155.8666  140.0986  157.1578 H   0  0  0  0  0  0  0  0  0  0  0  0  # atno 8008 bound_to 7997
  154.3994  140.1355  156.4089 H   0  0  0  0  0  0  0  0  0  0  0  0  # atno 8009 bound_to 7997
  155.7797  140.3459  155.5293 H   0  0  0  0  0  0  0  0  0  0  0  0  # atno 8010 bound_to 7997
  140.3596  143.2849  151.9630 H   0  0  0  0  0  0  0  0  0  0  0  0  # atno 10167 bound_to 10162
  156.5524  130.4705  149.6445 H   0  0  0  0  0  0  0  0  0  0  0  0  # atno 10718 bound_to 10713
  154.8423  135.3437  154.6364 H   0  0  0  0  0  0  0  0  0  0  0  0  # atno 10763 bound_to 10752
  153.6974  135.6971  153.5077 H   0  0  0  0  0  0  0  0  0  0  0  0  # atno 10764 bound_to 10752
  153.2548  135.4341  155.0790 H   0  0  0  0  0  0  0  0  0  0  0  0  # atno 10765 bound_to 10752
  141.1578  133.6795  156.6783 H   0  0  0  0  0  0  0  0  0  0  0  0  # atno 11005 bound_to 11000
  144.9221  140.7880  143.5742 LP  0  0  0  0  0  0  0  0  0  0  0  0  # atno 17320 bound_to 7965
  145.2714  139.1953  143.4840 LP  0  0  0  0  0  0  0  0  0  0  0  0  # atno 17321 bound_to 7965
  139.4816  144.6005  151.7615 LP  0  0  0  0  0  0  0  0  0  0  0  0  # atno 17342 bound_to 10162
  140.5140  144.0981  150.6003 LP  0  0  0  0  0  0  0  0  0  0  0  0  # atno 17343 bound_to 10162
  156.2872  130.7104  151.1944 LP  0  0  0  0  0  0  0  0  0  0  0  0  # atno 17370 bound_to 10713
  157.7385  131.0540  150.5292 LP  0  0  0  0  0  0  0  0  0  0  0  0  # atno 17371 bound_to 10713
  140.3122  134.8076  157.4185 LP  0  0  0  0  0  0  0  0  0  0  0  0  # atno 17394 bound_to 11000
  140.1169  134.5272  155.8217 LP  0  0  0  0  0  0  0  0  0  0  0  0  # atno 17395 bound_to 11000

$$$$
