AV-unprocessed.smi:3046|AV-procd|sdf|11613|dock2
  -GOLD-   2272016593D 1   1.00000     0.00000
 Structure written by MMmdl.
 38 38  0  0  0  0  0  0  0  0  2 V2000
  142.9888  137.1336  153.1337 C   0  0  0  0  0  0  0  0  0  0  0  0
  143.5827  136.2114  152.3616 C   0  0  0  0  0  0  0  0  0  0  0  0
  145.0157  136.2894  151.8810 C   0  0  0  0  0  0  0  0  0  0  0  0
  145.7808  137.2122  152.7063 N   0  0  0  0  0  0  0  0  0  0  0  0
  146.5718  138.1822  152.2245 C   0  0  0  0  0  0  0  0  0  0  0  0
  146.7229  138.3907  151.0199 O   0  0  0  0  0  0  0  0  0  0  0  0
  147.2913  139.0538  153.2609 C   0  0  2  0  0  0  0  0  0  0  0  0
  146.8949  140.5296  153.0766 C   0  0  0  0  0  0  0  0  0  0  0  0
  148.7595  138.8819  153.1491 N   0  3  0  0  0  0  0  0  0  0  0  0
  149.5403  139.1009  154.3878 C   0  0  2  0  0  0  0  0  0  0  0  0
  148.8677  138.3510  155.5496 C   0  0  0  0  0  0  0  0  0  0  0  0
  149.6965  140.6127  154.6750 C   0  0  0  0  0  0  0  0  0  0  0  0
  150.5427  140.8913  155.8214 N   0  0  0  0  0  0  0  0  0  0  0  0
  150.8739  142.1137  156.3676 C   0  0  0  0  0  0  0  0  0  0  0  0
  151.7062  141.8744  157.4233 C   0  0  0  0  0  0  0  0  0  0  0  0
  151.8339  140.4573  157.4390 C   0  0  0  0  0  0  0  0  0  0  0  0
  151.1401  139.8721  156.4758 N   0  0  0  0  0  0  0  0  0  0  0  0
  143.5198  138.0123  153.4701 H   0  0  0  0  0  0  0  0  0  0  0  0
  141.9592  137.0204  153.4400 H   0  0  0  0  0  0  0  0  0  0  0  0
  143.0157  135.3487  152.0428 H   0  0  0  0  0  0  0  0  0  0  0  0
  145.4571  135.2935  151.9359 H   0  0  0  0  0  0  0  0  0  0  0  0
  145.0486  136.6073  150.8376 H   0  0  0  0  0  0  0  0  0  0  0  0
  145.6998  137.1076  153.7076 H   0  0  0  0  0  0  0  0  0  0  0  0
  146.9674  138.7210  154.2474 H   0  0  0  0  0  0  0  0  0  0  0  0
  145.8137  140.6602  153.1384 H   0  0  0  0  0  0  0  0  0  0  0  0
  147.2192  140.9125  152.1079 H   0  0  0  0  0  0  0  0  0  0  0  0
  147.3362  141.1633  153.8458 H   0  0  0  0  0  0  0  0  0  0  0  0
  148.9463  137.9424  152.8286 H   0  0  0  0  0  0  0  0  0  0  0  0
  150.5294  138.6624  154.2531 H   0  0  0  0  0  0  0  0  0  0  0  0
  149.4557  138.4174  156.4654 H   0  0  0  0  0  0  0  0  0  0  0  0
  148.7548  137.2915  155.3176 H   0  0  0  0  0  0  0  0  0  0  0  0
  147.8762  138.7531  155.7609 H   0  0  0  0  0  0  0  0  0  0  0  0
  150.1206  141.1342  153.8170 H   0  0  0  0  0  0  0  0  0  0  0  0
  148.7185  141.0610  154.8554 H   0  0  0  0  0  0  0  0  0  0  0  0
  150.4935  143.0416  155.9661 H   0  0  0  0  0  0  0  0  0  0  0  0
  152.1579  142.6013  158.0821 H   0  0  0  0  0  0  0  0  0  0  0  0
  152.4079  139.8412  158.1155 H   0  0  0  0  0  0  0  0  0  0  0  0
  149.0850  139.5243  152.4408 H   0  0  0  0  0  0  0  0  0  0  0  0
  1  2  2  0  0  0  0
  1 18  1  0  0  0  0
  1 19  1  0  0  0  0
  2  3  1  0  0  0  0
  2 20  1  0  0  0  0
  3  4  1  0  0  0  0
  3 21  1  0  0  0  0
  3 22  1  0  0  0  0
  4  5  1  0  0  0  0
  4 23  1  0  0  0  0
  5  6  2  0  0  0  0
  5  7  1  0  0  0  0
  7  8  1  0  0  0  0
  7  9  1  0  0  0  0
  7 24  1  0  0  0  0
  8 25  1  0  0  0  0
  8 26  1  0  0  0  0
  8 27  1  0  0  0  0
  9 10  1  0  0  0  0
  9 28  1  0  0  0  0
  9 38  1  0  0  0  0
 10 11  1  0  0  0  0
 10 12  1  0  0  0  0
 10 29  1  0  0  0  0
 11 30  1  0  0  0  0
 11 31  1  0  0  0  0
 11 32  1  0  0  0  0
 12 13  1  0  0  0  0
 12 33  1  0  0  0  0
 12 34  1  0  0  0  0
 13 17  1  0  0  0  0
 13 14  1  0  0  0  0
 14 15  2  0  0  0  0
 14 35  1  0  0  0  0
 15 16  1  0  0  0  0
 15 36  1  0  0  0  0
 16 17  2  0  0  0  0
 16 37  1  0  0  0  0
M  CHG  1   9   1
M  END
> <s_m_source_file>
AV-unprocessed.smi

> <i_m_source_file_index>
3046

> <i_lp_mmshare_version>
43012

> <i_f3d_flags>
0

> <s_epik_input>
W0NIMl09W0NIXVtDSDJdW05IXUMoPU8pW0NASF0oW0NIM10pW05IXVtDQEhdKFtDSDNdKVtDSDJdbjFbY0hdW2NIXVtjSF1uMQ==

> <s_epik_cmdline>
J2VwaWtfcHl0aG9uJywgJy1waCcsICc3LjAnLCAnLXRuJywgJzgnLCAnLW1hJywgJzIwMCcsICctbWV0YWxfYmluZGluZycsICctaW1hZScsICc8aW5maWxlLm1hZT4nLCAnLW9tYWUnLCAnPG91dGZpbGUubWFlPic=

> <r_lp_tautomer_probability>
1

> <r_epik_Ionization_Penalty>
0.132961

> <r_epik_Ionization_Penalty_Charging>
0.132956

> <r_epik_Ionization_Penalty_Neutral>
5.00268e-06

> <r_epik_State_Penalty>
0.122332

> <r_epik_Charging_Adjusted_Penalty>
0.255288

> <i_epik_Tot_Q>
1

> <i_epik_Tot_abs_Q>
1

> <r_epik_Metal_State_Penalty>
0.122338

> <b_epik_Metal_Only>
0

> <s_lp_Force_Field>
OPLS_2005

> <r_lp_Energy>
6.28532

> <b_lp_Chiralities_Consistent>
1

> <s_lp_Variant>
AV-unprocessed.smi:3046-1

> <Gold.Version>
5.8.1

> <Gold.Id.Protein>
6NUR|6NUR_protein|mol2

> <Gold.PLP.Fitness>
44.6102

> <Gold.PLP.PLP>
-30.8866

> <Gold.PLP.part.hbond>
-2.8534

> <Gold.PLP.part.metal>
0.0000

> <Gold.PLP.part.buried>
-3.6190

> <Gold.PLP.part.nonpolar>
-26.9151

> <Gold.PLP.part.repulsive>
0.4511

> <Gold.PLP.ligand.clash>
0.0000

> <Gold.PLP.ligand.torsion>
0.6504

> <Gold.PLP.Chemscore.Hbond>
3.9913

> <Gold.PLP.Chemscore.CHOScore>
1.0000

> <Gold.PLP.Chemscore.Metal>
0.0000

> <Gold.Chemscore.Hbonds>
donor molecule, donor type, donor heavy atom, donor atom, acceptor molecule, acceptor atom, score
      L1  H     9    28       P1  7948  2.00
      L1  H     9    38       P1  7957  0.86
      P1  H  7954  7966       L1     6  1.00
      L1  C    14    35       P1  8028  1.00

> <Gold.PLP.Chemscore.Internal.Correction>
0.0507

> <Gold.Rescore>
     Score         DG    S(hbond)    S(metal)    S(lipo)     H(rot)  DE(clash)    DE(int)     intcor
     15.56     -16.75       2.94        0.00      61.83       2.26       0.18       1.02       ----

> <Gold.Chemscore.Fitness>
15.5605

> <Gold.Chemscore.DG>
-16.7547

> <Gold.Chemscore.ZeroCoef>
-5.4800

> <Gold.Chemscore.Hbond>
2.9439

> <Gold.Chemscore.Metal>
0.0000

> <Gold.Chemscore.Lipo>
61.8305

> <Gold.Chemscore.Internal_Hbond>
0.0000

> <Gold.Chemscore.DEClash>
0.1774

> <Gold.Chemscore.DEInternal>
1.0167

> <Gold.Chemscore.Rot>
2.2626

> <Gold.Chemscore.Internal.Correction>
   9.000000E+99

> <Gold.Chemscore.Hbonds>
donor molecule, donor type, donor heavy atom, donor atom, acceptor molecule, acceptor atom, score
      L1  H     9    28       P1  7948  0.99
      L1  H     9    38       P1  7957  0.84
      P1  H  7954  7966       L1     6  0.97

> <Gold.Chemscore.Hbond.Weighted>
-9.8326

> <Gold.Chemscore.Metal.Weighted>
-0.0000

> <Gold.Chemscore.Lipo.Weighted>
-7.2342

> <Gold.Chemscore.Internal_Hbond.Weighted>
0.0000

> <Gold.Chemscore.DEClash.Weighted>
0.1774

> <Gold.Chemscore.DEInternal.Weighted>
1.0167

> <Gold.Chemscore.Rot.Weighted>
5.7922

> <Gold.Chemscore.Internal.Correction.Weighted>
   9.000000E+99

> <Gold.Protein.RotatedTorsions>
[ 6907 6896 6895 6894 ] final  169.69 input  -60.11 | X-H torsion
[ 7974 7965 7964 7962 ] final  171.34 input  175.53 | X-H torsion
[ 8008 7997 7996 7995 ] final  149.47 input   59.86 | X-H torsion
[ 10167 10162 10161 10158 ] final -166.63 input  -65.29 | X-H torsion
[ 10718 10713 10712 10709 ] final -103.02 input   66.30 | X-H torsion
[ 10763 10752 10751 10750 ] final -175.97 input  -60.55 | X-H torsion
[ 11005 11000 10999 10996 ] final  -55.89 input  -57.11 | X-H torsion

> <Gold.Protein.ActiveResidues>
 VAL166  LYS551  ARG553  GLY616  TRP617  ASP618  TYR619  PRO620  LYS621  CYS622 
 ASP623  PHE694  ASN695  SER759  ASP760  ASP761  ALA762  ILE779  LEU786  VAL792 
 PHE793  MET794  SER795  GLU796  ALA797  LYS798  CYS799  TRP800  GLU811  SER814 

> <Gold.Protein.RotatedAtoms>
  151.8279  133.3404  159.3604 H   0  0  0  0  0  0  0  0  0  0  0  0  # atno 6907 bound_to 6896
  150.7273  134.5511  159.5804 H   0  0  0  0  0  0  0  0  0  0  0  0  # atno 6908 bound_to 6896
  152.2958  134.7670  160.0419 H   0  0  0  0  0  0  0  0  0  0  0  0  # atno 6909 bound_to 6896
  144.7297  139.9335  143.6425 H   0  0  0  0  0  0  0  0  0  0  0  0  # atno 7974 bound_to 7965
  156.2753  140.2101  156.5864 H   0  0  0  0  0  0  0  0  0  0  0  0  # atno 8008 bound_to 7997
  154.7017  140.0520  157.0488 H   0  0  0  0  0  0  0  0  0  0  0  0  # atno 8009 bound_to 7997
  155.0725  140.3178  155.4629 H   0  0  0  0  0  0  0  0  0  0  0  0  # atno 8010 bound_to 7997
  139.6102  144.0830  152.1834 H   0  0  0  0  0  0  0  0  0  0  0  0  # atno 10167 bound_to 10162
  156.0250  130.5447  150.7192 H   0  0  0  0  0  0  0  0  0  0  0  0  # atno 10718 bound_to 10713
  154.5780  135.2833  155.0761 H   0  0  0  0  0  0  0  0  0  0  0  0  # atno 10763 bound_to 10752
  154.2108  135.6408  153.5118 H   0  0  0  0  0  0  0  0  0  0  0  0  # atno 10764 bound_to 10752
  153.0079  135.5491  154.6425 H   0  0  0  0  0  0  0  0  0  0  0  0  # atno 10765 bound_to 10752
  141.1095  133.6611  156.4538 H   0  0  0  0  0  0  0  0  0  0  0  0  # atno 11005 bound_to 11000
  146.0839  139.3827  143.0447 LP  0  0  0  0  0  0  0  0  0  0  0  0  # atno 17320 bound_to 7965
  145.7803  140.9859  143.1102 LP  0  0  0  0  0  0  0  0  0  0  0  0  # atno 17321 bound_to 7965
  140.0447  144.5980  150.7383 LP  0  0  0  0  0  0  0  0  0  0  0  0  # atno 17342 bound_to 10162
  140.7313  143.2693  151.3940 LP  0  0  0  0  0  0  0  0  0  0  0  0  # atno 17343 bound_to 10162
  157.4812  131.0902  151.0534 LP  0  0  0  0  0  0  0  0  0  0  0  0  # atno 17370 bound_to 10713
  157.0967  130.5965  149.5451 LP  0  0  0  0  0  0  0  0  0  0  0  0  # atno 17371 bound_to 10713
  140.4813  134.6662  157.5172 LP  0  0  0  0  0  0  0  0  0  0  0  0  # atno 17394 bound_to 11000
  139.9981  134.6879  155.9575 LP  0  0  0  0  0  0  0  0  0  0  0  0  # atno 17395 bound_to 11000

$$$$
