AV-unprocessed.smi:2829|AV-procd|sdf|10904|dock2
  -GOLD-   2272015353D 1   1.00000     0.00000
 Structure written by MMmdl.
 50 53  0  0  0  0  0  0  0  0  1 V2000
  143.7836  132.6989  148.7364 C   0  0  0  0  0  0  0  0  0  0  0  0
  144.6766  132.5807  149.9889 C   0  0  0  0  0  0  0  0  0  0  0  0
  143.9981  131.6710  151.0343 C   0  0  0  0  0  0  0  0  0  0  0  0
  145.9915  131.8919  149.5585 C   0  0  0  0  0  0  0  0  0  0  0  0
  144.9149  133.9776  150.5897 C   0  0  0  0  0  0  0  0  0  0  0  0
  146.1955  134.4578  150.9453 C   0  0  0  0  0  0  0  0  0  0  0  0
  146.2828  135.7542  151.4788 C   0  0  0  0  0  0  0  0  0  0  0  0
  145.0971  136.5002  151.6285 C   0  0  0  0  0  0  0  0  0  0  0  0
  145.2663  137.8025  152.1637 N   0  0  0  0  0  0  0  0  0  0  0  0
  146.3929  138.5370  152.2377 C   0  0  0  0  0  0  0  0  0  0  0  0
  147.4753  138.2128  151.7525 O   0  0  0  0  0  0  0  0  0  0  0  0
  146.2401  139.7031  152.8892 N   0  0  0  0  0  0  0  0  0  0  0  0
  147.2622  140.7191  153.1391 C   0  0  2  0  0  0  0  0  0  0  0  0
  148.2617  140.2911  154.2155 C   0  0  1  0  0  0  0  0  0  0  0  0
  149.6963  139.9046  154.1994 C   0  0  0  0  0  0  0  0  0  0  0  0
  150.1475  140.7253  155.4345 C   0  0  0  0  0  0  0  0  0  0  0  0
  149.0219  141.5688  155.7803 O   0  0  0  0  0  0  0  0  0  0  0  0
  148.3469  141.7714  154.5535 C   0  0  2  0  0  0  0  0  0  0  0  0
  146.8521  141.7922  154.2021 C   0  0  0  0  0  0  0  0  0  0  0  0
  146.1566  143.1069  153.8276 C   0  0  0  0  0  0  0  0  0  0  0  0
  145.4991  143.0930  155.2119 C   0  0  0  0  0  0  0  0  0  0  0  0
  145.7695  141.5863  155.2783 C   0  0  0  0  0  0  0  0  0  0  0  0
  143.8990  135.9764  151.2681 N   0  0  0  0  0  0  0  0  0  0  0  0
  143.8093  134.7435  150.7604 N   0  0  0  0  0  0  0  0  0  0  0  0
  143.6134  131.7252  148.2757 H   0  0  0  0  0  0  0  0  0  0  0  0
  144.2410  133.3432  147.9846 H   0  0  0  0  0  0  0  0  0  0  0  0
  142.8045  133.1161  148.9745 H   0  0  0  0  0  0  0  0  0  0  0  0
  143.0266  132.0601  151.3411 H   0  0  0  0  0  0  0  0  0  0  0  0
  144.6115  131.5744  151.9309 H   0  0  0  0  0  0  0  0  0  0  0  0
  143.8315  130.6678  150.6401 H   0  0  0  0  0  0  0  0  0  0  0  0
  145.8002  130.9051  149.1352 H   0  0  0  0  0  0  0  0  0  0  0  0
  146.6676  131.7505  150.4025 H   0  0  0  0  0  0  0  0  0  0  0  0
  146.5180  132.4679  148.7968 H   0  0  0  0  0  0  0  0  0  0  0  0
  147.0948  133.8749  150.8217 H   0  0  0  0  0  0  0  0  0  0  0  0
  147.2411  136.1646  151.7627 H   0  0  0  0  0  0  0  0  0  0  0  0
  144.4436  138.2089  152.5836 H   0  0  0  0  0  0  0  0  0  0  0  0
  145.3084  139.9254  153.2092 H   0  0  0  0  0  0  0  0  0  0  0  0
  147.7411  141.1259  152.2443 H   0  0  0  0  0  0  0  0  0  0  0  0
  147.7404  139.7222  154.9945 H   0  0  0  0  0  0  0  0  0  0  0  0
  149.8483  138.8328  154.3295 H   0  0  0  0  0  0  0  0  0  0  0  0
  150.1964  140.2302  153.2863 H   0  0  0  0  0  0  0  0  0  0  0  0
  150.4000  140.0853  156.2804 H   0  0  0  0  0  0  0  0  0  0  0  0
  151.0205  141.3347  155.1975 H   0  0  0  0  0  0  0  0  0  0  0  0
  148.9517  142.3527  153.8493 H   0  0  0  0  0  0  0  0  0  0  0  0
  146.8288  143.9473  153.6521 H   0  0  0  0  0  0  0  0  0  0  0  0
  145.4313  142.9960  153.0215 H   0  0  0  0  0  0  0  0  0  0  0  0
  146.0686  143.6548  155.9538 H   0  0  0  0  0  0  0  0  0  0  0  0
  144.4439  143.3673  155.2185 H   0  0  0  0  0  0  0  0  0  0  0  0
  144.9190  140.9972  154.9318 H   0  0  0  0  0  0  0  0  0  0  0  0
  146.1382  141.2345  156.2423 H   0  0  0  0  0  0  0  0  0  0  0  0
  1  2  1  0  0  0  0
  1 25  1  0  0  0  0
  1 26  1  0  0  0  0
  1 27  1  0  0  0  0
  2  3  1  0  0  0  0
  2  4  1  0  0  0  0
  2  5  1  0  0  0  0
  3 28  1  0  0  0  0
  3 29  1  0  0  0  0
  3 30  1  0  0  0  0
  4 31  1  0  0  0  0
  4 32  1  0  0  0  0
  4 33  1  0  0  0  0
  5 24  1  0  0  0  0
  5  6  2  0  0  0  0
  6  7  1  0  0  0  0
  6 34  1  0  0  0  0
  7  8  2  0  0  0  0
  7 35  1  0  0  0  0
  8  9  1  0  0  0  0
  8 23  1  0  0  0  0
  9 10  1  0  0  0  0
  9 36  1  0  0  0  0
 10 11  2  0  0  0  0
 10 12  1  0  0  0  0
 12 13  1  0  0  0  0
 12 37  1  0  0  0  0
 13 19  1  0  0  0  0
 13 14  1  0  0  0  0
 13 38  1  0  0  0  0
 14 18  1  0  0  0  0
 14 15  1  0  0  0  0
 14 39  1  0  0  0  0
 15 16  1  0  0  0  0
 15 40  1  0  0  0  0
 15 41  1  0  0  0  0
 16 17  1  0  0  0  0
 16 42  1  0  0  0  0
 16 43  1  0  0  0  0
 17 18  1  0  0  0  0
 18 19  1  0  0  0  0
 18 44  1  0  0  0  0
 19 22  1  0  0  0  0
 19 20  1  0  0  0  0
 20 21  1  0  0  0  0
 20 45  1  0  0  0  0
 20 46  1  0  0  0  0
 21 22  1  0  0  0  0
 21 47  1  0  0  0  0
 21 48  1  0  0  0  0
 22 49  1  0  0  0  0
 22 50  1  0  0  0  0
 23 24  2  0  0  0  0
M  END
> <s_m_source_file>
AV-unprocessed.smi

> <i_m_source_file_index>
2829

> <i_lp_mmshare_version>
43012

> <i_f3d_flags>
0

> <s_epik_input>
W0NIM11DKFtDSDNdKShbQ0gzXSljMVtjSF1bY0hdYyhubjEpW05IXUMoPU8pW05IXVtDQEBIXTJbQ0BIXShbQ0gyXVtDSDJdTzMpW0NAQEhdM0MyNFtDSDJdW0NIMl1bQ0gyXTQ=

> <s_epik_cmdline>
J2VwaWtfcHl0aG9uJywgJy1waCcsICc3LjAnLCAnLXRuJywgJzgnLCAnLW1hJywgJzIwMCcsICctbWV0YWxfYmluZGluZycsICctaW1hZScsICc8aW5maWxlLm1hZT4nLCAnLW9tYWUnLCAnPG91dGZpbGUubWFlPic=

> <r_lp_tautomer_probability>
1

> <r_epik_Ionization_Penalty>
0.011915

> <r_epik_Ionization_Penalty_Charging>
0

> <r_epik_Ionization_Penalty_Neutral>
0.011915

> <r_epik_State_Penalty>
0.00486223

> <r_epik_Charging_Adjusted_Penalty>
0.00486223

> <i_epik_Tot_Q>
0

> <i_epik_Tot_abs_Q>
0

> <r_epik_Metal_State_Penalty>
-0

> <b_epik_Metal_Only>
0

> <s_lp_Force_Field>
OPLS_2005

> <r_lp_Energy>
82.9542

> <b_lp_Chiralities_Consistent>
1

> <s_lp_Variant>
AV-unprocessed.smi:2829-7

> <Gold.Version>
5.8.1

> <Gold.Id.Protein>
6NUR|6NUR_protein|mol2

> <Gold.PLP.Fitness>
46.1032

> <Gold.PLP.PLP>
-41.3982

> <Gold.PLP.part.hbond>
-3.8981

> <Gold.PLP.part.metal>
0.0000

> <Gold.PLP.part.buried>
-0.2144

> <Gold.PLP.part.nonpolar>
-45.4774

> <Gold.PLP.part.repulsive>
8.6075

> <Gold.PLP.ligand.clash>
0.1362

> <Gold.PLP.ligand.torsion>
0.6043

> <Gold.PLP.Chemscore.Hbond>
1.9084

> <Gold.PLP.Chemscore.CHOScore>
0.0000

> <Gold.PLP.Chemscore.Metal>
0.0000

> <Gold.Chemscore.Hbonds>
donor molecule, donor type, donor heavy atom, donor atom, acceptor molecule, acceptor atom, score
      L1  H     9    36       P1 10175  0.09
      L1  H    12    37       P1 10175  0.75
      P1  H  7954  7966       L1    11  1.00

> <Gold.PLP.Chemscore.Internal.Correction>
0.3246

> <Gold.Rescore>
     Score         DG    S(hbond)    S(metal)    S(lipo)     H(rot)  DE(clash)    DE(int)     intcor
     14.69     -23.68       2.19        0.00     118.43       1.16       6.75       2.24       ----

> <Gold.Chemscore.Fitness>
14.6920

> <Gold.Chemscore.DG>
-23.6793

> <Gold.Chemscore.ZeroCoef>
-5.4800

> <Gold.Chemscore.Hbond>
2.1909

> <Gold.Chemscore.Metal>
0.0000

> <Gold.Chemscore.Lipo>
118.4270

> <Gold.Chemscore.Internal_Hbond>
0.0000

> <Gold.Chemscore.DEClash>
6.7457

> <Gold.Chemscore.DEInternal>
2.2416

> <Gold.Chemscore.Rot>
1.1618

> <Gold.Chemscore.Internal.Correction>
   9.000000E+99

> <Gold.Chemscore.Hbonds>
donor molecule, donor type, donor heavy atom, donor atom, acceptor molecule, acceptor atom, score
      L1  H     9    36       P1 10175  0.10
      L1  H    12    37       P1 10175  0.76
      P1  H  7954  7966       L1    11  0.95

> <Gold.Chemscore.Hbond.Weighted>
-7.3175

> <Gold.Chemscore.Metal.Weighted>
-0.0000

> <Gold.Chemscore.Lipo.Weighted>
-13.8560

> <Gold.Chemscore.Internal_Hbond.Weighted>
0.0000

> <Gold.Chemscore.DEClash.Weighted>
6.7457

> <Gold.Chemscore.DEInternal.Weighted>
2.2416

> <Gold.Chemscore.Rot.Weighted>
2.9741

> <Gold.Chemscore.Internal.Correction.Weighted>
   9.000000E+99

> <Gold.Protein.RotatedTorsions>
[ 6907 6896 6895 6894 ] final   14.93 input  -60.11 | X-H torsion
[ 7974 7965 7964 7962 ] final  -55.99 input  175.53 | X-H torsion
[ 8008 7997 7996 7995 ] final -102.35 input   59.86 | X-H torsion
[ 10167 10162 10161 10158 ] final  101.96 input  -65.29 | X-H torsion
[ 10718 10713 10712 10709 ] final  154.39 input   66.30 | X-H torsion
[ 10763 10752 10751 10750 ] final  -66.85 input  -60.55 | X-H torsion
[ 11005 11000 10999 10996 ] final  -23.35 input  -57.11 | X-H torsion

> <Gold.Protein.ActiveResidues>
 VAL166  LYS551  ARG553  GLY616  TRP617  ASP618  TYR619  PRO620  LYS621  CYS622 
 ASP623  PHE694  ASN695  SER759  ASP760  ASP761  ALA762  ILE779  LEU786  VAL792 
 PHE793  MET794  SER795  GLU796  ALA797  LYS798  CYS799  TRP800  GLU811  SER814 

> <Gold.Protein.RotatedAtoms>
  151.8101  135.0683  160.0411 H   0  0  0  0  0  0  0  0  0  0  0  0  # atno 6907 bound_to 6896
  152.3027  133.5667  159.5637 H   0  0  0  0  0  0  0  0  0  0  0  0  # atno 6908 bound_to 6896
  150.7281  134.0184  159.3735 H   0  0  0  0  0  0  0  0  0  0  0  0  # atno 6909 bound_to 6896
  145.8679  140.8238  142.9903 H   0  0  0  0  0  0  0  0  0  0  0  0  # atno 7974 bound_to 7965
  154.8554  140.0429  157.1631 H   0  0  0  0  0  0  0  0  0  0  0  0  # atno 8008 bound_to 7997
  154.8898  140.2985  155.5357 H   0  0  0  0  0  0  0  0  0  0  0  0  # atno 8009 bound_to 7997
  156.2997  140.2395  156.3912 H   0  0  0  0  0  0  0  0  0  0  0  0  # atno 8010 bound_to 7997
  139.7392  144.7016  151.0602 H   0  0  0  0  0  0  0  0  0  0  0  0  # atno 10167 bound_to 10162
  157.2323  131.0741  151.1845 H   0  0  0  0  0  0  0  0  0  0  0  0  # atno 10718 bound_to 10713
  154.3658  135.6106  153.5714 H   0  0  0  0  0  0  0  0  0  0  0  0  # atno 10763 bound_to 10752
  152.9792  135.5826  154.4580 H   0  0  0  0  0  0  0  0  0  0  0  0  # atno 10764 bound_to 10752
  154.4325  135.2848  155.1880 H   0  0  0  0  0  0  0  0  0  0  0  0  # atno 10765 bound_to 10752
  140.8743  133.7698  156.0224 H   0  0  0  0  0  0  0  0  0  0  0  0  # atno 11005 bound_to 11000
  144.6726  140.1194  143.7450 LP  0  0  0  0  0  0  0  0  0  0  0  0  # atno 17320 bound_to 7965
  145.9172  139.2523  143.1403 LP  0  0  0  0  0  0  0  0  0  0  0  0  # atno 17321 bound_to 7965
  140.7783  143.4946  150.9849 LP  0  0  0  0  0  0  0  0  0  0  0  0  # atno 17342 bound_to 10162
  139.8634  143.7285  152.3172 LP  0  0  0  0  0  0  0  0  0  0  0  0  # atno 17343 bound_to 10162
  157.3465  130.7060  149.6414 LP  0  0  0  0  0  0  0  0  0  0  0  0  # atno 17370 bound_to 10713
  155.9674  130.4265  150.4700 LP  0  0  0  0  0  0  0  0  0  0  0  0  # atno 17371 bound_to 10713
  140.8536  134.2924  157.5265 LP  0  0  0  0  0  0  0  0  0  0  0  0  # atno 17394 bound_to 11000
  139.8714  134.9481  156.3987 LP  0  0  0  0  0  0  0  0  0  0  0  0  # atno 17395 bound_to 11000

$$$$
