AV-unprocessed.smi:767|AV-procd|sdf|3667|dock6
  -GOLD-   22720 1 73D 1   1.00000     0.00000
 Structure written by MMmdl.
 48 50  0  0  0  0  0  0  0  0  2 V2000
  143.6082  132.0451  150.2524 C   0  0  0  0  0  0  0  0  0  0  0  0
  144.1849  133.3543  150.7478 C   0  0  0  0  0  0  0  0  0  0  0  0
  145.4943  133.4516  151.2648 C   0  0  0  0  0  0  0  0  0  0  0  0
  145.9680  134.7040  151.7061 C   0  0  0  0  0  0  0  0  0  0  0  0
  145.1264  135.8347  151.6179 C   0  0  0  0  0  0  0  0  0  0  0  0
  145.6201  137.2020  152.0601 C   0  0  0  0  0  0  0  0  0  0  0  0
  145.9181  137.2938  153.5712 C   0  0  0  0  0  0  0  0  0  0  0  0
  147.3382  137.4565  153.8702 N   0  0  0  0  0  0  0  0  0  0  0  0
  147.8356  137.9730  155.0020 C   0  0  0  0  0  0  0  0  0  0  0  0
  147.1469  138.3866  155.9344 O   0  0  0  0  0  0  0  0  0  0  0  0
  149.1743  137.9608  155.0029 N   0  0  0  0  0  0  0  0  0  0  0  0
  150.0149  138.4258  156.1074 C   0  0  2  0  0  0  0  0  0  0  0  0
  149.8177  139.9277  156.4167 C   0  0  2  0  0  0  0  0  0  0  0  0
  148.6938  140.7459  155.8287 C   0  0  0  0  0  0  0  0  0  0  0  0
  149.3581  141.4176  154.6227 C   0  0  0  0  0  0  0  0  0  0  0  0
  150.5002  140.6118  154.3387 O   0  0  0  0  0  0  0  0  0  0  0  0
  151.0598  140.1983  155.5837 C   0  0  2  0  0  0  0  0  0  0  0  0
  151.4828  138.7188  155.6905 C   0  0  0  0  0  0  0  0  0  0  0  0
  152.5120  138.4422  156.7905 C   0  0  0  0  0  0  0  0  0  0  0  0
  152.0401  138.0792  154.4121 C   0  0  0  0  0  0  0  0  0  0  0  0
  143.8241  135.6757  151.0988 C   0  0  0  0  0  0  0  0  0  0  0  0
  143.4063  134.4581  150.6883 N   0  3  0  0  0  0  0  0  0  0  0  0
  144.4005  131.3266  150.0397 H   0  0  0  0  0  0  0  0  0  0  0  0
  143.0356  132.1977  149.3371 H   0  0  0  0  0  0  0  0  0  0  0  0
  142.9478  131.6144  151.0052 H   0  0  0  0  0  0  0  0  0  0  0  0
  146.1312  132.5806  151.3200 H   0  0  0  0  0  0  0  0  0  0  0  0
  146.9708  134.7953  152.0979 H   0  0  0  0  0  0  0  0  0  0  0  0
  146.5172  137.4534  151.4934 H   0  0  0  0  0  0  0  0  0  0  0  0
  144.8763  137.9522  151.7885 H   0  0  0  0  0  0  0  0  0  0  0  0
  145.4045  138.1609  153.9872 H   0  0  0  0  0  0  0  0  0  0  0  0
  145.5199  136.4220  154.0926 H   0  0  0  0  0  0  0  0  0  0  0  0
  147.9902  137.1456  153.1648 H   0  0  0  0  0  0  0  0  0  0  0  0
  149.6521  137.5928  154.1931 H   0  0  0  0  0  0  0  0  0  0  0  0
  149.9367  137.8091  157.0044 H   0  0  0  0  0  0  0  0  0  0  0  0
  150.0029  140.1330  157.4722 H   0  0  0  0  0  0  0  0  0  0  0  0
  147.8493  140.1277  155.5252 H   0  0  0  0  0  0  0  0  0  0  0  0
  148.3146  141.4888  156.5308 H   0  0  0  0  0  0  0  0  0  0  0  0
  148.6935  141.4888  153.7616 H   0  0  0  0  0  0  0  0  0  0  0  0
  149.6909  142.4240  154.8809 H   0  0  0  0  0  0  0  0  0  0  0  0
  151.7412  140.9293  156.0219 H   0  0  0  0  0  0  0  0  0  0  0  0
  153.4837  138.8742  156.5490 H   0  0  0  0  0  0  0  0  0  0  0  0
  152.6548  137.3721  156.9441 H   0  0  0  0  0  0  0  0  0  0  0  0
  152.2031  138.8652  157.7468 H   0  0  0  0  0  0  0  0  0  0  0  0
  153.0331  138.4615  154.1743 H   0  0  0  0  0  0  0  0  0  0  0  0
  151.4120  138.2789  153.5441 H   0  0  0  0  0  0  0  0  0  0  0  0
  152.1209  136.9966  154.5132 H   0  0  0  0  0  0  0  0  0  0  0  0
  143.1114  136.4806  150.9926 H   0  0  0  0  0  0  0  0  0  0  0  0
  142.4617  134.3680  150.3134 H   0  0  0  0  0  0  0  0  0  0  0  0
  1  2  1  0  0  0  0
  1 23  1  0  0  0  0
  1 24  1  0  0  0  0
  1 25  1  0  0  0  0
  2 22  1  0  0  0  0
  2  3  2  0  0  0  0
  3  4  1  0  0  0  0
  3 26  1  0  0  0  0
  4  5  2  0  0  0  0
  4 27  1  0  0  0  0
  5  6  1  0  0  0  0
  5 21  1  0  0  0  0
  6  7  1  0  0  0  0
  6 28  1  0  0  0  0
  6 29  1  0  0  0  0
  7  8  1  0  0  0  0
  7 30  1  0  0  0  0
  7 31  1  0  0  0  0
  8  9  1  0  0  0  0
  8 32  1  0  0  0  0
  9 10  2  0  0  0  0
  9 11  1  0  0  0  0
 11 12  1  0  0  0  0
 11 33  1  0  0  0  0
 12 18  1  0  0  0  0
 12 13  1  0  0  0  0
 12 34  1  0  0  0  0
 13 17  1  0  0  0  0
 13 14  1  0  0  0  0
 13 35  1  0  0  0  0
 14 15  1  0  0  0  0
 14 36  1  0  0  0  0
 14 37  1  0  0  0  0
 15 16  1  0  0  0  0
 15 38  1  0  0  0  0
 15 39  1  0  0  0  0
 16 17  1  0  0  0  0
 17 18  1  0  0  0  0
 17 40  1  0  0  0  0
 18 19  1  0  0  0  0
 18 20  1  0  0  0  0
 19 41  1  0  0  0  0
 19 42  1  0  0  0  0
 19 43  1  0  0  0  0
 20 44  1  0  0  0  0
 20 45  1  0  0  0  0
 20 46  1  0  0  0  0
 21 22  2  0  0  0  0
 21 47  1  0  0  0  0
 22 48  1  0  0  0  0
M  CHG  1  22   1
M  END
> <s_m_source_file>
AV-unprocessed.smi

> <i_m_source_file_index>
767

> <i_lp_mmshare_version>
43012

> <i_f3d_flags>
0

> <s_epik_input>
W0NIM11jMVtjSF1bY0hdYyhbY0hdbjEpW0NIMl1bQ0gyXVtOSF1DKD1PKVtOSF1bQ0BIXTJDKFtDSDNdKShbQ0gzXSlbQ0BIXShbQ0BASF0yMylPW0NIMl1bQ0gyXTM=

> <s_epik_cmdline>
J2VwaWtfcHl0aG9uJywgJy1waCcsICc3LjAnLCAnLXRuJywgJzgnLCAnLW1hJywgJzIwMCcsICctbWV0YWxfYmluZGluZycsICctaW1hZScsICc8aW5maWxlLm1hZT4nLCAnLW9tYWUnLCAnPG91dGZpbGUubWFlPic=

> <r_epik_Ionization_Penalty>
1.41853

> <r_epik_Ionization_Penalty_Charging>
1.41848

> <r_epik_Ionization_Penalty_Neutral>
5.17407e-05

> <r_epik_State_Penalty>
1.50205

> <r_epik_Charging_Adjusted_Penalty>
2.92053

> <i_epik_Tot_Q>
1

> <i_epik_Tot_abs_Q>
1

> <r_epik_Metal_State_Penalty>
1.5544

> <b_epik_Metal_Only>
0

> <s_lp_Force_Field>
OPLS_2005

> <r_lp_Energy>
40.587

> <b_lp_Chiralities_Consistent>
1

> <s_lp_Variant>
AV-unprocessed.smi:767-11

> <Gold.Version>
5.8.1

> <Gold.Id.Protein>
6NUR|6NUR_protein|mol2

> <Gold.PLP.Fitness>
44.0331

> <Gold.PLP.PLP>
-33.5807

> <Gold.PLP.part.hbond>
-2.6167

> <Gold.PLP.part.metal>
0.0000

> <Gold.PLP.part.buried>
-4.4961

> <Gold.PLP.part.nonpolar>
-27.3443

> <Gold.PLP.part.repulsive>
0.1335

> <Gold.PLP.ligand.clash>
0.0000

> <Gold.PLP.ligand.torsion>
0.6658

> <Gold.PLP.Chemscore.Hbond>
3.8640

> <Gold.PLP.Chemscore.CHOScore>
0.0000

> <Gold.PLP.Chemscore.Metal>
0.0000

> <Gold.Chemscore.Hbonds>
donor molecule, donor type, donor heavy atom, donor atom, acceptor molecule, acceptor atom, score
      L1  H     8    32       P1  7948  1.00
      L1  H    22    48       P1 10186  2.00
      P1  H  7989  7998       L1    16  0.67

> <Gold.PLP.Chemscore.Internal.Correction>
0.1920

> <Gold.Rescore>
     Score         DG    S(hbond)    S(metal)    S(lipo)     H(rot)  DE(clash)    DE(int)     intcor
     19.91     -21.86       2.85        0.00      92.03       1.52       0.24       1.71       ----

> <Gold.Chemscore.Fitness>
19.9139

> <Gold.Chemscore.DG>
-21.8589

> <Gold.Chemscore.ZeroCoef>
-5.4800

> <Gold.Chemscore.Hbond>
2.8475

> <Gold.Chemscore.Metal>
0.0000

> <Gold.Chemscore.Lipo>
92.0315

> <Gold.Chemscore.Internal_Hbond>
0.0000

> <Gold.Chemscore.DEClash>
0.2399

> <Gold.Chemscore.DEInternal>
1.7051

> <Gold.Chemscore.Rot>
1.5233

> <Gold.Chemscore.Internal.Correction>
   9.000000E+99

> <Gold.Chemscore.Hbonds>
donor molecule, donor type, donor heavy atom, donor atom, acceptor molecule, acceptor atom, score
      L1  H     8    32       P1  7948  1.00
      L1  H    22    48       P1 10186  0.65
      P1  H  7989  7998       L1    16  0.35

> <Gold.Chemscore.Hbond.Weighted>
-9.5108

> <Gold.Chemscore.Metal.Weighted>
-0.0000

> <Gold.Chemscore.Lipo.Weighted>
-10.7677

> <Gold.Chemscore.Internal_Hbond.Weighted>
0.0000

> <Gold.Chemscore.DEClash.Weighted>
0.2399

> <Gold.Chemscore.DEInternal.Weighted>
1.7051

> <Gold.Chemscore.Rot.Weighted>
3.8995

> <Gold.Chemscore.Internal.Correction.Weighted>
   9.000000E+99

> <Gold.Protein.RotatedTorsions>
[ 6907 6896 6895 6894 ] final  139.41 input  -60.11 | X-H torsion
[ 7974 7965 7964 7962 ] final -114.08 input  175.53 | X-H torsion
[ 8008 7997 7996 7995 ] final  -78.35 input   59.86 | X-H torsion
[ 10167 10162 10161 10158 ] final -134.44 input  -65.29 | X-H torsion
[ 10718 10713 10712 10709 ] final  -93.32 input   66.30 | X-H torsion
[ 10763 10752 10751 10750 ] final  162.61 input  -60.55 | X-H torsion
[ 11005 11000 10999 10996 ] final -107.62 input  -57.11 | X-H torsion

> <Gold.Protein.ActiveResidues>
 VAL166  LYS551  ARG553  GLY616  TRP617  ASP618  TYR619  PRO620  LYS621  CYS622 
 ASP623  PHE694  ASN695  SER759  ASP760  ASP761  ALA762  ILE779  LEU786  VAL792 
 PHE793  MET794  SER795  GLU796  ALA797  LYS798  CYS799  TRP800  GLU811  SER814 

> <Gold.Protein.RotatedAtoms>
  152.2553  133.5250  159.5348 H   0  0  0  0  0  0  0  0  0  0  0  0  # atno 6907 bound_to 6896
  150.7107  134.0905  159.3939 H   0  0  0  0  0  0  0  0  0  0  0  0  # atno 6908 bound_to 6896
  151.8823  135.0448  160.0541 H   0  0  0  0  0  0  0  0  0  0  0  0  # atno 6909 bound_to 6896
  145.1244  140.8688  143.3795 H   0  0  0  0  0  0  0  0  0  0  0  0  # atno 7974 bound_to 7965
  154.5681  140.0695  156.8923 H   0  0  0  0  0  0  0  0  0  0  0  0  # atno 8008 bound_to 7997
  155.2685  140.3363  155.4249 H   0  0  0  0  0  0  0  0  0  0  0  0  # atno 8009 bound_to 7997
  156.2097  140.1754  156.7708 H   0  0  0  0  0  0  0  0  0  0  0  0  # atno 8010 bound_to 7997
  139.8880  143.6758  152.2617 H   0  0  0  0  0  0  0  0  0  0  0  0  # atno 10167 bound_to 10162
  156.0012  130.5022  150.5759 H   0  0  0  0  0  0  0  0  0  0  0  0  # atno 10718 bound_to 10713
  154.2810  135.2763  155.2697 H   0  0  0  0  0  0  0  0  0  0  0  0  # atno 10763 bound_to 10752
  154.5218  135.5754  153.6690 H   0  0  0  0  0  0  0  0  0  0  0  0  # atno 10764 bound_to 10752
  152.9929  135.6206  154.2969 H   0  0  0  0  0  0  0  0  0  0  0  0  # atno 10765 bound_to 10752
  141.0944  133.8997  157.1998 H   0  0  0  0  0  0  0  0  0  0  0  0  # atno 11005 bound_to 11000
  145.0704  139.3036  143.5835 LP  0  0  0  0  0  0  0  0  0  0  0  0  # atno 17320 bound_to 7965
  146.3518  140.0177  142.8661 LP  0  0  0  0  0  0  0  0  0  0  0  0  # atno 17321 bound_to 7965
  139.7136  144.7616  151.1072 LP  0  0  0  0  0  0  0  0  0  0  0  0  # atno 17342 bound_to 10162
  140.7732  143.5299  150.9436 LP  0  0  0  0  0  0  0  0  0  0  0  0  # atno 17343 bound_to 10162
  157.3647  131.0755  151.1608 LP  0  0  0  0  0  0  0  0  0  0  0  0  # atno 17370 bound_to 10713
  157.2381  130.6556  149.5878 LP  0  0  0  0  0  0  0  0  0  0  0  0  # atno 17371 bound_to 10713
  139.9777  135.0108  156.9673 LP  0  0  0  0  0  0  0  0  0  0  0  0  # atno 17394 bound_to 11000
  140.5175  134.0941  155.7284 LP  0  0  0  0  0  0  0  0  0  0  0  0  # atno 17395 bound_to 11000

$$$$
