AV-unprocessed.smi:1313|AV-procd|sdf|5450|dock5
  -GOLD-   22720 5 23D 1   1.00000     0.00000
 Structure written by MMmdl.
 37 38  0  0  0  0  0  0  0  0  1 V2000
  147.1325  139.6895  152.5744 C   0  0  0  0  0  0  0  0  0  0  0  0
  147.8291  139.6337  153.9174 C   0  0  0  0  0  0  0  0  0  0  0  0
  147.2087  139.5614  155.0489 N   0  0  0  0  0  0  0  0  0  0  0  0
  147.9630  139.5078  156.2293 C   0  0  0  0  0  0  0  0  0  0  0  0
  147.1596  139.4127  157.5151 C   0  0  0  0  0  0  0  0  0  0  0  0
  149.3282  139.5348  156.2084 C   0  0  0  0  0  0  0  0  0  0  0  0
  150.1789  139.4640  157.4750 C   0  0  0  0  0  0  0  0  0  0  0  0
  151.3438  140.4539  157.5283 C   0  0  0  0  0  0  0  0  0  0  0  0
  152.3975  140.1941  156.9479 O   0  0  0  0  0  0  0  0  0  0  0  0
  151.1468  141.5782  158.2339 N   0  0  0  0  0  0  0  0  0  0  0  0
  152.1420  142.6274  158.4363 C   0  0  0  0  0  0  0  0  0  0  0  0
  152.3299  142.9209  159.9369 C   0  0  0  0  0  0  0  0  0  0  0  0
  152.2865  144.4432  160.0784 C   0  0  0  0  0  0  0  0  0  0  0  0
  151.3718  144.9008  158.9467 C   0  0  0  0  0  0  0  0  0  0  0  0
  151.7059  143.9582  157.7900 C   0  0  0  0  0  0  0  0  0  0  0  0
  150.0260  139.6238  154.9108 C   0  0  0  0  0  0  0  0  0  0  0  0
  151.2482  139.6558  154.7760 O   0  0  0  0  0  0  0  0  0  0  0  0
  149.2195  139.6660  153.8267 N   0  0  0  0  0  0  0  0  0  0  0  0
  149.6496  139.7228  152.9152 H   0  0  0  0  0  0  0  0  0  0  0  0
  146.5091  138.8053  152.4390 H   0  0  0  0  0  0  0  0  0  0  0  0
  147.8469  139.7327  151.7508 H   0  0  0  0  0  0  0  0  0  0  0  0
  146.4940  140.5713  152.5192 H   0  0  0  0  0  0  0  0  0  0  0  0
  147.3810  140.2536  158.1725 H   0  0  0  0  0  0  0  0  0  0  0  0
  147.3889  138.4873  158.0433 H   0  0  0  0  0  0  0  0  0  0  0  0
  146.0878  139.4231  157.3138 H   0  0  0  0  0  0  0  0  0  0  0  0
  149.5612  139.6193  158.3603 H   0  0  0  0  0  0  0  0  0  0  0  0
  150.5613  138.4489  157.5857 H   0  0  0  0  0  0  0  0  0  0  0  0
  150.2495  141.7091  158.6782 H   0  0  0  0  0  0  0  0  0  0  0  0
  153.0954  142.3117  158.0083 H   0  0  0  0  0  0  0  0  0  0  0  0
  151.5137  142.4892  160.5187 H   0  0  0  0  0  0  0  0  0  0  0  0
  153.2582  142.5017  160.3259 H   0  0  0  0  0  0  0  0  0  0  0  0
  151.9355  144.7642  161.0594 H   0  0  0  0  0  0  0  0  0  0  0  0
  153.2859  144.8544  159.9306 H   0  0  0  0  0  0  0  0  0  0  0  0
  150.3295  144.7682  159.2400 H   0  0  0  0  0  0  0  0  0  0  0  0
  151.5148  145.9502  158.6871 H   0  0  0  0  0  0  0  0  0  0  0  0
  152.5407  144.3695  157.2212 H   0  0  0  0  0  0  0  0  0  0  0  0
  150.8701  143.8534  157.0968 H   0  0  0  0  0  0  0  0  0  0  0  0
  1  2  1  0  0  0  0
  1 20  1  0  0  0  0
  1 21  1  0  0  0  0
  1 22  1  0  0  0  0
  2 18  1  0  0  0  0
  2  3  2  0  0  0  0
  3  4  1  0  0  0  0
  4  5  1  0  0  0  0
  4  6  2  0  0  0  0
  5 23  1  0  0  0  0
  5 24  1  0  0  0  0
  5 25  1  0  0  0  0
  6  7  1  0  0  0  0
  6 16  1  0  0  0  0
  7  8  1  0  0  0  0
  7 26  1  0  0  0  0
  7 27  1  0  0  0  0
  8  9  2  0  0  0  0
  8 10  1  0  0  0  0
 10 11  1  0  0  0  0
 10 28  1  0  0  0  0
 11 15  1  0  0  0  0
 11 12  1  0  0  0  0
 11 29  1  0  0  0  0
 12 13  1  0  0  0  0
 12 30  1  0  0  0  0
 12 31  1  0  0  0  0
 13 14  1  0  0  0  0
 13 32  1  0  0  0  0
 13 33  1  0  0  0  0
 14 15  1  0  0  0  0
 14 34  1  0  0  0  0
 14 35  1  0  0  0  0
 15 36  1  0  0  0  0
 15 37  1  0  0  0  0
 16 17  2  0  0  0  0
 16 18  1  0  0  0  0
 18 19  1  0  0  0  0
M  END
> <s_m_source_file>
AV-unprocessed.smi

> <i_m_source_file_index>
1313

> <i_lp_mmshare_version>
43012

> <i_f3d_flags>
0

> <s_epik_input>
W0NIM11jMW5jKFtDSDNdKWMoYyg9TylbbkhdMSlbQ0gyXUMoPU8pW05IXVtDSF0yW0NIMl1bQ0gyXVtDSDJdW0NIMl0y

> <s_epik_cmdline>
J2VwaWtfcHl0aG9uJywgJy1waCcsICc3LjAnLCAnLXRuJywgJzgnLCAnLW1hJywgJzIwMCcsICctbWV0YWxfYmluZGluZycsICctaW1hZScsICc8aW5maWxlLm1hZT4nLCAnLW9tYWUnLCAnPG91dGZpbGUubWFlPic=

> <r_lp_tautomer_probability>
0.839158

> <r_epik_Ionization_Penalty>
0.000387683

> <r_epik_Ionization_Penalty_Charging>
0.000355009

> <r_epik_Ionization_Penalty_Neutral>
3.26746e-05

> <r_epik_State_Penalty>
0.046959

> <r_epik_Charging_Adjusted_Penalty>
0.047314

> <i_epik_Tot_Q>
0

> <i_epik_Tot_abs_Q>
0

> <r_epik_Metal_State_Penalty>
0.222879

> <b_epik_Metal_Only>
0

> <s_lp_Force_Field>
OPLS_2005

> <r_lp_Energy>
20.1617

> <b_lp_Chiralities_Consistent>
1

> <s_lp_Variant>
AV-unprocessed.smi:1313-1

> <Gold.Version>
5.8.1

> <Gold.Id.Protein>
6NUR|6NUR_protein|mol2

> <Gold.PLP.Fitness>
38.8439

> <Gold.PLP.PLP>
-30.8886

> <Gold.PLP.part.hbond>
-3.0000

> <Gold.PLP.part.metal>
0.0000

> <Gold.PLP.part.buried>
-1.5243

> <Gold.PLP.part.nonpolar>
-26.3666

> <Gold.PLP.part.repulsive>
0.3229

> <Gold.PLP.ligand.clash>
0.0000

> <Gold.PLP.ligand.torsion>
0.5235

> <Gold.PLP.Chemscore.Hbond>
3.0000

> <Gold.PLP.Chemscore.CHOScore>
0.0000

> <Gold.PLP.Chemscore.Metal>
0.0000

> <Gold.Chemscore.Hbonds>
donor molecule, donor type, donor heavy atom, donor atom, acceptor molecule, acceptor atom, score
      L1  H    18    19       P1  7957  1.00
      P1  H  7989  7998       L1    17  1.00
      P1  H  7997  8008       L1     9  1.00

> <Gold.PLP.Chemscore.Internal.Correction>
0.0024

> <Gold.Rescore>
     Score         DG    S(hbond)    S(metal)    S(lipo)     H(rot)  DE(clash)    DE(int)     intcor
     16.80     -19.76       2.84        0.00      74.02       1.51       0.26       2.69       ----

> <Gold.Chemscore.Fitness>
16.8006

> <Gold.Chemscore.DG>
-19.7573

> <Gold.Chemscore.ZeroCoef>
-5.4800

> <Gold.Chemscore.Hbond>
2.8414

> <Gold.Chemscore.Metal>
0.0000

> <Gold.Chemscore.Lipo>
74.0151

> <Gold.Chemscore.Internal_Hbond>
0.0000

> <Gold.Chemscore.DEClash>
0.2642

> <Gold.Chemscore.DEInternal>
2.6926

> <Gold.Chemscore.Rot>
1.5128

> <Gold.Chemscore.Internal.Correction>
   9.000000E+99

> <Gold.Chemscore.Hbonds>
donor molecule, donor type, donor heavy atom, donor atom, acceptor molecule, acceptor atom, score
      L1  H    18    19       P1  7957  0.97
      P1  H  7989  7998       L1    17  0.65
      P1  H  7997  8008       L1     9  0.94

> <Gold.Chemscore.Hbond.Weighted>
-9.4902

> <Gold.Chemscore.Metal.Weighted>
-0.0000

> <Gold.Chemscore.Lipo.Weighted>
-8.6598

> <Gold.Chemscore.Internal_Hbond.Weighted>
0.0000

> <Gold.Chemscore.DEClash.Weighted>
0.2642

> <Gold.Chemscore.DEInternal.Weighted>
2.6926

> <Gold.Chemscore.Rot.Weighted>
3.8727

> <Gold.Chemscore.Internal.Correction.Weighted>
   9.000000E+99

> <Gold.Protein.RotatedTorsions>
[ 6907 6896 6895 6894 ] final  121.47 input  -60.11 | X-H torsion
[ 7974 7965 7964 7962 ] final  137.80 input  175.53 | X-H torsion
[ 8008 7997 7996 7995 ] final  -55.65 input   59.86 | X-H torsion
[ 10167 10162 10161 10158 ] final   10.76 input  -65.29 | X-H torsion
[ 10718 10713 10712 10709 ] final  175.13 input   66.30 | X-H torsion
[ 10763 10752 10751 10750 ] final  115.49 input  -60.55 | X-H torsion
[ 11005 11000 10999 10996 ] final -156.99 input  -57.11 | X-H torsion

> <Gold.Protein.ActiveResidues>
 VAL166  LYS551  ARG553  GLY616  TRP617  ASP618  TYR619  PRO620  LYS621  CYS622 
 ASP623  PHE694  ASN695  SER759  ASP760  ASP761  ALA762  ILE779  LEU786  VAL792 
 PHE793  MET794  SER795  GLU796  ALA797  LYS798  CYS799  TRP800  GLU811  SER814 

> <Gold.Protein.RotatedAtoms>
  152.4319  133.7292  159.6577 H   0  0  0  0  0  0  0  0  0  0  0  0  # atno 6907 bound_to 6896
  150.8199  133.8261  159.3150 H   0  0  0  0  0  0  0  0  0  0  0  0  # atno 6908 bound_to 6896
  151.5946  135.1053  160.0098 H   0  0  0  0  0  0  0  0  0  0  0  0  # atno 6909 bound_to 6896
  144.9433  139.4904  143.5561 H   0  0  0  0  0  0  0  0  0  0  0  0  # atno 7974 bound_to 7965
  154.4202  140.1148  156.5510 H   0  0  0  0  0  0  0  0  0  0  0  0  # atno 8008 bound_to 7997
  155.6410  140.3496  155.4696 H   0  0  0  0  0  0  0  0  0  0  0  0  # atno 8009 bound_to 7997
  155.9871  140.1172  157.0663 H   0  0  0  0  0  0  0  0  0  0  0  0  # atno 8010 bound_to 7997
  140.6174  143.8278  150.7135 H   0  0  0  0  0  0  0  0  0  0  0  0  # atno 10167 bound_to 10162
  156.9394  130.9996  151.2971 H   0  0  0  0  0  0  0  0  0  0  0  0  # atno 10718 bound_to 10713
  153.5230  135.3594  155.2641 H   0  0  0  0  0  0  0  0  0  0  0  0  # atno 10763 bound_to 10752
  154.8733  135.4050  154.3238 H   0  0  0  0  0  0  0  0  0  0  0  0  # atno 10764 bound_to 10752
  153.3912  135.7072  153.6561 H   0  0  0  0  0  0  0  0  0  0  0  0  # atno 10765 bound_to 10752
  140.6695  134.4262  157.5232 H   0  0  0  0  0  0  0  0  0  0  0  0  # atno 11005 bound_to 11000
  146.3294  139.8468  142.8880 LP  0  0  0  0  0  0  0  0  0  0  0  0  # atno 17320 bound_to 7965
  145.2956  141.0180  143.3638 LP  0  0  0  0  0  0  0  0  0  0  0  0  # atno 17321 bound_to 7965
  140.1860  143.4075  152.1898 LP  0  0  0  0  0  0  0  0  0  0  0  0  # atno 17342 bound_to 10162
  139.5410  144.7256  151.4734 LP  0  0  0  0  0  0  0  0  0  0  0  0  # atno 17343 bound_to 10162
  157.5795  130.8366  149.8502 LP  0  0  0  0  0  0  0  0  0  0  0  0  # atno 17370 bound_to 10713
  156.0411  130.3739  150.1433 LP  0  0  0  0  0  0  0  0  0  0  0  0  # atno 17371 bound_to 10713
  139.8986  134.8609  156.1994 LP  0  0  0  0  0  0  0  0  0  0  0  0  # atno 17394 bound_to 11000
  141.0403  133.6941  156.1586 LP  0  0  0  0  0  0  0  0  0  0  0  0  # atno 17395 bound_to 11000

$$$$
