AV-unprocessed.smi:3038|AV-procd|sdf|11588|dock6
  -GOLD-   2272016563D 1   1.00000     0.00000
 Structure written by MMmdl.
 37 39  0  0  0  0  0  0  0  0  2 V2000
  153.0783  139.4713  154.5811 O   0  0  0  0  0  0  0  0  0  0  0  0
  152.0072  139.1311  155.0822 C   0  0  0  0  0  0  0  0  0  0  0  0
  151.1074  138.1291  154.3563 C   0  0  0  0  0  0  0  0  0  0  0  0
  151.0019  136.8852  155.0964 N   0  0  0  0  0  0  0  0  0  0  0  0
  149.9355  136.1827  155.4842 C   0  0  0  0  0  0  0  0  0  0  0  0
  150.2843  135.1004  156.1627 N   0  0  0  0  0  0  0  0  0  0  0  0
  151.6676  135.1680  156.1749 N   0  0  0  0  0  0  0  0  0  0  0  0
  152.0993  136.2251  155.5442 N   0  0  0  0  0  0  0  0  0  0  0  0
  151.5646  139.5912  156.2634 N   0  0  0  0  0  0  0  0  0  0  0  0
  152.2561  140.5642  157.1026 C   0  0  2  0  0  0  0  0  0  0  0  0
  152.6630  139.9359  158.4483 C   0  0  0  0  0  0  0  0  0  0  0  0
  153.2948  140.9826  159.3814 C   0  0  0  0  0  0  0  0  0  0  0  0
  152.3816  142.1336  159.5905 N   0  3  1  0  0  0  0  0  0  0  0  0
  152.9216  143.1024  160.5691 C   0  0  0  0  0  0  0  0  0  0  0  0
  152.5662  142.7811  162.0021 C   0  0  0  0  0  0  0  0  0  0  0  0
  151.8580  143.9060  161.2806 C   0  0  0  0  0  0  0  0  0  0  0  0
  152.0114  142.7817  158.3076 C   0  0  0  0  0  0  0  0  0  0  0  0
  151.3446  141.7766  157.3537 C   0  0  0  0  0  0  0  0  0  0  0  0
  150.1072  138.5458  154.2292 H   0  0  0  0  0  0  0  0  0  0  0  0
  151.5020  137.9272  153.3595 H   0  0  0  0  0  0  0  0  0  0  0  0
  148.9139  136.4649  155.2763 H   0  0  0  0  0  0  0  0  0  0  0  0
  150.6722  139.2530  156.5953 H   0  0  0  0  0  0  0  0  0  0  0  0
  153.1528  140.9127  156.5862 H   0  0  0  0  0  0  0  0  0  0  0  0
  151.7883  139.4998  158.9336 H   0  0  0  0  0  0  0  0  0  0  0  0
  153.3664  139.1184  158.2854 H   0  0  0  0  0  0  0  0  0  0  0  0
  153.5274  140.5208  160.3417 H   0  0  0  0  0  0  0  0  0  0  0  0
  154.2390  141.3368  158.9642 H   0  0  0  0  0  0  0  0  0  0  0  0
  153.8822  143.5532  160.3252 H   0  0  0  0  0  0  0  0  0  0  0  0
  151.9949  141.8764  162.2029 H   0  0  0  0  0  0  0  0  0  0  0  0
  153.2848  143.0573  162.7711 H   0  0  0  0  0  0  0  0  0  0  0  0
  152.1107  144.9230  161.5742 H   0  0  0  0  0  0  0  0  0  0  0  0
  150.8177  143.7476  161.0014 H   0  0  0  0  0  0  0  0  0  0  0  0
  151.3278  143.6095  158.4993 H   0  0  0  0  0  0  0  0  0  0  0  0
  152.9018  143.2079  157.8426 H   0  0  0  0  0  0  0  0  0  0  0  0
  151.1045  142.2671  156.4097 H   0  0  0  0  0  0  0  0  0  0  0  0
  150.3960  141.4473  157.7811 H   0  0  0  0  0  0  0  0  0  0  0  0
  151.5302  141.7635  159.9886 H   0  0  0  0  0  0  0  0  0  0  0  0
  1  2  2  0  0  0  0
  2  3  1  0  0  0  0
  2  9  1  0  0  0  0
  3  4  1  0  0  0  0
  3 19  1  0  0  0  0
  3 20  1  0  0  0  0
  4  8  1  0  0  0  0
  4  5  1  0  0  0  0
  5  6  2  0  0  0  0
  5 21  1  0  0  0  0
  6  7  1  0  0  0  0
  7  8  2  0  0  0  0
  9 10  1  0  0  0  0
  9 22  1  0  0  0  0
 10 18  1  0  0  0  0
 10 11  1  0  0  0  0
 10 23  1  0  0  0  0
 11 12  1  0  0  0  0
 11 24  1  0  0  0  0
 11 25  1  0  0  0  0
 12 13  1  0  0  0  0
 12 26  1  0  0  0  0
 12 27  1  0  0  0  0
 13 14  1  0  0  0  0
 13 17  1  0  0  0  0
 13 37  1  0  0  0  0
 14 16  1  0  0  0  0
 14 15  1  0  0  0  0
 14 28  1  0  0  0  0
 15 16  1  0  0  0  0
 15 29  1  0  0  0  0
 15 30  1  0  0  0  0
 16 31  1  0  0  0  0
 16 32  1  0  0  0  0
 17 18  1  0  0  0  0
 17 33  1  0  0  0  0
 17 34  1  0  0  0  0
 18 35  1  0  0  0  0
 18 36  1  0  0  0  0
M  CHG  1  13   1
M  END
> <s_m_source_file>
AV-unprocessed.smi

> <i_m_source_file_index>
3038

> <i_lp_mmshare_version>
43012

> <i_f3d_flags>
0

> <s_epik_input>
bjFubltjSF1uMVtDSDJdQyg9TylbTkhdW0NIXTJbQ0gyXVtDSDJdTihbQ0gyXVtDSDJdMilbQ0hdM1tDSDJdW0NIMl0z

> <s_epik_cmdline>
J2VwaWtfcHl0aG9uJywgJy1waCcsICc3LjAnLCAnLXRuJywgJzgnLCAnLW1hJywgJzIwMCcsICctbWV0YWxfYmluZGluZycsICctaW1hZScsICc8aW5maWxlLm1hZT4nLCAnLW9tYWUnLCAnPG91dGZpbGUubWFlPic=

> <r_lp_tautomer_probability>
1

> <r_epik_Ionization_Penalty>
0.284275

> <r_epik_Ionization_Penalty_Charging>
0.284273

> <r_epik_Ionization_Penalty_Neutral>
2.31262e-06

> <r_epik_State_Penalty>
0.277002

> <r_epik_Charging_Adjusted_Penalty>
0.561274

> <i_epik_Tot_Q>
1

> <i_epik_Tot_abs_Q>
1

> <r_epik_Metal_State_Penalty>
0.277002

> <b_epik_Metal_Only>
0

> <s_lp_Force_Field>
OPLS_2005

> <r_lp_Energy>
27.0237

> <b_lp_Chiralities_Consistent>
1

> <s_lp_Variant>
AV-unprocessed.smi:3038-1

> <Gold.Version>
5.8.1

> <Gold.Id.Protein>
6NUR|6NUR_protein|mol2

> <Gold.PLP.Fitness>
40.6152

> <Gold.PLP.PLP>
-34.9356

> <Gold.PLP.part.hbond>
-3.7072

> <Gold.PLP.part.metal>
0.0000

> <Gold.PLP.part.buried>
-5.5894

> <Gold.PLP.part.nonpolar>
-26.6250

> <Gold.PLP.part.repulsive>
0.2646

> <Gold.PLP.ligand.clash>
0.0000

> <Gold.PLP.ligand.torsion>
0.7560

> <Gold.PLP.Chemscore.Hbond>
1.9767

> <Gold.PLP.Chemscore.CHOScore>
0.0000

> <Gold.PLP.Chemscore.Metal>
0.0000

> <Gold.Chemscore.Hbonds>
donor molecule, donor type, donor heavy atom, donor atom, acceptor molecule, acceptor atom, score
      P1  H  7989  7998       L1     1  0.01
      P1  H  7997  8010       L1     1  0.71
      P1  H 10752 10765       L1     8  0.29

> <Gold.PLP.Chemscore.Internal.Correction>
1.2615

> <Gold.Rescore>
     Score         DG    S(hbond)    S(metal)    S(lipo)     H(rot)  DE(clash)    DE(int)     intcor
     14.69     -15.45       1.78        0.00      83.74       2.25       0.04       0.72       ----

> <Gold.Chemscore.Fitness>
14.6930

> <Gold.Chemscore.DG>
-15.4488

> <Gold.Chemscore.ZeroCoef>
-5.4800

> <Gold.Chemscore.Hbond>
1.7781

> <Gold.Chemscore.Metal>
0.0000

> <Gold.Chemscore.Lipo>
83.7359

> <Gold.Chemscore.Internal_Hbond>
0.0000

> <Gold.Chemscore.DEClash>
0.0379

> <Gold.Chemscore.DEInternal>
0.7178

> <Gold.Chemscore.Rot>
2.2528

> <Gold.Chemscore.Internal.Correction>
   9.000000E+99

> <Gold.Chemscore.Hbonds>
donor molecule, donor type, donor heavy atom, donor atom, acceptor molecule, acceptor atom, score
      P1  H  7997  8010       L1     1  0.48
      P1  H 10752 10765       L1     8  0.01

> <Gold.Chemscore.Hbond.Weighted>
-5.9389

> <Gold.Chemscore.Metal.Weighted>
-0.0000

> <Gold.Chemscore.Lipo.Weighted>
-9.7971

> <Gold.Chemscore.Internal_Hbond.Weighted>
0.0000

> <Gold.Chemscore.DEClash.Weighted>
0.0379

> <Gold.Chemscore.DEInternal.Weighted>
0.7178

> <Gold.Chemscore.Rot.Weighted>
5.7672

> <Gold.Chemscore.Internal.Correction.Weighted>
   9.000000E+99

> <Gold.Protein.RotatedTorsions>
[ 6907 6896 6895 6894 ] final    5.04 input  -60.11 | X-H torsion
[ 7974 7965 7964 7962 ] final  -98.82 input  175.53 | X-H torsion
[ 8008 7997 7996 7995 ] final   87.47 input   59.86 | X-H torsion
[ 10167 10162 10161 10158 ] final -114.85 input  -65.29 | X-H torsion
[ 10718 10713 10712 10709 ] final  166.36 input   66.30 | X-H torsion
[ 10763 10752 10751 10750 ] final -151.83 input  -60.55 | X-H torsion
[ 11005 11000 10999 10996 ] final -156.33 input  -57.11 | X-H torsion

> <Gold.Protein.ActiveResidues>
 VAL166  LYS551  ARG553  GLY616  TRP617  ASP618  TYR619  PRO620  LYS621  CYS622 
 ASP623  PHE694  ASN695  SER759  ASP760  ASP761  ALA762  ILE779  LEU786  VAL792 
 PHE793  MET794  SER795  GLU796  ALA797  LYS798  CYS799  TRP800  GLU811  SER814 

> <Gold.Protein.RotatedAtoms>
  151.6511  135.1001  160.0160 H   0  0  0  0  0  0  0  0  0  0  0  0  # atno 6907 bound_to 6896
  152.4000  133.6799  159.6317 H   0  0  0  0  0  0  0  0  0  0  0  0  # atno 6908 bound_to 6896
  150.7901  133.8724  159.3303 H   0  0  0  0  0  0  0  0  0  0  0  0  # atno 6909 bound_to 6896
  145.3156  140.9410  143.2745 H   0  0  0  0  0  0  0  0  0  0  0  0  # atno 7974 bound_to 7965
  155.9758  140.3381  155.6617 H   0  0  0  0  0  0  0  0  0  0  0  0  # atno 8008 bound_to 7997
  155.6614  140.0716  157.2571 H   0  0  0  0  0  0  0  0  0  0  0  0  # atno 8009 bound_to 7997
  154.4178  140.1708  156.1768 H   0  0  0  0  0  0  0  0  0  0  0  0  # atno 8010 bound_to 7997
  140.0965  143.4652  152.1838 H   0  0  0  0  0  0  0  0  0  0  0  0  # atno 10167 bound_to 10162
  157.0670  131.0356  151.2626 H   0  0  0  0  0  0  0  0  0  0  0  0  # atno 10718 bound_to 10713
  154.8033  135.3250  154.7495 H   0  0  0  0  0  0  0  0  0  0  0  0  # atno 10763 bound_to 10752
  153.8158  135.6892  153.4838 H   0  0  0  0  0  0  0  0  0  0  0  0  # atno 10764 bound_to 10752
  153.1763  135.4604  154.9913 H   0  0  0  0  0  0  0  0  0  0  0  0  # atno 10765 bound_to 10752
  140.6768  134.4188  157.5229 H   0  0  0  0  0  0  0  0  0  0  0  0  # atno 11005 bound_to 11000
  144.8980  139.4686  143.6646 LP  0  0  0  0  0  0  0  0  0  0  0  0  # atno 17320 bound_to 7965
  146.3102  139.7718  142.9026 LP  0  0  0  0  0  0  0  0  0  0  0  0  # atno 17321 bound_to 7965
  139.5695  144.7455  151.3929 LP  0  0  0  0  0  0  0  0  0  0  0  0  # atno 17342 bound_to 10162
  140.7001  143.7653  150.7389 LP  0  0  0  0  0  0  0  0  0  0  0  0  # atno 17343 bound_to 10162
  157.4909  130.7821  149.7506 LP  0  0  0  0  0  0  0  0  0  0  0  0  # atno 17370 bound_to 10713
  155.9961  130.3907  150.2791 LP  0  0  0  0  0  0  0  0  0  0  0  0  # atno 17371 bound_to 10713
  139.8964  134.8660  156.2089 LP  0  0  0  0  0  0  0  0  0  0  0  0  # atno 17394 bound_to 11000
  141.0349  133.6969  156.1495 LP  0  0  0  0  0  0  0  0  0  0  0  0  # atno 17395 bound_to 11000

$$$$
