AV-unprocessed.smi:1334|AV-procd|sdf|5492|dock6
  -GOLD-   22720 5 73D 1   1.00000     0.00000
 Structure written by MMmdl.
 38 39  0  0  0  0  0  0  0  0  1 V2000
  150.9717  137.0426  154.7748 C   0  0  0  0  0  0  0  0  0  0  0  0
  151.1191  138.5519  154.4962 C   0  0  2  0  0  0  0  0  0  0  0  0
  152.0360  139.2427  155.5155 C   0  0  0  0  0  0  0  0  0  0  0  0
  153.1400  139.6664  155.1716 O   0  0  0  0  0  0  0  0  0  0  0  0
  151.5693  139.3304  156.7717 N   0  0  0  0  0  0  0  0  0  0  0  0
  152.3035  139.8652  157.9158 C   0  0  0  0  0  0  0  0  0  0  0  0
  152.0492  141.3731  158.1063 C   0  0  0  0  0  0  0  0  0  0  0  0
  152.4102  141.9057  159.4870 C   0  0  0  0  0  0  0  0  0  0  0  0
  153.3282  141.2973  160.2639 C   0  0  0  0  0  0  0  0  0  0  0  0
  153.6975  141.7473  161.6665 C   0  0  0  0  0  0  0  0  0  0  0  0
  152.7011  142.7685  162.2398 C   0  0  0  0  0  0  0  0  0  0  0  0
  152.2962  143.8053  161.1854 C   0  0  0  0  0  0  0  0  0  0  0  0
  151.6450  143.1360  159.9625 C   0  0  0  0  0  0  0  0  0  0  0  0
  149.8322  139.2355  154.4418 N   0  0  0  0  0  0  0  0  0  0  0  0
  148.5952  138.7352  154.4652 C   0  0  0  0  0  0  0  0  0  0  0  0
  147.6413  139.6491  154.3550 N   0  0  0  0  0  0  0  0  0  0  0  0
  148.4123  140.7705  154.2408 C   0  0  0  0  0  0  0  0  0  0  0  0
  149.7305  140.5784  154.2754 N   0  0  0  0  0  0  0  0  0  0  0  0
  151.9414  136.5441  154.7543 H   0  0  0  0  0  0  0  0  0  0  0  0
  150.3455  136.5683  154.0187 H   0  0  0  0  0  0  0  0  0  0  0  0
  150.5210  136.8447  155.7482 H   0  0  0  0  0  0  0  0  0  0  0  0
  151.5753  138.6538  153.5098 H   0  0  0  0  0  0  0  0  0  0  0  0
  150.6490  138.9599  156.9593 H   0  0  0  0  0  0  0  0  0  0  0  0
  152.0508  139.3343  158.8346 H   0  0  0  0  0  0  0  0  0  0  0  0
  153.3675  139.6905  157.7547 H   0  0  0  0  0  0  0  0  0  0  0  0
  152.6035  141.9382  157.3564 H   0  0  0  0  0  0  0  0  0  0  0  0
  150.9944  141.5761  157.9162 H   0  0  0  0  0  0  0  0  0  0  0  0
  153.8561  140.4308  159.8932 H   0  0  0  0  0  0  0  0  0  0  0  0
  153.7502  140.8766  162.3203 H   0  0  0  0  0  0  0  0  0  0  0  0
  154.6989  142.1745  161.6319 H   0  0  0  0  0  0  0  0  0  0  0  0
  151.8079  142.2484  162.5884 H   0  0  0  0  0  0  0  0  0  0  0  0
  153.1324  143.2604  163.1121 H   0  0  0  0  0  0  0  0  0  0  0  0
  151.6136  144.5381  161.6162 H   0  0  0  0  0  0  0  0  0  0  0  0
  153.1808  144.3582  160.8671 H   0  0  0  0  0  0  0  0  0  0  0  0
  151.5692  143.8683  159.1594 H   0  0  0  0  0  0  0  0  0  0  0  0
  150.6268  142.8277  160.2019 H   0  0  0  0  0  0  0  0  0  0  0  0
  148.3880  137.6794  154.5615 H   0  0  0  0  0  0  0  0  0  0  0  0
  147.9893  141.7567  154.1201 H   0  0  0  0  0  0  0  0  0  0  0  0
  1  2  1  0  0  0  0
  1 19  1  0  0  0  0
  1 20  1  0  0  0  0
  1 21  1  0  0  0  0
  2  3  1  0  0  0  0
  2 14  1  0  0  0  0
  2 22  1  0  0  0  0
  3  4  2  0  0  0  0
  3  5  1  0  0  0  0
  5  6  1  0  0  0  0
  5 23  1  0  0  0  0
  6  7  1  0  0  0  0
  6 24  1  0  0  0  0
  6 25  1  0  0  0  0
  7  8  1  0  0  0  0
  7 26  1  0  0  0  0
  7 27  1  0  0  0  0
  8 13  1  0  0  0  0
  8  9  2  0  0  0  0
  9 10  1  0  0  0  0
  9 28  1  0  0  0  0
 10 11  1  0  0  0  0
 10 29  1  0  0  0  0
 10 30  1  0  0  0  0
 11 12  1  0  0  0  0
 11 31  1  0  0  0  0
 11 32  1  0  0  0  0
 12 13  1  0  0  0  0
 12 33  1  0  0  0  0
 12 34  1  0  0  0  0
 13 35  1  0  0  0  0
 13 36  1  0  0  0  0
 14 18  1  0  0  0  0
 14 15  1  0  0  0  0
 15 16  2  0  0  0  0
 15 37  1  0  0  0  0
 16 17  1  0  0  0  0
 17 18  2  0  0  0  0
 17 38  1  0  0  0  0
M  END
> <s_m_source_file>
AV-unprocessed.smi

> <i_m_source_file_index>
1334

> <i_lp_mmshare_version>
43012

> <i_f3d_flags>
0

> <s_epik_input>
bjFbY0hdbltjSF1uMVtDQEhdKFtDSDNdKUMoPU8pW05IXVtDSDJdW0NIMl1DMj1bQ0hdW0NIMl1bQ0gyXVtDSDJdW0NIMl0y

> <s_epik_cmdline>
J2VwaWtfcHl0aG9uJywgJy1waCcsICc3LjAnLCAnLXRuJywgJzgnLCAnLW1hJywgJzIwMCcsICctbWV0YWxfYmluZGluZycsICctaW1hZScsICc8aW5maWxlLm1hZT4nLCAnLW9tYWUnLCAnPG91dGZpbGUubWFlPic=

> <r_lp_tautomer_probability>
1

> <r_epik_Ionization_Penalty>
1.26383e-05

> <r_epik_Ionization_Penalty_Charging>
0

> <r_epik_Ionization_Penalty_Neutral>
1.26383e-05

> <r_epik_State_Penalty>
-0

> <r_epik_Charging_Adjusted_Penalty>
0

> <i_epik_Tot_Q>
0

> <i_epik_Tot_abs_Q>
0

> <r_epik_Metal_State_Penalty>
-0

> <b_epik_Metal_Only>
0

> <s_lp_Force_Field>
OPLS_2005

> <r_lp_Energy>
12.0281

> <b_lp_Chiralities_Consistent>
1

> <s_lp_Variant>
AV-unprocessed.smi:1334-1

> <Gold.Version>
5.8.1

> <Gold.Id.Protein>
6NUR|6NUR_protein|mol2

> <Gold.PLP.Fitness>
46.5663

> <Gold.PLP.PLP>
-43.1189

> <Gold.PLP.part.hbond>
-2.1617

> <Gold.PLP.part.metal>
0.0000

> <Gold.PLP.part.buried>
-5.1586

> <Gold.PLP.part.nonpolar>
-35.4974

> <Gold.PLP.part.repulsive>
0.4848

> <Gold.PLP.ligand.clash>
0.0000

> <Gold.PLP.ligand.torsion>
0.8525

> <Gold.PLP.Chemscore.Hbond>
1.6800

> <Gold.PLP.Chemscore.CHOScore>
0.0000

> <Gold.PLP.Chemscore.Metal>
0.0000

> <Gold.Chemscore.Hbonds>
donor molecule, donor type, donor heavy atom, donor atom, acceptor molecule, acceptor atom, score
      P1  H  7989  7998       L1    18  0.60
      P1  H  7997  8010       L1     4  0.99

> <Gold.PLP.Chemscore.Internal.Correction>
0.1125

> <Gold.Rescore>
     Score         DG    S(hbond)    S(metal)    S(lipo)     H(rot)  DE(clash)    DE(int)     intcor
     15.61     -16.40       1.87        0.00      92.60       2.40       0.03       0.76       ----

> <Gold.Chemscore.Fitness>
15.6098

> <Gold.Chemscore.DG>
-16.4036

> <Gold.Chemscore.ZeroCoef>
-5.4800

> <Gold.Chemscore.Hbond>
1.8673

> <Gold.Chemscore.Metal>
0.0000

> <Gold.Chemscore.Lipo>
92.5962

> <Gold.Chemscore.Internal_Hbond>
0.0000

> <Gold.Chemscore.DEClash>
0.0337

> <Gold.Chemscore.DEInternal>
0.7602

> <Gold.Chemscore.Rot>
2.4011

> <Gold.Chemscore.Internal.Correction>
   9.000000E+99

> <Gold.Chemscore.Hbonds>
donor molecule, donor type, donor heavy atom, donor atom, acceptor molecule, acceptor atom, score
      P1  H  7989  7998       L1    18  0.11
      P1  H  7997  8010       L1     4  0.93

> <Gold.Chemscore.Hbond.Weighted>
-6.2368

> <Gold.Chemscore.Metal.Weighted>
-0.0000

> <Gold.Chemscore.Lipo.Weighted>
-10.8338

> <Gold.Chemscore.Internal_Hbond.Weighted>
0.0000

> <Gold.Chemscore.DEClash.Weighted>
0.0337

> <Gold.Chemscore.DEInternal.Weighted>
0.7602

> <Gold.Chemscore.Rot.Weighted>
6.1469

> <Gold.Chemscore.Internal.Correction.Weighted>
   9.000000E+99

> <Gold.Protein.RotatedTorsions>
[ 6907 6896 6895 6894 ] final -107.06 input  -60.11 | X-H torsion
[ 7974 7965 7964 7962 ] final  -68.40 input  175.53 | X-H torsion
[ 8008 7997 7996 7995 ] final   81.72 input   59.86 | X-H torsion
[ 10167 10162 10161 10158 ] final   12.48 input  -65.29 | X-H torsion
[ 10718 10713 10712 10709 ] final  -54.13 input   66.30 | X-H torsion
[ 10763 10752 10751 10750 ] final   58.24 input  -60.55 | X-H torsion
[ 11005 11000 10999 10996 ] final -110.49 input  -57.11 | X-H torsion

> <Gold.Protein.ActiveResidues>
 VAL166  LYS551  ARG553  GLY616  TRP617  ASP618  TYR619  PRO620  LYS621  CYS622 
 ASP623  PHE694  ASN695  SER759  ASP760  ASP761  ALA762  ILE779  LEU786  VAL792 
 PHE793  MET794  SER795  GLU796  ALA797  LYS798  CYS799  TRP800  GLU811  SER814 

> <Gold.Protein.RotatedAtoms>
  150.7423  133.9884  159.3598 H   0  0  0  0  0  0  0  0  0  0  0  0  # atno 6907 bound_to 6896
  151.7830  135.0754  160.0386 H   0  0  0  0  0  0  0  0  0  0  0  0  # atno 6908 bound_to 6896
  152.3261  133.5870  159.5813 H   0  0  0  0  0  0  0  0  0  0  0  0  # atno 6909 bound_to 6896
  145.7170  140.9054  143.0650 H   0  0  0  0  0  0  0  0  0  0  0  0  # atno 7974 bound_to 7965
  155.9009  140.3433  155.6026 H   0  0  0  0  0  0  0  0  0  0  0  0  # atno 8008 bound_to 7997
  155.7501  140.0819  157.2224 H   0  0  0  0  0  0  0  0  0  0  0  0  # atno 8009 bound_to 7997
  154.4043  140.1555  156.2701 H   0  0  0  0  0  0  0  0  0  0  0  0  # atno 8010 bound_to 7997
  140.6065  143.8497  150.7019 H   0  0  0  0  0  0  0  0  0  0  0  0  # atno 10167 bound_to 10162
  156.1477  130.4152  149.9997 H   0  0  0  0  0  0  0  0  0  0  0  0  # atno 10718 bound_to 10713
  152.9866  135.5613  154.5520 H   0  0  0  0  0  0  0  0  0  0  0  0  # atno 10763 bound_to 10752
  154.4955  135.2795  155.1464 H   0  0  0  0  0  0  0  0  0  0  0  0  # atno 10764 bound_to 10752
  154.2916  135.6325  153.5441 H   0  0  0  0  0  0  0  0  0  0  0  0  # atno 10765 bound_to 10752
  141.0789  133.9254  157.2331 H   0  0  0  0  0  0  0  0  0  0  0  0  # atno 11005 bound_to 11000
  144.6926  139.9151  143.7465 LP  0  0  0  0  0  0  0  0  0  0  0  0  # atno 17320 bound_to 7965
  146.0660  139.3651  143.0552 LP  0  0  0  0  0  0  0  0  0  0  0  0  # atno 17321 bound_to 7965
  140.2055  143.3925  152.1758 LP  0  0  0  0  0  0  0  0  0  0  0  0  # atno 17342 bound_to 10162
  139.5329  144.7178  151.4994 LP  0  0  0  0  0  0  0  0  0  0  0  0  # atno 17343 bound_to 10162
  156.7864  130.9240  151.3646 LP  0  0  0  0  0  0  0  0  0  0  0  0  # atno 17370 bound_to 10713
  157.6630  130.8983  149.9871 LP  0  0  0  0  0  0  0  0  0  0  0  0  # atno 17371 bound_to 10713
  139.9602  135.0156  156.9239 LP  0  0  0  0  0  0  0  0  0  0  0  0  # atno 17394 bound_to 11000
  140.5513  134.0624  155.7370 LP  0  0  0  0  0  0  0  0  0  0  0  0  # atno 17395 bound_to 11000

$$$$
