AV-unprocessed.smi:1768|AV-procd|sdf|7148|dock3
  -GOLD-   22720 8383D 1   1.00000     0.00000
 Structure written by MMmdl.
 32 33  0  0  0  0  0  0  0  0  2 V2000
  148.5100  140.5299  154.7938 C   0  0  0  0  0  0  0  0  0  0  0  0
  149.5217  139.4371  154.7380 C   0  0  0  0  0  0  0  0  0  0  0  0
  150.8027  139.6545  154.4302 N   0  0  0  0  0  0  0  0  0  0  0  0
  151.5482  138.4844  154.4412 N   0  0  0  0  0  0  0  0  0  0  0  0
  150.8207  137.3998  154.7438 C   0  0  0  0  0  0  0  0  0  0  0  0
  151.3557  136.1694  154.8089 N   0  5  0  0  0  0  0  0  0  0  0  0
  150.5860  135.1150  155.1633 C   0  0  0  0  0  0  0  0  0  0  0  0
  150.7445  134.3951  156.1519 O   0  0  0  0  0  0  0  0  0  0  0  0
  149.5692  134.8824  154.3206 N   0  0  0  0  0  0  0  0  0  0  0  0
  148.5768  133.8160  154.4367 C   0  0  1  0  0  0  0  0  0  0  0  0
  147.2833  134.2307  153.7125 C   0  0  0  0  0  0  0  0  0  0  0  0
  149.1696  132.5129  153.8670 C   0  0  2  0  0  0  0  0  0  0  0  0
  148.1814  131.3495  153.7618 C   0  0  0  0  0  0  0  0  0  0  0  0
  149.0647  130.1132  153.8395 C   0  0  0  0  0  0  0  0  0  0  0  0
  150.4127  130.6471  154.3298 C   0  0  0  0  0  0  0  0  0  0  0  0
  150.1510  131.9799  154.7435 O   0  0  0  0  0  0  0  0  0  0  0  0
  149.1247  137.7591  155.0673 S   0  0  0  0  0  0  0  0  0  0  0  0
  148.2035  140.8043  153.7843 H   0  0  0  0  0  0  0  0  0  0  0  0
  148.9288  141.4080  155.2860 H   0  0  0  0  0  0  0  0  0  0  0  0
  147.6311  140.2049  155.3507 H   0  0  0  0  0  0  0  0  0  0  0  0
  149.4833  135.4950  153.5232 H   0  0  0  0  0  0  0  0  0  0  0  0
  148.3506  133.6541  155.4922 H   0  0  0  0  0  0  0  0  0  0  0  0
  146.5088  133.4710  153.8160 H   0  0  0  0  0  0  0  0  0  0  0  0
  147.4583  134.3861  152.6475 H   0  0  0  0  0  0  0  0  0  0  0  0
  146.8809  135.1580  154.1212 H   0  0  0  0  0  0  0  0  0  0  0  0
  149.6296  132.6964  152.8937 H   0  0  0  0  0  0  0  0  0  0  0  0
  147.4953  131.3598  154.6098 H   0  0  0  0  0  0  0  0  0  0  0  0
  147.5867  131.3862  152.8487 H   0  0  0  0  0  0  0  0  0  0  0  0
  148.6464  129.3820  154.5318 H   0  0  0  0  0  0  0  0  0  0  0  0
  149.1710  129.6324  152.8666 H   0  0  0  0  0  0  0  0  0  0  0  0
  150.8266  130.0556  155.1467 H   0  0  0  0  0  0  0  0  0  0  0  0
  151.1392  130.6607  153.5164 H   0  0  0  0  0  0  0  0  0  0  0  0
  1  2  1  0  0  0  0
  1 18  1  0  0  0  0
  1 19  1  0  0  0  0
  1 20  1  0  0  0  0
  2 17  1  0  0  0  0
  2  3  2  0  0  0  0
  3  4  1  0  0  0  0
  4  5  2  0  0  0  0
  5  6  1  0  0  0  0
  5 17  1  0  0  0  0
  6  7  1  0  0  0  0
  7  8  2  0  0  0  0
  7  9  1  0  0  0  0
  9 10  1  0  0  0  0
  9 21  1  0  0  0  0
 10 11  1  0  0  0  0
 10 12  1  0  0  0  0
 10 22  1  0  0  0  0
 11 23  1  0  0  0  0
 11 24  1  0  0  0  0
 11 25  1  0  0  0  0
 12 16  1  0  0  0  0
 12 13  1  0  0  0  0
 12 26  1  0  0  0  0
 13 14  1  0  0  0  0
 13 27  1  0  0  0  0
 13 28  1  0  0  0  0
 14 15  1  0  0  0  0
 14 29  1  0  0  0  0
 14 30  1  0  0  0  0
 15 16  1  0  0  0  0
 15 31  1  0  0  0  0
 15 32  1  0  0  0  0
M  CHG  1   6  -1
M  END
> <s_m_source_file>
AV-unprocessed.smi

> <i_m_source_file_index>
1768

> <i_lp_mmshare_version>
43012

> <i_f3d_flags>
0

> <s_epik_input>
W0NIM11jMW5uYyhzMSlbTkhdQyg9TylbTkhdW0NASF0oW0NIM10pW0NAQEhdMltDSDJdW0NIMl1bQ0gyXU8y

> <s_epik_cmdline>
J2VwaWtfcHl0aG9uJywgJy1waCcsICc3LjAnLCAnLXRuJywgJzgnLCAnLW1hJywgJzIwMCcsICctbWV0YWxfYmluZGluZycsICctaW1hZScsICc8aW5maWxlLm1hZT4nLCAnLW9tYWUnLCAnPG91dGZpbGUubWFlPic=

> <r_lp_tautomer_probability>
1

> <r_epik_Ionization_Penalty>
4.3376

> <r_epik_Ionization_Penalty_Charging>
4.19392

> <r_epik_Ionization_Penalty_Neutral>
0.143681

> <r_epik_State_Penalty>
4.19342

> <r_epik_Charging_Adjusted_Penalty>
8.38735

> <i_epik_Tot_Q>
-1

> <i_epik_Tot_abs_Q>
1

> <r_epik_Metal_State_Penalty>
0.686065

> <b_epik_Metal_Only>
1

> <s_lp_Force_Field>
OPLS_2005

> <r_lp_Energy>
16.4206

> <b_lp_Chiralities_Consistent>
1

> <s_lp_Variant>
AV-unprocessed.smi:1768-6

> <Gold.Version>
5.8.1

> <Gold.Id.Protein>
6NUR|6NUR_protein|mol2

> <Gold.PLP.Fitness>
35.6352

> <Gold.PLP.PLP>
-25.9771

> <Gold.PLP.part.hbond>
-3.0000

> <Gold.PLP.part.metal>
0.0000

> <Gold.PLP.part.buried>
-4.4260

> <Gold.PLP.part.nonpolar>
-19.5294

> <Gold.PLP.part.repulsive>
0.4601

> <Gold.PLP.ligand.clash>
0.0000

> <Gold.PLP.ligand.torsion>
1.0394

> <Gold.PLP.Chemscore.Hbond>
3.9000

> <Gold.PLP.Chemscore.CHOScore>
0.0000

> <Gold.PLP.Chemscore.Metal>
0.0000

> <Gold.Chemscore.Hbonds>
donor molecule, donor type, donor heavy atom, donor atom, acceptor molecule, acceptor atom, score
      L1  H     9    21       P1  7948  0.85
      P1  H  7989  7998       L1     3  1.00
      P1  H 10752 10765       L1     6  2.00

> <Gold.PLP.Chemscore.Internal.Correction>
0.0369

> <Gold.Rescore>
     Score         DG    S(hbond)    S(metal)    S(lipo)     H(rot)  DE(clash)    DE(int)     intcor
     11.90     -15.54       2.52        0.00      42.01       1.28       0.09       3.55       ----

> <Gold.Chemscore.Fitness>
11.9041

> <Gold.Chemscore.DG>
-15.5424

> <Gold.Chemscore.ZeroCoef>
-5.4800

> <Gold.Chemscore.Hbond>
2.5203

> <Gold.Chemscore.Metal>
0.0000

> <Gold.Chemscore.Lipo>
42.0098

> <Gold.Chemscore.Internal_Hbond>
0.0000

> <Gold.Chemscore.DEClash>
0.0901

> <Gold.Chemscore.DEInternal>
3.5482

> <Gold.Chemscore.Rot>
1.2776

> <Gold.Chemscore.Internal.Correction>
   9.000000E+99

> <Gold.Chemscore.Hbonds>
donor molecule, donor type, donor heavy atom, donor atom, acceptor molecule, acceptor atom, score
      L1  H     9    21       P1  7948  0.15
      P1  H  7989  7998       L1     3  0.70
      P1  H 10752 10765       L1     6  0.65

> <Gold.Chemscore.Hbond.Weighted>
-8.4178

> <Gold.Chemscore.Metal.Weighted>
-0.0000

> <Gold.Chemscore.Lipo.Weighted>
-4.9151

> <Gold.Chemscore.Internal_Hbond.Weighted>
0.0000

> <Gold.Chemscore.DEClash.Weighted>
0.0901

> <Gold.Chemscore.DEInternal.Weighted>
3.5482

> <Gold.Chemscore.Rot.Weighted>
3.2706

> <Gold.Chemscore.Internal.Correction.Weighted>
   9.000000E+99

> <Gold.Protein.RotatedTorsions>
[ 6907 6896 6895 6894 ] final   77.89 input  -60.11 | X-H torsion
[ 7974 7965 7964 7962 ] final  145.38 input  175.53 | X-H torsion
[ 8008 7997 7996 7995 ] final  -24.22 input   59.86 | X-H torsion
[ 10167 10162 10161 10158 ] final -176.37 input  -65.29 | X-H torsion
[ 10718 10713 10712 10709 ] final   79.75 input   66.30 | X-H torsion
[ 10763 10752 10751 10750 ] final  174.28 input  -60.55 | X-H torsion
[ 11005 11000 10999 10996 ] final   32.35 input  -57.11 | X-H torsion

> <Gold.Protein.ActiveResidues>
 VAL166  LYS551  ARG553  GLY616  TRP617  ASP618  TYR619  PRO620  LYS621  CYS622 
 ASP623  PHE694  ASN695  SER759  ASP760  ASP761  ALA762  ILE779  LEU786  VAL792 
 PHE793  MET794  SER795  GLU796  ALA797  LYS798  CYS799  TRP800  GLU811  SER814 

> <Gold.Protein.RotatedAtoms>
  152.5136  134.3748  159.9330 H   0  0  0  0  0  0  0  0  0  0  0  0  # atno 6907 bound_to 6896
  151.3704  133.3851  159.2707 H   0  0  0  0  0  0  0  0  0  0  0  0  # atno 6908 bound_to 6896
  150.9582  134.8993  159.7773 H   0  0  0  0  0  0  0  0  0  0  0  0  # atno 6909 bound_to 6896
  144.8757  139.5777  143.5866 H   0  0  0  0  0  0  0  0  0  0  0  0  # atno 7974 bound_to 7965
  154.4541  140.1959  156.0430 H   0  0  0  0  0  0  0  0  0  0  0  0  # atno 8008 bound_to 7997
  156.0710  140.3284  155.7548 H   0  0  0  0  0  0  0  0  0  0  0  0  # atno 8009 bound_to 7997
  155.5262  140.0574  157.2888 H   0  0  0  0  0  0  0  0  0  0  0  0  # atno 8010 bound_to 7997
  139.5533  144.2053  152.1116 H   0  0  0  0  0  0  0  0  0  0  0  0  # atno 10167 bound_to 10162
  157.6786  130.9928  150.1978 H   0  0  0  0  0  0  0  0  0  0  0  0  # atno 10718 bound_to 10713
  154.4518  135.2765  155.1776 H   0  0  0  0  0  0  0  0  0  0  0  0  # atno 10763 bound_to 10752
  154.3599  135.6131  153.5689 H   0  0  0  0  0  0  0  0  0  0  0  0  # atno 10764 bound_to 10752
  152.9847  135.5832  154.4864 H   0  0  0  0  0  0  0  0  0  0  0  0  # atno 10765 bound_to 10752
  140.2743  134.3046  155.7818 H   0  0  0  0  0  0  0  0  0  0  0  0  # atno 11005 bound_to 11000
  146.2961  139.7282  142.9126 LP  0  0  0  0  0  0  0  0  0  0  0  0  # atno 17320 bound_to 7965
  145.4047  141.0389  143.3050 LP  0  0  0  0  0  0  0  0  0  0  0  0  # atno 17321 bound_to 7965
  140.1552  144.5077  150.6664 LP  0  0  0  0  0  0  0  0  0  0  0  0  # atno 17342 bound_to 10162
  140.6801  143.2322  151.5407 LP  0  0  0  0  0  0  0  0  0  0  0  0  # atno 17343 bound_to 10162
  156.2675  130.3718  149.8066 LP  0  0  0  0  0  0  0  0  0  0  0  0  # atno 17370 bound_to 10713
  156.5792  130.8458  151.3378 LP  0  0  0  0  0  0  0  0  0  0  0  0  # atno 17371 bound_to 10713
  141.2172  133.7486  156.9383 LP  0  0  0  0  0  0  0  0  0  0  0  0  # atno 17394 bound_to 11000
  140.1343  134.9335  157.2380 LP  0  0  0  0  0  0  0  0  0  0  0  0  # atno 17395 bound_to 11000

$$$$
