AV-unprocessed.smi:446|AV-procd|sdf|2593|dock6
  -GOLD-   2262022593D 1   1.00000     0.00000
 Structure written by MMmdl.
 35 37  0  0  0  0  0  0  0  0  1 V2000
  151.3375  140.0312  155.8179 C   0  0  0  0  0  0  0  0  0  0  0  0
  151.6877  141.1695  156.7226 C   0  0  0  0  0  0  0  0  0  0  0  0
  151.5672  142.4418  156.3423 N   0  0  0  0  0  0  0  0  0  0  0  0
  151.9835  143.1339  157.4633 C   0  0  0  0  0  0  0  0  0  0  0  0
  152.0902  144.5234  157.6995 C   0  0  0  0  0  0  0  0  0  0  0  0
  152.5456  145.0027  158.9455 C   0  0  0  0  0  0  0  0  0  0  0  0
  152.8997  144.1022  159.9712 C   0  0  0  0  0  0  0  0  0  0  0  0
  152.8024  142.7139  159.7563 C   0  0  0  0  0  0  0  0  0  0  0  0
  152.3488  142.2410  158.5104 C   0  0  0  0  0  0  0  0  0  0  0  0
  152.1464  140.9701  157.9830 N   0  0  0  0  0  0  0  0  0  0  0  0
  152.3869  139.7090  158.6714 C   0  0  0  0  0  0  0  0  0  0  0  0
  153.8709  139.5129  159.0400 C   0  0  2  0  0  0  0  0  0  0  0  0
  154.5293  138.7821  158.0235 O   0  0  0  0  0  0  0  0  0  0  0  0
  154.0210  138.8624  160.4061 C   0  0  0  0  0  0  0  0  0  0  0  0
  153.4729  137.5827  160.6395 C   0  0  0  0  0  0  0  0  0  0  0  0
  153.6115  136.9696  161.9001 C   0  0  0  0  0  0  0  0  0  0  0  0
  154.3012  137.6316  162.9339 C   0  0  0  0  0  0  0  0  0  0  0  0
  154.4341  137.0423  164.1456 F   0  0  0  0  0  0  0  0  0  0  0  0
  154.8540  138.9064  162.7058 C   0  0  0  0  0  0  0  0  0  0  0  0
  154.7163  139.5199  161.4455 C   0  0  0  0  0  0  0  0  0  0  0  0
  151.0527  140.3994  154.8318 H   0  0  0  0  0  0  0  0  0  0  0  0
  150.4993  139.4685  156.2292 H   0  0  0  0  0  0  0  0  0  0  0  0
  152.1901  139.3625  155.7002 H   0  0  0  0  0  0  0  0  0  0  0  0
  151.8212  145.2212  156.9205 H   0  0  0  0  0  0  0  0  0  0  0  0
  152.6228  146.0667  159.1152 H   0  0  0  0  0  0  0  0  0  0  0  0
  153.2463  144.4775  160.9229 H   0  0  0  0  0  0  0  0  0  0  0  0
  153.0733  142.0205  160.5386 H   0  0  0  0  0  0  0  0  0  0  0  0
  151.7777  139.7029  159.5762 H   0  0  0  0  0  0  0  0  0  0  0  0
  152.0286  138.8803  158.0606 H   0  0  0  0  0  0  0  0  0  0  0  0
  154.3548  140.4898  159.0772 H   0  0  0  0  0  0  0  0  0  0  0  0
  153.8863  138.5096  157.3867 H   0  0  0  0  0  0  0  0  0  0  0  0
  152.9443  137.0652  159.8521 H   0  0  0  0  0  0  0  0  0  0  0  0
  153.1889  135.9908  162.0735 H   0  0  0  0  0  0  0  0  0  0  0  0
  155.3853  139.4135  163.4976 H   0  0  0  0  0  0  0  0  0  0  0  0
  155.1476  140.4961  161.2789 H   0  0  0  0  0  0  0  0  0  0  0  0
  1  2  1  0  0  0  0
  1 21  1  0  0  0  0
  1 22  1  0  0  0  0
  1 23  1  0  0  0  0
  2 10  1  0  0  0  0
  2  3  2  0  0  0  0
  3  4  1  0  0  0  0
  4  9  2  0  0  0  0
  4  5  1  0  0  0  0
  5  6  2  0  0  0  0
  5 24  1  0  0  0  0
  6  7  1  0  0  0  0
  6 25  1  0  0  0  0
  7  8  2  0  0  0  0
  7 26  1  0  0  0  0
  8  9  1  0  0  0  0
  8 27  1  0  0  0  0
  9 10  1  0  0  0  0
 10 11  1  0  0  0  0
 11 12  1  0  0  0  0
 11 28  1  0  0  0  0
 11 29  1  0  0  0  0
 12 13  1  0  0  0  0
 12 14  1  0  0  0  0
 12 30  1  0  0  0  0
 13 31  1  0  0  0  0
 14 20  1  0  0  0  0
 14 15  2  0  0  0  0
 15 16  1  0  0  0  0
 15 32  1  0  0  0  0
 16 17  2  0  0  0  0
 16 33  1  0  0  0  0
 17 18  1  0  0  0  0
 17 19  1  0  0  0  0
 19 20  2  0  0  0  0
 19 34  1  0  0  0  0
 20 35  1  0  0  0  0
M  END
> <s_m_source_file>
AV-unprocessed.smi

> <i_m_source_file_index>
446

> <i_lp_mmshare_version>
43012

> <i_f3d_flags>
0

> <s_epik_input>
W2NIXTFbY0hdW2NIXVtjSF1jKGMxMiluKGMobjIpW0NIM10pW0NIMl1bQ0BIXShbT0hdKWMzW2NIXVtjSF1jKEYpW2NIXVtjSF0z

> <s_epik_cmdline>
J2VwaWtfcHl0aG9uJywgJy1waCcsICc3LjAnLCAnLXRuJywgJzgnLCAnLW1hJywgJzIwMCcsICctbWV0YWxfYmluZGluZycsICctaW1hZScsICc8aW5maWxlLm1hZT4nLCAnLW9tYWUnLCAnPG91dGZpbGUubWFlPic=

> <r_epik_Ionization_Penalty>
0.129663

> <r_epik_Ionization_Penalty_Charging>
0

> <r_epik_Ionization_Penalty_Neutral>
0.129663

> <r_epik_State_Penalty>
0.119073

> <r_epik_Charging_Adjusted_Penalty>
0.119073

> <i_epik_Tot_Q>
0

> <i_epik_Tot_abs_Q>
0

> <r_epik_Metal_State_Penalty>
0.000131867

> <b_epik_Metal_Only>
0

> <s_lp_Force_Field>
OPLS_2005

> <r_lp_Energy>
11.4063

> <b_lp_Chiralities_Consistent>
1

> <s_lp_Variant>
AV-unprocessed.smi:446-1

> <Gold.Version>
5.8.1

> <Gold.Id.Protein>
6NUR|6NUR_protein|mol2

> <Gold.PLP.Fitness>
48.3199

> <Gold.PLP.PLP>
-46.3330

> <Gold.PLP.part.hbond>
-0.7599

> <Gold.PLP.part.metal>
0.0000

> <Gold.PLP.part.buried>
-4.4739

> <Gold.PLP.part.nonpolar>
-40.9602

> <Gold.PLP.part.repulsive>
0.1028

> <Gold.PLP.ligand.clash>
0.0000

> <Gold.PLP.ligand.torsion>
0.5177

> <Gold.PLP.Chemscore.Hbond>
1.0000

> <Gold.PLP.Chemscore.CHOScore>
0.0000

> <Gold.PLP.Chemscore.Metal>
0.0000

> <Gold.Chemscore.Hbonds>
donor molecule, donor type, donor heavy atom, donor atom, acceptor molecule, acceptor atom, score
      P1  H  7997  8010       L1    13  0.66

> <Gold.PLP.Chemscore.Internal.Correction>
0.0223

> <Gold.Rescore>
     Score         DG    S(hbond)    S(metal)    S(lipo)     H(rot)  DE(clash)    DE(int)     intcor
     16.87     -17.35       0.46        0.00     127.44       1.79       0.01       0.47       ----

> <Gold.Chemscore.Fitness>
16.8658

> <Gold.Chemscore.DG>
-17.3459

> <Gold.Chemscore.ZeroCoef>
-5.4800

> <Gold.Chemscore.Hbond>
0.4624

> <Gold.Chemscore.Metal>
0.0000

> <Gold.Chemscore.Lipo>
127.4395

> <Gold.Chemscore.Internal_Hbond>
0.0000

> <Gold.Chemscore.DEClash>
0.0110

> <Gold.Chemscore.DEInternal>
0.4690

> <Gold.Chemscore.Rot>
1.7926

> <Gold.Chemscore.Internal.Correction>
   9.000000E+99

> <Gold.Chemscore.Hbonds>
donor molecule, donor type, donor heavy atom, donor atom, acceptor molecule, acceptor atom, score
      P1  H  7997  8010       L1    13  0.02

> <Gold.Chemscore.Hbond.Weighted>
-1.5445

> <Gold.Chemscore.Metal.Weighted>
-0.0000

> <Gold.Chemscore.Lipo.Weighted>
-14.9104

> <Gold.Chemscore.Internal_Hbond.Weighted>
0.0000

> <Gold.Chemscore.DEClash.Weighted>
0.0110

> <Gold.Chemscore.DEInternal.Weighted>
0.4690

> <Gold.Chemscore.Rot.Weighted>
4.5890

> <Gold.Chemscore.Internal.Correction.Weighted>
   9.000000E+99

> <Gold.Protein.RotatedTorsions>
[ 6907 6896 6895 6894 ] final   22.40 input  -60.11 | X-H torsion
[ 7974 7965 7964 7962 ] final  173.48 input  175.53 | X-H torsion
[ 8008 7997 7996 7995 ] final    3.65 input   59.86 | X-H torsion
[ 10167 10162 10161 10158 ] final   85.05 input  -65.29 | X-H torsion
[ 10718 10713 10712 10709 ] final  134.31 input   66.30 | X-H torsion
[ 10763 10752 10751 10750 ] final -140.62 input  -60.55 | X-H torsion
[ 11005 11000 10999 10996 ] final -116.05 input  -57.11 | X-H torsion

> <Gold.Protein.ActiveResidues>
 VAL166  LYS551  ARG553  GLY616  TRP617  ASP618  TYR619  PRO620  LYS621  CYS622 
 ASP623  PHE694  ASN695  SER759  ASP760  ASP761  ALA762  ILE779  LEU786  VAL792 
 PHE793  MET794  SER795  GLU796  ALA797  LYS798  CYS799  TRP800  GLU811  SER814 

> <Gold.Protein.RotatedAtoms>
  151.9266  135.0275  160.0525 H   0  0  0  0  0  0  0  0  0  0  0  0  # atno 6907 bound_to 6896
  152.2154  133.4938  159.5141 H   0  0  0  0  0  0  0  0  0  0  0  0  # atno 6908 bound_to 6896
  150.6986  134.1329  159.4119 H   0  0  0  0  0  0  0  0  0  0  0  0  # atno 6909 bound_to 6896
  144.7243  139.9654  143.6436 H   0  0  0  0  0  0  0  0  0  0  0  0  # atno 7974 bound_to 7965
  154.7063  140.2683  155.6672 H   0  0  0  0  0  0  0  0  0  0  0  0  # atno 8008 bound_to 7997
  156.2781  140.2762  156.1614 H   0  0  0  0  0  0  0  0  0  0  0  0  # atno 8009 bound_to 7997
  155.0696  140.0372  157.2594 H   0  0  0  0  0  0  0  0  0  0  0  0  # atno 8010 bound_to 7997
  139.9017  144.6325  150.8630 H   0  0  0  0  0  0  0  0  0  0  0  0  # atno 10167 bound_to 10162
  157.4685  131.1078  150.9832 H   0  0  0  0  0  0  0  0  0  0  0  0  # atno 10718 bound_to 10713
  154.8573  135.3548  154.5736 H   0  0  0  0  0  0  0  0  0  0  0  0  # atno 10763 bound_to 10752
  153.6348  135.7001  153.5267 H   0  0  0  0  0  0  0  0  0  0  0  0  # atno 10764 bound_to 10752
  153.3019  135.4204  155.1219 H   0  0  0  0  0  0  0  0  0  0  0  0  # atno 10765 bound_to 10752
  141.0447  133.9781  157.2937 H   0  0  0  0  0  0  0  0  0  0  0  0  # atno 11005 bound_to 11000
  146.0605  139.3598  143.0584 LP  0  0  0  0  0  0  0  0  0  0  0  0  # atno 17320 bound_to 7965
  145.8099  140.9731  143.0954 LP  0  0  0  0  0  0  0  0  0  0  0  0  # atno 17321 bound_to 7965
  140.7705  143.3432  151.2165 LP  0  0  0  0  0  0  0  0  0  0  0  0  # atno 17342 bound_to 10162
  139.7019  143.9518  152.2909 LP  0  0  0  0  0  0  0  0  0  0  0  0  # atno 17343 bound_to 10162
  157.0604  130.5823  149.5385 LP  0  0  0  0  0  0  0  0  0  0  0  0  # atno 17370 bound_to 10713
  156.0062  130.5149  150.7837 LP  0  0  0  0  0  0  0  0  0  0  0  0  # atno 17371 bound_to 10713
  139.9303  135.0200  156.8376 LP  0  0  0  0  0  0  0  0  0  0  0  0  # atno 17394 bound_to 11000
  140.6168  134.0031  155.7601 LP  0  0  0  0  0  0  0  0  0  0  0  0  # atno 17395 bound_to 11000

$$$$
