AV-unprocessed.smi:618|AV-procd|sdf|3083|dock7
  -GOLD-   22720 0 03D 1   1.00000     0.00000
 Structure written by MMmdl.
 40 42  0  0  0  0  0  0  0  0  1 V2000
  150.7806  134.9025  155.9499 O   0  0  0  0  0  0  0  0  0  0  0  0
  150.2553  135.2918  154.9074 C   0  0  0  0  0  0  0  0  0  0  0  0
  150.1891  136.5806  154.5454 N   0  0  0  0  0  0  0  0  0  0  0  0
  150.7501  137.6997  155.2952 C   0  0  0  0  0  0  0  0  0  0  0  0
  150.6300  139.0208  154.5064 C   0  0  1  0  0  0  0  0  0  0  0  0
  149.3419  139.8084  154.8465 C   0  0  0  0  0  0  0  0  0  0  0  0
  149.4628  140.4608  156.1365 N   0  0  0  0  0  0  0  0  0  0  0  0
  148.3662  141.3101  156.5403 C   0  0  0  0  0  0  0  0  0  0  0  0
  148.9428  142.1564  157.6884 C   0  0  0  0  0  0  0  0  0  0  0  0
  150.4730  142.0722  157.4975 C   0  0  0  0  0  0  0  0  0  0  0  0
  150.6087  141.3276  156.1680 C   0  0  1  0  0  0  0  0  0  0  0  0
  151.8973  140.5296  155.9356 C   0  0  0  0  0  0  0  0  0  0  0  0
  151.7896  139.8521  154.6791 O   0  0  0  0  0  0  0  0  0  0  0  0
  149.6956  134.4995  153.9775 N   0  0  0  0  0  0  0  0  0  0  0  0
  149.5762  133.0835  153.9784 C   0  0  0  0  0  0  0  0  0  0  0  0
  150.3453  132.2189  154.7948 C   0  0  0  0  0  0  0  0  0  0  0  0
  150.1207  130.8311  154.7147 C   0  0  0  0  0  0  0  0  0  0  0  0
  149.1321  130.3593  153.8295 C   0  0  0  0  0  0  0  0  0  0  0  0
  148.3822  131.1726  153.0561 N   0  0  0  0  0  0  0  0  0  0  0  0
  148.6033  132.5018  153.1381 C   0  0  0  0  0  0  0  0  0  0  0  0
  149.7383  136.8042  153.6704 H   0  0  0  0  0  0  0  0  0  0  0  0
  150.1859  137.7811  156.2246 H   0  0  0  0  0  0  0  0  0  0  0  0
  151.7818  137.5025  155.5901 H   0  0  0  0  0  0  0  0  0  0  0  0
  150.5860  138.7635  153.4475 H   0  0  0  0  0  0  0  0  0  0  0  0
  149.1676  140.5589  154.0740 H   0  0  0  0  0  0  0  0  0  0  0  0
  148.4754  139.1464  154.8387 H   0  0  0  0  0  0  0  0  0  0  0  0
  148.0687  141.9592  155.7151 H   0  0  0  0  0  0  0  0  0  0  0  0
  147.4959  140.7272  156.8435 H   0  0  0  0  0  0  0  0  0  0  0  0
  148.5804  143.1837  157.6402 H   0  0  0  0  0  0  0  0  0  0  0  0
  148.6585  141.7451  158.6577 H   0  0  0  0  0  0  0  0  0  0  0  0
  150.9496  143.0525  157.4706 H   0  0  0  0  0  0  0  0  0  0  0  0
  150.9213  141.4982  158.3096 H   0  0  0  0  0  0  0  0  0  0  0  0
  150.5171  142.0629  155.3657 H   0  0  0  0  0  0  0  0  0  0  0  0
  152.7616  141.1930  155.9105 H   0  0  0  0  0  0  0  0  0  0  0  0
  152.0648  139.8165  156.7427 H   0  0  0  0  0  0  0  0  0  0  0  0
  149.3767  134.9598  153.1374 H   0  0  0  0  0  0  0  0  0  0  0  0
  151.0869  132.5882  155.4858 H   0  0  0  0  0  0  0  0  0  0  0  0
  150.6908  130.1437  155.3221 H   0  0  0  0  0  0  0  0  0  0  0  0
  148.9341  129.3011  153.7448 H   0  0  0  0  0  0  0  0  0  0  0  0
  147.9836  133.1220  152.5064 H   0  0  0  0  0  0  0  0  0  0  0  0
  1  2  2  0  0  0  0
  2  3  1  0  0  0  0
  2 14  1  0  0  0  0
  3  4  1  0  0  0  0
  3 21  1  0  0  0  0
  4  5  1  0  0  0  0
  4 22  1  0  0  0  0
  4 23  1  0  0  0  0
  5 13  1  0  0  0  0
  5  6  1  0  0  0  0
  5 24  1  0  0  0  0
  6  7  1  0  0  0  0
  6 25  1  0  0  0  0
  6 26  1  0  0  0  0
  7 11  1  0  0  0  0
  7  8  1  0  0  0  0
  8  9  1  0  0  0  0
  8 27  1  0  0  0  0
  8 28  1  0  0  0  0
  9 10  1  0  0  0  0
  9 29  1  0  0  0  0
  9 30  1  0  0  0  0
 10 11  1  0  0  0  0
 10 31  1  0  0  0  0
 10 32  1  0  0  0  0
 11 12  1  0  0  0  0
 11 33  1  0  0  0  0
 12 13  1  0  0  0  0
 12 34  1  0  0  0  0
 12 35  1  0  0  0  0
 14 15  1  0  0  0  0
 14 36  1  0  0  0  0
 15 20  1  0  0  0  0
 15 16  2  0  0  0  0
 16 17  1  0  0  0  0
 16 37  1  0  0  0  0
 17 18  2  0  0  0  0
 17 38  1  0  0  0  0
 18 19  1  0  0  0  0
 18 39  1  0  0  0  0
 19 20  2  0  0  0  0
 20 40  1  0  0  0  0
M  END
> <s_m_source_file>
AV-unprocessed.smi

> <i_m_source_file_index>
618

> <i_lp_mmshare_version>
43012

> <i_f3d_flags>
0

> <s_epik_input>
W2NIXTFuW2NIXVtjSF1bY0hdYzFbTkhdQyg9TylbTkhdW0NIMl1bQ0BIXShbQ0gyXTIpT1tDSDJdW0NAQEhdKE4yMylbQ0gyXVtDSDJdW0NIMl0z

> <s_epik_cmdline>
J2VwaWtfcHl0aG9uJywgJy1waCcsICc3LjAnLCAnLXRuJywgJzgnLCAnLW1hJywgJzIwMCcsICctbWV0YWxfYmluZGluZycsICctaW1hZScsICc8aW5maWxlLm1hZT4nLCAnLW9tYWUnLCAnPG91dGZpbGUubWFlPic=

> <r_epik_Ionization_Penalty>
1.07277

> <r_epik_Ionization_Penalty_Charging>
0

> <r_epik_Ionization_Penalty_Neutral>
1.07277

> <r_epik_State_Penalty>
1.13623

> <r_epik_Charging_Adjusted_Penalty>
1.13623

> <i_epik_Tot_Q>
0

> <i_epik_Tot_abs_Q>
0

> <r_epik_Metal_State_Penalty>
1.13277

> <b_epik_Metal_Only>
0

> <s_lp_Force_Field>
OPLS_2005

> <r_lp_Energy>
52.4756

> <b_lp_Chiralities_Consistent>
1

> <s_lp_Variant>
AV-unprocessed.smi:618-10

> <Gold.Version>
5.8.1

> <Gold.Id.Protein>
6NUR|6NUR_protein|mol2

> <Gold.PLP.Fitness>
40.5578

> <Gold.PLP.PLP>
-33.1445

> <Gold.PLP.part.hbond>
-3.0000

> <Gold.PLP.part.metal>
0.0000

> <Gold.PLP.part.buried>
-4.5757

> <Gold.PLP.part.nonpolar>
-25.8828

> <Gold.PLP.part.repulsive>
0.3011

> <Gold.PLP.ligand.clash>
0.0000

> <Gold.PLP.ligand.torsion>
0.5797

> <Gold.PLP.Chemscore.Hbond>
2.8548

> <Gold.PLP.Chemscore.CHOScore>
0.0000

> <Gold.PLP.Chemscore.Metal>
0.0000

> <Gold.Chemscore.Hbonds>
donor molecule, donor type, donor heavy atom, donor atom, acceptor molecule, acceptor atom, score
      L1  H     3    21       P1  7948  1.00
      L1  H    14    36       P1  7948  0.40
      P1  H  7989  7998       L1    13  1.00

> <Gold.PLP.Chemscore.Internal.Correction>
0.0083

> <Gold.Rescore>
     Score         DG    S(hbond)    S(metal)    S(lipo)     H(rot)  DE(clash)    DE(int)     intcor
     15.69     -17.33       2.40        0.00      60.10       1.25       0.00       1.64       ----

> <Gold.Chemscore.Fitness>
15.6910

> <Gold.Chemscore.DG>
-17.3281

> <Gold.Chemscore.ZeroCoef>
-5.4800

> <Gold.Chemscore.Hbond>
2.3973

> <Gold.Chemscore.Metal>
0.0000

> <Gold.Chemscore.Lipo>
60.0951

> <Gold.Chemscore.Internal_Hbond>
0.0000

> <Gold.Chemscore.DEClash>
0.0000

> <Gold.Chemscore.DEInternal>
1.6371

> <Gold.Chemscore.Rot>
1.2461

> <Gold.Chemscore.Internal.Correction>
   9.000000E+99

> <Gold.Chemscore.Hbonds>
donor molecule, donor type, donor heavy atom, donor atom, acceptor molecule, acceptor atom, score
      L1  H     3    21       P1  7948  0.54
      L1  H    14    36       P1  7948  0.01
      P1  H  7989  7998       L1    13  0.29

> <Gold.Chemscore.Hbond.Weighted>
-8.0071

> <Gold.Chemscore.Metal.Weighted>
-0.0000

> <Gold.Chemscore.Lipo.Weighted>
-7.0311

> <Gold.Chemscore.Internal_Hbond.Weighted>
0.0000

> <Gold.Chemscore.DEClash.Weighted>
0.0000

> <Gold.Chemscore.DEInternal.Weighted>
1.6371

> <Gold.Chemscore.Rot.Weighted>
3.1901

> <Gold.Chemscore.Internal.Correction.Weighted>
   9.000000E+99

> <Gold.Protein.RotatedTorsions>
[ 6907 6896 6895 6894 ] final  119.44 input  -60.11 | X-H torsion
[ 7974 7965 7964 7962 ] final -146.48 input  175.53 | X-H torsion
[ 8008 7997 7996 7995 ] final  -58.53 input   59.86 | X-H torsion
[ 10167 10162 10161 10158 ] final  136.59 input  -65.29 | X-H torsion
[ 10718 10713 10712 10709 ] final  107.86 input   66.30 | X-H torsion
[ 10763 10752 10751 10750 ] final  -20.33 input  -60.55 | X-H torsion
[ 11005 11000 10999 10996 ] final -166.33 input  -57.11 | X-H torsion

> <Gold.Protein.ActiveResidues>
 VAL166  LYS551  ARG553  GLY616  TRP617  ASP618  TYR619  PRO620  LYS621  CYS622 
 ASP623  PHE694  ASN695  SER759  ASP760  ASP761  ALA762  ILE779  LEU786  VAL792 
 PHE793  MET794  SER795  GLU796  ALA797  LYS798  CYS799  TRP800  GLU811  SER814 

> <Gold.Protein.RotatedAtoms>
  152.4471  133.7558  159.6718 H   0  0  0  0  0  0  0  0  0  0  0  0  # atno 6907 bound_to 6896
  150.8374  133.7981  159.3080 H   0  0  0  0  0  0  0  0  0  0  0  0  # atno 6908 bound_to 6896
  151.5616  135.1068  160.0026 H   0  0  0  0  0  0  0  0  0  0  0  0  # atno 6909 bound_to 6896
  144.8157  140.5451  143.5612 H   0  0  0  0  0  0  0  0  0  0  0  0  # atno 7974 bound_to 7965
  154.4313  140.1082  156.5971 H   0  0  0  0  0  0  0  0  0  0  0  0  # atno 8008 bound_to 7997
  155.5950  140.3492  155.4558 H   0  0  0  0  0  0  0  0  0  0  0  0  # atno 8009 bound_to 7997
  156.0217  140.1241  157.0340 H   0  0  0  0  0  0  0  0  0  0  0  0  # atno 8010 bound_to 7997
  139.5174  144.6456  151.5448 H   0  0  0  0  0  0  0  0  0  0  0  0  # atno 10167 bound_to 10162
  157.6611  131.0881  150.6219 H   0  0  0  0  0  0  0  0  0  0  0  0  # atno 10718 bound_to 10713
  153.6187  135.6993  153.5318 H   0  0  0  0  0  0  0  0  0  0  0  0  # atno 10763 bound_to 10752
  153.2955  135.4144  155.1205 H   0  0  0  0  0  0  0  0  0  0  0  0  # atno 10764 bound_to 10752
  154.8548  135.3636  154.5728 H   0  0  0  0  0  0  0  0  0  0  0  0  # atno 10765 bound_to 10752
  140.5657  134.5288  157.5152 H   0  0  0  0  0  0  0  0  0  0  0  0  # atno 11005 bound_to 11000
  145.5221  139.1476  143.3546 LP  0  0  0  0  0  0  0  0  0  0  0  0  # atno 17320 bound_to 7965
  146.2459  140.5362  142.8914 LP  0  0  0  0  0  0  0  0  0  0  0  0  # atno 17321 bound_to 7965
  140.6240  143.9204  150.6549 LP  0  0  0  0  0  0  0  0  0  0  0  0  # atno 17342 bound_to 10162
  140.2486  143.3610  152.1425 LP  0  0  0  0  0  0  0  0  0  0  0  0  # atno 17343 bound_to 10162
  156.6522  130.4488  149.5716 LP  0  0  0  0  0  0  0  0  0  0  0  0  # atno 17370 bound_to 10713
  156.2129  130.6690  151.1289 LP  0  0  0  0  0  0  0  0  0  0  0  0  # atno 17371 bound_to 10713
  139.9386  134.7829  156.0738 LP  0  0  0  0  0  0  0  0  0  0  0  0  # atno 17394 bound_to 11000
  141.1087  133.6651  156.2926 LP  0  0  0  0  0  0  0  0  0  0  0  0  # atno 17395 bound_to 11000

$$$$
