AV-unprocessed.smi:99|AV-procd|sdf|893|dock6
  -GOLD-   2262017383D 1   1.00000     0.00000
 Structure written by MMmdl.
 52 55  0  0  0  0  0  0  0  0  2 V2000
  146.7760  136.2376  158.0889 O   0  0  0  0  0  0  0  0  0  0  0  0
  147.0155  135.2192  158.7411 C   0  0  0  0  0  0  0  0  0  0  0  0
  147.2883  134.0234  158.1827 O   0  0  0  0  0  0  0  0  0  0  0  0
  147.2739  133.8820  156.7718 C   0  0  0  0  0  0  0  0  0  0  0  0
  148.6322  134.3268  156.2022 C   0  0  2  0  0  0  0  0  0  0  0  0
  149.0575  135.4882  156.9162 O   0  0  0  0  0  0  0  0  0  0  0  0
  148.8680  136.6559  156.1625 C   0  0  1  0  0  0  0  0  0  0  0  0
  150.2114  137.2985  155.8918 N   0  0  0  0  0  0  0  0  0  0  0  0
  150.6880  137.4407  154.5990 C   0  0  0  0  0  0  0  0  0  0  0  0
  151.8774  138.0257  154.3493 C   0  0  0  0  0  0  0  0  0  0  0  0
  152.6799  138.5220  155.4630 C   0  0  0  0  0  0  0  0  0  0  0  0
  153.7681  139.0430  155.2269 O   0  0  0  0  0  0  0  0  0  0  0  0
  152.1807  138.3858  156.7252 N   0  5  0  0  0  0  0  0  0  0  0  0
  150.9741  137.8016  156.9808 C   0  0  0  0  0  0  0  0  0  0  0  0
  150.5054  137.6939  158.1141 O   0  0  0  0  0  0  0  0  0  0  0  0
  148.1985  136.2638  154.8387 C   0  0  2  0  0  0  0  0  0  0  0  0
  146.7996  136.4659  154.9110 O   0  0  0  0  0  0  0  0  0  0  0  0
  148.5866  134.7954  154.7465 C   0  0  2  0  0  0  0  0  0  0  0  0
  147.7471  134.0243  153.8944 O   0  0  0  0  0  0  0  0  0  0  0  0
  148.0229  132.7287  153.6347 C   0  0  0  0  0  0  0  0  0  0  0  0
  148.9970  132.1298  154.0947 O   0  0  0  0  0  0  0  0  0  0  0  0
  147.0205  132.0971  152.7293 C   0  0  0  0  0  0  0  0  0  0  0  0
  146.2817  132.9096  151.8379 C   0  0  0  0  0  0  0  0  0  0  0  0
  145.3304  132.3403  150.9693 C   0  0  0  0  0  0  0  0  0  0  0  0
  145.1064  130.9512  150.9819 C   0  0  0  0  0  0  0  0  0  0  0  0
  145.8337  130.1323  151.8651 C   0  0  0  0  0  0  0  0  0  0  0  0
  146.7852  130.6999  152.7345 C   0  0  0  0  0  0  0  0  0  0  0  0
  147.0367  135.1843  160.2323 C   0  0  0  0  0  0  0  0  0  0  0  0
  147.3734  136.3571  160.9481 C   0  0  0  0  0  0  0  0  0  0  0  0
  147.4042  136.3547  162.3563 C   0  0  0  0  0  0  0  0  0  0  0  0
  147.0966  135.1798  163.0663 C   0  0  0  0  0  0  0  0  0  0  0  0
  146.7588  134.0069  162.3663 C   0  0  0  0  0  0  0  0  0  0  0  0
  146.7289  134.0069  160.9579 C   0  0  0  0  0  0  0  0  0  0  0  0
  147.0892  132.8337  156.5341 H   0  0  0  0  0  0  0  0  0  0  0  0
  146.4608  134.4659  156.3392 H   0  0  0  0  0  0  0  0  0  0  0  0
  149.3592  133.5217  156.3135 H   0  0  0  0  0  0  0  0  0  0  0  0
  148.3057  137.3787  156.7562 H   0  0  0  0  0  0  0  0  0  0  0  0
  150.1039  137.0865  153.7631 H   0  0  0  0  0  0  0  0  0  0  0  0
  152.2324  138.1304  153.3347 H   0  0  0  0  0  0  0  0  0  0  0  0
  148.5906  136.8469  154.0043 H   0  0  0  0  0  0  0  0  0  0  0  0
  146.5906  137.2777  154.4756 H   0  0  0  0  0  0  0  0  0  0  0  0
  149.6111  134.7435  154.3739 H   0  0  0  0  0  0  0  0  0  0  0  0
  146.4371  133.9786  151.8103 H   0  0  0  0  0  0  0  0  0  0  0  0
  144.7728  132.9710  150.2925 H   0  0  0  0  0  0  0  0  0  0  0  0
  144.3774  130.5140  150.3156 H   0  0  0  0  0  0  0  0  0  0  0  0
  145.6624  129.0661  151.8766 H   0  0  0  0  0  0  0  0  0  0  0  0
  147.3255  130.0425  153.3999 H   0  0  0  0  0  0  0  0  0  0  0  0
  147.6136  137.2716  160.4248 H   0  0  0  0  0  0  0  0  0  0  0  0
  147.6646  137.2557  162.8919 H   0  0  0  0  0  0  0  0  0  0  0  0
  147.1196  135.1783  164.1462 H   0  0  0  0  0  0  0  0  0  0  0  0
  146.5218  133.1045  162.9103 H   0  0  0  0  0  0  0  0  0  0  0  0
  146.4654  133.0896  160.4518 H   0  0  0  0  0  0  0  0  0  0  0  0
  1  2  2  0  0  0  0
  2  3  1  0  0  0  0
  2 28  1  0  0  0  0
  3  4  1  0  0  0  0
  4  5  1  0  0  0  0
  4 34  1  0  0  0  0
  4 35  1  0  0  0  0
  5 18  1  0  0  0  0
  5  6  1  0  0  0  0
  5 36  1  0  0  0  0
  6  7  1  0  0  0  0
  7  8  1  0  0  0  0
  7 16  1  0  0  0  0
  7 37  1  0  0  0  0
  8 14  1  0  0  0  0
  8  9  1  0  0  0  0
  9 10  2  0  0  0  0
  9 38  1  0  0  0  0
 10 11  1  0  0  0  0
 10 39  1  0  0  0  0
 11 12  2  0  0  0  0
 11 13  1  0  0  0  0
 13 14  1  0  0  0  0
 14 15  2  0  0  0  0
 16 17  1  0  0  0  0
 16 18  1  0  0  0  0
 16 40  1  0  0  0  0
 17 41  1  0  0  0  0
 18 19  1  0  0  0  0
 18 42  1  0  0  0  0
 19 20  1  0  0  0  0
 20 21  2  0  0  0  0
 20 22  1  0  0  0  0
 22 27  1  0  0  0  0
 22 23  2  0  0  0  0
 23 24  1  0  0  0  0
 23 43  1  0  0  0  0
 24 25  2  0  0  0  0
 24 44  1  0  0  0  0
 25 26  1  0  0  0  0
 25 45  1  0  0  0  0
 26 27  2  0  0  0  0
 26 46  1  0  0  0  0
 27 47  1  0  0  0  0
 28 33  1  0  0  0  0
 28 29  2  0  0  0  0
 29 30  1  0  0  0  0
 29 48  1  0  0  0  0
 30 31  2  0  0  0  0
 30 49  1  0  0  0  0
 31 32  1  0  0  0  0
 31 50  1  0  0  0  0
 32 33  2  0  0  0  0
 32 51  1  0  0  0  0
 33 52  1  0  0  0  0
M  CHG  1  13  -1
M  END
> <s_m_source_file>
AV-unprocessed.smi

> <i_m_source_file_index>
99

> <i_lp_mmshare_version>
43012

> <i_f3d_flags>
0

> <s_epik_input>
W2NIXTFbY0hdW2NIXVtjSF1bY0hdYzFDKD1PKU9bQ0gyXVtDQEBIXTJPW0NAQEhdKG4zW2NIXVtjSF1jKD1PKVtuSF1jMz1PKVtDQEBIXShbT0hdKVtDQEhdMk9DKD1PKWM0W2NIXVtjSF1bY0hdW2NIXVtjSF00

> <s_epik_cmdline>
J2VwaWtfcHl0aG9uJywgJy1waCcsICc3LjAnLCAnLXRuJywgJzgnLCAnLW1hJywgJzIwMCcsICctbWV0YWxfYmluZGluZycsICctaW1hZScsICc8aW5maWxlLm1hZT4nLCAnLW9tYWUnLCAnPG91dGZpbGUubWFlPic=

> <r_lp_tautomer_probability>
1

> <r_epik_Ionization_Penalty>
2.89159

> <r_epik_Ionization_Penalty_Charging>
2.1077e-08

> <r_epik_Ionization_Penalty_Neutral>
2.89159

> <r_epik_State_Penalty>
2.88671

> <r_epik_Charging_Adjusted_Penalty>
2.88671

> <i_epik_Tot_Q>
-1

> <i_epik_Tot_abs_Q>
1

> <r_epik_Metal_State_Penalty>
0.0727308

> <b_epik_Metal_Only>
1

> <s_epik_Chemistry_Notes>
This compound has an ester and may undergo hydrolysis at high or low pH. This compound contains an acetal/aminal-like group ( X-CH(R)-Y where X, Y are N, S, or O) that may be acid/base labile, releasing an aldehyde.

> <s_lp_Force_Field>
OPLS_2005

> <r_lp_Energy>
46.9153

> <b_lp_Chiralities_Consistent>
1

> <s_lp_Variant>
AV-unprocessed.smi:99-29

> <Gold.Version>
5.8.1

> <Gold.Id.Protein>
6NUR|6NUR_protein|mol2

> <Gold.PLP.Fitness>
51.5232

> <Gold.PLP.PLP>
-47.3968

> <Gold.PLP.part.hbond>
-0.7658

> <Gold.PLP.part.metal>
0.0000

> <Gold.PLP.part.buried>
-6.5187

> <Gold.PLP.part.nonpolar>
-40.3059

> <Gold.PLP.part.repulsive>
0.1885

> <Gold.PLP.ligand.clash>
0.0000

> <Gold.PLP.ligand.torsion>
1.0070

> <Gold.PLP.Chemscore.Hbond>
0.9760

> <Gold.PLP.Chemscore.CHOScore>
1.0244

> <Gold.PLP.Chemscore.Metal>
0.0000

> <Gold.Chemscore.Hbonds>
donor molecule, donor type, donor heavy atom, donor atom, acceptor molecule, acceptor atom, score
      P1  H  7997  8010       L1    12  0.82
      L1  C     9    38       P1  7948  1.00
      L1  C     9    38       P1  7949  0.06

> <Gold.PLP.Chemscore.Internal.Correction>
0.1391

> <Gold.Rescore>
     Score         DG    S(hbond)    S(metal)    S(lipo)     H(rot)  DE(clash)    DE(int)     intcor
     13.00     -14.66       0.97        0.00     119.27       3.13       0.05       1.61       ----

> <Gold.Chemscore.Fitness>
12.9981

> <Gold.Chemscore.DG>
-14.6610

> <Gold.Chemscore.ZeroCoef>
-5.4800

> <Gold.Chemscore.Hbond>
0.9733

> <Gold.Chemscore.Metal>
0.0000

> <Gold.Chemscore.Lipo>
119.2717

> <Gold.Chemscore.Internal_Hbond>
0.0000

> <Gold.Chemscore.DEClash>
0.0533

> <Gold.Chemscore.DEInternal>
1.6096

> <Gold.Chemscore.Rot>
3.1346

> <Gold.Chemscore.Internal.Correction>
   9.000000E+99

> <Gold.Chemscore.Hbonds>
donor molecule, donor type, donor heavy atom, donor atom, acceptor molecule, acceptor atom, score
      P1  H  7997  8010       L1    12  0.77

> <Gold.Chemscore.Hbond.Weighted>
-3.2508

> <Gold.Chemscore.Metal.Weighted>
-0.0000

> <Gold.Chemscore.Lipo.Weighted>
-13.9548

> <Gold.Chemscore.Internal_Hbond.Weighted>
0.0000

> <Gold.Chemscore.DEClash.Weighted>
0.0533

> <Gold.Chemscore.DEInternal.Weighted>
1.6096

> <Gold.Chemscore.Rot.Weighted>
8.0246

> <Gold.Chemscore.Internal.Correction.Weighted>
   9.000000E+99

> <Gold.Protein.RotatedTorsions>
[ 6907 6896 6895 6894 ] final -179.64 input  -60.11 | X-H torsion
[ 7974 7965 7964 7962 ] final  107.10 input  175.53 | X-H torsion
[ 8008 7997 7996 7995 ] final   97.27 input   59.86 | X-H torsion
[ 10167 10162 10161 10158 ] final -115.38 input  -65.29 | X-H torsion
[ 10718 10713 10712 10709 ] final  -34.86 input   66.30 | X-H torsion
[ 10763 10752 10751 10750 ] final   17.25 input  -60.55 | X-H torsion
[ 11005 11000 10999 10996 ] final   -8.71 input  -57.11 | X-H torsion

> <Gold.Protein.ActiveResidues>
 VAL166  LYS551  ARG553  GLY616  TRP617  ASP618  TYR619  PRO620  LYS621  CYS622 
 ASP623  PHE694  ASN695  SER759  ASP760  ASP761  ALA762  ILE779  LEU786  VAL792 
 PHE793  MET794  SER795  GLU796  ALA797  LYS798  CYS799  TRP800  GLU811  SER814 

> <Gold.Protein.RotatedAtoms>
  151.6568  133.3318  159.3164 H   0  0  0  0  0  0  0  0  0  0  0  0  # atno 6907 bound_to 6896
  150.7933  134.6978  159.6542 H   0  0  0  0  0  0  0  0  0  0  0  0  # atno 6908 bound_to 6896
  152.4016  134.6280  160.0119 H   0  0  0  0  0  0  0  0  0  0  0  0  # atno 6909 bound_to 6896
  145.2980  139.2578  143.3829 H   0  0  0  0  0  0  0  0  0  0  0  0  # atno 7974 bound_to 7965
  156.0884  140.3261  155.7783 H   0  0  0  0  0  0  0  0  0  0  0  0  # atno 8008 bound_to 7997
  155.5038  140.0571  157.2952 H   0  0  0  0  0  0  0  0  0  0  0  0  # atno 8009 bound_to 7997
  154.4623  140.1972  156.0229 H   0  0  0  0  0  0  0  0  0  0  0  0  # atno 8010 bound_to 7997
  140.0907  143.4702  152.1871 H   0  0  0  0  0  0  0  0  0  0  0  0  # atno 10167 bound_to 10162
  156.3455  130.4300  149.7749 H   0  0  0  0  0  0  0  0  0  0  0  0  # atno 10718 bound_to 10713
  153.1355  135.6749  153.9109 H   0  0  0  0  0  0  0  0  0  0  0  0  # atno 10763 bound_to 10752
  153.8582  135.3084  155.3437 H   0  0  0  0  0  0  0  0  0  0  0  0  # atno 10764 bound_to 10752
  154.7744  135.4922  153.9797 H   0  0  0  0  0  0  0  0  0  0  0  0  # atno 10765 bound_to 10752
  140.7264  133.8785  155.8859 H   0  0  0  0  0  0  0  0  0  0  0  0  # atno 11005 bound_to 11000
  146.3162  140.3487  142.8654 LP  0  0  0  0  0  0  0  0  0  0  0  0  # atno 17320 bound_to 7965
  144.9117  140.7765  143.5803 LP  0  0  0  0  0  0  0  0  0  0  0  0  # atno 17321 bound_to 7965
  139.5726  144.7471  151.3850 LP  0  0  0  0  0  0  0  0  0  0  0  0  # atno 17342 bound_to 10162
  140.7030  143.7585  150.7434 LP  0  0  0  0  0  0  0  0  0  0  0  0  # atno 17343 bound_to 10162
  156.4970  130.8111  151.3117 LP  0  0  0  0  0  0  0  0  0  0  0  0  # atno 17370 bound_to 10713
  157.7453  130.9957  150.2753 LP  0  0  0  0  0  0  0  0  0  0  0  0  # atno 17371 bound_to 10713
  140.9959  134.1216  157.4364 LP  0  0  0  0  0  0  0  0  0  0  0  0  # atno 17394 bound_to 11000
  139.8836  135.0054  156.6312 LP  0  0  0  0  0  0  0  0  0  0  0  0  # atno 17395 bound_to 11000

$$$$
