AV-unprocessed.smi:212|AV-procd|sdf|1630|dock4
  -GOLD-   2262019583D 1   1.00000     0.00000
 Structure written by MMmdl.
 65 68  0  0  0  0  0  0  0  0  2 V2000
  144.6754  135.3735  155.2358 C   0  0  0  0  0  0  0  0  0  0  0  0
  145.9275  135.9222  154.5310 C   0  0  1  0  0  0  0  0  0  0  0  0
  146.5131  134.9159  153.5170 C   0  0  0  0  0  0  0  0  0  0  0  0
  145.6676  134.8077  152.2998 N   0  3  2  0  0  0  0  0  0  0  0  0
  146.1292  133.7572  151.3547 C   0  0  0  0  0  0  0  0  0  0  0  0
  144.9820  133.2099  150.4736 C   0  0  0  0  0  0  0  0  0  0  0  0
  145.4580  131.9749  149.6906 C   0  0  0  0  0  0  0  0  0  0  0  0
  143.7256  132.8672  151.2961 C   0  0  0  0  0  0  0  0  0  0  0  0
  144.6319  134.1867  149.5129 O   0  0  0  0  0  0  0  0  0  0  0  0
  145.4450  136.1255  151.6520 C   0  0  0  0  0  0  0  0  0  0  0  0
  144.8563  137.1374  152.6515 C   0  0  0  0  0  0  0  0  0  0  0  0
  145.6584  137.2041  153.8744 N   0  0  0  0  0  0  0  0  0  0  0  0
  146.6396  138.1402  153.9645 C   0  0  0  0  0  0  0  0  0  0  0  0
  146.4110  139.4076  153.5283 N   0  0  0  0  0  0  0  0  0  0  0  0
  147.3725  140.3325  153.6032 C   0  0  0  0  0  0  0  0  0  0  0  0
  148.6147  140.2081  154.0734 N   0  0  0  0  0  0  0  0  0  0  0  0
  148.8475  138.9421  154.5226 C   0  0  0  0  0  0  0  0  0  0  0  0
  147.9262  137.8573  154.5047 C   0  0  0  0  0  0  0  0  0  0  0  0
  148.5192  136.7252  155.0526 N   0  0  0  0  0  0  0  0  0  0  0  0
  149.7240  137.1162  155.3677 C   0  0  0  0  0  0  0  0  0  0  0  0
  150.0026  138.4353  155.0897 N   0  0  0  0  0  0  0  0  0  0  0  0
  151.2509  139.1357  155.3342 C   0  0  0  0  0  0  0  0  0  0  0  0
  151.5854  139.2522  156.8438 C   0  0  1  0  0  0  0  0  0  0  0  0
  152.6565  138.2197  157.2645 C   0  0  0  0  0  0  0  0  0  0  0  0
  153.8561  138.4021  156.5417 O   0  0  0  0  0  0  0  0  0  0  0  0
  151.9638  140.6939  157.2814 C   0  0  1  0  0  0  0  0  0  0  0  0
  150.9750  141.7959  156.9161 C   0  0  0  0  0  0  0  0  0  0  0  0
  151.2431  142.8368  157.9937 C   0  0  0  0  0  0  0  0  0  0  0  0
  151.4282  142.0424  159.1533 O   0  0  0  0  0  0  0  0  0  0  0  0
  152.1845  140.8914  158.7923 C   0  0  0  0  0  0  0  0  0  0  0  0
  144.9033  134.4523  155.7726 H   0  0  0  0  0  0  0  0  0  0  0  0
  143.8716  135.1531  154.5332 H   0  0  0  0  0  0  0  0  0  0  0  0
  144.2944  136.0905  155.9635 H   0  0  0  0  0  0  0  0  0  0  0  0
  146.6819  136.0569  155.3058 H   0  0  0  0  0  0  0  0  0  0  0  0
  147.5154  135.2321  153.2221 H   0  0  0  0  0  0  0  0  0  0  0  0
  146.6177  133.9369  153.9869 H   0  0  0  0  0  0  0  0  0  0  0  0
  146.9412  134.1400  150.7334 H   0  0  0  0  0  0  0  0  0  0  0  0
  146.5621  132.9243  151.9113 H   0  0  0  0  0  0  0  0  0  0  0  0
  145.7407  131.1656  150.3650 H   0  0  0  0  0  0  0  0  0  0  0  0
  146.3259  132.2046  149.0710 H   0  0  0  0  0  0  0  0  0  0  0  0
  144.6763  131.5930  149.0324 H   0  0  0  0  0  0  0  0  0  0  0  0
  143.9476  132.1206  152.0593 H   0  0  0  0  0  0  0  0  0  0  0  0
  142.9351  132.4628  150.6626 H   0  0  0  0  0  0  0  0  0  0  0  0
  143.3179  133.7433  151.8013 H   0  0  0  0  0  0  0  0  0  0  0  0
  145.4085  134.4280  149.0304 H   0  0  0  0  0  0  0  0  0  0  0  0
  146.3907  136.4955  151.2535 H   0  0  0  0  0  0  0  0  0  0  0  0
  144.7683  136.0168  150.8045 H   0  0  0  0  0  0  0  0  0  0  0  0
  144.7613  138.1214  152.1901 H   0  0  0  0  0  0  0  0  0  0  0  0
  143.8431  136.8394  152.9209 H   0  0  0  0  0  0  0  0  0  0  0  0
  147.1091  141.3128  153.2342 H   0  0  0  0  0  0  0  0  0  0  0  0
  150.4443  136.4512  155.8220 H   0  0  0  0  0  0  0  0  0  0  0  0
  152.0432  138.6088  154.8026 H   0  0  0  0  0  0  0  0  0  0  0  0
  151.1696  140.1169  154.8678 H   0  0  0  0  0  0  0  0  0  0  0  0
  150.6748  139.0003  157.3897 H   0  0  0  0  0  0  0  0  0  0  0  0
  152.9013  138.3187  158.3216 H   0  0  0  0  0  0  0  0  0  0  0  0
  152.2956  137.2015  157.1162 H   0  0  0  0  0  0  0  0  0  0  0  0
  154.2957  137.5682  156.4722 H   0  0  0  0  0  0  0  0  0  0  0  0
  152.9129  140.9534  156.8100 H   0  0  0  0  0  0  0  0  0  0  0  0
  151.1239  142.1836  155.9079 H   0  0  0  0  0  0  0  0  0  0  0  0
  149.9423  141.4601  156.9985 H   0  0  0  0  0  0  0  0  0  0  0  0
  152.1550  143.3971  157.7806 H   0  0  0  0  0  0  0  0  0  0  0  0
  150.4212  143.5426  158.1145 H   0  0  0  0  0  0  0  0  0  0  0  0
  151.8772  140.0383  159.3962 H   0  0  0  0  0  0  0  0  0  0  0  0
  153.2398  141.0716  159.0020 H   0  0  0  0  0  0  0  0  0  0  0  0
  144.7622  134.5004  152.6249 H   0  0  0  0  0  0  0  0  0  0  0  0
  1  2  1  0  0  0  0
  1 31  1  0  0  0  0
  1 32  1  0  0  0  0
  1 33  1  0  0  0  0
  2 12  1  0  0  0  0
  2  3  1  0  0  0  0
  2 34  1  0  0  0  0
  3  4  1  0  0  0  0
  3 35  1  0  0  0  0
  3 36  1  0  0  0  0
  4  5  1  0  0  0  0
  4 10  1  0  0  0  0
  4 65  1  0  0  0  0
  5  6  1  0  0  0  0
  5 37  1  0  0  0  0
  5 38  1  0  0  0  0
  6  7  1  0  0  0  0
  6  8  1  0  0  0  0
  6  9  1  0  0  0  0
  7 39  1  0  0  0  0
  7 40  1  0  0  0  0
  7 41  1  0  0  0  0
  8 42  1  0  0  0  0
  8 43  1  0  0  0  0
  8 44  1  0  0  0  0
  9 45  1  0  0  0  0
 10 11  1  0  0  0  0
 10 46  1  0  0  0  0
 10 47  1  0  0  0  0
 11 12  1  0  0  0  0
 11 48  1  0  0  0  0
 11 49  1  0  0  0  0
 12 13  1  0  0  0  0
 13 18  1  0  0  0  0
 13 14  2  0  0  0  0
 14 15  1  0  0  0  0
 15 16  2  0  0  0  0
 15 50  1  0  0  0  0
 16 17  1  0  0  0  0
 17 21  1  0  0  0  0
 17 18  2  0  0  0  0
 18 19  1  0  0  0  0
 19 20  2  0  0  0  0
 20 21  1  0  0  0  0
 20 51  1  0  0  0  0
 21 22  1  0  0  0  0
 22 23  1  0  0  0  0
 22 52  1  0  0  0  0
 22 53  1  0  0  0  0
 23 24  1  0  0  0  0
 23 26  1  0  0  0  0
 23 54  1  0  0  0  0
 24 25  1  0  0  0  0
 24 55  1  0  0  0  0
 24 56  1  0  0  0  0
 25 57  1  0  0  0  0
 26 30  1  0  0  0  0
 26 27  1  0  0  0  0
 26 58  1  0  0  0  0
 27 28  1  0  0  0  0
 27 59  1  0  0  0  0
 27 60  1  0  0  0  0
 28 29  1  0  0  0  0
 28 61  1  0  0  0  0
 28 62  1  0  0  0  0
 29 30  1  0  0  0  0
 30 63  1  0  0  0  0
 30 64  1  0  0  0  0
M  CHG  1   4   1
M  END
> <s_m_source_file>
AV-unprocessed.smi

> <i_m_source_file_index>
212

> <i_lp_mmshare_version>
43012

> <i_f3d_flags>
0

> <s_epik_input>
W0NIM11bQ0BASF0xW0NIMl1OKFtDSDJdQyhbQ0gzXSkoW0NIM10pW09IXSlbQ0gyXVtDSDJdTjFjKG5bY0hdbjIpYyhjMjMpbltjSF1uM1tDSDJdW0NASF0oW0NIMl1bT0hdKVtDQEBIXTRbQ0gyXVtDSDJdT1tDSDJdNA==

> <s_epik_cmdline>
J2VwaWtfcHl0aG9uJywgJy1waCcsICc3LjAnLCAnLXRuJywgJzgnLCAnLW1hJywgJzIwMCcsICctbWV0YWxfYmluZGluZycsICctaW1hZScsICc8aW5maWxlLm1hZT4nLCAnLW9tYWUnLCAnPG91dGZpbGUubWFlPic=

> <r_lp_tautomer_probability>
1

> <r_epik_Ionization_Penalty>
0.00182193

> <r_epik_Ionization_Penalty_Charging>
0.00173996

> <r_epik_Ionization_Penalty_Neutral>
8.19718e-05

> <r_epik_State_Penalty>
-0

> <r_epik_Charging_Adjusted_Penalty>
0.00173996

> <i_epik_Tot_Q>
1

> <i_epik_Tot_abs_Q>
1

> <r_epik_Metal_State_Penalty>
-0

> <b_epik_Metal_Only>
0

> <s_lp_Force_Field>
OPLS_2005

> <r_lp_Energy>
60.3061

> <b_lp_Chiralities_Consistent>
1

> <s_lp_Variant>
AV-unprocessed.smi:212-14

> <Gold.Version>
5.8.1

> <Gold.Id.Protein>
6NUR|6NUR_protein|mol2

> <Gold.PLP.Fitness>
43.6127

> <Gold.PLP.PLP>
-40.0967

> <Gold.PLP.part.hbond>
-1.2766

> <Gold.PLP.part.metal>
0.0000

> <Gold.PLP.part.buried>
-8.3127

> <Gold.PLP.part.nonpolar>
-32.6967

> <Gold.PLP.part.repulsive>
2.0491

> <Gold.PLP.ligand.clash>
0.0243

> <Gold.PLP.ligand.torsion>
1.3819

> <Gold.PLP.Chemscore.Hbond>
1.6720

> <Gold.PLP.Chemscore.CHOScore>
0.0000

> <Gold.PLP.Chemscore.Metal>
0.0000

> <Gold.Chemscore.Hbonds>
donor molecule, donor type, donor heavy atom, donor atom, acceptor molecule, acceptor atom, score
      L1  H     9    45       P1  7921  1.00
      P1  H  7997  8008       L1    25  0.64

> <Gold.PLP.Chemscore.Internal.Correction>
1.2882

> <Gold.Rescore>
     Score         DG    S(hbond)    S(metal)    S(lipo)     H(rot)  DE(clash)    DE(int)     intcor
     10.50     -13.91       1.78        0.00      95.46       3.40       0.49       2.92       ----

> <Gold.Chemscore.Fitness>
10.5038

> <Gold.Chemscore.DG>
-13.9058

> <Gold.Chemscore.ZeroCoef>
-5.4800

> <Gold.Chemscore.Hbond>
1.7838

> <Gold.Chemscore.Metal>
0.0000

> <Gold.Chemscore.Lipo>
95.4562

> <Gold.Chemscore.Internal_Hbond>
0.0000

> <Gold.Chemscore.DEClash>
0.4864

> <Gold.Chemscore.DEInternal>
2.9156

> <Gold.Chemscore.Rot>
3.3986

> <Gold.Chemscore.Internal.Correction>
   9.000000E+99

> <Gold.Chemscore.Hbonds>
donor molecule, donor type, donor heavy atom, donor atom, acceptor molecule, acceptor atom, score
      L1  H     9    45       P1  7921  0.92
      P1  H  7997  8008       L1    25  0.55

> <Gold.Chemscore.Hbond.Weighted>
-5.9579

> <Gold.Chemscore.Metal.Weighted>
-0.0000

> <Gold.Chemscore.Lipo.Weighted>
-11.1684

> <Gold.Chemscore.Internal_Hbond.Weighted>
0.0000

> <Gold.Chemscore.DEClash.Weighted>
0.4864

> <Gold.Chemscore.DEInternal.Weighted>
2.9156

> <Gold.Chemscore.Rot.Weighted>
8.7005

> <Gold.Chemscore.Internal.Correction.Weighted>
   9.000000E+99

> <Gold.Protein.RotatedTorsions>
[ 6907 6896 6895 6894 ] final -116.81 input  -60.11 | X-H torsion
[ 7974 7965 7964 7962 ] final  -16.35 input  175.53 | X-H torsion
[ 8008 7997 7996 7995 ] final  -55.56 input   59.86 | X-H torsion
[ 10167 10162 10161 10158 ] final  -92.14 input  -65.29 | X-H torsion
[ 10718 10713 10712 10709 ] final   71.10 input   66.30 | X-H torsion
[ 10763 10752 10751 10750 ] final -162.17 input  -60.55 | X-H torsion
[ 11005 11000 10999 10996 ] final   62.60 input  -57.11 | X-H torsion

> <Gold.Protein.ActiveResidues>
 VAL166  LYS551  ARG553  GLY616  TRP617  ASP618  TYR619  PRO620  LYS621  CYS622 
 ASP623  PHE694  ASN695  SER759  ASP760  ASP761  ALA762  ILE779  LEU786  VAL792 
 PHE793  MET794  SER795  GLU796  ALA797  LYS798  CYS799  TRP800  GLU811  SER814 

> <Gold.Protein.RotatedAtoms>
  150.8085  133.8465  159.3193 H   0  0  0  0  0  0  0  0  0  0  0  0  # atno 6907 bound_to 6896
  151.6257  135.1026  160.0120 H   0  0  0  0  0  0  0  0  0  0  0  0  # atno 6908 bound_to 6896
  152.4177  133.7024  159.6488 H   0  0  0  0  0  0  0  0  0  0  0  0  # atno 6909 bound_to 6896
  146.1991  140.3624  142.8430 H   0  0  0  0  0  0  0  0  0  0  0  0  # atno 7974 bound_to 7965
  154.4199  140.1150  156.5497 H   0  0  0  0  0  0  0  0  0  0  0  0  # atno 8008 bound_to 7997
  155.6423  140.3496  155.4700 H   0  0  0  0  0  0  0  0  0  0  0  0  # atno 8009 bound_to 7997
  155.9861  140.1170  157.0672 H   0  0  0  0  0  0  0  0  0  0  0  0  # atno 8010 bound_to 7997
  140.3378  143.2959  151.9870 H   0  0  0  0  0  0  0  0  0  0  0  0  # atno 10167 bound_to 10162
  157.6434  130.9511  150.0742 H   0  0  0  0  0  0  0  0  0  0  0  0  # atno 10718 bound_to 10713
  154.7238  135.3031  154.9004 H   0  0  0  0  0  0  0  0  0  0  0  0  # atno 10763 bound_to 10752
  153.9867  135.6723  153.4756 H   0  0  0  0  0  0  0  0  0  0  0  0  # atno 10764 bound_to 10752
  153.0857  135.4985  154.8510 H   0  0  0  0  0  0  0  0  0  0  0  0  # atno 10765 bound_to 10752
  140.0081  134.6339  155.9824 H   0  0  0  0  0  0  0  0  0  0  0  0  # atno 11005 bound_to 11000
  144.8644  140.7185  143.6086 LP  0  0  0  0  0  0  0  0  0  0  0  0  # atno 17320 bound_to 7965
  145.3544  139.1698  143.4417 LP  0  0  0  0  0  0  0  0  0  0  0  0  # atno 17321 bound_to 7965
  139.4845  144.6182  151.7305 LP  0  0  0  0  0  0  0  0  0  0  0  0  # atno 17342 bound_to 10162
  140.5338  144.0689  150.6063 LP  0  0  0  0  0  0  0  0  0  0  0  0  # atno 17343 bound_to 10162
  156.1737  130.3647  149.9129 LP  0  0  0  0  0  0  0  0  0  0  0  0  # atno 17370 bound_to 10713
  156.7098  130.8966  151.3608 LP  0  0  0  0  0  0  0  0  0  0  0  0  # atno 17371 bound_to 10713
  141.1691  133.6537  156.4587 LP  0  0  0  0  0  0  0  0  0  0  0  0  # atno 17394 bound_to 11000
  140.4605  134.6846  157.5083 LP  0  0  0  0  0  0  0  0  0  0  0  0  # atno 17395 bound_to 11000

$$$$
