AV-unprocessed.smi:943|AV-procd|sdf|4230|dock4
  -GOLD-   22720 2133D 1   1.00000     0.00000
 Structure written by MMmdl.
 43 44  0  0  0  0  0  0  0  0  1 V2000
  152.1656  139.1609  156.8000 C   0  0  0  0  0  0  0  0  0  0  0  0
  152.1312  139.1389  158.3377 C   0  0  1  0  0  0  0  0  0  0  0  0
  151.3899  140.3818  158.8874 C   0  0  0  0  0  0  0  0  0  0  0  0
  152.0430  141.7564  158.6036 C   0  0  0  0  0  0  0  0  0  0  0  0
  152.3211  142.5013  159.9260 C   0  0  0  0  0  0  0  0  0  0  0  0
  152.9805  143.8690  159.6873 C   0  0  0  0  0  0  0  0  0  0  0  0
  152.1298  144.7397  158.7513 C   0  0  0  0  0  0  0  0  0  0  0  0
  151.8504  144.0132  157.4275 C   0  0  0  0  0  0  0  0  0  0  0  0
  151.1928  142.6442  157.6676 C   0  0  0  0  0  0  0  0  0  0  0  0
  151.5052  137.8260  158.8306 C   0  0  0  0  0  0  0  0  0  0  0  0
  152.1187  137.0999  159.6135 O   0  0  0  0  0  0  0  0  0  0  0  0
  150.2869  137.5302  158.3559 N   0  0  0  0  0  0  0  0  0  0  0  0
  149.5437  136.3240  158.6907 C   0  0  0  0  0  0  0  0  0  0  0  0
  148.1411  136.6782  159.2028 C   0  0  0  0  0  0  0  0  0  0  0  0
  147.8854  136.1367  160.5770 C   0  0  0  0  0  0  0  0  0  0  0  0
  147.9044  134.8163  160.9579 C   0  0  0  0  0  0  0  0  0  0  0  0
  147.5589  134.6189  162.6556 S   0  0  0  0  0  0  0  0  0  0  0  0
  147.4019  136.3631  162.7772 C   0  0  0  0  0  0  0  0  0  0  0  0
  147.5960  137.0128  161.6290 N   0  0  0  0  0  0  0  0  0  0  0  0
  152.6838  138.2878  156.4012 H   0  0  0  0  0  0  0  0  0  0  0  0
  152.6895  140.0446  156.4348 H   0  0  0  0  0  0  0  0  0  0  0  0
  151.1611  139.1749  156.3750 H   0  0  0  0  0  0  0  0  0  0  0  0
  153.1670  139.1748  158.6769 H   0  0  0  0  0  0  0  0  0  0  0  0
  150.3761  140.3885  158.4848 H   0  0  0  0  0  0  0  0  0  0  0  0
  151.2722  140.2678  159.9663 H   0  0  0  0  0  0  0  0  0  0  0  0
  153.0078  141.5897  158.1233 H   0  0  0  0  0  0  0  0  0  0  0  0
  151.3884  142.6402  160.4743 H   0  0  0  0  0  0  0  0  0  0  0  0
  152.9656  141.8973  160.5654 H   0  0  0  0  0  0  0  0  0  0  0  0
  153.1281  144.3809  160.6387 H   0  0  0  0  0  0  0  0  0  0  0  0
  153.9719  143.7270  159.2554 H   0  0  0  0  0  0  0  0  0  0  0  0
  151.1862  144.9883  159.2388 H   0  0  0  0  0  0  0  0  0  0  0  0
  152.6377  145.6849  158.5580 H   0  0  0  0  0  0  0  0  0  0  0  0
  151.2096  144.6278  156.7946 H   0  0  0  0  0  0  0  0  0  0  0  0
  152.7848  143.8780  156.8813 H   0  0  0  0  0  0  0  0  0  0  0  0
  151.0488  142.1548  156.7046 H   0  0  0  0  0  0  0  0  0  0  0  0
  150.1991  142.7861  158.0948 H   0  0  0  0  0  0  0  0  0  0  0  0
  149.8507  138.1794  157.7175 H   0  0  0  0  0  0  0  0  0  0  0  0
  149.4689  135.6888  157.8065 H   0  0  0  0  0  0  0  0  0  0  0  0
  150.0908  135.7614  159.4491 H   0  0  0  0  0  0  0  0  0  0  0  0
  148.0170  137.7620  159.2037 H   0  0  0  0  0  0  0  0  0  0  0  0
  147.3937  136.2926  158.5080 H   0  0  0  0  0  0  0  0  0  0  0  0
  148.1025  133.9499  160.3440 H   0  0  0  0  0  0  0  0  0  0  0  0
  147.1694  136.9027  163.6834 H   0  0  0  0  0  0  0  0  0  0  0  0
  1  2  1  0  0  0  0
  1 20  1  0  0  0  0
  1 21  1  0  0  0  0
  1 22  1  0  0  0  0
  2  3  1  0  0  0  0
  2 10  1  0  0  0  0
  2 23  1  0  0  0  0
  3  4  1  0  0  0  0
  3 24  1  0  0  0  0
  3 25  1  0  0  0  0
  4  9  1  0  0  0  0
  4  5  1  0  0  0  0
  4 26  1  0  0  0  0
  5  6  1  0  0  0  0
  5 27  1  0  0  0  0
  5 28  1  0  0  0  0
  6  7  1  0  0  0  0
  6 29  1  0  0  0  0
  6 30  1  0  0  0  0
  7  8  1  0  0  0  0
  7 31  1  0  0  0  0
  7 32  1  0  0  0  0
  8  9  1  0  0  0  0
  8 33  1  0  0  0  0
  8 34  1  0  0  0  0
  9 35  1  0  0  0  0
  9 36  1  0  0  0  0
 10 11  2  0  0  0  0
 10 12  1  0  0  0  0
 12 13  1  0  0  0  0
 12 37  1  0  0  0  0
 13 14  1  0  0  0  0
 13 38  1  0  0  0  0
 13 39  1  0  0  0  0
 14 15  1  0  0  0  0
 14 40  1  0  0  0  0
 14 41  1  0  0  0  0
 15 19  1  0  0  0  0
 15 16  2  0  0  0  0
 16 17  1  0  0  0  0
 16 42  1  0  0  0  0
 17 18  1  0  0  0  0
 18 19  2  0  0  0  0
 18 43  1  0  0  0  0
M  END
> <s_m_source_file>
AV-unprocessed.smi

> <i_m_source_file_index>
943

> <i_lp_mmshare_version>
43012

> <i_f3d_flags>
0

> <s_epik_input>
W0NIMl0xW0NIMl1bQ0gyXVtDSDJdW0NIMl1bQ0hdMVtDSDJdW0NAQEhdKFtDSDNdKUMoPU8pW05IXVtDSDJdW0NIMl1jMltjSF1zW2NIXW4y

> <s_epik_cmdline>
J2VwaWtfcHl0aG9uJywgJy1waCcsICc3LjAnLCAnLXRuJywgJzgnLCAnLW1hJywgJzIwMCcsICctbWV0YWxfYmluZGluZycsICctaW1hZScsICc8aW5maWxlLm1hZT4nLCAnLW9tYWUnLCAnPG91dGZpbGUubWFlPic=

> <r_lp_tautomer_probability>
1

> <r_epik_Ionization_Penalty>
0.000194757

> <r_epik_Ionization_Penalty_Charging>
0

> <r_epik_Ionization_Penalty_Neutral>
0.000194757

> <r_epik_State_Penalty>
-0

> <r_epik_Charging_Adjusted_Penalty>
0

> <i_epik_Tot_Q>
0

> <i_epik_Tot_abs_Q>
0

> <r_epik_Metal_State_Penalty>
-0

> <b_epik_Metal_Only>
0

> <s_lp_Force_Field>
OPLS_2005

> <r_lp_Energy>
6.44142

> <b_lp_Chiralities_Consistent>
1

> <s_lp_Variant>
AV-unprocessed.smi:943-2

> <Gold.Version>
5.8.1

> <Gold.Id.Protein>
6NUR|6NUR_protein|mol2

> <Gold.PLP.Fitness>
51.4815

> <Gold.PLP.PLP>
-45.7193

> <Gold.PLP.part.hbond>
-3.0000

> <Gold.PLP.part.metal>
0.0000

> <Gold.PLP.part.buried>
-5.8267

> <Gold.PLP.part.nonpolar>
-37.0869

> <Gold.PLP.part.repulsive>
0.1280

> <Gold.PLP.ligand.clash>
0.0000

> <Gold.PLP.ligand.torsion>
1.2457

> <Gold.PLP.Chemscore.Hbond>
2.7120

> <Gold.PLP.Chemscore.CHOScore>
0.0000

> <Gold.PLP.Chemscore.Metal>
0.0000

> <Gold.Chemscore.Hbonds>
donor molecule, donor type, donor heavy atom, donor atom, acceptor molecule, acceptor atom, score
      P1  H  6896  6908       L1    11  0.94
      P1  H  6931  6943       L1    19  1.00
      P1  H  6934  6947       L1    19  0.54

> <Gold.PLP.Chemscore.Internal.Correction>
0.1175

> <Gold.Rescore>
     Score         DG    S(hbond)    S(metal)    S(lipo)     H(rot)  DE(clash)    DE(int)     intcor
     21.24     -22.56       2.11        0.00     120.24       1.58       0.06       1.26       ----

> <Gold.Chemscore.Fitness>
21.2363

> <Gold.Chemscore.DG>
-22.5594

> <Gold.Chemscore.ZeroCoef>
-5.4800

> <Gold.Chemscore.Hbond>
2.1117

> <Gold.Chemscore.Metal>
0.0000

> <Gold.Chemscore.Lipo>
120.2401

> <Gold.Chemscore.Internal_Hbond>
0.0000

> <Gold.Chemscore.DEClash>
0.0638

> <Gold.Chemscore.DEInternal>
1.2593

> <Gold.Chemscore.Rot>
1.5789

> <Gold.Chemscore.Internal.Correction>
   9.000000E+99

> <Gold.Chemscore.Hbonds>
donor molecule, donor type, donor heavy atom, donor atom, acceptor molecule, acceptor atom, score
      P1  H  6896  6908       L1    11  0.88
      P1  H  6931  6943       L1    19  0.46
      P1  H  6934  6947       L1    19  0.45

> <Gold.Chemscore.Hbond.Weighted>
-7.0532

> <Gold.Chemscore.Metal.Weighted>
-0.0000

> <Gold.Chemscore.Lipo.Weighted>
-14.0681

> <Gold.Chemscore.Internal_Hbond.Weighted>
0.0000

> <Gold.Chemscore.DEClash.Weighted>
0.0638

> <Gold.Chemscore.DEInternal.Weighted>
1.2593

> <Gold.Chemscore.Rot.Weighted>
4.0419

> <Gold.Chemscore.Internal.Correction.Weighted>
   9.000000E+99

> <Gold.Protein.RotatedTorsions>
[ 6907 6896 6895 6894 ] final -124.73 input  -60.11 | X-H torsion
[ 7974 7965 7964 7962 ] final   50.20 input  175.53 | X-H torsion
[ 8008 7997 7996 7995 ] final  136.36 input   59.86 | X-H torsion
[ 10167 10162 10161 10158 ] final  142.93 input  -65.29 | X-H torsion
[ 10718 10713 10712 10709 ] final   96.08 input   66.30 | X-H torsion
[ 10763 10752 10751 10750 ] final  124.17 input  -60.55 | X-H torsion
[ 11005 11000 10999 10996 ] final -127.94 input  -57.11 | X-H torsion

> <Gold.Protein.ActiveResidues>
 VAL166  LYS551  ARG553  GLY616  TRP617  ASP618  TYR619  PRO620  LYS621  CYS622 
 ASP623  PHE694  ASN695  SER759  ASP760  ASP761  ALA762  ILE779  LEU786  VAL792 
 PHE793  MET794  SER795  GLU796  ALA797  LYS798  CYS799  TRP800  GLU811  SER814 

> <Gold.Protein.RotatedAtoms>
  150.8797  133.7389  159.2935 H   0  0  0  0  0  0  0  0  0  0  0  0  # atno 6907 bound_to 6896
  151.4975  135.1059  159.9829 H   0  0  0  0  0  0  0  0  0  0  0  0  # atno 6908 bound_to 6896
  152.4751  133.8074  159.7041 H   0  0  0  0  0  0  0  0  0  0  0  0  # atno 6909 bound_to 6896
  146.0035  139.4464  143.0000 H   0  0  0  0  0  0  0  0  0  0  0  0  # atno 7974 bound_to 7965
  156.3004  140.2447  156.3733 H   0  0  0  0  0  0  0  0  0  0  0  0  # atno 8008 bound_to 7997
  154.8769  140.0414  157.1778 H   0  0  0  0  0  0  0  0  0  0  0  0  # atno 8009 bound_to 7997
  154.8737  140.2939  155.5470 H   0  0  0  0  0  0  0  0  0  0  0  0  # atno 8010 bound_to 7997
  139.4982  144.6074  151.6347 H   0  0  0  0  0  0  0  0  0  0  0  0  # atno 10167 bound_to 10162
  157.6931  131.0566  150.4437 H   0  0  0  0  0  0  0  0  0  0  0  0  # atno 10718 bound_to 10713
  153.6572  135.3352  155.3117 H   0  0  0  0  0  0  0  0  0  0  0  0  # atno 10763 bound_to 10752
  154.8523  135.4355  154.1843 H   0  0  0  0  0  0  0  0  0  0  0  0  # atno 10764 bound_to 10752
  153.2800  135.7008  153.7470 H   0  0  0  0  0  0  0  0  0  0  0  0  # atno 10765 bound_to 10752
  140.9557  134.1004  157.4018 H   0  0  0  0  0  0  0  0  0  0  0  0  # atno 11005 bound_to 11000
  145.7452  140.9993  143.1280 LP  0  0  0  0  0  0  0  0  0  0  0  0  # atno 17320 bound_to 7965
  144.6927  139.9147  143.7465 LP  0  0  0  0  0  0  0  0  0  0  0  0  # atno 17321 bound_to 7965
  140.5740  144.0060  150.6232 LP  0  0  0  0  0  0  0  0  0  0  0  0  # atno 17342 bound_to 10162
  140.3187  143.3151  152.0806 LP  0  0  0  0  0  0  0  0  0  0  0  0  # atno 17343 bound_to 10162
  156.4794  130.4070  149.6471 LP  0  0  0  0  0  0  0  0  0  0  0  0  # atno 17370 bound_to 10713
  156.3522  130.7438  151.2399 LP  0  0  0  0  0  0  0  0  0  0  0  0  # atno 17371 bound_to 10713
  139.8861  135.0079  156.6480 LP  0  0  0  0  0  0  0  0  0  0  0  0  # atno 17394 bound_to 11000
  140.7539  133.8874  155.8367 LP  0  0  0  0  0  0  0  0  0  0  0  0  # atno 17395 bound_to 11000

$$$$
