AV-unprocessed.smi:662|AV-procd|sdf|3243|dock7
  -GOLD-   22720 0193D 1   1.00000     0.00000
 Structure written by MMmdl.
 34 35  0  0  0  0  0  0  0  0  2 V2000
  150.5929  140.5419  156.9191 O   0  0  0  0  0  0  0  0  0  0  0  0
  149.9464  141.4830  156.4603 C   0  0  0  0  0  0  0  0  0  0  0  0
  150.3162  142.7648  156.6287 N   0  0  0  0  0  0  0  0  0  0  0  0
  151.5064  143.2012  157.3508 C   0  0  0  0  0  0  0  0  0  0  0  0
  151.1806  143.5819  158.8038 C   0  0  0  0  0  0  0  0  0  0  0  0
  152.1301  142.9693  159.7774 C   0  0  0  0  0  0  0  0  0  0  0  0
  152.9378  141.9503  159.4739 N   0  0  0  0  0  0  0  0  0  0  0  0
  153.7096  141.5276  160.5618 C   0  0  0  0  0  0  0  0  0  0  0  0
  154.6808  140.3951  160.3916 C   0  0  0  0  0  0  0  0  0  0  0  0
  155.2480  140.0568  161.5496 F   0  0  0  0  0  0  0  0  0  0  0  0
  154.0743  139.3104  159.9102 F   0  0  0  0  0  0  0  0  0  0  0  0
  155.6581  140.7227  159.5469 F   0  0  0  0  0  0  0  0  0  0  0  0
  153.4587  142.2433  161.7074 C   0  0  0  0  0  0  0  0  0  0  0  0
  152.2454  143.4690  161.4599 S   0  0  0  0  0  0  0  0  0  0  0  0
  148.6586  141.1906  155.6705 C   0  0  2  0  0  0  0  0  0  0  0  0
  148.9692  140.7171  154.2441 C   0  0  0  0  0  0  0  0  0  0  0  0
  147.6956  141.0503  153.4824 C   0  0  0  0  0  0  0  0  0  0  0  0
  147.1998  142.3346  154.1487 C   0  0  0  0  0  0  0  0  0  0  0  0
  147.7694  142.3645  155.5125 N   0  3  0  0  0  0  0  0  0  0  0  0
  149.7340  143.4912  156.2392 H   0  0  0  0  0  0  0  0  0  0  0  0
  152.2312  142.3865  157.3346 H   0  0  0  0  0  0  0  0  0  0  0  0
  151.9730  144.0403  156.8315 H   0  0  0  0  0  0  0  0  0  0  0  0
  151.2071  144.6651  158.9297 H   0  0  0  0  0  0  0  0  0  0  0  0
  150.1693  143.2631  159.0582 H   0  0  0  0  0  0  0  0  0  0  0  0
  153.9109  142.1209  162.6804 H   0  0  0  0  0  0  0  0  0  0  0  0
  148.0937  140.4183  156.1944 H   0  0  0  0  0  0  0  0  0  0  0  0
  149.8043  141.2768  153.8185 H   0  0  0  0  0  0  0  0  0  0  0  0
  149.2178  139.6563  154.1962 H   0  0  0  0  0  0  0  0  0  0  0  0
  147.8559  141.1624  152.4096 H   0  0  0  0  0  0  0  0  0  0  0  0
  146.9650  140.2537  153.6302 H   0  0  0  0  0  0  0  0  0  0  0  0
  147.5620  143.2091  153.6074 H   0  0  0  0  0  0  0  0  0  0  0  0
  146.1109  142.3849  154.1753 H   0  0  0  0  0  0  0  0  0  0  0  0
  147.0399  142.3404  156.2108 H   0  0  0  0  0  0  0  0  0  0  0  0
  148.3166  143.2072  155.6113 H   0  0  0  0  0  0  0  0  0  0  0  0
  1  2  2  0  0  0  0
  2  3  1  0  0  0  0
  2 15  1  0  0  0  0
  3  4  1  0  0  0  0
  3 20  1  0  0  0  0
  4  5  1  0  0  0  0
  4 21  1  0  0  0  0
  4 22  1  0  0  0  0
  5  6  1  0  0  0  0
  5 23  1  0  0  0  0
  5 24  1  0  0  0  0
  6 14  1  0  0  0  0
  6  7  2  0  0  0  0
  7  8  1  0  0  0  0
  8  9  1  0  0  0  0
  8 13  2  0  0  0  0
  9 10  1  0  0  0  0
  9 11  1  0  0  0  0
  9 12  1  0  0  0  0
 13 14  1  0  0  0  0
 13 25  1  0  0  0  0
 15 19  1  0  0  0  0
 15 16  1  0  0  0  0
 15 26  1  0  0  0  0
 16 17  1  0  0  0  0
 16 27  1  0  0  0  0
 16 28  1  0  0  0  0
 17 18  1  0  0  0  0
 17 29  1  0  0  0  0
 17 30  1  0  0  0  0
 18 19  1  0  0  0  0
 18 31  1  0  0  0  0
 18 32  1  0  0  0  0
 19 33  1  0  0  0  0
 19 34  1  0  0  0  0
M  CHG  1  19   1
M  END
> <s_m_source_file>
AV-unprocessed.smi

> <i_m_source_file_index>
662

> <i_lp_mmshare_version>
43012

> <i_f3d_flags>
0

> <s_epik_input>
W05IXTFbQ0gyXVtDSDJdW0NIMl1bQ0BIXTFDKD1PKVtOSF1bQ0gyXVtDSDJdYzJuYyhDKEYpKEYpRilbY0hdczI=

> <s_epik_cmdline>
J2VwaWtfcHl0aG9uJywgJy1waCcsICc3LjAnLCAnLXRuJywgJzgnLCAnLW1hJywgJzIwMCcsICctbWV0YWxfYmluZGluZycsICctaW1hZScsICc8aW5maWxlLm1hZT4nLCAnLW9tYWUnLCAnPG91dGZpbGUubWFlPic=

> <r_epik_Ionization_Penalty>
0.0382401

> <r_epik_Ionization_Penalty_Charging>
0.0382382

> <r_epik_Ionization_Penalty_Neutral>
1.85239e-06

> <r_epik_State_Penalty>
0.0320549

> <r_epik_Charging_Adjusted_Penalty>
0.0702931

> <i_epik_Tot_Q>
1

> <i_epik_Tot_abs_Q>
1

> <r_epik_Metal_State_Penalty>
0.0320549

> <b_epik_Metal_Only>
0

> <s_lp_Force_Field>
OPLS_2005

> <r_lp_Energy>
7.29414

> <b_lp_Chiralities_Consistent>
1

> <s_lp_Variant>
AV-unprocessed.smi:662-1

> <Gold.Version>
5.8.1

> <Gold.Id.Protein>
6NUR|6NUR_protein|mol2

> <Gold.PLP.Fitness>
51.2638

> <Gold.PLP.PLP>
-44.6785

> <Gold.PLP.part.hbond>
-2.0000

> <Gold.PLP.part.metal>
0.0000

> <Gold.PLP.part.buried>
-5.5327

> <Gold.PLP.part.nonpolar>
-38.8413

> <Gold.PLP.part.repulsive>
0.1543

> <Gold.PLP.ligand.clash>
0.0000

> <Gold.PLP.ligand.torsion>
1.2184

> <Gold.PLP.Chemscore.Hbond>
3.0000

> <Gold.PLP.Chemscore.CHOScore>
0.0000

> <Gold.PLP.Chemscore.Metal>
0.0000

> <Gold.Chemscore.Hbonds>
donor molecule, donor type, donor heavy atom, donor atom, acceptor molecule, acceptor atom, score
      L1  H     3    20       P1  8028  1.00
      L1  H    19    34       P1  8028  2.00

> <Gold.PLP.Chemscore.Internal.Correction>
0.0221

> <Gold.Rescore>
     Score         DG    S(hbond)    S(metal)    S(lipo)     H(rot)  DE(clash)    DE(int)     intcor
     17.71     -18.79       1.98        0.00     100.46       1.97       0.10       0.98       ----

> <Gold.Chemscore.Fitness>
17.7102

> <Gold.Chemscore.DG>
-18.7913

> <Gold.Chemscore.ZeroCoef>
-5.4800

> <Gold.Chemscore.Hbond>
1.9760

> <Gold.Chemscore.Metal>
0.0000

> <Gold.Chemscore.Lipo>
100.4614

> <Gold.Chemscore.Internal_Hbond>
0.0000

> <Gold.Chemscore.DEClash>
0.0983

> <Gold.Chemscore.DEInternal>
0.9828

> <Gold.Chemscore.Rot>
1.9697

> <Gold.Chemscore.Internal.Correction>
   9.000000E+99

> <Gold.Chemscore.Hbonds>
donor molecule, donor type, donor heavy atom, donor atom, acceptor molecule, acceptor atom, score
      L1  H     3    20       P1  8028  0.99
      L1  H    19    34       P1  8028  0.93

> <Gold.Chemscore.Hbond.Weighted>
-6.5997

> <Gold.Chemscore.Metal.Weighted>
-0.0000

> <Gold.Chemscore.Lipo.Weighted>
-11.7540

> <Gold.Chemscore.Internal_Hbond.Weighted>
0.0000

> <Gold.Chemscore.DEClash.Weighted>
0.0983

> <Gold.Chemscore.DEInternal.Weighted>
0.9828

> <Gold.Chemscore.Rot.Weighted>
5.0424

> <Gold.Chemscore.Internal.Correction.Weighted>
   9.000000E+99

> <Gold.Protein.RotatedTorsions>
[ 6907 6896 6895 6894 ] final -156.22 input  -60.11 | X-H torsion
[ 7974 7965 7964 7962 ] final -123.50 input  175.53 | X-H torsion
[ 8008 7997 7996 7995 ] final  -29.34 input   59.86 | X-H torsion
[ 10167 10162 10161 10158 ] final   12.85 input  -65.29 | X-H torsion
[ 10718 10713 10712 10709 ] final  -50.62 input   66.30 | X-H torsion
[ 10763 10752 10751 10750 ] final   99.21 input  -60.55 | X-H torsion
[ 11005 11000 10999 10996 ] final -156.77 input  -57.11 | X-H torsion

> <Gold.Protein.ActiveResidues>
 VAL166  LYS551  ARG553  GLY616  TRP617  ASP618  TYR619  PRO620  LYS621  CYS622 
 ASP623  PHE694  ASN695  SER759  ASP760  ASP761  ALA762  ILE779  LEU786  VAL792 
 PHE793  MET794  SER795  GLU796  ALA797  LYS798  CYS799  TRP800  GLU811  SER814 

> <Gold.Protein.RotatedAtoms>
  151.2843  133.4195  159.2628 H   0  0  0  0  0  0  0  0  0  0  0  0  # atno 6907 bound_to 6896
  151.0333  134.9555  159.8133 H   0  0  0  0  0  0  0  0  0  0  0  0  # atno 6908 bound_to 6896
  152.5350  134.2803  159.9057 H   0  0  0  0  0  0  0  0  0  0  0  0  # atno 6909 bound_to 6896
  145.0181  140.7964  143.4398 H   0  0  0  0  0  0  0  0  0  0  0  0  # atno 7974 bound_to 7965
  154.4294  140.1821  156.1233 H   0  0  0  0  0  0  0  0  0  0  0  0  # atno 8008 bound_to 7997
  156.0126  140.3349  155.6931 H   0  0  0  0  0  0  0  0  0  0  0  0  # atno 8009 bound_to 7997
  155.6089  140.0648  157.2702 H   0  0  0  0  0  0  0  0  0  0  0  0  # atno 8010 bound_to 7997
  140.6041  143.8544  150.6995 H   0  0  0  0  0  0  0  0  0  0  0  0  # atno 10167 bound_to 10162
  156.1784  130.4150  149.9543 H   0  0  0  0  0  0  0  0  0  0  0  0  # atno 10718 bound_to 10713
  153.2986  135.4121  155.1232 H   0  0  0  0  0  0  0  0  0  0  0  0  # atno 10763 bound_to 10752
  154.8542  135.3536  154.5883 H   0  0  0  0  0  0  0  0  0  0  0  0  # atno 10764 bound_to 10752
  153.6308  135.7061  153.5334 H   0  0  0  0  0  0  0  0  0  0  0  0  # atno 10765 bound_to 10752
  140.6719  134.4238  157.5231 H   0  0  0  0  0  0  0  0  0  0  0  0  # atno 11005 bound_to 11000
  145.1933  139.2290  143.5231 LP  0  0  0  0  0  0  0  0  0  0  0  0  # atno 17320 bound_to 7965
  146.3481  140.1734  142.8589 LP  0  0  0  0  0  0  0  0  0  0  0  0  # atno 17321 bound_to 7965
  140.2097  143.3893  152.1728 LP  0  0  0  0  0  0  0  0  0  0  0  0  # atno 17342 bound_to 10162
  139.5312  144.7161  151.5049 LP  0  0  0  0  0  0  0  0  0  0  0  0  # atno 17343 bound_to 10162
  156.7321  130.9047  151.3626 LP  0  0  0  0  0  0  0  0  0  0  0  0  # atno 17370 bound_to 10713
  157.6851  130.9178  150.0367 LP  0  0  0  0  0  0  0  0  0  0  0  0  # atno 17371 bound_to 10713
  139.8979  134.8626  156.2026 LP  0  0  0  0  0  0  0  0  0  0  0  0  # atno 17394 bound_to 11000
  141.0385  133.6950  156.1555 LP  0  0  0  0  0  0  0  0  0  0  0  0  # atno 17395 bound_to 11000

$$$$
