AV-unprocessed.smi:2|AV-procd|sdf|26|dock6
  -GOLD-   2262015133D 1   1.00000     0.00000
 Structure written by MMmdl.
 52 54  0  0  0  0  0  0  0  0  3 V2000
  152.2320  145.0987  157.6568 C   0  0  0  0  0  0  0  0  0  0  0  0
  151.2725  145.0474  158.8564 C   0  0  0  0  0  0  0  0  0  0  0  0
  151.5953  143.9355  159.8670 C   0  0  0  0  0  0  0  0  0  0  0  0
  151.7048  144.2091  161.0633 O   0  0  0  0  0  0  0  0  0  0  0  0
  151.7648  142.5526  159.3342 C   0  0  0  0  0  0  0  0  0  0  0  0
  152.4240  141.5810  160.1201 C   0  0  0  0  0  0  0  0  0  0  0  0
  152.6039  140.2702  159.6388 C   0  0  0  0  0  0  0  0  0  0  0  0
  152.1363  139.8963  158.3641 C   0  0  0  0  0  0  0  0  0  0  0  0
  152.3716  138.5945  157.9703 O   0  0  0  0  0  0  0  0  0  0  0  0
  153.2540  137.7753  158.7332 C   0  0  0  0  0  0  0  0  0  0  0  0
  154.5857  137.5313  157.9904 C   0  0  1  0  0  0  0  0  0  0  0  0
  154.7969  138.6076  157.0979 O   0  0  0  0  0  0  0  0  0  0  0  0
  155.7747  137.4066  158.9716 C   0  0  0  0  0  0  0  0  0  0  0  0
  155.8260  136.1104  159.6591 N   0  0  0  0  0  0  0  0  0  0  0  0
  155.9927  134.8804  159.0841 C   0  0  0  0  0  0  0  0  0  0  0  0
  156.1784  134.5874  157.6683 N   0  3  0  0  0  0  0  0  0  0  0  0
  156.1718  133.4243  157.2852 O   0  0  0  0  0  0  0  0  0  0  0  0
  156.3692  135.5409  156.9193 O   0  5  0  0  0  0  0  0  0  0  0  0
  155.9362  133.8648  159.9466 N   0  0  0  0  0  0  0  0  0  0  0  0
  155.7139  134.4771  161.1633 C   0  0  0  0  0  0  0  0  0  0  0  0
  155.4907  133.8674  162.4893 C   0  0  0  0  0  0  0  0  0  0  0  0
  155.5708  132.6488  162.6505 O   0  0  0  0  0  0  0  0  0  0  0  0
  155.1667  134.7676  163.4696 N   0  0  0  0  0  0  0  0  0  0  0  0
  154.8337  134.2469  164.8095 C   0  0  0  0  0  0  0  0  0  0  0  0
  155.1493  136.1420  163.3154 C   0  0  0  0  0  0  0  0  0  0  0  0
  154.8268  136.8743  164.2555 O   0  0  0  0  0  0  0  0  0  0  0  0
  155.5225  136.6722  162.1012 N   0  0  0  0  0  0  0  0  0  0  0  0
  155.8320  138.1051  162.0182 C   0  0  0  0  0  0  0  0  0  0  0  0
  155.6953  135.8290  161.0378 C   0  0  0  0  0  0  0  0  0  0  0  0
  151.4633  140.8653  157.5804 C   0  0  0  0  0  0  0  0  0  0  0  0
  151.2835  142.1774  158.0584 C   0  0  0  0  0  0  0  0  0  0  0  0
  151.9447  145.8958  156.9711 H   0  0  0  0  0  0  0  0  0  0  0  0
  152.2218  144.1634  157.0958 H   0  0  0  0  0  0  0  0  0  0  0  0
  153.2571  145.2925  157.9751 H   0  0  0  0  0  0  0  0  0  0  0  0
  151.2946  146.0065  159.3746 H   0  0  0  0  0  0  0  0  0  0  0  0
  150.2540  144.9027  158.4949 H   0  0  0  0  0  0  0  0  0  0  0  0
  152.8027  141.8299  161.1011 H   0  0  0  0  0  0  0  0  0  0  0  0
  153.1149  139.5445  160.2544 H   0  0  0  0  0  0  0  0  0  0  0  0
  153.4439  138.2698  159.6868 H   0  0  0  0  0  0  0  0  0  0  0  0
  152.7640  136.8406  159.0051 H   0  0  0  0  0  0  0  0  0  0  0  0
  154.5236  136.6262  157.3885 H   0  0  0  0  0  0  0  0  0  0  0  0
  155.3997  138.3291  156.4257 H   0  0  0  0  0  0  0  0  0  0  0  0
  156.7132  137.5865  158.4536 H   0  0  0  0  0  0  0  0  0  0  0  0
  155.7580  138.2143  159.6942 H   0  0  0  0  0  0  0  0  0  0  0  0
  153.8654  134.6250  165.1419 H   0  0  0  0  0  0  0  0  0  0  0  0
  155.5840  134.5654  165.5348 H   0  0  0  0  0  0  0  0  0  0  0  0
  154.7708  133.1603  164.8764 H   0  0  0  0  0  0  0  0  0  0  0  0
  156.8193  138.2528  161.5822 H   0  0  0  0  0  0  0  0  0  0  0  0
  155.8755  138.6140  162.9816 H   0  0  0  0  0  0  0  0  0  0  0  0
  155.0845  138.6291  161.4305 H   0  0  0  0  0  0  0  0  0  0  0  0
  151.0760  140.6333  156.6011 H   0  0  0  0  0  0  0  0  0  0  0  0
  150.7703  142.8822  157.4216 H   0  0  0  0  0  0  0  0  0  0  0  0
  1  2  1  0  0  0  0
  1 32  1  0  0  0  0
  1 33  1  0  0  0  0
  1 34  1  0  0  0  0
  2  3  1  0  0  0  0
  2 35  1  0  0  0  0
  2 36  1  0  0  0  0
  3  4  2  0  0  0  0
  3  5  1  0  0  0  0
  5 31  1  0  0  0  0
  5  6  2  0  0  0  0
  6  7  1  0  0  0  0
  6 37  1  0  0  0  0
  7  8  2  0  0  0  0
  7 38  1  0  0  0  0
  8  9  1  0  0  0  0
  8 30  1  0  0  0  0
  9 10  1  0  0  0  0
 10 11  1  0  0  0  0
 10 39  1  0  0  0  0
 10 40  1  0  0  0  0
 11 12  1  0  0  0  0
 11 13  1  0  0  0  0
 11 41  1  0  0  0  0
 12 42  1  0  0  0  0
 13 14  1  0  0  0  0
 13 43  1  0  0  0  0
 13 44  1  0  0  0  0
 14 29  1  0  0  0  0
 14 15  1  0  0  0  0
 15 16  1  0  0  0  0
 15 19  2  0  0  0  0
 16 17  2  0  0  0  0
 16 18  1  0  0  0  0
 19 20  1  0  0  0  0
 20 29  2  0  0  0  0
 20 21  1  0  0  0  0
 21 22  2  0  0  0  0
 21 23  1  0  0  0  0
 23 24  1  0  0  0  0
 23 25  1  0  0  0  0
 24 45  1  0  0  0  0
 24 46  1  0  0  0  0
 24 47  1  0  0  0  0
 25 26  2  0  0  0  0
 25 27  1  0  0  0  0
 27 28  1  0  0  0  0
 27 29  1  0  0  0  0
 28 48  1  0  0  0  0
 28 49  1  0  0  0  0
 28 50  1  0  0  0  0
 30 31  2  0  0  0  0
 30 51  1  0  0  0  0
 31 52  1  0  0  0  0
M  CHG  1  16   1
M  CHG  1  18  -1
M  END
> <s_m_source_file>
AV-unprocessed.smi

> <i_m_source_file_index>
2

> <i_lp_mmshare_version>
43012

> <i_f3d_flags>
0

> <s_epik_input>
W0NIM11bQ0gyXUMoPU8pYzFbY0hdW2NIXWMoW2NIXVtjSF0xKU9bQ0gyXVtDQEhdKFtPSF0pW0NIMl1uKGMobjIpW04rXSg9TylbTy1dKWMoYzIzKW4oW0NIM10pYyg9TyluKGMzPU8pW0NIM10=

> <s_epik_cmdline>
J2VwaWtfcHl0aG9uJywgJy1waCcsICc3LjAnLCAnLXRuJywgJzgnLCAnLW1hJywgJzIwMCcsICctbWV0YWxfYmluZGluZycsICctaW1hZScsICc8aW5maWxlLm1hZT4nLCAnLW9tYWUnLCAnPG91dGZpbGUubWFlPic=

> <r_lp_tautomer_probability>
1

> <r_epik_Ionization_Penalty>
1.02275e-06

> <r_epik_Ionization_Penalty_Charging>
4.46226e-11

> <r_epik_Ionization_Penalty_Neutral>
1.02271e-06

> <r_epik_State_Penalty>
-0

> <r_epik_Charging_Adjusted_Penalty>
4.46226e-11

> <i_epik_Tot_Q>
0

> <i_epik_Tot_abs_Q>
2

> <r_epik_Metal_State_Penalty>
-0

> <b_epik_Metal_Only>
0

> <s_lp_Force_Field>
OPLS_2005

> <r_lp_Energy>
60.3612

> <b_lp_Chiralities_Consistent>
1

> <s_lp_Variant>
AV-unprocessed.smi:2-2

> <Gold.Version>
5.8.1

> <Gold.Id.Protein>
6NUR|6NUR_protein|mol2

> <Gold.PLP.Fitness>
46.8781

> <Gold.PLP.PLP>
-45.4928

> <Gold.PLP.part.hbond>
-1.5508

> <Gold.PLP.part.metal>
0.0000

> <Gold.PLP.part.buried>
-8.1556

> <Gold.PLP.part.nonpolar>
-35.6783

> <Gold.PLP.part.repulsive>
0.2102

> <Gold.PLP.ligand.clash>
0.6272

> <Gold.PLP.ligand.torsion>
1.2732

> <Gold.PLP.Chemscore.Hbond>
1.4640

> <Gold.PLP.Chemscore.CHOScore>
0.0000

> <Gold.PLP.Chemscore.Metal>
0.0000

> <Gold.Chemscore.Hbonds>
donor molecule, donor type, donor heavy atom, donor atom, acceptor molecule, acceptor atom, score
      P1  H  7997  8010       L1    12  0.21

> <Gold.PLP.Chemscore.Internal.Correction>
0.1668

> <Gold.Rescore>
     Score         DG    S(hbond)    S(metal)    S(lipo)     H(rot)  DE(clash)    DE(int)     intcor
      9.00     -13.20       1.26        0.00      99.20       3.16       0.39       3.82       ----

> <Gold.Chemscore.Fitness>
8.9963

> <Gold.Chemscore.DG>
-13.2028

> <Gold.Chemscore.ZeroCoef>
-5.4800

> <Gold.Chemscore.Hbond>
1.2591

> <Gold.Chemscore.Metal>
0.0000

> <Gold.Chemscore.Lipo>
99.1986

> <Gold.Chemscore.Internal_Hbond>
0.0000

> <Gold.Chemscore.DEClash>
0.3915

> <Gold.Chemscore.DEInternal>
3.8150

> <Gold.Chemscore.Rot>
3.1597

> <Gold.Chemscore.Internal.Correction>
   9.000000E+99

> <Gold.Chemscore.Hbonds>
donor molecule, donor type, donor heavy atom, donor atom, acceptor molecule, acceptor atom, score
      P1  H  7997  8010       L1    12  0.14

> <Gold.Chemscore.Hbond.Weighted>
-4.2054

> <Gold.Chemscore.Metal.Weighted>
-0.0000

> <Gold.Chemscore.Lipo.Weighted>
-11.6062

> <Gold.Chemscore.Internal_Hbond.Weighted>
0.0000

> <Gold.Chemscore.DEClash.Weighted>
0.3915

> <Gold.Chemscore.DEInternal.Weighted>
3.8150

> <Gold.Chemscore.Rot.Weighted>
8.0888

> <Gold.Chemscore.Internal.Correction.Weighted>
   9.000000E+99

> <Gold.Protein.RotatedTorsions>
[ 6907 6896 6895 6894 ] final -141.43 input  -60.11 | X-H torsion
[ 7974 7965 7964 7962 ] final -144.28 input  175.53 | X-H torsion
[ 8008 7997 7996 7995 ] final   23.45 input   59.86 | X-H torsion
[ 10167 10162 10161 10158 ] final   93.57 input  -65.29 | X-H torsion
[ 10718 10713 10712 10709 ] final  152.48 input   66.30 | X-H torsion
[ 10763 10752 10751 10750 ] final   52.71 input  -60.55 | X-H torsion
[ 11005 11000 10999 10996 ] final  178.20 input  -57.11 | X-H torsion

> <Gold.Protein.ActiveResidues>
 VAL166  LYS551  ARG553  GLY616  TRP617  ASP618  TYR619  PRO620  LYS621  CYS622 
 ASP623  PHE694  ASN695  SER759  ASP760  ASP761  ALA762  ILE779  LEU786  VAL792 
 PHE793  MET794  SER795  GLU796  ALA797  LYS798  CYS799  TRP800  GLU811  SER814 

> <Gold.Protein.RotatedAtoms>
  151.0737  133.5445  159.2625 H   0  0  0  0  0  0  0  0  0  0  0  0  # atno 6907 bound_to 6896
  151.2375  135.0576  159.9022 H   0  0  0  0  0  0  0  0  0  0  0  0  # atno 6908 bound_to 6896
  152.5415  134.0517  159.8166 H   0  0  0  0  0  0  0  0  0  0  0  0  # atno 6909 bound_to 6896
  144.8309  140.5730  143.5516 H   0  0  0  0  0  0  0  0  0  0  0  0  # atno 7974 bound_to 7965
  154.9812  140.3102  155.4946 H   0  0  0  0  0  0  0  0  0  0  0  0  # atno 8008 bound_to 7997
  156.2953  140.2266  156.4851 H   0  0  0  0  0  0  0  0  0  0  0  0  # atno 8009 bound_to 7997
  154.7788  140.0447  157.1098 H   0  0  0  0  0  0  0  0  0  0  0  0  # atno 8010 bound_to 7997
  139.8167  144.6750  150.9571 H   0  0  0  0  0  0  0  0  0  0  0  0  # atno 10167 bound_to 10162
  157.2572  131.0791  151.1690 H   0  0  0  0  0  0  0  0  0  0  0  0  # atno 10718 bound_to 10713
  152.9790  135.5803  154.4623 H   0  0  0  0  0  0  0  0  0  0  0  0  # atno 10763 bound_to 10752
  154.4198  135.2771  155.1985 H   0  0  0  0  0  0  0  0  0  0  0  0  # atno 10764 bound_to 10752
  154.3739  135.6162  153.5808 H   0  0  0  0  0  0  0  0  0  0  0  0  # atno 10765 bound_to 10752
  140.3925  134.6849  157.4516 H   0  0  0  0  0  0  0  0  0  0  0  0  # atno 11005 bound_to 11000
  145.4898  139.1489  143.3716 LP  0  0  0  0  0  0  0  0  0  0  0  0  # atno 17320 bound_to 7965
  146.2612  140.5036  142.8853 LP  0  0  0  0  0  0  0  0  0  0  0  0  # atno 17321 bound_to 7965
  140.7815  143.4132  151.0960 LP  0  0  0  0  0  0  0  0  0  0  0  0  # atno 17342 bound_to 10162
  139.7795  143.8376  152.3135 LP  0  0  0  0  0  0  0  0  0  0  0  0  # atno 17343 bound_to 10162
  157.3215  130.6939  149.6271 LP  0  0  0  0  0  0  0  0  0  0  0  0  # atno 17370 bound_to 10713
  155.9664  130.4334  150.5005 LP  0  0  0  0  0  0  0  0  0  0  0  0  # atno 17371 bound_to 10713
  140.0396  134.6287  155.8998 LP  0  0  0  0  0  0  0  0  0  0  0  0  # atno 17394 bound_to 11000
  141.1886  133.6563  156.5330 LP  0  0  0  0  0  0  0  0  0  0  0  0  # atno 17395 bound_to 11000

$$$$
