AV-unprocessed.smi:2185|AV-procd|sdf|8875|dock3
  -GOLD-   2272012 73D 1   1.00000     0.00000
 Structure written by MMmdl.
 38 39  0  0  0  0  0  0  0  0  1 V2000
  147.9056  134.7852  159.1623 C   0  0  0  0  0  0  0  0  0  0  0  0
  148.4887  136.5165  159.3744 S   0  0  0  0  0  0  0  0  0  0  0  0
  147.9619  137.0235  160.6507 O   0  0  0  0  0  0  0  0  0  0  0  0
  149.9370  136.5478  159.1195 O   0  0  0  0  0  0  0  0  0  0  0  0
  147.7020  137.3893  158.0907 N   0  0  0  0  0  0  0  0  0  0  0  0
  148.5078  138.0545  157.0472 C   0  0  0  0  0  0  0  0  0  0  0  0
  148.5419  137.2341  155.7461 C   0  0  0  0  0  0  0  0  0  0  0  0
  147.1250  136.9077  155.2527 C   0  0  0  0  0  0  0  0  0  0  0  0
  147.1977  136.0836  154.0496 N   0  0  0  0  0  0  0  0  0  0  0  0
  146.1932  135.3464  153.5549 C   0  0  0  0  0  0  0  0  0  0  0  0
  145.0810  135.2788  154.0771 O   0  0  0  0  0  0  0  0  0  0  0  0
  146.5643  134.7203  152.4248 N   0  0  0  0  0  0  0  0  0  0  0  0
  145.8017  133.8567  151.5919 C   0  0  0  0  0  0  0  0  0  0  0  0
  144.3864  133.8310  151.5433 C   0  0  0  0  0  0  0  0  0  0  0  0
  143.7523  132.9125  150.6842 C   0  0  0  0  0  0  0  0  0  0  0  0
  144.5534  132.0502  149.9108 C   0  0  0  0  0  0  0  0  0  0  0  0
  145.9021  132.0555  149.9551 N   0  0  0  0  0  0  0  0  0  0  0  0
  146.5028  132.9384  150.7812 C   0  0  0  0  0  0  0  0  0  0  0  0
  146.3536  136.1834  156.3687 C   0  0  0  0  0  0  0  0  0  0  0  0
  146.3389  137.0086  157.6680 C   0  0  0  0  0  0  0  0  0  0  0  0
  148.3575  134.1617  159.9334 H   0  0  0  0  0  0  0  0  0  0  0  0
  148.2034  134.4098  158.1850 H   0  0  0  0  0  0  0  0  0  0  0  0
  146.8226  134.7438  159.2651 H   0  0  0  0  0  0  0  0  0  0  0  0
  148.0712  139.0341  156.8486 H   0  0  0  0  0  0  0  0  0  0  0  0
  149.5199  138.2378  157.4066 H   0  0  0  0  0  0  0  0  0  0  0  0
  149.0819  137.7922  154.9803 H   0  0  0  0  0  0  0  0  0  0  0  0
  149.1029  136.3132  155.9031 H   0  0  0  0  0  0  0  0  0  0  0  0
  146.6185  137.8457  155.0166 H   0  0  0  0  0  0  0  0  0  0  0  0
  148.0770  136.0813  153.5537 H   0  0  0  0  0  0  0  0  0  0  0  0
  147.4928  134.9302  152.0890 H   0  0  0  0  0  0  0  0  0  0  0  0
  143.7757  134.4798  152.1511 H   0  0  0  0  0  0  0  0  0  0  0  0
  142.6750  132.8674  150.6233 H   0  0  0  0  0  0  0  0  0  0  0  0
  144.0987  131.3333  149.2434 H   0  0  0  0  0  0  0  0  0  0  0  0
  147.5828  132.9119  150.7923 H   0  0  0  0  0  0  0  0  0  0  0  0
  145.3274  135.9931  156.0524 H   0  0  0  0  0  0  0  0  0  0  0  0
  146.7995  135.2065  156.5532 H   0  0  0  0  0  0  0  0  0  0  0  0
  145.8357  136.4571  158.4615 H   0  0  0  0  0  0  0  0  0  0  0  0
  145.7605  137.9199  157.5127 H   0  0  0  0  0  0  0  0  0  0  0  0
  1  2  1  0  0  0  0
  1 21  1  0  0  0  0
  1 22  1  0  0  0  0
  1 23  1  0  0  0  0
  2  3  2  0  0  0  0
  2  4  2  0  0  0  0
  2  5  1  0  0  0  0
  5 20  1  0  0  0  0
  5  6  1  0  0  0  0
  6  7  1  0  0  0  0
  6 24  1  0  0  0  0
  6 25  1  0  0  0  0
  7  8  1  0  0  0  0
  7 26  1  0  0  0  0
  7 27  1  0  0  0  0
  8  9  1  0  0  0  0
  8 19  1  0  0  0  0
  8 28  1  0  0  0  0
  9 10  1  0  0  0  0
  9 29  1  0  0  0  0
 10 11  2  0  0  0  0
 10 12  1  0  0  0  0
 12 13  1  0  0  0  0
 12 30  1  0  0  0  0
 13 18  1  0  0  0  0
 13 14  2  0  0  0  0
 14 15  1  0  0  0  0
 14 31  1  0  0  0  0
 15 16  2  0  0  0  0
 15 32  1  0  0  0  0
 16 17  1  0  0  0  0
 16 33  1  0  0  0  0
 17 18  2  0  0  0  0
 18 34  1  0  0  0  0
 19 20  1  0  0  0  0
 19 35  1  0  0  0  0
 19 36  1  0  0  0  0
 20 37  1  0  0  0  0
 20 38  1  0  0  0  0
M  END
> <s_m_source_file>
AV-unprocessed.smi

> <i_m_source_file_index>
2185

> <i_lp_mmshare_version>
43012

> <i_f3d_flags>
0

> <s_epik_input>
W0NIM11TKD1PKSg9TylOMVtDSDJdW0NIMl1bQ0hdKFtDSDJdW0NIMl0xKVtOSF1DKD1PKVtOSF1jMltjSF1bY0hdW2NIXW5bY0hdMg==

> <s_epik_cmdline>
J2VwaWtfcHl0aG9uJywgJy1waCcsICc3LjAnLCAnLXRuJywgJzgnLCAnLW1hJywgJzIwMCcsICctbWV0YWxfYmluZGluZycsICctaW1hZScsICc8aW5maWxlLm1hZT4nLCAnLW9tYWUnLCAnPG91dGZpbGUubWFlPic=

> <r_epik_Ionization_Penalty>
0.00480481

> <r_epik_Ionization_Penalty_Charging>
0

> <r_epik_Ionization_Penalty_Neutral>
0.00480481

> <r_epik_State_Penalty>
0.00345682

> <r_epik_Charging_Adjusted_Penalty>
0.00345682

> <i_epik_Tot_Q>
0

> <i_epik_Tot_abs_Q>
0

> <r_epik_Metal_State_Penalty>
-0

> <b_epik_Metal_Only>
0

> <s_lp_Force_Field>
OPLS_2005

> <r_lp_Energy>
2.72974

> <b_lp_Chiralities_Consistent>
1

> <s_lp_Variant>
AV-unprocessed.smi:2185-1

> <Gold.Version>
5.8.1

> <Gold.Id.Protein>
6NUR|6NUR_protein|mol2

> <Gold.PLP.Fitness>
39.6329

> <Gold.PLP.PLP>
-24.5842

> <Gold.PLP.part.hbond>
-5.0000

> <Gold.PLP.part.metal>
0.0000

> <Gold.PLP.part.buried>
-4.2746

> <Gold.PLP.part.nonpolar>
-15.5686

> <Gold.PLP.part.repulsive>
0.2212

> <Gold.PLP.ligand.clash>
0.0000

> <Gold.PLP.ligand.torsion>
1.4764

> <Gold.PLP.Chemscore.Hbond>
4.4096

> <Gold.PLP.Chemscore.CHOScore>
0.9069

> <Gold.PLP.Chemscore.Metal>
0.0000

> <Gold.Chemscore.Hbonds>
donor molecule, donor type, donor heavy atom, donor atom, acceptor molecule, acceptor atom, score
      L1  H     9    29       P1  7948  0.94
      L1  H    12    30       P1  7948  1.00
      P1  H  6896  6909       L1     4  1.00
      P1  H  6931  6943       L1     3  0.83
      P1  H  6934  6947       L1     3  0.56
      L1  C    18    34       P1 10747  0.90

> <Gold.PLP.Chemscore.Internal.Correction>
2.0518

> <Gold.Rescore>
     Score         DG    S(hbond)    S(metal)    S(lipo)     H(rot)  DE(clash)    DE(int)     intcor
     18.25     -22.39       4.38        0.00      41.39       1.00       0.08       4.06       ----

> <Gold.Chemscore.Fitness>
18.2522

> <Gold.Chemscore.DG>
-22.3888

> <Gold.Chemscore.ZeroCoef>
-5.4800

> <Gold.Chemscore.Hbond>
4.3791

> <Gold.Chemscore.Metal>
0.0000

> <Gold.Chemscore.Lipo>
41.3898

> <Gold.Chemscore.Internal_Hbond>
0.0000

> <Gold.Chemscore.DEClash>
0.0753

> <Gold.Chemscore.DEInternal>
4.0613

> <Gold.Chemscore.Rot>
1.0000

> <Gold.Chemscore.Internal.Correction>
   9.000000E+99

> <Gold.Chemscore.Hbonds>
donor molecule, donor type, donor heavy atom, donor atom, acceptor molecule, acceptor atom, score
      L1  H     9    29       P1  7948  0.91
      L1  H    12    30       P1  7948  0.86
      P1  H  6896  6909       L1     4  0.89
      P1  H  6931  6943       L1     3  0.77
      P1  H  6934  6947       L1     3  0.56

> <Gold.Chemscore.Hbond.Weighted>
-14.6262

> <Gold.Chemscore.Metal.Weighted>
-0.0000

> <Gold.Chemscore.Lipo.Weighted>
-4.8426

> <Gold.Chemscore.Internal_Hbond.Weighted>
0.0000

> <Gold.Chemscore.DEClash.Weighted>
0.0753

> <Gold.Chemscore.DEInternal.Weighted>
4.0613

> <Gold.Chemscore.Rot.Weighted>
2.5600

> <Gold.Chemscore.Internal.Correction.Weighted>
   9.000000E+99

> <Gold.Protein.RotatedTorsions>
[ 6907 6896 6895 6894 ] final   79.77 input  -60.11 | X-H torsion
[ 7974 7965 7964 7962 ] final  144.56 input  175.53 | X-H torsion
[ 8008 7997 7996 7995 ] final  -80.87 input   59.86 | X-H torsion
[ 10167 10162 10161 10158 ] final  -26.86 input  -65.29 | X-H torsion
[ 10718 10713 10712 10709 ] final  -97.89 input   66.30 | X-H torsion
[ 10763 10752 10751 10750 ] final  -55.68 input  -60.55 | X-H torsion
[ 11005 11000 10999 10996 ] final  -49.45 input  -57.11 | X-H torsion

> <Gold.Protein.ActiveResidues>
 VAL166  LYS551  ARG553  GLY616  TRP617  ASP618  TYR619  PRO620  LYS621  CYS622 
 ASP623  PHE694  ASN695  SER759  ASP760  ASP761  ALA762  ILE779  LEU786  VAL792 
 PHE793  MET794  SER795  GLU796  ALA797  LYS798  CYS799  TRP800  GLU811  SER814 

> <Gold.Protein.RotatedAtoms>
  152.5211  134.3460  159.9233 H   0  0  0  0  0  0  0  0  0  0  0  0  # atno 6907 bound_to 6896
  151.3410  133.3956  159.2679 H   0  0  0  0  0  0  0  0  0  0  0  0  # atno 6908 bound_to 6896
  150.9803  134.9177  159.7898 H   0  0  0  0  0  0  0  0  0  0  0  0  # atno 6909 bound_to 6896
  144.8825  139.5678  143.5836 H   0  0  0  0  0  0  0  0  0  0  0  0  # atno 7974 bound_to 7965
  154.5926  140.0656  156.9259 H   0  0  0  0  0  0  0  0  0  0  0  0  # atno 8008 bound_to 7997
  155.2269  140.3334  155.4290 H   0  0  0  0  0  0  0  0  0  0  0  0  # atno 8009 bound_to 7997
  156.2266  140.1822  156.7332 H   0  0  0  0  0  0  0  0  0  0  0  0  # atno 8010 bound_to 7997
  140.7280  143.4142  151.1056 H   0  0  0  0  0  0  0  0  0  0  0  0  # atno 10167 bound_to 10162
  156.0094  130.5214  150.6442 H   0  0  0  0  0  0  0  0  0  0  0  0  # atno 10718 bound_to 10713
  154.1946  135.6421  153.5070 H   0  0  0  0  0  0  0  0  0  0  0  0  # atno 10763 bound_to 10752
  153.0026  135.5437  154.6379 H   0  0  0  0  0  0  0  0  0  0  0  0  # atno 10764 bound_to 10752
  154.5776  135.2922  155.0738 H   0  0  0  0  0  0  0  0  0  0  0  0  # atno 10765 bound_to 10752
  141.0760  133.6666  156.3587 H   0  0  0  0  0  0  0  0  0  0  0  0  # atno 11005 bound_to 11000
  146.3003  139.7407  142.9096 LP  0  0  0  0  0  0  0  0  0  0  0  0  # atno 17320 bound_to 7965
  145.3928  141.0375  143.3114 LP  0  0  0  0  0  0  0  0  0  0  0  0  # atno 17321 bound_to 7965
  139.7779  143.8398  152.3132 LP  0  0  0  0  0  0  0  0  0  0  0  0  # atno 17342 bound_to 10162
  139.8339  144.7241  150.9415 LP  0  0  0  0  0  0  0  0  0  0  0  0  # atno 17343 bound_to 10162
  157.4216  131.0837  151.1125 LP  0  0  0  0  0  0  0  0  0  0  0  0  # atno 17370 bound_to 10713
  157.1726  130.6274  149.5645 LP  0  0  0  0  0  0  0  0  0  0  0  0  # atno 17371 bound_to 10713
  140.5573  134.5969  157.5424 LP  0  0  0  0  0  0  0  0  0  0  0  0  # atno 17394 bound_to 11000
  139.9572  134.7514  156.0316 LP  0  0  0  0  0  0  0  0  0  0  0  0  # atno 17395 bound_to 11000

$$$$
