AV-unprocessed.smi:2143|AV-procd|sdf|8724|dock3
  -GOLD-   2272011493D 1   1.00000     0.00000
 Structure written by MMmdl.
 44 45  0  0  0  0  0  0  0  0  1 V2000
  153.5954  141.6802  161.0988 C   0  0  0  0  0  0  0  0  0  0  0  0
  153.0366  142.3822  159.8469 C   0  0  2  0  0  0  0  0  0  0  0  0
  152.3729  143.7122  160.2570 C   0  0  0  0  0  0  0  0  0  0  0  0
  151.8282  144.4752  159.0452 C   0  0  0  0  0  0  0  0  0  0  0  0
  150.8297  143.6116  158.2698 C   0  0  0  0  0  0  0  0  0  0  0  0
  151.4634  142.2773  157.8289 C   0  0  2  0  0  0  0  0  0  0  0  0
  150.4585  141.4758  157.1325 N   0  0  0  0  0  0  0  0  0  0  0  0
  150.5843  140.9745  155.8945 C   0  0  0  0  0  0  0  0  0  0  0  0
  151.5944  141.1199  155.2048 O   0  0  0  0  0  0  0  0  0  0  0  0
  149.3871  140.1732  155.3663 C   0  0  0  0  0  0  0  0  0  0  0  0
  148.1592  140.9740  155.2821 N   0  0  0  0  0  0  0  0  0  0  0  0
  147.7034  141.4060  154.0498 C   0  0  0  0  0  0  0  0  0  0  0  0
  146.5954  142.1621  153.8887 C   0  0  0  0  0  0  0  0  0  0  0  0
  145.7960  142.5739  155.0364 C   0  0  0  0  0  0  0  0  0  0  0  0
  144.7919  143.2796  154.9355 O   0  0  0  0  0  0  0  0  0  0  0  0
  146.2756  142.1054  156.2833 N   0  0  0  0  0  0  0  0  0  0  0  0
  145.5600  142.4764  157.4866 C   0  0  0  0  0  0  0  0  0  0  0  0
  147.4433  141.3274  156.4463 C   0  0  0  0  0  0  0  0  0  0  0  0
  147.8378  140.9694  157.5590 O   0  0  0  0  0  0  0  0  0  0  0  0
  152.0536  141.4929  159.0326 C   0  0  1  0  0  0  0  0  0  0  0  0
  152.7155  140.1776  158.5661 C   0  0  0  0  0  0  0  0  0  0  0  0
  152.7929  141.3302  161.7488 H   0  0  0  0  0  0  0  0  0  0  0  0
  154.2198  142.3586  161.6809 H   0  0  0  0  0  0  0  0  0  0  0  0
  154.2199  140.8254  160.8418 H   0  0  0  0  0  0  0  0  0  0  0  0
  153.8843  142.6236  159.2035 H   0  0  0  0  0  0  0  0  0  0  0  0
  151.5610  143.5191  160.9598 H   0  0  0  0  0  0  0  0  0  0  0  0
  153.0910  144.3419  160.7833 H   0  0  0  0  0  0  0  0  0  0  0  0
  151.3471  145.3976  159.3713 H   0  0  0  0  0  0  0  0  0  0  0  0
  152.6507  144.7679  158.3911 H   0  0  0  0  0  0  0  0  0  0  0  0
  149.9555  143.4188  158.8935 H   0  0  0  0  0  0  0  0  0  0  0  0
  150.4719  144.1657  157.4011 H   0  0  0  0  0  0  0  0  0  0  0  0
  152.2819  142.4951  157.1398 H   0  0  0  0  0  0  0  0  0  0  0  0
  149.5959  141.3012  157.6274 H   0  0  0  0  0  0  0  0  0  0  0  0
  149.6474  139.7826  154.3817 H   0  0  0  0  0  0  0  0  0  0  0  0
  149.2169  139.2976  155.9957 H   0  0  0  0  0  0  0  0  0  0  0  0
  148.2640  141.1323  153.1678 H   0  0  0  0  0  0  0  0  0  0  0  0
  146.2986  142.4702  152.8970 H   0  0  0  0  0  0  0  0  0  0  0  0
  145.5107  141.6045  158.1410 H   0  0  0  0  0  0  0  0  0  0  0  0
  144.5412  142.7828  157.2491 H   0  0  0  0  0  0  0  0  0  0  0  0
  146.1186  143.2919  157.9481 H   0  0  0  0  0  0  0  0  0  0  0  0
  151.2254  141.2260  159.6914 H   0  0  0  0  0  0  0  0  0  0  0  0
  153.5871  140.3757  157.9415 H   0  0  0  0  0  0  0  0  0  0  0  0
  152.0298  139.5594  157.9870 H   0  0  0  0  0  0  0  0  0  0  0  0
  153.0380  139.5648  159.4067 H   0  0  0  0  0  0  0  0  0  0  0  0
  1  2  1  0  0  0  0
  1 22  1  0  0  0  0
  1 23  1  0  0  0  0
  1 24  1  0  0  0  0
  2 20  1  0  0  0  0
  2  3  1  0  0  0  0
  2 25  1  0  0  0  0
  3  4  1  0  0  0  0
  3 26  1  0  0  0  0
  3 27  1  0  0  0  0
  4  5  1  0  0  0  0
  4 28  1  0  0  0  0
  4 29  1  0  0  0  0
  5  6  1  0  0  0  0
  5 30  1  0  0  0  0
  5 31  1  0  0  0  0
  6  7  1  0  0  0  0
  6 20  1  0  0  0  0
  6 32  1  0  0  0  0
  7  8  1  0  0  0  0
  7 33  1  0  0  0  0
  8  9  2  0  0  0  0
  8 10  1  0  0  0  0
 10 11  1  0  0  0  0
 10 34  1  0  0  0  0
 10 35  1  0  0  0  0
 11 18  1  0  0  0  0
 11 12  1  0  0  0  0
 12 13  2  0  0  0  0
 12 36  1  0  0  0  0
 13 14  1  0  0  0  0
 13 37  1  0  0  0  0
 14 15  2  0  0  0  0
 14 16  1  0  0  0  0
 16 17  1  0  0  0  0
 16 18  1  0  0  0  0
 17 38  1  0  0  0  0
 17 39  1  0  0  0  0
 17 40  1  0  0  0  0
 18 19  2  0  0  0  0
 20 21  1  0  0  0  0
 20 41  1  0  0  0  0
 21 42  1  0  0  0  0
 21 43  1  0  0  0  0
 21 44  1  0  0  0  0
M  END
> <s_m_source_file>
AV-unprocessed.smi

> <i_m_source_file_index>
2143

> <i_lp_mmshare_version>
43012

> <i_f3d_flags>
0

> <s_epik_input>
W0NIM11bQ0BASF0xW0NIMl1bQ0gyXVtDSDJdW0NASF0oW0NASF0xW0NIM10pW05IXUMoPU8pW0NIMl1uMltjSF1bY0hdYyg9TyluKFtDSDNdKWMyPU8=

> <s_epik_cmdline>
J2VwaWtfcHl0aG9uJywgJy1waCcsICc3LjAnLCAnLXRuJywgJzgnLCAnLW1hJywgJzIwMCcsICctbWV0YWxfYmluZGluZycsICctaW1hZScsICc8aW5maWxlLm1hZT4nLCAnLW9tYWUnLCAnPG91dGZpbGUubWFlPic=

> <r_lp_tautomer_probability>
1

> <r_epik_Ionization_Penalty>
3.18445e-08

> <r_epik_Ionization_Penalty_Charging>
1.27977e-08

> <r_epik_Ionization_Penalty_Neutral>
1.90469e-08

> <r_epik_State_Penalty>
-0

> <r_epik_Charging_Adjusted_Penalty>
1.27977e-08

> <i_epik_Tot_Q>
0

> <i_epik_Tot_abs_Q>
0

> <r_epik_Metal_State_Penalty>
-0

> <b_epik_Metal_Only>
0

> <s_lp_Force_Field>
OPLS_2005

> <r_lp_Energy>
20.5946

> <b_lp_Chiralities_Consistent>
1

> <s_lp_Variant>
AV-unprocessed.smi:2143-3

> <Gold.Version>
5.8.1

> <Gold.Id.Protein>
6NUR|6NUR_protein|mol2

> <Gold.PLP.Fitness>
47.1916

> <Gold.PLP.PLP>
-42.4595

> <Gold.PLP.part.hbond>
-1.0000

> <Gold.PLP.part.metal>
0.0000

> <Gold.PLP.part.buried>
-5.7129

> <Gold.PLP.part.nonpolar>
-36.2475

> <Gold.PLP.part.repulsive>
0.3384

> <Gold.PLP.ligand.clash>
0.0000

> <Gold.PLP.ligand.torsion>
0.2190

> <Gold.PLP.Chemscore.Hbond>
0.7200

> <Gold.PLP.Chemscore.CHOScore>
1.0000

> <Gold.PLP.Chemscore.Metal>
0.0000

> <Gold.Chemscore.Hbonds>
donor molecule, donor type, donor heavy atom, donor atom, acceptor molecule, acceptor atom, score
      P1  H  7989  7998       L1     9  0.48
      L1  C    12    36       P1  7957  0.72

> <Gold.PLP.Chemscore.Internal.Correction>
0.0102

> <Gold.Rescore>
     Score         DG    S(hbond)    S(metal)    S(lipo)     H(rot)  DE(clash)    DE(int)     intcor
     16.01     -16.54       0.91        0.00     101.71       1.51       0.03       0.51       ----

> <Gold.Chemscore.Fitness>
16.0086

> <Gold.Chemscore.DG>
-16.5432

> <Gold.Chemscore.ZeroCoef>
-5.4800

> <Gold.Chemscore.Hbond>
0.9092

> <Gold.Chemscore.Metal>
0.0000

> <Gold.Chemscore.Lipo>
101.7081

> <Gold.Chemscore.Internal_Hbond>
0.0000

> <Gold.Chemscore.DEClash>
0.0263

> <Gold.Chemscore.DEInternal>
0.5083

> <Gold.Chemscore.Rot>
1.5131

> <Gold.Chemscore.Internal.Correction>
   9.000000E+99

> <Gold.Chemscore.Hbonds>
donor molecule, donor type, donor heavy atom, donor atom, acceptor molecule, acceptor atom, score
      P1  H  7989  7998       L1     9  0.48

> <Gold.Chemscore.Hbond.Weighted>
-3.0367

> <Gold.Chemscore.Metal.Weighted>
-0.0000

> <Gold.Chemscore.Lipo.Weighted>
-11.8998

> <Gold.Chemscore.Internal_Hbond.Weighted>
0.0000

> <Gold.Chemscore.DEClash.Weighted>
0.0263

> <Gold.Chemscore.DEInternal.Weighted>
0.5083

> <Gold.Chemscore.Rot.Weighted>
3.8734

> <Gold.Chemscore.Internal.Correction.Weighted>
   9.000000E+99

> <Gold.Protein.RotatedTorsions>
[ 6907 6896 6895 6894 ] final  -79.05 input  -60.11 | X-H torsion
[ 7974 7965 7964 7962 ] final  -92.60 input  175.53 | X-H torsion
[ 8008 7997 7996 7995 ] final  -16.17 input   59.86 | X-H torsion
[ 10167 10162 10161 10158 ] final -119.38 input  -65.29 | X-H torsion
[ 10718 10713 10712 10709 ] final  156.57 input   66.30 | X-H torsion
[ 10763 10752 10751 10750 ] final  144.90 input  -60.55 | X-H torsion
[ 11005 11000 10999 10996 ] final  -29.32 input  -57.11 | X-H torsion

> <Gold.Protein.ActiveResidues>
 VAL166  LYS551  ARG553  GLY616  TRP617  ASP618  TYR619  PRO620  LYS621  CYS622 
 ASP623  PHE694  ASN695  SER759  ASP760  ASP761  ALA762  ILE779  LEU786  VAL792 
 PHE793  MET794  SER795  GLU796  ALA797  LYS798  CYS799  TRP800  GLU811  SER814 

> <Gold.Protein.RotatedAtoms>
  150.6958  134.4180  159.5191 H   0  0  0  0  0  0  0  0  0  0  0  0  # atno 6907 bound_to 6896
  152.1927  134.8655  160.0525 H   0  0  0  0  0  0  0  0  0  0  0  0  # atno 6908 bound_to 6896
  151.9604  133.3658  159.4070 H   0  0  0  0  0  0  0  0  0  0  0  0  # atno 6909 bound_to 6896
  145.3976  140.9534  143.2305 H   0  0  0  0  0  0  0  0  0  0  0  0  # atno 7974 bound_to 7965
  154.5073  140.2176  155.9225 H   0  0  0  0  0  0  0  0  0  0  0  0  # atno 8008 bound_to 7997
  156.1509  140.3161  155.8614 H   0  0  0  0  0  0  0  0  0  0  0  0  # atno 8009 bound_to 7997
  155.3939  140.0480  157.3030 H   0  0  0  0  0  0  0  0  0  0  0  0  # atno 8010 bound_to 7997
  140.0472  143.5095  152.2100 H   0  0  0  0  0  0  0  0  0  0  0  0  # atno 10167 bound_to 10162
  157.2031  131.0681  151.2013 H   0  0  0  0  0  0  0  0  0  0  0  0  # atno 10718 bound_to 10713
  153.9965  135.2927  155.3407 H   0  0  0  0  0  0  0  0  0  0  0  0  # atno 10763 bound_to 10752
  154.7184  135.5120  153.8777 H   0  0  0  0  0  0  0  0  0  0  0  0  # atno 10764 bound_to 10752
  153.0785  135.6671  154.0212 H   0  0  0  0  0  0  0  0  0  0  0  0  # atno 10765 bound_to 10752
  140.9286  133.7353  156.0903 H   0  0  0  0  0  0  0  0  0  0  0  0  # atno 11005 bound_to 11000
  144.8396  139.5493  143.6906 LP  0  0  0  0  0  0  0  0  0  0  0  0  # atno 17320 bound_to 7965
  146.2767  139.6772  142.9258 LP  0  0  0  0  0  0  0  0  0  0  0  0  # atno 17321 bound_to 7965
  139.5976  144.7572  151.3249 LP  0  0  0  0  0  0  0  0  0  0  0  0  # atno 17342 bound_to 10162
  140.7233  143.7074  150.7796 LP  0  0  0  0  0  0  0  0  0  0  0  0  # atno 17343 bound_to 10162
  157.3747  130.7199  149.6589 LP  0  0  0  0  0  0  0  0  0  0  0  0  # atno 17370 bound_to 10713
  155.9698  130.4189  150.4349 LP  0  0  0  0  0  0  0  0  0  0  0  0  # atno 17371 bound_to 10713
  140.7893  134.3636  157.5468 LP  0  0  0  0  0  0  0  0  0  0  0  0  # atno 17394 bound_to 11000
  139.8791  134.9130  156.3074 LP  0  0  0  0  0  0  0  0  0  0  0  0  # atno 17395 bound_to 11000

$$$$
