AV-unprocessed.smi:2135|AV-procd|sdf|8700|dock3
  -GOLD-   2272011453D 1   1.00000     0.00000
 Structure written by MMmdl.
 43 44  0  0  0  0  0  0  0  0  2 V2000
  147.0087  134.9233  161.9750 C   0  0  0  0  0  0  0  0  0  0  0  0
  147.2796  136.4493  160.9860 S   0  0  0  0  0  0  0  0  0  0  0  0
  146.2192  137.4127  161.3190 O   0  0  0  0  0  0  0  0  0  0  0  0
  148.6914  136.8350  161.1341 O   0  0  0  0  0  0  0  0  0  0  0  0
  147.0543  135.9375  159.3381 N   0  0  0  0  0  0  0  0  0  0  0  0
  145.9972  136.5376  158.5037 C   0  0  0  0  0  0  0  0  0  0  0  0
  146.5941  137.3972  157.3774 C   0  0  0  0  0  0  0  0  0  0  0  0
  147.6384  136.6157  156.5590 C   0  0  0  0  0  0  0  0  0  0  0  0
  148.7408  136.0090  157.4578 C   0  0  1  0  0  0  0  0  0  0  0  0
  149.7639  137.0430  157.9660 C   0  0  0  0  0  0  0  0  0  0  0  0
  150.1917  137.0111  159.1205 O   0  0  0  0  0  0  0  0  0  0  0  0
  150.1241  137.9933  157.0886 N   0  0  0  0  0  0  0  0  0  0  0  0
  151.0722  139.0673  157.3585 C   0  0  0  0  0  0  0  0  0  0  0  0
  150.6574  139.8945  158.5864 C   0  0  0  0  0  0  0  0  0  0  0  0
  151.0599  141.3503  158.4571 C   0  0  0  0  0  0  0  0  0  0  0  0
  152.0966  141.8858  159.2530 C   0  0  0  0  0  0  0  0  0  0  0  0
  152.4454  143.2452  159.1107 C   0  0  0  0  0  0  0  0  0  0  0  0
  151.7488  144.0386  158.1761 C   0  0  0  0  0  0  0  0  0  0  0  0
  150.7619  143.4915  157.4327 N   0  3  0  0  0  0  0  0  0  0  0  0
  150.3986  142.1944  157.5384 C   0  0  0  0  0  0  0  0  0  0  0  0
  148.0893  135.1857  158.5971 C   0  0  0  0  0  0  0  0  0  0  0  0
  147.2919  135.1150  163.0095 H   0  0  0  0  0  0  0  0  0  0  0  0
  147.6199  134.1122  161.5808 H   0  0  0  0  0  0  0  0  0  0  0  0
  145.9580  134.6453  161.9487 H   0  0  0  0  0  0  0  0  0  0  0  0
  145.3969  135.7340  158.0758 H   0  0  0  0  0  0  0  0  0  0  0  0
  145.3242  137.1361  159.1176 H   0  0  0  0  0  0  0  0  0  0  0  0
  145.7956  137.7393  156.7186 H   0  0  0  0  0  0  0  0  0  0  0  0
  147.0334  138.2991  157.8013 H   0  0  0  0  0  0  0  0  0  0  0  0
  147.1377  135.8105  156.0197 H   0  0  0  0  0  0  0  0  0  0  0  0
  148.0730  137.2604  155.7938 H   0  0  0  0  0  0  0  0  0  0  0  0
  149.3152  135.3174  156.8393 H   0  0  0  0  0  0  0  0  0  0  0  0
  149.7220  137.9604  156.1627 H   0  0  0  0  0  0  0  0  0  0  0  0
  152.0730  138.6532  157.4936 H   0  0  0  0  0  0  0  0  0  0  0  0
  151.1176  139.7072  156.4767 H   0  0  0  0  0  0  0  0  0  0  0  0
  149.5782  139.8313  158.7329 H   0  0  0  0  0  0  0  0  0  0  0  0
  151.1134  139.4876  159.4901 H   0  0  0  0  0  0  0  0  0  0  0  0
  152.6193  141.2644  159.9657 H   0  0  0  0  0  0  0  0  0  0  0  0
  153.2359  143.6726  159.7103 H   0  0  0  0  0  0  0  0  0  0  0  0
  151.9495  145.0858  158.0022 H   0  0  0  0  0  0  0  0  0  0  0  0
  149.5944  141.8741  156.8916 H   0  0  0  0  0  0  0  0  0  0  0  0
  148.8441  134.8068  159.2857 H   0  0  0  0  0  0  0  0  0  0  0  0
  147.6180  134.3004  158.1690 H   0  0  0  0  0  0  0  0  0  0  0  0
  150.2699  144.0832  156.7625 H   0  0  0  0  0  0  0  0  0  0  0  0
  1  2  1  0  0  0  0
  1 22  1  0  0  0  0
  1 23  1  0  0  0  0
  1 24  1  0  0  0  0
  2  3  2  0  0  0  0
  2  4  2  0  0  0  0
  2  5  1  0  0  0  0
  5 21  1  0  0  0  0
  5  6  1  0  0  0  0
  6  7  1  0  0  0  0
  6 25  1  0  0  0  0
  6 26  1  0  0  0  0
  7  8  1  0  0  0  0
  7 27  1  0  0  0  0
  7 28  1  0  0  0  0
  8  9  1  0  0  0  0
  8 29  1  0  0  0  0
  8 30  1  0  0  0  0
  9 10  1  0  0  0  0
  9 21  1  0  0  0  0
  9 31  1  0  0  0  0
 10 11  2  0  0  0  0
 10 12  1  0  0  0  0
 12 13  1  0  0  0  0
 12 32  1  0  0  0  0
 13 14  1  0  0  0  0
 13 33  1  0  0  0  0
 13 34  1  0  0  0  0
 14 15  1  0  0  0  0
 14 35  1  0  0  0  0
 14 36  1  0  0  0  0
 15 20  1  0  0  0  0
 15 16  2  0  0  0  0
 16 17  1  0  0  0  0
 16 37  1  0  0  0  0
 17 18  2  0  0  0  0
 17 38  1  0  0  0  0
 18 19  1  0  0  0  0
 18 39  1  0  0  0  0
 19 20  2  0  0  0  0
 19 43  1  0  0  0  0
 20 40  1  0  0  0  0
 21 41  1  0  0  0  0
 21 42  1  0  0  0  0
M  CHG  1  19   1
M  END
> <s_m_source_file>
AV-unprocessed.smi

> <i_m_source_file_index>
2135

> <i_lp_mmshare_version>
43012

> <i_f3d_flags>
0

> <s_epik_input>
W0NIM11TKD1PKSg9TylOMVtDSDJdW0NIMl1bQ0gyXVtDQEhdKFtDSDJdMSlDKD1PKVtOSF1bQ0gyXVtDSDJdYzJbY0hdW2NIXVtjSF1uW2NIXTI=

> <s_epik_cmdline>
J2VwaWtfcHl0aG9uJywgJy1waCcsICc3LjAnLCAnLXRuJywgJzgnLCAnLW1hJywgJzIwMCcsICctbWV0YWxfYmluZGluZycsICctaW1hZScsICc8aW5maWxlLm1hZT4nLCAnLW9tYWUnLCAnPG91dGZpbGUubWFlPic=

> <r_epik_Ionization_Penalty>
2.24912

> <r_epik_Ionization_Penalty_Charging>
2.24912

> <r_epik_Ionization_Penalty_Neutral>
2.62834e-08

> <r_epik_State_Penalty>
2.39611

> <r_epik_Charging_Adjusted_Penalty>
4.64523

> <i_epik_Tot_Q>
1

> <i_epik_Tot_abs_Q>
1

> <r_epik_Metal_State_Penalty>
2.40934

> <b_epik_Metal_Only>
0

> <s_lp_Force_Field>
OPLS_2005

> <r_lp_Energy>
5.07519

> <b_lp_Chiralities_Consistent>
1

> <s_lp_Variant>
AV-unprocessed.smi:2135-3

> <Gold.Version>
5.8.1

> <Gold.Id.Protein>
6NUR|6NUR_protein|mol2

> <Gold.PLP.Fitness>
44.2742

> <Gold.PLP.PLP>
-30.9564

> <Gold.PLP.part.hbond>
-3.7754

> <Gold.PLP.part.metal>
0.0000

> <Gold.PLP.part.buried>
-4.3123

> <Gold.PLP.part.nonpolar>
-23.8127

> <Gold.PLP.part.repulsive>
0.0254

> <Gold.PLP.ligand.clash>
0.0000

> <Gold.PLP.ligand.torsion>
1.8265

> <Gold.PLP.Chemscore.Hbond>
4.9588

> <Gold.PLP.Chemscore.CHOScore>
0.0000

> <Gold.PLP.Chemscore.Metal>
0.0000

> <Gold.Chemscore.Hbonds>
donor molecule, donor type, donor heavy atom, donor atom, acceptor molecule, acceptor atom, score
      L1  H    19    43       P1  8028  2.00
      P1  H  6896  6908       L1    11  0.41
      P1  H  6931  6943       L1     4  1.00
      P1  H  6934  6947       L1     3  0.95

> <Gold.PLP.Chemscore.Internal.Correction>
2.0945

> <Gold.Rescore>
     Score         DG    S(hbond)    S(metal)    S(lipo)     H(rot)  DE(clash)    DE(int)     intcor
     16.52     -21.41       3.61        0.00      69.29       1.65       0.00       4.89       ----

> <Gold.Chemscore.Fitness>
16.5186

> <Gold.Chemscore.DG>
-21.4092

> <Gold.Chemscore.ZeroCoef>
-5.4800

> <Gold.Chemscore.Hbond>
3.6095

> <Gold.Chemscore.Metal>
0.0000

> <Gold.Chemscore.Lipo>
69.2913

> <Gold.Chemscore.Internal_Hbond>
0.0000

> <Gold.Chemscore.DEClash>
0.0000

> <Gold.Chemscore.DEInternal>
4.8906

> <Gold.Chemscore.Rot>
1.6538

> <Gold.Chemscore.Internal.Correction>
   9.000000E+99

> <Gold.Chemscore.Hbonds>
donor molecule, donor type, donor heavy atom, donor atom, acceptor molecule, acceptor atom, score
      L1  H    19    43       P1  8028  0.99
      P1  H  6896  6908       L1    11  0.40
      P1  H  6931  6943       L1     4  0.95
      P1  H  6934  6947       L1     3  0.21

> <Gold.Chemscore.Hbond.Weighted>
-12.0558

> <Gold.Chemscore.Metal.Weighted>
-0.0000

> <Gold.Chemscore.Lipo.Weighted>
-8.1071

> <Gold.Chemscore.Internal_Hbond.Weighted>
0.0000

> <Gold.Chemscore.DEClash.Weighted>
0.0000

> <Gold.Chemscore.DEInternal.Weighted>
4.8906

> <Gold.Chemscore.Rot.Weighted>
4.2337

> <Gold.Chemscore.Internal.Correction.Weighted>
   9.000000E+99

> <Gold.Protein.RotatedTorsions>
[ 6907 6896 6895 6894 ] final -145.73 input  -60.11 | X-H torsion
[ 7974 7965 7964 7962 ] final  -40.36 input  175.53 | X-H torsion
[ 8008 7997 7996 7995 ] final   58.77 input   59.86 | X-H torsion
[ 10167 10162 10161 10158 ] final   51.95 input  -65.29 | X-H torsion
[ 10718 10713 10712 10709 ] final  171.53 input   66.30 | X-H torsion
[ 10763 10752 10751 10750 ] final  -55.53 input  -60.55 | X-H torsion
[ 11005 11000 10999 10996 ] final  -74.89 input  -57.11 | X-H torsion

> <Gold.Protein.ActiveResidues>
 VAL166  LYS551  ARG553  GLY616  TRP617  ASP618  TYR619  PRO620  LYS621  CYS622 
 ASP623  PHE694  ASN695  SER759  ASP760  ASP761  ALA762  ILE779  LEU786  VAL792 
 PHE793  MET794  SER795  GLU796  ALA797  LYS798  CYS799  TRP800  GLU811  SER814 

> <Gold.Protein.RotatedAtoms>
  151.1319  133.5031  159.2598 H   0  0  0  0  0  0  0  0  0  0  0  0  # atno 6907 bound_to 6896
  151.1748  135.0334  159.8777 H   0  0  0  0  0  0  0  0  0  0  0  0  # atno 6908 bound_to 6896
  152.5460  134.1178  159.8439 H   0  0  0  0  0  0  0  0  0  0  0  0  # atno 6909 bound_to 6896
  146.0312  140.6729  142.9132 H   0  0  0  0  0  0  0  0  0  0  0  0  # atno 7974 bound_to 7965
  155.5554  140.3487  155.4478 H   0  0  0  0  0  0  0  0  0  0  0  0  # atno 8008 bound_to 7997
  156.0553  140.1327  157.0030 H   0  0  0  0  0  0  0  0  0  0  0  0  # atno 8009 bound_to 7997
  154.4453  140.0996  156.6421 H   0  0  0  0  0  0  0  0  0  0  0  0  # atno 8010 bound_to 7997
  140.2566  144.3420  150.6331 H   0  0  0  0  0  0  0  0  0  0  0  0  # atno 10167 bound_to 10162
  156.9922  131.0151  151.2853 H   0  0  0  0  0  0  0  0  0  0  0  0  # atno 10718 bound_to 10713
  154.1923  135.6425  153.5063 H   0  0  0  0  0  0  0  0  0  0  0  0  # atno 10763 bound_to 10752
  153.0032  135.5431  154.6402 H   0  0  0  0  0  0  0  0  0  0  0  0  # atno 10764 bound_to 10752
  154.5794  135.2924  155.0721 H   0  0  0  0  0  0  0  0  0  0  0  0  # atno 10765 bound_to 10752
  141.1640  133.6927  156.7433 H   0  0  0  0  0  0  0  0  0  0  0  0  # atno 11005 bound_to 11000
  144.7031  140.3739  143.7140 LP  0  0  0  0  0  0  0  0  0  0  0  0  # atno 17320 bound_to 7965
  145.7038  139.1667  143.2578 LP  0  0  0  0  0  0  0  0  0  0  0  0  # atno 17321 bound_to 7965
  140.5999  143.2167  151.7092 LP  0  0  0  0  0  0  0  0  0  0  0  0  # atno 17342 bound_to 10162
  139.5030  144.3809  152.0377 LP  0  0  0  0  0  0  0  0  0  0  0  0  # atno 17343 bound_to 10162
  157.5451  130.8145  149.8075 LP  0  0  0  0  0  0  0  0  0  0  0  0  # atno 17370 bound_to 10713
  156.0203  130.3798  150.1983 LP  0  0  0  0  0  0  0  0  0  0  0  0  # atno 17371 bound_to 10713
  140.2658  134.8431  157.3801 LP  0  0  0  0  0  0  0  0  0  0  0  0  # atno 17394 bound_to 11000
  140.1568  134.4779  155.7922 LP  0  0  0  0  0  0  0  0  0  0  0  0  # atno 17395 bound_to 11000

$$$$
