AV-unprocessed.smi:1571|AV-procd|sdf|6326|dock1
  -GOLD-   22720 6533D 1   1.00000     0.00000
 Structure written by MMmdl.
 37 38  0  0  0  0  0  0  0  0  1 V2000
  146.9143  142.0348  157.4066 C   0  0  0  0  0  0  0  0  0  0  0  0
  146.5720  141.1714  156.2263 C   0  0  0  0  0  0  0  0  0  0  0  0
  145.5440  140.3444  156.3119 N   0  0  0  0  0  0  0  0  0  0  0  0
  145.4805  139.6831  155.0821 O   0  0  0  0  0  0  0  0  0  0  0  0
  146.4841  140.1439  154.2938 C   0  0  0  0  0  0  0  0  0  0  0  0
  146.5840  139.5460  152.9312 C   0  0  0  0  0  0  0  0  0  0  0  0
  147.2143  141.0928  154.9562 C   0  0  0  0  0  0  0  0  0  0  0  0
  148.4144  141.8681  154.4675 C   0  0  0  0  0  0  0  0  0  0  0  0
  149.6740  141.5484  155.2826 C   0  0  0  0  0  0  0  0  0  0  0  0
  150.3969  140.5934  154.9941 O   0  0  0  0  0  0  0  0  0  0  0  0
  149.9208  142.3766  156.3095 N   0  0  0  0  0  0  0  0  0  0  0  0
  151.0549  142.3000  157.2272 C   0  0  0  0  0  0  0  0  0  0  0  0
  150.8078  141.1743  158.2500 C   0  0  0  0  0  0  0  0  0  0  0  0
  151.9957  140.9569  159.1980 C   0  0  0  0  0  0  0  0  0  0  0  0
  152.3548  142.4881  160.1532 S   0  0  0  0  0  0  0  0  0  0  0  0
  151.1565  142.8240  160.9378 O   0  0  0  0  0  0  0  0  0  0  0  0
  153.6588  142.3445  160.8175 O   0  0  0  0  0  0  0  0  0  0  0  0
  152.5056  143.7192  158.7941 C   0  0  0  0  0  0  0  0  0  0  0  0
  151.2703  143.6773  157.8841 C   0  0  0  0  0  0  0  0  0  0  0  0
  147.8000  142.6408  157.2178 H   0  0  0  0  0  0  0  0  0  0  0  0
  147.1147  141.4281  158.2899 H   0  0  0  0  0  0  0  0  0  0  0  0
  146.0948  142.7126  157.6469 H   0  0  0  0  0  0  0  0  0  0  0  0
  147.4279  139.9601  152.3798 H   0  0  0  0  0  0  0  0  0  0  0  0
  145.6777  139.7399  152.3573 H   0  0  0  0  0  0  0  0  0  0  0  0
  146.7218  138.4666  152.9938 H   0  0  0  0  0  0  0  0  0  0  0  0
  148.6204  141.6473  153.4198 H   0  0  0  0  0  0  0  0  0  0  0  0
  148.2332  142.9422  154.5159 H   0  0  0  0  0  0  0  0  0  0  0  0
  149.2678  143.1309  156.4660 H   0  0  0  0  0  0  0  0  0  0  0  0
  151.9609  142.0511  156.6717 H   0  0  0  0  0  0  0  0  0  0  0  0
  149.9116  141.3916  158.8327 H   0  0  0  0  0  0  0  0  0  0  0  0
  150.6083  140.2414  157.7214 H   0  0  0  0  0  0  0  0  0  0  0  0
  151.7899  140.1539  159.9056 H   0  0  0  0  0  0  0  0  0  0  0  0
  152.8915  140.6849  158.6397 H   0  0  0  0  0  0  0  0  0  0  0  0
  152.6298  144.7061  159.2400 H   0  0  0  0  0  0  0  0  0  0  0  0
  153.4107  143.4951  158.2292 H   0  0  0  0  0  0  0  0  0  0  0  0
  151.3829  144.4354  157.1082 H   0  0  0  0  0  0  0  0  0  0  0  0
  150.3856  143.9579  158.4573 H   0  0  0  0  0  0  0  0  0  0  0  0
  1  2  1  0  0  0  0
  1 20  1  0  0  0  0
  1 21  1  0  0  0  0
  1 22  1  0  0  0  0
  2  7  1  0  0  0  0
  2  3  2  0  0  0  0
  3  4  1  0  0  0  0
  4  5  1  0  0  0  0
  5  6  1  0  0  0  0
  5  7  2  0  0  0  0
  6 23  1  0  0  0  0
  6 24  1  0  0  0  0
  6 25  1  0  0  0  0
  7  8  1  0  0  0  0
  8  9  1  0  0  0  0
  8 26  1  0  0  0  0
  8 27  1  0  0  0  0
  9 10  2  0  0  0  0
  9 11  1  0  0  0  0
 11 12  1  0  0  0  0
 11 28  1  0  0  0  0
 12 19  1  0  0  0  0
 12 13  1  0  0  0  0
 12 29  1  0  0  0  0
 13 14  1  0  0  0  0
 13 30  1  0  0  0  0
 13 31  1  0  0  0  0
 14 15  1  0  0  0  0
 14 32  1  0  0  0  0
 14 33  1  0  0  0  0
 15 16  2  0  0  0  0
 15 17  2  0  0  0  0
 15 18  1  0  0  0  0
 18 19  1  0  0  0  0
 18 34  1  0  0  0  0
 18 35  1  0  0  0  0
 19 36  1  0  0  0  0
 19 37  1  0  0  0  0
M  END
> <s_m_source_file>
AV-unprocessed.smi

> <i_m_source_file_index>
1571

> <i_lp_mmshare_version>
43012

> <i_f3d_flags>
0

> <s_epik_input>
W0NIM11jMW5vYyhbQ0gzXSljMVtDSDJdQyg9TylbTkhdW0NIXShbQ0gyXVtDSDJdMilbQ0gyXVtDSDJdUzIoPU8pPU8=

> <s_epik_cmdline>
J2VwaWtfcHl0aG9uJywgJy1waCcsICc3LjAnLCAnLXRuJywgJzgnLCAnLW1hJywgJzIwMCcsICctbWV0YWxfYmluZGluZycsICctaW1hZScsICc8aW5maWxlLm1hZT4nLCAnLW9tYWUnLCAnPG91dGZpbGUubWFlPic=

> <r_lp_tautomer_probability>
1

> <r_epik_Ionization_Penalty>
4.0065e-08

> <r_epik_Ionization_Penalty_Charging>
0

> <r_epik_Ionization_Penalty_Neutral>
4.0065e-08

> <r_epik_State_Penalty>
-0

> <r_epik_Charging_Adjusted_Penalty>
0

> <i_epik_Tot_Q>
0

> <i_epik_Tot_abs_Q>
0

> <r_epik_Metal_State_Penalty>
-0

> <b_epik_Metal_Only>
0

> <s_lp_Force_Field>
OPLS_2005

> <r_lp_Energy>
-11.0004

> <b_lp_Chiralities_Consistent>
1

> <s_lp_Variant>
AV-unprocessed.smi:1571-1

> <Gold.Version>
5.8.1

> <Gold.Id.Protein>
6NUR|6NUR_protein|mol2

> <Gold.PLP.Fitness>
38.3809

> <Gold.PLP.PLP>
-33.5015

> <Gold.PLP.part.hbond>
-3.0000

> <Gold.PLP.part.metal>
0.0000

> <Gold.PLP.part.buried>
-3.2675

> <Gold.PLP.part.nonpolar>
-28.2292

> <Gold.PLP.part.repulsive>
0.4165

> <Gold.PLP.ligand.clash>
0.0000

> <Gold.PLP.ligand.torsion>
0.6461

> <Gold.PLP.Chemscore.Hbond>
2.0515

> <Gold.PLP.Chemscore.CHOScore>
0.0000

> <Gold.PLP.Chemscore.Metal>
0.0000

> <Gold.Chemscore.Hbonds>
donor molecule, donor type, donor heavy atom, donor atom, acceptor molecule, acceptor atom, score
      L1  H    11    28       P1  8028  0.72
      P1  H  6933  6945       L1    16  0.16
      P1  H  7989  7998       L1    10  0.94

> <Gold.PLP.Chemscore.Internal.Correction>
0.0171

> <Gold.Rescore>
     Score         DG    S(hbond)    S(metal)    S(lipo)     H(rot)  DE(clash)    DE(int)     intcor
     14.96     -15.69       1.52        0.00      75.74       1.46       0.29       0.44       ----

> <Gold.Chemscore.Fitness>
14.9644

> <Gold.Chemscore.DG>
-15.6921

> <Gold.Chemscore.ZeroCoef>
-5.4800

> <Gold.Chemscore.Hbond>
1.5234

> <Gold.Chemscore.Metal>
0.0000

> <Gold.Chemscore.Lipo>
75.7421

> <Gold.Chemscore.Internal_Hbond>
0.0000

> <Gold.Chemscore.DEClash>
0.2850

> <Gold.Chemscore.DEInternal>
0.4427

> <Gold.Chemscore.Rot>
1.4601

> <Gold.Chemscore.Internal.Correction>
   9.000000E+99

> <Gold.Chemscore.Hbonds>
donor molecule, donor type, donor heavy atom, donor atom, acceptor molecule, acceptor atom, score
      L1  H    11    28       P1  8028  0.72
      P1  H  6933  6945       L1    16  0.16
      P1  H  7989  7998       L1    10  0.82

> <Gold.Chemscore.Hbond.Weighted>
-5.0881

> <Gold.Chemscore.Metal.Weighted>
-0.0000

> <Gold.Chemscore.Lipo.Weighted>
-8.8618

> <Gold.Chemscore.Internal_Hbond.Weighted>
0.0000

> <Gold.Chemscore.DEClash.Weighted>
0.2850

> <Gold.Chemscore.DEInternal.Weighted>
0.4427

> <Gold.Chemscore.Rot.Weighted>
3.7379

> <Gold.Chemscore.Internal.Correction.Weighted>
   9.000000E+99

> <Gold.Protein.RotatedTorsions>
[ 6907 6896 6895 6894 ] final  113.38 input  -60.11 | X-H torsion
[ 7974 7965 7964 7962 ] final -160.29 input  175.53 | X-H torsion
[ 8008 7997 7996 7995 ] final -171.50 input   59.86 | X-H torsion
[ 10167 10162 10161 10158 ] final   65.88 input  -65.29 | X-H torsion
[ 10718 10713 10712 10709 ] final   14.85 input   66.30 | X-H torsion
[ 10763 10752 10751 10750 ] final  111.39 input  -60.55 | X-H torsion
[ 11005 11000 10999 10996 ] final  -82.92 input  -57.11 | X-H torsion

> <Gold.Protein.ActiveResidues>
 VAL166  LYS551  ARG553  GLY616  TRP617  ASP618  TYR619  PRO620  LYS621  CYS622 
 ASP623  PHE694  ASN695  SER759  ASP760  ASP761  ALA762  ILE779  LEU786  VAL792 
 PHE793  MET794  SER795  GLU796  ALA797  LYS798  CYS799  TRP800  GLU811  SER814 

> <Gold.Protein.RotatedAtoms>
  152.4864  133.8384  159.7139 H   0  0  0  0  0  0  0  0  0  0  0  0  # atno 6907 bound_to 6896
  150.8954  133.7178  159.2900 H   0  0  0  0  0  0  0  0  0  0  0  0  # atno 6908 bound_to 6896
  151.4637  135.1044  159.9784 H   0  0  0  0  0  0  0  0  0  0  0  0  # atno 6909 bound_to 6896
  144.7432  140.3563  143.6105 H   0  0  0  0  0  0  0  0  0  0  0  0  # atno 7974 bound_to 7965
  155.9324  140.1093  157.1122 H   0  0  0  0  0  0  0  0  0  0  0  0  # atno 8008 bound_to 7997
  154.4073  140.1235  156.4885 H   0  0  0  0  0  0  0  0  0  0  0  0  # atno 8009 bound_to 7997
  155.7064  140.3471  155.4957 H   0  0  0  0  0  0  0  0  0  0  0  0  # atno 8010 bound_to 7997
  140.1065  144.4857  150.7005 H   0  0  0  0  0  0  0  0  0  0  0  0  # atno 10167 bound_to 10162
  157.0450  130.6247  149.5757 H   0  0  0  0  0  0  0  0  0  0  0  0  # atno 10718 bound_to 10713
  153.4627  135.3718  155.2347 H   0  0  0  0  0  0  0  0  0  0  0  0  # atno 10763 bound_to 10752
  154.8757  135.3912  154.3906 H   0  0  0  0  0  0  0  0  0  0  0  0  # atno 10764 bound_to 10752
  153.4482  135.7085  153.6190 H   0  0  0  0  0  0  0  0  0  0  0  0  # atno 10765 bound_to 10752
  141.1661  133.7268  156.8643 H   0  0  0  0  0  0  0  0  0  0  0  0  # atno 11005 bound_to 11000
  145.7224  139.1713  143.2477 LP  0  0  0  0  0  0  0  0  0  0  0  0  # atno 17320 bound_to 7965
  146.1267  140.7239  142.9431 LP  0  0  0  0  0  0  0  0  0  0  0  0  # atno 17321 bound_to 7965
  140.6949  143.2398  151.5028 LP  0  0  0  0  0  0  0  0  0  0  0  0  # atno 17342 bound_to 10162
  139.5643  144.2081  152.1740 LP  0  0  0  0  0  0  0  0  0  0  0  0  # atno 17343 bound_to 10162
  156.0026  130.5107  150.7716 LP  0  0  0  0  0  0  0  0  0  0  0  0  # atno 17370 bound_to 10713
  157.5074  131.0923  151.0240 LP  0  0  0  0  0  0  0  0  0  0  0  0  # atno 17371 bound_to 10713
  140.1826  134.9022  157.2966 LP  0  0  0  0  0  0  0  0  0  0  0  0  # atno 17394 bound_to 11000
  140.2378  134.3832  155.7493 LP  0  0  0  0  0  0  0  0  0  0  0  0  # atno 17395 bound_to 11000

$$$$
