AV-unprocessed.smi:2844|AV-procd|sdf|10941|dock2
  -GOLD-   2272015393D 1   1.00000     0.00000
 Structure written by MMmdl.
 39 41  0  0  0  0  0  0  0  0  2 V2000
  153.0991  143.0316  161.1645 C   0  0  0  0  0  0  0  0  0  0  0  0
  152.4100  142.5572  159.8965 C   0  0  0  0  0  0  0  0  0  0  0  0
  152.3332  141.1674  159.6507 C   0  0  0  0  0  0  0  0  0  0  0  0
  151.6991  140.7641  158.4816 C   0  0  0  0  0  0  0  0  0  0  0  0
  151.4632  139.4899  157.9600 N   0  3  0  0  0  0  0  0  0  0  0  0
  150.7995  139.5995  156.7758 C   0  0  0  0  0  0  0  0  0  0  0  0
  150.6084  140.9249  156.5346 N   0  0  0  0  0  0  0  0  0  0  0  0
  149.9439  141.5925  155.4079 C   0  0  0  0  0  0  0  0  0  0  0  0
  149.0909  140.6269  154.5633 C   0  0  2  0  0  0  0  0  0  0  0  0
  149.9425  139.7734  153.8211 O   0  0  0  0  0  0  0  0  0  0  0  0
  148.1416  141.3798  153.6122 C   0  0  0  0  0  0  0  0  0  0  0  0
  147.1129  142.1170  154.3246 N   0  0  0  0  0  0  0  0  0  0  0  0
  146.1681  142.9794  153.8030 C   0  0  0  0  0  0  0  0  0  0  0  0
  145.4445  143.4136  154.8712 C   0  0  0  0  0  0  0  0  0  0  0  0
  144.1184  144.5157  154.8403 Cl  0  0  0  0  0  0  0  0  0  0  0  0
  145.9967  142.7803  156.0136 C   0  0  0  0  0  0  0  0  0  0  0  0
  147.0095  141.9965  155.6732 N   0  0  0  0  0  0  0  0  0  0  0  0
  151.1513  141.6894  157.5721 C   0  0  0  0  0  0  0  0  0  0  0  0
  151.2152  143.0618  157.7997 C   0  0  0  0  0  0  0  0  0  0  0  0
  151.8572  143.4923  158.9831 C   0  0  0  0  0  0  0  0  0  0  0  0
  151.9451  144.9841  159.2576 C   0  0  0  0  0  0  0  0  0  0  0  0
  153.4907  142.1943  161.7427 H   0  0  0  0  0  0  0  0  0  0  0  0
  152.3997  143.5767  161.7988 H   0  0  0  0  0  0  0  0  0  0  0  0
  153.9349  143.6891  160.9243 H   0  0  0  0  0  0  0  0  0  0  0  0
  152.7505  140.4499  160.3422 H   0  0  0  0  0  0  0  0  0  0  0  0
  150.4777  138.7836  156.1447 H   0  0  0  0  0  0  0  0  0  0  0  0
  149.3397  142.4127  155.7976 H   0  0  0  0  0  0  0  0  0  0  0  0
  150.7215  142.0475  154.7928 H   0  0  0  0  0  0  0  0  0  0  0  0
  148.4959  140.0009  155.2295 H   0  0  0  0  0  0  0  0  0  0  0  0
  149.5820  139.6705  152.9530 H   0  0  0  0  0  0  0  0  0  0  0  0
  148.7059  142.0909  153.0074 H   0  0  0  0  0  0  0  0  0  0  0  0
  147.6667  140.6874  152.9151 H   0  0  0  0  0  0  0  0  0  0  0  0
  146.0976  143.2022  152.7486 H   0  0  0  0  0  0  0  0  0  0  0  0
  145.7052  142.8599  157.0505 H   0  0  0  0  0  0  0  0  0  0  0  0
  150.7940  143.7722  157.1038 H   0  0  0  0  0  0  0  0  0  0  0  0
  151.4434  145.5630  158.4816 H   0  0  0  0  0  0  0  0  0  0  0  0
  152.9864  145.3054  159.2926 H   0  0  0  0  0  0  0  0  0  0  0  0
  151.4745  145.2283  160.2100 H   0  0  0  0  0  0  0  0  0  0  0  0
  151.7321  138.6089  158.3791 H   0  0  0  0  0  0  0  0  0  0  0  0
  1  2  1  0  0  0  0
  1 22  1  0  0  0  0
  1 23  1  0  0  0  0
  1 24  1  0  0  0  0
  2 20  1  0  0  0  0
  2  3  2  0  0  0  0
  3  4  1  0  0  0  0
  3 25  1  0  0  0  0
  4 18  2  0  0  0  0
  4  5  1  0  0  0  0
  5  6  2  0  0  0  0
  5 39  1  0  0  0  0
  6  7  1  0  0  0  0
  6 26  1  0  0  0  0
  7  8  1  0  0  0  0
  7 18  1  0  0  0  0
  8  9  1  0  0  0  0
  8 27  1  0  0  0  0
  8 28  1  0  0  0  0
  9 10  1  0  0  0  0
  9 11  1  0  0  0  0
  9 29  1  0  0  0  0
 10 30  1  0  0  0  0
 11 12  1  0  0  0  0
 11 31  1  0  0  0  0
 11 32  1  0  0  0  0
 12 17  1  0  0  0  0
 12 13  1  0  0  0  0
 13 14  2  0  0  0  0
 13 33  1  0  0  0  0
 14 15  1  0  0  0  0
 14 16  1  0  0  0  0
 16 17  2  0  0  0  0
 16 34  1  0  0  0  0
 18 19  1  0  0  0  0
 19 20  2  0  0  0  0
 19 35  1  0  0  0  0
 20 21  1  0  0  0  0
 21 36  1  0  0  0  0
 21 37  1  0  0  0  0
 21 38  1  0  0  0  0
M  CHG  1   5   1
M  END
> <s_m_source_file>
AV-unprocessed.smi

> <i_m_source_file_index>
2844

> <i_lp_mmshare_version>
43012

> <i_f3d_flags>
0

> <s_epik_input>
W0NIM11jKFtjSF0xKWMoW0NIM10pW2NIXWMoYzEyKW4oW2NIXW4yKVtDSDJdW0NASF0oW09IXSlbQ0gyXW4zW2NIXWMoQ2wpW2NIXW4z

> <s_epik_cmdline>
J2VwaWtfcHl0aG9uJywgJy1waCcsICc3LjAnLCAnLXRuJywgJzgnLCAnLW1hJywgJzIwMCcsICctbWV0YWxfYmluZGluZycsICctaW1hZScsICc8aW5maWxlLm1hZT4nLCAnLW9tYWUnLCAnPG91dGZpbGUubWFlPic=

> <r_lp_tautomer_probability>
1

> <r_epik_Ionization_Penalty>
1.09214

> <r_epik_Ionization_Penalty_Charging>
1.09214

> <r_epik_Ionization_Penalty_Neutral>
2.93683e-06

> <r_epik_State_Penalty>
1.14852

> <r_epik_Charging_Adjusted_Penalty>
2.24066

> <i_epik_Tot_Q>
1

> <i_epik_Tot_abs_Q>
1

> <r_epik_Metal_State_Penalty>
1.23687

> <b_epik_Metal_Only>
0

> <s_lp_Force_Field>
OPLS_2005

> <r_lp_Energy>
16.171

> <b_lp_Chiralities_Consistent>
1

> <s_lp_Variant>
AV-unprocessed.smi:2844-3

> <Gold.Version>
5.8.1

> <Gold.Id.Protein>
6NUR|6NUR_protein|mol2

> <Gold.PLP.Fitness>
54.9380

> <Gold.PLP.PLP>
-49.9915

> <Gold.PLP.part.hbond>
-2.0000

> <Gold.PLP.part.metal>
0.0000

> <Gold.PLP.part.buried>
-5.6494

> <Gold.PLP.part.nonpolar>
-42.0998

> <Gold.PLP.part.repulsive>
0.1976

> <Gold.PLP.ligand.clash>
0.0000

> <Gold.PLP.ligand.torsion>
0.3292

> <Gold.PLP.Chemscore.Hbond>
1.8640

> <Gold.PLP.Chemscore.CHOScore>
0.0000

> <Gold.PLP.Chemscore.Metal>
0.0000

> <Gold.Chemscore.Hbonds>
donor molecule, donor type, donor heavy atom, donor atom, acceptor molecule, acceptor atom, score
      L1  H    10    30       P1  7957  1.00
      P1  H  7989  7998       L1    10  0.86

> <Gold.PLP.Chemscore.Internal.Correction>
0.0129

> <Gold.Rescore>
     Score         DG    S(hbond)    S(metal)    S(lipo)     H(rot)  DE(clash)    DE(int)     intcor
     17.01     -18.50       1.38        0.00     120.32       2.21       0.08       1.42       ----

> <Gold.Chemscore.Fitness>
17.0050

> <Gold.Chemscore.DG>
-18.4978

> <Gold.Chemscore.ZeroCoef>
-5.4800

> <Gold.Chemscore.Hbond>
1.3790

> <Gold.Chemscore.Metal>
0.0000

> <Gold.Chemscore.Lipo>
120.3162

> <Gold.Chemscore.Internal_Hbond>
0.0000

> <Gold.Chemscore.DEClash>
0.0777

> <Gold.Chemscore.DEInternal>
1.4151

> <Gold.Chemscore.Rot>
2.2129

> <Gold.Chemscore.Internal.Correction>
   9.000000E+99

> <Gold.Chemscore.Hbonds>
donor molecule, donor type, donor heavy atom, donor atom, acceptor molecule, acceptor atom, score
      L1  H    10    30       P1  7957  0.95
      P1  H  7989  7998       L1    10  0.14

> <Gold.Chemscore.Hbond.Weighted>
-4.6057

> <Gold.Chemscore.Metal.Weighted>
-0.0000

> <Gold.Chemscore.Lipo.Weighted>
-14.0770

> <Gold.Chemscore.Internal_Hbond.Weighted>
0.0000

> <Gold.Chemscore.DEClash.Weighted>
0.0777

> <Gold.Chemscore.DEInternal.Weighted>
1.4151

> <Gold.Chemscore.Rot.Weighted>
5.6649

> <Gold.Chemscore.Internal.Correction.Weighted>
   9.000000E+99

> <Gold.Protein.RotatedTorsions>
[ 6907 6896 6895 6894 ] final -169.21 input  -60.11 | X-H torsion
[ 7974 7965 7964 7962 ] final    9.49 input  175.53 | X-H torsion
[ 8008 7997 7996 7995 ] final -176.41 input   59.86 | X-H torsion
[ 10167 10162 10161 10158 ] final   38.63 input  -65.29 | X-H torsion
[ 10718 10713 10712 10709 ] final  145.92 input   66.30 | X-H torsion
[ 10763 10752 10751 10750 ] final  -83.48 input  -60.55 | X-H torsion
[ 11005 11000 10999 10996 ] final  158.44 input  -57.11 | X-H torsion

> <Gold.Protein.ActiveResidues>
 VAL166  LYS551  ARG553  GLY616  TRP617  ASP618  TYR619  PRO620  LYS621  CYS622 
 ASP623  PHE694  ASN695  SER759  ASP760  ASP761  ALA762  ILE779  LEU786  VAL792 
 PHE793  MET794  SER795  GLU796  ALA797  LYS798  CYS799  TRP800  GLU811  SER814 

> <Gold.Protein.RotatedAtoms>
  151.4880  133.3531  159.2848 H   0  0  0  0  0  0  0  0  0  0  0  0  # atno 6907 bound_to 6896
  150.8853  134.8252  159.7265 H   0  0  0  0  0  0  0  0  0  0  0  0  # atno 6908 bound_to 6896
  152.4789  134.4783  159.9709 H   0  0  0  0  0  0  0  0  0  0  0  0  # atno 6909 bound_to 6896
  146.2402  139.9775  142.8440 H   0  0  0  0  0  0  0  0  0  0  0  0  # atno 7974 bound_to 7965
  155.9945  140.1208  157.0606 H   0  0  0  0  0  0  0  0  0  0  0  0  # atno 8008 bound_to 7997
  154.4222  140.1119  156.5680 H   0  0  0  0  0  0  0  0  0  0  0  0  # atno 8009 bound_to 7997
  155.6297  140.3473  155.4681 H   0  0  0  0  0  0  0  0  0  0  0  0  # atno 8010 bound_to 7997
  140.3917  144.1843  150.6131 H   0  0  0  0  0  0  0  0  0  0  0  0  # atno 10167 bound_to 10162
  157.3394  131.0933  151.1095 H   0  0  0  0  0  0  0  0  0  0  0  0  # atno 10718 bound_to 10713
  154.5883  135.5554  153.7253 H   0  0  0  0  0  0  0  0  0  0  0  0  # atno 10763 bound_to 10752
  153.0107  135.6337  154.1886 H   0  0  0  0  0  0  0  0  0  0  0  0  # atno 10764 bound_to 10752
  154.1826  135.2886  155.3027 H   0  0  0  0  0  0  0  0  0  0  0  0  # atno 10765 bound_to 10752
  140.1866  134.8438  157.2864 H   0  0  0  0  0  0  0  0  0  0  0  0  # atno 11005 bound_to 11000
  145.1623  140.9679  143.4370 LP  0  0  0  0  0  0  0  0  0  0  0  0  # atno 17320 bound_to 7965
  145.0105  139.3514  143.6122 LP  0  0  0  0  0  0  0  0  0  0  0  0  # atno 17321 bound_to 7965
  140.4832  143.2372  151.8925 LP  0  0  0  0  0  0  0  0  0  0  0  0  # atno 17342 bound_to 10162
  139.4788  144.5246  151.8753 LP  0  0  0  0  0  0  0  0  0  0  0  0  # atno 17343 bound_to 10162
  157.2313  130.6526  149.5851 LP  0  0  0  0  0  0  0  0  0  0  0  0  # atno 17370 bound_to 10713
  155.9705  130.4598  150.6049 LP  0  0  0  0  0  0  0  0  0  0  0  0  # atno 17371 bound_to 10713
  140.2207  134.4027  155.7567 LP  0  0  0  0  0  0  0  0  0  0  0  0  # atno 17394 bound_to 11000
  141.2225  133.7164  156.8486 LP  0  0  0  0  0  0  0  0  0  0  0  0  # atno 17395 bound_to 11000

$$$$
