AV-unprocessed.smi:3326|AV-procd|sdf|12786|dock6
  -GOLD-   2272019133D 1   1.00000     0.00000
 Structure written by MMmdl.
 30 31  0  0  0  0  0  0  0  0  1 V2000
  151.6060  144.9865  160.8473 F   0  0  0  0  0  0  0  0  0  0  0  0
  151.4365  144.3001  159.7167 C   0  0  0  0  0  0  0  0  0  0  0  0
  150.1312  144.0784  159.5600 F   0  0  0  0  0  0  0  0  0  0  0  0
  151.8716  145.0539  158.7067 F   0  0  0  0  0  0  0  0  0  0  0  0
  152.1927  142.9737  159.7414 C   0  0  0  0  0  0  0  0  0  0  0  0
  153.0640  142.6663  160.8113 C   0  0  0  0  0  0  0  0  0  0  0  0
  153.7513  141.4390  160.8113 C   0  0  0  0  0  0  0  0  0  0  0  0
  153.5427  140.5583  159.7351 C   0  0  0  0  0  0  0  0  0  0  0  0
  152.7146  140.8348  158.7072 N   0  0  0  0  0  0  0  0  0  0  0  0
  152.0492  142.0154  158.7037 C   0  0  0  0  0  0  0  0  0  0  0  0
  151.1915  142.2793  157.6247 N   0  0  0  0  0  0  0  0  0  0  0  0
  150.4955  141.2054  156.9300 C   0  0  0  0  0  0  0  0  0  0  0  0
  151.2983  140.7041  155.7220 C   0  0  1  0  0  0  0  0  0  0  0  0
  152.4028  139.7081  156.0650 C   0  0  0  0  0  0  0  0  0  0  0  0
  152.6412  139.0227  154.7339 C   0  0  0  0  0  0  0  0  0  0  0  0
  151.2878  139.1328  154.0241 C   0  0  0  0  0  0  0  0  0  0  0  0
  150.4670  139.9483  154.8555 O   0  0  0  0  0  0  0  0  0  0  0  0
  153.2120  143.3561  161.6287 H   0  0  0  0  0  0  0  0  0  0  0  0
  154.4224  141.1792  161.6165 H   0  0  0  0  0  0  0  0  0  0  0  0
  154.0530  139.6072  159.6984 H   0  0  0  0  0  0  0  0  0  0  0  0
  151.0299  143.2319  157.3313 H   0  0  0  0  0  0  0  0  0  0  0  0
  150.3027  140.3839  157.6209 H   0  0  0  0  0  0  0  0  0  0  0  0
  149.5272  141.5768  156.5927 H   0  0  0  0  0  0  0  0  0  0  0  0
  151.7088  141.5445  155.1588 H   0  0  0  0  0  0  0  0  0  0  0  0
  153.2983  140.1838  156.4657 H   0  0  0  0  0  0  0  0  0  0  0  0
  152.0451  138.9825  156.7970 H   0  0  0  0  0  0  0  0  0  0  0  0
  153.4038  139.5580  154.1669 H   0  0  0  0  0  0  0  0  0  0  0  0
  152.9722  137.9907  154.8528 H   0  0  0  0  0  0  0  0  0  0  0  0
  151.4006  139.5946  153.0425 H   0  0  0  0  0  0  0  0  0  0  0  0
  150.8185  138.1582  153.8877 H   0  0  0  0  0  0  0  0  0  0  0  0
  1  2  1  0  0  0  0
  2  3  1  0  0  0  0
  2  4  1  0  0  0  0
  2  5  1  0  0  0  0
  5 10  1  0  0  0  0
  5  6  2  0  0  0  0
  6  7  1  0  0  0  0
  6 18  1  0  0  0  0
  7  8  2  0  0  0  0
  7 19  1  0  0  0  0
  8  9  1  0  0  0  0
  8 20  1  0  0  0  0
  9 10  2  0  0  0  0
 10 11  1  0  0  0  0
 11 12  1  0  0  0  0
 11 21  1  0  0  0  0
 12 13  1  0  0  0  0
 12 22  1  0  0  0  0
 12 23  1  0  0  0  0
 13 17  1  0  0  0  0
 13 14  1  0  0  0  0
 13 24  1  0  0  0  0
 14 15  1  0  0  0  0
 14 25  1  0  0  0  0
 14 26  1  0  0  0  0
 15 16  1  0  0  0  0
 15 27  1  0  0  0  0
 15 28  1  0  0  0  0
 16 17  1  0  0  0  0
 16 29  1  0  0  0  0
 16 30  1  0  0  0  0
M  END
> <s_m_source_file>
AV-unprocessed.smi

> <i_m_source_file_index>
3326

> <i_lp_mmshare_version>
43012

> <i_f3d_flags>
0

> <s_epik_input>
RkMoRikoRiljMVtjSF1bY0hdW2NIXW5jMVtOSF1bQ0gyXVtDQEBIXTJbQ0gyXVtDSDJdW0NIMl1PMg==

> <s_epik_cmdline>
J2VwaWtfcHl0aG9uJywgJy1waCcsICc3LjAnLCAnLXRuJywgJzgnLCAnLW1hJywgJzIwMCcsICctbWV0YWxfYmluZGluZycsICctaW1hZScsICc8aW5maWxlLm1hZT4nLCAnLW9tYWUnLCAnPG91dGZpbGUubWFlPic=

> <r_lp_tautomer_probability>
1

> <r_epik_Ionization_Penalty>
0.000820218

> <r_epik_Ionization_Penalty_Charging>
0

> <r_epik_Ionization_Penalty_Neutral>
0.000820218

> <r_epik_State_Penalty>
0.000527207

> <r_epik_Charging_Adjusted_Penalty>
0.000527207

> <i_epik_Tot_Q>
0

> <i_epik_Tot_abs_Q>
0

> <r_epik_Metal_State_Penalty>
-0

> <b_epik_Metal_Only>
0

> <s_lp_Force_Field>
OPLS_2005

> <r_lp_Energy>
21.9295

> <b_lp_Chiralities_Consistent>
1

> <s_lp_Variant>
AV-unprocessed.smi:3326-2

> <Gold.Version>
5.8.1

> <Gold.Id.Protein>
6NUR|6NUR_protein|mol2

> <Gold.PLP.Fitness>
43.7209

> <Gold.PLP.PLP>
-44.9366

> <Gold.PLP.part.hbond>
-0.1919

> <Gold.PLP.part.metal>
0.0000

> <Gold.PLP.part.buried>
-6.4025

> <Gold.PLP.part.nonpolar>
-39.2315

> <Gold.PLP.part.repulsive>
0.1006

> <Gold.PLP.ligand.clash>
0.3467

> <Gold.PLP.ligand.torsion>
0.6779

> <Gold.PLP.Chemscore.Hbond>
0.0000

> <Gold.PLP.Chemscore.CHOScore>
0.0000

> <Gold.PLP.Chemscore.Metal>
0.0000

> <Gold.PLP.Chemscore.Internal.Correction>
0.4868

> <Gold.Rescore>
     Score         DG    S(hbond)    S(metal)    S(lipo)     H(rot)  DE(clash)    DE(int)     intcor
      9.99     -12.70       0.00        0.00      89.05       1.25       0.12       2.58       ----

> <Gold.Chemscore.Fitness>
9.9944

> <Gold.Chemscore.DG>
-12.6957

> <Gold.Chemscore.ZeroCoef>
-5.4800

> <Gold.Chemscore.Hbond>
0.0000

> <Gold.Chemscore.Metal>
0.0000

> <Gold.Chemscore.Lipo>
89.0530

> <Gold.Chemscore.Internal_Hbond>
0.0000

> <Gold.Chemscore.DEClash>
0.1203

> <Gold.Chemscore.DEInternal>
2.5810

> <Gold.Chemscore.Rot>
1.2514

> <Gold.Chemscore.Internal.Correction>
   9.000000E+99

> <Gold.Chemscore.Hbond.Weighted>
-0.0000

> <Gold.Chemscore.Metal.Weighted>
-0.0000

> <Gold.Chemscore.Lipo.Weighted>
-10.4192

> <Gold.Chemscore.Internal_Hbond.Weighted>
0.0000

> <Gold.Chemscore.DEClash.Weighted>
0.1203

> <Gold.Chemscore.DEInternal.Weighted>
2.5810

> <Gold.Chemscore.Rot.Weighted>
3.2036

> <Gold.Chemscore.Internal.Correction.Weighted>
   9.000000E+99

> <Gold.Protein.RotatedTorsions>
[ 6907 6896 6895 6894 ] final  114.66 input  -60.11 | X-H torsion
[ 7974 7965 7964 7962 ] final   62.70 input  175.53 | X-H torsion
[ 8008 7997 7996 7995 ] final  -40.42 input   59.86 | X-H torsion
[ 10167 10162 10161 10158 ] final  -49.55 input  -65.29 | X-H torsion
[ 10718 10713 10712 10709 ] final  124.92 input   66.30 | X-H torsion
[ 10763 10752 10751 10750 ] final  -92.63 input  -60.55 | X-H torsion
[ 11005 11000 10999 10996 ] final -155.00 input  -57.11 | X-H torsion

> <Gold.Protein.ActiveResidues>
 VAL166  LYS551  ARG553  GLY616  TRP617  ASP618  TYR619  PRO620  LYS621  CYS622 
 ASP623  PHE694  ASN695  SER759  ASP760  ASP761  ALA762  ILE779  LEU786  VAL792 
 PHE793  MET794  SER795  GLU796  ALA797  LYS798  CYS799  TRP800  GLU811  SER814 

> <Gold.Protein.RotatedAtoms>
  152.4789  133.8205  159.7050 H   0  0  0  0  0  0  0  0  0  0  0  0  # atno 6907 bound_to 6896
  150.8824  133.7344  159.2934 H   0  0  0  0  0  0  0  0  0  0  0  0  # atno 6908 bound_to 6896
  151.4844  135.1057  159.9838 H   0  0  0  0  0  0  0  0  0  0  0  0  # atno 6909 bound_to 6896
  145.8704  139.3374  143.0766 H   0  0  0  0  0  0  0  0  0  0  0  0  # atno 7974 bound_to 7965
  154.4012  140.1526  156.3024 H   0  0  0  0  0  0  0  0  0  0  0  0  # atno 8008 bound_to 7997
  155.8689  140.3450  155.5785 H   0  0  0  0  0  0  0  0  0  0  0  0  # atno 8009 bound_to 7997
  155.7797  140.0841  157.2056 H   0  0  0  0  0  0  0  0  0  0  0  0  # atno 8010 bound_to 7997
  140.6680  143.2693  151.4231 H   0  0  0  0  0  0  0  0  0  0  0  0  # atno 10167 bound_to 10162
  157.5546  131.1092  150.8644 H   0  0  0  0  0  0  0  0  0  0  0  0  # atno 10718 bound_to 10713
  154.6880  135.5224  153.8352 H   0  0  0  0  0  0  0  0  0  0  0  0  # atno 10763 bound_to 10752
  153.0611  135.6568  154.0470 H   0  0  0  0  0  0  0  0  0  0  0  0  # atno 10764 bound_to 10752
  154.0348  135.2982  155.3343 H   0  0  0  0  0  0  0  0  0  0  0  0  # atno 10765 bound_to 10752
  140.6912  134.4039  157.5219 H   0  0  0  0  0  0  0  0  0  0  0  0  # atno 11005 bound_to 11000
  145.9144  140.9158  143.0437 LP  0  0  0  0  0  0  0  0  0  0  0  0  # atno 17320 bound_to 7965
  144.6726  140.1203  143.7450 LP  0  0  0  0  0  0  0  0  0  0  0  0  # atno 17321 bound_to 7965
  139.5936  144.1446  152.2117 LP  0  0  0  0  0  0  0  0  0  0  0  0  # atno 17342 bound_to 10162
  140.0808  144.5702  150.7124 LP  0  0  0  0  0  0  0  0  0  0  0  0  # atno 17343 bound_to 10162
  156.9160  130.5297  149.5279 LP  0  0  0  0  0  0  0  0  0  0  0  0  # atno 17370 bound_to 10713
  156.0606  130.5660  150.9185 LP  0  0  0  0  0  0  0  0  0  0  0  0  # atno 17371 bound_to 10713
  139.8923  134.8758  156.2278 LP  0  0  0  0  0  0  0  0  0  0  0  0  # atno 17394 bound_to 11000
  141.0240  133.7025  156.1316 LP  0  0  0  0  0  0  0  0  0  0  0  0  # atno 17395 bound_to 11000

$$$$
