AV-unprocessed.smi:54|AV-procd|sdf|560|dock8
  -GOLD-   2262016463D 1   1.00000     0.00000
 Structure written by MMmdl.
 43 45  0  0  0  0  0  0  0  0  2 V2000
  152.6178  144.5618  158.7529 C   0  0  0  0  0  0  0  0  0  0  0  0
  151.8280  143.4172  159.4085 C   0  0  0  0  0  0  0  0  0  0  0  0
  152.6392  142.7505  160.5317 C   0  0  0  0  0  0  0  0  0  0  0  0
  151.3989  142.3820  158.3590 C   0  0  0  0  0  0  0  0  0  0  0  0
  150.3314  142.5386  157.7626 O   0  0  0  0  0  0  0  0  0  0  0  0
  152.2526  141.3487  158.1871 N   0  0  0  0  0  0  0  0  0  0  0  0
  152.1402  140.2430  157.3371 C   0  0  0  0  0  0  0  0  0  0  0  0
  151.1997  140.3835  156.4357 N   0  0  0  0  0  0  0  0  0  0  0  0
  151.0844  139.2849  155.6061 C   0  0  0  0  0  0  0  0  0  0  0  0
  151.8127  138.1273  155.6500 C   0  0  0  0  0  0  0  0  0  0  0  0
  151.4171  137.2391  154.6575 N   0  0  0  0  0  0  0  0  0  0  0  0
  150.4475  137.9179  154.0470 C   0  0  0  0  0  0  0  0  0  0  0  0
  150.1900  139.1423  154.5476 N   0  0  0  0  0  0  0  0  0  0  0  0
  149.1583  140.1030  154.0454 C   0  0  1  0  0  0  0  0  0  0  0  0
  148.5091  139.5135  152.9593 O   0  0  0  0  0  0  0  0  0  0  0  0
  147.0999  139.6533  153.0947 C   0  0  1  0  0  0  0  0  0  0  0  0
  146.4054  138.5082  152.3402 C   0  0  0  0  0  0  0  0  0  0  0  0
  146.6571  138.5973  150.9537 O   0  0  0  0  0  0  0  0  0  0  0  0
  146.8811  139.6523  154.6097 C   0  0  2  0  0  0  0  0  0  0  0  0
  145.6590  140.2577  154.9890 O   0  0  0  0  0  0  0  0  0  0  0  0
  148.1103  140.3925  155.1325 C   0  0  2  0  0  0  0  0  0  0  0  0
  147.8911  141.7863  155.2560 O   0  0  0  0  0  0  0  0  0  0  0  0
  152.8506  138.0266  156.7032 C   0  0  0  0  0  0  0  0  0  0  0  0
  153.5271  137.0029  156.7810 O   0  0  0  0  0  0  0  0  0  0  0  0
  152.9653  139.1159  157.5205 N   0  5  0  0  0  0  0  0  0  0  0  0
  149.7251  140.9813  153.7328 H   0  0  0  0  0  0  0  0  0  0  0  0
  146.8238  140.6209  152.6709 H   0  0  0  0  0  0  0  0  0  0  0  0
  146.8897  138.6292  154.9852 H   0  0  0  0  0  0  0  0  0  0  0  0
  148.4318  140.0069  156.1013 H   0  0  0  0  0  0  0  0  0  0  0  0
  152.0461  145.0277  157.9492 H   0  0  0  0  0  0  0  0  0  0  0  0
  153.5598  144.2095  158.3310 H   0  0  0  0  0  0  0  0  0  0  0  0
  152.8521  145.3393  159.4802 H   0  0  0  0  0  0  0  0  0  0  0  0
  150.9299  143.8463  159.8563 H   0  0  0  0  0  0  0  0  0  0  0  0
  152.0820  141.9333  160.9914 H   0  0  0  0  0  0  0  0  0  0  0  0
  152.8769  143.4667  161.3185 H   0  0  0  0  0  0  0  0  0  0  0  0
  153.5808  142.3441  160.1604 H   0  0  0  0  0  0  0  0  0  0  0  0
  153.0457  141.3490  158.8108 H   0  0  0  0  0  0  0  0  0  0  0  0
  149.9074  137.5116  153.2044 H   0  0  0  0  0  0  0  0  0  0  0  0
  146.7826  137.5481  152.6929 H   0  0  0  0  0  0  0  0  0  0  0  0
  145.3297  138.5155  152.5187 H   0  0  0  0  0  0  0  0  0  0  0  0
  145.8289  138.5997  150.4985 H   0  0  0  0  0  0  0  0  0  0  0  0
  145.0875  140.2670  154.2362 H   0  0  0  0  0  0  0  0  0  0  0  0
  147.3426  142.0664  154.5391 H   0  0  0  0  0  0  0  0  0  0  0  0
  1  2  1  0  0  0  0
  1 30  1  0  0  0  0
  1 31  1  0  0  0  0
  1 32  1  0  0  0  0
  2  3  1  0  0  0  0
  2  4  1  0  0  0  0
  2 33  1  0  0  0  0
  3 34  1  0  0  0  0
  3 35  1  0  0  0  0
  3 36  1  0  0  0  0
  4  5  2  0  0  0  0
  4  6  1  0  0  0  0
  6 37  1  0  0  0  0
  6  7  1  0  0  0  0
  7 25  1  0  0  0  0
  7  8  2  0  0  0  0
  8  9  1  0  0  0  0
  9 13  1  0  0  0  0
  9 10  2  0  0  0  0
 10 11  1  0  0  0  0
 10 23  1  0  0  0  0
 11 12  2  0  0  0  0
 12 13  1  0  0  0  0
 12 38  1  0  0  0  0
 13 14  1  0  0  0  0
 14 26  1  0  0  0  0
 14 21  1  0  0  0  0
 14 15  1  0  0  0  0
 15 16  1  0  0  0  0
 16 27  1  0  0  0  0
 16 17  1  0  0  0  0
 16 19  1  0  0  0  0
 17 18  1  0  0  0  0
 17 39  1  0  0  0  0
 17 40  1  0  0  0  0
 18 41  1  0  0  0  0
 19 28  1  0  0  0  0
 19 20  1  0  0  0  0
 19 21  1  0  0  0  0
 20 42  1  0  0  0  0
 21 29  1  0  0  0  0
 21 22  1  0  0  0  0
 22 43  1  0  0  0  0
 23 24  2  0  0  0  0
 23 25  1  0  0  0  0
M  CHG  1  25  -1
M  END
> <s_m_source_file>
AV-unprocessed.smi

> <i_m_source_file_index>
54

> <i_lp_mmshare_version>
43012

> <i_f3d_flags>
0

> <s_epik_input>
W0NIM11bQ0hdKFtDSDNdKUMoPU8pW05IXWMobjEpW25IXWMoPU8pYyhjMTIpbltjSF1uMltDQEBIXTNPW0NASF0oW0NIMl1bT0hdKVtDQEBIXShbT0hdKVtDQEhdM1tPSF0=

> <s_epik_cmdline>
J2VwaWtfcHl0aG9uJywgJy1waCcsICc3LjAnLCAnLXRuJywgJzgnLCAnLW1hJywgJzIwMCcsICctbWV0YWxfYmluZGluZycsICctaW1hZScsICc8aW5maWxlLm1hZT4nLCAnLW9tYWUnLCAnPG91dGZpbGUubWFlPic=

> <r_lp_tautomer_probability>
0.85571

> <r_epik_Ionization_Penalty>
1.75936

> <r_epik_Ionization_Penalty_Charging>
4.55893e-11

> <r_epik_Ionization_Penalty_Neutral>
1.75936

> <r_epik_State_Penalty>
1.72072

> <r_epik_Charging_Adjusted_Penalty>
1.72072

> <i_epik_Tot_Q>
-1

> <i_epik_Tot_abs_Q>
1

> <r_epik_Metal_State_Penalty>
0.400338

> <b_epik_Metal_Only>
1

> <s_epik_Chemistry_Notes>
This compound contains an acetal/aminal-like group ( X-CH(R)-Y where X, Y are N, S, or O) that may be acid/base labile, releasing an aldehyde.

> <s_lp_Force_Field>
OPLS_2005

> <r_lp_Energy>
61.5682

> <b_lp_Chiralities_Consistent>
1

> <s_lp_Variant>
AV-unprocessed.smi:54-32

> <Gold.Version>
5.8.1

> <Gold.Id.Protein>
6NUR|6NUR_protein|mol2

> <Gold.PLP.Fitness>
52.2934

> <Gold.PLP.PLP>
-35.4111

> <Gold.PLP.part.hbond>
-5.7890

> <Gold.PLP.part.metal>
0.0000

> <Gold.PLP.part.buried>
-0.3533

> <Gold.PLP.part.nonpolar>
-35.2866

> <Gold.PLP.part.repulsive>
7.0201

> <Gold.PLP.ligand.clash>
0.0000

> <Gold.PLP.ligand.torsion>
0.7970

> <Gold.PLP.Chemscore.Hbond>
5.1582

> <Gold.PLP.Chemscore.CHOScore>
0.9891

> <Gold.PLP.Chemscore.Metal>
0.0000

> <Gold.Chemscore.Hbonds>
donor molecule, donor type, donor heavy atom, donor atom, acceptor molecule, acceptor atom, score
      L1  H    18    41       P1 10171  0.94
      L1  H    20    42       P1 10175  0.44
      P1  H  7954  7966       L1    18  0.98
      P1  H  7997  8009       L1    25  1.50
      P1  H 10752 10763       L1    11  0.37
      P1  H 10752 10764       L1    24  0.30
      L1  C    12    38       P1  7948  1.00

> <Gold.PLP.Chemscore.Internal.Correction>
0.0343

> <Gold.Rescore>
     Score         DG    S(hbond)    S(metal)    S(lipo)     H(rot)  DE(clash)    DE(int)     intcor
      7.51     -13.08       3.07        0.00      65.22       4.02       3.22       2.34       ----

> <Gold.Chemscore.Fitness>
7.5098

> <Gold.Chemscore.DG>
-13.0751

> <Gold.Chemscore.ZeroCoef>
-5.4800

> <Gold.Chemscore.Hbond>
3.0700

> <Gold.Chemscore.Metal>
0.0000

> <Gold.Chemscore.Lipo>
65.2188

> <Gold.Chemscore.Internal_Hbond>
0.0000

> <Gold.Chemscore.DEClash>
3.2228

> <Gold.Chemscore.DEInternal>
2.3426

> <Gold.Chemscore.Rot>
4.0192

> <Gold.Chemscore.Internal.Correction>
   9.000000E+99

> <Gold.Chemscore.Hbonds>
donor molecule, donor type, donor heavy atom, donor atom, acceptor molecule, acceptor atom, score
      L1  H    18    41       P1 10171  0.90
      L1  H    20    42       P1 10175  0.44
      P1  H  7954  7966       L1    18  0.80
      P1  H  7997  8009       L1    25  0.06
      P1  H 10752 10763       L1    11  0.32
      P1  H 10752 10764       L1    24  0.31

> <Gold.Chemscore.Hbond.Weighted>
-10.2538

> <Gold.Chemscore.Metal.Weighted>
-0.0000

> <Gold.Chemscore.Lipo.Weighted>
-7.6306

> <Gold.Chemscore.Internal_Hbond.Weighted>
0.0000

> <Gold.Chemscore.DEClash.Weighted>
3.2228

> <Gold.Chemscore.DEInternal.Weighted>
2.3426

> <Gold.Chemscore.Rot.Weighted>
10.2893

> <Gold.Chemscore.Internal.Correction.Weighted>
   9.000000E+99

> <Gold.Protein.RotatedTorsions>
[ 6907 6896 6895 6894 ] final   85.23 input  -60.11 | X-H torsion
[ 7974 7965 7964 7962 ] final   61.61 input  175.53 | X-H torsion
[ 8008 7997 7996 7995 ] final  151.40 input   59.86 | X-H torsion
[ 10167 10162 10161 10158 ] final  113.59 input  -65.29 | X-H torsion
[ 10718 10713 10712 10709 ] final   83.05 input   66.30 | X-H torsion
[ 10763 10752 10751 10750 ] final   29.78 input  -60.55 | X-H torsion
[ 11005 11000 10999 10996 ] final  124.54 input  -57.11 | X-H torsion

> <Gold.Protein.ActiveResidues>
 VAL166  LYS551  ARG553  GLY616  TRP617  ASP618  TYR619  PRO620  LYS621  CYS622 
 ASP623  PHE694  ASN695  SER759  ASP760  ASP761  ALA762  ILE779  LEU786  VAL792 
 PHE793  MET794  SER795  GLU796  ALA797  LYS798  CYS799  TRP800  GLU811  SER814 

> <Gold.Protein.RotatedAtoms>
  152.5370  134.2618  159.8937 H   0  0  0  0  0  0  0  0  0  0  0  0  # atno 6907 bound_to 6896
  151.2578  133.4311  159.2622 H   0  0  0  0  0  0  0  0  0  0  0  0  # atno 6908 bound_to 6896
  151.0481  134.9668  159.8253 H   0  0  0  0  0  0  0  0  0  0  0  0  # atno 6909 bound_to 6896
  145.8828  139.3455  143.0696 H   0  0  0  0  0  0  0  0  0  0  0  0  # atno 7974 bound_to 7965
  156.2675  140.2049  156.6169 H   0  0  0  0  0  0  0  0  0  0  0  0  # atno 8008 bound_to 7997
  154.6787  140.0542  157.0267 H   0  0  0  0  0  0  0  0  0  0  0  0  # atno 8009 bound_to 7997
  155.1032  140.3208  155.4544 H   0  0  0  0  0  0  0  0  0  0  0  0  # atno 8010 bound_to 7997
  139.6450  144.7126  151.2160 H   0  0  0  0  0  0  0  0  0  0  0  0  # atno 10167 bound_to 10162
  157.6871  131.0074  150.2466 H   0  0  0  0  0  0  0  0  0  0  0  0  # atno 10718 bound_to 10713
  153.0410  135.6480  154.0943 H   0  0  0  0  0  0  0  0  0  0  0  0  # atno 10763 bound_to 10752
  154.0649  135.2885  155.3320 H   0  0  0  0  0  0  0  0  0  0  0  0  # atno 10764 bound_to 10752
  154.6633  135.5383  153.8110 H   0  0  0  0  0  0  0  0  0  0  0  0  # atno 10765 bound_to 10752
  139.9364  134.9639  156.8425 H   0  0  0  0  0  0  0  0  0  0  0  0  # atno 11005 bound_to 11000
  145.9003  140.9247  143.0506 LP  0  0  0  0  0  0  0  0  0  0  0  0  # atno 17320 bound_to 7965
  144.6727  140.1024  143.7460 LP  0  0  0  0  0  0  0  0  0  0  0  0  # atno 17321 bound_to 7965
  140.7510  143.6246  150.8480 LP  0  0  0  0  0  0  0  0  0  0  0  0  # atno 17342 bound_to 10162
  139.9888  143.5870  152.2917 LP  0  0  0  0  0  0  0  0  0  0  0  0  # atno 17343 bound_to 10162
  156.3071  130.3766  149.7696 LP  0  0  0  0  0  0  0  0  0  0  0  0  # atno 17370 bound_to 10713
  156.5308  130.8257  151.3236 LP  0  0  0  0  0  0  0  0  0  0  0  0  # atno 17371 bound_to 10713
  140.6066  134.0122  155.7559 LP  0  0  0  0  0  0  0  0  0  0  0  0  # atno 17394 bound_to 11000
  141.0979  133.9815  157.3129 LP  0  0  0  0  0  0  0  0  0  0  0  0  # atno 17395 bound_to 11000

$$$$
