AV-unprocessed.smi:1107|AV-procd|sdf|4784|dock1
  -GOLD-   22720 3323D 1   1.00000     0.00000
 Structure written by MMmdl.
 49 50  0  0  0  0  0  0  0  0  2 V2000
  147.9194  136.5591  160.5607 C   0  0  0  0  0  0  0  0  0  0  0  0
  148.9392  136.9414  159.5108 C   0  0  0  0  0  0  0  0  0  0  0  0
  148.4661  136.8406  158.2133 N   0  0  0  0  0  0  0  0  0  0  0  0
  149.3321  137.1554  157.1811 C   0  0  0  0  0  0  0  0  0  0  0  0
  148.7365  136.9990  155.7933 C   0  0  0  0  0  0  0  0  0  0  0  0
  150.6048  137.5567  157.4301 C   0  0  0  0  0  0  0  0  0  0  0  0
  151.6054  137.8875  156.3246 C   0  0  0  0  0  0  0  0  0  0  0  0
  151.4722  139.3025  155.7658 C   0  0  0  0  0  0  0  0  0  0  0  0
  152.3774  139.7882  155.0893 O   0  0  0  0  0  0  0  0  0  0  0  0
  150.3559  139.9657  156.1061 N   0  0  0  0  0  0  0  0  0  0  0  0
  150.0976  141.3859  155.8728 C   0  0  1  0  0  0  0  0  0  0  0  0
  149.0447  141.5477  154.7683 C   0  0  0  0  0  0  0  0  0  0  0  0
  149.6678  142.0780  157.1869 C   0  0  0  0  0  0  0  0  0  0  0  0
  150.4502  143.3041  157.4997 N   0  3  0  0  0  0  0  0  0  0  0  0
  151.9139  143.0497  157.5247 C   0  0  0  0  0  0  0  0  0  0  0  0
  152.7044  144.3591  157.6878 C   0  0  0  0  0  0  0  0  0  0  0  0
  152.2532  145.1306  158.9348 C   0  0  0  0  0  0  0  0  0  0  0  0
  150.7339  145.3401  158.9049 C   0  0  0  0  0  0  0  0  0  0  0  0
  149.9968  144.0023  158.7320 C   0  0  0  0  0  0  0  0  0  0  0  0
  151.0541  137.6425  158.8400 C   0  0  0  0  0  0  0  0  0  0  0  0
  152.2026  137.9754  159.1298 O   0  0  0  0  0  0  0  0  0  0  0  0
  150.1359  137.3139  159.8496 N   0  0  0  0  0  0  0  0  0  0  0  0
  147.5272  136.5469  157.9840 H   0  0  0  0  0  0  0  0  0  0  0  0
  148.3230  136.6935  161.5651 H   0  0  0  0  0  0  0  0  0  0  0  0
  147.6322  135.5132  160.4464 H   0  0  0  0  0  0  0  0  0  0  0  0
  147.0260  137.1772  160.4672 H   0  0  0  0  0  0  0  0  0  0  0  0
  149.3071  136.2753  155.2116 H   0  0  0  0  0  0  0  0  0  0  0  0
  148.7444  137.9523  155.2645 H   0  0  0  0  0  0  0  0  0  0  0  0
  147.7037  136.6507  155.8362 H   0  0  0  0  0  0  0  0  0  0  0  0
  151.5283  137.1656  155.5103 H   0  0  0  0  0  0  0  0  0  0  0  0
  152.6193  137.7647  156.7055 H   0  0  0  0  0  0  0  0  0  0  0  0
  149.6615  139.4630  156.6407 H   0  0  0  0  0  0  0  0  0  0  0  0
  151.0055  141.8747  155.5166 H   0  0  0  0  0  0  0  0  0  0  0  0
  148.8486  142.6010  154.5658 H   0  0  0  0  0  0  0  0  0  0  0  0
  148.0993  141.0804  155.0462 H   0  0  0  0  0  0  0  0  0  0  0  0
  149.3803  141.0910  153.8366 H   0  0  0  0  0  0  0  0  0  0  0  0
  148.6021  142.3109  157.1675 H   0  0  0  0  0  0  0  0  0  0  0  0
  149.8105  141.3673  158.0025 H   0  0  0  0  0  0  0  0  0  0  0  0
  152.1503  142.3619  158.3382 H   0  0  0  0  0  0  0  0  0  0  0  0
  152.2208  142.5635  156.5978 H   0  0  0  0  0  0  0  0  0  0  0  0
  153.7720  144.1454  157.7479 H   0  0  0  0  0  0  0  0  0  0  0  0
  152.5659  144.9802  156.8040 H   0  0  0  0  0  0  0  0  0  0  0  0
  152.5308  144.5754  159.8317 H   0  0  0  0  0  0  0  0  0  0  0  0
  152.7657  146.0916  158.9892 H   0  0  0  0  0  0  0  0  0  0  0  0
  150.4068  145.8311  159.8217 H   0  0  0  0  0  0  0  0  0  0  0  0
  150.4713  146.0097  158.0854 H   0  0  0  0  0  0  0  0  0  0  0  0
  148.9262  144.1974  158.6888 H   0  0  0  0  0  0  0  0  0  0  0  0
  150.1655  143.3623  159.5996 H   0  0  0  0  0  0  0  0  0  0  0  0
  150.2900  143.9403  156.7318 H   0  0  0  0  0  0  0  0  0  0  0  0
  1 24  1  0  0  0  0
  1 25  1  0  0  0  0
  1 26  1  0  0  0  0
  1  2  1  0  0  0  0
  2  3  1  0  0  0  0
  2 22  2  0  0  0  0
  3  4  1  0  0  0  0
  3 23  1  0  0  0  0
  4  6  2  0  0  0  0
  4  5  1  0  0  0  0
  5 27  1  0  0  0  0
  5 28  1  0  0  0  0
  5 29  1  0  0  0  0
  6 20  1  0  0  0  0
  6  7  1  0  0  0  0
  7  8  1  0  0  0  0
  7 30  1  0  0  0  0
  7 31  1  0  0  0  0
  8  9  2  0  0  0  0
  8 10  1  0  0  0  0
 10 11  1  0  0  0  0
 10 32  1  0  0  0  0
 11 12  1  0  0  0  0
 11 13  1  0  0  0  0
 11 33  1  0  0  0  0
 12 34  1  0  0  0  0
 12 35  1  0  0  0  0
 12 36  1  0  0  0  0
 13 14  1  0  0  0  0
 13 37  1  0  0  0  0
 13 38  1  0  0  0  0
 14 19  1  0  0  0  0
 14 15  1  0  0  0  0
 14 49  1  0  0  0  0
 15 16  1  0  0  0  0
 15 39  1  0  0  0  0
 15 40  1  0  0  0  0
 16 17  1  0  0  0  0
 16 41  1  0  0  0  0
 16 42  1  0  0  0  0
 17 18  1  0  0  0  0
 17 43  1  0  0  0  0
 17 44  1  0  0  0  0
 18 19  1  0  0  0  0
 18 45  1  0  0  0  0
 18 46  1  0  0  0  0
 19 47  1  0  0  0  0
 19 48  1  0  0  0  0
 20 21  2  0  0  0  0
 20 22  1  0  0  0  0
M  CHG  1  14   1
M  END
> <s_m_source_file>
AV-unprocessed.smi

> <i_m_source_file_index>
1107

> <i_lp_mmshare_version>
43012

> <i_f3d_flags>
0

> <s_epik_input>
W0NIM11jMW5jKFtDSDNdKWMoYyg9TylbbkhdMSlbQ0gyXUMoPU8pW05IXVtDQEhdKFtDSDNdKVtDSDJdTjJbQ0gyXVtDSDJdW0NIMl1bQ0gyXVtDSDJdMg==

> <s_epik_cmdline>
J2VwaWtfcHl0aG9uJywgJy1waCcsICc3LjAnLCAnLXRuJywgJzgnLCAnLW1hJywgJzIwMCcsICctbWV0YWxfYmluZGluZycsICctaW1hZScsICc8aW5maWxlLm1hZT4nLCAnLW9tYWUnLCAnPG91dGZpbGUubWFlPic=

> <r_lp_tautomer_probability>
0.156392

> <r_epik_Ionization_Penalty>
0.0190033

> <r_epik_Ionization_Penalty_Charging>
0.0189172

> <r_epik_Ionization_Penalty_Neutral>
8.60838e-05

> <r_epik_State_Penalty>
1.15342

> <r_epik_Charging_Adjusted_Penalty>
1.17233

> <i_epik_Tot_Q>
1

> <i_epik_Tot_abs_Q>
1

> <r_epik_Metal_State_Penalty>
1.34593

> <b_epik_Metal_Only>
0

> <s_lp_Force_Field>
OPLS_2005

> <r_lp_Energy>
24.7354

> <b_lp_Chiralities_Consistent>
1

> <s_lp_Variant>
AV-unprocessed.smi:1107-4

> <Gold.Version>
5.8.1

> <Gold.Id.Protein>
6NUR|6NUR_protein|mol2

> <Gold.PLP.Fitness>
46.1011

> <Gold.PLP.PLP>
-37.4868

> <Gold.PLP.part.hbond>
-4.0501

> <Gold.PLP.part.metal>
0.0000

> <Gold.PLP.part.buried>
-5.8698

> <Gold.PLP.part.nonpolar>
-28.8904

> <Gold.PLP.part.repulsive>
0.1641

> <Gold.PLP.ligand.clash>
0.0000

> <Gold.PLP.ligand.torsion>
1.2790

> <Gold.PLP.Chemscore.Hbond>
3.6299

> <Gold.PLP.Chemscore.CHOScore>
0.0000

> <Gold.PLP.Chemscore.Metal>
0.0000

> <Gold.Chemscore.Hbonds>
donor molecule, donor type, donor heavy atom, donor atom, acceptor molecule, acceptor atom, score
      L1  H    14    49       P1  8028  1.73
      P1  H  7989  7998       L1     9  0.67
      P1  H  7997  8008       L1     9  0.34

> <Gold.PLP.Chemscore.Internal.Correction>
0.2827

> <Gold.Rescore>
     Score         DG    S(hbond)    S(metal)    S(lipo)     H(rot)  DE(clash)    DE(int)     intcor
     16.83     -18.14       2.19        0.00      89.06       1.98       0.23       1.08       ----

> <Gold.Chemscore.Fitness>
16.8263

> <Gold.Chemscore.DG>
-18.1407

> <Gold.Chemscore.ZeroCoef>
-5.4800

> <Gold.Chemscore.Hbond>
2.1913

> <Gold.Chemscore.Metal>
0.0000

> <Gold.Chemscore.Lipo>
89.0599

> <Gold.Chemscore.Internal_Hbond>
0.0000

> <Gold.Chemscore.DEClash>
0.2326

> <Gold.Chemscore.DEInternal>
1.0818

> <Gold.Chemscore.Rot>
1.9837

> <Gold.Chemscore.Internal.Correction>
   9.000000E+99

> <Gold.Chemscore.Hbonds>
donor molecule, donor type, donor heavy atom, donor atom, acceptor molecule, acceptor atom, score
      L1  H    14    49       P1  8028  0.84
      P1  H  7989  7998       L1     9  0.54
      P1  H  7997  8008       L1     9  0.35

> <Gold.Chemscore.Hbond.Weighted>
-7.3190

> <Gold.Chemscore.Metal.Weighted>
-0.0000

> <Gold.Chemscore.Lipo.Weighted>
-10.4200

> <Gold.Chemscore.Internal_Hbond.Weighted>
0.0000

> <Gold.Chemscore.DEClash.Weighted>
0.2326

> <Gold.Chemscore.DEInternal.Weighted>
1.0818

> <Gold.Chemscore.Rot.Weighted>
5.0783

> <Gold.Chemscore.Internal.Correction.Weighted>
   9.000000E+99

> <Gold.Protein.RotatedTorsions>
[ 6907 6896 6895 6894 ] final  122.89 input  -60.11 | X-H torsion
[ 7974 7965 7964 7962 ] final -122.19 input  175.53 | X-H torsion
[ 8008 7997 7996 7995 ] final   -7.37 input   59.86 | X-H torsion
[ 10167 10162 10161 10158 ] final  111.97 input  -65.29 | X-H torsion
[ 10718 10713 10712 10709 ] final    2.67 input   66.30 | X-H torsion
[ 10763 10752 10751 10750 ] final -111.87 input  -60.55 | X-H torsion
[ 11005 11000 10999 10996 ] final  -63.79 input  -57.11 | X-H torsion

> <Gold.Protein.ActiveResidues>
 VAL166  LYS551  ARG553  GLY616  TRP617  ASP618  TYR619  PRO620  LYS621  CYS622 
 ASP623  PHE694  ASN695  SER759  ASP760  ASP761  ALA762  ILE779  LEU786  VAL792 
 PHE793  MET794  SER795  GLU796  ALA797  LYS798  CYS799  TRP800  GLU811  SER814 

> <Gold.Protein.RotatedAtoms>
  152.4206  133.7111  159.6478 H   0  0  0  0  0  0  0  0  0  0  0  0  # atno 6907 bound_to 6896
  150.8082  133.8459  159.3201 H   0  0  0  0  0  0  0  0  0  0  0  0  # atno 6908 bound_to 6896
  151.6176  135.1037  160.0146 H   0  0  0  0  0  0  0  0  0  0  0  0  # atno 6909 bound_to 6896
  145.0321  140.8076  143.4317 H   0  0  0  0  0  0  0  0  0  0  0  0  # atno 7974 bound_to 7965
  154.5845  140.2409  155.8007 H   0  0  0  0  0  0  0  0  0  0  0  0  # atno 8008 bound_to 7997
  156.2203  140.2999  155.9892 H   0  0  0  0  0  0  0  0  0  0  0  0  # atno 8009 bound_to 7997
  155.2482  140.0409  157.2974 H   0  0  0  0  0  0  0  0  0  0  0  0  # atno 8010 bound_to 7997
  139.6571  144.7129  151.1936 H   0  0  0  0  0  0  0  0  0  0  0  0  # atno 10167 bound_to 10162
  156.8665  130.5605  149.5660 H   0  0  0  0  0  0  0  0  0  0  0  0  # atno 10718 bound_to 10713
  154.8322  135.4511  154.1106 H   0  0  0  0  0  0  0  0  0  0  0  0  # atno 10763 bound_to 10752
  153.2370  135.6912  153.7832 H   0  0  0  0  0  0  0  0  0  0  0  0  # atno 10764 bound_to 10752
  153.7194  135.3344  155.3239 H   0  0  0  0  0  0  0  0  0  0  0  0  # atno 10765 bound_to 10752
  141.1404  133.6656  156.5734 H   0  0  0  0  0  0  0  0  0  0  0  0  # atno 11005 bound_to 11000
  145.1757  139.2379  143.5319 LP  0  0  0  0  0  0  0  0  0  0  0  0  # atno 17320 bound_to 7965
  146.3500  140.1519  142.8592 LP  0  0  0  0  0  0  0  0  0  0  0  0  # atno 17321 bound_to 7965
  140.7564  143.6055  150.8657 LP  0  0  0  0  0  0  0  0  0  0  0  0  # atno 17342 bound_to 10162
  139.9709  143.6058  152.2974 LP  0  0  0  0  0  0  0  0  0  0  0  0  # atno 17343 bound_to 10162
  156.0749  130.5773  150.9454 LP  0  0  0  0  0  0  0  0  0  0  0  0  # atno 17370 bound_to 10713
  157.6220  131.0929  150.8604 LP  0  0  0  0  0  0  0  0  0  0  0  0  # atno 17371 bound_to 10713
  140.3895  134.7453  157.4712 LP  0  0  0  0  0  0  0  0  0  0  0  0  # atno 17394 bound_to 11000
  140.0577  134.6040  155.8786 LP  0  0  0  0  0  0  0  0  0  0  0  0  # atno 17395 bound_to 11000

$$$$
