AV-unprocessed.smi:3206|AV-procd|sdf|12257|dock10
  -GOLD-   2272018 93D 1   1.00000     0.00000
 Structure written by MMmdl.
 42 43  0  0  0  0  0  0  0  0  2 V2000
  152.8146  143.1048  162.4564 C   0  0  0  0  0  0  0  0  0  0  0  0
  152.6989  143.4184  160.9581 C   0  0  2  0  0  0  0  0  0  0  0  0
  151.4345  144.2415  160.6504 C   0  0  0  0  0  0  0  0  0  0  0  0
  151.3127  144.5529  159.1479 C   0  0  0  0  0  0  0  0  0  0  0  0
  151.3465  143.2812  158.2734 C   0  0  2  0  0  0  0  0  0  0  0  0
  150.0378  142.4586  158.3660 C   0  0  0  0  0  0  0  0  0  0  0  0
  148.8482  143.2989  158.1216 N   0  3  0  0  0  0  0  0  0  0  0  0
  147.5706  142.5621  158.1777 C   0  0  0  0  0  0  0  0  0  0  0  0
  146.4836  143.3912  158.8820 C   0  0  0  0  0  0  0  0  0  0  0  0
  146.9916  144.2617  159.9946 C   0  0  0  0  0  0  0  0  0  0  0  0
  147.9433  143.9205  160.8597 N   0  0  0  0  0  0  0  0  0  0  0  0
  148.0015  145.0496  161.6236 C   0  0  0  0  0  0  0  0  0  0  0  0
  147.1644  146.0240  161.2795 N   0  0  0  0  0  0  0  0  0  0  0  0
  146.5145  145.4954  160.2179 N   0  0  0  0  0  0  0  0  0  0  0  0
  145.4921  146.2708  159.5413 C   0  0  0  0  0  0  0  0  0  0  0  0
  152.5999  142.4442  158.6071 C   0  0  0  0  0  0  0  0  0  0  0  0
  152.7213  142.1335  160.1099 C   0  0  0  0  0  0  0  0  0  0  0  0
  151.9737  142.5028  162.8023 H   0  0  0  0  0  0  0  0  0  0  0  0
  152.8347  144.0200  163.0488 H   0  0  0  0  0  0  0  0  0  0  0  0
  153.7300  142.5533  162.6727 H   0  0  0  0  0  0  0  0  0  0  0  0
  153.5665  144.0191  160.6809 H   0  0  0  0  0  0  0  0  0  0  0  0
  150.5509  143.7009  160.9911 H   0  0  0  0  0  0  0  0  0  0  0  0
  151.4547  145.1758  161.2128 H   0  0  0  0  0  0  0  0  0  0  0  0
  150.4007  145.1193  158.9562 H   0  0  0  0  0  0  0  0  0  0  0  0
  152.1367  145.2060  158.8578 H   0  0  0  0  0  0  0  0  0  0  0  0
  151.4608  143.6157  157.2410 H   0  0  0  0  0  0  0  0  0  0  0  0
  150.0381  141.6426  157.6423 H   0  0  0  0  0  0  0  0  0  0  0  0
  149.9369  141.9957  159.3484 H   0  0  0  0  0  0  0  0  0  0  0  0
  148.8272  144.0326  158.8156 H   0  0  0  0  0  0  0  0  0  0  0  0
  147.2565  142.3174  157.1619 H   0  0  0  0  0  0  0  0  0  0  0  0
  147.7261  141.6207  158.7068 H   0  0  0  0  0  0  0  0  0  0  0  0
  145.9821  144.0288  158.1529 H   0  0  0  0  0  0  0  0  0  0  0  0
  145.7245  142.7236  159.2917 H   0  0  0  0  0  0  0  0  0  0  0  0
  148.6804  145.1560  162.4569 H   0  0  0  0  0  0  0  0  0  0  0  0
  145.0640  145.7106  158.7108 H   0  0  0  0  0  0  0  0  0  0  0  0
  145.9268  147.1932  159.1549 H   0  0  0  0  0  0  0  0  0  0  0  0
  144.6960  146.5202  160.2435 H   0  0  0  0  0  0  0  0  0  0  0  0
  152.5995  141.5174  158.0326 H   0  0  0  0  0  0  0  0  0  0  0  0
  153.4882  142.9921  158.2901 H   0  0  0  0  0  0  0  0  0  0  0  0
  153.6465  141.5853  160.2921 H   0  0  0  0  0  0  0  0  0  0  0  0
  151.9109  141.4730  160.4198 H   0  0  0  0  0  0  0  0  0  0  0  0
  148.9368  143.7201  157.2077 H   0  0  0  0  0  0  0  0  0  0  0  0
  1  2  1  0  0  0  0
  1 18  1  0  0  0  0
  1 19  1  0  0  0  0
  1 20  1  0  0  0  0
  2 17  1  0  0  0  0
  2  3  1  0  0  0  0
  2 21  1  0  0  0  0
  3  4  1  0  0  0  0
  3 22  1  0  0  0  0
  3 23  1  0  0  0  0
  4  5  1  0  0  0  0
  4 24  1  0  0  0  0
  4 25  1  0  0  0  0
  5  6  1  0  0  0  0
  5 16  1  0  0  0  0
  5 26  1  0  0  0  0
  6  7  1  0  0  0  0
  6 27  1  0  0  0  0
  6 28  1  0  0  0  0
  7  8  1  0  0  0  0
  7 29  1  0  0  0  0
  7 42  1  0  0  0  0
  8  9  1  0  0  0  0
  8 30  1  0  0  0  0
  8 31  1  0  0  0  0
  9 10  1  0  0  0  0
  9 32  1  0  0  0  0
  9 33  1  0  0  0  0
 10 14  1  0  0  0  0
 10 11  2  0  0  0  0
 11 12  1  0  0  0  0
 12 13  2  0  0  0  0
 12 34  1  0  0  0  0
 13 14  1  0  0  0  0
 14 15  1  0  0  0  0
 15 35  1  0  0  0  0
 15 36  1  0  0  0  0
 15 37  1  0  0  0  0
 16 17  1  0  0  0  0
 16 38  1  0  0  0  0
 16 39  1  0  0  0  0
 17 40  1  0  0  0  0
 17 41  1  0  0  0  0
M  CHG  1   7   1
M  END
> <s_m_source_file>
AV-unprocessed.smi

> <i_m_source_file_index>
3206

> <i_lp_mmshare_version>
43012

> <i_f3d_flags>
0

> <s_epik_input>
W0NIM11bQ0BASF0xW0NIMl1bQ0gyXVtDQEhdKFtDSDJdW0NIMl0xKVtDSDJdW05IXVtDSDJdW0NIMl1jMm5bY0hdbm4yW0NIM10=

> <s_epik_cmdline>
J2VwaWtfcHl0aG9uJywgJy1waCcsICc3LjAnLCAnLXRuJywgJzgnLCAnLW1hJywgJzIwMCcsICctbWV0YWxfYmluZGluZycsICctaW1hZScsICc8aW5maWxlLm1hZT4nLCAnLW9tYWUnLCAnPG91dGZpbGUubWFlPic=

> <r_lp_tautomer_probability>
1

> <r_epik_Ionization_Penalty>
0.00114491

> <r_epik_Ionization_Penalty_Charging>
0.00114083

> <r_epik_Ionization_Penalty_Neutral>
4.0852e-06

> <r_epik_State_Penalty>
-0

> <r_epik_Charging_Adjusted_Penalty>
0.00114083

> <i_epik_Tot_Q>
1

> <i_epik_Tot_abs_Q>
1

> <r_epik_Metal_State_Penalty>
-0

> <b_epik_Metal_Only>
0

> <s_lp_Force_Field>
OPLS_2005

> <r_lp_Energy>
20.2126

> <b_lp_Chiralities_Consistent>
1

> <s_lp_Variant>
AV-unprocessed.smi:3206-2

> <Gold.Version>
5.8.1

> <Gold.Id.Protein>
6NUR|6NUR_protein|mol2

> <Gold.PLP.Fitness>
49.1737

> <Gold.PLP.PLP>
-41.6606

> <Gold.PLP.part.hbond>
-4.3101

> <Gold.PLP.part.metal>
0.0000

> <Gold.PLP.part.buried>
-6.3795

> <Gold.PLP.part.nonpolar>
-30.8175

> <Gold.PLP.part.repulsive>
0.4112

> <Gold.PLP.ligand.clash>
0.0000

> <Gold.PLP.ligand.torsion>
0.7537

> <Gold.PLP.Chemscore.Hbond>
3.0000

> <Gold.PLP.Chemscore.CHOScore>
0.0000

> <Gold.PLP.Chemscore.Metal>
0.0000

> <Gold.Chemscore.Hbonds>
donor molecule, donor type, donor heavy atom, donor atom, acceptor molecule, acceptor atom, score
      L1  H     7    42       P1  8028  1.90
      P1  H  6933  6944       L1    11  1.00

> <Gold.PLP.Chemscore.Internal.Correction>
0.0205

> <Gold.Rescore>
     Score         DG    S(hbond)    S(metal)    S(lipo)     H(rot)  DE(clash)    DE(int)     intcor
     14.46     -16.39       1.61        0.00      92.06       2.05       0.19       1.73       ----

> <Gold.Chemscore.Fitness>
14.4629

> <Gold.Chemscore.DG>
-16.3882

> <Gold.Chemscore.ZeroCoef>
-5.4800

> <Gold.Chemscore.Hbond>
1.6145

> <Gold.Chemscore.Metal>
0.0000

> <Gold.Chemscore.Lipo>
92.0581

> <Gold.Chemscore.Internal_Hbond>
0.0000

> <Gold.Chemscore.DEClash>
0.1925

> <Gold.Chemscore.DEInternal>
1.7328

> <Gold.Chemscore.Rot>
2.0528

> <Gold.Chemscore.Internal.Correction>
   9.000000E+99

> <Gold.Chemscore.Hbonds>
donor molecule, donor type, donor heavy atom, donor atom, acceptor molecule, acceptor atom, score
      L1  H     7    42       P1  8028  0.22
      P1  H  6933  6944       L1    11  0.99

> <Gold.Chemscore.Hbond.Weighted>
-5.3924

> <Gold.Chemscore.Metal.Weighted>
-0.0000

> <Gold.Chemscore.Lipo.Weighted>
-10.7708

> <Gold.Chemscore.Internal_Hbond.Weighted>
0.0000

> <Gold.Chemscore.DEClash.Weighted>
0.1925

> <Gold.Chemscore.DEInternal.Weighted>
1.7328

> <Gold.Chemscore.Rot.Weighted>
5.2551

> <Gold.Chemscore.Internal.Correction.Weighted>
   9.000000E+99

> <Gold.Protein.RotatedTorsions>
[ 6907 6896 6895 6894 ] final -120.54 input  -60.11 | X-H torsion
[ 7974 7965 7964 7962 ] final   -3.58 input  175.53 | X-H torsion
[ 8008 7997 7996 7995 ] final  -49.75 input   59.86 | X-H torsion
[ 10167 10162 10161 10158 ] final  162.41 input  -65.29 | X-H torsion
[ 10718 10713 10712 10709 ] final  167.62 input   66.30 | X-H torsion
[ 10763 10752 10751 10750 ] final  150.68 input  -60.55 | X-H torsion
[ 11005 11000 10999 10996 ] final  124.57 input  -57.11 | X-H torsion

> <Gold.Protein.ActiveResidues>
 VAL166  LYS551  ARG553  GLY616  TRP617  ASP618  TYR619  PRO620  LYS621  CYS622 
 ASP623  PHE694  ASN695  SER759  ASP760  ASP761  ALA762  ILE779  LEU786  VAL792 
 PHE793  MET794  SER795  GLU796  ALA797  LYS798  CYS799  TRP800  GLU811  SER814 

> <Gold.Protein.RotatedAtoms>
  150.8402  133.7948  159.3063 H   0  0  0  0  0  0  0  0  0  0  0  0  # atno 6907 bound_to 6896
  151.5652  135.1062  159.9991 H   0  0  0  0  0  0  0  0  0  0  0  0  # atno 6908 bound_to 6896
  152.4467  133.7508  159.6749 H   0  0  0  0  0  0  0  0  0  0  0  0  # atno 6909 bound_to 6896
  146.2387  140.1742  142.8332 H   0  0  0  0  0  0  0  0  0  0  0  0  # atno 7974 bound_to 7965
  154.4049  140.1289  156.4554 H   0  0  0  0  0  0  0  0  0  0  0  0  # atno 8008 bound_to 7997
  155.7325  140.3491  155.5046 H   0  0  0  0  0  0  0  0  0  0  0  0  # atno 8009 bound_to 7997
  155.9114  140.1036  157.1267 H   0  0  0  0  0  0  0  0  0  0  0  0  # atno 8010 bound_to 7997
  139.4860  144.4440  151.8915 H   0  0  0  0  0  0  0  0  0  0  0  0  # atno 10167 bound_to 10162
  157.0488  131.0307  151.2688 H   0  0  0  0  0  0  0  0  0  0  0  0  # atno 10718 bound_to 10713
  154.0915  135.2852  155.3270 H   0  0  0  0  0  0  0  0  0  0  0  0  # atno 10763 bound_to 10752
  154.6617  135.5332  153.8029 H   0  0  0  0  0  0  0  0  0  0  0  0  # atno 10764 bound_to 10752
  153.0412  135.6535  154.1084 H   0  0  0  0  0  0  0  0  0  0  0  0  # atno 10765 bound_to 10752
  139.9365  134.9639  156.8428 H   0  0  0  0  0  0  0  0  0  0  0  0  # atno 11005 bound_to 11000
  144.9987  140.8612  143.5295 LP  0  0  0  0  0  0  0  0  0  0  0  0  # atno 17320 bound_to 7965
  145.1758  139.2379  143.5318 LP  0  0  0  0  0  0  0  0  0  0  0  0  # atno 17321 bound_to 7965
  140.3894  144.2635  150.5901 LP  0  0  0  0  0  0  0  0  0  0  0  0  # atno 17342 bound_to 10162
  140.5160  143.2278  151.8462 LP  0  0  0  0  0  0  0  0  0  0  0  0  # atno 17343 bound_to 10162
  157.5046  130.7901  149.7640 LP  0  0  0  0  0  0  0  0  0  0  0  0  # atno 17370 bound_to 10713
  156.0014  130.3878  150.2592 LP  0  0  0  0  0  0  0  0  0  0  0  0  # atno 17371 bound_to 10713
  140.6063  134.0124  155.7558 LP  0  0  0  0  0  0  0  0  0  0  0  0  # atno 17394 bound_to 11000
  141.0980  133.9812  157.3127 LP  0  0  0  0  0  0  0  0  0  0  0  0  # atno 17395 bound_to 11000

$$$$
