AV-unprocessed.smi:2684|AV-procd|sdf|10379|dock1
  -GOLD-   2272014413D 1   1.00000     0.00000
 Structure written by MMmdl.
 45 46  0  0  0  0  0  0  0  0  2 V2000
  151.3209  142.8882  157.3272 C   0  0  0  0  0  0  0  0  0  0  0  0
  150.4115  141.8726  156.6983 C   0  0  0  0  0  0  0  0  0  0  0  0
  149.1005  141.4994  157.1098 C   0  0  0  0  0  0  0  0  0  0  0  0
  148.5682  140.5625  156.3418 N   0  0  0  0  0  0  0  0  0  0  0  0
  149.5184  140.3019  155.4193 N   0  0  0  0  0  0  0  0  0  0  0  0
  149.2832  139.2899  154.4051 C   0  0  0  0  0  0  0  0  0  0  0  0
  147.8755  139.3714  153.7707 C   0  0  1  0  0  0  0  0  0  0  0  0
  147.4440  140.8350  153.6082 C   0  0  0  0  0  0  0  0  0  0  0  0
  147.8359  138.7014  152.4500 N   0  3  0  0  0  0  0  0  0  0  0  0
  146.4987  138.6244  151.8232 C   0  0  0  0  0  0  0  0  0  0  0  0
  145.5905  137.6182  152.5419 C   0  0  0  0  0  0  0  0  0  0  0  0
  146.0055  136.4809  152.7565 O   0  0  0  0  0  0  0  0  0  0  0  0
  144.3467  137.9751  152.9098 N   0  0  0  0  0  0  0  0  0  0  0  0
  143.3354  137.1725  153.5973 C   0  0  0  0  0  0  0  0  0  0  0  0
  143.0494  135.9000  152.7857 C   0  0  0  0  0  0  0  0  0  0  0  0
  141.9041  135.0946  153.4211 C   0  0  0  0  0  0  0  0  0  0  0  0
  140.7409  135.9074  153.5303 O   0  0  0  0  0  0  0  0  0  0  0  0
  140.9318  137.0387  154.3725 C   0  0  0  0  0  0  0  0  0  0  0  0
  142.0212  137.9520  153.7879 C   0  0  0  0  0  0  0  0  0  0  0  0
  150.6373  141.0866  155.6043 C   0  0  0  0  0  0  0  0  0  0  0  0
  150.7604  143.6987  157.7931 H   0  0  0  0  0  0  0  0  0  0  0  0
  151.9899  143.3411  156.5952 H   0  0  0  0  0  0  0  0  0  0  0  0
  151.9461  142.4426  158.1003 H   0  0  0  0  0  0  0  0  0  0  0  0
  148.5248  141.8774  157.9420 H   0  0  0  0  0  0  0  0  0  0  0  0
  150.0479  139.4057  153.6353 H   0  0  0  0  0  0  0  0  0  0  0  0
  149.4424  138.3072  154.8517 H   0  0  0  0  0  0  0  0  0  0  0  0
  147.1505  138.8951  154.4328 H   0  0  0  0  0  0  0  0  0  0  0  0
  147.4291  141.3490  154.5700 H   0  0  0  0  0  0  0  0  0  0  0  0
  146.4417  140.9048  153.1843 H   0  0  0  0  0  0  0  0  0  0  0  0
  148.1225  141.3804  152.9512 H   0  0  0  0  0  0  0  0  0  0  0  0
  148.4299  139.2157  151.8150 H   0  0  0  0  0  0  0  0  0  0  0  0
  146.0521  139.6131  151.8088 H   0  0  0  0  0  0  0  0  0  0  0  0
  146.6121  138.3137  150.7842 H   0  0  0  0  0  0  0  0  0  0  0  0
  144.0605  138.9124  152.6643 H   0  0  0  0  0  0  0  0  0  0  0  0
  143.7177  136.8559  154.5677 H   0  0  0  0  0  0  0  0  0  0  0  0
  142.7755  136.1638  151.7631 H   0  0  0  0  0  0  0  0  0  0  0  0
  143.9462  135.2828  152.7203 H   0  0  0  0  0  0  0  0  0  0  0  0
  141.6702  134.2261  152.8050 H   0  0  0  0  0  0  0  0  0  0  0  0
  142.1892  134.7187  154.4047 H   0  0  0  0  0  0  0  0  0  0  0  0
  139.9901  137.5821  154.4508 H   0  0  0  0  0  0  0  0  0  0  0  0
  141.1972  136.7149  155.3804 H   0  0  0  0  0  0  0  0  0  0  0  0
  142.1663  138.8099  154.4440 H   0  0  0  0  0  0  0  0  0  0  0  0
  141.6824  138.3474  152.8293 H   0  0  0  0  0  0  0  0  0  0  0  0
  151.4981  141.0149  154.9560 H   0  0  0  0  0  0  0  0  0  0  0  0
  148.2113  137.7692  152.5485 H   0  0  0  0  0  0  0  0  0  0  0  0
  1  2  1  0  0  0  0
  1 21  1  0  0  0  0
  1 22  1  0  0  0  0
  1 23  1  0  0  0  0
  2 20  2  0  0  0  0
  2  3  1  0  0  0  0
  3  4  2  0  0  0  0
  3 24  1  0  0  0  0
  4  5  1  0  0  0  0
  5  6  1  0  0  0  0
  5 20  1  0  0  0  0
  6  7  1  0  0  0  0
  6 25  1  0  0  0  0
  6 26  1  0  0  0  0
  7  8  1  0  0  0  0
  7  9  1  0  0  0  0
  7 27  1  0  0  0  0
  8 28  1  0  0  0  0
  8 29  1  0  0  0  0
  8 30  1  0  0  0  0
  9 10  1  0  0  0  0
  9 31  1  0  0  0  0
  9 45  1  0  0  0  0
 10 11  1  0  0  0  0
 10 32  1  0  0  0  0
 10 33  1  0  0  0  0
 11 12  2  0  0  0  0
 11 13  1  0  0  0  0
 13 14  1  0  0  0  0
 13 34  1  0  0  0  0
 14 19  1  0  0  0  0
 14 15  1  0  0  0  0
 14 35  1  0  0  0  0
 15 16  1  0  0  0  0
 15 36  1  0  0  0  0
 15 37  1  0  0  0  0
 16 17  1  0  0  0  0
 16 38  1  0  0  0  0
 16 39  1  0  0  0  0
 17 18  1  0  0  0  0
 18 19  1  0  0  0  0
 18 40  1  0  0  0  0
 18 41  1  0  0  0  0
 19 42  1  0  0  0  0
 19 43  1  0  0  0  0
 20 44  1  0  0  0  0
M  CHG  1   9   1
M  END
> <s_m_source_file>
AV-unprocessed.smi

> <i_m_source_file_index>
2684

> <i_lp_mmshare_version>
43012

> <i_f3d_flags>
0

> <s_epik_input>
W0NIM11jMVtjSF1ubihbY0hdMSlbQ0gyXVtDQEhdKFtDSDNdKVtOSF1bQ0gyXUMoPU8pW05IXVtDSF0yW0NIMl1bQ0gyXU9bQ0gyXVtDSDJdMg==

> <s_epik_cmdline>
J2VwaWtfcHl0aG9uJywgJy1waCcsICc3LjAnLCAnLXRuJywgJzgnLCAnLW1hJywgJzIwMCcsICctbWV0YWxfYmluZGluZycsICctaW1hZScsICc8aW5maWxlLm1hZT4nLCAnLW9tYWUnLCAnPG91dGZpbGUubWFlPic=

> <r_lp_tautomer_probability>
1

> <r_epik_Ionization_Penalty>
0.128576

> <r_epik_Ionization_Penalty_Charging>
0.128567

> <r_epik_Ionization_Penalty_Neutral>
8.60003e-06

> <r_epik_State_Penalty>
0.117991

> <r_epik_Charging_Adjusted_Penalty>
0.246558

> <i_epik_Tot_Q>
1

> <i_epik_Tot_abs_Q>
1

> <r_epik_Metal_State_Penalty>
0.118015

> <b_epik_Metal_Only>
0

> <s_lp_Force_Field>
OPLS_2005

> <r_lp_Energy>
10.4868

> <b_lp_Chiralities_Consistent>
1

> <s_lp_Variant>
AV-unprocessed.smi:2684-2

> <Gold.Version>
5.8.1

> <Gold.Id.Protein>
6NUR|6NUR_protein|mol2

> <Gold.PLP.Fitness>
47.7630

> <Gold.PLP.PLP>
-36.6642

> <Gold.PLP.part.hbond>
-3.5540

> <Gold.PLP.part.metal>
0.0000

> <Gold.PLP.part.buried>
-4.9160

> <Gold.PLP.part.nonpolar>
-29.1768

> <Gold.PLP.part.repulsive>
0.7350

> <Gold.PLP.ligand.clash>
0.0000

> <Gold.PLP.ligand.torsion>
0.5604

> <Gold.PLP.Chemscore.Hbond>
4.0000

> <Gold.PLP.Chemscore.CHOScore>
0.0000

> <Gold.PLP.Chemscore.Metal>
0.0000

> <Gold.Chemscore.Hbonds>
donor molecule, donor type, donor heavy atom, donor atom, acceptor molecule, acceptor atom, score
      L1  H     9    31       P1  7957  1.00
      L1  H     9    45       P1  7948  2.00
      L1  H    13    34       P1 10175  1.00

> <Gold.PLP.Chemscore.Internal.Correction>
0.2197

> <Gold.Rescore>
     Score         DG    S(hbond)    S(metal)    S(lipo)     H(rot)  DE(clash)    DE(int)     intcor
     17.84     -19.04       2.96        0.00      76.21       2.04       0.16       1.04       ----

> <Gold.Chemscore.Fitness>
17.8423

> <Gold.Chemscore.DG>
-19.0425

> <Gold.Chemscore.ZeroCoef>
-5.4800

> <Gold.Chemscore.Hbond>
2.9575

> <Gold.Chemscore.Metal>
0.0000

> <Gold.Chemscore.Lipo>
76.2073

> <Gold.Chemscore.Internal_Hbond>
0.0000

> <Gold.Chemscore.DEClash>
0.1566

> <Gold.Chemscore.DEInternal>
1.0436

> <Gold.Chemscore.Rot>
2.0437

> <Gold.Chemscore.Internal.Correction>
   9.000000E+99

> <Gold.Chemscore.Hbonds>
donor molecule, donor type, donor heavy atom, donor atom, acceptor molecule, acceptor atom, score
      L1  H     9    31       P1  7957  0.94
      L1  H     9    45       P1  7948  0.95
      L1  H    13    34       P1 10175  0.98

> <Gold.Chemscore.Hbond.Weighted>
-9.8780

> <Gold.Chemscore.Metal.Weighted>
-0.0000

> <Gold.Chemscore.Lipo.Weighted>
-8.9163

> <Gold.Chemscore.Internal_Hbond.Weighted>
0.0000

> <Gold.Chemscore.DEClash.Weighted>
0.1566

> <Gold.Chemscore.DEInternal.Weighted>
1.0436

> <Gold.Chemscore.Rot.Weighted>
5.2318

> <Gold.Chemscore.Internal.Correction.Weighted>
   9.000000E+99

> <Gold.Protein.RotatedTorsions>
[ 6907 6896 6895 6894 ] final  -11.24 input  -60.11 | X-H torsion
[ 7974 7965 7964 7962 ] final   10.04 input  175.53 | X-H torsion
[ 8008 7997 7996 7995 ] final -124.59 input   59.86 | X-H torsion
[ 10167 10162 10161 10158 ] final  -87.95 input  -65.29 | X-H torsion
[ 10718 10713 10712 10709 ] final -102.81 input   66.30 | X-H torsion
[ 10763 10752 10751 10750 ] final  -12.13 input  -60.55 | X-H torsion
[ 11005 11000 10999 10996 ] final -100.03 input  -57.11 | X-H torsion

> <Gold.Protein.ActiveResidues>
 VAL166  LYS551  ARG553  GLY616  TRP617  ASP618  TYR619  PRO620  LYS621  CYS622 
 ASP623  PHE694  ASN695  SER759  ASP760  ASP761  ALA762  ILE779  LEU786  VAL792 
 PHE793  MET794  SER795  GLU796  ALA797  LYS798  CYS799  TRP800  GLU811  SER814 

> <Gold.Protein.RotatedAtoms>
  151.3894  135.0953  159.9520 H   0  0  0  0  0  0  0  0  0  0  0  0  # atno 6907 bound_to 6896
  152.5084  133.8995  159.7444 H   0  0  0  0  0  0  0  0  0  0  0  0  # atno 6908 bound_to 6896
  150.9445  133.6563  159.2813 H   0  0  0  0  0  0  0  0  0  0  0  0  # atno 6909 bound_to 6896
  146.2394  139.9694  142.8449 H   0  0  0  0  0  0  0  0  0  0  0  0  # atno 7974 bound_to 7965
  155.1994  140.0415  157.2914 H   0  0  0  0  0  0  0  0  0  0  0  0  # atno 8008 bound_to 7997
  154.6085  140.2470  155.7671 H   0  0  0  0  0  0  0  0  0  0  0  0  # atno 8009 bound_to 7997
  156.2365  140.2919  156.0335 H   0  0  0  0  0  0  0  0  0  0  0  0  # atno 8010 bound_to 7997
  140.3794  143.2756  151.9402 H   0  0  0  0  0  0  0  0  0  0  0  0  # atno 10167 bound_to 10162
  156.0242  130.5437  150.7162 H   0  0  0  0  0  0  0  0  0  0  0  0  # atno 10718 bound_to 10713
  153.4940  135.7017  153.5868 H   0  0  0  0  0  0  0  0  0  0  0  0  # atno 10763 bound_to 10752
  153.4029  135.3867  155.1999 H   0  0  0  0  0  0  0  0  0  0  0  0  # atno 10764 bound_to 10752
  154.8715  135.3886  154.4403 H   0  0  0  0  0  0  0  0  0  0  0  0  # atno 10765 bound_to 10752
  141.1286  133.8367  157.1049 H   0  0  0  0  0  0  0  0  0  0  0  0  # atno 11005 bound_to 11000
  145.1695  140.9714  143.4330 LP  0  0  0  0  0  0  0  0  0  0  0  0  # atno 17320 bound_to 7965
  145.0041  139.3571  143.6153 LP  0  0  0  0  0  0  0  0  0  0  0  0  # atno 17321 bound_to 7965
  139.4796  144.5832  151.7897 LP  0  0  0  0  0  0  0  0  0  0  0  0  # atno 17342 bound_to 10162
  140.4953  144.1250  150.5959 LP  0  0  0  0  0  0  0  0  0  0  0  0  # atno 17343 bound_to 10162
  157.4788  131.0900  151.0559 LP  0  0  0  0  0  0  0  0  0  0  0  0  # atno 17370 bound_to 10713
  157.0998  130.5977  149.5458 LP  0  0  0  0  0  0  0  0  0  0  0  0  # atno 17371 bound_to 10713
  140.0311  134.9901  157.0781 LP  0  0  0  0  0  0  0  0  0  0  0  0  # atno 17394 bound_to 11000
  140.4284  134.1806  155.7167 LP  0  0  0  0  0  0  0  0  0  0  0  0  # atno 17395 bound_to 11000

$$$$
