AV-unprocessed.smi:859|AV-procd|sdf|3963|dock2
  -GOLD-   22720 1433D 1   1.00000     0.00000
 Structure written by MMmdl.
 36 37  0  0  0  0  0  0  0  0  2 V2000
  153.7580  140.3164  158.6563 O   0  0  0  0  0  0  0  0  0  0  0  0
  152.7988  141.0885  158.6793 C   0  0  0  0  0  0  0  0  0  0  0  0
  151.6092  140.8003  158.1274 N   0  0  0  0  0  0  0  0  0  0  0  0
  151.2876  139.5721  157.4062 C   0  0  0  0  0  0  0  0  0  0  0  0
  151.7190  139.6375  155.9287 C   0  0  0  0  0  0  0  0  0  0  0  0
  150.6083  139.3989  155.0013 N   0  0  0  0  0  0  0  0  0  0  0  0
  149.4823  140.1651  154.8402 C   0  0  0  0  0  0  0  0  0  0  0  0
  148.7223  139.5457  153.8817 C   0  0  0  0  0  0  0  0  0  0  0  0
  149.4178  138.4315  153.4951 N   0  3  0  0  0  0  0  0  0  0  0  0
  150.5666  138.3466  154.1733 C   0  0  0  0  0  0  0  0  0  0  0  0
  152.9333  142.4689  159.3337 C   0  0  0  0  0  0  0  0  0  0  0  0
  152.4057  142.4407  160.7844 C   0  0  0  0  0  0  0  0  0  0  0  0
  152.5326  143.8202  161.4508 C   0  0  0  0  0  0  0  0  0  0  0  0
  151.8135  144.9031  160.6307 C   0  0  0  0  0  0  0  0  0  0  0  0
  152.3186  144.9311  159.1792 C   0  0  0  0  0  0  0  0  0  0  0  0
  152.1925  143.5490  158.5173 C   0  0  0  0  0  0  0  0  0  0  0  0
  150.8757  141.4910  158.1997 H   0  0  0  0  0  0  0  0  0  0  0  0
  151.7235  138.7011  157.8986 H   0  0  0  0  0  0  0  0  0  0  0  0
  150.2071  139.4379  157.4565 H   0  0  0  0  0  0  0  0  0  0  0  0
  152.1230  140.6246  155.7018 H   0  0  0  0  0  0  0  0  0  0  0  0
  152.5115  138.9164  155.7226 H   0  0  0  0  0  0  0  0  0  0  0  0
  149.3063  141.0654  155.4111 H   0  0  0  0  0  0  0  0  0  0  0  0
  147.7628  139.8056  153.4584 H   0  0  0  0  0  0  0  0  0  0  0  0
  151.3070  137.5721  154.0800 H   0  0  0  0  0  0  0  0  0  0  0  0
  153.9923  142.7330  159.3624 H   0  0  0  0  0  0  0  0  0  0  0  0
  151.3591  142.1315  160.7981 H   0  0  0  0  0  0  0  0  0  0  0  0
  152.9532  141.7010  161.3702 H   0  0  0  0  0  0  0  0  0  0  0  0
  152.1217  143.7849  162.4603 H   0  0  0  0  0  0  0  0  0  0  0  0
  153.5868  144.0798  161.5550 H   0  0  0  0  0  0  0  0  0  0  0  0
  150.7392  144.7145  160.6394 H   0  0  0  0  0  0  0  0  0  0  0  0
  151.9599  145.8790  161.0943 H   0  0  0  0  0  0  0  0  0  0  0  0
  151.7591  145.6705  158.6053 H   0  0  0  0  0  0  0  0  0  0  0  0
  153.3611  145.2512  159.1609 H   0  0  0  0  0  0  0  0  0  0  0  0
  152.5910  143.5940  157.5029 H   0  0  0  0  0  0  0  0  0  0  0  0
  151.1361  143.2923  158.4224 H   0  0  0  0  0  0  0  0  0  0  0  0
  149.1077  137.7645  152.7998 H   0  0  0  0  0  0  0  0  0  0  0  0
  1  2  2  0  0  0  0
  2  3  1  0  0  0  0
  2 11  1  0  0  0  0
  3  4  1  0  0  0  0
  3 17  1  0  0  0  0
  4  5  1  0  0  0  0
  4 18  1  0  0  0  0
  4 19  1  0  0  0  0
  5  6  1  0  0  0  0
  5 20  1  0  0  0  0
  5 21  1  0  0  0  0
  6 10  1  0  0  0  0
  6  7  1  0  0  0  0
  7  8  2  0  0  0  0
  7 22  1  0  0  0  0
  8  9  1  0  0  0  0
  8 23  1  0  0  0  0
  9 10  2  0  0  0  0
  9 36  1  0  0  0  0
 10 24  1  0  0  0  0
 11 16  1  0  0  0  0
 11 12  1  0  0  0  0
 11 25  1  0  0  0  0
 12 13  1  0  0  0  0
 12 26  1  0  0  0  0
 12 27  1  0  0  0  0
 13 14  1  0  0  0  0
 13 28  1  0  0  0  0
 13 29  1  0  0  0  0
 14 15  1  0  0  0  0
 14 30  1  0  0  0  0
 14 31  1  0  0  0  0
 15 16  1  0  0  0  0
 15 32  1  0  0  0  0
 15 33  1  0  0  0  0
 16 34  1  0  0  0  0
 16 35  1  0  0  0  0
M  CHG  1   9   1
M  END
> <s_m_source_file>
AV-unprocessed.smi

> <i_m_source_file_index>
859

> <i_lp_mmshare_version>
43012

> <i_f3d_flags>
0

> <s_epik_input>
W0NIMl0xW0NIMl1bQ0gyXVtDSDJdW0NIMl1bQ0hdMUMoPU8pW05IXVtDSDJdW0NIMl1uMltjSF1bY0hdbltjSF0y

> <s_epik_cmdline>
J2VwaWtfcHl0aG9uJywgJy1waCcsICc3LjAnLCAnLXRuJywgJzgnLCAnLW1hJywgJzIwMCcsICctbWV0YWxfYmluZGluZycsICctaW1hZScsICc8aW5maWxlLm1hZT4nLCAnLW9tYWUnLCAnPG91dGZpbGUubWFlPic=

> <r_lp_tautomer_probability>
1

> <r_epik_Ionization_Penalty>
0.267085

> <r_epik_Ionization_Penalty_Charging>
0

> <r_epik_Ionization_Penalty_Neutral>
0.267085

> <r_epik_State_Penalty>
0.259064

> <r_epik_Charging_Adjusted_Penalty>
0.259064

> <i_epik_Tot_Q>
1

> <i_epik_Tot_abs_Q>
1

> <r_epik_Metal_State_Penalty>
0.54496

> <b_epik_Metal_Only>
0

> <s_lp_Force_Field>
OPLS_2005

> <r_lp_Energy>
13.141

> <b_lp_Chiralities_Consistent>
1

> <s_lp_Variant>
AV-unprocessed.smi:859-1

> <Gold.Version>
5.8.1

> <Gold.Id.Protein>
6NUR|6NUR_protein|mol2

> <Gold.PLP.Fitness>
46.3416

> <Gold.PLP.PLP>
-40.0046

> <Gold.PLP.part.hbond>
-3.0000

> <Gold.PLP.part.metal>
0.0000

> <Gold.PLP.part.buried>
-0.8868

> <Gold.PLP.part.nonpolar>
-36.1396

> <Gold.PLP.part.repulsive>
0.1738

> <Gold.PLP.ligand.clash>
0.0000

> <Gold.PLP.ligand.torsion>
1.1886

> <Gold.PLP.Chemscore.Hbond>
2.8960

> <Gold.PLP.Chemscore.CHOScore>
0.0000

> <Gold.PLP.Chemscore.Metal>
0.0000

> <Gold.Chemscore.Hbonds>
donor molecule, donor type, donor heavy atom, donor atom, acceptor molecule, acceptor atom, score
      L1  H     9    36       P1  7948  2.00
      P1  H  7997  8009       L1     1  0.85

> <Gold.PLP.Chemscore.Internal.Correction>
0.0262

> <Gold.Rescore>
     Score         DG    S(hbond)    S(metal)    S(lipo)     H(rot)  DE(clash)    DE(int)     intcor
     16.98     -18.10       1.88        0.00      94.86       1.86       0.06       1.07       ----

> <Gold.Chemscore.Fitness>
16.9768

> <Gold.Chemscore.DG>
-18.1028

> <Gold.Chemscore.ZeroCoef>
-5.4800

> <Gold.Chemscore.Hbond>
1.8796

> <Gold.Chemscore.Metal>
0.0000

> <Gold.Chemscore.Lipo>
94.8563

> <Gold.Chemscore.Internal_Hbond>
0.0000

> <Gold.Chemscore.DEClash>
0.0560

> <Gold.Chemscore.DEInternal>
1.0700

> <Gold.Chemscore.Rot>
1.8567

> <Gold.Chemscore.Internal.Correction>
   9.000000E+99

> <Gold.Chemscore.Hbonds>
donor molecule, donor type, donor heavy atom, donor atom, acceptor molecule, acceptor atom, score
      L1  H     9    36       P1  7948  0.99
      P1  H  7997  8009       L1     1  0.82

> <Gold.Chemscore.Hbond.Weighted>
-6.2778

> <Gold.Chemscore.Metal.Weighted>
-0.0000

> <Gold.Chemscore.Lipo.Weighted>
-11.0982

> <Gold.Chemscore.Internal_Hbond.Weighted>
0.0000

> <Gold.Chemscore.DEClash.Weighted>
0.0560

> <Gold.Chemscore.DEInternal.Weighted>
1.0700

> <Gold.Chemscore.Rot.Weighted>
4.7531

> <Gold.Chemscore.Internal.Correction.Weighted>
   9.000000E+99

> <Gold.Protein.RotatedTorsions>
[ 6907 6896 6895 6894 ] final  -26.12 input  -60.11 | X-H torsion
[ 7974 7965 7964 7962 ] final  -93.76 input  175.53 | X-H torsion
[ 8008 7997 7996 7995 ] final  147.19 input   59.86 | X-H torsion
[ 10167 10162 10161 10158 ] final  150.86 input  -65.29 | X-H torsion
[ 10718 10713 10712 10709 ] final  -42.43 input   66.30 | X-H torsion
[ 10763 10752 10751 10750 ] final  -99.25 input  -60.55 | X-H torsion
[ 11005 11000 10999 10996 ] final  154.88 input  -57.11 | X-H torsion

> <Gold.Protein.ActiveResidues>
 VAL166  LYS551  ARG553  GLY616  TRP617  ASP618  TYR619  PRO620  LYS621  CYS622 
 ASP623  PHE694  ASN695  SER759  ASP760  ASP761  ALA762  ILE779  LEU786  VAL792 
 PHE793  MET794  SER795  GLU796  ALA797  LYS798  CYS799  TRP800  GLU811  SER814 

> <Gold.Protein.RotatedAtoms>
  151.1654  135.0293  159.8728 H   0  0  0  0  0  0  0  0  0  0  0  0  # atno 6907 bound_to 6896
  152.5450  134.1231  159.8417 H   0  0  0  0  0  0  0  0  0  0  0  0  # atno 6908 bound_to 6896
  151.1331  133.4977  159.2631 H   0  0  0  0  0  0  0  0  0  0  0  0  # atno 6909 bound_to 6896
  145.3822  140.9519  143.2387 H   0  0  0  0  0  0  0  0  0  0  0  0  # atno 7974 bound_to 7965
  156.2832  140.2162  156.5497 H   0  0  0  0  0  0  0  0  0  0  0  0  # atno 8008 bound_to 7997
  154.7301  140.0496  157.0741 H   0  0  0  0  0  0  0  0  0  0  0  0  # atno 8009 bound_to 7997
  155.0365  140.3141  155.4743 H   0  0  0  0  0  0  0  0  0  0  0  0  # atno 8010 bound_to 7997
  139.4846  144.5488  151.7437 H   0  0  0  0  0  0  0  0  0  0  0  0  # atno 10167 bound_to 10162
  156.2596  130.4196  149.8557 H   0  0  0  0  0  0  0  0  0  0  0  0  # atno 10718 bound_to 10713
  154.7482  135.4979  153.9242 H   0  0  0  0  0  0  0  0  0  0  0  0  # atno 10763 bound_to 10752
  153.1115  135.6710  153.9500 H   0  0  0  0  0  0  0  0  0  0  0  0  # atno 10764 bound_to 10752
  153.9258  135.3083  155.3426 H   0  0  0  0  0  0  0  0  0  0  0  0  # atno 10765 bound_to 10752
  140.1530  134.8662  157.2478 H   0  0  0  0  0  0  0  0  0  0  0  0  # atno 11005 bound_to 11000
  144.8499  139.5338  143.6861 LP  0  0  0  0  0  0  0  0  0  0  0  0  # atno 17320 bound_to 7965
  146.2837  139.6945  142.9211 LP  0  0  0  0  0  0  0  0  0  0  0  0  # atno 17321 bound_to 7965
  140.5039  144.1128  150.5977 LP  0  0  0  0  0  0  0  0  0  0  0  0  # atno 17342 bound_to 10162
  140.4030  143.2694  151.9924 LP  0  0  0  0  0  0  0  0  0  0  0  0  # atno 17343 bound_to 10162
  156.6076  130.8573  151.3447 LP  0  0  0  0  0  0  0  0  0  0  0  0  # atno 17370 bound_to 10713
  157.7246  130.9604  150.1579 LP  0  0  0  0  0  0  0  0  0  0  0  0  # atno 17371 bound_to 10713
  140.2582  134.3603  155.7416 LP  0  0  0  0  0  0  0  0  0  0  0  0  # atno 17394 bound_to 11000
  141.2201  133.7354  156.9039 LP  0  0  0  0  0  0  0  0  0  0  0  0  # atno 17395 bound_to 11000

$$$$
