AV-unprocessed.smi:1709|AV-procd|sdf|6896|dock4
  -GOLD-   22720 8103D 1   1.00000     0.00000
 Structure written by MMmdl.
 43 45  0  0  0  0  0  0  0  0  2 V2000
  151.0595  137.7215  154.5538 C   0  0  0  0  0  0  0  0  0  0  0  0
  150.2792  138.9931  154.8473 C   0  0  0  0  0  0  0  0  0  0  0  0
  150.9384  140.0749  155.4689 C   0  0  0  0  0  0  0  0  0  0  0  0
  150.2207  141.2516  155.7403 C   0  0  0  0  0  0  0  0  0  0  0  0
  148.8650  141.2966  155.3760 C   0  0  0  0  0  0  0  0  0  0  0  0
  148.2277  140.2675  154.7809 N   0  0  0  0  0  0  0  0  0  0  0  0
  148.9042  139.1212  154.5109 C   0  0  0  0  0  0  0  0  0  0  0  0
  148.3107  137.9833  153.8803 N   0  0  0  0  0  0  0  0  0  0  0  0
  147.1192  137.3730  154.0569 C   0  0  0  0  0  0  0  0  0  0  0  0
  146.3149  137.7821  154.8924 O   0  0  0  0  0  0  0  0  0  0  0  0
  146.8750  136.3051  153.2806 N   0  0  0  0  0  0  0  0  0  0  0  0
  145.6760  135.4758  153.3248 C   0  0  1  0  0  0  0  0  0  0  0  0
  144.3797  136.2926  153.1798 C   0  0  0  0  0  0  0  0  0  0  0  0
  143.4466  135.4285  152.3089 C   0  0  0  0  0  0  0  0  0  0  0  0
  144.1729  134.1623  152.0948 N   0  3  1  0  0  0  0  0  0  0  0  0
  143.8116  133.3723  150.8977 C   0  0  0  0  0  0  0  0  0  0  0  0
  144.6153  132.0565  150.8950 C   0  0  0  0  0  0  0  0  0  0  0  0
  146.1304  132.3109  151.0324 C   0  0  0  0  0  0  0  0  0  0  0  0
  146.4355  133.2154  152.2419 C   0  0  0  0  0  0  0  0  0  0  0  0
  145.6022  134.5046  152.1442 C   0  0  2  0  0  0  0  0  0  0  0  0
  152.0993  137.8117  154.8694 H   0  0  0  0  0  0  0  0  0  0  0  0
  151.0522  137.5058  153.4849 H   0  0  0  0  0  0  0  0  0  0  0  0
  150.6215  136.8742  155.0824 H   0  0  0  0  0  0  0  0  0  0  0  0
  151.9830  140.0075  155.7354 H   0  0  0  0  0  0  0  0  0  0  0  0
  150.6973  142.0967  156.2145 H   0  0  0  0  0  0  0  0  0  0  0  0
  148.2757  142.1816  155.5656 H   0  0  0  0  0  0  0  0  0  0  0  0
  148.8742  137.5815  153.1451 H   0  0  0  0  0  0  0  0  0  0  0  0
  147.5901  136.0402  152.6171 H   0  0  0  0  0  0  0  0  0  0  0  0
  145.6275  134.9169  154.2618 H   0  0  0  0  0  0  0  0  0  0  0  0
  143.9411  136.5077  154.1547 H   0  0  0  0  0  0  0  0  0  0  0  0
  144.5630  137.2486  152.6862 H   0  0  0  0  0  0  0  0  0  0  0  0
  142.4830  135.2459  152.7849 H   0  0  0  0  0  0  0  0  0  0  0  0
  143.2646  135.9227  151.3532 H   0  0  0  0  0  0  0  0  0  0  0  0
  142.7420  133.1602  150.9078 H   0  0  0  0  0  0  0  0  0  0  0  0
  144.0188  133.9487  149.9948 H   0  0  0  0  0  0  0  0  0  0  0  0
  144.2809  131.4287  151.7222 H   0  0  0  0  0  0  0  0  0  0  0  0
  144.4117  131.4956  149.9824 H   0  0  0  0  0  0  0  0  0  0  0  0
  146.6640  131.3646  151.1265 H   0  0  0  0  0  0  0  0  0  0  0  0
  146.5017  132.7850  150.1230 H   0  0  0  0  0  0  0  0  0  0  0  0
  146.2067  132.6882  153.1691 H   0  0  0  0  0  0  0  0  0  0  0  0
  147.4996  133.4506  152.2692 H   0  0  0  0  0  0  0  0  0  0  0  0
  145.8639  135.0368  151.2263 H   0  0  0  0  0  0  0  0  0  0  0  0
  143.9903  133.5860  152.9040 H   0  0  0  0  0  0  0  0  0  0  0  0
  1  2  1  0  0  0  0
  1 21  1  0  0  0  0
  1 22  1  0  0  0  0
  1 23  1  0  0  0  0
  2  7  1  0  0  0  0
  2  3  2  0  0  0  0
  3  4  1  0  0  0  0
  3 24  1  0  0  0  0
  4  5  2  0  0  0  0
  4 25  1  0  0  0  0
  5  6  1  0  0  0  0
  5 26  1  0  0  0  0
  6  7  2  0  0  0  0
  7  8  1  0  0  0  0
  8  9  1  0  0  0  0
  8 27  1  0  0  0  0
  9 10  2  0  0  0  0
  9 11  1  0  0  0  0
 11 12  1  0  0  0  0
 11 28  1  0  0  0  0
 12 20  1  0  0  0  0
 12 13  1  0  0  0  0
 12 29  1  0  0  0  0
 13 14  1  0  0  0  0
 13 30  1  0  0  0  0
 13 31  1  0  0  0  0
 14 15  1  0  0  0  0
 14 32  1  0  0  0  0
 14 33  1  0  0  0  0
 15 20  1  0  0  0  0
 15 16  1  0  0  0  0
 15 43  1  0  0  0  0
 16 17  1  0  0  0  0
 16 34  1  0  0  0  0
 16 35  1  0  0  0  0
 17 18  1  0  0  0  0
 17 36  1  0  0  0  0
 17 37  1  0  0  0  0
 18 19  1  0  0  0  0
 18 38  1  0  0  0  0
 18 39  1  0  0  0  0
 19 20  1  0  0  0  0
 19 40  1  0  0  0  0
 19 41  1  0  0  0  0
 20 42  1  0  0  0  0
M  CHG  1  15   1
M  END
> <s_m_source_file>
AV-unprocessed.smi

> <i_m_source_file_index>
1709

> <i_lp_mmshare_version>
43012

> <i_f3d_flags>
0

> <s_epik_input>
W0NIM11jMVtjSF1bY0hdW2NIXW5jMVtOSF1DKD1PKVtOSF1bQ0BIXShbQ0gyXVtDSDJdMilbQ0BASF0oTjIzKVtDSDJdW0NIMl1bQ0gyXVtDSDJdMw==

> <s_epik_cmdline>
J2VwaWtfcHl0aG9uJywgJy1waCcsICc3LjAnLCAnLXRuJywgJzgnLCAnLW1hJywgJzIwMCcsICctbWV0YWxfYmluZGluZycsICctaW1hZScsICc8aW5maWxlLm1hZT4nLCAnLW9tYWUnLCAnPG91dGZpbGUubWFlPic=

> <r_epik_Ionization_Penalty>
0.00101524

> <r_epik_Ionization_Penalty_Charging>
0.000974069

> <r_epik_Ionization_Penalty_Neutral>
4.11757e-05

> <r_epik_State_Penalty>
0.000633842

> <r_epik_Charging_Adjusted_Penalty>
0.00160791

> <i_epik_Tot_Q>
1

> <i_epik_Tot_abs_Q>
1

> <r_epik_Metal_State_Penalty>
-0

> <b_epik_Metal_Only>
0

> <s_lp_Force_Field>
OPLS_2005

> <r_lp_Energy>
38.4546

> <b_lp_Chiralities_Consistent>
1

> <s_lp_Variant>
AV-unprocessed.smi:1709-6

> <Gold.Version>
5.8.1

> <Gold.Id.Protein>
6NUR|6NUR_protein|mol2

> <Gold.PLP.Fitness>
39.6298

> <Gold.PLP.PLP>
-31.7163

> <Gold.PLP.part.hbond>
-1.9182

> <Gold.PLP.part.metal>
0.0000

> <Gold.PLP.part.buried>
-3.1994

> <Gold.PLP.part.nonpolar>
-27.4891

> <Gold.PLP.part.repulsive>
0.1698

> <Gold.PLP.ligand.clash>
0.0000

> <Gold.PLP.ligand.torsion>
0.4153

> <Gold.PLP.Chemscore.Hbond>
1.9120

> <Gold.PLP.Chemscore.CHOScore>
0.9994

> <Gold.PLP.Chemscore.Metal>
0.0000

> <Gold.Chemscore.Hbonds>
donor molecule, donor type, donor heavy atom, donor atom, acceptor molecule, acceptor atom, score
      L1  H     8    27       P1  7948  0.91
      L1  H    11    28       P1  7948  1.00
      L1  C     5    26       P1  8028  0.83

> <Gold.PLP.Chemscore.Internal.Correction>
0.0100

> <Gold.Rescore>
     Score         DG    S(hbond)    S(metal)    S(lipo)     H(rot)  DE(clash)    DE(int)     intcor
     16.82     -18.34       1.88        0.00      78.02       1.00       0.09       1.43       ----

> <Gold.Chemscore.Fitness>
16.8156

> <Gold.Chemscore.DG>
-18.3390

> <Gold.Chemscore.ZeroCoef>
-5.4800

> <Gold.Chemscore.Hbond>
1.8833

> <Gold.Chemscore.Metal>
0.0000

> <Gold.Chemscore.Lipo>
78.0227

> <Gold.Chemscore.Internal_Hbond>
0.0000

> <Gold.Chemscore.DEClash>
0.0925

> <Gold.Chemscore.DEInternal>
1.4310

> <Gold.Chemscore.Rot>
1.0000

> <Gold.Chemscore.Internal.Correction>
   9.000000E+99

> <Gold.Chemscore.Hbonds>
donor molecule, donor type, donor heavy atom, donor atom, acceptor molecule, acceptor atom, score
      L1  H     8    27       P1  7948  0.90
      L1  H    11    28       P1  7948  0.94

> <Gold.Chemscore.Hbond.Weighted>
-6.2904

> <Gold.Chemscore.Metal.Weighted>
-0.0000

> <Gold.Chemscore.Lipo.Weighted>
-9.1287

> <Gold.Chemscore.Internal_Hbond.Weighted>
0.0000

> <Gold.Chemscore.DEClash.Weighted>
0.0925

> <Gold.Chemscore.DEInternal.Weighted>
1.4310

> <Gold.Chemscore.Rot.Weighted>
2.5600

> <Gold.Chemscore.Internal.Correction.Weighted>
   9.000000E+99

> <Gold.Protein.RotatedTorsions>
[ 6907 6896 6895 6894 ] final  137.62 input  -60.11 | X-H torsion
[ 7974 7965 7964 7962 ] final  -47.05 input  175.53 | X-H torsion
[ 8008 7997 7996 7995 ] final  145.47 input   59.86 | X-H torsion
[ 10167 10162 10161 10158 ] final  178.57 input  -65.29 | X-H torsion
[ 10718 10713 10712 10709 ] final   24.99 input   66.30 | X-H torsion
[ 10763 10752 10751 10750 ] final  130.41 input  -60.55 | X-H torsion
[ 11005 11000 10999 10996 ] final -116.41 input  -57.11 | X-H torsion

> <Gold.Protein.ActiveResidues>
 VAL166  LYS551  ARG553  GLY616  TRP617  ASP618  TYR619  PRO620  LYS621  CYS622 
 ASP623  PHE694  ASN695  SER759  ASP760  ASP761  ALA762  ILE779  LEU786  VAL792 
 PHE793  MET794  SER795  GLU796  ALA797  LYS798  CYS799  TRP800  GLU811  SER814 

> <Gold.Protein.RotatedAtoms>
  152.2760  133.5426  159.5468 H   0  0  0  0  0  0  0  0  0  0  0  0  # atno 6907 bound_to 6896
  150.7177  134.0631  159.3847 H   0  0  0  0  0  0  0  0  0  0  0  0  # atno 6908 bound_to 6896
  151.8543  135.0547  160.0513 H   0  0  0  0  0  0  0  0  0  0  0  0  # atno 6909 bound_to 6896
  145.9656  140.7435  142.9435 H   0  0  0  0  0  0  0  0  0  0  0  0  # atno 7974 bound_to 7965
  156.2882  140.2208  156.5220 H   0  0  0  0  0  0  0  0  0  0  0  0  # atno 8008 bound_to 7997
  154.7521  140.0479  157.0924 H   0  0  0  0  0  0  0  0  0  0  0  0  # atno 8009 bound_to 7997
  155.0097  140.3111  155.4838 H   0  0  0  0  0  0  0  0  0  0  0  0  # atno 8010 bound_to 7997
  139.5299  144.2664  152.0664 H   0  0  0  0  0  0  0  0  0  0  0  0  # atno 10167 bound_to 10162
  157.1873  130.6830  149.6136 H   0  0  0  0  0  0  0  0  0  0  0  0  # atno 10718 bound_to 10713
  153.7575  135.3201  155.3331 H   0  0  0  0  0  0  0  0  0  0  0  0  # atno 10763 bound_to 10752
  154.8242  135.4582  154.0870 H   0  0  0  0  0  0  0  0  0  0  0  0  # atno 10764 bound_to 10752
  153.2092  135.6933  153.8218 H   0  0  0  0  0  0  0  0  0  0  0  0  # atno 10765 bound_to 10752
  141.0424  133.9816  157.2974 H   0  0  0  0  0  0  0  0  0  0  0  0  # atno 11005 bound_to 11000
  144.6825  140.2664  143.7312 LP  0  0  0  0  0  0  0  0  0  0  0  0  # atno 17320 bound_to 7965
  145.7978  139.1952  143.2065 LP  0  0  0  0  0  0  0  0  0  0  0  0  # atno 17321 bound_to 7965
  140.2126  144.4547  150.6379 LP  0  0  0  0  0  0  0  0  0  0  0  0  # atno 17342 bound_to 10162
  140.6471  143.2216  151.6162 LP  0  0  0  0  0  0  0  0  0  0  0  0  # atno 17343 bound_to 10162
  155.9716  130.4626  150.6152 LP  0  0  0  0  0  0  0  0  0  0  0  0  # atno 17370 bound_to 10713
  157.3894  131.0793  151.1407 LP  0  0  0  0  0  0  0  0  0  0  0  0  # atno 17371 bound_to 10713
  139.9285  135.0201  156.8320 LP  0  0  0  0  0  0  0  0  0  0  0  0  # atno 17394 bound_to 11000
  140.6210  133.9993  155.7618 LP  0  0  0  0  0  0  0  0  0  0  0  0  # atno 17395 bound_to 11000

$$$$
