AV-unprocessed.smi:1023|AV-procd|sdf|4463|dock5
  -GOLD-   22720 2433D 1   1.00000     0.00000
 Structure written by MMmdl.
 31 32  0  0  0  0  0  0  0  0  2 V2000
  146.0237  134.0476  163.3012 C   0  0  0  0  0  0  0  0  0  0  0  0
  147.2814  134.3223  162.4642 C   0  0  0  0  0  0  0  0  0  0  0  0
  148.3529  135.0359  163.3085 C   0  0  0  0  0  0  0  0  0  0  0  0
  146.9255  135.1009  161.1828 C   0  0  0  0  0  0  0  0  0  0  0  0
  148.0717  135.1972  160.2888 N   0  0  0  0  0  0  0  0  0  0  0  0
  148.7445  136.3224  159.9847 C   0  0  0  0  0  0  0  0  0  0  0  0
  148.3638  137.3898  160.4636 O   0  0  0  0  0  0  0  0  0  0  0  0
  149.8189  136.2130  159.1590 N   0  5  0  0  0  0  0  0  0  0  0  0
  150.6161  137.2592  158.8717 C   0  0  0  0  0  0  0  0  0  0  0  0
  151.8968  137.1104  158.5053 N   0  0  0  0  0  0  0  0  0  0  0  0
  152.5428  138.3174  158.2824 N   0  0  0  0  0  0  0  0  0  0  0  0
  151.7356  139.3637  158.4722 C   0  0  0  0  0  0  0  0  0  0  0  0
  152.1995  140.7717  158.3041 C   0  0  0  0  0  0  0  0  0  0  0  0
  152.2742  141.7055  159.4900 C   0  0  0  0  0  0  0  0  0  0  0  0
  151.2451  141.9409  158.4139 C   0  0  0  0  0  0  0  0  0  0  0  0
  150.0944  138.9423  158.9347 S   0  0  0  0  0  0  0  0  0  0  0  0
  145.5649  134.9760  163.6427 H   0  0  0  0  0  0  0  0  0  0  0  0
  146.2599  133.4493  164.1816 H   0  0  0  0  0  0  0  0  0  0  0  0
  145.2783  133.5010  162.7231 H   0  0  0  0  0  0  0  0  0  0  0  0
  147.6898  133.3563  162.1636 H   0  0  0  0  0  0  0  0  0  0  0  0
  148.0164  136.0257  163.6183 H   0  0  0  0  0  0  0  0  0  0  0  0
  149.2858  135.1589  162.7574 H   0  0  0  0  0  0  0  0  0  0  0  0
  148.5848  134.4669  164.2090 H   0  0  0  0  0  0  0  0  0  0  0  0
  146.1075  134.6039  160.6589 H   0  0  0  0  0  0  0  0  0  0  0  0
  146.5819  136.1055  161.4346 H   0  0  0  0  0  0  0  0  0  0  0  0
  148.3960  134.3360  159.8743 H   0  0  0  0  0  0  0  0  0  0  0  0
  152.9918  140.8285  157.5601 H   0  0  0  0  0  0  0  0  0  0  0  0
  151.9196  141.3338  160.4495 H   0  0  0  0  0  0  0  0  0  0  0  0
  153.1194  142.3892  159.5374 H   0  0  0  0  0  0  0  0  0  0  0  0
  151.4038  142.7818  157.7420 H   0  0  0  0  0  0  0  0  0  0  0  0
  150.2067  141.7379  158.6679 H   0  0  0  0  0  0  0  0  0  0  0  0
  1  2  1  0  0  0  0
  1 17  1  0  0  0  0
  1 18  1  0  0  0  0
  1 19  1  0  0  0  0
  2  3  1  0  0  0  0
  2  4  1  0  0  0  0
  2 20  1  0  0  0  0
  3 21  1  0  0  0  0
  3 22  1  0  0  0  0
  3 23  1  0  0  0  0
  4  5  1  0  0  0  0
  4 24  1  0  0  0  0
  4 25  1  0  0  0  0
  5  6  1  0  0  0  0
  5 26  1  0  0  0  0
  6  7  2  0  0  0  0
  6  8  1  0  0  0  0
  8  9  1  0  0  0  0
  9 16  1  0  0  0  0
  9 10  2  0  0  0  0
 10 11  1  0  0  0  0
 11 12  2  0  0  0  0
 12 13  1  0  0  0  0
 12 16  1  0  0  0  0
 13 15  1  0  0  0  0
 13 14  1  0  0  0  0
 13 27  1  0  0  0  0
 14 15  1  0  0  0  0
 14 28  1  0  0  0  0
 14 29  1  0  0  0  0
 15 30  1  0  0  0  0
 15 31  1  0  0  0  0
M  CHG  1   8  -1
M  END
> <s_m_source_file>
AV-unprocessed.smi

> <i_m_source_file_index>
1023

> <i_lp_mmshare_version>
43012

> <i_f3d_flags>
0

> <s_epik_input>
W0NIM11bQ0hdKFtDSDNdKVtDSDJdW05IXUMoPU8pW05IXWMxbm5jKHMxKVtDSF0yW0NIMl1bQ0gyXTI=

> <s_epik_cmdline>
J2VwaWtfcHl0aG9uJywgJy1waCcsICc3LjAnLCAnLXRuJywgJzgnLCAnLW1hJywgJzIwMCcsICctbWV0YWxfYmluZGluZycsICctaW1hZScsICc8aW5maWxlLm1hZT4nLCAnLW9tYWUnLCAnPG91dGZpbGUubWFlPic=

> <r_lp_tautomer_probability>
1

> <r_epik_Ionization_Penalty>
3.99087

> <r_epik_Ionization_Penalty_Charging>
3.83446

> <r_epik_Ionization_Penalty_Neutral>
0.156418

> <r_epik_State_Penalty>
3.83354

> <r_epik_Charging_Adjusted_Penalty>
7.668

> <i_epik_Tot_Q>
-1

> <i_epik_Tot_abs_Q>
1

> <r_epik_Metal_State_Penalty>
0.575872

> <b_epik_Metal_Only>
1

> <s_lp_Force_Field>
OPLS_2005

> <r_lp_Energy>
2.18617

> <b_lp_Chiralities_Consistent>
1

> <s_lp_Variant>
AV-unprocessed.smi:1023-2

> <Gold.Version>
5.8.1

> <Gold.Id.Protein>
6NUR|6NUR_protein|mol2

> <Gold.PLP.Fitness>
36.0505

> <Gold.PLP.PLP>
-28.2452

> <Gold.PLP.part.hbond>
-3.1172

> <Gold.PLP.part.metal>
0.0000

> <Gold.PLP.part.buried>
-4.5771

> <Gold.PLP.part.nonpolar>
-21.6177

> <Gold.PLP.part.repulsive>
0.0940

> <Gold.PLP.ligand.clash>
0.0000

> <Gold.PLP.ligand.torsion>
0.2629

> <Gold.PLP.Chemscore.Hbond>
2.7145

> <Gold.PLP.Chemscore.CHOScore>
0.0000

> <Gold.PLP.Chemscore.Metal>
0.0000

> <Gold.Chemscore.Hbonds>
donor molecule, donor type, donor heavy atom, donor atom, acceptor molecule, acceptor atom, score
      P1  H  6896  6909       L1     8  2.00
      P1  H  6931  6943       L1     7  0.64
      P1  H  6934  6947       L1     7  0.51

> <Gold.PLP.Chemscore.Internal.Correction>
0.1877

> <Gold.Rescore>
     Score         DG    S(hbond)    S(metal)    S(lipo)     H(rot)  DE(clash)    DE(int)     intcor
     12.59     -14.61       1.56        0.00      64.00       1.39       0.04       1.97       ----

> <Gold.Chemscore.Fitness>
12.5911

> <Gold.Chemscore.DG>
-14.6056

> <Gold.Chemscore.ZeroCoef>
-5.4800

> <Gold.Chemscore.Hbond>
1.5567

> <Gold.Chemscore.Metal>
0.0000

> <Gold.Chemscore.Lipo>
63.9953

> <Gold.Chemscore.Internal_Hbond>
0.0000

> <Gold.Chemscore.DEClash>
0.0421

> <Gold.Chemscore.DEInternal>
1.9724

> <Gold.Chemscore.Rot>
1.3911

> <Gold.Chemscore.Internal.Correction>
   9.000000E+99

> <Gold.Chemscore.Hbonds>
donor molecule, donor type, donor heavy atom, donor atom, acceptor molecule, acceptor atom, score
      P1  H  6896  6909       L1     8  0.57
      P1  H  6931  6943       L1     7  0.64
      P1  H  6934  6947       L1     7  0.49

> <Gold.Chemscore.Hbond.Weighted>
-5.1993

> <Gold.Chemscore.Metal.Weighted>
-0.0000

> <Gold.Chemscore.Lipo.Weighted>
-7.4875

> <Gold.Chemscore.Internal_Hbond.Weighted>
0.0000

> <Gold.Chemscore.DEClash.Weighted>
0.0421

> <Gold.Chemscore.DEInternal.Weighted>
1.9724

> <Gold.Chemscore.Rot.Weighted>
3.5612

> <Gold.Chemscore.Internal.Correction.Weighted>
   9.000000E+99

> <Gold.Protein.RotatedTorsions>
[ 6907 6896 6895 6894 ] final   53.44 input  -60.11 | X-H torsion
[ 7974 7965 7964 7962 ] final   28.46 input  175.53 | X-H torsion
[ 8008 7997 7996 7995 ] final    8.22 input   59.86 | X-H torsion
[ 10167 10162 10161 10158 ] final -104.83 input  -65.29 | X-H torsion
[ 10718 10713 10712 10709 ] final  -20.59 input   66.30 | X-H torsion
[ 10763 10752 10751 10750 ] final   91.00 input  -60.55 | X-H torsion
[ 11005 11000 10999 10996 ] final -114.34 input  -57.11 | X-H torsion

> <Gold.Protein.ActiveResidues>
 VAL166  LYS551  ARG553  GLY616  TRP617  ASP618  TYR619  PRO620  LYS621  CYS622 
 ASP623  PHE694  ASN695  SER759  ASP760  ASP761  ALA762  ILE779  LEU786  VAL792 
 PHE793  MET794  SER795  GLU796  ALA797  LYS798  CYS799  TRP800  GLU811  SER814 

> <Gold.Protein.RotatedAtoms>
  152.3337  134.7226  160.0282 H   0  0  0  0  0  0  0  0  0  0  0  0  # atno 6907 bound_to 6896
  151.7634  133.3330  159.3432 H   0  0  0  0  0  0  0  0  0  0  0  0  # atno 6908 bound_to 6896
  150.7438  134.6017  159.6084 H   0  0  0  0  0  0  0  0  0  0  0  0  # atno 6909 bound_to 6896
  146.1727  139.7053  142.8956 H   0  0  0  0  0  0  0  0  0  0  0  0  # atno 7974 bound_to 7965
  154.7640  140.2790  155.6191 H   0  0  0  0  0  0  0  0  0  0  0  0  # atno 8008 bound_to 7997
  156.2921  140.2654  156.2352 H   0  0  0  0  0  0  0  0  0  0  0  0  # atno 8009 bound_to 7997
  154.9982  140.0373  157.2339 H   0  0  0  0  0  0  0  0  0  0  0  0  # atno 8010 bound_to 7997
  140.2050  143.3789  152.1098 H   0  0  0  0  0  0  0  0  0  0  0  0  # atno 10167 bound_to 10162
  156.5298  130.4652  149.6553 H   0  0  0  0  0  0  0  0  0  0  0  0  # atno 10718 bound_to 10713
  153.2035  135.4413  155.0295 H   0  0  0  0  0  0  0  0  0  0  0  0  # atno 10763 bound_to 10752
  154.8160  135.3315  154.7176 H   0  0  0  0  0  0  0  0  0  0  0  0  # atno 10764 bound_to 10752
  153.7619  135.6991  153.4979 H   0  0  0  0  0  0  0  0  0  0  0  0  # atno 10765 bound_to 10752
  141.0558  133.9615  157.2757 H   0  0  0  0  0  0  0  0  0  0  0  0  # atno 11005 bound_to 11000
  145.4295  141.0414  143.2918 LP  0  0  0  0  0  0  0  0  0  0  0  0  # atno 17320 bound_to 7965
  144.8188  139.5828  143.6996 LP  0  0  0  0  0  0  0  0  0  0  0  0  # atno 17321 bound_to 7965
  139.5202  144.7030  151.5439 LP  0  0  0  0  0  0  0  0  0  0  0  0  # atno 17342 bound_to 10162
  140.6363  143.8977  150.6651 LP  0  0  0  0  0  0  0  0  0  0  0  0  # atno 17343 bound_to 10162
  156.3070  130.7208  151.2093 LP  0  0  0  0  0  0  0  0  0  0  0  0  # atno 17370 bound_to 10713
  157.7423  131.0491  150.5030 LP  0  0  0  0  0  0  0  0  0  0  0  0  # atno 17371 bound_to 10713
  139.9389  135.0193  156.8644 LP  0  0  0  0  0  0  0  0  0  0  0  0  # atno 17394 bound_to 11000
  140.5967  134.0210  155.7521 LP  0  0  0  0  0  0  0  0  0  0  0  0  # atno 17395 bound_to 11000

$$$$
