AV-unprocessed.smi:2710|AV-procd|sdf|10465|dock6
  -GOLD-   2272014503D 1   1.00000     0.00000
 Structure written by MMmdl.
 53 54  0  0  0  0  0  0  0  0  2 V2000
  144.4164  138.6206  155.3710 C   0  0  0  0  0  0  0  0  0  0  0  0
  145.8062  138.9569  154.8097 C   0  0  0  0  0  0  0  0  0  0  0  0
  145.8009  140.1565  153.9218 N   0  3  1  0  0  0  0  0  0  0  0  0
  145.4726  141.4297  154.6237 C   0  0  0  0  0  0  0  0  0  0  0  0
  146.6371  141.9220  155.5061 C   0  0  0  0  0  0  0  0  0  0  0  0
  147.9394  142.0571  154.6965 C   0  0  1  0  0  0  0  0  0  0  0  0
  149.0530  142.3691  155.5890 N   0  0  0  0  0  0  0  0  0  0  0  0
  149.7494  141.4812  156.3134 C   0  0  0  0  0  0  0  0  0  0  0  0
  149.5242  140.2714  156.3112 O   0  0  0  0  0  0  0  0  0  0  0  0
  150.7249  142.0853  157.0128 N   0  0  0  0  0  0  0  0  0  0  0  0
  151.6609  141.4907  157.9000 C   0  0  0  0  0  0  0  0  0  0  0  0
  152.2574  140.2627  157.5500 C   0  0  0  0  0  0  0  0  0  0  0  0
  153.1608  139.6541  158.3467 N   0  0  0  0  0  0  0  0  0  0  0  0
  153.4833  140.2627  159.4954 C   0  0  0  0  0  0  0  0  0  0  0  0
  154.5363  139.5586  160.3704 C   0  0  0  0  0  0  0  0  0  0  0  0
  154.7796  140.3048  161.7055 C   0  0  0  0  0  0  0  0  0  0  0  0
  155.8804  139.4957  159.6178 C   0  0  0  0  0  0  0  0  0  0  0  0
  154.0537  138.1381  160.7322 C   0  0  0  0  0  0  0  0  0  0  0  0
  153.0012  141.4426  159.9077 N   0  0  0  0  0  0  0  0  0  0  0  0
  152.0916  142.0583  159.1227 C   0  0  0  0  0  0  0  0  0  0  0  0
  148.2351  140.7584  153.9250 C   0  0  0  0  0  0  0  0  0  0  0  0
  147.0207  140.3295  153.0757 C   0  0  1  0  0  0  0  0  0  0  0  0
  147.3258  139.1189  152.1754 C   0  0  0  0  0  0  0  0  0  0  0  0
  144.4404  137.6675  155.8995 H   0  0  0  0  0  0  0  0  0  0  0  0
  143.6784  138.5342  154.5730 H   0  0  0  0  0  0  0  0  0  0  0  0
  144.0647  139.3679  156.0816 H   0  0  0  0  0  0  0  0  0  0  0  0
  146.5219  139.0746  155.6228 H   0  0  0  0  0  0  0  0  0  0  0  0
  146.1281  138.0815  154.2494 H   0  0  0  0  0  0  0  0  0  0  0  0
  145.2505  142.1873  153.8710 H   0  0  0  0  0  0  0  0  0  0  0  0
  144.5622  141.3347  155.2133 H   0  0  0  0  0  0  0  0  0  0  0  0
  146.3773  142.8848  155.9482 H   0  0  0  0  0  0  0  0  0  0  0  0
  146.7843  141.2381  156.3424 H   0  0  0  0  0  0  0  0  0  0  0  0
  147.8012  142.8552  153.9647 H   0  0  0  0  0  0  0  0  0  0  0  0
  149.3188  143.3407  155.6573 H   0  0  0  0  0  0  0  0  0  0  0  0
  150.8484  143.0738  156.8493 H   0  0  0  0  0  0  0  0  0  0  0  0
  152.0070  139.7600  156.6271 H   0  0  0  0  0  0  0  0  0  0  0  0
  155.5164  139.7870  162.3207 H   0  0  0  0  0  0  0  0  0  0  0  0
  153.8653  140.3826  162.2956 H   0  0  0  0  0  0  0  0  0  0  0  0
  155.1566  141.3152  161.5412 H   0  0  0  0  0  0  0  0  0  0  0  0
  156.2369  140.4937  159.3604 H   0  0  0  0  0  0  0  0  0  0  0  0
  155.7953  138.9276  158.6908 H   0  0  0  0  0  0  0  0  0  0  0  0
  156.6516  139.0152  160.2209 H   0  0  0  0  0  0  0  0  0  0  0  0
  154.7697  137.6269  161.3767 H   0  0  0  0  0  0  0  0  0  0  0  0
  153.9208  137.5170  159.8461 H   0  0  0  0  0  0  0  0  0  0  0  0
  153.0992  138.1675  161.2592 H   0  0  0  0  0  0  0  0  0  0  0  0
  151.7369  143.0132  159.4782 H   0  0  0  0  0  0  0  0  0  0  0  0
  149.1011  140.9107  153.2792 H   0  0  0  0  0  0  0  0  0  0  0  0
  148.5083  139.9607  154.6173 H   0  0  0  0  0  0  0  0  0  0  0  0
  146.7960  141.1510  152.3933 H   0  0  0  0  0  0  0  0  0  0  0  0
  148.0758  139.3790  151.4277 H   0  0  0  0  0  0  0  0  0  0  0  0
  146.4349  138.7870  151.6415 H   0  0  0  0  0  0  0  0  0  0  0  0
  147.7230  138.2740  152.7379 H   0  0  0  0  0  0  0  0  0  0  0  0
  145.0447  139.9971  153.2716 H   0  0  0  0  0  0  0  0  0  0  0  0
  1  2  1  0  0  0  0
  1 24  1  0  0  0  0
  1 25  1  0  0  0  0
  1 26  1  0  0  0  0
  2  3  1  0  0  0  0
  2 27  1  0  0  0  0
  2 28  1  0  0  0  0
  3 22  1  0  0  0  0
  3  4  1  0  0  0  0
  3 53  1  0  0  0  0
  4  5  1  0  0  0  0
  4 29  1  0  0  0  0
  4 30  1  0  0  0  0
  5  6  1  0  0  0  0
  5 31  1  0  0  0  0
  5 32  1  0  0  0  0
  6  7  1  0  0  0  0
  6 21  1  0  0  0  0
  6 33  1  0  0  0  0
  7  8  1  0  0  0  0
  7 34  1  0  0  0  0
  8  9  2  0  0  0  0
  8 10  1  0  0  0  0
 10 11  1  0  0  0  0
 10 35  1  0  0  0  0
 11 20  1  0  0  0  0
 11 12  2  0  0  0  0
 12 13  1  0  0  0  0
 12 36  1  0  0  0  0
 13 14  2  0  0  0  0
 14 15  1  0  0  0  0
 14 19  1  0  0  0  0
 15 16  1  0  0  0  0
 15 17  1  0  0  0  0
 15 18  1  0  0  0  0
 16 37  1  0  0  0  0
 16 38  1  0  0  0  0
 16 39  1  0  0  0  0
 17 40  1  0  0  0  0
 17 41  1  0  0  0  0
 17 42  1  0  0  0  0
 18 43  1  0  0  0  0
 18 44  1  0  0  0  0
 18 45  1  0  0  0  0
 19 20  2  0  0  0  0
 20 46  1  0  0  0  0
 21 22  1  0  0  0  0
 21 47  1  0  0  0  0
 21 48  1  0  0  0  0
 22 23  1  0  0  0  0
 22 49  1  0  0  0  0
 23 50  1  0  0  0  0
 23 51  1  0  0  0  0
 23 52  1  0  0  0  0
M  CHG  1   3   1
M  END
> <s_m_source_file>
AV-unprocessed.smi

> <i_m_source_file_index>
2710

> <i_lp_mmshare_version>
43012

> <i_f3d_flags>
0

> <s_epik_input>
W0NIM11bQ0gyXU4xW0NIMl1bQ0gyXVtDQEhdKFtDSDJdW0NASF0xW0NIM10pW05IXUMoPU8pW05IXWMyW2NIXW5jKEMoW0NIM10pKFtDSDNdKVtDSDNdKW5bY0hdMg==

> <s_epik_cmdline>
J2VwaWtfcHl0aG9uJywgJy1waCcsICc3LjAnLCAnLXRuJywgJzgnLCAnLW1hJywgJzIwMCcsICctbWV0YWxfYmluZGluZycsICctaW1hZScsICc8aW5maWxlLm1hZT4nLCAnLW9tYWUnLCAnPG91dGZpbGUubWFlPic=

> <r_lp_tautomer_probability>
1

> <r_epik_Ionization_Penalty>
0.00396003

> <r_epik_Ionization_Penalty_Charging>
0.0039379

> <r_epik_Ionization_Penalty_Neutral>
2.21316e-05

> <r_epik_State_Penalty>
0.00281651

> <r_epik_Charging_Adjusted_Penalty>
0.00675441

> <i_epik_Tot_Q>
1

> <i_epik_Tot_abs_Q>
1

> <r_epik_Metal_State_Penalty>
-0

> <b_epik_Metal_Only>
0

> <s_lp_Force_Field>
OPLS_2005

> <r_lp_Energy>
21.9784

> <b_lp_Chiralities_Consistent>
1

> <s_lp_Variant>
AV-unprocessed.smi:2710-2

> <Gold.Version>
5.8.1

> <Gold.Id.Protein>
6NUR|6NUR_protein|mol2

> <Gold.PLP.Fitness>
38.6423

> <Gold.PLP.PLP>
-30.1739

> <Gold.PLP.part.hbond>
-2.5217

> <Gold.PLP.part.metal>
0.0000

> <Gold.PLP.part.buried>
-0.8832

> <Gold.PLP.part.nonpolar>
-27.7640

> <Gold.PLP.part.repulsive>
0.2118

> <Gold.PLP.ligand.clash>
0.0000

> <Gold.PLP.ligand.torsion>
0.7315

> <Gold.PLP.Chemscore.Hbond>
3.2975

> <Gold.PLP.Chemscore.CHOScore>
0.0000

> <Gold.PLP.Chemscore.Metal>
0.0000

> <Gold.Chemscore.Hbonds>
donor molecule, donor type, donor heavy atom, donor atom, acceptor molecule, acceptor atom, score
      L1  H     3    53       P1 10175  2.00
      L1  H     7    34       P1  8028  0.74
      P1  H  7997  8008       L1    13  0.77

> <Gold.PLP.Chemscore.Internal.Correction>
0.0390

> <Gold.Rescore>
     Score         DG    S(hbond)    S(metal)    S(lipo)     H(rot)  DE(clash)    DE(int)     intcor
     14.61     -17.28       1.68        0.00      81.54       1.31       0.06       2.61       ----

> <Gold.Chemscore.Fitness>
14.6101

> <Gold.Chemscore.DG>
-17.2825

> <Gold.Chemscore.ZeroCoef>
-5.4800

> <Gold.Chemscore.Hbond>
1.6799

> <Gold.Chemscore.Metal>
0.0000

> <Gold.Chemscore.Lipo>
81.5418

> <Gold.Chemscore.Internal_Hbond>
0.0000

> <Gold.Chemscore.DEClash>
0.0647

> <Gold.Chemscore.DEInternal>
2.6077

> <Gold.Chemscore.Rot>
1.3081

> <Gold.Chemscore.Internal.Correction>
   9.000000E+99

> <Gold.Chemscore.Hbonds>
donor molecule, donor type, donor heavy atom, donor atom, acceptor molecule, acceptor atom, score
      L1  H     3    53       P1 10175  0.96
      L1  H     7    34       P1  8028  0.70
      P1  H  7997  8008       L1    13  0.05

> <Gold.Chemscore.Hbond.Weighted>
-5.6109

> <Gold.Chemscore.Metal.Weighted>
-0.0000

> <Gold.Chemscore.Lipo.Weighted>
-9.5404

> <Gold.Chemscore.Internal_Hbond.Weighted>
0.0000

> <Gold.Chemscore.DEClash.Weighted>
0.0647

> <Gold.Chemscore.DEInternal.Weighted>
2.6077

> <Gold.Chemscore.Rot.Weighted>
3.3488

> <Gold.Chemscore.Internal.Correction.Weighted>
   9.000000E+99

> <Gold.Protein.RotatedTorsions>
[ 6907 6896 6895 6894 ] final  -59.63 input  -60.11 | X-H torsion
[ 7974 7965 7964 7962 ] final  -27.49 input  175.53 | X-H torsion
[ 8008 7997 7996 7995 ] final -108.99 input   59.86 | X-H torsion
[ 10167 10162 10161 10158 ] final  -61.99 input  -65.29 | X-H torsion
[ 10718 10713 10712 10709 ] final   71.32 input   66.30 | X-H torsion
[ 10763 10752 10751 10750 ] final  131.39 input  -60.55 | X-H torsion
[ 11005 11000 10999 10996 ] final   20.96 input  -57.11 | X-H torsion

> <Gold.Protein.ActiveResidues>
 VAL166  LYS551  ARG553  GLY616  TRP617  ASP618  TYR619  PRO620  LYS621  CYS622 
 ASP623  PHE694  ASN695  SER759  ASP760  ASP761  ALA762  ILE779  LEU786  VAL792 
 PHE793  MET794  SER795  GLU796  ALA797  LYS798  CYS799  TRP800  GLU811  SER814 

> <Gold.Protein.RotatedAtoms>
  150.7916  134.6944  159.6514 H   0  0  0  0  0  0  0  0  0  0  0  0  # atno 6907 bound_to 6896
  152.4022  134.6263  160.0074 H   0  0  0  0  0  0  0  0  0  0  0  0  # atno 6908 bound_to 6896
  151.6531  133.3283  159.3192 H   0  0  0  0  0  0  0  0  0  0  0  0  # atno 6909 bound_to 6896
  146.1354  140.5159  142.8675 H   0  0  0  0  0  0  0  0  0  0  0  0  # atno 7974 bound_to 7965
  154.9526  140.0400  157.2151 H   0  0  0  0  0  0  0  0  0  0  0  0  # atno 8008 bound_to 7997
  154.7964  140.2844  155.5931 H   0  0  0  0  0  0  0  0  0  0  0  0  # atno 8009 bound_to 7997
  156.2956  140.2563  156.2823 H   0  0  0  0  0  0  0  0  0  0  0  0  # atno 8010 bound_to 7997
  140.5969  143.2353  151.6015 H   0  0  0  0  0  0  0  0  0  0  0  0  # atno 10167 bound_to 10162
  157.6445  130.9522  150.0772 H   0  0  0  0  0  0  0  0  0  0  0  0  # atno 10718 bound_to 10713
  153.7736  135.3178  155.3355 H   0  0  0  0  0  0  0  0  0  0  0  0  # atno 10763 bound_to 10752
  154.8187  135.4618  154.0720 H   0  0  0  0  0  0  0  0  0  0  0  0  # atno 10764 bound_to 10752
  153.1987  135.6919  153.8343 H   0  0  0  0  0  0  0  0  0  0  0  0  # atno 10765 bound_to 10752
  140.3968  134.1760  155.7663 H   0  0  0  0  0  0  0  0  0  0  0  0  # atno 11005 bound_to 11000
  144.7734  140.5687  143.6654 LP  0  0  0  0  0  0  0  0  0  0  0  0  # atno 17320 bound_to 7965
  145.5168  139.1477  143.3574 LP  0  0  0  0  0  0  0  0  0  0  0  0  # atno 17321 bound_to 7965
  139.5264  144.3045  152.1045 LP  0  0  0  0  0  0  0  0  0  0  0  0  # atno 17342 bound_to 10162
  140.2219  144.4457  150.6338 LP  0  0  0  0  0  0  0  0  0  0  0  0  # atno 17343 bound_to 10162
  156.1759  130.3648  149.9101 LP  0  0  0  0  0  0  0  0  0  0  0  0  # atno 17370 bound_to 10713
  156.7065  130.8953  151.3605 LP  0  0  0  0  0  0  0  0  0  0  0  0  # atno 17371 bound_to 10713
  141.1871  133.8288  157.1044 LP  0  0  0  0  0  0  0  0  0  0  0  0  # atno 17394 bound_to 11000
  140.0365  134.9875  157.0881 LP  0  0  0  0  0  0  0  0  0  0  0  0  # atno 17395 bound_to 11000

$$$$
