AV-unprocessed.smi:2383|AV-procd|sdf|9461|dock3
  -GOLD-   2272013 93D 1   1.00000     0.00000
 Structure written by MMmdl.
 37 38  0  0  0  0  0  0  0  0  1 V2000
  153.5968  141.0071  160.1633 C   0  0  0  0  0  0  0  0  0  0  0  0
  152.8673  142.2048  159.5918 C   0  0  0  0  0  0  0  0  0  0  0  0
  153.0769  143.4971  160.1120 C   0  0  0  0  0  0  0  0  0  0  0  0
  152.3689  144.5664  159.5349 C   0  0  0  0  0  0  0  0  0  0  0  0
  151.4876  144.3015  158.4689 C   0  0  0  0  0  0  0  0  0  0  0  0
  151.3365  142.9756  158.0044 C   0  0  0  0  0  0  0  0  0  0  0  0
  150.4279  142.8156  156.9242 N   0  0  0  0  0  0  0  0  0  0  0  0
  150.2252  141.7265  156.1616 C   0  0  0  0  0  0  0  0  0  0  0  0
  150.8075  140.6490  156.2888 O   0  0  0  0  0  0  0  0  0  0  0  0
  149.2965  141.9589  155.2221 N   0  0  0  0  0  0  0  0  0  0  0  0
  148.8529  140.9978  154.2161 C   0  0  2  0  0  0  0  0  0  0  0  0
  147.5964  141.5178  153.4887 C   0  0  0  0  0  0  0  0  0  0  0  0
  147.0653  140.4924  152.4717 C   0  0  0  0  0  0  0  0  0  0  0  0
  146.8096  139.1138  153.1094 C   0  0  2  0  0  0  0  0  0  0  0  0
  145.6943  139.1789  153.9767 O   0  0  0  0  0  0  0  0  0  0  0  0
  148.0469  138.6069  153.8744 C   0  0  0  0  0  0  0  0  0  0  0  0
  148.5709  139.6408  154.8867 C   0  0  0  0  0  0  0  0  0  0  0  0
  152.0234  141.9509  158.5686 N   0  0  0  0  0  0  0  0  0  0  0  0
  154.1273  141.2680  161.0795 H   0  0  0  0  0  0  0  0  0  0  0  0
  154.3230  140.6293  159.4432 H   0  0  0  0  0  0  0  0  0  0  0  0
  152.8935  140.2066  160.3957 H   0  0  0  0  0  0  0  0  0  0  0  0
  153.7611  143.6674  160.9303 H   0  0  0  0  0  0  0  0  0  0  0  0
  152.4991  145.5734  159.9026 H   0  0  0  0  0  0  0  0  0  0  0  0
  150.9365  145.1120  158.0141 H   0  0  0  0  0  0  0  0  0  0  0  0
  149.8757  143.6295  156.6986 H   0  0  0  0  0  0  0  0  0  0  0  0
  148.8701  142.8731  155.1922 H   0  0  0  0  0  0  0  0  0  0  0  0
  149.6503  140.8537  153.4843 H   0  0  0  0  0  0  0  0  0  0  0  0
  146.8162  141.7463  154.2161 H   0  0  0  0  0  0  0  0  0  0  0  0
  147.8196  142.4540  152.9756 H   0  0  0  0  0  0  0  0  0  0  0  0
  146.1552  140.8668  152.0022 H   0  0  0  0  0  0  0  0  0  0  0  0
  147.7964  140.3817  151.6700 H   0  0  0  0  0  0  0  0  0  0  0  0
  146.5588  138.3999  152.3242 H   0  0  0  0  0  0  0  0  0  0  0  0
  144.9680  139.5567  153.5047 H   0  0  0  0  0  0  0  0  0  0  0  0
  147.8211  137.6672  154.3800 H   0  0  0  0  0  0  0  0  0  0  0  0
  148.8386  138.3827  153.1583 H   0  0  0  0  0  0  0  0  0  0  0  0
  149.4792  139.2617  155.3568 H   0  0  0  0  0  0  0  0  0  0  0  0
  147.8409  139.7679  155.6874 H   0  0  0  0  0  0  0  0  0  0  0  0
  1  2  1  0  0  0  0
  1 19  1  0  0  0  0
  1 20  1  0  0  0  0
  1 21  1  0  0  0  0
  2 18  1  0  0  0  0
  2  3  2  0  0  0  0
  3  4  1  0  0  0  0
  3 22  1  0  0  0  0
  4  5  2  0  0  0  0
  4 23  1  0  0  0  0
  5  6  1  0  0  0  0
  5 24  1  0  0  0  0
  6  7  1  0  0  0  0
  6 18  2  0  0  0  0
  7  8  1  0  0  0  0
  7 25  1  0  0  0  0
  8  9  2  0  0  0  0
  8 10  1  0  0  0  0
 10 11  1  0  0  0  0
 10 26  1  0  0  0  0
 11 17  1  0  0  0  0
 11 12  1  0  0  0  0
 11 27  1  0  0  0  0
 12 13  1  0  0  0  0
 12 28  1  0  0  0  0
 12 29  1  0  0  0  0
 13 14  1  0  0  0  0
 13 30  1  0  0  0  0
 13 31  1  0  0  0  0
 14 15  1  0  0  0  0
 14 16  1  0  0  0  0
 14 32  1  0  0  0  0
 15 33  1  0  0  0  0
 16 17  1  0  0  0  0
 16 34  1  0  0  0  0
 16 35  1  0  0  0  0
 17 36  1  0  0  0  0
 17 37  1  0  0  0  0
M  END
> <s_m_source_file>
AV-unprocessed.smi

> <i_m_source_file_index>
2383

> <i_lp_mmshare_version>
43012

> <i_f3d_flags>
0

> <s_epik_input>
W0NIM11jMVtjSF1bY0hdW2NIXWMobjEpW05IXUMoPU8pW05IXVtDQEBIXTJbQ0gyXVtDSDJdW0NAQEhdKFtPSF0pW0NIMl1bQ0gyXTI=

> <s_epik_cmdline>
J2VwaWtfcHl0aG9uJywgJy1waCcsICc3LjAnLCAnLXRuJywgJzgnLCAnLW1hJywgJzIwMCcsICctbWV0YWxfYmluZGluZycsICctaW1hZScsICc8aW5maWxlLm1hZT4nLCAnLW9tYWUnLCAnPG91dGZpbGUubWFlPic=

> <r_lp_tautomer_probability>
1

> <r_epik_Ionization_Penalty>
9.15533e-05

> <r_epik_Ionization_Penalty_Charging>
0

> <r_epik_Ionization_Penalty_Neutral>
9.15533e-05

> <r_epik_State_Penalty>
-0

> <r_epik_Charging_Adjusted_Penalty>
0

> <i_epik_Tot_Q>
0

> <i_epik_Tot_abs_Q>
0

> <r_epik_Metal_State_Penalty>
-0

> <b_epik_Metal_Only>
0

> <s_lp_Force_Field>
OPLS_2005

> <r_lp_Energy>
13.5371

> <b_lp_Chiralities_Consistent>
1

> <s_lp_Variant>
AV-unprocessed.smi:2383-2

> <Gold.Version>
5.8.1

> <Gold.Id.Protein>
6NUR|6NUR_protein|mol2

> <Gold.PLP.Fitness>
46.9586

> <Gold.PLP.PLP>
-38.2648

> <Gold.PLP.part.hbond>
-3.0000

> <Gold.PLP.part.metal>
0.0000

> <Gold.PLP.part.buried>
-3.7114

> <Gold.PLP.part.nonpolar>
-31.9859

> <Gold.PLP.part.repulsive>
0.2312

> <Gold.PLP.ligand.clash>
0.0000

> <Gold.PLP.ligand.torsion>
0.1545

> <Gold.PLP.Chemscore.Hbond>
3.0000

> <Gold.PLP.Chemscore.CHOScore>
0.0000

> <Gold.PLP.Chemscore.Metal>
0.0000

> <Gold.Chemscore.Hbonds>
donor molecule, donor type, donor heavy atom, donor atom, acceptor molecule, acceptor atom, score
      L1  H     7    25       P1  8028  1.00
      L1  H    10    26       P1  8028  1.00
      L1  H    15    33       P1 10175  1.00

> <Gold.PLP.Chemscore.Internal.Correction>
0.0028

> <Gold.Rescore>
     Score         DG    S(hbond)    S(metal)    S(lipo)     H(rot)  DE(clash)    DE(int)     intcor
     20.12     -23.09       2.97        0.00      97.31       1.44       0.21       2.76       ----

> <Gold.Chemscore.Fitness>
20.1201

> <Gold.Chemscore.DG>
-23.0890

> <Gold.Chemscore.ZeroCoef>
-5.4800

> <Gold.Chemscore.Hbond>
2.9673

> <Gold.Chemscore.Metal>
0.0000

> <Gold.Chemscore.Lipo>
97.3084

> <Gold.Chemscore.Internal_Hbond>
0.0000

> <Gold.Chemscore.DEClash>
0.2082

> <Gold.Chemscore.DEInternal>
2.7608

> <Gold.Chemscore.Rot>
1.4402

> <Gold.Chemscore.Internal.Correction>
   9.000000E+99

> <Gold.Chemscore.Hbonds>
donor molecule, donor type, donor heavy atom, donor atom, acceptor molecule, acceptor atom, score
      L1  H     7    25       P1  8028  0.99
      L1  H    10    26       P1  8028  0.95
      L1  H    15    33       P1 10175  1.00

> <Gold.Chemscore.Hbond.Weighted>
-9.9108

> <Gold.Chemscore.Metal.Weighted>
-0.0000

> <Gold.Chemscore.Lipo.Weighted>
-11.3851

> <Gold.Chemscore.Internal_Hbond.Weighted>
0.0000

> <Gold.Chemscore.DEClash.Weighted>
0.2082

> <Gold.Chemscore.DEInternal.Weighted>
2.7608

> <Gold.Chemscore.Rot.Weighted>
3.6869

> <Gold.Chemscore.Internal.Correction.Weighted>
   9.000000E+99

> <Gold.Protein.RotatedTorsions>
[ 6907 6896 6895 6894 ] final  117.87 input  -60.11 | X-H torsion
[ 7974 7965 7964 7962 ] final -158.06 input  175.53 | X-H torsion
[ 8008 7997 7996 7995 ] final  -26.42 input   59.86 | X-H torsion
[ 10167 10162 10161 10158 ] final   11.14 input  -65.29 | X-H torsion
[ 10718 10713 10712 10709 ] final  117.17 input   66.30 | X-H torsion
[ 10763 10752 10751 10750 ] final  -74.15 input  -60.55 | X-H torsion
[ 11005 11000 10999 10996 ] final  150.83 input  -57.11 | X-H torsion

> <Gold.Protein.ActiveResidues>
 VAL166  LYS551  ARG553  GLY616  TRP617  ASP618  TYR619  PRO620  LYS621  CYS622 
 ASP623  PHE694  ASN695  SER759  ASP760  ASP761  ALA762  ILE779  LEU786  VAL792 
 PHE793  MET794  SER795  GLU796  ALA797  LYS798  CYS799  TRP800  GLU811  SER814 

> <Gold.Protein.RotatedAtoms>
  152.4583  133.7768  159.6828 H   0  0  0  0  0  0  0  0  0  0  0  0  # atno 6907 bound_to 6896
  150.8517  133.7767  159.3029 H   0  0  0  0  0  0  0  0  0  0  0  0  # atno 6908 bound_to 6896
  151.5361  135.1071  159.9966 H   0  0  0  0  0  0  0  0  0  0  0  0  # atno 6909 bound_to 6896
  144.7521  140.3881  143.6040 H   0  0  0  0  0  0  0  0  0  0  0  0  # atno 7974 bound_to 7965
  154.4426  140.1900  156.0772 H   0  0  0  0  0  0  0  0  0  0  0  0  # atno 8008 bound_to 7997
  156.0466  140.3313  155.7277 H   0  0  0  0  0  0  0  0  0  0  0  0  # atno 8009 bound_to 7997
  155.5620  140.0604  157.2817 H   0  0  0  0  0  0  0  0  0  0  0  0  # atno 8010 bound_to 7997
  140.6150  143.8326  150.7109 H   0  0  0  0  0  0  0  0  0  0  0  0  # atno 10167 bound_to 10162
  157.6114  131.1034  150.7577 H   0  0  0  0  0  0  0  0  0  0  0  0  # atno 10718 bound_to 10713
  154.4692  135.5874  153.6309 H   0  0  0  0  0  0  0  0  0  0  0  0  # atno 10763 bound_to 10752
  152.9832  135.6062  154.3388 H   0  0  0  0  0  0  0  0  0  0  0  0  # atno 10764 bound_to 10752
  154.3268  135.2843  155.2471 H   0  0  0  0  0  0  0  0  0  0  0  0  # atno 10765 bound_to 10752
  140.1165  134.8891  157.2011 H   0  0  0  0  0  0  0  0  0  0  0  0  # atno 11005 bound_to 11000
  145.6906  139.1638  143.2649 LP  0  0  0  0  0  0  0  0  0  0  0  0  # atno 17320 bound_to 7965
  146.1486  140.6957  142.9333 LP  0  0  0  0  0  0  0  0  0  0  0  0  # atno 17321 bound_to 7965
  140.1903  143.4041  152.1868 LP  0  0  0  0  0  0  0  0  0  0  0  0  # atno 17342 bound_to 10162
  139.5392  144.7239  151.4791 LP  0  0  0  0  0  0  0  0  0  0  0  0  # atno 17343 bound_to 10162
  156.7953  130.4903  149.5378 LP  0  0  0  0  0  0  0  0  0  0  0  0  # atno 17370 bound_to 10713
  156.1218  130.6115  151.0205 LP  0  0  0  0  0  0  0  0  0  0  0  0  # atno 17371 bound_to 10713
  140.3021  134.3119  155.7287 LP  0  0  0  0  0  0  0  0  0  0  0  0  # atno 17394 bound_to 11000
  141.2142  133.7598  156.9656 LP  0  0  0  0  0  0  0  0  0  0  0  0  # atno 17395 bound_to 11000

$$$$
