AV-unprocessed.smi:1809|AV-procd|sdf|7326|dock2
  -GOLD-   22720 8583D 1   1.00000     0.00000
 Structure written by MMmdl.
 39 41  0  0  0  0  0  0  0  0  3 V2000
  148.6011  140.6005  154.6741 C   0  0  0  0  0  0  0  0  0  0  0  0
  149.5679  139.4664  154.6581 C   0  0  0  0  0  0  0  0  0  0  0  0
  150.8843  139.6414  154.5210 N   0  0  0  0  0  0  0  0  0  0  0  0
  151.5755  138.4385  154.5327 N   0  0  0  0  0  0  0  0  0  0  0  0
  150.7744  137.3725  154.6691 C   0  0  0  0  0  0  0  0  0  0  0  0
  151.2502  136.1168  154.7085 N   0  5  0  0  0  0  0  0  0  0  0  0
  150.4802  135.1153  155.1891 C   0  0  0  0  0  0  0  0  0  0  0  0
  150.6742  134.4757  156.2256 O   0  0  0  0  0  0  0  0  0  0  0  0
  149.4220  134.8312  154.4169 N   0  0  0  0  0  0  0  0  0  0  0  0
  148.4389  133.7844  154.6726 C   0  0  0  0  0  0  0  0  0  0  0  0
  147.2344  133.8993  153.7230 C   0  0  1  0  0  0  0  0  0  0  0  0
  146.1314  132.8800  154.0646 C   0  0  0  0  0  0  0  0  0  0  0  0
  144.9217  133.0779  153.2322 N   0  3  2  0  0  0  0  0  0  0  0  0
  144.9616  132.5098  151.8664 C   0  0  0  0  0  0  0  0  0  0  0  0
  144.1005  133.4323  150.9890 C   0  0  0  0  0  0  0  0  0  0  0  0
  143.5010  134.4645  151.9491 C   0  0  0  0  0  0  0  0  0  0  0  0
  144.4730  134.4824  153.1296 C   0  0  2  0  0  0  0  0  0  0  0  0
  145.6625  135.4409  152.8922 C   0  0  0  0  0  0  0  0  0  0  0  0
  146.6831  135.2052  153.8506 O   0  0  0  0  0  0  0  0  0  0  0  0
  149.0672  137.7911  154.8161 S   0  0  0  0  0  0  0  0  0  0  0  0
  148.3632  140.9005  153.6536 H   0  0  0  0  0  0  0  0  0  0  0  0
  149.0277  141.4542  155.2013 H   0  0  0  0  0  0  0  0  0  0  0  0
  147.6803  140.3052  155.1773 H   0  0  0  0  0  0  0  0  0  0  0  0
  149.2991  135.3805  153.5789 H   0  0  0  0  0  0  0  0  0  0  0  0
  148.9117  132.8060  154.5723 H   0  0  0  0  0  0  0  0  0  0  0  0
  148.1112  133.8637  155.7094 H   0  0  0  0  0  0  0  0  0  0  0  0
  147.5735  133.7408  152.6980 H   0  0  0  0  0  0  0  0  0  0  0  0
  146.4940  131.8572  153.9546 H   0  0  0  0  0  0  0  0  0  0  0  0
  145.8409  132.9988  155.1093 H   0  0  0  0  0  0  0  0  0  0  0  0
  145.9816  132.4716  151.4817 H   0  0  0  0  0  0  0  0  0  0  0  0
  144.5761  131.4899  151.8829 H   0  0  0  0  0  0  0  0  0  0  0  0
  144.7302  133.9310  150.2510 H   0  0  0  0  0  0  0  0  0  0  0  0
  143.3290  132.8861  150.4453 H   0  0  0  0  0  0  0  0  0  0  0  0
  143.3633  135.4438  151.4893 H   0  0  0  0  0  0  0  0  0  0  0  0
  142.5233  134.1195  152.2886 H   0  0  0  0  0  0  0  0  0  0  0  0
  143.9647  134.7663  154.0520 H   0  0  0  0  0  0  0  0  0  0  0  0
  146.0737  135.3314  151.8874 H   0  0  0  0  0  0  0  0  0  0  0  0
  145.3299  136.4753  152.9794 H   0  0  0  0  0  0  0  0  0  0  0  0
  144.1708  132.5845  153.6938 H   0  0  0  0  0  0  0  0  0  0  0  0
  1  2  1  0  0  0  0
  1 21  1  0  0  0  0
  1 22  1  0  0  0  0
  1 23  1  0  0  0  0
  2 20  1  0  0  0  0
  2  3  2  0  0  0  0
  3  4  1  0  0  0  0
  4  5  2  0  0  0  0
  5  6  1  0  0  0  0
  5 20  1  0  0  0  0
  6  7  1  0  0  0  0
  7  8  2  0  0  0  0
  7  9  1  0  0  0  0
  9 10  1  0  0  0  0
  9 24  1  0  0  0  0
 10 11  1  0  0  0  0
 10 25  1  0  0  0  0
 10 26  1  0  0  0  0
 11 19  1  0  0  0  0
 11 12  1  0  0  0  0
 11 27  1  0  0  0  0
 12 13  1  0  0  0  0
 12 28  1  0  0  0  0
 12 29  1  0  0  0  0
 13 17  1  0  0  0  0
 13 14  1  0  0  0  0
 13 39  1  0  0  0  0
 14 15  1  0  0  0  0
 14 30  1  0  0  0  0
 14 31  1  0  0  0  0
 15 16  1  0  0  0  0
 15 32  1  0  0  0  0
 15 33  1  0  0  0  0
 16 17  1  0  0  0  0
 16 34  1  0  0  0  0
 16 35  1  0  0  0  0
 17 18  1  0  0  0  0
 17 36  1  0  0  0  0
 18 19  1  0  0  0  0
 18 37  1  0  0  0  0
 18 38  1  0  0  0  0
M  CHG  1   6  -1
M  CHG  1  13   1
M  END
> <s_m_source_file>
AV-unprocessed.smi

> <i_m_source_file_index>
1809

> <i_lp_mmshare_version>
43012

> <i_f3d_flags>
0

> <s_epik_input>
W0NIM11jMW5uYyhzMSlbTkhdQyg9TylbTkhdW0NIMl1bQ0BIXShbQ0gyXTIpT1tDSDJdW0NAQEhdKE4yMylbQ0gyXVtDSDJdW0NIMl0z

> <s_epik_cmdline>
J2VwaWtfcHl0aG9uJywgJy1waCcsICc3LjAnLCAnLXRuJywgJzgnLCAnLW1hJywgJzIwMCcsICctbWV0YWxfYmluZGluZycsICctaW1hZScsICc8aW5maWxlLm1hZT4nLCAnLW9tYWUnLCAnPG91dGZpbGUubWFlPic=

> <r_lp_tautomer_probability>
1

> <r_epik_Ionization_Penalty>
3.2601

> <r_epik_Ionization_Penalty_Charging>
3.1406

> <r_epik_Ionization_Penalty_Neutral>
0.119497

> <r_epik_State_Penalty>
3.08894

> <r_epik_Charging_Adjusted_Penalty>
6.22954

> <i_epik_Tot_Q>
0

> <i_epik_Tot_abs_Q>
2

> <r_epik_Metal_State_Penalty>
0.510807

> <b_epik_Metal_Only>
1

> <s_lp_Force_Field>
OPLS_2005

> <r_lp_Energy>
28.762

> <b_lp_Chiralities_Consistent>
1

> <s_lp_Variant>
AV-unprocessed.smi:1809-18

> <Gold.Version>
5.8.1

> <Gold.Id.Protein>
6NUR|6NUR_protein|mol2

> <Gold.PLP.Fitness>
43.9053

> <Gold.PLP.PLP>
-27.4447

> <Gold.PLP.part.hbond>
-3.9633

> <Gold.PLP.part.metal>
0.0000

> <Gold.PLP.part.buried>
-5.8297

> <Gold.PLP.part.nonpolar>
-19.3716

> <Gold.PLP.part.repulsive>
0.5762

> <Gold.PLP.ligand.clash>
0.0000

> <Gold.PLP.ligand.torsion>
0.7621

> <Gold.PLP.Chemscore.Hbond>
5.9825

> <Gold.PLP.Chemscore.CHOScore>
0.0000

> <Gold.PLP.Chemscore.Metal>
0.0000

> <Gold.Chemscore.Hbonds>
donor molecule, donor type, donor heavy atom, donor atom, acceptor molecule, acceptor atom, score
      L1  H     9    24       P1  7948  1.00
      L1  H    13    39       P1 10957  2.00
      P1  H  7989  7998       L1     3  1.00
      P1  H 10752 10764       L1     6  2.00

> <Gold.PLP.Chemscore.Internal.Correction>
0.0373

> <Gold.Rescore>
     Score         DG    S(hbond)    S(metal)    S(lipo)     H(rot)  DE(clash)    DE(int)     intcor
     18.81     -19.56       3.60        0.00      46.47       1.32       0.00       0.74       ----

> <Gold.Chemscore.Fitness>
18.8135

> <Gold.Chemscore.DG>
-19.5570

> <Gold.Chemscore.ZeroCoef>
-5.4800

> <Gold.Chemscore.Hbond>
3.6022

> <Gold.Chemscore.Metal>
0.0000

> <Gold.Chemscore.Lipo>
46.4656

> <Gold.Chemscore.Internal_Hbond>
0.0000

> <Gold.Chemscore.DEClash>
0.0029

> <Gold.Chemscore.DEInternal>
0.7405

> <Gold.Chemscore.Rot>
1.3246

> <Gold.Chemscore.Internal.Correction>
   9.000000E+99

> <Gold.Chemscore.Hbonds>
donor molecule, donor type, donor heavy atom, donor atom, acceptor molecule, acceptor atom, score
      L1  H     9    24       P1  7948  0.30
      L1  H    13    39       P1 10957  0.47
      P1  H  7989  7998       L1     3  0.85
      P1  H 10752 10764       L1     6  0.90

> <Gold.Chemscore.Hbond.Weighted>
-12.0315

> <Gold.Chemscore.Metal.Weighted>
-0.0000

> <Gold.Chemscore.Lipo.Weighted>
-5.4365

> <Gold.Chemscore.Internal_Hbond.Weighted>
0.0000

> <Gold.Chemscore.DEClash.Weighted>
0.0029

> <Gold.Chemscore.DEInternal.Weighted>
0.7405

> <Gold.Chemscore.Rot.Weighted>
3.3910

> <Gold.Chemscore.Internal.Correction.Weighted>
   9.000000E+99

> <Gold.Protein.RotatedTorsions>
[ 6907 6896 6895 6894 ] final    9.36 input  -60.11 | X-H torsion
[ 7974 7965 7964 7962 ] final  -26.98 input  175.53 | X-H torsion
[ 8008 7997 7996 7995 ] final  -86.26 input   59.86 | X-H torsion
[ 10167 10162 10161 10158 ] final  145.36 input  -65.29 | X-H torsion
[ 10718 10713 10712 10709 ] final -149.35 input   66.30 | X-H torsion
[ 10763 10752 10751 10750 ] final  -79.38 input  -60.55 | X-H torsion
[ 11005 11000 10999 10996 ] final   -2.01 input  -57.11 | X-H torsion

> <Gold.Protein.ActiveResidues>
 VAL166  LYS551  ARG553  GLY616  TRP617  ASP618  TYR619  PRO620  LYS621  CYS622 
 ASP623  PHE694  ASN695  SER759  ASP760  ASP761  ALA762  ILE779  LEU786  VAL792 
 PHE793  MET794  SER795  GLU796  ALA797  LYS798  CYS799  TRP800  GLU811  SER814 

> <Gold.Protein.RotatedAtoms>
  151.7209  135.0894  160.0283 H   0  0  0  0  0  0  0  0  0  0  0  0  # atno 6907 bound_to 6896
  152.3602  133.6283  159.6018 H   0  0  0  0  0  0  0  0  0  0  0  0  # atno 6908 bound_to 6896
  150.7599  133.9352  159.3480 H   0  0  0  0  0  0  0  0  0  0  0  0  # atno 6909 bound_to 6896
  146.1389  140.5091  142.8661 H   0  0  0  0  0  0  0  0  0  0  0  0  # atno 7974 bound_to 7965
  154.6499  140.0581  156.9943 H   0  0  0  0  0  0  0  0  0  0  0  0  # atno 8008 bound_to 7997
  155.1388  140.3263  155.4438 H   0  0  0  0  0  0  0  0  0  0  0  0  # atno 8009 bound_to 7997
  156.2571  140.1968  156.6504 H   0  0  0  0  0  0  0  0  0  0  0  0  # atno 8010 bound_to 7997
  139.4928  144.5907  151.6686 H   0  0  0  0  0  0  0  0  0  0  0  0  # atno 10167 bound_to 10162
  156.4320  130.8080  151.2307 H   0  0  0  0  0  0  0  0  0  0  0  0  # atno 10718 bound_to 10713
  154.5379  135.5697  153.6814 H   0  0  0  0  0  0  0  0  0  0  0  0  # atno 10763 bound_to 10752
  152.9956  135.6220  154.2541 H   0  0  0  0  0  0  0  0  0  0  0  0  # atno 10764 bound_to 10752
  154.2471  135.2860  155.2811 H   0  0  0  0  0  0  0  0  0  0  0  0  # atno 10765 bound_to 10752
  140.6537  133.9382  155.8395 H   0  0  0  0  0  0  0  0  0  0  0  0  # atno 11005 bound_to 11000
  144.7770  140.5761  143.6631 LP  0  0  0  0  0  0  0  0  0  0  0  0  # atno 17320 bound_to 7965
  145.5093  139.1480  143.3614 LP  0  0  0  0  0  0  0  0  0  0  0  0  # atno 17321 bound_to 7965
  140.5533  144.0389  150.6137 LP  0  0  0  0  0  0  0  0  0  0  0  0  # atno 17342 bound_to 10162
  140.3450  143.2997  152.0548 LP  0  0  0  0  0  0  0  0  0  0  0  0  # atno 17343 bound_to 10162
  157.7508  131.0195  150.3671 LP  0  0  0  0  0  0  0  0  0  0  0  0  # atno 17370 bound_to 10713
  156.4010  130.3916  149.6960 LP  0  0  0  0  0  0  0  0  0  0  0  0  # atno 17371 bound_to 10713
  141.0518  134.0474  157.3774 LP  0  0  0  0  0  0  0  0  0  0  0  0  # atno 17394 bound_to 11000
  139.9037  135.0173  156.7388 LP  0  0  0  0  0  0  0  0  0  0  0  0  # atno 17395 bound_to 11000

$$$$
