AV-unprocessed.smi:2822|AV-procd|sdf|10877|dock4
  -GOLD-   2272015323D 1   1.00000     0.00000
 Structure written by MMmdl.
 40 42  0  0  0  0  0  0  0  0  2 V2000
  148.3438  137.2489  154.7872 Cl  0  0  0  0  0  0  0  0  0  0  0  0
  147.9036  138.8891  154.4617 C   0  0  0  0  0  0  0  0  0  0  0  0
  146.8001  139.1527  153.6241 C   0  0  0  0  0  0  0  0  0  0  0  0
  146.4418  140.4269  153.3589 N   0  3  0  0  0  0  0  0  0  0  0  0
  147.1018  141.4898  153.8653 C   0  0  0  0  0  0  0  0  0  0  0  0
  148.2134  141.2908  154.7085 C   0  0  0  0  0  0  0  0  0  0  0  0
  148.6280  139.9714  155.0197 C   0  0  0  0  0  0  0  0  0  0  0  0
  149.7253  139.7074  155.8533 N   0  0  0  0  0  0  0  0  0  0  0  0
  150.0957  140.6243  156.9204 C   0  0  0  0  0  0  0  0  0  0  0  0
  151.5159  141.1834  156.7137 C   0  0  1  0  0  0  0  0  0  0  0  0
  151.6415  142.6628  157.1237 C   0  0  0  0  0  0  0  0  0  0  0  0
  151.5923  142.8543  158.5682 N   0  0  0  0  0  0  0  0  0  0  0  0
  151.7361  144.2681  158.9146 C   0  0  0  0  0  0  0  0  0  0  0  0
  151.6641  144.5147  160.4297 C   0  0  0  0  0  0  0  0  0  0  0  0
  152.7261  143.6779  161.1562 C   0  0  0  0  0  0  0  0  0  0  0  0
  152.5990  142.2016  160.7517 C   0  0  0  0  0  0  0  0  0  0  0  0
  152.6276  142.0444  159.2169 C   0  0  1  0  0  0  0  0  0  0  0  0
  152.4942  140.5592  158.8259 C   0  0  0  0  0  0  0  0  0  0  0  0
  152.4993  140.4132  157.4078 O   0  0  0  0  0  0  0  0  0  0  0  0
  146.1966  138.3859  153.1607 H   0  0  0  0  0  0  0  0  0  0  0  0
  146.7243  142.4617  153.5823 H   0  0  0  0  0  0  0  0  0  0  0  0
  148.7310  142.1532  155.1014 H   0  0  0  0  0  0  0  0  0  0  0  0
  150.1273  138.7802  155.8602 H   0  0  0  0  0  0  0  0  0  0  0  0
  149.3824  141.4493  156.9256 H   0  0  0  0  0  0  0  0  0  0  0  0
  150.0109  140.1276  157.8869 H   0  0  0  0  0  0  0  0  0  0  0  0
  151.7492  141.1139  155.6505 H   0  0  0  0  0  0  0  0  0  0  0  0
  152.5853  143.0529  156.7393 H   0  0  0  0  0  0  0  0  0  0  0  0
  150.8527  143.2439  156.6445 H   0  0  0  0  0  0  0  0  0  0  0  0
  152.6845  144.6484  158.5317 H   0  0  0  0  0  0  0  0  0  0  0  0
  150.9522  144.8463  158.4239 H   0  0  0  0  0  0  0  0  0  0  0  0
  151.8075  145.5737  160.6456 H   0  0  0  0  0  0  0  0  0  0  0  0
  150.6714  144.2520  160.7975 H   0  0  0  0  0  0  0  0  0  0  0  0
  153.7208  144.0435  160.8980 H   0  0  0  0  0  0  0  0  0  0  0  0
  152.6222  143.7869  162.2359 H   0  0  0  0  0  0  0  0  0  0  0  0
  153.4049  141.6243  161.2062 H   0  0  0  0  0  0  0  0  0  0  0  0
  151.6663  141.7970  161.1471 H   0  0  0  0  0  0  0  0  0  0  0  0
  153.6027  142.3877  158.8667 H   0  0  0  0  0  0  0  0  0  0  0  0
  153.3286  139.9869  159.2316 H   0  0  0  0  0  0  0  0  0  0  0  0
  151.5875  140.1233  159.2459 H   0  0  0  0  0  0  0  0  0  0  0  0
  145.6396  140.5928  152.7504 H   0  0  0  0  0  0  0  0  0  0  0  0
  1  2  1  0  0  0  0
  2  7  1  0  0  0  0
  2  3  2  0  0  0  0
  3  4  1  0  0  0  0
  3 20  1  0  0  0  0
  4  5  2  0  0  0  0
  4 40  1  0  0  0  0
  5  6  1  0  0  0  0
  5 21  1  0  0  0  0
  6  7  2  0  0  0  0
  6 22  1  0  0  0  0
  7  8  1  0  0  0  0
  8  9  1  0  0  0  0
  8 23  1  0  0  0  0
  9 10  1  0  0  0  0
  9 24  1  0  0  0  0
  9 25  1  0  0  0  0
 10 19  1  0  0  0  0
 10 11  1  0  0  0  0
 10 26  1  0  0  0  0
 11 12  1  0  0  0  0
 11 27  1  0  0  0  0
 11 28  1  0  0  0  0
 12 17  1  0  0  0  0
 12 13  1  0  0  0  0
 13 14  1  0  0  0  0
 13 29  1  0  0  0  0
 13 30  1  0  0  0  0
 14 15  1  0  0  0  0
 14 31  1  0  0  0  0
 14 32  1  0  0  0  0
 15 16  1  0  0  0  0
 15 33  1  0  0  0  0
 15 34  1  0  0  0  0
 16 17  1  0  0  0  0
 16 35  1  0  0  0  0
 16 36  1  0  0  0  0
 17 18  1  0  0  0  0
 17 37  1  0  0  0  0
 18 19  1  0  0  0  0
 18 38  1  0  0  0  0
 18 39  1  0  0  0  0
M  CHG  1   4   1
M  END
> <s_m_source_file>
AV-unprocessed.smi

> <i_m_source_file_index>
2822

> <i_lp_mmshare_version>
43012

> <i_f3d_flags>
0

> <s_epik_input>
Q2xjMVtjSF1uW2NIXVtjSF1jMVtOSF1bQ0gyXVtDQEhdKFtDSDJdMilPW0NIMl1bQ0BASF0oTjIzKVtDSDJdW0NIMl1bQ0gyXVtDSDJdMw==

> <s_epik_cmdline>
J2VwaWtfcHl0aG9uJywgJy1waCcsICc3LjAnLCAnLXRuJywgJzgnLCAnLW1hJywgJzIwMCcsICctbWV0YWxfYmluZGluZycsICctaW1hZScsICc8aW5maWxlLm1hZT4nLCAnLW9tYWUnLCAnPG91dGZpbGUubWFlPic=

> <r_epik_Ionization_Penalty>
1.37653

> <r_epik_Ionization_Penalty_Charging>
0.152973

> <r_epik_Ionization_Penalty_Neutral>
1.22356

> <r_epik_State_Penalty>
1.42693

> <r_epik_Charging_Adjusted_Penalty>
1.5799

> <i_epik_Tot_Q>
1

> <i_epik_Tot_abs_Q>
1

> <r_epik_Metal_State_Penalty>
4.59822

> <b_epik_Metal_Only>
0

> <s_lp_Force_Field>
OPLS_2005

> <r_lp_Energy>
45.6855

> <b_lp_Chiralities_Consistent>
1

> <s_lp_Variant>
AV-unprocessed.smi:2822-18

> <Gold.Version>
5.8.1

> <Gold.Id.Protein>
6NUR|6NUR_protein|mol2

> <Gold.PLP.Fitness>
39.9548

> <Gold.PLP.PLP>
-32.6262

> <Gold.PLP.part.hbond>
-2.0000

> <Gold.PLP.part.metal>
0.0000

> <Gold.PLP.part.buried>
-4.3360

> <Gold.PLP.part.nonpolar>
-24.9284

> <Gold.PLP.part.repulsive>
0.0793

> <Gold.PLP.ligand.clash>
0.0000

> <Gold.PLP.ligand.torsion>
0.6714

> <Gold.PLP.Chemscore.Hbond>
2.8888

> <Gold.PLP.Chemscore.CHOScore>
0.0000

> <Gold.PLP.Chemscore.Metal>
0.0000

> <Gold.Chemscore.Hbonds>
donor molecule, donor type, donor heavy atom, donor atom, acceptor molecule, acceptor atom, score
      L1  H     4    40       P1 10175  1.98
      P1  H  7997  8008       L1    19  0.90

> <Gold.PLP.Chemscore.Internal.Correction>
0.0051

> <Gold.Rescore>
     Score         DG    S(hbond)    S(metal)    S(lipo)     H(rot)  DE(clash)    DE(int)     intcor
     18.95     -20.91       1.63        0.00     111.13       1.18       1.28       0.67       ----

> <Gold.Chemscore.Fitness>
18.9516

> <Gold.Chemscore.DG>
-20.9086

> <Gold.Chemscore.ZeroCoef>
-5.4800

> <Gold.Chemscore.Hbond>
1.6298

> <Gold.Chemscore.Metal>
0.0000

> <Gold.Chemscore.Lipo>
111.1342

> <Gold.Chemscore.Internal_Hbond>
0.0000

> <Gold.Chemscore.DEClash>
1.2848

> <Gold.Chemscore.DEInternal>
0.6722

> <Gold.Chemscore.Rot>
1.1788

> <Gold.Chemscore.Internal.Correction>
   9.000000E+99

> <Gold.Chemscore.Hbonds>
donor molecule, donor type, donor heavy atom, donor atom, acceptor molecule, acceptor atom, score
      L1  H     4    40       P1 10175  0.55
      P1  H  7997  8008       L1    19  0.64

> <Gold.Chemscore.Hbond.Weighted>
-5.4435

> <Gold.Chemscore.Metal.Weighted>
-0.0000

> <Gold.Chemscore.Lipo.Weighted>
-13.0027

> <Gold.Chemscore.Internal_Hbond.Weighted>
0.0000

> <Gold.Chemscore.DEClash.Weighted>
1.2848

> <Gold.Chemscore.DEInternal.Weighted>
0.6722

> <Gold.Chemscore.Rot.Weighted>
3.0177

> <Gold.Chemscore.Internal.Correction.Weighted>
   9.000000E+99

> <Gold.Protein.RotatedTorsions>
[ 6907 6896 6895 6894 ] final   -0.59 input  -60.11 | X-H torsion
[ 7974 7965 7964 7962 ] final   20.32 input  175.53 | X-H torsion
[ 8008 7997 7996 7995 ] final  -64.12 input   59.86 | X-H torsion
[ 10167 10162 10161 10158 ] final   11.91 input  -65.29 | X-H torsion
[ 10718 10713 10712 10709 ] final -122.79 input   66.30 | X-H torsion
[ 10763 10752 10751 10750 ] final  -77.29 input  -60.55 | X-H torsion
[ 11005 11000 10999 10996 ] final  160.94 input  -57.11 | X-H torsion

> <Gold.Protein.ActiveResidues>
 VAL166  LYS551  ARG553  GLY616  TRP617  ASP618  TYR619  PRO620  LYS621  CYS622 
 ASP623  PHE694  ASN695  SER759  ASP760  ASP761  ALA762  ILE779  LEU786  VAL792 
 PHE793  MET794  SER795  GLU796  ALA797  LYS798  CYS799  TRP800  GLU811  SER814 

> <Gold.Protein.RotatedAtoms>
  151.5597  135.1066  159.9969 H   0  0  0  0  0  0  0  0  0  0  0  0  # atno 6907 bound_to 6896
  152.4452  133.7519  159.6709 H   0  0  0  0  0  0  0  0  0  0  0  0  # atno 6908 bound_to 6896
  150.8366  133.7935  159.3101 H   0  0  0  0  0  0  0  0  0  0  0  0  # atno 6909 bound_to 6896
  146.2116  139.8187  142.8684 H   0  0  0  0  0  0  0  0  0  0  0  0  # atno 7974 bound_to 7965
  154.4593  140.0960  156.6848 H   0  0  0  0  0  0  0  0  0  0  0  0  # atno 8008 bound_to 7997
  155.5042  140.3474  155.4358 H   0  0  0  0  0  0  0  0  0  0  0  0  # atno 8009 bound_to 7997
  156.0840  140.1380  156.9666 H   0  0  0  0  0  0  0  0  0  0  0  0  # atno 8010 bound_to 7997
  140.6102  143.8424  150.7057 H   0  0  0  0  0  0  0  0  0  0  0  0  # atno 10167 bound_to 10162
  156.1448  130.6492  150.9826 H   0  0  0  0  0  0  0  0  0  0  0  0  # atno 10718 bound_to 10713
  154.5110  135.5769  153.6604 H   0  0  0  0  0  0  0  0  0  0  0  0  # atno 10763 bound_to 10752
  152.9897  135.6158  154.2879 H   0  0  0  0  0  0  0  0  0  0  0  0  # atno 10764 bound_to 10752
  154.2794  135.2851  155.2683 H   0  0  0  0  0  0  0  0  0  0  0  0  # atno 10765 bound_to 10752
  140.2109  134.8268  157.3119 H   0  0  0  0  0  0  0  0  0  0  0  0  # atno 11005 bound_to 11000
  145.3119  141.0222  143.3549 LP  0  0  0  0  0  0  0  0  0  0  0  0  # atno 17320 bound_to 7965
  144.8929  139.4750  143.6669 LP  0  0  0  0  0  0  0  0  0  0  0  0  # atno 17321 bound_to 7965
  140.1991  143.3974  152.1805 LP  0  0  0  0  0  0  0  0  0  0  0  0  # atno 17342 bound_to 10162
  139.5355  144.7205  151.4908 LP  0  0  0  0  0  0  0  0  0  0  0  0  # atno 17343 bound_to 10162
  157.6607  131.0881  150.7845 LP  0  0  0  0  0  0  0  0  0  0  0  0  # atno 17370 bound_to 10713
  156.7917  130.4892  149.5384 LP  0  0  0  0  0  0  0  0  0  0  0  0  # atno 17371 bound_to 10713
  140.1952  134.4322  155.7693 LP  0  0  0  0  0  0  0  0  0  0  0  0  # atno 17394 bound_to 11000
  141.2226  133.7046  156.8093 LP  0  0  0  0  0  0  0  0  0  0  0  0  # atno 17395 bound_to 11000

$$$$
