AV-unprocessed.smi:35|AV-procd|sdf|271|dock2
  -GOLD-   2262016 43D 1   1.00000     0.00000
 Structure written by MMmdl.
 28 29  0  0  0  0  0  0  0  0  2 V2000
  151.7548  137.1753  159.7913 O   0  0  0  0  0  0  0  0  0  0  0  0
  151.2454  138.0727  159.1224 C   0  0  0  0  0  0  0  0  0  0  0  0
  151.8921  139.2389  158.8334 N   0  5  0  0  0  0  0  0  0  0  0  0
  151.3239  140.2304  158.0861 C   0  0  0  0  0  0  0  0  0  0  0  0
  151.9036  141.2803  157.8077 O   0  0  0  0  0  0  0  0  0  0  0  0
  150.0043  140.0486  157.5872 N   0  0  0  0  0  0  0  0  0  0  0  0
  149.3776  141.1576  156.7601 C   0  0  2  0  0  0  0  0  0  0  0  0
  148.0548  140.8263  156.4498 O   0  0  0  0  0  0  0  0  0  0  0  0
  147.9531  140.4479  155.0808 C   0  0  1  0  0  0  0  0  0  0  0  0
  146.5085  140.5857  154.5702 C   0  0  0  0  0  0  0  0  0  0  0  0
  146.4418  140.2416  153.2025 O   0  0  0  0  0  0  0  0  0  0  0  0
  148.9832  141.3573  154.4007 C   0  0  1  0  0  0  0  0  0  0  0  0
  148.4540  142.6514  154.1741 O   0  0  0  0  0  0  0  0  0  0  0  0
  150.1136  141.4141  155.4203 C   0  0  2  0  0  0  0  0  0  0  0  0
  151.0866  140.4352  155.0989 O   0  0  0  0  0  0  0  0  0  0  0  0
  149.3217  138.8764  157.8692 C   0  0  0  0  0  0  0  0  0  0  0  0
  149.8903  137.9008  158.6060 C   0  0  0  0  0  0  0  0  0  0  0  0
  148.7991  136.2783  158.9282 Br  0  0  0  0  0  0  0  0  0  0  0  0
  149.3540  142.0299  157.4152 H   0  0  0  0  0  0  0  0  0  0  0  0
  148.2917  139.4165  154.9678 H   0  0  0  0  0  0  0  0  0  0  0  0
  145.8209  139.9686  155.1496 H   0  0  0  0  0  0  0  0  0  0  0  0
  146.1754  141.6198  154.6625 H   0  0  0  0  0  0  0  0  0  0  0  0
  145.5427  140.3097  152.9198 H   0  0  0  0  0  0  0  0  0  0  0  0
  149.3040  140.9548  153.4387 H   0  0  0  0  0  0  0  0  0  0  0  0
  148.8747  143.2533  154.7687 H   0  0  0  0  0  0  0  0  0  0  0  0
  150.6023  142.3889  155.4503 H   0  0  0  0  0  0  0  0  0  0  0  0
  151.2310  139.9010  155.8658 H   0  0  0  0  0  0  0  0  0  0  0  0
  148.3183  138.7241  157.5032 H   0  0  0  0  0  0  0  0  0  0  0  0
  1  2  2  0  0  0  0
  2 17  1  0  0  0  0
  2  3  1  0  0  0  0
  3  4  1  0  0  0  0
  4  5  2  0  0  0  0
  4  6  1  0  0  0  0
  6  7  1  0  0  0  0
  6 16  1  0  0  0  0
  7 14  1  0  0  0  0
  7  8  1  0  0  0  0
  7 19  1  0  0  0  0
  8  9  1  0  0  0  0
  9 10  1  0  0  0  0
  9 12  1  0  0  0  0
  9 20  1  0  0  0  0
 10 11  1  0  0  0  0
 10 21  1  0  0  0  0
 10 22  1  0  0  0  0
 11 23  1  0  0  0  0
 12 13  1  0  0  0  0
 12 14  1  0  0  0  0
 12 24  1  0  0  0  0
 13 25  1  0  0  0  0
 14 15  1  0  0  0  0
 14 26  1  0  0  0  0
 15 27  1  0  0  0  0
 16 17  2  0  0  0  0
 16 28  1  0  0  0  0
 17 18  1  0  0  0  0
M  CHG  1   3  -1
M  END
> <s_m_source_file>
AV-unprocessed.smi

> <i_m_source_file_index>
35

> <i_lp_mmshare_version>
43012

> <i_f3d_flags>
0

> <s_epik_input>
Tz1jMVtuSF1jKD1PKW4oW2NIXWMxQnIpW0NAQEhdMk9bQ0BASF0oW0NIMl1bT0hdKVtDQEBIXShbT0hdKVtDQEhdMltPSF0=

> <s_epik_cmdline>
J2VwaWtfcHl0aG9uJywgJy1waCcsICc3LjAnLCAnLXRuJywgJzgnLCAnLW1hJywgJzIwMCcsICctbWV0YWxfYmluZGluZycsICctaW1hZScsICc8aW5maWxlLm1hZT4nLCAnLW9tYWUnLCAnPG91dGZpbGUubWFlPic=

> <r_epik_Ionization_Penalty>
1.06112

> <r_epik_Ionization_Penalty_Charging>
2.1796e-09

> <r_epik_Ionization_Penalty_Neutral>
1.06112

> <r_epik_State_Penalty>
1.11484

> <r_epik_Charging_Adjusted_Penalty>
1.11484

> <i_epik_Tot_Q>
-1

> <i_epik_Tot_abs_Q>
1

> <r_epik_Metal_State_Penalty>
0.0032876

> <b_epik_Metal_Only>
0

> <s_epik_Chemistry_Notes>
This compound contains an acetal/aminal-like group ( X-CH(R)-Y where X, Y are N, S, or O) that may be acid/base labile, releasing an aldehyde.

> <s_lp_Force_Field>
OPLS_2005

> <r_lp_Energy>
42.0802

> <b_lp_Chiralities_Consistent>
1

> <s_lp_Variant>
AV-unprocessed.smi:35-25

> <Gold.Version>
5.8.1

> <Gold.Id.Protein>
6NUR|6NUR_protein|mol2

> <Gold.PLP.Fitness>
37.1384

> <Gold.PLP.PLP>
-25.1663

> <Gold.PLP.part.hbond>
-5.6118

> <Gold.PLP.part.metal>
0.0000

> <Gold.PLP.part.buried>
-4.4925

> <Gold.PLP.part.nonpolar>
-14.4016

> <Gold.PLP.part.repulsive>
0.0484

> <Gold.PLP.ligand.clash>
0.0000

> <Gold.PLP.ligand.torsion>
0.0370

> <Gold.PLP.Chemscore.Hbond>
3.9929

> <Gold.PLP.Chemscore.CHOScore>
0.0000

> <Gold.PLP.Chemscore.Metal>
0.0000

> <Gold.Chemscore.Hbonds>
donor molecule, donor type, donor heavy atom, donor atom, acceptor molecule, acceptor atom, score
      L1  H    11    23       P1 10175  1.00
      L1  H    13    25       P1  8028  0.99
      P1  H  6896  6909       L1     1  1.00
      P1  H  7989  7998       L1    15  1.00

> <Gold.PLP.Chemscore.Internal.Correction>
0.0675

> <Gold.Rescore>
     Score         DG    S(hbond)    S(metal)    S(lipo)     H(rot)  DE(clash)    DE(int)     intcor
     10.82     -12.70       3.90        0.00      29.89       3.63       0.00       1.88       ----

> <Gold.Chemscore.Fitness>
10.8240

> <Gold.Chemscore.DG>
-12.7044

> <Gold.Chemscore.ZeroCoef>
-5.4800

> <Gold.Chemscore.Hbond>
3.8951

> <Gold.Chemscore.Metal>
0.0000

> <Gold.Chemscore.Lipo>
29.8936

> <Gold.Chemscore.Internal_Hbond>
0.0000

> <Gold.Chemscore.DEClash>
0.0000

> <Gold.Chemscore.DEInternal>
1.8804

> <Gold.Chemscore.Rot>
3.6261

> <Gold.Chemscore.Internal.Correction>
   9.000000E+99

> <Gold.Chemscore.Hbonds>
donor molecule, donor type, donor heavy atom, donor atom, acceptor molecule, acceptor atom, score
      L1  H    11    23       P1 10175  0.92
      L1  H    13    25       P1  8028  0.94
      P1  H  6896  6909       L1     1  0.94
      P1  H  7989  7998       L1    15  0.43

> <Gold.Chemscore.Hbond.Weighted>
-13.0096

> <Gold.Chemscore.Metal.Weighted>
-0.0000

> <Gold.Chemscore.Lipo.Weighted>
-3.4975

> <Gold.Chemscore.Internal_Hbond.Weighted>
0.0000

> <Gold.Chemscore.DEClash.Weighted>
0.0000

> <Gold.Chemscore.DEInternal.Weighted>
1.8804

> <Gold.Chemscore.Rot.Weighted>
9.2828

> <Gold.Chemscore.Internal.Correction.Weighted>
   9.000000E+99

> <Gold.Protein.RotatedTorsions>
[ 6907 6896 6895 6894 ] final  121.51 input  -60.11 | X-H torsion
[ 7974 7965 7964 7962 ] final -177.06 input  175.53 | X-H torsion
[ 8008 7997 7996 7995 ] final   68.22 input   59.86 | X-H torsion
[ 10167 10162 10161 10158 ] final    9.10 input  -65.29 | X-H torsion
[ 10718 10713 10712 10709 ] final -113.86 input   66.30 | X-H torsion
[ 10763 10752 10751 10750 ] final -158.96 input  -60.55 | X-H torsion
[ 11005 11000 10999 10996 ] final   79.43 input  -57.11 | X-H torsion

> <Gold.Protein.ActiveResidues>
 VAL166  LYS551  ARG553  GLY616  TRP617  ASP618  TYR619  PRO620  LYS621  CYS622 
 ASP623  PHE694  ASN695  SER759  ASP760  ASP761  ALA762  ILE779  LEU786  VAL792 
 PHE793  MET794  SER795  GLU796  ALA797  LYS798  CYS799  TRP800  GLU811  SER814 

> <Gold.Protein.RotatedAtoms>
  152.4316  133.7288  159.6575 H   0  0  0  0  0  0  0  0  0  0  0  0  # atno 6907 bound_to 6896
  150.8196  133.8266  159.3151 H   0  0  0  0  0  0  0  0  0  0  0  0  # atno 6908 bound_to 6896
  151.5952  135.1053  160.0099 H   0  0  0  0  0  0  0  0  0  0  0  0  # atno 6909 bound_to 6896
  144.7127  140.1077  143.6413 H   0  0  0  0  0  0  0  0  0  0  0  0  # atno 7974 bound_to 7965
  155.7049  140.3495  155.4949 H   0  0  0  0  0  0  0  0  0  0  0  0  # atno 8008 bound_to 7997
  155.9407  140.1101  157.1080 H   0  0  0  0  0  0  0  0  0  0  0  0  # atno 8009 bound_to 7997
  154.4102  140.1213  156.4910 H   0  0  0  0  0  0  0  0  0  0  0  0  # atno 8010 bound_to 7997
  140.6275  143.8069  150.7252 H   0  0  0  0  0  0  0  0  0  0  0  0  # atno 10167 bound_to 10162
  156.0793  130.5996  150.8698 H   0  0  0  0  0  0  0  0  0  0  0  0  # atno 10718 bound_to 10713
  154.7514  135.3093  154.8551 H   0  0  0  0  0  0  0  0  0  0  0  0  # atno 10763 bound_to 10752
  153.9337  135.6782  153.4749 H   0  0  0  0  0  0  0  0  0  0  0  0  # atno 10764 bound_to 10752
  153.1110  135.4866  154.8963 H   0  0  0  0  0  0  0  0  0  0  0  0  # atno 10765 bound_to 10752
  139.9173  134.7842  156.1778 H   0  0  0  0  0  0  0  0  0  0  0  0  # atno 11005 bound_to 11000
  145.9482  139.2715  143.1228 LP  0  0  0  0  0  0  0  0  0  0  0  0  # atno 17320 bound_to 7965
  145.9351  140.9020  143.0336 LP  0  0  0  0  0  0  0  0  0  0  0  0  # atno 17321 bound_to 7965
  140.1673  143.4225  152.2026 LP  0  0  0  0  0  0  0  0  0  0  0  0  # atno 17342 bound_to 10162
  139.5493  144.7324  151.4485 LP  0  0  0  0  0  0  0  0  0  0  0  0  # atno 17343 bound_to 10162
  157.5903  131.0944  150.9129 LP  0  0  0  0  0  0  0  0  0  0  0  0  # atno 17370 bound_to 10713
  156.9307  130.5348  149.5279 LP  0  0  0  0  0  0  0  0  0  0  0  0  # atno 17371 bound_to 10713
  141.0661  133.6818  156.2047 LP  0  0  0  0  0  0  0  0  0  0  0  0  # atno 17394 bound_to 11000
  140.6583  134.4995  157.5582 LP  0  0  0  0  0  0  0  0  0  0  0  0  # atno 17395 bound_to 11000

$$$$
