AV-unprocessed.smi:2931|AV-procd|sdf|11249|dock3
  -GOLD-   2272016143D 1   1.00000     0.00000
 Structure written by MMmdl.
 43 44  0  0  0  0  0  0  0  0  3 V2000
  145.8480  130.0967  151.7896 C   0  0  0  0  0  0  0  0  0  0  0  0
  145.3548  131.4887  151.8616 N   0  3  2  0  0  0  0  0  0  0  0  0
  144.7028  131.9240  150.6011 C   0  0  0  0  0  0  0  0  0  0  0  0
  144.0916  133.3271  150.7524 C   0  0  0  0  0  0  0  0  0  0  0  0
  145.1457  134.3431  151.2134 C   0  0  0  0  0  0  0  0  0  0  0  0
  145.8270  133.8516  152.5033 C   0  0  2  0  0  0  0  0  0  0  0  0
  146.8856  134.7723  152.9078 N   0  0  0  0  0  0  0  0  0  0  0  0
  146.9022  135.4672  154.0539 C   0  0  0  0  0  0  0  0  0  0  0  0
  146.0235  135.3974  154.9133 O   0  0  0  0  0  0  0  0  0  0  0  0
  147.9932  136.2405  154.1541 N   0  0  0  0  0  0  0  0  0  0  0  0
  148.3024  137.1248  155.2761 C   0  0  0  0  0  0  0  0  0  0  0  0
  149.6884  137.7862  155.1460 C   0  0  0  0  0  0  0  0  0  0  0  0
  149.6459  139.3049  155.1278 C   0  0  0  0  0  0  0  0  0  0  0  0
  150.5562  140.0537  155.9061 C   0  0  0  0  0  0  0  0  0  0  0  0
  150.5093  141.4617  155.8555 C   0  0  0  0  0  0  0  0  0  0  0  0
  149.5967  142.0768  155.0720 N   0  3  0  0  0  0  0  0  0  0  0  0
  148.7051  141.3989  154.3164 C   0  0  0  0  0  0  0  0  0  0  0  0
  148.7063  139.9891  154.3243 C   0  0  0  0  0  0  0  0  0  0  0  0
  146.4072  132.4392  152.3011 C   0  0  0  0  0  0  0  0  0  0  0  0
  146.6320  129.9977  151.0380 H   0  0  0  0  0  0  0  0  0  0  0  0
  145.0378  129.4134  151.5324 H   0  0  0  0  0  0  0  0  0  0  0  0
  146.2543  129.7823  152.7515 H   0  0  0  0  0  0  0  0  0  0  0  0
  145.4328  131.9167  149.7900 H   0  0  0  0  0  0  0  0  0  0  0  0
  143.9203  131.2143  150.3303 H   0  0  0  0  0  0  0  0  0  0  0  0
  143.6545  133.6480  149.8063 H   0  0  0  0  0  0  0  0  0  0  0  0
  143.2750  133.2947  151.4749 H   0  0  0  0  0  0  0  0  0  0  0  0
  145.8896  134.4804  150.4272 H   0  0  0  0  0  0  0  0  0  0  0  0
  144.6785  135.3157  151.3742 H   0  0  0  0  0  0  0  0  0  0  0  0
  145.0789  133.7955  153.2969 H   0  0  0  0  0  0  0  0  0  0  0  0
  147.6519  134.9006  152.2626 H   0  0  0  0  0  0  0  0  0  0  0  0
  148.6549  136.2306  153.3914 H   0  0  0  0  0  0  0  0  0  0  0  0
  147.5354  137.8989  155.3129 H   0  0  0  0  0  0  0  0  0  0  0  0
  148.2293  136.5853  156.2219 H   0  0  0  0  0  0  0  0  0  0  0  0
  150.3307  137.4538  155.9625 H   0  0  0  0  0  0  0  0  0  0  0  0
  150.1687  137.4447  154.2281 H   0  0  0  0  0  0  0  0  0  0  0  0
  151.2885  139.5564  156.5254 H   0  0  0  0  0  0  0  0  0  0  0  0
  151.1709  142.1089  156.4126 H   0  0  0  0  0  0  0  0  0  0  0  0
  148.0239  142.0001  153.7322 H   0  0  0  0  0  0  0  0  0  0  0  0
  147.9982  139.4431  153.7180 H   0  0  0  0  0  0  0  0  0  0  0  0
  146.8438  132.0861  153.2365 H   0  0  0  0  0  0  0  0  0  0  0  0
  147.2106  132.4584  151.5623 H   0  0  0  0  0  0  0  0  0  0  0  0
  144.6384  131.5018  152.5739 H   0  0  0  0  0  0  0  0  0  0  0  0
  149.5796  143.0970  155.0513 H   0  0  0  0  0  0  0  0  0  0  0  0
  1  2  1  0  0  0  0
  1 20  1  0  0  0  0
  1 21  1  0  0  0  0
  1 22  1  0  0  0  0
  2 19  1  0  0  0  0
  2  3  1  0  0  0  0
  2 42  1  0  0  0  0
  3  4  1  0  0  0  0
  3 23  1  0  0  0  0
  3 24  1  0  0  0  0
  4  5  1  0  0  0  0
  4 25  1  0  0  0  0
  4 26  1  0  0  0  0
  5  6  1  0  0  0  0
  5 27  1  0  0  0  0
  5 28  1  0  0  0  0
  6  7  1  0  0  0  0
  6 19  1  0  0  0  0
  6 29  1  0  0  0  0
  7  8  1  0  0  0  0
  7 30  1  0  0  0  0
  8  9  2  0  0  0  0
  8 10  1  0  0  0  0
 10 11  1  0  0  0  0
 10 31  1  0  0  0  0
 11 12  1  0  0  0  0
 11 32  1  0  0  0  0
 11 33  1  0  0  0  0
 12 13  1  0  0  0  0
 12 34  1  0  0  0  0
 12 35  1  0  0  0  0
 13 18  1  0  0  0  0
 13 14  2  0  0  0  0
 14 15  1  0  0  0  0
 14 36  1  0  0  0  0
 15 16  2  0  0  0  0
 15 37  1  0  0  0  0
 16 17  1  0  0  0  0
 16 43  1  0  0  0  0
 17 18  2  0  0  0  0
 17 38  1  0  0  0  0
 18 39  1  0  0  0  0
 19 40  1  0  0  0  0
 19 41  1  0  0  0  0
M  CHG  1   2   1
M  CHG  1  16   1
M  END
> <s_m_source_file>
AV-unprocessed.smi

> <i_m_source_file_index>
2931

> <i_lp_mmshare_version>
43012

> <i_f3d_flags>
0

> <s_epik_input>
W0NIM11OMVtDSDJdW0NIMl1bQ0gyXVtDQEhdKFtDSDJdMSlbTkhdQyg9TylbTkhdW0NIMl1bQ0gyXWMyW2NIXVtjSF1uW2NIXVtjSF0y

> <s_epik_cmdline>
J2VwaWtfcHl0aG9uJywgJy1waCcsICc3LjAnLCAnLXRuJywgJzgnLCAnLW1hJywgJzIwMCcsICctbWV0YWxfYmluZGluZycsICctaW1hZScsICc8aW5maWxlLm1hZT4nLCAnLW9tYWUnLCAnPG91dGZpbGUubWFlPic=

> <r_epik_Ionization_Penalty>
1.43754

> <r_epik_Ionization_Penalty_Charging>
1.4375

> <r_epik_Ionization_Penalty_Neutral>
3.7629e-05

> <r_epik_State_Penalty>
1.52008

> <r_epik_Charging_Adjusted_Penalty>
2.95758

> <i_epik_Tot_Q>
2

> <i_epik_Tot_abs_Q>
2

> <r_epik_Metal_State_Penalty>
1.57105

> <b_epik_Metal_Only>
0

> <s_lp_Force_Field>
OPLS_2005

> <r_lp_Energy>
22.8727

> <b_lp_Chiralities_Consistent>
1

> <s_lp_Variant>
AV-unprocessed.smi:2931-8

> <Gold.Version>
5.8.1

> <Gold.Id.Protein>
6NUR|6NUR_protein|mol2

> <Gold.PLP.Fitness>
41.4812

> <Gold.PLP.PLP>
-31.1414

> <Gold.PLP.part.hbond>
-2.8118

> <Gold.PLP.part.metal>
0.0000

> <Gold.PLP.part.buried>
-4.4243

> <Gold.PLP.part.nonpolar>
-24.4122

> <Gold.PLP.part.repulsive>
0.2807

> <Gold.PLP.ligand.clash>
0.0000

> <Gold.PLP.ligand.torsion>
0.5670

> <Gold.PLP.Chemscore.Hbond>
3.8160

> <Gold.PLP.Chemscore.CHOScore>
0.0000

> <Gold.PLP.Chemscore.Metal>
0.0000

> <Gold.Chemscore.Hbonds>
donor molecule, donor type, donor heavy atom, donor atom, acceptor molecule, acceptor atom, score
      L1  H     7    30       P1  7948  0.80
      L1  H    10    31       P1  7948  1.00
      L1  H    16    43       P1  8028  2.00

> <Gold.PLP.Chemscore.Internal.Correction>
0.0258

> <Gold.Rescore>
     Score         DG    S(hbond)    S(metal)    S(lipo)     H(rot)  DE(clash)    DE(int)     intcor
     18.98     -19.51       2.78        0.00      76.67       1.65       0.06       0.47       ----

> <Gold.Chemscore.Fitness>
18.9793

> <Gold.Chemscore.DG>
-19.5087

> <Gold.Chemscore.ZeroCoef>
-5.4800

> <Gold.Chemscore.Hbond>
2.7762

> <Gold.Chemscore.Metal>
0.0000

> <Gold.Chemscore.Lipo>
76.6743

> <Gold.Chemscore.Internal_Hbond>
0.0000

> <Gold.Chemscore.DEClash>
0.0580

> <Gold.Chemscore.DEInternal>
0.4714

> <Gold.Chemscore.Rot>
1.6464

> <Gold.Chemscore.Internal.Correction>
   9.000000E+99

> <Gold.Chemscore.Hbonds>
donor molecule, donor type, donor heavy atom, donor atom, acceptor molecule, acceptor atom, score
      L1  H     7    30       P1  7948  0.70
      L1  H    10    31       P1  7948  0.91
      L1  H    16    43       P1  8028  0.95

> <Gold.Chemscore.Hbond.Weighted>
-9.2726

> <Gold.Chemscore.Metal.Weighted>
-0.0000

> <Gold.Chemscore.Lipo.Weighted>
-8.9709

> <Gold.Chemscore.Internal_Hbond.Weighted>
0.0000

> <Gold.Chemscore.DEClash.Weighted>
0.0580

> <Gold.Chemscore.DEInternal.Weighted>
0.4714

> <Gold.Chemscore.Rot.Weighted>
4.2148

> <Gold.Chemscore.Internal.Correction.Weighted>
   9.000000E+99

> <Gold.Protein.RotatedTorsions>
[ 6907 6896 6895 6894 ] final  -95.44 input  -60.11 | X-H torsion
[ 7974 7965 7964 7962 ] final  -34.39 input  175.53 | X-H torsion
[ 8008 7997 7996 7995 ] final -137.35 input   59.86 | X-H torsion
[ 10167 10162 10161 10158 ] final   -0.21 input  -65.29 | X-H torsion
[ 10718 10713 10712 10709 ] final -104.39 input   66.30 | X-H torsion
[ 10763 10752 10751 10750 ] final  -87.88 input  -60.55 | X-H torsion
[ 11005 11000 10999 10996 ] final   12.97 input  -57.11 | X-H torsion

> <Gold.Protein.ActiveResidues>
 VAL166  LYS551  ARG553  GLY616  TRP617  ASP618  TYR619  PRO620  LYS621  CYS622 
 ASP623  PHE694  ASN695  SER759  ASP760  ASP761  ALA762  ILE779  LEU786  VAL792 
 PHE793  MET794  SER795  GLU796  ALA797  LYS798  CYS799  TRP800  GLU811  SER814 

> <Gold.Protein.RotatedAtoms>
  150.6964  134.1658  159.4193 H   0  0  0  0  0  0  0  0  0  0  0  0  # atno 6907 bound_to 6896
  151.9637  135.0108  160.0558 H   0  0  0  0  0  0  0  0  0  0  0  0  # atno 6908 bound_to 6896
  152.1904  133.4734  159.5041 H   0  0  0  0  0  0  0  0  0  0  0  0  # atno 6909 bound_to 6896
  146.0833  140.6032  142.8898 H   0  0  0  0  0  0  0  0  0  0  0  0  # atno 7974 bound_to 7965
  155.4104  140.0512  157.3032 H   0  0  0  0  0  0  0  0  0  0  0  0  # atno 8008 bound_to 7997
  154.4949  140.2134  155.9429 H   0  0  0  0  0  0  0  0  0  0  0  0  # atno 8009 bound_to 7997
  156.1392  140.3157  155.8473 H   0  0  0  0  0  0  0  0  0  0  0  0  # atno 8010 bound_to 7997
  140.6757  143.6922  150.8018 H   0  0  0  0  0  0  0  0  0  0  0  0  # atno 10167 bound_to 10162
  156.0302  130.5513  150.7390 H   0  0  0  0  0  0  0  0  0  0  0  0  # atno 10718 bound_to 10713
  154.6385  135.5397  153.7761 H   0  0  0  0  0  0  0  0  0  0  0  0  # atno 10763 bound_to 10752
  153.0321  135.6453  154.1196 H   0  0  0  0  0  0  0  0  0  0  0  0  # atno 10764 bound_to 10752
  154.1122  135.2926  155.3208 H   0  0  0  0  0  0  0  0  0  0  0  0  # atno 10765 bound_to 10752
  140.4860  134.0888  155.7761 H   0  0  0  0  0  0  0  0  0  0  0  0  # atno 11005 bound_to 11000
  144.7308  140.4666  143.6939 LP  0  0  0  0  0  0  0  0  0  0  0  0  # atno 17320 bound_to 7965
  145.6176  139.1520  143.3040 LP  0  0  0  0  0  0  0  0  0  0  0  0  # atno 17321 bound_to 7965
  140.0615  143.5150  152.2625 LP  0  0  0  0  0  0  0  0  0  0  0  0  # atno 17342 bound_to 10162
  139.6049  144.7593  151.3086 LP  0  0  0  0  0  0  0  0  0  0  0  0  # atno 17343 bound_to 10162
  157.4963  131.0915  151.0367 LP  0  0  0  0  0  0  0  0  0  0  0  0  # atno 17370 bound_to 10713
  157.0760  130.5883  149.5411 LP  0  0  0  0  0  0  0  0  0  0  0  0  # atno 17371 bound_to 10713
  141.1508  133.8972  157.2103 LP  0  0  0  0  0  0  0  0  0  0  0  0  # atno 17394 bound_to 11000
  139.9798  135.0102  156.9721 LP  0  0  0  0  0  0  0  0  0  0  0  0  # atno 17395 bound_to 11000

$$$$
