AV-unprocessed.smi:1965|AV-procd|sdf|7944|dock5
  -GOLD-   2272010113D 1   1.00000     0.00000
 Structure written by MMmdl.
 36 38  0  0  0  0  0  0  0  0  3 V2000
  144.2966  141.0435  158.9500 O   0  0  0  0  0  0  0  0  0  0  0  0
  145.0845  141.9880  158.9581 C   0  0  0  0  0  0  0  0  0  0  0  0
  145.8793  142.2954  160.0162 N   0  5  0  0  0  0  0  0  0  0  0  0
  146.3447  143.5400  160.2326 C   0  0  0  0  0  0  0  0  0  0  0  0
  147.5372  143.7892  160.7864 N   0  0  0  0  0  0  0  0  0  0  0  0
  147.8199  145.1510  160.9068 C   0  0  0  0  0  0  0  0  0  0  0  0
  146.8194  145.9577  160.4334 C   0  0  0  0  0  0  0  0  0  0  0  0
  145.4816  145.0254  159.8245 S   0  0  0  0  0  0  0  0  0  0  0  0
  145.1771  142.7673  157.8651 N   0  0  0  0  0  0  0  0  0  0  0  0
  144.4143  142.6277  156.6295 C   0  0  2  0  0  0  0  0  0  0  0  0
  145.2953  142.5714  155.3626 C   0  0  0  0  0  0  0  0  0  0  0  0
  144.6341  143.5392  154.3760 C   0  0  0  0  0  0  0  0  0  0  0  0
  144.0249  144.5463  155.2531 N   0  3  1  0  0  0  0  0  0  0  0  0
  143.0711  145.5059  154.6595 C   0  0  0  0  0  0  0  0  0  0  0  0
  142.6855  146.5478  155.7317 C   0  0  0  0  0  0  0  0  0  0  0  0
  142.1882  145.8866  157.0370 C   0  0  0  0  0  0  0  0  0  0  0  0
  143.1758  144.8139  157.5415 C   0  0  0  0  0  0  0  0  0  0  0  0
  143.4596  143.8180  156.4012 C   0  0  2  0  0  0  0  0  0  0  0  0
  148.7593  145.4569  161.3429 H   0  0  0  0  0  0  0  0  0  0  0  0
  146.7848  147.0364  160.4100 H   0  0  0  0  0  0  0  0  0  0  0  0
  145.8357  143.5313  157.9059 H   0  0  0  0  0  0  0  0  0  0  0  0
  143.8154  141.7177  156.7006 H   0  0  0  0  0  0  0  0  0  0  0  0
  146.3049  142.9202  155.5865 H   0  0  0  0  0  0  0  0  0  0  0  0
  145.3809  141.5623  154.9584 H   0  0  0  0  0  0  0  0  0  0  0  0
  145.3462  143.9815  153.6785 H   0  0  0  0  0  0  0  0  0  0  0  0
  143.8569  143.0305  153.8033 H   0  0  0  0  0  0  0  0  0  0  0  0
  143.5314  145.9999  153.8032 H   0  0  0  0  0  0  0  0  0  0  0  0
  142.1880  144.9796  154.2944 H   0  0  0  0  0  0  0  0  0  0  0  0
  143.5552  147.1668  155.9567 H   0  0  0  0  0  0  0  0  0  0  0  0
  141.9233  147.2224  155.3405 H   0  0  0  0  0  0  0  0  0  0  0  0
  142.0328  146.6439  157.8059 H   0  0  0  0  0  0  0  0  0  0  0  0
  141.2156  145.4260  156.8584 H   0  0  0  0  0  0  0  0  0  0  0  0
  144.1000  145.2900  157.8734 H   0  0  0  0  0  0  0  0  0  0  0  0
  142.7580  144.2960  158.4055 H   0  0  0  0  0  0  0  0  0  0  0  0
  142.5062  143.3921  156.0801 H   0  0  0  0  0  0  0  0  0  0  0  0
  144.7949  145.0878  155.6193 H   0  0  0  0  0  0  0  0  0  0  0  0
  1  2  2  0  0  0  0
  2  3  1  0  0  0  0
  2  9  1  0  0  0  0
  3  4  1  0  0  0  0
  4  8  1  0  0  0  0
  4  5  2  0  0  0  0
  5  6  1  0  0  0  0
  6  7  2  0  0  0  0
  6 19  1  0  0  0  0
  7  8  1  0  0  0  0
  7 20  1  0  0  0  0
  9 10  1  0  0  0  0
  9 21  1  0  0  0  0
 10 18  1  0  0  0  0
 10 11  1  0  0  0  0
 10 22  1  0  0  0  0
 11 12  1  0  0  0  0
 11 23  1  0  0  0  0
 11 24  1  0  0  0  0
 12 13  1  0  0  0  0
 12 25  1  0  0  0  0
 12 26  1  0  0  0  0
 13 18  1  0  0  0  0
 13 14  1  0  0  0  0
 13 36  1  0  0  0  0
 14 15  1  0  0  0  0
 14 27  1  0  0  0  0
 14 28  1  0  0  0  0
 15 16  1  0  0  0  0
 15 29  1  0  0  0  0
 15 30  1  0  0  0  0
 16 17  1  0  0  0  0
 16 31  1  0  0  0  0
 16 32  1  0  0  0  0
 17 18  1  0  0  0  0
 17 33  1  0  0  0  0
 17 34  1  0  0  0  0
 18 35  1  0  0  0  0
M  CHG  1   3  -1
M  CHG  1  13   1
M  END
> <s_m_source_file>
AV-unprocessed.smi

> <i_m_source_file_index>
1965

> <i_lp_mmshare_version>
43012

> <i_f3d_flags>
0

> <s_epik_input>
czFbY0hdW2NIXW5jMVtOSF1DKD1PKVtOSF1bQ0BIXShbQ0gyXVtDSDJdMilbQ0BASF0oTjIzKVtDSDJdW0NIMl1bQ0gyXVtDSDJdMw==

> <s_epik_cmdline>
J2VwaWtfcHl0aG9uJywgJy1waCcsICc3LjAnLCAnLXRuJywgJzgnLCAnLW1hJywgJzIwMCcsICctbWV0YWxfYmluZGluZycsICctaW1hZScsICc8aW5maWxlLm1hZT4nLCAnLW9tYWUnLCAnPG91dGZpbGUubWFlPic=

> <r_lp_tautomer_probability>
1

> <r_epik_Ionization_Penalty>
7.4116

> <r_epik_Ionization_Penalty_Charging>
6.13869

> <r_epik_Ionization_Penalty_Neutral>
1.27291

> <r_epik_State_Penalty>
6.13761

> <r_epik_Charging_Adjusted_Penalty>
12.2763

> <i_epik_Tot_Q>
0

> <i_epik_Tot_abs_Q>
2

> <r_epik_Metal_State_Penalty>
2.08142

> <b_epik_Metal_Only>
1

> <s_lp_Force_Field>
OPLS_2005

> <r_lp_Energy>
32.5811

> <b_lp_Chiralities_Consistent>
1

> <s_lp_Variant>
AV-unprocessed.smi:1965-13

> <Gold.Version>
5.8.1

> <Gold.Id.Protein>
6NUR|6NUR_protein|mol2

> <Gold.PLP.Fitness>
36.0419

> <Gold.PLP.PLP>
-27.8310

> <Gold.PLP.part.hbond>
-2.0000

> <Gold.PLP.part.metal>
0.0000

> <Gold.PLP.part.buried>
-4.3655

> <Gold.PLP.part.nonpolar>
-21.5354

> <Gold.PLP.part.repulsive>
0.1443

> <Gold.PLP.ligand.clash>
0.0000

> <Gold.PLP.ligand.torsion>
0.4009

> <Gold.PLP.Chemscore.Hbond>
3.0000

> <Gold.PLP.Chemscore.CHOScore>
0.0000

> <Gold.PLP.Chemscore.Metal>
0.0000

> <Gold.Chemscore.Hbonds>
donor molecule, donor type, donor heavy atom, donor atom, acceptor molecule, acceptor atom, score
      P1  H  6933  6944       L1     5  1.00
      P1  H  6934  6946       L1     3  2.00

> <Gold.PLP.Chemscore.Internal.Correction>
0.0128

> <Gold.Rescore>
     Score         DG    S(hbond)    S(metal)    S(lipo)     H(rot)  DE(clash)    DE(int)     intcor
     14.59     -15.12       1.82        0.00      52.21       1.00       0.01       0.51       ----

> <Gold.Chemscore.Fitness>
14.5944

> <Gold.Chemscore.DG>
-15.1152

> <Gold.Chemscore.ZeroCoef>
-5.4800

> <Gold.Chemscore.Hbond>
1.8223

> <Gold.Chemscore.Metal>
0.0000

> <Gold.Chemscore.Lipo>
52.2106

> <Gold.Chemscore.Internal_Hbond>
0.0000

> <Gold.Chemscore.DEClash>
0.0089

> <Gold.Chemscore.DEInternal>
0.5119

> <Gold.Chemscore.Rot>
1.0000

> <Gold.Chemscore.Internal.Correction>
   9.000000E+99

> <Gold.Chemscore.Hbonds>
donor molecule, donor type, donor heavy atom, donor atom, acceptor molecule, acceptor atom, score
      P1  H  6933  6944       L1     5  0.96
      P1  H  6934  6946       L1     3  0.87

> <Gold.Chemscore.Hbond.Weighted>
-6.0866

> <Gold.Chemscore.Metal.Weighted>
-0.0000

> <Gold.Chemscore.Lipo.Weighted>
-6.1086

> <Gold.Chemscore.Internal_Hbond.Weighted>
0.0000

> <Gold.Chemscore.DEClash.Weighted>
0.0089

> <Gold.Chemscore.DEInternal.Weighted>
0.5119

> <Gold.Chemscore.Rot.Weighted>
2.5600

> <Gold.Chemscore.Internal.Correction.Weighted>
   9.000000E+99

> <Gold.Protein.RotatedTorsions>
[ 6907 6896 6895 6894 ] final  155.17 input  -60.11 | X-H torsion
[ 7974 7965 7964 7962 ] final    9.77 input  175.53 | X-H torsion
[ 8008 7997 7996 7995 ] final   33.95 input   59.86 | X-H torsion
[ 10167 10162 10161 10158 ] final  115.17 input  -65.29 | X-H torsion
[ 10718 10713 10712 10709 ] final   21.30 input   66.30 | X-H torsion
[ 10763 10752 10751 10750 ] final  -52.93 input  -60.55 | X-H torsion
[ 11005 11000 10999 10996 ] final  157.14 input  -57.11 | X-H torsion

> <Gold.Protein.ActiveResidues>
 VAL166  LYS551  ARG553  GLY616  TRP617  ASP618  TYR619  PRO620  LYS621  CYS622 
 ASP623  PHE694  ASN695  SER759  ASP760  ASP761  ALA762  ILE779  LEU786  VAL792 
 PHE793  MET794  SER795  GLU796  ALA797  LYS798  CYS799  TRP800  GLU811  SER814 

> <Gold.Protein.RotatedAtoms>
  152.0479  133.4006  159.4364 H   0  0  0  0  0  0  0  0  0  0  0  0  # atno 6907 bound_to 6896
  150.6872  134.3341  159.4849 H   0  0  0  0  0  0  0  0  0  0  0  0  # atno 6908 bound_to 6896
  152.1147  134.9248  160.0616 H   0  0  0  0  0  0  0  0  0  0  0  0  # atno 6909 bound_to 6896
  146.2398  139.9733  142.8444 H   0  0  0  0  0  0  0  0  0  0  0  0  # atno 7974 bound_to 7965
  155.1470  140.3271  155.4439 H   0  0  0  0  0  0  0  0  0  0  0  0  # atno 8008 bound_to 7997
  156.2586  140.1983  156.6533 H   0  0  0  0  0  0  0  0  0  0  0  0  # atno 8009 bound_to 7997
  154.6501  140.0559  156.9932 H   0  0  0  0  0  0  0  0  0  0  0  0  # atno 8010 bound_to 7997
  139.6336  144.7117  151.2381 H   0  0  0  0  0  0  0  0  0  0  0  0  # atno 10167 bound_to 10162
  157.1365  130.6614  149.5968 H   0  0  0  0  0  0  0  0  0  0  0  0  # atno 10718 bound_to 10713
  154.1506  135.6490  153.4963 H   0  0  0  0  0  0  0  0  0  0  0  0  # atno 10763 bound_to 10752
  153.0139  135.5337  154.6811 H   0  0  0  0  0  0  0  0  0  0  0  0  # atno 10764 bound_to 10752
  154.6098  135.2952  155.0416 H   0  0  0  0  0  0  0  0  0  0  0  0  # atno 10765 bound_to 10752
  140.1741  134.8522  157.2725 H   0  0  0  0  0  0  0  0  0  0  0  0  # atno 11005 bound_to 11000
  145.1660  140.9697  143.4349 LP  0  0  0  0  0  0  0  0  0  0  0  0  # atno 17320 bound_to 7965
  145.0072  139.3543  143.6138 LP  0  0  0  0  0  0  0  0  0  0  0  0  # atno 17321 bound_to 7965
  140.7453  143.6436  150.8312 LP  0  0  0  0  0  0  0  0  0  0  0  0  # atno 17342 bound_to 10162
  140.0064  143.5689  152.2856 LP  0  0  0  0  0  0  0  0  0  0  0  0  # atno 17343 bound_to 10162
  155.9797  130.4792  150.6731 LP  0  0  0  0  0  0  0  0  0  0  0  0  # atno 17370 bound_to 10713
  157.4345  131.0853  151.1005 LP  0  0  0  0  0  0  0  0  0  0  0  0  # atno 17371 bound_to 10713
  140.2343  134.3871  155.7508 LP  0  0  0  0  0  0  0  0  0  0  0  0  # atno 17394 bound_to 11000
  141.2219  133.7231  156.8690 LP  0  0  0  0  0  0  0  0  0  0  0  0  # atno 17395 bound_to 11000

$$$$
