AV-unprocessed.smi:2207|AV-procd|sdf|8944|dock7
  -GOLD-   2272012163D 1   1.00000     0.00000
 Structure written by MMmdl.
 18 18  0  0  0  0  0  0  0  0  1 V2000
  146.5108  131.3285  150.6105 N   0  0  0  0  0  0  0  0  0  0  0  0
  145.4770  130.9789  151.3807 C   0  0  0  0  0  0  0  0  0  0  0  0
  145.6066  130.2635  152.3717 O   0  0  0  0  0  0  0  0  0  0  0  0
  144.0976  131.5044  150.9791 C   0  0  0  0  0  0  0  0  0  0  0  0
  144.0568  132.9556  151.0140 N   0  0  0  0  0  0  0  0  0  0  0  0
  143.4814  133.7733  151.9685 C   0  0  0  0  0  0  0  0  0  0  0  0
  143.6940  135.0671  151.5846 C   0  0  0  0  0  0  0  0  0  0  0  0
  144.4157  134.9228  150.3694 C   0  0  0  0  0  0  0  0  0  0  0  0
  144.8538  136.0044  149.6101 N   0  0  0  0  0  0  0  0  0  0  0  0
  144.6364  133.6685  150.0210 N   0  0  0  0  0  0  0  0  0  0  0  0
  147.4401  131.0085  150.8419 H   0  0  0  0  0  0  0  0  0  0  0  0
  146.3603  131.9159  149.8030 H   0  0  0  0  0  0  0  0  0  0  0  0
  143.8374  131.1529  149.9792 H   0  0  0  0  0  0  0  0  0  0  0  0
  143.3396  131.1178  151.6615 H   0  0  0  0  0  0  0  0  0  0  0  0
  142.9754  133.3687  152.8329 H   0  0  0  0  0  0  0  0  0  0  0  0
  143.3830  135.9679  152.0927 H   0  0  0  0  0  0  0  0  0  0  0  0
  144.6751  136.9568  149.8940 H   0  0  0  0  0  0  0  0  0  0  0  0
  145.3593  135.8695  148.7464 H   0  0  0  0  0  0  0  0  0  0  0  0
  1  2  1  0  0  0  0
  1 11  1  0  0  0  0
  1 12  1  0  0  0  0
  2  3  2  0  0  0  0
  2  4  1  0  0  0  0
  4  5  1  0  0  0  0
  4 13  1  0  0  0  0
  4 14  1  0  0  0  0
  5 10  1  0  0  0  0
  5  6  1  0  0  0  0
  6  7  2  0  0  0  0
  6 15  1  0  0  0  0
  7  8  1  0  0  0  0
  7 16  1  0  0  0  0
  8  9  1  0  0  0  0
  8 10  2  0  0  0  0
  9 17  1  0  0  0  0
  9 18  1  0  0  0  0
M  END
> <s_m_source_file>
AV-unprocessed.smi

> <i_m_source_file_index>
2207

> <i_lp_mmshare_version>
43012

> <i_f3d_flags>
0

> <s_epik_input>
W05IMl1DKD1PKVtDSDJdbjFbY0hdW2NIXWMobjEpW05IMl0=

> <s_epik_cmdline>
J2VwaWtfcHl0aG9uJywgJy1waCcsICc3LjAnLCAnLXRuJywgJzgnLCAnLW1hJywgJzIwMCcsICctbWV0YWxfYmluZGluZycsICctaW1hZScsICc8aW5maWxlLm1hZT4nLCAnLW9tYWUnLCAnPG91dGZpbGUubWFlPic=

> <r_lp_tautomer_probability>
1

> <r_epik_Ionization_Penalty>
0.000204489

> <r_epik_Ionization_Penalty_Charging>
0

> <r_epik_Ionization_Penalty_Neutral>
0.000204489

> <r_epik_State_Penalty>
-0

> <r_epik_Charging_Adjusted_Penalty>
0

> <i_epik_Tot_Q>
0

> <i_epik_Tot_abs_Q>
0

> <r_epik_Metal_State_Penalty>
-0

> <b_epik_Metal_Only>
0

> <s_lp_Force_Field>
OPLS_2005

> <r_lp_Energy>
0.150193

> <b_lp_Chiralities_Consistent>
1

> <s_lp_Variant>
AV-unprocessed.smi:2207-1

> <Gold.Version>
5.8.1

> <Gold.Id.Protein>
6NUR|6NUR_protein|mol2

> <Gold.PLP.Fitness>
31.7682

> <Gold.PLP.PLP>
-20.4400

> <Gold.PLP.part.hbond>
-2.9357

> <Gold.PLP.part.metal>
0.0000

> <Gold.PLP.part.buried>
-5.1710

> <Gold.PLP.part.nonpolar>
-13.6059

> <Gold.PLP.part.repulsive>
1.6971

> <Gold.PLP.ligand.clash>
0.0000

> <Gold.PLP.ligand.torsion>
0.2159

> <Gold.PLP.Chemscore.Hbond>
2.9200

> <Gold.PLP.Chemscore.CHOScore>
1.0000

> <Gold.PLP.Chemscore.Metal>
0.0000

> <Gold.Chemscore.Hbonds>
donor molecule, donor type, donor heavy atom, donor atom, acceptor molecule, acceptor atom, score
      L1  H     1    11       P1 10747  0.88
      L1  H     9    17       P1 10171  1.00
      L1  H     9    18       P1  7921  1.00
      L1  C     6    15       P1 10957  1.00

> <Gold.PLP.Chemscore.Internal.Correction>
0.0001

> <Gold.Rescore>
     Score         DG    S(hbond)    S(metal)    S(lipo)     H(rot)  DE(clash)    DE(int)     intcor
     12.85     -13.16       2.84        0.00      21.03       1.67       0.02       0.29       ----

> <Gold.Chemscore.Fitness>
12.8515

> <Gold.Chemscore.DG>
-13.1616

> <Gold.Chemscore.ZeroCoef>
-5.4800

> <Gold.Chemscore.Hbond>
2.8444

> <Gold.Chemscore.Metal>
0.0000

> <Gold.Chemscore.Lipo>
21.0313

> <Gold.Chemscore.Internal_Hbond>
0.0000

> <Gold.Chemscore.DEClash>
0.0234

> <Gold.Chemscore.DEInternal>
0.2867

> <Gold.Chemscore.Rot>
1.6716

> <Gold.Chemscore.Internal.Correction>
   9.000000E+99

> <Gold.Chemscore.Hbonds>
donor molecule, donor type, donor heavy atom, donor atom, acceptor molecule, acceptor atom, score
      L1  H     1    11       P1 10747  0.86
      L1  H     9    17       P1 10171  0.98
      L1  H     9    18       P1  7921  0.95

> <Gold.Chemscore.Hbond.Weighted>
-9.5003

> <Gold.Chemscore.Metal.Weighted>
-0.0000

> <Gold.Chemscore.Lipo.Weighted>
-2.4607

> <Gold.Chemscore.Internal_Hbond.Weighted>
0.0000

> <Gold.Chemscore.DEClash.Weighted>
0.0234

> <Gold.Chemscore.DEInternal.Weighted>
0.2867

> <Gold.Chemscore.Rot.Weighted>
4.2794

> <Gold.Chemscore.Internal.Correction.Weighted>
   9.000000E+99

> <Gold.Protein.RotatedTorsions>
[ 6907 6896 6895 6894 ] final  110.97 input  -60.11 | X-H torsion
[ 7974 7965 7964 7962 ] final  -91.91 input  175.53 | X-H torsion
[ 8008 7997 7996 7995 ] final  112.31 input   59.86 | X-H torsion
[ 10167 10162 10161 10158 ] final -148.02 input  -65.29 | X-H torsion
[ 10718 10713 10712 10709 ] final -155.40 input   66.30 | X-H torsion
[ 10763 10752 10751 10750 ] final  111.78 input  -60.55 | X-H torsion
[ 11005 11000 10999 10996 ] final   96.42 input  -57.11 | X-H torsion

> <Gold.Protein.ActiveResidues>
 VAL166  LYS551  ARG553  GLY616  TRP617  ASP618  TYR619  PRO620  LYS621  CYS622 
 ASP623  PHE694  ASN695  SER759  ASP760  ASP761  ALA762  ILE779  LEU786  VAL792 
 PHE793  MET794  SER795  GLU796  ALA797  LYS798  CYS799  TRP800  GLU811  SER814 

> <Gold.Protein.RotatedAtoms>
  152.4993  133.8725  159.7305 H   0  0  0  0  0  0  0  0  0  0  0  0  # atno 6907 bound_to 6896
  150.9208  133.6874  159.2839 H   0  0  0  0  0  0  0  0  0  0  0  0  # atno 6908 bound_to 6896
  151.4252  135.1007  159.9678 H   0  0  0  0  0  0  0  0  0  0  0  0  # atno 6909 bound_to 6896
  145.4069  140.9542  143.2256 H   0  0  0  0  0  0  0  0  0  0  0  0  # atno 7974 bound_to 7965
  156.2184  140.3002  155.9893 H   0  0  0  0  0  0  0  0  0  0  0  0  # atno 8008 bound_to 7997
  155.2546  140.0427  157.3007 H   0  0  0  0  0  0  0  0  0  0  0  0  # atno 8009 bound_to 7997
  154.5802  140.2373  155.8072 H   0  0  0  0  0  0  0  0  0  0  0  0  # atno 8010 bound_to 7997
  139.7570  143.8434  152.2599 H   0  0  0  0  0  0  0  0  0  0  0  0  # atno 10167 bound_to 10162
  156.5123  130.8440  151.2651 H   0  0  0  0  0  0  0  0  0  0  0  0  # atno 10718 bound_to 10713
  153.4683  135.3706  155.2377 H   0  0  0  0  0  0  0  0  0  0  0  0  # atno 10763 bound_to 10752
  154.8757  135.3925  154.3842 H   0  0  0  0  0  0  0  0  0  0  0  0  # atno 10764 bound_to 10752
  153.4426  135.7084  153.6224 H   0  0  0  0  0  0  0  0  0  0  0  0  # atno 10765 bound_to 10752
  139.8782  134.8950  156.4156 H   0  0  0  0  0  0  0  0  0  0  0  0  # atno 11005 bound_to 11000
  144.8336  139.5588  143.6932 LP  0  0  0  0  0  0  0  0  0  0  0  0  # atno 17320 bound_to 7965
  146.2724  139.6669  142.9286 LP  0  0  0  0  0  0  0  0  0  0  0  0  # atno 17321 bound_to 7965
  139.8429  144.7201  150.9309 LP  0  0  0  0  0  0  0  0  0  0  0  0  # atno 17342 bound_to 10162
  140.7803  143.3967  151.1217 LP  0  0  0  0  0  0  0  0  0  0  0  0  # atno 17343 bound_to 10162
  157.7449  130.9945  150.2711 LP  0  0  0  0  0  0  0  0  0  0  0  0  # atno 17370 bound_to 10713
  156.3228  130.3788  149.7560 LP  0  0  0  0  0  0  0  0  0  0  0  0  # atno 17371 bound_to 10713
  140.9169  133.7672  155.9859 LP  0  0  0  0  0  0  0  0  0  0  0  0  # atno 17394 bound_to 11000
  140.8483  134.2984  157.5286 LP  0  0  0  0  0  0  0  0  0  0  0  0  # atno 17395 bound_to 11000

$$$$
