AV-unprocessed.smi:1866|AV-procd|sdf|7556|dock7
  -GOLD-   22720 9273D 1   1.00000     0.00000
 Structure written by MMmdl.
 30 31  0  0  0  0  0  0  0  0  1 V2000
  146.9086  142.4416  154.0747 C   0  0  0  0  0  0  0  0  0  0  0  0
  146.8589  140.9536  154.0031 C   0  0  0  0  0  0  0  0  0  0  0  0
  146.6638  140.1816  155.0792 N   0  0  0  0  0  0  0  0  0  0  0  0
  146.6590  138.8301  154.7633 N   0  0  0  0  0  0  0  0  0  0  0  0
  146.8516  138.6224  153.4534 C   0  0  0  0  0  0  0  0  0  0  0  0
  146.8935  137.3345  152.8565 N   0  0  0  0  0  0  0  0  0  0  0  0
  145.9300  136.3968  152.8300 C   0  0  0  0  0  0  0  0  0  0  0  0
  144.8125  136.5091  153.3349 O   0  0  0  0  0  0  0  0  0  0  0  0
  146.3388  135.3005  152.1750 N   0  0  0  0  0  0  0  0  0  0  0  0
  145.5307  134.1066  151.9337 C   0  0  2  0  0  0  0  0  0  0  0  0
  146.3814  132.9779  151.3209 C   0  0  0  0  0  0  0  0  0  0  0  0
  145.4872  131.8095  150.8961 C   0  0  0  0  0  0  0  0  0  0  0  0
  144.4256  132.2833  149.8901 C   0  0  0  0  0  0  0  0  0  0  0  0
  143.7703  133.5310  150.2852 N   0  0  0  0  0  0  0  0  0  0  0  0
  144.2494  134.4428  151.1499 C   0  0  0  0  0  0  0  0  0  0  0  0
  143.6643  135.5067  151.3471 O   0  0  0  0  0  0  0  0  0  0  0  0
  147.0579  140.0760  152.4912 S   0  0  0  0  0  0  0  0  0  0  0  0
  146.5268  142.7936  155.0338 H   0  0  0  0  0  0  0  0  0  0  0  0
  146.3029  142.8747  153.2786 H   0  0  0  0  0  0  0  0  0  0  0  0
  147.9368  142.7851  153.9599 H   0  0  0  0  0  0  0  0  0  0  0  0
  147.7591  137.1005  152.3936 H   0  0  0  0  0  0  0  0  0  0  0  0
  147.2709  135.2970  151.7876 H   0  0  0  0  0  0  0  0  0  0  0  0
  145.1659  133.7495  152.8989 H   0  0  0  0  0  0  0  0  0  0  0  0
  146.9306  133.3497  150.4543 H   0  0  0  0  0  0  0  0  0  0  0  0
  147.1272  132.6324  152.0377 H   0  0  0  0  0  0  0  0  0  0  0  0
  146.0861  131.0084  150.4624 H   0  0  0  0  0  0  0  0  0  0  0  0
  144.9976  131.3900  151.7761 H   0  0  0  0  0  0  0  0  0  0  0  0
  144.8911  132.4476  148.9177 H   0  0  0  0  0  0  0  0  0  0  0  0
  143.6696  131.5106  149.7483 H   0  0  0  0  0  0  0  0  0  0  0  0
  142.9065  133.7531  149.8114 H   0  0  0  0  0  0  0  0  0  0  0  0
  1  2  1  0  0  0  0
  1 18  1  0  0  0  0
  1 19  1  0  0  0  0
  1 20  1  0  0  0  0
  2 17  1  0  0  0  0
  2  3  2  0  0  0  0
  3  4  1  0  0  0  0
  4  5  2  0  0  0  0
  5  6  1  0  0  0  0
  5 17  1  0  0  0  0
  6  7  1  0  0  0  0
  6 21  1  0  0  0  0
  7  8  2  0  0  0  0
  7  9  1  0  0  0  0
  9 10  1  0  0  0  0
  9 22  1  0  0  0  0
 10 15  1  0  0  0  0
 10 11  1  0  0  0  0
 10 23  1  0  0  0  0
 11 12  1  0  0  0  0
 11 24  1  0  0  0  0
 11 25  1  0  0  0  0
 12 13  1  0  0  0  0
 12 26  1  0  0  0  0
 12 27  1  0  0  0  0
 13 14  1  0  0  0  0
 13 28  1  0  0  0  0
 13 29  1  0  0  0  0
 14 15  1  0  0  0  0
 14 30  1  0  0  0  0
 15 16  2  0  0  0  0
M  END
> <s_m_source_file>
AV-unprocessed.smi

> <i_m_source_file_index>
1866

> <i_lp_mmshare_version>
43012

> <i_f3d_flags>
0

> <s_epik_input>
W0NIM11jMW5uYyhzMSlbTkhdQyg9TylbTkhdW0NAQEhdMltDSDJdW0NIMl1bQ0gyXVtOSF1DMj1P

> <s_epik_cmdline>
J2VwaWtfcHl0aG9uJywgJy1waCcsICc3LjAnLCAnLXRuJywgJzgnLCAnLW1hJywgJzIwMCcsICctbWV0YWxfYmluZGluZycsICctaW1hZScsICc8aW5maWxlLm1hZT4nLCAnLW9tYWUnLCAnPG91dGZpbGUubWFlPic=

> <r_lp_tautomer_probability>
1

> <r_epik_Ionization_Penalty>
0.00093002

> <r_epik_Ionization_Penalty_Charging>
0

> <r_epik_Ionization_Penalty_Neutral>
0.00093002

> <r_epik_State_Penalty>
-0

> <r_epik_Charging_Adjusted_Penalty>
0

> <i_epik_Tot_Q>
0

> <i_epik_Tot_abs_Q>
0

> <r_epik_Metal_State_Penalty>
0.280775

> <b_epik_Metal_Only>
0

> <s_lp_Force_Field>
OPLS_2005

> <r_lp_Energy>
8.18213

> <b_lp_Chiralities_Consistent>
1

> <s_lp_Variant>
AV-unprocessed.smi:1866-1

> <Gold.Version>
5.8.1

> <Gold.Id.Protein>
6NUR|6NUR_protein|mol2

> <Gold.PLP.Fitness>
32.6616

> <Gold.PLP.PLP>
-25.1775

> <Gold.PLP.part.hbond>
-3.0000

> <Gold.PLP.part.metal>
0.0000

> <Gold.PLP.part.buried>
-2.6579

> <Gold.PLP.part.nonpolar>
-20.6921

> <Gold.PLP.part.repulsive>
0.5377

> <Gold.PLP.ligand.clash>
0.0000

> <Gold.PLP.ligand.torsion>
0.5992

> <Gold.PLP.Chemscore.Hbond>
2.8800

> <Gold.PLP.Chemscore.CHOScore>
0.0000

> <Gold.PLP.Chemscore.Metal>
0.0000

> <Gold.Chemscore.Hbonds>
donor molecule, donor type, donor heavy atom, donor atom, acceptor molecule, acceptor atom, score
      L1  H     6    21       P1  7948  1.00
      L1  H     9    22       P1  7948  0.88
      L1  H    14    30       P1 10186  1.00

> <Gold.PLP.Chemscore.Internal.Correction>
0.0424

> <Gold.Rescore>
     Score         DG    S(hbond)    S(metal)    S(lipo)     H(rot)  DE(clash)    DE(int)     intcor
     14.70     -18.37       2.85        0.00      50.67       1.00       0.07       3.60       ----

> <Gold.Chemscore.Fitness>
14.6981

> <Gold.Chemscore.DG>
-18.3741

> <Gold.Chemscore.ZeroCoef>
-5.4800

> <Gold.Chemscore.Hbond>
2.8521

> <Gold.Chemscore.Metal>
0.0000

> <Gold.Chemscore.Lipo>
50.6674

> <Gold.Chemscore.Internal_Hbond>
0.0000

> <Gold.Chemscore.DEClash>
0.0750

> <Gold.Chemscore.DEInternal>
3.6011

> <Gold.Chemscore.Rot>
1.0000

> <Gold.Chemscore.Internal.Correction>
   9.000000E+99

> <Gold.Chemscore.Hbonds>
donor molecule, donor type, donor heavy atom, donor atom, acceptor molecule, acceptor atom, score
      L1  H     6    21       P1  7948  0.96
      L1  H     9    22       P1  7948  0.84
      L1  H    14    30       P1 10186  0.93

> <Gold.Chemscore.Hbond.Weighted>
-9.5260

> <Gold.Chemscore.Metal.Weighted>
-0.0000

> <Gold.Chemscore.Lipo.Weighted>
-5.9281

> <Gold.Chemscore.Internal_Hbond.Weighted>
0.0000

> <Gold.Chemscore.DEClash.Weighted>
0.0750

> <Gold.Chemscore.DEInternal.Weighted>
3.6011

> <Gold.Chemscore.Rot.Weighted>
2.5600

> <Gold.Chemscore.Internal.Correction.Weighted>
   9.000000E+99

> <Gold.Protein.RotatedTorsions>
[ 6907 6896 6895 6894 ] final  -30.58 input  -60.11 | X-H torsion
[ 7974 7965 7964 7962 ] final -170.82 input  175.53 | X-H torsion
[ 8008 7997 7996 7995 ] final  179.21 input   59.86 | X-H torsion
[ 10167 10162 10161 10158 ] final -154.74 input  -65.29 | X-H torsion
[ 10718 10713 10712 10709 ] final  -26.47 input   66.30 | X-H torsion
[ 10763 10752 10751 10750 ] final  121.88 input  -60.55 | X-H torsion
[ 11005 11000 10999 10996 ] final -142.07 input  -57.11 | X-H torsion

> <Gold.Protein.ActiveResidues>
 VAL166  LYS551  ARG553  GLY616  TRP617  ASP618  TYR619  PRO620  LYS621  CYS622 
 ASP623  PHE694  ASN695  SER759  ASP760  ASP761  ALA762  ILE779  LEU786  VAL792 
 PHE793  MET794  SER795  GLU796  ALA797  LYS798  CYS799  TRP800  GLU811  SER814 

> <Gold.Protein.RotatedAtoms>
  151.1037  134.9987  159.8460 H   0  0  0  0  0  0  0  0  0  0  0  0  # atno 6907 bound_to 6896
  152.5438  134.1919  159.8687 H   0  0  0  0  0  0  0  0  0  0  0  0  # atno 6908 bound_to 6896
  151.1964  133.4592  159.2629 H   0  0  0  0  0  0  0  0  0  0  0  0  # atno 6909 bound_to 6896
  144.7165  140.2015  143.6338 H   0  0  0  0  0  0  0  0  0  0  0  0  # atno 7974 bound_to 7965
  156.0460  140.1314  157.0103 H   0  0  0  0  0  0  0  0  0  0  0  0  # atno 8008 bound_to 7997
  154.4412  140.1020  156.6376 H   0  0  0  0  0  0  0  0  0  0  0  0  # atno 8009 bound_to 7997
  155.5596  140.3464  155.4490 H   0  0  0  0  0  0  0  0  0  0  0  0  # atno 8010 bound_to 7997
  139.6989  143.9296  152.2419 H   0  0  0  0  0  0  0  0  0  0  0  0  # atno 10167 bound_to 10162
  156.4508  130.4483  149.6991 H   0  0  0  0  0  0  0  0  0  0  0  0  # atno 10718 bound_to 10713
  153.6210  135.3413  155.3011 H   0  0  0  0  0  0  0  0  0  0  0  0  # atno 10763 bound_to 10752
  154.8600  135.4273  154.2207 H   0  0  0  0  0  0  0  0  0  0  0  0  # atno 10764 bound_to 10752
  153.3080  135.7029  153.7214 H   0  0  0  0  0  0  0  0  0  0  0  0  # atno 10765 bound_to 10752
  140.8262  134.2572  157.4878 H   0  0  0  0  0  0  0  0  0  0  0  0  # atno 11005 bound_to 11000
  145.8676  139.2255  143.1680 LP  0  0  0  0  0  0  0  0  0  0  0  0  # atno 17320 bound_to 7965
  146.0115  140.8431  142.9968 LP  0  0  0  0  0  0  0  0  0  0  0  0  # atno 17321 bound_to 7965
  139.9133  144.6843  150.8539 LP  0  0  0  0  0  0  0  0  0  0  0  0  # atno 17342 bound_to 10162
  140.7704  143.3427  151.2174 LP  0  0  0  0  0  0  0  0  0  0  0  0  # atno 17343 bound_to 10162
  156.3819  130.7583  151.2577 LP  0  0  0  0  0  0  0  0  0  0  0  0  # atno 17370 bound_to 10713
  157.7503  131.0293  150.4087 LP  0  0  0  0  0  0  0  0  0  0  0  0  # atno 17371 bound_to 10713
  139.8706  134.9562  156.4229 LP  0  0  0  0  0  0  0  0  0  0  0  0  # atno 17394 bound_to 11000
  140.9047  133.7754  155.9721 LP  0  0  0  0  0  0  0  0  0  0  0  0  # atno 17395 bound_to 11000

$$$$
