AV-unprocessed.smi:1750|AV-procd|sdf|7054|dock5
  -GOLD-   22720 8273D 1   1.00000     0.00000
 Structure written by MMmdl.
 35 36  0  0  0  0  0  0  0  0  2 V2000
  154.0723  137.2703  164.2986 C   0  0  0  0  0  0  0  0  0  0  0  0
  153.5929  135.9311  163.7285 C   0  0  0  0  0  0  0  0  0  0  0  0
  154.4233  135.4722  162.5219 C   0  0  0  0  0  0  0  0  0  0  0  0
  154.1593  136.2901  161.3018 C   0  0  0  0  0  0  0  0  0  0  0  0
  153.7601  135.7576  160.1437 N   0  0  0  0  0  0  0  0  0  0  0  0
  153.6105  136.7160  159.1518 N   0  0  0  0  0  0  0  0  0  0  0  0
  153.9260  137.9525  159.5633 C   0  0  0  0  0  0  0  0  0  0  0  0
  153.8549  139.0230  158.7548 N   0  5  0  0  0  0  0  0  0  0  0  0
  152.7029  139.7262  158.6660 C   0  0  0  0  0  0  0  0  0  0  0  0
  151.5627  139.2588  158.6188 O   0  0  0  0  0  0  0  0  0  0  0  0
  152.8809  141.0529  158.6286 N   0  0  0  0  0  0  0  0  0  0  0  0
  151.8140  142.0423  158.5412 C   0  0  0  0  0  0  0  0  0  0  0  0
  152.2673  143.3894  159.1218 C   0  0  2  0  0  0  0  0  0  0  0  0
  151.3445  143.9706  160.1910 C   0  0  0  0  0  0  0  0  0  0  0  0
  151.6696  145.4544  160.1538 C   0  0  0  0  0  0  0  0  0  0  0  0
  152.3200  145.6592  158.7812 C   0  0  0  0  0  0  0  0  0  0  0  0
  152.2438  144.3990  158.1259 O   0  0  0  0  0  0  0  0  0  0  0  0
  154.4157  138.0263  161.2555 S   0  0  0  0  0  0  0  0  0  0  0  0
  153.4606  137.5709  165.1493 H   0  0  0  0  0  0  0  0  0  0  0  0
  154.0132  138.0605  163.5498 H   0  0  0  0  0  0  0  0  0  0  0  0
  155.1062  137.2056  164.6383 H   0  0  0  0  0  0  0  0  0  0  0  0
  153.6361  135.1728  164.5112 H   0  0  0  0  0  0  0  0  0  0  0  0
  152.5446  136.0169  163.4397 H   0  0  0  0  0  0  0  0  0  0  0  0
  155.4871  135.5252  162.7567 H   0  0  0  0  0  0  0  0  0  0  0  0
  154.2066  134.4284  162.2923 H   0  0  0  0  0  0  0  0  0  0  0  0
  153.8279  141.3991  158.6705 H   0  0  0  0  0  0  0  0  0  0  0  0
  151.5204  142.1730  157.4985 H   0  0  0  0  0  0  0  0  0  0  0  0
  150.9377  141.6742  159.0769 H   0  0  0  0  0  0  0  0  0  0  0  0
  153.2839  143.3083  159.5115 H   0  0  0  0  0  0  0  0  0  0  0  0
  150.3014  143.8162  159.9113 H   0  0  0  0  0  0  0  0  0  0  0  0
  151.5000  143.5251  161.1740 H   0  0  0  0  0  0  0  0  0  0  0  0
  150.7732  146.0625  160.2803 H   0  0  0  0  0  0  0  0  0  0  0  0
  152.3703  145.7197  160.9464 H   0  0  0  0  0  0  0  0  0  0  0  0
  151.8188  146.4286  158.1936 H   0  0  0  0  0  0  0  0  0  0  0  0
  153.3665  145.9457  158.8925 H   0  0  0  0  0  0  0  0  0  0  0  0
  1  2  1  0  0  0  0
  1 19  1  0  0  0  0
  1 20  1  0  0  0  0
  1 21  1  0  0  0  0
  2  3  1  0  0  0  0
  2 22  1  0  0  0  0
  2 23  1  0  0  0  0
  3  4  1  0  0  0  0
  3 24  1  0  0  0  0
  3 25  1  0  0  0  0
  4 18  1  0  0  0  0
  4  5  2  0  0  0  0
  5  6  1  0  0  0  0
  6  7  2  0  0  0  0
  7  8  1  0  0  0  0
  7 18  1  0  0  0  0
  8  9  1  0  0  0  0
  9 10  2  0  0  0  0
  9 11  1  0  0  0  0
 11 12  1  0  0  0  0
 11 26  1  0  0  0  0
 12 13  1  0  0  0  0
 12 27  1  0  0  0  0
 12 28  1  0  0  0  0
 13 17  1  0  0  0  0
 13 14  1  0  0  0  0
 13 29  1  0  0  0  0
 14 15  1  0  0  0  0
 14 30  1  0  0  0  0
 14 31  1  0  0  0  0
 15 16  1  0  0  0  0
 15 32  1  0  0  0  0
 15 33  1  0  0  0  0
 16 17  1  0  0  0  0
 16 34  1  0  0  0  0
 16 35  1  0  0  0  0
M  CHG  1   8  -1
M  END
> <s_m_source_file>
AV-unprocessed.smi

> <i_m_source_file_index>
1750

> <i_lp_mmshare_version>
43012

> <i_f3d_flags>
0

> <s_epik_input>
W0NIM11bQ0gyXVtDSDJdYzFubmMoczEpW05IXUMoPU8pW05IXVtDSDJdW0NAQEhdMltDSDJdW0NIMl1bQ0gyXU8y

> <s_epik_cmdline>
J2VwaWtfcHl0aG9uJywgJy1waCcsICc3LjAnLCAnLXRuJywgJzgnLCAnLW1hJywgJzIwMCcsICctbWV0YWxfYmluZGluZycsICctaW1hZScsICc8aW5maWxlLm1hZT4nLCAnLW9tYWUnLCAnPG91dGZpbGUubWFlPic=

> <r_lp_tautomer_probability>
1

> <r_epik_Ionization_Penalty>
4.22484

> <r_epik_Ionization_Penalty_Charging>
4.21437

> <r_epik_Ionization_Penalty_Neutral>
0.0104685

> <r_epik_State_Penalty>
4.21389

> <r_epik_Charging_Adjusted_Penalty>
8.42826

> <i_epik_Tot_Q>
-1

> <i_epik_Tot_abs_Q>
1

> <r_epik_Metal_State_Penalty>
0.69377

> <b_epik_Metal_Only>
1

> <s_lp_Force_Field>
OPLS_2005

> <r_lp_Energy>
11.1337

> <b_lp_Chiralities_Consistent>
1

> <s_lp_Variant>
AV-unprocessed.smi:1750-3

> <Gold.Version>
5.8.1

> <Gold.Id.Protein>
6NUR|6NUR_protein|mol2

> <Gold.PLP.Fitness>
37.7104

> <Gold.PLP.PLP>
-32.7279

> <Gold.PLP.part.hbond>
-1.9639

> <Gold.PLP.part.metal>
0.0000

> <Gold.PLP.part.buried>
-4.0172

> <Gold.PLP.part.nonpolar>
-24.7452

> <Gold.PLP.part.repulsive>
0.1687

> <Gold.PLP.ligand.clash>
0.0000

> <Gold.PLP.ligand.torsion>
2.0264

> <Gold.PLP.Chemscore.Hbond>
3.0000

> <Gold.PLP.Chemscore.CHOScore>
0.0000

> <Gold.PLP.Chemscore.Metal>
0.0000

> <Gold.Chemscore.Hbonds>
donor molecule, donor type, donor heavy atom, donor atom, acceptor molecule, acceptor atom, score
      P1  H  6896  6908       L1     5  1.00
      P1  H  7997  8009       L1     8  1.46

> <Gold.PLP.Chemscore.Internal.Correction>
0.0354

> <Gold.Rescore>
     Score         DG    S(hbond)    S(metal)    S(lipo)     H(rot)  DE(clash)    DE(int)     intcor
     14.81     -16.89       1.74        0.00      82.70       1.59       0.06       2.02       ----

> <Gold.Chemscore.Fitness>
14.8129

> <Gold.Chemscore.DG>
-16.8949

> <Gold.Chemscore.ZeroCoef>
-5.4800

> <Gold.Chemscore.Hbond>
1.7410

> <Gold.Chemscore.Metal>
0.0000

> <Gold.Chemscore.Lipo>
82.7007

> <Gold.Chemscore.Internal_Hbond>
0.0000

> <Gold.Chemscore.DEClash>
0.0597

> <Gold.Chemscore.DEInternal>
2.0223

> <Gold.Chemscore.Rot>
1.5922

> <Gold.Chemscore.Internal.Correction>
   9.000000E+99

> <Gold.Chemscore.Hbonds>
donor molecule, donor type, donor heavy atom, donor atom, acceptor molecule, acceptor atom, score
      P1  H  6896  6908       L1     5  0.49
      P1  H  7997  8009       L1     8  0.10

> <Gold.Chemscore.Hbond.Weighted>
-5.8150

> <Gold.Chemscore.Metal.Weighted>
-0.0000

> <Gold.Chemscore.Lipo.Weighted>
-9.6760

> <Gold.Chemscore.Internal_Hbond.Weighted>
0.0000

> <Gold.Chemscore.DEClash.Weighted>
0.0597

> <Gold.Chemscore.DEInternal.Weighted>
2.0223

> <Gold.Chemscore.Rot.Weighted>
4.0761

> <Gold.Chemscore.Internal.Correction.Weighted>
   9.000000E+99

> <Gold.Protein.RotatedTorsions>
[ 6907 6896 6895 6894 ] final  -69.18 input  -60.11 | X-H torsion
[ 7974 7965 7964 7962 ] final  -40.08 input  175.53 | X-H torsion
[ 8008 7997 7996 7995 ] final  138.60 input   59.86 | X-H torsion
[ 10167 10162 10161 10158 ] final   -3.23 input  -65.29 | X-H torsion
[ 10718 10713 10712 10709 ] final  -73.17 input   66.30 | X-H torsion
[ 10763 10752 10751 10750 ] final   21.47 input  -60.55 | X-H torsion
[ 11005 11000 10999 10996 ] final  -90.50 input  -57.11 | X-H torsion

> <Gold.Protein.ActiveResidues>
 VAL166  LYS551  ARG553  GLY616  TRP617  ASP618  TYR619  PRO620  LYS621  CYS622 
 ASP623  PHE694  ASN695  SER759  ASP760  ASP761  ALA762  ILE779  LEU786  VAL792 
 PHE793  MET794  SER795  GLU796  ALA797  LYS798  CYS799  TRP800  GLU811  SER814 

> <Gold.Protein.RotatedAtoms>
  150.7318  134.5633  159.5852 H   0  0  0  0  0  0  0  0  0  0  0  0  # atno 6907 bound_to 6896
  152.3090  134.7517  160.0349 H   0  0  0  0  0  0  0  0  0  0  0  0  # atno 6908 bound_to 6896
  151.8071  133.3341  159.3581 H   0  0  0  0  0  0  0  0  0  0  0  0  # atno 6909 bound_to 6896
  146.0338  140.6698  142.9120 H   0  0  0  0  0  0  0  0  0  0  0  0  # atno 7974 bound_to 7965
  156.2996  140.2389  156.4099 H   0  0  0  0  0  0  0  0  0  0  0  0  # atno 8008 bound_to 7997
  154.8450  140.0426  157.1587 H   0  0  0  0  0  0  0  0  0  0  0  0  # atno 8009 bound_to 7997
  154.9061  140.2984  155.5295 H   0  0  0  0  0  0  0  0  0  0  0  0  # atno 8010 bound_to 7997
  140.6882  143.6564  150.8305 H   0  0  0  0  0  0  0  0  0  0  0  0  # atno 10167 bound_to 10162
  156.0291  130.4388  150.2703 H   0  0  0  0  0  0  0  0  0  0  0  0  # atno 10718 bound_to 10713
  153.0992  135.6668  153.9704 H   0  0  0  0  0  0  0  0  0  0  0  0  # atno 10763 bound_to 10752
  153.9279  135.3007  155.3448 H   0  0  0  0  0  0  0  0  0  0  0  0  # atno 10764 bound_to 10752
  154.7413  135.5078  153.9202 H   0  0  0  0  0  0  0  0  0  0  0  0  # atno 10765 bound_to 10752
  141.1564  133.7696  156.9746 H   0  0  0  0  0  0  0  0  0  0  0  0  # atno 11005 bound_to 11000
  144.7042  140.3783  143.7131 LP  0  0  0  0  0  0  0  0  0  0  0  0  # atno 17320 bound_to 7965
  145.6998  139.1658  143.2599 LP  0  0  0  0  0  0  0  0  0  0  0  0  # atno 17321 bound_to 7965
  140.0273  143.5480  152.2775 LP  0  0  0  0  0  0  0  0  0  0  0  0  # atno 17342 bound_to 10162
  139.6260  144.7637  151.2638 LP  0  0  0  0  0  0  0  0  0  0  0  0  # atno 17343 bound_to 10162
  157.0805  131.0142  151.3158 LP  0  0  0  0  0  0  0  0  0  0  0  0  # atno 17370 bound_to 10713
  157.4930  130.7834  149.7527 LP  0  0  0  0  0  0  0  0  0  0  0  0  # atno 17371 bound_to 10713
  140.1106  134.9479  157.2060 LP  0  0  0  0  0  0  0  0  0  0  0  0  # atno 17394 bound_to 11000
  140.3199  134.2929  155.7248 LP  0  0  0  0  0  0  0  0  0  0  0  0  # atno 17395 bound_to 11000

$$$$
